CHEMBL3397_lig66
                    3D
 Schrodinger Suite 2021-1.
 42 45  0  0  1  0            999 V2000
   -0.8990   30.7757   -1.3983 Cl  0  0  0  0  0  0
    4.0188   31.9364   -1.7167 O   0  0  0  0  0  0
    8.4082   35.7751   -0.9217 O   0  0  0  0  0  0
    5.4080   32.4805   -3.4647 N   0  0  0  0  0  0
    3.3402   34.0114   -4.5531 N   0  0  0  0  0  0
    6.8971   33.2219   -5.2372 N   0  0  0  0  0  0
    6.0651   34.7730   -6.9103 N   0  0  0  0  0  0
    5.6680   33.2380   -4.6439 C   0  0  0  0  0  0
    3.1333   33.3349   -3.4751 C   0  0  0  0  0  0
    4.2024   32.5197   -2.7906 C   0  0  0  0  0  0
    4.6063   34.0019   -5.1577 C   0  0  0  0  0  0
    1.7781   33.3661   -2.8805 C   0  0  0  0  0  0
    6.5199   31.6782   -2.8899 C   0  0  0  0  0  0
    4.8492   34.7591   -6.3039 C   0  0  0  0  0  0
    7.6920   32.4503   -2.2819 C   0  0  0  0  0  0
    1.1366   32.1872   -2.4677 C   0  0  0  0  0  0
    1.0942   34.5851   -2.7411 C   0  0  0  0  0  0
    7.0305   33.9994   -6.3432 C   0  0  0  0  0  0
   -0.1386   32.2319   -1.9104 C   0  0  0  0  0  0
    7.5673   33.7823   -1.8723 C   0  0  0  0  0  0
    8.9251   31.8077   -2.1352 C   0  0  0  0  0  0
   -0.1851   34.6254   -2.1842 C   0  0  0  0  0  0
    8.6430   34.4716   -1.3087 C   0  0  0  0  0  0
   -0.8013   33.4511   -1.7658 C   0  0  0  0  0  0
   10.0105   32.4829   -1.5777 C   0  0  0  0  0  0
    9.8719   33.8056   -1.1617 C   0  0  0  0  0  0
    9.4603   36.5230   -0.3237 C   0  0  0  0  0  0
    6.9107   31.0400   -3.6850 H   0  0  0  0  0  0
    6.1620   30.9886   -2.1217 H   0  0  0  0  0  0
    4.0796   35.3768   -6.7404 H   0  0  0  0  0  0
    1.6212   31.2280   -2.5753 H   0  0  0  0  0  0
    1.5573   35.5136   -3.0523 H   0  0  0  0  0  0
    7.9964   33.9936   -6.8279 H   0  0  0  0  0  0
    6.6228   34.2964   -1.9742 H   0  0  0  0  0  0
    9.0473   30.7794   -2.4455 H   0  0  0  0  0  0
   -0.6951   35.5718   -2.0786 H   0  0  0  0  0  0
   -1.7859   33.4823   -1.3223 H   0  0  0  0  0  0
   10.9595   31.9778   -1.4663 H   0  0  0  0  0  0
   10.7183   34.2975   -0.7107 H   0  0  0  0  0  0
    9.0968   37.5179   -0.0670 H   0  0  0  0  0  0
    9.8114   36.0562    0.5975 H   0  0  0  0  0  0
   10.2988   36.6476   -1.0096 H   0  0  0  0  0  0
  1 19  1  0  0  0
  2 10  2  0  0  0
  3 23  1  0  0  0
  3 27  1  0  0  0
  4  8  1  0  0  0
  4 10  1  0  0  0
  4 13  1  0  0  0
  5  9  2  0  0  0
  5 11  1  0  0  0
  6  8  1  0  0  0
  6 18  2  0  0  0
  7 14  2  0  0  0
  7 18  1  0  0  0
  8 11  2  0  0  0
  9 10  1  0  0  0
  9 12  1  0  0  0
 11 14  1  0  0  0
 12 16  1  0  0  0
 12 17  2  0  0  0
 13 15  1  0  0  0
 13 28  1  0  0  0
 13 29  1  0  0  0
 14 30  1  0  0  0
 15 20  2  0  0  0
 15 21  1  0  0  0
 16 19  2  0  0  0
 16 31  1  0  0  0
 17 22  1  0  0  0
 17 32  1  0  0  0
 18 33  1  0  0  0
 19 24  1  0  0  0
 20 23  1  0  0  0
 20 34  1  0  0  0
 21 25  2  0  0  0
 21 35  1  0  0  0
 22 24  2  0  0  0
 22 36  1  0  0  0
 23 26  2  0  0  0
 24 37  1  0  0  0
 25 26  1  0  0  0
 25 38  1  0  0  0
 26 39  1  0  0  0
 27 40  1  0  0  0
 27 41  1  0  0  0
 27 42  1  0  0  0
M  END
> <s_m_entry_id>
35846

> <s_m_entry_name>
dock_pv.2

> <s_m_Source_Path>
/home/csk/Desktop/cluster/DUD-E-result/cp2c9

> <s_m_Source_File>
dock_pv.maegz

> <i_m_Source_File_Index>
2

> <chembl_id>
CHEMBL1336787

> <chembl_pref_name>
None

> <i_lp_mmshare_version>
53161

> <i_f3d_flags>
0

> <r_lp_tautomer_probability>
1

> <s_lp_Force_Field>
OPLS_2005

> <r_lp_Energy>
36.650586

> <b_lp_Chiralities_Consistent>
1

> <s_lp_Variant>
CHEMBL3397_lig66-1

> <s_i_glide_gridfile>
glide-grid_1r9o

> <i_i_glide_lignum>
97

> <i_i_glide_rotatable_bonds>
4

> <r_i_docking_score>
-9.4227051041142

> <r_i_glide_ligand_efficiency>
-0.348989077930155

> <r_i_glide_ligand_efficiency_sa>
-1.04696723264026

> <r_i_glide_ligand_efficiency_ln>
-2.19345040280324

> <r_i_glide_gscore>
-9.4227051041142

> <r_i_glide_lipo>
-5.17704027419143

> <r_i_glide_hbond>
0

> <r_i_glide_metal>
0

> <r_i_glide_rewards>
-1.93274483707035

> <r_i_glide_evdw>
-51.6236610412598

> <r_i_glide_ecoul>
-0.9131019115448

> <r_i_glide_erotb>
0.405228345942295

> <r_i_glide_esite>
0

> <r_i_glide_emodel>
-79.9149671915922

> <r_i_glide_energy>
-52.5367629528046

> <r_i_glide_einternal>
3.73949027061462

> <i_i_glide_confnum>
4

> <i_i_glide_posenum>
342

> <r_i_glide_eff_state_penalty>
0

> <s_user_duplicate_titles>
CHEMBL3397_lig66

> <s_m_subgroup_title>
dock_pv

> <s_m_subgroupid>
dock_pv

> <b_m_subgroup_collapsed>
1

$$$$
CHEMBL3397_lig64
                    3D
 Schrodinger Suite 2021-1.
 54 57  0  0  1  0            999 V2000
    9.4143   35.0419   -1.4007 O   0  0  0  0  0  0
    4.5533   32.6538   -4.8645 N   0  0  0  0  0  0
    8.1947   33.2210   -2.0458 N   0  0  0  0  0  0
    7.0490   32.6033   -4.6610 C   0  0  1  0  0  0
    5.6993   31.8824   -4.3340 C   0  0  0  0  0  0
    3.3541   32.8668   -4.1971 C   0  0  0  0  0  0
    7.1410   34.0376   -4.0939 C   0  0  0  0  0  0
    8.2776   31.8910   -4.0519 C   0  0  0  0  0  0
    7.1868   32.5885   -6.2101 C   0  0  0  0  0  0
    4.6281   32.5947   -6.3353 C   0  0  0  0  0  0
    7.0618   34.0355   -2.5440 C   0  0  0  0  0  0
    8.2246   31.8158   -2.5072 C   0  0  0  0  0  0
    5.9336   33.1878   -6.8766 C   0  0  0  0  0  0
    1.0230   33.5944   -2.8098 C   0  0  0  0  0  0
    3.1251   32.4153   -2.8892 C   0  0  0  0  0  0
    2.3525   33.6374   -4.8034 C   0  0  0  0  0  0
    1.9663   32.7689   -2.1974 C   0  0  0  0  0  0
    1.2030   33.9774   -4.1298 C   0  0  0  0  0  0
   -0.1301   34.1506   -2.0881 C   0  0  0  0  0  0
    9.3102   33.8232   -1.5478 C   0  0  0  0  0  0
   -0.2578   35.5392   -1.9542 C   0  0  0  0  0  0
   -1.0954   33.3219   -1.5360 C   0  0  0  0  0  0
   10.4368   32.9580   -0.9940 C   0  0  0  0  0  0
   -1.3224   36.1044   -1.2589 C   0  0  0  0  0  0
   -2.1483   33.8899   -0.8322 C   0  0  0  0  0  0
   -2.2597   35.2681   -0.6900 C   0  0  0  0  0  0
    5.6792   30.8770   -4.7393 H   0  0  0  0  0  0
    5.6287   31.7780   -3.2619 H   0  0  0  0  0  0
    6.3253   34.6479   -4.4852 H   0  0  0  0  0  0
    8.0521   34.5342   -4.4313 H   0  0  0  0  0  0
    9.2070   32.3799   -4.3672 H   0  0  0  0  0  0
    8.3057   30.8666   -4.4328 H   0  0  0  0  0  0
    8.0791   33.1312   -6.5323 H   0  0  0  0  0  0
    7.3557   31.5741   -6.5632 H   0  0  0  0  0  0
    3.8373   33.1456   -6.8369 H   0  0  0  0  0  0
    4.4845   31.5694   -6.6665 H   0  0  0  0  0  0
    6.1365   33.5652   -2.2116 H   0  0  0  0  0  0
    7.0433   35.0368   -2.1151 H   0  0  0  0  0  0
    9.0255   31.2145   -2.0718 H   0  0  0  0  0  0
    7.3133   31.3255   -2.1665 H   0  0  0  0  0  0
    5.9108   34.2745   -6.7909 H   0  0  0  0  0  0
    5.9236   32.9852   -7.9418 H   0  0  0  0  0  0
    3.8522   31.8193   -2.3584 H   0  0  0  0  0  0
    2.4644   34.0610   -5.7841 H   0  0  0  0  0  0
    1.8323   32.4524   -1.1726 H   0  0  0  0  0  0
    0.4506   34.5868   -4.6051 H   0  0  0  0  0  0
    0.5120   36.1846   -2.3430 H   0  0  0  0  0  0
   -1.0170   32.2461   -1.6235 H   0  0  0  0  0  0
   10.0449   32.1543   -0.3675 H   0  0  0  0  0  0
   11.1009   33.5616   -0.3712 H   0  0  0  0  0  0
   11.0259   32.5318   -1.8041 H   0  0  0  0  0  0
   -1.3796   37.1793   -1.1342 H   0  0  0  0  0  0
   -2.8510   33.2171   -0.3723 H   0  0  0  0  0  0
   -3.0381   35.6892   -0.0765 H   0  0  0  0  0  0
  1 20  2  0  0  0
  2  5  1  0  0  0
  2  6  1  0  0  0
  2 10  1  0  0  0
  3 11  1  0  0  0
  3 12  1  0  0  0
  3 20  1  0  0  0
  4  5  1  0  0  0
  4  7  1  0  0  0
  4  8  1  0  0  0
  4  9  1  0  0  0
  5 27  1  0  0  0
  5 28  1  0  0  0
  6 15  2  0  0  0
  6 16  1  0  0  0
  7 11  1  0  0  0
  7 29  1  0  0  0
  7 30  1  0  0  0
  8 12  1  0  0  0
  8 31  1  0  0  0
  8 32  1  0  0  0
  9 13  1  0  0  0
  9 33  1  0  0  0
  9 34  1  0  0  0
 10 13  1  0  0  0
 10 35  1  0  0  0
 10 36  1  0  0  0
 11 37  1  0  0  0
 11 38  1  0  0  0
 12 39  1  0  0  0
 12 40  1  0  0  0
 13 41  1  0  0  0
 13 42  1  0  0  0
 14 17  2  0  0  0
 14 18  1  0  0  0
 14 19  1  0  0  0
 15 17  1  0  0  0
 15 43  1  0  0  0
 16 18  2  0  0  0
 16 44  1  0  0  0
 17 45  1  0  0  0
 18 46  1  0  0  0
 19 21  2  0  0  0
 19 22  1  0  0  0
 20 23  1  0  0  0
 21 24  1  0  0  0
 21 47  1  0  0  0
 22 25  2  0  0  0
 22 48  1  0  0  0
 23 49  1  0  0  0
 23 50  1  0  0  0
 23 51  1  0  0  0
 24 26  2  0  0  0
 24 52  1  0  0  0
 25 26  1  0  0  0
 25 53  1  0  0  0
 26 54  1  0  0  0
M  END
> <s_m_entry_id>
35847

> <s_m_entry_name>
dock_pv.3

> <s_m_Source_Path>
/home/csk/Desktop/cluster/DUD-E-result/cp2c9

> <s_m_Source_File>
dock_pv.maegz

> <i_m_Source_File_Index>
3

> <chembl_id>
CHEMBL1474185

> <chembl_pref_name>
None

> <i_lp_mmshare_version>
53161

> <i_f3d_flags>
0

> <r_lp_tautomer_probability>
1

> <s_lp_Force_Field>
OPLS_2005

> <r_lp_Energy>
53.700756

> <b_lp_Chiralities_Consistent>
1

> <s_lp_Variant>
CHEMBL3397_lig64-1

> <s_i_glide_gridfile>
glide-grid_1r9o

> <i_i_glide_lignum>
95

> <i_i_glide_rotatable_bonds>
3

> <r_i_docking_score>
-8.75590610498878

> <r_i_glide_ligand_efficiency>
-0.336765619422645

> <r_i_glide_ligand_efficiency_sa>
-0.997666822430862

> <r_i_glide_ligand_efficiency_ln>
-2.05629581828532

> <r_i_glide_gscore>
-8.75590610498878

> <r_i_glide_lipo>
-4.899916378223

> <r_i_glide_hbond>
0

> <r_i_glide_metal>
0

> <r_i_glide_rewards>
-2.19000610999552

> <r_i_glide_evdw>
-38.1636734008789

> <r_i_glide_ecoul>
-0.475500911474228

> <r_i_glide_erotb>
0.313525189994824

> <r_i_glide_esite>
0

> <r_i_glide_emodel>
-39.8096771000738

> <r_i_glide_energy>
-38.6391743123531

> <r_i_glide_einternal>
4.42842578887939

> <i_i_glide_confnum>
23

> <i_i_glide_posenum>
189

> <r_i_glide_eff_state_penalty>
0

> <s_user_duplicate_titles>
CHEMBL3397_lig64

> <s_m_subgroup_title>
dock_pv

> <s_m_subgroupid>
dock_pv

> <b_m_subgroup_collapsed>
1

$$$$
CHEMBL3397_lig52
                    3D
 Schrodinger Suite 2021-1.
 55 56  0  0  1  0            999 V2000
    3.1041   32.8589   -4.1002 C   0  0  0  0  0  0
    3.7754   32.0540   -3.1685 C   0  0  0  0  0  0
    1.8015   33.3094   -3.8167 C   0  0  0  0  0  0
    3.8055   33.1995   -5.4247 C   0  0  0  0  0  0
    3.1727   31.7705   -1.9404 C   0  0  0  0  0  0
    5.0231   31.5795   -3.5090 O   0  0  0  0  0  0
    1.2075   33.0341   -2.5686 C   0  0  0  0  0  0
    1.1008   33.9749   -4.7909 O   0  0  0  0  0  0
    4.9407   34.2293   -5.2532 C   0  0  0  0  0  0
    1.9024   32.2475   -1.6468 C   0  0  0  0  0  0
    5.4369   30.3062   -3.0285 C   0  0  0  0  0  0
   -0.1723   33.4677   -2.1996 C   0  0  0  0  0  0
    5.6994   34.5093   -6.5586 C   0  0  0  0  0  0
    6.8596   30.0602   -3.5471 C   0  0  0  0  0  0
   -0.5556   34.9155   -2.4939 C   0  0  0  0  0  0
   -0.9454   32.7749   -1.5402 O   0  0  0  0  0  0
    7.9307   30.8217   -2.7614 C   0  0  0  0  0  0
    7.7185   32.2156   -2.9280 O   0  0  0  0  0  0
    8.4685   33.1008   -2.1880 C   0  0  0  0  0  0
    8.0385   34.4227   -2.2003 C   0  0  0  0  0  0
    9.6066   32.7537   -1.4480 C   0  0  0  0  0  0
    8.7397   35.4012   -1.5042 C   0  0  0  0  0  0
   10.3011   33.7346   -0.7461 C   0  0  0  0  0  0
    9.8967   35.0678   -0.7890 C   0  0  0  0  0  0
   10.6876   35.9849   -0.1154 O   0  0  0  0  0  0
   10.5152   37.3976   -0.3232 C   0  0  0  0  0  0
   10.9987   37.8336   -1.7230 C   0  0  0  0  0  0
   10.8040   39.1665   -1.9411 O   0  0  0  0  0  0
   11.5011   37.0666   -2.5426 O   0  0  0  0  0  0
    4.2039   32.2758   -5.8487 H   0  0  0  0  0  0
    3.1018   33.5724   -6.1663 H   0  0  0  0  0  0
    3.6833   31.1835   -1.1944 H   0  0  0  0  0  0
    0.2179   34.2274   -4.5148 H   0  0  0  0  0  0
    4.5346   35.1633   -4.8613 H   0  0  0  0  0  0
    5.6544   33.8723   -4.5101 H   0  0  0  0  0  0
    1.4645   31.9980   -0.6893 H   0  0  0  0  0  0
    5.4293   30.2377   -1.9412 H   0  0  0  0  0  0
    4.7600   29.5406   -3.4137 H   0  0  0  0  0  0
    6.5451   35.1747   -6.3833 H   0  0  0  0  0  0
    6.0924   33.5903   -6.9960 H   0  0  0  0  0  0
    5.0551   34.9832   -7.2989 H   0  0  0  0  0  0
    7.0788   28.9921   -3.5105 H   0  0  0  0  0  0
    6.9165   30.3714   -4.5923 H   0  0  0  0  0  0
    0.3322   35.5450   -2.5573 H   0  0  0  0  0  0
   -1.1655   35.3028   -1.6780 H   0  0  0  0  0  0
   -1.1309   34.9907   -3.4151 H   0  0  0  0  0  0
    7.8605   30.5628   -1.7060 H   0  0  0  0  0  0
    8.9211   30.5384   -3.1162 H   0  0  0  0  0  0
    7.1529   34.6919   -2.7572 H   0  0  0  0  0  0
    9.9641   31.7362   -1.4059 H   0  0  0  0  0  0
    8.3731   36.4133   -1.5413 H   0  0  0  0  0  0
   11.1734   33.4599   -0.1723 H   0  0  0  0  0  0
    9.4817   37.6925   -0.1506 H   0  0  0  0  0  0
   11.1033   37.9151    0.4324 H   0  0  0  0  0  0
   10.5015   39.6568   -1.1641 H   0  0  0  0  0  0
  1  3  1  0  0  0
  1  2  2  0  0  0
  1  4  1  0  0  0
  2  5  1  0  0  0
  2  6  1  0  0  0
  3  7  2  0  0  0
  3  8  1  0  0  0
  4  9  1  0  0  0
  4 30  1  0  0  0
  4 31  1  0  0  0
  5 10  2  0  0  0
  5 32  1  0  0  0
  6 11  1  0  0  0
  7 12  1  0  0  0
  7 10  1  0  0  0
  8 33  1  0  0  0
  9 13  1  0  0  0
  9 34  1  0  0  0
  9 35  1  0  0  0
 10 36  1  0  0  0
 11 14  1  0  0  0
 11 37  1  0  0  0
 11 38  1  0  0  0
 12 15  1  0  0  0
 12 16  2  0  0  0
 13 39  1  0  0  0
 13 40  1  0  0  0
 13 41  1  0  0  0
 14 17  1  0  0  0
 14 42  1  0  0  0
 14 43  1  0  0  0
 15 44  1  0  0  0
 15 45  1  0  0  0
 15 46  1  0  0  0
 17 18  1  0  0  0
 17 47  1  0  0  0
 17 48  1  0  0  0
 18 19  1  0  0  0
 19 20  2  0  0  0
 19 21  1  0  0  0
 20 22  1  0  0  0
 20 49  1  0  0  0
 21 23  2  0  0  0
 21 50  1  0  0  0
 22 24  2  0  0  0
 22 51  1  0  0  0
 23 24  1  0  0  0
 23 52  1  0  0  0
 24 25  1  0  0  0
 25 26  1  0  0  0
 26 27  1  0  0  0
 26 53  1  0  0  0
 26 54  1  0  0  0
 27 29  2  0  0  0
 27 28  1  0  0  0
 28 55  1  0  0  0
M  END
> <s_m_entry_id>
35848

> <s_m_entry_name>
dock_pv.4

> <s_m_Source_Path>
/home/csk/Desktop/cluster/DUD-E-result/cp2c9

> <s_m_Source_File>
dock_pv.maegz

> <i_m_Source_File_Index>
4

> <chembl_id>
CHEMBL153057

> <chembl_pref_name>
None

> <i_lp_mmshare_version>
53161

> <i_f3d_flags>
0

> <r_lp_tautomer_probability>
0.99995

> <s_lp_Force_Field>
OPLS_2005

> <r_lp_Energy>
34.114119

> <b_lp_Chiralities_Consistent>
1

> <s_lp_Variant>
CHEMBL3397_lig52-1

> <s_i_glide_gridfile>
glide-grid_1r9o

> <i_i_glide_lignum>
83

> <i_i_glide_rotatable_bonds>
14

> <r_i_docking_score>
-8.72965860722319

> <r_i_glide_ligand_efficiency>
-0.301022710593903

> <r_i_glide_ligand_efficiency_sa>
-0.924837137633143

> <r_i_glide_ligand_efficiency_ln>
-1.99887045601173

> <r_i_glide_gscore>
-8.72965860722319

> <r_i_glide_lipo>
-4.96576989666266

> <r_i_glide_hbond>
-0.16

> <r_i_glide_metal>
0

> <r_i_glide_rewards>
-1.14236242686548

> <r_i_glide_evdw>
-47.0466613769531

> <r_i_glide_ecoul>
-8.80577278137207

> <r_i_glide_erotb>
1.21167270235842

> <r_i_glide_esite>
0

> <r_i_glide_emodel>
-81.5818042903735

> <r_i_glide_energy>
-55.8524341583252

> <r_i_glide_einternal>
8.50638961791992

> <i_i_glide_confnum>
38

> <i_i_glide_posenum>
281

> <r_i_glide_eff_state_penalty>
0

> <s_user_duplicate_titles>
CHEMBL3397_lig52

> <s_m_subgroup_title>
dock_pv

> <s_m_subgroupid>
dock_pv

> <b_m_subgroup_collapsed>
1

$$$$
CHEMBL3397_lig154
                    3D
 Schrodinger Suite 2021-1.
 42 45  0  0  1  0            999 V2000
   -1.7047   35.9742   -1.9251 Cl  0  0  0  0  0  0
    2.4675   33.1757   -1.7232 O   0  0  0  0  0  0
    9.1018   31.1720   -2.3417 O   0  0  0  0  0  0
    6.9277   31.9110   -2.2207 N   0  0  0  0  0  0
    4.6178   32.5296   -1.9403 N   0  0  0  0  0  0
    6.1512   29.5628   -3.5388 N   0  0  0  0  0  0
    2.8913   31.2485   -3.0567 N   0  0  0  0  0  0
    5.5409   31.6716   -2.4315 C   0  0  0  0  0  0
    5.1905   30.5217   -3.1605 C   0  0  0  0  0  0
    7.9020   30.9995   -2.5451 C   0  0  0  0  0  0
    3.3347   32.2642   -2.2633 C   0  0  0  0  0  0
    3.8432   30.3813   -3.4945 C   0  0  0  0  0  0
    7.3721   29.7955   -3.2096 C   0  0  0  0  0  0
    7.3456   33.2682   -1.7932 C   0  0  0  0  0  0
    1.1017   33.1310   -1.7959 C   0  0  0  0  0  0
    6.9606   34.4252   -2.7570 C   0  0  0  0  0  0
    0.4538   34.3559   -1.9431 C   0  0  0  0  0  0
    6.5827   34.0577   -4.1940 C   0  0  0  0  0  0
    0.3558   31.9733   -1.5509 C   0  0  0  0  0  0
   -0.9271   34.4391   -1.8111 C   0  0  0  0  0  0
   -1.0301   32.0486   -1.4479 C   0  0  0  0  0  0
   -1.6627   33.2852   -1.5498 C   0  0  0  0  0  0
    5.3017   34.3540   -4.6735 C   0  0  0  0  0  0
    7.5009   33.4053   -5.0180 C   0  0  0  0  0  0
    4.9336   33.9795   -5.9614 C   0  0  0  0  0  0
    7.1332   33.0266   -6.3061 C   0  0  0  0  0  0
    5.8493   33.3111   -6.7686 C   0  0  0  0  0  0
    3.5022   29.5862   -4.1323 H   0  0  0  0  0  0
    8.0929   29.0274   -3.4749 H   0  0  0  0  0  0
    8.4356   33.2956   -1.7790 H   0  0  0  0  0  0
    7.1004   33.4876   -0.7517 H   0  0  0  0  0  0
    7.7447   35.1751   -2.7388 H   0  0  0  0  0  0
    6.0899   34.9256   -2.3416 H   0  0  0  0  0  0
    1.0337   35.2524   -2.1046 H   0  0  0  0  0  0
    0.8480   31.0301   -1.3857 H   0  0  0  0  0  0
   -1.6119   31.1651   -1.2333 H   0  0  0  0  0  0
   -2.7289   33.3464   -1.4181 H   0  0  0  0  0  0
    4.5821   34.8567   -4.0436 H   0  0  0  0  0  0
    8.4869   33.1666   -4.6470 H   0  0  0  0  0  0
    3.9425   34.1986   -6.3314 H   0  0  0  0  0  0
    7.8374   32.5076   -6.9397 H   0  0  0  0  0  0
    5.5570   33.0142   -7.7648 H   0  0  0  0  0  0
  1 20  1  0  0  0
  2 11  1  0  0  0
  2 15  1  0  0  0
  3 10  2  0  0  0
  4  8  1  0  0  0
  4 10  1  0  0  0
  4 14  1  0  0  0
  5  8  1  0  0  0
  5 11  2  0  0  0
  6  9  1  0  0  0
  6 13  2  0  0  0
  7 11  1  0  0  0
  7 12  2  0  0  0
  8  9  2  0  0  0
  9 12  1  0  0  0
 10 13  1  0  0  0
 12 28  1  0  0  0
 13 29  1  0  0  0
 14 16  1  0  0  0
 14 30  1  0  0  0
 14 31  1  0  0  0
 15 17  1  0  0  0
 15 19  2  0  0  0
 16 18  1  0  0  0
 16 32  1  0  0  0
 16 33  1  0  0  0
 17 20  2  0  0  0
 17 34  1  0  0  0
 18 23  2  0  0  0
 18 24  1  0  0  0
 19 21  1  0  0  0
 19 35  1  0  0  0
 20 22  1  0  0  0
 21 22  2  0  0  0
 21 36  1  0  0  0
 22 37  1  0  0  0
 23 25  1  0  0  0
 23 38  1  0  0  0
 24 26  2  0  0  0
 24 39  1  0  0  0
 25 27  2  0  0  0
 25 40  1  0  0  0
 26 27  1  0  0  0
 26 41  1  0  0  0
 27 42  1  0  0  0
M  END
> <s_m_entry_id>
35849

> <s_m_entry_name>
dock_pv.5

> <s_m_Source_Path>
/home/csk/Desktop/cluster/DUD-E-result/cp2c9

> <s_m_Source_File>
dock_pv.maegz

> <i_m_Source_File_Index>
5

> <chembl_id>
CHEMBL1417025

> <chembl_pref_name>
None

> <i_lp_mmshare_version>
53161

> <i_f3d_flags>
0

> <r_lp_tautomer_probability>
1

> <s_lp_Force_Field>
OPLS_2005

> <r_lp_Energy>
30.825425

> <b_lp_Chiralities_Consistent>
1

> <s_lp_Variant>
CHEMBL3397_lig154-1

> <s_i_glide_gridfile>
glide-grid_1r9o

> <i_i_glide_lignum>
195

> <i_i_glide_rotatable_bonds>
5

> <r_i_docking_score>
-8.69758276098165

> <r_i_glide_ligand_efficiency>
-0.322132694851172

> <r_i_glide_ligand_efficiency_sa>
-0.96639808349182

> <r_i_glide_ligand_efficiency_ln>
-2.02465387589811

> <r_i_glide_gscore>
-8.69758276098165

> <r_i_glide_lipo>
-5.16830941039845

> <r_i_glide_hbond>
0

> <r_i_glide_metal>
0

> <r_i_glide_rewards>
-1.94389662391577

> <r_i_glide_evdw>
-47.7513542175293

> <r_i_glide_ecoul>
0.845402717590332

> <r_i_glide_erotb>
0.675380576570492

> <r_i_glide_esite>
0

> <r_i_glide_emodel>
-54.4365224873572

> <r_i_glide_energy>
-46.905951499939

> <r_i_glide_einternal>
9.92253112792969

> <i_i_glide_confnum>
20

> <i_i_glide_posenum>
222

> <r_i_glide_eff_state_penalty>
0

> <s_user_duplicate_titles>
CHEMBL3397_lig154

> <s_m_subgroup_title>
dock_pv

> <s_m_subgroupid>
dock_pv

> <b_m_subgroup_collapsed>
1

$$$$
CHEMBL3397_lig146
                    3D
 Schrodinger Suite 2021-1.
 50 54  0  0  1  0            999 V2000
   11.8969   37.9695   -2.4205 Cl  0  0  0  0  0  0
    1.9500   33.9749   -4.7027 O   0  0  0  0  0  0
    8.7582   34.0076   -2.8467 O   0  0  0  0  0  0
    4.1018   33.6814   -6.7410 O   0  0  0  0  0  0
    4.1302   34.2298   -3.9723 N   0  0  0  0  0  0
    3.6247   32.2326   -2.1104 N   0  0  0  0  0  0
    6.4971   34.2002   -3.3803 N   0  0  0  0  0  0
    7.3110   32.4271   -1.9413 N   0  0  0  0  0  0
    5.2323   33.7070   -3.2381 C   0  0  0  0  0  0
    4.9460   32.6259   -2.3968 C   0  0  0  0  0  0
    2.8563   33.7084   -3.9080 C   0  0  0  0  0  0
    2.6554   32.7790   -2.7636 C   0  0  0  0  0  0
    1.2646   32.5316   -2.3630 C   0  0  0  0  0  0
    7.4748   33.5314   -2.7129 C   0  0  0  0  0  0
    4.3909   35.3004   -4.9426 C   0  0  0  0  0  0
    6.0281   32.0024   -1.7921 C   0  0  0  0  0  0
    4.8388   34.8360   -6.3497 C   0  0  1  0  0  0
    0.7590   31.2334   -2.3832 C   0  0  0  0  0  0
    0.4475   33.5930   -1.9457 C   0  0  0  0  0  0
    9.2154   35.0159   -2.0202 C   0  0  0  0  0  0
    6.3162   34.4592   -6.5375 C   0  0  0  0  0  0
   -0.5295   30.9798   -1.9413 C   0  0  0  0  0  0
   -0.8604   33.3449   -1.5420 C   0  0  0  0  0  0
   10.2489   35.8245   -2.5019 C   0  0  0  0  0  0
    8.6901   35.2764   -0.7439 C   0  0  0  0  0  0
    4.9596   32.7119   -7.3203 C   0  0  0  0  0  0
    6.2849   32.9482   -6.6051 C   0  0  0  0  0  0
   -1.3354   32.0377   -1.5365 C   0  0  0  0  0  0
   10.7039   36.9133   -1.7569 C   0  0  0  0  0  0
    9.1728   36.3403    0.0191 C   0  0  0  0  0  0
   10.1762   37.1630   -0.4908 C   0  0  0  0  0  0
    3.5017   35.9174   -5.0557 H   0  0  0  0  0  0
    5.1182   35.9686   -4.4928 H   0  0  0  0  0  0
    5.8520   31.1751   -1.1406 H   0  0  0  0  0  0
    4.7003   35.6539   -7.0546 H   0  0  0  0  0  0
    1.3677   30.4179   -2.7417 H   0  0  0  0  0  0
    0.8204   34.6080   -1.9259 H   0  0  0  0  0  0
    6.6601   34.8300   -7.5047 H   0  0  0  0  0  0
    6.9933   34.8858   -5.8003 H   0  0  0  0  0  0
   -0.8999   29.9688   -1.9415 H   0  0  0  0  0  0
   -1.4942   34.1540   -1.2103 H   0  0  0  0  0  0
   10.6496   35.6419   -3.4887 H   0  0  0  0  0  0
    7.8984   34.6613   -0.3429 H   0  0  0  0  0  0
    5.0307   32.8642   -8.3984 H   0  0  0  0  0  0
    4.5451   31.7184   -7.1562 H   0  0  0  0  0  0
    7.1365   32.5294   -7.1412 H   0  0  0  0  0  0
    6.2649   32.5037   -5.6098 H   0  0  0  0  0  0
   -2.3412   31.8443   -1.1974 H   0  0  0  0  0  0
    8.7578   36.5382    0.9970 H   0  0  0  0  0  0
   10.5321   38.0020    0.0895 H   0  0  0  0  0  0
  1 29  1  0  0  0
  2 11  2  0  0  0
  3 14  1  0  0  0
  3 20  1  0  0  0
  4 17  1  0  0  0
  4 26  1  0  0  0
  5  9  1  0  0  0
  5 11  1  0  0  0
  5 15  1  0  0  0
  6 10  1  0  0  0
  6 12  2  0  0  0
  7  9  1  0  0  0
  7 14  2  0  0  0
  8 14  1  0  0  0
  8 16  2  0  0  0
  9 10  2  0  0  0
 10 16  1  0  0  0
 11 12  1  0  0  0
 12 13  1  0  0  0
 13 18  2  0  0  0
 13 19  1  0  0  0
 15 17  1  0  0  0
 15 32  1  0  0  0
 15 33  1  0  0  0
 16 34  1  0  0  0
 17 21  1  0  0  0
 17 35  1  0  0  0
 18 22  1  0  0  0
 18 36  1  0  0  0
 19 23  2  0  0  0
 19 37  1  0  0  0
 20 24  1  0  0  0
 20 25  2  0  0  0
 21 27  1  0  0  0
 21 38  1  0  0  0
 21 39  1  0  0  0
 22 28  2  0  0  0
 22 40  1  0  0  0
 23 28  1  0  0  0
 23 41  1  0  0  0
 24 29  2  0  0  0
 24 42  1  0  0  0
 25 30  1  0  0  0
 25 43  1  0  0  0
 26 27  1  0  0  0
 26 44  1  0  0  0
 26 45  1  0  0  0
 27 46  1  0  0  0
 27 47  1  0  0  0
 28 48  1  0  0  0
 29 31  1  0  0  0
 30 31  2  0  0  0
 30 49  1  0  0  0
 31 50  1  0  0  0
M  END
> <s_m_entry_id>
35850

> <s_m_entry_name>
dock_pv.6

> <s_m_Source_Path>
/home/csk/Desktop/cluster/DUD-E-result/cp2c9

> <s_m_Source_File>
dock_pv.maegz

> <i_m_Source_File_Index>
6

> <chembl_id>
CHEMBL1404703

> <chembl_pref_name>
None

> <i_lp_mmshare_version>
53161

> <i_f3d_flags>
0

> <r_lp_tautomer_probability>
1

> <s_lp_Force_Field>
OPLS_2005

> <r_lp_Energy>
51.684777

> <b_lp_Chiralities_Consistent>
1

> <s_lp_Variant>
CHEMBL3397_lig146-1

> <s_i_glide_gridfile>
glide-grid_1r9o

> <i_i_glide_lignum>
186

> <i_i_glide_rotatable_bonds>
5

> <r_i_docking_score>
-8.68047620120977

> <r_i_glide_ligand_efficiency>
-0.280015361329347

> <r_i_glide_ligand_efficiency_sa>
-0.879634837445512

> <r_i_glide_ligand_efficiency_ln>
-1.95771340802002

> <r_i_glide_gscore>
-8.68047620120977

> <r_i_glide_lipo>
-4.93557190313151

> <r_i_glide_hbond>
0

> <r_i_glide_metal>
0

> <r_i_glide_rewards>
-1.63299146725369

> <r_i_glide_evdw>
-48.7108917236328

> <r_i_glide_ecoul>
-1.35343778133392

> <r_i_glide_erotb>
0.526647422557151

> <r_i_glide_esite>
0

> <r_i_glide_emodel>
-53.9494338483305

> <r_i_glide_energy>
-50.0643295049667

> <r_i_glide_einternal>
15.770525932312

> <i_i_glide_confnum>
11

> <i_i_glide_posenum>
138

> <r_i_glide_eff_state_penalty>
0

> <s_user_duplicate_titles>
CHEMBL3397_lig146

> <s_m_subgroup_title>
dock_pv

> <s_m_subgroupid>
dock_pv

> <b_m_subgroup_collapsed>
1

$$$$
CHEMBL3397_lig78
                    3D
 Schrodinger Suite 2021-1.
 45 48  0  0  1  0            999 V2000
    9.1336   32.5366   -1.9617 C   0  0  0  0  0  0
    8.4103   33.7305   -1.9544 C   0  0  0  0  0  0
    7.0650   33.7237   -2.3410 C   0  0  0  0  0  0
    8.5387   31.3372   -2.3417 C   0  0  0  0  0  0
    7.1883   31.3071   -2.7500 C   0  0  0  0  0  0
    6.4278   32.5161   -2.7543 C   0  0  0  0  0  0
    5.0732   32.3964   -3.2073 C   0  0  0  0  0  0
    4.5510   31.2025   -3.5960 N   0  0  0  0  0  0
    5.3648   30.1268   -3.5328 C   0  0  0  0  0  0
    6.6580   30.1142   -3.1381 N   0  0  0  0  0  0
    9.0763   34.9902   -1.5410 C   0  0  0  0  0  0
   10.0602   35.5742   -2.3489 C   0  0  0  0  0  0
   10.6997   36.7676   -1.9710 C   0  0  0  0  0  0
   10.3748   37.3382   -0.7410 C   0  0  0  0  0  0
    9.3964   36.7697    0.0743 C   0  0  0  0  0  0
    8.7394   35.6098   -0.3345 C   0  0  0  0  0  0
    4.2462   33.5357   -3.3057 N   0  0  0  0  0  0
    2.9755   33.5363   -4.0389 C   0  0  0  0  0  0
    1.7678   33.2873   -3.1411 C   0  0  0  0  0  0
    0.9795   34.3688   -2.7355 C   0  0  0  0  0  0
   -0.1450   34.1544   -1.9408 C   0  0  0  0  0  0
   -0.4752   32.8602   -1.5415 C   0  0  0  0  0  0
    0.3105   31.7774   -1.9348 C   0  0  0  0  0  0
    1.4305   31.9912   -2.7347 C   0  0  0  0  0  0
   11.6146   37.4403   -2.7554 O   0  0  0  0  0  0
   11.7106   37.1035   -4.1384 C   0  0  0  0  0  0
   10.1703   32.5336   -1.6535 H   0  0  0  0  0  0
    6.5069   34.6477   -2.3402 H   0  0  0  0  0  0
    9.1012   30.4157   -2.3406 H   0  0  0  0  0  0
    4.9423   29.1819   -3.8403 H   0  0  0  0  0  0
   10.2958   35.0995   -3.2891 H   0  0  0  0  0  0
   10.8580   38.2541   -0.4305 H   0  0  0  0  0  0
    9.1363   37.2380    1.0133 H   0  0  0  0  0  0
    7.9787   35.1796    0.3018 H   0  0  0  0  0  0
    4.6848   34.4339   -3.1566 H   0  0  0  0  0  0
    2.9881   32.8016   -4.8452 H   0  0  0  0  0  0
    2.8641   34.5019   -4.5354 H   0  0  0  0  0  0
    1.2276   35.3751   -3.0380 H   0  0  0  0  0  0
   -0.7553   34.9891   -1.6263 H   0  0  0  0  0  0
   -1.3410   32.6958   -0.9153 H   0  0  0  0  0  0
    0.0493   30.7761   -1.6215 H   0  0  0  0  0  0
    2.0256   31.1431   -3.0428 H   0  0  0  0  0  0
   12.3444   37.8322   -4.6432 H   0  0  0  0  0  0
   12.1587   36.1199   -4.2839 H   0  0  0  0  0  0
   10.7357   37.1291   -4.6284 H   0  0  0  0  0  0
  1  2  2  0  0  0
  1  4  1  0  0  0
  1 27  1  0  0  0
  2 11  1  0  0  0
  2  3  1  0  0  0
  3  6  2  0  0  0
  3 28  1  0  0  0
  4  5  2  0  0  0
  4 29  1  0  0  0
  5 10  1  0  0  0
  5  6  1  0  0  0
  6  7  1  0  0  0
  7  8  2  0  0  0
  7 17  1  0  0  0
  8  9  1  0  0  0
  9 10  2  0  0  0
  9 30  1  0  0  0
 11 16  1  0  0  0
 11 12  2  0  0  0
 12 13  1  0  0  0
 12 31  1  0  0  0
 13 14  2  0  0  0
 13 25  1  0  0  0
 14 15  1  0  0  0
 14 32  1  0  0  0
 15 16  2  0  0  0
 15 33  1  0  0  0
 16 34  1  0  0  0
 17 18  1  0  0  0
 17 35  1  0  0  0
 18 19  1  0  0  0
 18 36  1  0  0  0
 18 37  1  0  0  0
 19 20  2  0  0  0
 19 24  1  0  0  0
 20 21  1  0  0  0
 20 38  1  0  0  0
 21 22  2  0  0  0
 21 39  1  0  0  0
 22 23  1  0  0  0
 22 40  1  0  0  0
 23 24  2  0  0  0
 23 41  1  0  0  0
 24 42  1  0  0  0
 25 26  1  0  0  0
 26 43  1  0  0  0
 26 44  1  0  0  0
 26 45  1  0  0  0
M  END
> <s_m_entry_id>
35851

> <s_m_entry_name>
dock_pv.7

> <s_m_Source_Path>
/home/csk/Desktop/cluster/DUD-E-result/cp2c9

> <s_m_Source_File>
dock_pv.maegz

> <i_m_Source_File_Index>
7

> <chembl_id>
CHEMBL516075

> <chembl_pref_name>
None

> <i_lp_mmshare_version>
53161

> <i_f3d_flags>
0

> <r_lp_tautomer_probability>
0.999978000241998

> <s_lp_Force_Field>
OPLS_2005

> <r_lp_Energy>
21.414676

> <b_lp_Chiralities_Consistent>
1

> <s_lp_Variant>
CHEMBL3397_lig78-1

> <s_i_glide_gridfile>
glide-grid_1r9o

> <i_i_glide_lignum>
111

> <i_i_glide_rotatable_bonds>
5

> <r_i_docking_score>
-8.60809773926538

> <r_i_glide_ligand_efficiency>
-0.331080682279437

> <r_i_glide_ligand_efficiency_sa>
-0.980825218513256

> <r_i_glide_ligand_efficiency_ln>
-2.02158350859399

> <r_i_glide_gscore>
-8.60809773926538

> <r_i_glide_lipo>
-4.83664896509105

> <r_i_glide_hbond>
-0.16

> <r_i_glide_metal>
0

> <r_i_glide_rewards>
-1.60864253559826

> <r_i_glide_evdw>
-48.7999725341797

> <r_i_glide_ecoul>
-1.42075216770172

> <r_i_glide_erotb>
0.650305213288174

> <r_i_glide_esite>
0

> <r_i_glide_emodel>
-74.4903776092792

> <r_i_glide_energy>
-50.2207247018814

> <r_i_glide_einternal>
5.79875373840332

> <i_i_glide_confnum>
24

> <i_i_glide_posenum>
361

> <r_i_glide_eff_state_penalty>
0

> <s_user_duplicate_titles>
CHEMBL3397_lig78

> <s_m_subgroup_title>
dock_pv

> <s_m_subgroupid>
dock_pv

> <b_m_subgroup_collapsed>
1

$$$$
CHEMBL3397_lig160
                    3D
 Schrodinger Suite 2021-1.
 47 49  0  0  1  0            999 V2000
   11.0949   32.6222   -1.8953 Br  0  0  0  0  0  0
    4.3592   33.1585   -3.0749 O   0  0  0  0  0  0
    4.4246   30.9800   -2.3409 O   0  0  0  0  0  0
    1.5003   35.1926   -2.7409 O   0  0  0  0  0  0
    3.1062   33.1051   -3.7816 C   0  0  2  0  0  0
    1.8647   32.8566   -2.8860 C   0  0  0  0  0  0
    4.9680   32.0722   -2.5112 C   0  0  0  0  0  0
    6.4415   32.2587   -2.3524 C   0  0  0  0  0  0
    1.0753   34.0595   -2.5458 C   0  0  0  0  0  0
    3.1806   32.2286   -5.0639 C   0  0  0  0  0  0
    1.4755   31.6350   -2.4522 C   0  0  0  0  0  0
    7.2630   31.1303   -2.4521 C   0  0  0  0  0  0
    7.0251   33.5161   -2.1414 C   0  0  0  0  0  0
   -0.2371   33.8773   -1.7660 C   0  0  0  0  0  0
    9.2090   32.4964   -2.1012 C   0  0  0  0  0  0
    3.7442   32.9353   -6.3198 C   0  0  0  0  0  0
    0.2523   31.3457   -1.5942 C   0  0  0  0  0  0
    8.6397   31.2522   -2.3408 C   0  0  0  0  0  0
    8.4079   33.6330   -2.0064 C   0  0  0  0  0  0
   -0.8031   32.4474   -1.7872 C   0  0  0  0  0  0
    5.1732   33.4617   -6.3033 C   0  0  0  0  0  0
    5.4512   34.6462   -6.9912 C   0  0  0  0  0  0
    6.2123   32.7745   -5.6732 C   0  0  0  0  0  0
    6.7239   35.1747   -7.0176 C   0  0  0  0  0  0
    7.4974   33.3117   -5.6778 C   0  0  0  0  0  0
    7.7331   34.5176   -6.3387 C   0  0  0  0  0  0
    3.0080   34.1182   -4.1730 H   0  0  0  0  0  0
    2.1582   31.9581   -5.3280 H   0  0  0  0  0  0
    3.6901   31.2819   -4.8857 H   0  0  0  0  0  0
    2.0683   30.7823   -2.7444 H   0  0  0  0  0  0
    6.8464   30.1468   -2.6262 H   0  0  0  0  0  0
    6.4126   34.4034   -2.0751 H   0  0  0  0  0  0
   -0.0054   34.1279   -0.7411 H   0  0  0  0  0  0
   -0.9647   34.6108   -2.1137 H   0  0  0  0  0  0
    3.1011   33.7944   -6.5004 H   0  0  0  0  0  0
    3.6503   32.2727   -7.1813 H   0  0  0  0  0  0
   -0.1811   30.3800   -1.8583 H   0  0  0  0  0  0
    0.5496   31.2703   -0.5475 H   0  0  0  0  0  0
    9.2563   30.3732   -2.4243 H   0  0  0  0  0  0
    8.8541   34.6005   -1.8301 H   0  0  0  0  0  0
   -1.5837   32.3471   -1.0315 H   0  0  0  0  0  0
   -1.2939   32.2972   -2.7408 H   0  0  0  0  0  0
    4.7009   35.1862   -7.5333 H   0  0  0  0  0  0
    6.0282   31.8361   -5.1735 H   0  0  0  0  0  0
    6.9167   36.0822   -7.5659 H   0  0  0  0  0  0
    8.2989   32.7980   -5.1677 H   0  0  0  0  0  0
    8.7010   34.9749   -6.3460 H   0  0  0  0  0  0
  1 15  1  0  0  0
  2  5  1  0  0  0
  2  7  1  0  0  0
  3  7  2  0  0  0
  4  9  2  0  0  0
  5  6  1  0  0  0
  5 10  1  0  0  0
  5 27  1  0  0  0
  6  9  1  0  0  0
  6 11  2  0  0  0
  7  8  1  0  0  0
  8 12  2  0  0  0
  8 13  1  0  0  0
  9 14  1  0  0  0
 10 16  1  0  0  0
 10 28  1  0  0  0
 10 29  1  0  0  0
 11 17  1  0  0  0
 11 30  1  0  0  0
 12 18  1  0  0  0
 12 31  1  0  0  0
 13 19  2  0  0  0
 13 32  1  0  0  0
 14 20  1  0  0  0
 14 33  1  0  0  0
 14 34  1  0  0  0
 15 18  2  0  0  0
 15 19  1  0  0  0
 16 21  1  0  0  0
 16 35  1  0  0  0
 16 36  1  0  0  0
 17 20  1  0  0  0
 17 37  1  0  0  0
 17 38  1  0  0  0
 18 39  1  0  0  0
 19 40  1  0  0  0
 20 41  1  0  0  0
 20 42  1  0  0  0
 21 22  2  0  0  0
 21 23  1  0  0  0
 22 24  1  0  0  0
 22 43  1  0  0  0
 23 25  2  0  0  0
 23 44  1  0  0  0
 24 26  2  0  0  0
 24 45  1  0  0  0
 25 26  1  0  0  0
 25 46  1  0  0  0
 26 47  1  0  0  0
M  END
> <s_m_entry_id>
35852

> <s_m_entry_name>
dock_pv.8

> <s_m_Source_Path>
/home/csk/Desktop/cluster/DUD-E-result/cp2c9

> <s_m_Source_File>
dock_pv.maegz

> <i_m_Source_File_Index>
8

> <chembl_id>
CHEMBL1365082

> <chembl_pref_name>
None

> <i_lp_mmshare_version>
53161

> <i_f3d_flags>
0

> <r_lp_tautomer_probability>
1

> <s_lp_Force_Field>
OPLS_2005

> <r_lp_Energy>
13.09656

> <b_lp_Chiralities_Consistent>
1

> <s_lp_Variant>
CHEMBL3397_lig160-1

> <s_i_glide_gridfile>
glide-grid_1r9o

> <i_i_glide_lignum>
204

> <i_i_glide_rotatable_bonds>
7

> <r_i_docking_score>
-8.55593500323893

> <r_i_glide_ligand_efficiency>
-0.329074423201497

> <r_i_glide_ligand_efficiency_sa>
-0.974881683889106

> <r_i_glide_ligand_efficiency_ln>
-2.00933326119807

> <r_i_glide_gscore>
-8.55593500323893

> <r_i_glide_lipo>
-5.39288626782667

> <r_i_glide_hbond>
0

> <r_i_glide_metal>
0

> <r_i_glide_rewards>
-1.74880942460652

> <r_i_glide_evdw>
-37.9461326599121

> <r_i_glide_ecoul>
0.140879988670349

> <r_i_glide_erotb>
0.461935323889322

> <r_i_glide_esite>
0

> <r_i_glide_emodel>
-46.3324530367249

> <r_i_glide_energy>
-37.8052526712418

> <r_i_glide_einternal>
14.819993019104

> <i_i_glide_confnum>
74

> <i_i_glide_posenum>
222

> <r_i_glide_eff_state_penalty>
0

> <s_user_duplicate_titles>
CHEMBL3397_lig160

> <s_m_subgroup_title>
dock_pv

> <s_m_subgroupid>
dock_pv

> <b_m_subgroup_collapsed>
1

$$$$
CHEMBL3397_lig18
                    3D
 Schrodinger Suite 2021-1.
 43 47  0  0  1  0            999 V2000
    0.3980   34.4939   -2.7403 C   0  0  0  0  0  0
   -0.5031   33.7540   -2.0508 N   0  0  0  0  0  0
   -0.0862   32.5705   -1.5413 C   0  0  0  0  0  0
    1.2229   32.1079   -1.6843 C   0  0  0  0  0  0
    2.1600   32.8786   -2.3936 C   0  0  0  0  0  0
    1.7222   34.0958   -2.9339 C   0  0  0  0  0  0
    3.5714   32.4137   -2.5471 C   0  0  0  0  0  0
    4.6508   33.3116   -2.4776 C   0  0  0  0  0  0
    5.1191   30.5254   -2.8076 C   0  0  0  0  0  0
    3.8313   31.0524   -2.7403 C   0  0  0  0  0  0
    7.5394   31.2833   -2.6662 N   0  0  0  0  0  0
    6.1720   31.4333   -2.6768 C   0  0  0  0  0  0
    5.9649   32.8177   -2.5243 C   0  0  0  0  0  0
    7.1622   33.4864   -2.4526 N   0  0  0  0  0  0
    8.0884   32.5583   -2.5766 C   0  0  0  0  0  0
    9.5976   32.8442   -2.6952 C   0  0  2  0  0  0
   10.3011   33.0597   -0.3411 O   0  0  0  0  0  0
   10.4968   32.3151   -1.5369 C   0  0  0  0  0  0
   10.3048   34.4233   -0.5325 C   0  0  0  0  0  0
   10.1137   35.0019   -1.7931 C   0  0  0  0  0  0
   10.3091   36.3723   -1.9591 C   0  0  0  0  0  0
   10.6034   37.1754   -0.8567 C   0  0  0  0  0  0
   10.7369   36.5975    0.4063 C   0  0  0  0  0  0
   10.5945   35.2218    0.5713 C   0  0  0  0  0  0
    8.1986   30.0094   -2.8850 C   0  0  0  0  0  0
    9.8987   34.2387   -2.9213 O   0  0  0  0  0  0
    0.0403   35.4327   -3.1374 H   0  0  0  0  0  0
   -0.8194   32.0025   -0.9879 H   0  0  0  0  0  0
    1.5092   31.1751   -1.2261 H   0  0  0  0  0  0
    2.3974   34.7254   -3.4948 H   0  0  0  0  0  0
    4.4846   34.3691   -2.3446 H   0  0  0  0  0  0
    5.2860   29.4671   -2.9394 H   0  0  0  0  0  0
    3.0015   30.3668   -2.8273 H   0  0  0  0  0  0
    9.9109   32.3751   -3.6221 H   0  0  0  0  0  0
   11.5442   32.3761   -1.8367 H   0  0  0  0  0  0
   10.3012   31.2783   -1.2765 H   0  0  0  0  0  0
   10.3000   36.7974   -2.9498 H   0  0  0  0  0  0
   10.7554   38.2387   -0.9826 H   0  0  0  0  0  0
   10.9945   37.2047    1.2550 H   0  0  0  0  0  0
   10.7370   34.7725    1.5443 H   0  0  0  0  0  0
    7.6589   29.2225   -2.3555 H   0  0  0  0  0  0
    8.2057   29.7794   -3.9419 H   0  0  0  0  0  0
    9.2146   30.0267   -2.5309 H   0  0  0  0  0  0
  1  6  1  0  0  0
  1  2  2  0  0  0
  1 27  1  0  0  0
  2  3  1  0  0  0
  3  4  2  0  0  0
  3 28  1  0  0  0
  4  5  1  0  0  0
  4 29  1  0  0  0
  5  7  1  0  0  0
  5  6  2  0  0  0
  6 30  1  0  0  0
  7  8  2  0  0  0
  7 10  1  0  0  0
  8 13  1  0  0  0
  8 31  1  0  0  0
  9 12  1  0  0  0
  9 10  2  0  0  0
  9 32  1  0  0  0
 10 33  1  0  0  0
 11 12  1  0  0  0
 11 15  1  0  0  0
 11 25  1  0  0  0
 12 13  2  0  0  0
 13 14  1  0  0  0
 14 15  2  0  0  0
 15 16  1  0  0  0
 16 26  1  0  0  0
 16 18  1  0  0  0
 16 34  1  0  0  0
 17 19  1  0  0  0
 17 18  1  0  0  0
 18 35  1  0  0  0
 18 36  1  0  0  0
 19 20  2  0  0  0
 19 24  1  0  0  0
 20 26  1  0  0  0
 20 21  1  0  0  0
 21 22  2  0  0  0
 21 37  1  0  0  0
 22 23  1  0  0  0
 22 38  1  0  0  0
 23 24  2  0  0  0
 23 39  1  0  0  0
 24 40  1  0  0  0
 25 41  1  0  0  0
 25 42  1  0  0  0
 25 43  1  0  0  0
M  END
> <s_m_entry_id>
35853

> <s_m_entry_name>
dock_pv.9

> <s_m_Source_Path>
/home/csk/Desktop/cluster/DUD-E-result/cp2c9

> <s_m_Source_File>
dock_pv.maegz

> <i_m_Source_File_Index>
9

> <chembl_id>
CHEMBL1092154

> <chembl_pref_name>
None

> <i_lp_mmshare_version>
53161

> <i_f3d_flags>
0

> <r_lp_tautomer_probability>
1

> <s_lp_Force_Field>
OPLS_2005

> <r_lp_Energy>
18.288787

> <b_lp_Chiralities_Consistent>
1

> <s_lp_Variant>
CHEMBL3397_lig18-2

> <s_i_glide_gridfile>
glide-grid_1r9o

> <i_i_glide_lignum>
30

> <i_i_glide_rotatable_bonds>
2

> <r_i_docking_score>
-8.41028982938037

> <r_i_glide_ligand_efficiency>
-0.323472685745399

> <r_i_glide_ligand_efficiency_sa>
-0.958286558717187

> <r_i_glide_ligand_efficiency_ln>
-1.97512897001818

> <r_i_glide_gscore>
-8.41028982938037

> <r_i_glide_lipo>
-4.50825001030862

> <r_i_glide_hbond>
0

> <r_i_glide_metal>
0

> <r_i_glide_rewards>
-1.90268274767633

> <r_i_glide_evdw>
-39.6210174560547

> <r_i_glide_ecoul>
-2.26768159866333

> <r_i_glide_erotb>
0.321846041206818

> <r_i_glide_esite>
0

> <r_i_glide_emodel>
-54.8313965964979

> <r_i_glide_energy>
-41.888699054718

> <r_i_glide_einternal>
1.79054069519043

> <i_i_glide_confnum>
18

> <i_i_glide_posenum>
287

> <r_i_glide_eff_state_penalty>
0

> <s_user_duplicate_titles>
CHEMBL3397_lig18

> <s_m_subgroup_title>
dock_pv

> <s_m_subgroupid>
dock_pv

> <b_m_subgroup_collapsed>
1

$$$$
CHEMBL3397_lig50
                    3D
 Schrodinger Suite 2021-1.
 50 53  0  0  1  0            999 V2000
   10.5757   34.8488    0.1492 O   0  0  0  0  0  0
   10.8406   32.4697   -1.5412 O   0  0  0  0  0  0
    8.6491   32.9603   -1.9655 N   0  0  0  0  0  0
    3.2750   32.8980   -3.6683 N   0  0  0  0  0  0
   -1.2972   31.9743   -1.4216 N   0  0  0  0  0  0
    6.2435   32.5317   -3.5808 C   0  0  0  0  0  0
    7.5616   31.7399   -3.7765 C   0  0  0  0  0  0
    6.7606   33.9327   -3.1631 C   0  0  0  0  0  0
    9.9076   33.2709   -1.5493 C   0  0  0  0  0  0
    5.2611   31.8388   -2.5954 C   0  0  0  0  0  0
    5.4225   32.5670   -4.8930 C   0  0  0  0  0  0
    8.3634   31.5874   -2.4600 C   0  0  0  0  0  0
    7.4978   33.8831   -1.8095 C   0  0  0  0  0  0
   10.1569   34.6259   -1.1263 C   0  0  0  0  0  0
    3.9790   32.6755   -2.3884 C   0  0  0  0  0  0
    4.1283   33.4035   -4.7589 C   0  0  0  0  0  0
    2.0705   33.7255   -3.5204 C   0  0  0  0  0  0
   10.0852   35.8360   -1.8099 C   0  0  0  0  0  0
    0.9239   33.0828   -2.7366 C   0  0  0  0  0  0
   10.7013   36.1934    0.2973 C   0  0  0  0  0  0
   10.4133   36.8377   -0.8949 C   0  0  0  0  0  0
    0.7718   31.6930   -2.6312 C   0  0  0  0  0  0
   -0.0654   33.9063   -2.1859 C   0  0  0  0  0  0
   -0.3355   31.1812   -1.9538 C   0  0  0  0  0  0
   -1.1514   33.3166   -1.5415 C   0  0  0  0  0  0
    8.1838   32.1688   -4.5656 H   0  0  0  0  0  0
    7.3230   30.7374   -4.1336 H   0  0  0  0  0  0
    5.9313   34.6275   -3.0460 H   0  0  0  0  0  0
    7.3855   34.3765   -3.9399 H   0  0  0  0  0  0
    5.0114   30.8226   -2.9074 H   0  0  0  0  0  0
    5.7175   31.7083   -1.6151 H   0  0  0  0  0  0
    6.0287   33.0187   -5.6802 H   0  0  0  0  0  0
    5.1913   31.5747   -5.2736 H   0  0  0  0  0  0
    9.2701   31.0229   -2.6941 H   0  0  0  0  0  0
    7.7874   31.0472   -1.7081 H   0  0  0  0  0  0
    6.8434   33.4688   -1.0434 H   0  0  0  0  0  0
    7.7508   34.9002   -1.5198 H   0  0  0  0  0  0
    3.3197   32.1788   -1.6749 H   0  0  0  0  0  0
    4.2244   33.6378   -1.9431 H   0  0  0  0  0  0
    3.5643   33.3678   -5.6931 H   0  0  0  0  0  0
    4.3611   34.4565   -4.5919 H   0  0  0  0  0  0
    2.3353   34.6838   -3.0691 H   0  0  0  0  0  0
    1.6685   33.9550   -4.5080 H   0  0  0  0  0  0
    9.8039   35.9738   -2.8444 H   0  0  0  0  0  0
   11.0122   36.5399    1.2724 H   0  0  0  0  0  0
   10.4372   37.9040   -1.0719 H   0  0  0  0  0  0
    1.4880   31.0251   -3.0892 H   0  0  0  0  0  0
    0.0034   34.9810   -2.2574 H   0  0  0  0  0  0
   -0.4886   30.1164   -1.8645 H   0  0  0  0  0  0
   -1.9288   33.9191   -1.0938 H   0  0  0  0  0  0
  1 14  1  0  0  0
  1 20  1  0  0  0
  2  9  2  0  0  0
  3  9  1  0  0  0
  3 12  1  0  0  0
  3 13  1  0  0  0
  4 15  1  0  0  0
  4 16  1  0  0  0
  4 17  1  0  0  0
  5 24  2  0  0  0
  5 25  1  0  0  0
  6  7  1  0  0  0
  6  8  1  0  0  0
  6 10  1  0  0  0
  6 11  1  0  0  0
  7 12  1  0  0  0
  7 26  1  0  0  0
  7 27  1  0  0  0
  8 13  1  0  0  0
  8 28  1  0  0  0
  8 29  1  0  0  0
  9 14  1  0  0  0
 10 15  1  0  0  0
 10 30  1  0  0  0
 10 31  1  0  0  0
 11 16  1  0  0  0
 11 32  1  0  0  0
 11 33  1  0  0  0
 12 34  1  0  0  0
 12 35  1  0  0  0
 13 36  1  0  0  0
 13 37  1  0  0  0
 14 18  2  0  0  0
 15 38  1  0  0  0
 15 39  1  0  0  0
 16 40  1  0  0  0
 16 41  1  0  0  0
 17 19  1  0  0  0
 17 42  1  0  0  0
 17 43  1  0  0  0
 18 21  1  0  0  0
 18 44  1  0  0  0
 19 22  2  0  0  0
 19 23  1  0  0  0
 20 21  2  0  0  0
 20 45  1  0  0  0
 21 46  1  0  0  0
 22 24  1  0  0  0
 22 47  1  0  0  0
 23 25  2  0  0  0
 23 48  1  0  0  0
 24 49  1  0  0  0
 25 50  1  0  0  0
M  END
> <s_m_entry_id>
35854

> <s_m_entry_name>
dock_pv.10

> <s_m_Source_Path>
/home/csk/Desktop/cluster/DUD-E-result/cp2c9

> <s_m_Source_File>
dock_pv.maegz

> <i_m_Source_File_Index>
10

> <chembl_id>
CHEMBL1611348

> <chembl_pref_name>
None

> <i_lp_mmshare_version>
53161

> <i_f3d_flags>
0

> <r_lp_tautomer_probability>
1

> <s_lp_Force_Field>
OPLS_2005

> <r_lp_Energy>
48.840238

> <b_lp_Chiralities_Consistent>
1

> <s_lp_Variant>
CHEMBL3397_lig50-1

> <s_i_glide_gridfile>
glide-grid_1r9o

> <i_i_glide_lignum>
74

> <i_i_glide_rotatable_bonds>
4

> <r_i_docking_score>
-8.27379110280699

> <r_i_glide_ligand_efficiency>
-0.33095164411228

> <r_i_glide_ligand_efficiency_sa>
-0.967708476836706

> <r_i_glide_ligand_efficiency_ln>
-1.96113643687663

> <r_i_glide_gscore>
-8.27379110280699

> <r_i_glide_lipo>
-4.25070010344067

> <r_i_glide_hbond>
0

> <r_i_glide_metal>
0

> <r_i_glide_rewards>
-2.13447229604751

> <r_i_glide_evdw>
-49.044376373291

> <r_i_glide_ecoul>
-0.622843444347382

> <r_i_glide_erotb>
0.657026631997848

> <r_i_glide_esite>
0

> <r_i_glide_emodel>
-64.9334437129743

> <r_i_glide_energy>
-49.6672198176384

> <r_i_glide_einternal>
15.7094459533691

> <i_i_glide_confnum>
167

> <i_i_glide_posenum>
390

> <r_i_glide_eff_state_penalty>
0

> <s_user_duplicate_titles>
CHEMBL3397_lig50

> <s_m_subgroup_title>
dock_pv

> <s_m_subgroupid>
dock_pv

> <b_m_subgroup_collapsed>
1

$$$$
CHEMBL3397_lig158
                    3D
 Schrodinger Suite 2021-1.
 32 34  0  0  1  0            999 V2000
    2.3615   32.7783   -5.1405 O   0  0  0  0  0  0
    6.9691   32.6322   -2.1504 O   0  0  0  0  0  0
    4.6799   31.5964   -1.1393 O   0  0  0  0  0  0
    4.6891   33.3216   -4.9559 C   0  0  0  0  0  0
    5.8844   33.2751   -4.1961 C   0  0  0  0  0  0
    3.4630   32.2090   -3.0780 C   0  0  0  0  0  0
    3.3830   32.7576   -4.4519 C   0  0  0  0  0  0
    5.9323   32.6748   -2.8209 C   0  0  0  0  0  0
    4.6241   32.1611   -2.3749 C   0  0  0  0  0  0
    2.1408   31.6535   -2.5068 C   0  0  0  0  0  0
    4.7220   33.9120   -6.2290 C   0  0  0  0  0  0
    7.0654   33.8043   -4.7404 C   0  0  0  0  0  0
    0.9714   32.6058   -2.2547 C   0  0  0  0  0  0
    5.8992   34.4432   -6.7440 C   0  0  0  0  0  0
    7.0757   34.3802   -6.0077 C   0  0  0  0  0  0
    1.0624   33.9933   -2.4360 C   0  0  0  0  0  0
   -0.2272   32.0463   -1.8009 C   0  0  0  0  0  0
   -0.0445   34.8050   -2.1938 C   0  0  0  0  0  0
   -1.3252   32.8603   -1.5407 C   0  0  0  0  0  0
   -1.2340   34.2359   -1.7431 C   0  0  0  0  0  0
    5.5047   31.8203   -0.6934 H   0  0  0  0  0  0
    2.3300   31.1794   -1.5440 H   0  0  0  0  0  0
    1.7949   30.8408   -3.1410 H   0  0  0  0  0  0
    3.8315   33.9760   -6.8371 H   0  0  0  0  0  0
    7.9927   33.7803   -4.1826 H   0  0  0  0  0  0
    5.8949   34.9075   -7.7196 H   0  0  0  0  0  0
    7.9912   34.7919   -6.4087 H   0  0  0  0  0  0
    1.9813   34.4533   -2.7602 H   0  0  0  0  0  0
   -0.3073   30.9792   -1.6474 H   0  0  0  0  0  0
    0.0234   35.8740   -2.3399 H   0  0  0  0  0  0
   -2.2418   32.4247   -1.1714 H   0  0  0  0  0  0
   -2.0889   34.8650   -1.5425 H   0  0  0  0  0  0
  1  7  2  0  0  0
  2  8  2  0  0  0
  3  9  1  0  0  0
  3 21  1  0  0  0
  4  5  2  0  0  0
  4  7  1  0  0  0
  4 11  1  0  0  0
  5  8  1  0  0  0
  5 12  1  0  0  0
  6  7  1  0  0  0
  6  9  2  0  0  0
  6 10  1  0  0  0
  8  9  1  0  0  0
 10 13  1  0  0  0
 10 22  1  0  0  0
 10 23  1  0  0  0
 11 14  2  0  0  0
 11 24  1  0  0  0
 12 15  2  0  0  0
 12 25  1  0  0  0
 13 16  2  0  0  0
 13 17  1  0  0  0
 14 15  1  0  0  0
 14 26  1  0  0  0
 15 27  1  0  0  0
 16 18  1  0  0  0
 16 28  1  0  0  0
 17 19  2  0  0  0
 17 29  1  0  0  0
 18 20  2  0  0  0
 18 30  1  0  0  0
 19 20  1  0  0  0
 19 31  1  0  0  0
 20 32  1  0  0  0
M  END
> <s_m_entry_id>
35855

> <s_m_entry_name>
dock_pv.11

> <s_m_Source_Path>
/home/csk/Desktop/cluster/DUD-E-result/cp2c9

> <s_m_Source_File>
dock_pv.maegz

> <i_m_Source_File_Index>
11

> <chembl_id>
CHEMBL1317916

> <chembl_pref_name>
None

> <i_lp_mmshare_version>
53161

> <i_f3d_flags>
0

> <r_lp_tautomer_probability>
0.0909090909090909

> <s_lp_Force_Field>
OPLS_2005

> <r_lp_Energy>
11.709782

> <b_lp_Chiralities_Consistent>
1

> <s_lp_Variant>
CHEMBL3397_lig158-3

> <s_i_glide_gridfile>
glide-grid_1r9o

> <i_i_glide_lignum>
201

> <i_i_glide_rotatable_bonds>
3

> <r_i_docking_score>
-8.22355117301761

> <r_i_glide_ligand_efficiency>
-0.411177558650881

> <r_i_glide_ligand_efficiency_sa>
-1.11610760763592

> <r_i_glide_ligand_efficiency_ln>
-2.05808362773595

> <r_i_glide_gscore>
-8.22355117301761

> <r_i_glide_lipo>
-3.94988228530611

> <r_i_glide_hbond>
0

> <r_i_glide_metal>
0

> <r_i_glide_rewards>
-2.63658275574677

> <r_i_glide_evdw>
-36.7157936096191

> <r_i_glide_ecoul>
-2.06857872009277

> <r_i_glide_erotb>
0.50899035653014

> <r_i_glide_esite>
0

> <r_i_glide_emodel>
-55.6249074839238

> <r_i_glide_energy>
-38.7843723297119

> <r_i_glide_einternal>
1.5971736907959

> <i_i_glide_confnum>
1

> <i_i_glide_posenum>
341

> <r_i_glide_eff_state_penalty>
0

> <s_user_duplicate_titles>
CHEMBL3397_lig158,CHEMBL3397_lig158

> <s_m_subgroup_title>
dock_pv

> <s_m_subgroupid>
dock_pv

> <b_m_subgroup_collapsed>
1

$$$$
CHEMBL3397_lig11
                    3D
 Schrodinger Suite 2021-1.
 43 47  0  0  1  0            999 V2000
   11.1009   36.7650   -2.6593 C   0  0  0  0  0  0
   11.0965   37.5254   -1.5368 N   0  0  0  0  0  0
   10.2433   37.1745   -0.5398 C   0  0  0  0  0  0
    9.3811   36.0766   -0.6273 C   0  0  0  0  0  0
    9.4081   35.2849   -1.7832 C   0  0  0  0  0  0
   10.2965   35.6343   -2.8073 C   0  0  0  0  0  0
    8.4802   34.1382   -1.9745 C   0  0  0  0  0  0
    7.1651   34.4418   -2.3485 C   0  0  0  0  0  0
    8.0490   31.7442   -2.2314 C   0  0  0  0  0  0
    8.9065   32.7950   -1.8693 C   0  0  0  0  0  0
    5.7788   31.1958   -3.1078 N   0  0  0  0  0  0
    6.7581   32.0430   -2.6672 C   0  0  0  0  0  0
    6.3293   33.3856   -2.6992 C   0  0  0  0  0  0
    5.0335   33.3083   -3.1486 N   0  0  0  0  0  0
    4.7815   31.9846   -3.4245 C   0  0  0  0  0  0
    3.5012   31.4978   -4.0750 C   0  0  1  0  0  0
    2.5076   31.1906   -3.0816 O   0  0  0  0  0  0
    2.3983   33.6444   -4.5723 O   0  0  0  0  0  0
    2.9488   32.4645   -5.1608 C   0  0  0  0  0  0
    1.5007   33.3602   -3.5666 C   0  0  0  0  0  0
    1.5883   32.1852   -2.8035 C   0  0  0  0  0  0
    0.6555   31.9397   -1.7939 C   0  0  0  0  0  0
   -0.3587   32.8678   -1.5443 C   0  0  0  0  0  0
   -0.4367   34.0412   -2.2982 C   0  0  0  0  0  0
    0.4899   34.2862   -3.3129 C   0  0  0  0  0  0
   10.2843   32.4279   -1.3138 C   0  0  0  0  0  0
   10.2511   31.2327   -0.7411 F   0  0  0  0  0  0
   11.1710   32.3749   -2.2976 F   0  0  0  0  0  0
   10.7021   33.2881   -0.3871 F   0  0  0  0  0  0
   11.7433   37.0896   -3.4654 H   0  0  0  0  0  0
   10.2447   37.8107    0.3342 H   0  0  0  0  0  0
    8.7019   35.8473    0.1814 H   0  0  0  0  0  0
   10.3009   35.0733   -3.7297 H   0  0  0  0  0  0
    6.8272   35.4651   -2.4079 H   0  0  0  0  0  0
    8.3730   30.7150   -2.1816 H   0  0  0  0  0  0
    4.3658   34.0455   -3.3276 H   0  0  0  0  0  0
    3.7295   30.5470   -4.5603 H   0  0  0  0  0  0
    3.7347   32.7478   -5.8618 H   0  0  0  0  0  0
    2.1729   31.9685   -5.7426 H   0  0  0  0  0  0
    0.7020   31.0302   -1.2155 H   0  0  0  0  0  0
   -1.0878   32.6765   -0.7680 H   0  0  0  0  0  0
   -1.2266   34.7524   -2.1069 H   0  0  0  0  0  0
    0.3999   35.1692   -3.9266 H   0  0  0  0  0  0
  1  6  1  0  0  0
  1  2  2  0  0  0
  1 30  1  0  0  0
  2  3  1  0  0  0
  3  4  2  0  0  0
  3 31  1  0  0  0
  4  5  1  0  0  0
  4 32  1  0  0  0
  5  6  2  0  0  0
  5  7  1  0  0  0
  6 33  1  0  0  0
  7  8  2  0  0  0
  7 10  1  0  0  0
  8 13  1  0  0  0
  8 34  1  0  0  0
  9 12  1  0  0  0
  9 10  2  0  0  0
  9 35  1  0  0  0
 10 26  1  0  0  0
 11 12  1  0  0  0
 11 15  2  0  0  0
 12 13  2  0  0  0
 13 14  1  0  0  0
 14 15  1  0  0  0
 14 36  1  0  0  0
 15 16  1  0  0  0
 16 17  1  0  0  0
 16 19  1  0  0  0
 16 37  1  0  0  0
 17 21  1  0  0  0
 18 20  1  0  0  0
 18 19  1  0  0  0
 19 38  1  0  0  0
 19 39  1  0  0  0
 20 21  2  0  0  0
 20 25  1  0  0  0
 21 22  1  0  0  0
 22 23  2  0  0  0
 22 40  1  0  0  0
 23 24  1  0  0  0
 23 41  1  0  0  0
 24 25  2  0  0  0
 24 42  1  0  0  0
 25 43  1  0  0  0
 26 27  1  0  0  0
 26 28  1  0  0  0
 26 29  1  0  0  0
M  END
> <s_m_entry_id>
35856

> <s_m_entry_name>
dock_pv.12

> <s_m_Source_Path>
/home/csk/Desktop/cluster/DUD-E-result/cp2c9

> <s_m_Source_File>
dock_pv.maegz

> <i_m_Source_File_Index>
12

> <chembl_id>
CHEMBL1092501

> <chembl_pref_name>
None

> <i_lp_mmshare_version>
53161

> <i_f3d_flags>
0

> <r_lp_tautomer_probability>
1

> <s_lp_Force_Field>
OPLS_2005

> <r_lp_Energy>
19.784059

> <b_lp_Chiralities_Consistent>
1

> <s_lp_Variant>
CHEMBL3397_lig11-2

> <s_i_glide_gridfile>
glide-grid_1r9o

> <i_i_glide_lignum>
16

> <i_i_glide_rotatable_bonds>
3

> <r_i_docking_score>
-8.21723059347849

> <r_i_glide_ligand_efficiency>
-0.283352779085465

> <r_i_glide_ligand_efficiency_sa>
-0.870549509811987

> <r_i_glide_ligand_efficiency_ln>
-1.88153743491746

> <r_i_glide_gscore>
-8.21723059347849

> <r_i_glide_lipo>
-4.72746237042922

> <r_i_glide_hbond>
0

> <r_i_glide_metal>
0

> <r_i_glide_rewards>
-1.43075272803918

> <r_i_glide_evdw>
-43.7061576843262

> <r_i_glide_ecoul>
-0.779617667198181

> <r_i_glide_erotb>
0.247948109513018

> <r_i_glide_esite>
-0.00471307022707263

> <r_i_glide_emodel>
-48.0622382869383

> <r_i_glide_energy>
-44.4857753515244

> <r_i_glide_einternal>
4.25478029251099

> <i_i_glide_confnum>
20

> <i_i_glide_posenum>
216

> <r_i_glide_eff_state_penalty>
0

> <s_user_duplicate_titles>
CHEMBL3397_lig11

> <s_m_subgroup_title>
dock_pv

> <s_m_subgroupid>
dock_pv

> <b_m_subgroup_collapsed>
1

$$$$
CHEMBL3397_lig21
                    3D
 Schrodinger Suite 2021-1.
 56 61  0  0  1  0            999 V2000
   10.7008   36.0740   -2.7388 C   0  0  0  0  0  0
   10.9053   36.7288   -1.5672 N   0  0  0  0  0  0
   10.0496   36.4708   -0.5450 C   0  0  0  0  0  0
    8.9689   35.5913   -0.6629 C   0  0  0  0  0  0
    8.7518   34.9472   -1.8887 C   0  0  0  0  0  0
    9.6552   35.1737   -2.9309 C   0  0  0  0  0  0
    7.5585   34.1065   -2.1080 C   0  0  0  0  0  0
    6.4960   34.6005   -2.8663 C   0  0  0  0  0  0
    6.3060   32.0785   -1.6719 C   0  0  0  0  0  0
    7.4681   32.8407   -1.5423 C   0  0  0  0  0  0
    4.0494   31.9565   -2.7506 N   0  0  0  0  0  0
    5.2490   32.5413   -2.4435 C   0  0  0  0  0  0
    5.3767   33.7949   -3.0378 C   0  0  0  0  0  0
    4.2265   33.9357   -3.7610 N   0  0  0  0  0  0
    3.4675   32.7940   -3.5807 C   0  0  0  0  0  0
    2.1756   32.4397   -4.3469 C   0  0  2  0  0  0
    0.7994   34.3709   -3.7610 O   0  0  0  0  0  0
    1.2230   33.5741   -4.8703 C   0  0  0  0  0  0
    0.2278   33.5882   -2.7880 C   0  0  0  0  0  0
    0.5478   32.2236   -2.6612 C   0  0  0  0  0  0
   -0.1595   31.4171   -1.7933 C   0  0  0  0  0  0
   -1.1844   31.9742   -1.0539 C   0  0  0  0  0  0
   -1.4868   33.3369   -1.1412 C   0  0  0  0  0  0
   -0.7690   34.1582   -2.0028 C   0  0  0  0  0  0
    3.9650   35.0188   -4.6571 C   0  0  0  0  0  0
    4.2319   34.6661   -6.1416 C   0  0  0  0  0  0
    5.5640   33.9848   -6.3365 C   0  0  0  0  0  0
    5.7112   32.6355   -5.9923 C   0  0  0  0  0  0
    6.9720   32.0642   -5.9379 C   0  0  0  0  0  0
    8.0568   32.8175   -6.3439 C   0  0  0  0  0  0
    7.9009   34.1460   -6.7408 C   0  0  0  0  0  0
    6.6545   34.7387   -6.7404 C   0  0  0  0  0  0
    1.3844   31.5754   -3.5392 O   0  0  0  0  0  0
   11.3828   36.2973   -3.5471 H   0  0  0  0  0  0
   10.2284   37.0052    0.3769 H   0  0  0  0  0  0
    8.2889   35.4406    0.1628 H   0  0  0  0  0  0
    9.5050   34.7034   -3.8924 H   0  0  0  0  0  0
    6.5091   35.5747   -3.2928 H   0  0  0  0  0  0
    6.1995   31.1750   -1.1409 H   0  0  0  0  0  0
    8.2992   32.4614   -0.9689 H   0  0  0  0  0  0
    2.4918   31.8513   -5.2100 H   0  0  0  0  0  0
    1.6559   34.2203   -5.6103 H   0  0  0  0  0  0
    0.3653   33.1753   -5.4019 H   0  0  0  0  0  0
    0.0458   30.3640   -1.7304 H   0  0  0  0  0  0
   -1.6990   31.3430   -0.3542 H   0  0  0  0  0  0
   -2.2619   33.7564   -0.5187 H   0  0  0  0  0  0
   -1.0108   35.2063   -2.0962 H   0  0  0  0  0  0
    2.9441   35.1768   -4.4320 H   0  0  0  0  0  0
    4.4937   35.9145   -4.3375 H   0  0  0  0  0  0
    3.4980   33.9851   -6.5618 H   0  0  0  0  0  0
    4.1658   35.5749   -6.7396 H   0  0  0  0  0  0
    4.8618   32.0417   -5.6952 H   0  0  0  0  0  0
    7.1028   31.0456   -5.6114 H   0  0  0  0  0  0
    9.0357   32.3601   -6.3516 H   0  0  0  0  0  0
    8.7535   34.7258   -7.0561 H   0  0  0  0  0  0
    6.5503   35.7704   -7.0395 H   0  0  0  0  0  0
  1  6  1  0  0  0
  1  2  2  0  0  0
  1 34  1  0  0  0
  2  3  1  0  0  0
  3  4  2  0  0  0
  3 35  1  0  0  0
  4  5  1  0  0  0
  4 36  1  0  0  0
  5  6  2  0  0  0
  5  7  1  0  0  0
  6 37  1  0  0  0
  7  8  2  0  0  0
  7 10  1  0  0  0
  8 13  1  0  0  0
  8 38  1  0  0  0
  9 12  1  0  0  0
  9 10  2  0  0  0
  9 39  1  0  0  0
 10 40  1  0  0  0
 11 12  1  0  0  0
 11 15  2  0  0  0
 12 13  2  0  0  0
 13 14  1  0  0  0
 14 25  1  0  0  0
 14 15  1  0  0  0
 15 16  1  0  0  0
 16 33  1  0  0  0
 16 18  1  0  0  0
 16 41  1  0  0  0
 17 19  1  0  0  0
 17 18  1  0  0  0
 18 42  1  0  0  0
 18 43  1  0  0  0
 19 20  2  0  0  0
 19 24  1  0  0  0
 20 33  1  0  0  0
 20 21  1  0  0  0
 21 22  2  0  0  0
 21 44  1  0  0  0
 22 23  1  0  0  0
 22 45  1  0  0  0
 23 24  2  0  0  0
 23 46  1  0  0  0
 24 47  1  0  0  0
 25 26  1  0  0  0
 25 48  1  0  0  0
 25 49  1  0  0  0
 26 27  1  0  0  0
 26 50  1  0  0  0
 26 51  1  0  0  0
 27 28  2  0  0  0
 27 32  1  0  0  0
 28 29  1  0  0  0
 28 52  1  0  0  0
 29 30  2  0  0  0
 29 53  1  0  0  0
 30 31  1  0  0  0
 30 54  1  0  0  0
 31 32  2  0  0  0
 31 55  1  0  0  0
 32 56  1  0  0  0
M  END
> <s_m_entry_id>
35857

> <s_m_entry_name>
dock_pv.13

> <s_m_Source_Path>
/home/csk/Desktop/cluster/DUD-E-result/cp2c9

> <s_m_Source_File>
dock_pv.maegz

> <i_m_Source_File_Index>
13

> <chembl_id>
CHEMBL1079339

> <chembl_pref_name>
None

> <i_lp_mmshare_version>
53161

> <i_f3d_flags>
0

> <r_lp_tautomer_probability>
1

> <s_lp_Force_Field>
OPLS_2005

> <r_lp_Energy>
28.940553

> <b_lp_Chiralities_Consistent>
1

> <s_lp_Variant>
CHEMBL3397_lig21-2

> <s_i_glide_gridfile>
glide-grid_1r9o

> <i_i_glide_lignum>
36

> <i_i_glide_rotatable_bonds>
5

> <r_i_docking_score>
-8.17811555601109

> <r_i_glide_ligand_efficiency>
-0.247821683515488

> <r_i_glide_ligand_efficiency_sa>
-0.794896556666833

> <r_i_glide_ligand_efficiency_ln>
-1.81877055564072

> <r_i_glide_gscore>
-8.17811555601109

> <r_i_glide_lipo>
-5.8025291375874

> <r_i_glide_hbond>
-0.0495426840377915

> <r_i_glide_metal>
0

> <r_i_glide_rewards>
-1.6367287701705

> <r_i_glide_evdw>
-28.0523910522461

> <r_i_glide_ecoul>
1.22418868541718

> <r_i_glide_erotb>
0.529676285584333

> <r_i_glide_esite>
0

> <r_i_glide_emodel>
-27.5520620476676

> <r_i_glide_energy>
-26.8282023668289

> <r_i_glide_einternal>
18.2619571685791

> <i_i_glide_confnum>
138

> <i_i_glide_posenum>
378

> <r_i_glide_eff_state_penalty>
0

> <s_user_duplicate_titles>
CHEMBL3397_lig21

> <s_m_subgroup_title>
dock_pv

> <s_m_subgroupid>
dock_pv

> <b_m_subgroup_collapsed>
1

$$$$
CHEMBL3397_lig76
                    3D
 Schrodinger Suite 2021-1.
 44 47  0  0  1  0            999 V2000
    8.2820   31.9733   -5.1557 O   0  0  0  0  0  0
    1.8996   32.7562   -3.2944 N   0  0  0  0  0  0
    6.6837   33.3668   -4.2845 N   0  0  0  0  0  0
   10.3185   33.2154   -0.7421 N   0  0  0  0  0  0
    4.0112   32.6035   -3.5672 C   0  0  0  0  0  0
    2.9355   33.6693   -3.7707 C   0  0  0  0  0  0
    2.8926   31.7114   -3.0392 C   0  0  0  0  0  0
    5.0713   32.9800   -2.5049 C   0  0  0  0  0  0
    4.6799   32.1283   -4.8832 C   0  0  0  0  0  0
    0.7115   33.0440   -2.6074 C   0  0  0  0  0  0
    6.0683   34.0008   -3.0978 C   0  0  0  0  0  0
    5.7437   33.1335   -5.3977 C   0  0  0  0  0  0
    7.8789   32.7124   -4.2533 C   0  0  0  0  0  0
    8.7509   32.8960   -3.0433 C   0  0  0  0  0  0
    0.0224   32.0263   -1.9406 C   0  0  0  0  0  0
    0.1826   34.3407   -2.6176 C   0  0  0  0  0  0
    9.2052   34.1674   -2.6594 C   0  0  0  0  0  0
    9.1147   31.7844   -2.2753 C   0  0  0  0  0  0
   -1.1683   32.3059   -1.2779 C   0  0  0  0  0  0
   -0.9964   34.6281   -1.9368 C   0  0  0  0  0  0
   -1.6606   33.6088   -1.2633 C   0  0  0  0  0  0
    9.9630   34.2851   -1.4951 C   0  0  0  0  0  0
    9.9000   31.9891   -1.1423 C   0  0  0  0  0  0
    3.0527   34.5475   -3.1373 H   0  0  0  0  0  0
    2.7677   33.9797   -4.8018 H   0  0  0  0  0  0
    2.7017   30.7985   -3.6026 H   0  0  0  0  0  0
    2.9776   31.4762   -1.9769 H   0  0  0  0  0  0
    5.6060   32.0917   -2.1635 H   0  0  0  0  0  0
    4.5976   33.3849   -1.6051 H   0  0  0  0  0  0
    3.9285   31.9709   -5.6546 H   0  0  0  0  0  0
    5.1501   31.1573   -4.7307 H   0  0  0  0  0  0
    6.7647   34.4231   -2.3787 H   0  0  0  0  0  0
    5.5305   34.8818   -3.4516 H   0  0  0  0  0  0
    5.2785   34.0936   -5.6255 H   0  0  0  0  0  0
    6.2362   32.8458   -6.3285 H   0  0  0  0  0  0
    0.4024   31.0168   -1.9455 H   0  0  0  0  0  0
    0.6823   35.1378   -3.1437 H   0  0  0  0  0  0
    8.9552   35.0481   -3.2326 H   0  0  0  0  0  0
    8.8003   30.7851   -2.5445 H   0  0  0  0  0  0
   -1.6958   31.5220   -0.7568 H   0  0  0  0  0  0
   -1.3912   35.6337   -1.9289 H   0  0  0  0  0  0
   -2.5650   33.8289   -0.7196 H   0  0  0  0  0  0
   10.3066   35.2497   -1.1556 H   0  0  0  0  0  0
   10.1863   31.1529   -0.5185 H   0  0  0  0  0  0
  1 13  2  0  0  0
  2  6  1  0  0  0
  2  7  1  0  0  0
  2 10  1  0  0  0
  3 11  1  0  0  0
  3 12  1  0  0  0
  3 13  1  0  0  0
  4 22  2  0  0  0
  4 23  1  0  0  0
  5  6  1  0  0  0
  5  7  1  0  0  0
  5  8  1  0  0  0
  5  9  1  0  0  0
  6 24  1  0  0  0
  6 25  1  0  0  0
  7 26  1  0  0  0
  7 27  1  0  0  0
  8 11  1  0  0  0
  8 28  1  0  0  0
  8 29  1  0  0  0
  9 12  1  0  0  0
  9 30  1  0  0  0
  9 31  1  0  0  0
 10 15  2  0  0  0
 10 16  1  0  0  0
 11 32  1  0  0  0
 11 33  1  0  0  0
 12 34  1  0  0  0
 12 35  1  0  0  0
 13 14  1  0  0  0
 14 17  2  0  0  0
 14 18  1  0  0  0
 15 19  1  0  0  0
 15 36  1  0  0  0
 16 20  2  0  0  0
 16 37  1  0  0  0
 17 22  1  0  0  0
 17 38  1  0  0  0
 18 23  2  0  0  0
 18 39  1  0  0  0
 19 21  2  0  0  0
 19 40  1  0  0  0
 20 21  1  0  0  0
 20 41  1  0  0  0
 21 42  1  0  0  0
 22 43  1  0  0  0
 23 44  1  0  0  0
M  END
> <s_m_entry_id>
35858

> <s_m_entry_name>
dock_pv.14

> <s_m_Source_Path>
/home/csk/Desktop/cluster/DUD-E-result/cp2c9

> <s_m_Source_File>
dock_pv.maegz

> <i_m_Source_File_Index>
14

> <chembl_id>
CHEMBL1317805

> <chembl_pref_name>
None

> <i_lp_mmshare_version>
53161

> <i_f3d_flags>
0

> <r_lp_tautomer_probability>
1

> <s_lp_Force_Field>
OPLS_2005

> <r_lp_Energy>
59.914372

> <b_lp_Chiralities_Consistent>
1

> <s_lp_Variant>
CHEMBL3397_lig76-1

> <s_i_glide_gridfile>
glide-grid_1r9o

> <i_i_glide_lignum>
109

> <i_i_glide_rotatable_bonds>
3

> <r_i_docking_score>
-8.15904174439326

> <r_i_glide_ligand_efficiency>
-0.354740945408403

> <r_i_glide_ligand_efficiency_sa>
-1.00883605999388

> <r_i_glide_ligand_efficiency_ln>
-1.97293027589451

> <r_i_glide_gscore>
-8.15904174439326

> <r_i_glide_lipo>
-4.3723176409573

> <r_i_glide_hbond>
0

> <r_i_glide_metal>
0

> <r_i_glide_rewards>
-2.49248421046466

> <r_i_glide_evdw>
-41.0790710449219

> <r_i_glide_ecoul>
1.15187239646912

> <r_i_glide_erotb>
0.586932799804429

> <r_i_glide_esite>
0

> <r_i_glide_emodel>
-52.6779462645308

> <r_i_glide_energy>
-39.9271986484528

> <r_i_glide_einternal>
3.84457993507385

> <i_i_glide_confnum>
60

> <i_i_glide_posenum>
51

> <r_i_glide_eff_state_penalty>
0

> <s_user_duplicate_titles>
CHEMBL3397_lig76

> <s_m_subgroup_title>
dock_pv

> <s_m_subgroupid>
dock_pv

> <b_m_subgroup_collapsed>
1

$$$$
CHEMBL3397_lig143
                    3D
 Schrodinger Suite 2021-1.
 50 53  0  0  1  0            999 V2000
   10.7616   32.5442   -1.6123 O   0  0  0  0  0  0
    8.6135   33.0472   -2.1932 N   0  0  0  0  0  0
    3.0900   32.1417   -3.0334 N   0  0  0  0  0  0
   10.8999   37.4105   -0.6487 N   0  0  0  0  0  0
    6.0626   32.3611   -3.4481 C   0  0  0  0  0  0
    7.4066   31.7365   -3.8750 C   0  0  0  0  0  0
    6.4677   33.8258   -3.1417 C   0  0  0  0  0  0
    5.3887   31.5785   -2.2880 C   0  0  0  0  0  0
    5.0237   32.2439   -4.5912 C   0  0  0  0  0  0
    9.8463   33.3638   -1.7104 C   0  0  0  0  0  0
    8.3966   31.6614   -2.6908 C   0  0  0  0  0  0
    7.4385   33.9241   -1.9396 C   0  0  0  0  0  0
    4.0268   32.1793   -1.8972 C   0  0  0  0  0  0
    3.6468   32.8396   -4.2065 C   0  0  0  0  0  0
   10.1452   34.7923   -1.3305 C   0  0  0  0  0  0
    1.7551   32.3061   -2.7200 C   0  0  0  0  0  0
   10.3017   35.7711   -2.3225 C   0  0  0  0  0  0
   10.3813   35.1455    0.0059 C   0  0  0  0  0  0
    1.2385   33.5478   -2.3365 C   0  0  0  0  0  0
    0.9260   31.1832   -2.7412 C   0  0  0  0  0  0
   10.6996   37.0549   -1.9401 C   0  0  0  0  0  0
   10.7366   36.4604    0.3037 C   0  0  0  0  0  0
   -0.0938   33.6562   -1.9488 C   0  0  0  0  0  0
   -0.3930   31.2768   -2.3163 C   0  0  0  0  0  0
   -0.8986   32.5189   -1.9381 C   0  0  0  0  0  0
    7.8438   32.2384   -4.7406 H   0  0  0  0  0  0
    7.2337   30.7113   -4.2057 H   0  0  0  0  0  0
    5.5879   34.4153   -2.8861 H   0  0  0  0  0  0
    6.8840   34.3197   -4.0222 H   0  0  0  0  0  0
    5.2768   30.5193   -2.5261 H   0  0  0  0  0  0
    6.0136   31.5853   -1.3974 H   0  0  0  0  0  0
    5.3987   32.7671   -5.4725 H   0  0  0  0  0  0
    4.8985   31.2118   -4.9234 H   0  0  0  0  0  0
    9.3075   31.2449   -3.1144 H   0  0  0  0  0  0
    8.0216   31.0250   -1.8894 H   0  0  0  0  0  0
    6.9471   33.5782   -1.0305 H   0  0  0  0  0  0
    7.7048   34.9784   -1.8621 H   0  0  0  0  0  0
    3.6165   31.5979   -1.0695 H   0  0  0  0  0  0
    4.1287   33.2054   -1.5409 H   0  0  0  0  0  0
    2.9629   32.7121   -5.0474 H   0  0  0  0  0  0
    3.7079   33.9108   -4.0091 H   0  0  0  0  0  0
   10.1467   35.5389   -3.3676 H   0  0  0  0  0  0
   10.3393   34.4137    0.7981 H   0  0  0  0  0  0
    1.8718   34.4221   -2.3337 H   0  0  0  0  0  0
    1.3054   30.2480   -3.1269 H   0  0  0  0  0  0
   10.8316   37.8356   -2.6754 H   0  0  0  0  0  0
   10.9337   36.7614    1.3209 H   0  0  0  0  0  0
   -0.4972   34.6123   -1.6474 H   0  0  0  0  0  0
   -1.0328   30.4064   -2.3258 H   0  0  0  0  0  0
   -1.9304   32.6004   -1.6265 H   0  0  0  0  0  0
  1 10  2  0  0  0
  2 10  1  0  0  0
  2 11  1  0  0  0
  2 12  1  0  0  0
  3 13  1  0  0  0
  3 14  1  0  0  0
  3 16  1  0  0  0
  4 21  2  0  0  0
  4 22  1  0  0  0
  5  6  1  0  0  0
  5  7  1  0  0  0
  5  8  1  0  0  0
  5  9  1  0  0  0
  6 11  1  0  0  0
  6 26  1  0  0  0
  6 27  1  0  0  0
  7 12  1  0  0  0
  7 28  1  0  0  0
  7 29  1  0  0  0
  8 13  1  0  0  0
  8 30  1  0  0  0
  8 31  1  0  0  0
  9 14  1  0  0  0
  9 32  1  0  0  0
  9 33  1  0  0  0
 10 15  1  0  0  0
 11 34  1  0  0  0
 11 35  1  0  0  0
 12 36  1  0  0  0
 12 37  1  0  0  0
 13 38  1  0  0  0
 13 39  1  0  0  0
 14 40  1  0  0  0
 14 41  1  0  0  0
 15 17  2  0  0  0
 15 18  1  0  0  0
 16 19  2  0  0  0
 16 20  1  0  0  0
 17 21  1  0  0  0
 17 42  1  0  0  0
 18 22  2  0  0  0
 18 43  1  0  0  0
 19 23  1  0  0  0
 19 44  1  0  0  0
 20 24  2  0  0  0
 20 45  1  0  0  0
 21 46  1  0  0  0
 22 47  1  0  0  0
 23 25  2  0  0  0
 23 48  1  0  0  0
 24 25  1  0  0  0
 24 49  1  0  0  0
 25 50  1  0  0  0
M  END
> <s_m_entry_id>
35859

> <s_m_entry_name>
dock_pv.15

> <s_m_Source_Path>
/home/csk/Desktop/cluster/DUD-E-result/cp2c9

> <s_m_Source_File>
dock_pv.maegz

> <i_m_Source_File_Index>
15

> <chembl_id>
CHEMBL1495213

> <chembl_pref_name>
None

> <i_lp_mmshare_version>
53161

> <i_f3d_flags>
0

> <r_lp_tautomer_probability>
1

> <s_lp_Force_Field>
OPLS_2005

> <r_lp_Energy>
54.361676

> <b_lp_Chiralities_Consistent>
1

> <s_lp_Variant>
CHEMBL3397_lig143-1

> <s_i_glide_gridfile>
glide-grid_1r9o

> <i_i_glide_lignum>
183

> <i_i_glide_rotatable_bonds>
3

> <r_i_docking_score>
-8.12266169134874

> <r_i_glide_ligand_efficiency>
-0.32490646765395

> <r_i_glide_ligand_efficiency_sa>
-0.950032273660888

> <r_i_glide_ligand_efficiency_ln>
-1.92531423737803

> <r_i_glide_gscore>
-8.12266169134874

> <r_i_glide_lipo>
-4.1791967789931

> <r_i_glide_hbond>
0

> <r_i_glide_metal>
0

> <r_i_glide_rewards>
-2.32153910806622

> <r_i_glide_evdw>
-42.2522964477539

> <r_i_glide_ecoul>
-0.083386056125164

> <r_i_glide_erotb>
0.503196926517046

> <r_i_glide_esite>
0

> <r_i_glide_emodel>
-47.1910340246216

> <r_i_glide_energy>
-42.3356825038791

> <r_i_glide_einternal>
10.7130575180054

> <i_i_glide_confnum>
23

> <i_i_glide_posenum>
12

> <r_i_glide_eff_state_penalty>
0

> <s_user_duplicate_titles>
CHEMBL3397_lig143

> <s_m_subgroup_title>
dock_pv

> <s_m_subgroupid>
dock_pv

> <b_m_subgroup_collapsed>
1

$$$$
CHEMBL3397_lig30
                    3D
 Schrodinger Suite 2021-1.
 53 55  0  0  1  0            999 V2000
    6.5214   31.5650   -3.1306 N   0  0  0  0  0  0
    4.0746   31.8585   -3.3454 C   0  0  0  0  0  0
    5.2812   31.0589   -2.9010 C   0  0  0  0  0  0
    2.9907   31.9809   -2.4642 C   0  0  0  0  0  0
    3.9840   32.4646   -4.6154 C   0  0  0  0  0  0
    1.8468   32.7200   -2.7978 C   0  0  0  0  0  0
    1.7850   33.2920   -4.0799 C   0  0  0  0  0  0
    6.7882   32.9920   -3.3505 C   0  0  0  0  0  0
    2.8456   33.1731   -4.9641 C   0  0  0  0  0  0
    7.9930   33.2233   -2.4875 C   0  0  0  0  0  0
    7.7405   30.8738   -2.6984 C   0  0  0  0  0  0
    8.5689   32.0099   -2.1429 C   0  0  0  0  0  0
    5.1009   29.9773   -2.3413 O   0  0  0  0  0  0
    8.5716   34.4211   -2.0834 C   0  0  0  0  0  0
    9.7529   31.9928   -1.4091 C   0  0  0  0  0  0
    0.7329   32.8590   -1.7411 C   0  0  0  0  0  0
    9.7831   34.4206   -1.3735 C   0  0  0  0  0  0
    4.9599   32.3665   -5.5726 O   0  0  0  0  0  0
    0.6981   33.9751   -4.5273 O   0  0  0  0  0  0
   10.3503   33.1940   -1.0266 C   0  0  0  0  0  0
   11.8354   37.9732   -4.0120 N   0  0  0  0  0  0
   11.2559   37.8109   -1.6231 C   0  0  0  0  0  0
   10.4728   35.5687   -1.0243 O   0  0  0  0  0  0
   11.3555   38.7229   -2.8652 C   0  0  0  0  0  0
   10.1198   36.7771   -1.6961 C   0  0  0  0  0  0
   -0.2951   31.7192   -1.8314 C   0  0  0  0  0  0
    0.0448   34.2428   -1.6777 C   0  0  0  0  0  0
    3.0461   31.5235   -1.4848 H   0  0  0  0  0  0
    7.0343   33.1907   -4.3927 H   0  0  0  0  0  0
    5.9570   33.6367   -3.0607 H   0  0  0  0  0  0
    2.7794   33.6291   -5.9401 H   0  0  0  0  0  0
    7.5325   30.1116   -1.9449 H   0  0  0  0  0  0
    8.2338   30.3955   -3.5461 H   0  0  0  0  0  0
    8.0877   35.3496   -2.3410 H   0  0  0  0  0  0
   10.2238   31.0641   -1.1342 H   0  0  0  0  0  0
    1.2253   32.7449   -0.7733 H   0  0  0  0  0  0
    5.6920   31.8124   -5.2922 H   0  0  0  0  0  0
    0.0166   34.0351   -3.8552 H   0  0  0  0  0  0
   11.2705   33.1750   -0.4617 H   0  0  0  0  0  0
   11.1195   37.3331   -4.3276 H   0  0  0  0  0  0
   11.9899   38.6097   -4.7877 H   0  0  0  0  0  0
   11.0998   38.4246   -0.7378 H   0  0  0  0  0  0
   12.2070   37.3103   -1.4552 H   0  0  0  0  0  0
   10.3889   39.1739   -3.0911 H   0  0  0  0  0  0
   12.0447   39.5519   -2.7042 H   0  0  0  0  0  0
    9.9183   36.5462   -2.7424 H   0  0  0  0  0  0
    9.2018   37.1883   -1.2716 H   0  0  0  0  0  0
    0.1967   30.7476   -1.8255 H   0  0  0  0  0  0
   -0.8883   31.7799   -2.7404 H   0  0  0  0  0  0
   -0.9854   31.7408   -0.9861 H   0  0  0  0  0  0
    0.7719   35.0537   -1.7469 H   0  0  0  0  0  0
   -0.6953   34.3802   -2.4647 H   0  0  0  0  0  0
   -0.4994   34.3705   -0.7416 H   0  0  0  0  0  0
  1  3  1  0  0  0
  1  8  1  0  0  0
  1 11  1  0  0  0
  2  3  1  0  0  0
  2  4  2  0  0  0
  2  5  1  0  0  0
  3 13  2  0  0  0
  4  6  1  0  0  0
  4 28  1  0  0  0
  5  9  2  0  0  0
  5 18  1  0  0  0
  6 16  1  0  0  0
  6  7  2  0  0  0
  7  9  1  0  0  0
  7 19  1  0  0  0
  8 10  1  0  0  0
  8 29  1  0  0  0
  8 30  1  0  0  0
  9 31  1  0  0  0
 10 14  1  0  0  0
 10 12  2  0  0  0
 11 12  1  0  0  0
 11 32  1  0  0  0
 11 33  1  0  0  0
 12 15  1  0  0  0
 14 17  2  0  0  0
 14 34  1  0  0  0
 15 20  2  0  0  0
 15 35  1  0  0  0
 16 26  1  0  0  0
 16 27  1  0  0  0
 16 36  1  0  0  0
 17 23  1  0  0  0
 17 20  1  0  0  0
 18 37  1  0  0  0
 19 38  1  0  0  0
 20 39  1  0  0  0
 21 24  1  0  0  0
 21 40  1  0  0  0
 21 41  1  0  0  0
 22 25  1  0  0  0
 22 24  1  0  0  0
 22 42  1  0  0  0
 22 43  1  0  0  0
 23 25  1  0  0  0
 24 44  1  0  0  0
 24 45  1  0  0  0
 25 46  1  0  0  0
 25 47  1  0  0  0
 26 48  1  0  0  0
 26 49  1  0  0  0
 26 50  1  0  0  0
 27 51  1  0  0  0
 27 52  1  0  0  0
 27 53  1  0  0  0
M  END
> <s_m_entry_id>
35860

> <s_m_entry_name>
dock_pv.16

> <s_m_Source_Path>
/home/csk/Desktop/cluster/DUD-E-result/cp2c9

> <s_m_Source_File>
dock_pv.maegz

> <i_m_Source_File_Index>
16

> <chembl_id>
CHEMBL1214676

> <chembl_pref_name>
None

> <i_lp_mmshare_version>
53161

> <i_f3d_flags>
0

> <r_lp_tautomer_probability>
0.999999999898

> <s_lp_Force_Field>
OPLS_2005

> <r_lp_Energy>
40.842897

> <b_lp_Chiralities_Consistent>
1

> <s_lp_Variant>
CHEMBL3397_lig30-1

> <s_i_glide_gridfile>
glide-grid_1r9o

> <i_i_glide_lignum>
51

> <i_i_glide_rotatable_bonds>
9

> <r_i_docking_score>
-8.08777895812506

> <r_i_glide_ligand_efficiency>
-0.299547368819447

> <r_i_glide_ligand_efficiency_sa>
-0.898642105471081

> <r_i_glide_ligand_efficiency_ln>
-1.8827016039945

> <r_i_glide_gscore>
-8.08777895812506

> <r_i_glide_lipo>
-4.39643302949722

> <r_i_glide_hbond>
-0.11990542773753

> <r_i_glide_metal>
0

> <r_i_glide_rewards>
-1.53054416123242

> <r_i_glide_evdw>
-45.2079048156738

> <r_i_glide_ecoul>
-3.22284603118896

> <r_i_glide_erotb>
0.702925805804147

> <r_i_glide_esite>
0

> <r_i_glide_emodel>
-65.4027979817299

> <r_i_glide_energy>
-48.4307508468628

> <r_i_glide_einternal>
12.854700088501

> <i_i_glide_confnum>
53

> <i_i_glide_posenum>
383

> <r_i_glide_eff_state_penalty>
0

> <s_user_duplicate_titles>
CHEMBL3397_lig30

> <s_m_subgroup_title>
dock_pv

> <s_m_subgroupid>
dock_pv

> <b_m_subgroup_collapsed>
1

$$$$
CHEMBL3397_lig7
                    3D
 Schrodinger Suite 2021-1.
 43 46  0  0  1  0            999 V2000
    6.1184   33.0324   -4.0452 C   0  0  0  0  0  0
    5.3458   33.6471   -2.8676 C   0  0  0  0  0  0
    3.8914   33.1414   -2.8159 C   0  0  0  0  0  0
    3.1677   33.3711   -4.0825 N   0  0  1  0  0  0
    3.8962   33.0581   -5.3310 C   0  0  0  0  0  0
    5.3796   33.4758   -5.3183 C   0  0  0  0  0  0
    7.1942   28.9835   -3.1410 C   0  0  0  0  0  0
    5.8727   29.1759   -3.5408 C   0  0  0  0  0  0
    5.4236   30.4481   -3.8862 C   0  0  0  0  0  0
    8.0807   30.0585   -3.1406 C   0  0  0  0  0  0
    7.6356   31.3258   -3.5186 C   0  0  0  0  0  0
    6.3158   31.5288   -3.8864 C   0  0  0  0  0  0
    7.4249   33.5992   -4.0853 O   0  0  0  0  0  0
    8.3711   32.6377   -3.6267 C   0  0  1  0  0  0
    1.9020   32.6317   -4.0865 C   0  0  0  0  0  0
    0.8662   33.1077   -3.0754 C   0  0  0  0  0  0
    0.5633   34.4627   -2.9740 C   0  0  0  0  0  0
   -0.4945   34.8902   -2.1804 C   0  0  0  0  0  0
   -1.2487   33.9550   -1.4823 C   0  0  0  0  0  0
   -0.9287   32.5992   -1.5410 C   0  0  0  0  0  0
    0.1337   32.1729   -2.3375 C   0  0  0  0  0  0
   -2.2962   34.3735   -0.7412 F   0  0  0  0  0  0
    8.9562   33.0767   -2.3495 C   0  0  0  0  0  0
    9.4251   33.4243   -1.3506 N   0  0  0  0  0  0
    5.8459   33.3876   -1.9364 H   0  0  0  0  0  0
    5.3607   34.7373   -2.9006 H   0  0  0  0  0  0
    3.9029   32.0763   -2.5904 H   0  0  0  0  0  0
    3.3419   33.5752   -1.9824 H   0  0  0  0  0  0
    3.8524   31.9898   -5.5381 H   0  0  0  0  0  0
    3.3727   33.5262   -6.1657 H   0  0  0  0  0  0
    5.4560   34.5545   -5.4636 H   0  0  0  0  0  0
    5.8723   33.0475   -6.1920 H   0  0  0  0  0  0
    7.5294   27.9989   -2.8447 H   0  0  0  0  0  0
    5.1888   28.3403   -3.5470 H   0  0  0  0  0  0
    4.3802   30.5612   -4.1272 H   0  0  0  0  0  0
    9.1010   29.8952   -2.8356 H   0  0  0  0  0  0
    9.1808   32.5717   -4.3506 H   0  0  0  0  0  0
    1.4321   32.7166   -5.0689 H   0  0  0  0  0  0
    2.1029   31.5732   -3.9318 H   0  0  0  0  0  0
    1.1360   35.1754   -3.5400 H   0  0  0  0  0  0
   -0.7410   35.9392   -2.1218 H   0  0  0  0  0  0
   -1.5185   31.8869   -0.9823 H   0  0  0  0  0  0
    0.3525   31.1179   -2.4127 H   0  0  0  0  0  0
  1 12  1  0  0  0
  1 13  1  0  0  0
  1  2  1  0  0  0
  1  6  1  0  0  0
  2  3  1  0  0  0
  2 25  1  0  0  0
  2 26  1  0  0  0
  3  4  1  0  0  0
  3 27  1  0  0  0
  3 28  1  0  0  0
  4  5  1  0  0  0
  4 15  1  0  0  0
  5  6  1  0  0  0
  5 29  1  0  0  0
  5 30  1  0  0  0
  6 31  1  0  0  0
  6 32  1  0  0  0
  7  8  2  0  0  0
  7 10  1  0  0  0
  7 33  1  0  0  0
  8  9  1  0  0  0
  8 34  1  0  0  0
  9 12  2  0  0  0
  9 35  1  0  0  0
 10 11  2  0  0  0
 10 36  1  0  0  0
 11 14  1  0  0  0
 11 12  1  0  0  0
 13 14  1  0  0  0
 14 23  1  0  0  0
 14 37  1  0  0  0
 15 16  1  0  0  0
 15 38  1  0  0  0
 15 39  1  0  0  0
 16 17  2  0  0  0
 16 21  1  0  0  0
 17 18  1  0  0  0
 17 40  1  0  0  0
 18 19  2  0  0  0
 18 41  1  0  0  0
 19 20  1  0  0  0
 19 22  1  0  0  0
 20 21  2  0  0  0
 20 42  1  0  0  0
 21 43  1  0  0  0
 23 24  3  0  0  0
M  END
> <s_m_entry_id>
35861

> <s_m_entry_name>
dock_pv.17

> <s_m_Source_Path>
/home/csk/Desktop/cluster/DUD-E-result/cp2c9

> <s_m_Source_File>
dock_pv.maegz

> <i_m_Source_File_Index>
17

> <chembl_id>
CHEMBL468929

> <chembl_pref_name>
None

> <i_lp_mmshare_version>
53161

> <i_f3d_flags>
0

> <r_lp_tautomer_probability>
1

> <s_lp_Force_Field>
OPLS_2005

> <r_lp_Energy>
43.874352

> <b_lp_Chiralities_Consistent>
1

> <s_lp_Variant>
CHEMBL3397_lig7-1

> <s_i_glide_gridfile>
glide-grid_1r9o

> <i_i_glide_lignum>
8

> <i_i_glide_rotatable_bonds>
2

> <r_i_docking_score>
-8.06537040840392

> <r_i_glide_ligand_efficiency>
-0.336057100350163

> <r_i_glide_ligand_efficiency_sa>
-0.969356416130664

> <r_i_glide_ligand_efficiency_ln>
-1.93041323446334

> <r_i_glide_gscore>
-8.06537040840392

> <r_i_glide_lipo>
-4.75442256788859

> <r_i_glide_hbond>
0

> <r_i_glide_metal>
0

> <r_i_glide_rewards>
-1.45822273884959

> <r_i_glide_evdw>
-37.8906021118164

> <r_i_glide_ecoul>
-2.12036895751953

> <r_i_glide_erotb>
0.35986034755301

> <r_i_glide_esite>
0

> <r_i_glide_emodel>
-53.3404012267279

> <r_i_glide_energy>
-40.0109710693359

> <r_i_glide_einternal>
2.95099234580994

> <i_i_glide_confnum>
16

> <i_i_glide_posenum>
242

> <r_i_glide_eff_state_penalty>
0

> <s_user_duplicate_titles>
CHEMBL3397_lig7

> <s_m_subgroup_title>
dock_pv

> <s_m_subgroupid>
dock_pv

> <b_m_subgroup_collapsed>
1

$$$$
CHEMBL3397_lig145
                    3D
 Schrodinger Suite 2021-1.
 48 51  0  0  1  0            999 V2000
   -0.0998   31.5752   -1.6913 S   0  0  0  0  0  0
   10.2156   32.3697   -2.3413 O   0  0  0  0  0  0
    7.9445   32.4547   -2.2697 N   0  0  0  0  0  0
    3.4986   32.4148   -3.6238 N   0  0  1  0  0  0
    8.5026   35.2923   -1.4107 N   0  0  0  0  0  0
    1.1089   33.7007   -2.4548 N   0  0  0  0  0  0
   10.6272   35.5044    0.4104 N   0  0  0  0  0  0
    5.8855   32.5254   -4.3298 C   0  0  2  0  0  0
    4.7107   31.6084   -3.8647 C   0  0  0  0  0  0
    7.2338   31.7547   -4.4693 C   0  0  0  0  0  0
    6.1881   33.6941   -3.3390 C   0  0  0  0  0  0
    5.4401   33.0381   -5.7255 C   0  0  0  0  0  0
    9.1861   32.9573   -2.0011 C   0  0  0  0  0  0
    7.7895   31.2485   -3.1102 C   0  0  0  0  0  0
    6.6664   33.1281   -1.9801 C   0  0  0  0  0  0
    9.3609   34.2510   -1.2283 C   0  0  0  0  0  0
    3.0189   32.9465   -4.9170 C   0  0  0  0  0  0
    4.0991   33.7939   -5.6340 C   0  0  0  0  0  0
    2.4890   31.6295   -2.9018 C   0  0  0  0  0  0
    1.2607   32.3939   -2.4051 C   0  0  0  0  0  0
   10.4302   34.3842   -0.3368 C   0  0  0  0  0  0
    8.6733   36.4011   -0.6465 C   0  0  0  0  0  0
   -0.9112   33.1005   -1.5410 C   0  0  0  0  0  0
   -0.0639   34.0990   -2.0022 C   0  0  0  0  0  0
    9.7335   36.5118    0.2523 C   0  0  0  0  0  0
    4.4903   30.8080   -4.5746 H   0  0  0  0  0  0
    4.9984   31.1087   -2.9408 H   0  0  0  0  0  0
    7.9886   32.3691   -4.9645 H   0  0  0  0  0  0
    7.1009   30.9003   -5.1320 H   0  0  0  0  0  0
    5.2954   34.2940   -3.1640 H   0  0  0  0  0  0
    6.9149   34.3939   -3.7545 H   0  0  0  0  0  0
    6.2012   33.7001   -6.1447 H   0  0  0  0  0  0
    5.3551   32.2089   -6.4299 H   0  0  0  0  0  0
    8.7011   30.6532   -3.1902 H   0  0  0  0  0  0
    7.0745   30.5907   -2.6163 H   0  0  0  0  0  0
    5.9750   32.3761   -1.6021 H   0  0  0  0  0  0
    6.7012   33.8136   -1.1417 H   0  0  0  0  0  0
    2.1413   33.5744   -4.7643 H   0  0  0  0  0  0
    2.6880   32.1243   -5.5556 H   0  0  0  0  0  0
    4.2038   34.7617   -5.1420 H   0  0  0  0  0  0
    3.7537   34.0347   -6.6390 H   0  0  0  0  0  0
    2.1986   30.7979   -3.5395 H   0  0  0  0  0  0
    2.9685   31.1712   -2.0365 H   0  0  0  0  0  0
   11.1016   33.5629   -0.1491 H   0  0  0  0  0  0
    7.9318   37.1749   -0.7414 H   0  0  0  0  0  0
   -1.9041   33.1801   -1.1242 H   0  0  0  0  0  0
   -0.2951   35.1543   -2.0123 H   0  0  0  0  0  0
    9.8643   37.3955    0.8585 H   0  0  0  0  0  0
  1 20  1  0  0  0
  1 23  1  0  0  0
  2 13  2  0  0  0
  3 13  1  0  0  0
  3 14  1  0  0  0
  3 15  1  0  0  0
  4  9  1  0  0  0
  4 17  1  0  0  0
  4 19  1  0  0  0
  5 16  1  0  0  0
  5 22  2  0  0  0
  6 20  2  0  0  0
  6 24  1  0  0  0
  7 21  1  0  0  0
  7 25  2  0  0  0
  8  9  1  0  0  0
  8 10  1  0  0  0
  8 11  1  0  0  0
  8 12  1  0  0  0
  9 26  1  0  0  0
  9 27  1  0  0  0
 10 14  1  0  0  0
 10 28  1  0  0  0
 10 29  1  0  0  0
 11 15  1  0  0  0
 11 30  1  0  0  0
 11 31  1  0  0  0
 12 18  1  0  0  0
 12 32  1  0  0  0
 12 33  1  0  0  0
 13 16  1  0  0  0
 14 34  1  0  0  0
 14 35  1  0  0  0
 15 36  1  0  0  0
 15 37  1  0  0  0
 16 21  2  0  0  0
 17 18  1  0  0  0
 17 38  1  0  0  0
 17 39  1  0  0  0
 18 40  1  0  0  0
 18 41  1  0  0  0
 19 20  1  0  0  0
 19 42  1  0  0  0
 19 43  1  0  0  0
 21 44  1  0  0  0
 22 25  1  0  0  0
 22 45  1  0  0  0
 23 24  2  0  0  0
 23 46  1  0  0  0
 24 47  1  0  0  0
 25 48  1  0  0  0
M  END
> <s_m_entry_id>
35862

> <s_m_entry_name>
dock_pv.18

> <s_m_Source_Path>
/home/csk/Desktop/cluster/DUD-E-result/cp2c9

> <s_m_Source_File>
dock_pv.maegz

> <i_m_Source_File_Index>
18

> <chembl_id>
CHEMBL1495077

> <chembl_pref_name>
None

> <i_lp_mmshare_version>
53161

> <i_f3d_flags>
0

> <r_lp_tautomer_probability>
1

> <s_lp_Force_Field>
OPLS_2005

> <r_lp_Energy>
55.507741

> <b_lp_Chiralities_Consistent>
1

> <s_lp_Variant>
CHEMBL3397_lig145-1

> <s_i_glide_gridfile>
glide-grid_1r9o

> <i_i_glide_lignum>
185

> <i_i_glide_rotatable_bonds>
4

> <r_i_docking_score>
-8.02885651095857

> <r_i_glide_ligand_efficiency>
-0.321154260438343

> <r_i_glide_ligand_efficiency_sa>
-0.939060753216775

> <r_i_glide_ligand_efficiency_ln>
-1.90307959851115

> <r_i_glide_gscore>
-8.02885651095857

> <r_i_glide_lipo>
-4.37624785027573

> <r_i_glide_hbond>
0

> <r_i_glide_metal>
0

> <r_i_glide_rewards>
-1.94732610956431

> <r_i_glide_evdw>
-44.231689453125

> <r_i_glide_ecoul>
-0.619717299938202

> <r_i_glide_erotb>
0.599259516528447

> <r_i_glide_esite>
0

> <r_i_glide_emodel>
-64.9727091768283

> <r_i_glide_energy>
-44.8514067530632

> <r_i_glide_einternal>
3.01814770698547

> <i_i_glide_confnum>
92

> <i_i_glide_posenum>
80

> <r_i_glide_eff_state_penalty>
0

> <s_user_duplicate_titles>
CHEMBL3397_lig145

> <s_m_subgroup_title>
dock_pv

> <s_m_subgroupid>
dock_pv

> <b_m_subgroup_collapsed>
1

$$$$
CHEMBL3397_lig10
                    3D
 Schrodinger Suite 2021-1.
 43 47  0  0  1  0            999 V2000
   -0.7494   32.0762   -1.5410 C   0  0  0  0  0  0
   -1.5400   33.1783   -1.5403 N   0  0  0  0  0  0
   -1.0283   34.3256   -2.0508 C   0  0  0  0  0  0
    0.2556   34.4046   -2.5902 C   0  0  0  0  0  0
    1.0699   33.2640   -2.5949 C   0  0  0  0  0  0
    0.5499   32.0790   -2.0523 C   0  0  0  0  0  0
    2.4580   33.3257   -3.1232 C   0  0  0  0  0  0
    3.5006   32.7998   -2.3508 C   0  0  0  0  0  0
    4.0223   34.0709   -4.8718 C   0  0  0  0  0  0
    2.7251   33.9322   -4.3607 C   0  0  0  0  0  0
    6.4314   33.6165   -4.3121 N   0  0  0  0  0  0
    5.0777   33.5891   -4.0780 C   0  0  0  0  0  0
    4.7942   32.9642   -2.8391 C   0  0  0  0  0  0
    6.0272   32.6340   -2.3445 N   0  0  0  0  0  0
    6.9690   33.0497   -3.2595 C   0  0  0  0  0  0
    8.4620   32.7967   -3.0724 C   0  0  1  0  0  0
    9.2587   33.9076   -3.5377 O   0  0  0  0  0  0
    8.5446   33.5976   -0.8186 O   0  0  0  0  0  0
    8.8495   32.4470   -1.6124 C   0  0  0  0  0  0
    9.2327   34.7107   -1.2396 C   0  0  0  0  0  0
    9.5720   34.8684   -2.5889 C   0  0  0  0  0  0
   10.3210   35.9750   -2.9847 C   0  0  0  0  0  0
   10.7009   36.9334   -2.0372 C   0  0  0  0  0  0
   10.3235   36.7907   -0.6993 C   0  0  0  0  0  0
    9.5874   35.6746   -0.2954 C   0  0  0  0  0  0
    4.2323   34.7238   -6.2283 C   0  0  0  0  0  0
   -1.1776   31.1812   -1.1150 H   0  0  0  0  0  0
   -1.6734   35.1917   -2.0289 H   0  0  0  0  0  0
    0.6186   35.3442   -2.9806 H   0  0  0  0  0  0
    1.1413   31.1760   -2.0307 H   0  0  0  0  0  0
    3.3144   32.3391   -1.3920 H   0  0  0  0  0  0
    1.8942   34.3050   -4.9425 H   0  0  0  0  0  0
    6.2556   32.1947   -1.4639 H   0  0  0  0  0  0
    8.7035   31.9516   -3.7159 H   0  0  0  0  0  0
    8.2870   31.5927   -1.2355 H   0  0  0  0  0  0
    9.9101   32.1915   -1.5479 H   0  0  0  0  0  0
   10.5996   36.0929   -4.0221 H   0  0  0  0  0  0
   11.2610   37.8047   -2.3458 H   0  0  0  0  0  0
   10.6007   37.5456    0.0237 H   0  0  0  0  0  0
    9.3043   35.5509    0.7396 H   0  0  0  0  0  0
    4.1223   33.9828   -7.0202 H   0  0  0  0  0  0
    3.5236   35.5318   -6.4089 H   0  0  0  0  0  0
    5.2278   35.1615   -6.3030 H   0  0  0  0  0  0
  1  6  1  0  0  0
  1  2  2  0  0  0
  1 27  1  0  0  0
  2  3  1  0  0  0
  3  4  2  0  0  0
  3 28  1  0  0  0
  4  5  1  0  0  0
  4 29  1  0  0  0
  5  7  1  0  0  0
  5  6  2  0  0  0
  6 30  1  0  0  0
  7  8  2  0  0  0
  7 10  1  0  0  0
  8 13  1  0  0  0
  8 31  1  0  0  0
  9 12  1  0  0  0
  9 10  2  0  0  0
  9 26  1  0  0  0
 10 32  1  0  0  0
 11 12  1  0  0  0
 11 15  2  0  0  0
 12 13  2  0  0  0
 13 14  1  0  0  0
 14 15  1  0  0  0
 14 33  1  0  0  0
 15 16  1  0  0  0
 16 17  1  0  0  0
 16 19  1  0  0  0
 16 34  1  0  0  0
 17 21  1  0  0  0
 18 20  1  0  0  0
 18 19  1  0  0  0
 19 35  1  0  0  0
 19 36  1  0  0  0
 20 21  2  0  0  0
 20 25  1  0  0  0
 21 22  1  0  0  0
 22 23  2  0  0  0
 22 37  1  0  0  0
 23 24  1  0  0  0
 23 38  1  0  0  0
 24 25  2  0  0  0
 24 39  1  0  0  0
 25 40  1  0  0  0
 26 41  1  0  0  0
 26 42  1  0  0  0
 26 43  1  0  0  0
M  END
> <s_m_entry_id>
35863

> <s_m_entry_name>
dock_pv.19

> <s_m_Source_Path>
/home/csk/Desktop/cluster/DUD-E-result/cp2c9

> <s_m_Source_File>
dock_pv.maegz

> <i_m_Source_File_Index>
19

> <chembl_id>
CHEMBL1092500

> <chembl_pref_name>
None

> <i_lp_mmshare_version>
53161

> <i_f3d_flags>
0

> <r_lp_tautomer_probability>
1

> <s_lp_Force_Field>
OPLS_2005

> <r_lp_Energy>
17.55306

> <b_lp_Chiralities_Consistent>
1

> <s_lp_Variant>
CHEMBL3397_lig10-2

> <s_i_glide_gridfile>
glide-grid_1r9o

> <i_i_glide_lignum>
14

> <i_i_glide_rotatable_bonds>
2

> <r_i_docking_score>
-8.01910353509606

> <r_i_glide_ligand_efficiency>
-0.308427059042156

> <r_i_glide_ligand_efficiency_sa>
-0.913713948810513

> <r_i_glide_ligand_efficiency_ln>
-1.88326015239244

> <r_i_glide_gscore>
-8.01910353509606

> <r_i_glide_lipo>
-4.57190461576961

> <r_i_glide_hbond>
0

> <r_i_glide_metal>
0

> <r_i_glide_rewards>
-1.49446064928639

> <r_i_glide_evdw>
-41.0180473327637

> <r_i_glide_ecoul>
-1.49121296405792

> <r_i_glide_erotb>
0.321846041206818

> <r_i_glide_esite>
0

> <r_i_glide_emodel>
-56.9959209556327

> <r_i_glide_energy>
-42.5092602968216

> <r_i_glide_einternal>
2.48425531387329

> <i_i_glide_confnum>
24

> <i_i_glide_posenum>
249

> <r_i_glide_eff_state_penalty>
0

> <s_user_duplicate_titles>
CHEMBL3397_lig10

> <s_m_subgroup_title>
dock_pv

> <s_m_subgroupid>
dock_pv

> <b_m_subgroup_collapsed>
1

$$$$
CHEMBL3397_lig7
                    3D
 Schrodinger Suite 2021-1.
 43 46  0  0  1  0            999 V2000
    6.5267   33.2069   -3.3838 C   0  0  0  0  0  0
    5.8986   34.4522   -4.0330 C   0  0  0  0  0  0
    4.5214   34.1507   -4.6500 C   0  0  0  0  0  0
    3.6114   33.5608   -3.6580 N   0  0  2  0  0  0
    4.1454   32.3184   -3.0808 C   0  0  0  0  0  0
    5.5088   32.5628   -2.4218 C   0  0  0  0  0  0
   10.3008   33.3337   -1.3935 C   0  0  0  0  0  0
    9.4318   34.3860   -1.1007 C   0  0  0  0  0  0
    8.1823   34.4519   -1.7166 C   0  0  0  0  0  0
    9.9428   32.3773   -2.3414 C   0  0  0  0  0  0
    8.7067   32.4716   -2.9845 C   0  0  0  0  0  0
    7.8331   33.4995   -2.6774 C   0  0  0  0  0  0
    6.8561   32.2723   -4.4088 O   0  0  0  0  0  0
    8.0617   31.6086   -4.0431 C   0  0  2  0  0  0
    2.2949   33.3318   -4.2476 C   0  0  0  0  0  0
    1.1835   33.3007   -3.2069 C   0  0  0  0  0  0
    0.7023   32.0807   -2.7188 C   0  0  0  0  0  0
   -0.4525   32.0549   -1.9410 C   0  0  0  0  0  0
   -1.1248   33.2468   -1.6866 C   0  0  0  0  0  0
   -0.5878   34.4717   -2.0655 C   0  0  0  0  0  0
    0.5822   34.4991   -2.8133 C   0  0  0  0  0  0
   -2.3506   33.2116   -1.1399 F   0  0  0  0  0  0
    7.7483   30.2632   -3.5355 C   0  0  0  0  0  0
    7.5011   29.2045   -3.1410 N   0  0  0  0  0  0
    5.8147   35.2806   -3.3287 H   0  0  0  0  0  0
    6.5600   34.8143   -4.8211 H   0  0  0  0  0  0
    4.0898   35.0829   -5.0195 H   0  0  0  0  0  0
    4.6163   33.4881   -5.5135 H   0  0  0  0  0  0
    3.4549   31.9386   -2.3265 H   0  0  0  0  0  0
    4.2198   31.5473   -3.8512 H   0  0  0  0  0  0
    5.8941   31.6147   -2.0460 H   0  0  0  0  0  0
    5.3629   33.1748   -1.5404 H   0  0  0  0  0  0
   11.2452   33.2452   -0.8798 H   0  0  0  0  0  0
    9.7036   35.1231   -0.3592 H   0  0  0  0  0  0
    7.5010   35.2400   -1.4387 H   0  0  0  0  0  0
   10.6362   31.5849   -2.5677 H   0  0  0  0  0  0
    8.6967   31.5024   -4.9251 H   0  0  0  0  0  0
    2.0489   34.1316   -4.9484 H   0  0  0  0  0  0
    2.2830   32.4151   -4.8408 H   0  0  0  0  0  0
    1.1755   31.1535   -3.0036 H   0  0  0  0  0  0
   -0.8761   31.1157   -1.6183 H   0  0  0  0  0  0
   -1.1070   35.3890   -1.8293 H   0  0  0  0  0  0
    0.9750   35.4488   -3.1409 H   0  0  0  0  0  0
  1 12  1  0  0  0
  1 13  1  0  0  0
  1  2  1  0  0  0
  1  6  1  0  0  0
  2  3  1  0  0  0
  2 25  1  0  0  0
  2 26  1  0  0  0
  3  4  1  0  0  0
  3 27  1  0  0  0
  3 28  1  0  0  0
  4  5  1  0  0  0
  4 15  1  0  0  0
  5  6  1  0  0  0
  5 29  1  0  0  0
  5 30  1  0  0  0
  6 31  1  0  0  0
  6 32  1  0  0  0
  7  8  2  0  0  0
  7 10  1  0  0  0
  7 33  1  0  0  0
  8  9  1  0  0  0
  8 34  1  0  0  0
  9 12  2  0  0  0
  9 35  1  0  0  0
 10 11  2  0  0  0
 10 36  1  0  0  0
 11 14  1  0  0  0
 11 12  1  0  0  0
 13 14  1  0  0  0
 14 23  1  0  0  0
 14 37  1  0  0  0
 15 16  1  0  0  0
 15 38  1  0  0  0
 15 39  1  0  0  0
 16 17  2  0  0  0
 16 21  1  0  0  0
 17 18  1  0  0  0
 17 40  1  0  0  0
 18 19  2  0  0  0
 18 41  1  0  0  0
 19 20  1  0  0  0
 19 22  1  0  0  0
 20 21  2  0  0  0
 20 42  1  0  0  0
 21 43  1  0  0  0
 23 24  3  0  0  0
M  END
> <s_m_entry_id>
35864

> <s_m_entry_name>
dock_pv.20

> <s_m_Source_Path>
/home/csk/Desktop/cluster/DUD-E-result/cp2c9

> <s_m_Source_File>
dock_pv.maegz

> <i_m_Source_File_Index>
20

> <chembl_id>
CHEMBL468929

> <chembl_pref_name>
None

> <i_lp_mmshare_version>
53161

> <i_f3d_flags>
0

> <r_lp_tautomer_probability>
1

> <s_lp_Force_Field>
OPLS_2005

> <r_lp_Energy>
41.319708

> <b_lp_Chiralities_Consistent>
1

> <s_lp_Variant>
CHEMBL3397_lig7-2

> <s_i_glide_gridfile>
glide-grid_1r9o

> <i_i_glide_lignum>
9

> <i_i_glide_rotatable_bonds>
2

> <r_i_docking_score>
-7.94481579844713

> <r_i_glide_ligand_efficiency>
-0.331033991601964

> <r_i_glide_ligand_efficiency_sa>
-0.954867263278617

> <r_i_glide_ligand_efficiency_ln>
-1.90155898441009

> <r_i_glide_gscore>
-7.94481579844713

> <r_i_glide_lipo>
-4.64784097352139

> <r_i_glide_hbond>
0

> <r_i_glide_metal>
0

> <r_i_glide_rewards>
-1.81528668493469

> <r_i_glide_evdw>
-39.3063087463379

> <r_i_glide_ecoul>
0.825112998485565

> <r_i_glide_erotb>
0.35986034755301

> <r_i_glide_esite>
0

> <r_i_glide_emodel>
-52.5641179478715

> <r_i_glide_energy>
-38.4811957478523

> <r_i_glide_einternal>
0.211846321821213

> <i_i_glide_confnum>
4

> <i_i_glide_posenum>
359

> <r_i_glide_eff_state_penalty>
0

> <s_user_duplicate_titles>
CHEMBL3397_lig7

> <s_m_subgroup_title>
dock_pv

> <s_m_subgroupid>
dock_pv

> <b_m_subgroup_collapsed>
1

$$$$
CHEMBL3397_lig17
                    3D
 Schrodinger Suite 2021-1.
 43 47  0  0  1  0            999 V2000
   -0.2775   31.2648   -1.9483 C   0  0  0  0  0  0
   -1.1594   32.2082   -1.5408 N   0  0  0  0  0  0
   -0.7433   33.4980   -1.5428 C   0  0  0  0  0  0
    0.5382   33.8801   -1.9497 C   0  0  0  0  0  0
    1.4452   32.9039   -2.4019 C   0  0  0  0  0  0
    1.0081   31.5747   -2.3960 C   0  0  0  0  0  0
    2.8225   33.2632   -2.8632 C   0  0  0  0  0  0
    3.9147   32.4107   -2.6148 C   0  0  0  0  0  0
    4.2980   34.9409   -3.8747 C   0  0  0  0  0  0
    3.0325   34.4816   -3.5235 C   0  0  0  0  0  0
    6.7176   34.3750   -3.7686 N   0  0  0  0  0  0
    5.3922   34.1265   -3.5738 C   0  0  0  0  0  0
    5.1913   32.8615   -2.9835 C   0  0  0  0  0  0
    6.4637   32.3158   -2.9269 N   0  0  0  0  0  0
    7.3474   33.3046   -3.3454 C   0  0  0  0  0  0
    8.8804   33.1834   -3.4621 C   0  0  2  0  0  0
    9.5317   32.9876   -1.1221 O   0  0  0  0  0  0
    9.6565   32.3572   -2.3971 C   0  0  0  0  0  0
    9.9015   34.3185   -1.1461 C   0  0  0  0  0  0
    9.8673   35.0565   -2.3345 C   0  0  0  0  0  0
   10.3126   36.3754   -2.3418 C   0  0  0  0  0  0
   10.7109   36.9946   -1.1543 C   0  0  0  0  0  0
   10.6962   36.2751    0.0422 C   0  0  0  0  0  0
   10.3021   34.9351    0.0436 C   0  0  0  0  0  0
    6.7844   30.9725   -2.4807 C   0  0  0  0  0  0
    9.5010   34.4849   -3.5408 O   0  0  0  0  0  0
   -0.6295   30.2432   -1.9394 H   0  0  0  0  0  0
   -1.4527   34.2300   -1.1842 H   0  0  0  0  0  0
    0.8149   34.9233   -1.9065 H   0  0  0  0  0  0
    1.6515   30.7794   -2.7410 H   0  0  0  0  0  0
    3.7795   31.4588   -2.1232 H   0  0  0  0  0  0
    4.4297   35.9093   -4.3356 H   0  0  0  0  0  0
    2.1914   35.1331   -3.6819 H   0  0  0  0  0  0
    9.0520   32.7129   -4.4287 H   0  0  0  0  0  0
   10.7114   32.3221   -2.6790 H   0  0  0  0  0  0
    9.3371   31.3220   -2.3314 H   0  0  0  0  0  0
   10.3430   36.9106   -3.2782 H   0  0  0  0  0  0
   11.0279   38.0299   -1.1577 H   0  0  0  0  0  0
   11.0067   36.7475    0.9639 H   0  0  0  0  0  0
   10.3280   34.3757    0.9659 H   0  0  0  0  0  0
    5.8781   30.3823   -2.3418 H   0  0  0  0  0  0
    7.4045   30.4787   -3.2276 H   0  0  0  0  0  0
    7.3226   31.0431   -1.5410 H   0  0  0  0  0  0
  1  6  1  0  0  0
  1  2  2  0  0  0
  1 27  1  0  0  0
  2  3  1  0  0  0
  3  4  2  0  0  0
  3 28  1  0  0  0
  4  5  1  0  0  0
  4 29  1  0  0  0
  5  7  1  0  0  0
  5  6  2  0  0  0
  6 30  1  0  0  0
  7  8  2  0  0  0
  7 10  1  0  0  0
  8 13  1  0  0  0
  8 31  1  0  0  0
  9 12  1  0  0  0
  9 10  2  0  0  0
  9 32  1  0  0  0
 10 33  1  0  0  0
 11 12  1  0  0  0
 11 15  2  0  0  0
 12 13  2  0  0  0
 13 14  1  0  0  0
 14 15  1  0  0  0
 14 25  1  0  0  0
 15 16  1  0  0  0
 16 26  1  0  0  0
 16 18  1  0  0  0
 16 34  1  0  0  0
 17 19  1  0  0  0
 17 18  1  0  0  0
 18 35  1  0  0  0
 18 36  1  0  0  0
 19 20  2  0  0  0
 19 24  1  0  0  0
 20 26  1  0  0  0
 20 21  1  0  0  0
 21 22  2  0  0  0
 21 37  1  0  0  0
 22 23  1  0  0  0
 22 38  1  0  0  0
 23 24  2  0  0  0
 23 39  1  0  0  0
 24 40  1  0  0  0
 25 41  1  0  0  0
 25 42  1  0  0  0
 25 43  1  0  0  0
M  END
> <s_m_entry_id>
35865

> <s_m_entry_name>
dock_pv.21

> <s_m_Source_Path>
/home/csk/Desktop/cluster/DUD-E-result/cp2c9

> <s_m_Source_File>
dock_pv.maegz

> <i_m_Source_File_Index>
21

> <chembl_id>
CHEMBL1091819

> <chembl_pref_name>
None

> <i_lp_mmshare_version>
53161

> <i_f3d_flags>
0

> <r_lp_tautomer_probability>
1

> <s_lp_Force_Field>
OPLS_2005

> <r_lp_Energy>
18.215916

> <b_lp_Chiralities_Consistent>
1

> <s_lp_Variant>
CHEMBL3397_lig17-2

> <s_i_glide_gridfile>
glide-grid_1r9o

> <i_i_glide_lignum>
28

> <i_i_glide_rotatable_bonds>
2

> <r_i_docking_score>
-7.93556280430905

> <r_i_glide_ligand_efficiency>
-0.305213954011887

> <r_i_glide_ligand_efficiency_sa>
-0.904195137801297

> <r_i_glide_ligand_efficiency_ln>
-1.86364088588661

> <r_i_glide_gscore>
-7.93556280430905

> <r_i_glide_lipo>
-4.45381971459008

> <r_i_glide_hbond>
0

> <r_i_glide_metal>
0

> <r_i_glide_rewards>
-1.65538461952175

> <r_i_glide_evdw>
-39.8954925537109

> <r_i_glide_ecoul>
-1.0228658914566

> <r_i_glide_erotb>
0.321846041206818

> <r_i_glide_esite>
0

> <r_i_glide_emodel>
-51.9099539486309

> <r_i_glide_energy>
-40.9183584451675

> <r_i_glide_einternal>
3.12255954742432

> <i_i_glide_confnum>
14

> <i_i_glide_posenum>
25

> <r_i_glide_eff_state_penalty>
0

> <s_user_duplicate_titles>
CHEMBL3397_lig17

> <s_m_subgroup_title>
dock_pv

> <s_m_subgroupid>
dock_pv

> <b_m_subgroup_collapsed>
1

$$$$
CHEMBL3397_lig65
                    3D
 Schrodinger Suite 2021-1.
 39 40  0  0  1  0            999 V2000
    3.9010   35.9360   -3.9852 O   0  0  0  0  0  0
    6.8533   28.0883   -3.5410 O   0  0  0  0  0  0
    3.5010   30.4135   -3.5343 N   0  0  0  0  0  0
    3.5021   31.7928   -3.7734 C   0  0  0  0  0  0
    4.5931   33.7506   -4.7525 C   0  0  0  0  0  0
    2.6053   32.6389   -3.0983 C   0  0  0  0  0  0
    3.7392   34.5765   -4.0052 C   0  0  0  0  0  0
    4.4121   32.3678   -4.6724 C   0  0  0  0  0  0
    2.7157   34.0215   -3.2409 C   0  0  0  0  0  0
    5.7081   34.3446   -5.6277 C   0  0  0  0  0  0
    5.9015   30.2321   -2.8678 C   0  0  0  0  0  0
    4.5282   29.7598   -3.1410 C   0  0  0  0  0  0
    6.9962   29.4063   -3.1793 C   0  0  0  0  0  0
    6.1701   31.5088   -2.3410 C   0  0  0  0  0  0
    1.5317   32.0790   -2.1717 C   0  0  0  0  0  0
    8.2896   29.9129   -3.1410 C   0  0  0  0  0  0
    7.4729   31.9927   -2.2489 C   0  0  0  0  0  0
    8.5342   31.2022   -2.6738 C   0  0  0  0  0  0
    5.1224   34.8865   -6.9365 C   0  0  0  0  0  0
    6.9007   33.4035   -5.9131 C   0  0  0  0  0  0
    3.2245   36.4053   -3.4893 H   0  0  0  0  0  0
    6.3010   27.5893   -2.9226 H   0  0  0  0  0  0
    5.0567   31.7074   -5.2313 H   0  0  0  0  0  0
    2.0349   34.6705   -2.7105 H   0  0  0  0  0  0
    6.1310   35.1750   -5.0629 H   0  0  0  0  0  0
    4.4088   28.6918   -3.0037 H   0  0  0  0  0  0
    5.3692   32.1570   -2.0158 H   0  0  0  0  0  0
    1.9925   31.5750   -1.3216 H   0  0  0  0  0  0
    0.8592   32.8511   -1.7957 H   0  0  0  0  0  0
    0.9281   31.3414   -2.7020 H   0  0  0  0  0  0
    9.1010   29.2713   -3.4361 H   0  0  0  0  0  0
    7.6540   32.9843   -1.8606 H   0  0  0  0  0  0
    9.5460   31.5758   -2.6181 H   0  0  0  0  0  0
    4.3010   35.5750   -6.7410 H   0  0  0  0  0  0
    4.7293   34.0694   -7.5410 H   0  0  0  0  0  0
    5.8685   35.4188   -7.5276 H   0  0  0  0  0  0
    7.2976   32.9711   -4.9945 H   0  0  0  0  0  0
    6.6274   32.5849   -6.5798 H   0  0  0  0  0  0
    7.7170   33.9448   -6.3931 H   0  0  0  0  0  0
  1  7  1  0  0  0
  1 21  1  0  0  0
  2 13  1  0  0  0
  2 22  1  0  0  0
  3  4  1  0  0  0
  3 12  2  0  0  0
  4  6  2  0  0  0
  4  8  1  0  0  0
  5  7  1  0  0  0
  5  8  2  0  0  0
  5 10  1  0  0  0
  6  9  1  0  0  0
  6 15  1  0  0  0
  7  9  2  0  0  0
  8 23  1  0  0  0
  9 24  1  0  0  0
 10 19  1  0  0  0
 10 20  1  0  0  0
 10 25  1  0  0  0
 11 12  1  0  0  0
 11 13  2  0  0  0
 11 14  1  0  0  0
 12 26  1  0  0  0
 13 16  1  0  0  0
 14 17  2  0  0  0
 14 27  1  0  0  0
 15 28  1  0  0  0
 15 29  1  0  0  0
 15 30  1  0  0  0
 16 18  2  0  0  0
 16 31  1  0  0  0
 17 18  1  0  0  0
 17 32  1  0  0  0
 18 33  1  0  0  0
 19 34  1  0  0  0
 19 35  1  0  0  0
 19 36  1  0  0  0
 20 37  1  0  0  0
 20 38  1  0  0  0
 20 39  1  0  0  0
M  END
> <s_m_entry_id>
35866

> <s_m_entry_name>
dock_pv.22

> <s_m_Source_Path>
/home/csk/Desktop/cluster/DUD-E-result/cp2c9

> <s_m_Source_File>
dock_pv.maegz

> <i_m_Source_File_Index>
22

> <chembl_id>
CHEMBL1554411

> <chembl_pref_name>
None

> <i_lp_mmshare_version>
53161

> <i_f3d_flags>
0

> <r_lp_tautomer_probability>
1

> <s_lp_Force_Field>
OPLS_2005

> <r_lp_Energy>
23.771469

> <b_lp_Chiralities_Consistent>
1

> <s_lp_Variant>
CHEMBL3397_lig65-1

> <s_i_glide_gridfile>
glide-grid_1r9o

> <i_i_glide_lignum>
96

> <i_i_glide_rotatable_bonds>
5

> <r_i_docking_score>
-7.88319641257735

> <r_i_glide_ligand_efficiency>
-0.394159820628867

> <r_i_glide_ligand_efficiency_sa>
-1.06991435980049

> <r_i_glide_ligand_efficiency_ln>
-1.97290405684905

> <r_i_glide_gscore>
-7.88319641257735

> <r_i_glide_lipo>
-3.93446637071041

> <r_i_glide_hbond>
-0.422895957565056

> <r_i_glide_metal>
0

> <r_i_glide_rewards>
-1.79270422212239

> <r_i_glide_evdw>
-29.6488037109375

> <r_i_glide_ecoul>
-4.95510816574097

> <r_i_glide_erotb>
0.492576548228531

> <r_i_glide_esite>
0

> <r_i_glide_emodel>
-48.071234162994

> <r_i_glide_energy>
-34.6039118766785

> <r_i_glide_einternal>
5.0207839012146

> <i_i_glide_confnum>
6

> <i_i_glide_posenum>
94

> <r_i_glide_eff_state_penalty>
0

> <s_user_duplicate_titles>
CHEMBL3397_lig65

> <s_m_subgroup_title>
dock_pv

> <s_m_subgroupid>
dock_pv

> <b_m_subgroup_collapsed>
1

$$$$
CHEMBL3397_lig31
                    3D
 Schrodinger Suite 2021-1.
 50 52  0  0  1  0            999 V2000
    6.2820   32.7723   -3.4792 N   0  0  0  0  0  0
    8.4553   33.5019   -2.6389 C   0  0  0  0  0  0
    7.5178   33.2189   -3.7809 C   0  0  0  0  0  0
    8.5281   34.7941   -2.1136 C   0  0  0  0  0  0
    9.2388   32.4959   -2.0640 C   0  0  0  0  0  0
    9.4390   35.1320   -1.1097 C   0  0  0  0  0  0
   10.2763   34.1263   -0.6034 C   0  0  0  0  0  0
    5.7651   32.6176   -2.1232 C   0  0  0  0  0  0
   10.1546   32.8183   -1.0733 C   0  0  0  0  0  0
    4.2936   32.4172   -2.3535 C   0  0  0  0  0  0
    5.2895   32.4825   -4.5111 C   0  0  0  0  0  0
    4.0241   32.3280   -3.7127 C   0  0  0  0  0  0
    7.9010   33.3951   -4.9357 O   0  0  0  0  0  0
    3.2622   32.3120   -1.4248 C   0  0  0  0  0  0
    2.7232   32.1093   -4.1528 C   0  0  0  0  0  0
    9.4353   36.5685   -0.5601 C   0  0  0  0  0  0
    1.9487   32.0918   -1.8475 C   0  0  0  0  0  0
    9.1004   31.1750   -2.3952 O   0  0  0  0  0  0
   11.1010   34.3750    0.4590 O   0  0  0  0  0  0
    1.6965   31.9750   -3.2204 C   0  0  0  0  0  0
   -1.2990   34.0788   -1.1410 N   0  0  0  0  0  0
    0.9843   31.9750   -0.8684 O   0  0  0  0  0  0
   -1.1130   32.8878   -1.9411 C   0  0  0  0  0  0
   10.7850   37.2861   -0.7563 C   0  0  0  0  0  0
    8.9415   36.6369    0.8994 C   0  0  0  0  0  0
   -0.3895   31.7354   -1.1993 C   0  0  0  0  0  0
    7.8401   35.5507   -2.4518 H   0  0  0  0  0  0
    6.2307   31.7715   -1.6158 H   0  0  0  0  0  0
    5.9807   33.5100   -1.5410 H   0  0  0  0  0  0
   10.7010   32.0096   -0.6270 H   0  0  0  0  0  0
    5.2304   33.2915   -5.2414 H   0  0  0  0  0  0
    5.5556   31.5753   -5.0544 H   0  0  0  0  0  0
    3.4854   32.3825   -0.3708 H   0  0  0  0  0  0
    2.5011   32.0155   -5.2059 H   0  0  0  0  0  0
    8.7115   37.1432   -1.1411 H   0  0  0  0  0  0
    8.4532   31.0234   -3.0873 H   0  0  0  0  0  0
   11.3906   33.5939    0.9447 H   0  0  0  0  0  0
    0.7096   31.7451   -3.5797 H   0  0  0  0  0  0
   -1.7959   33.8496   -0.2857 H   0  0  0  0  0  0
   -0.3976   34.4254   -0.8424 H   0  0  0  0  0  0
   -0.5679   33.2004   -2.8274 H   0  0  0  0  0  0
   -2.0958   32.5482   -2.2696 H   0  0  0  0  0  0
   11.1214   37.2182   -1.7912 H   0  0  0  0  0  0
   11.5674   36.8725   -0.1199 H   0  0  0  0  0  0
   10.7011   38.3464   -0.5152 H   0  0  0  0  0  0
    7.9730   36.1479    1.0130 H   0  0  0  0  0  0
    9.6342   36.1618    1.5939 H   0  0  0  0  0  0
    8.8236   37.6688    1.2274 H   0  0  0  0  0  0
   -0.4589   30.8163   -1.7835 H   0  0  0  0  0  0
   -0.9106   31.5220   -0.2666 H   0  0  0  0  0  0
  1  3  1  0  0  0
  1  8  1  0  0  0
  1 11  1  0  0  0
  2  3  1  0  0  0
  2  4  2  0  0  0
  2  5  1  0  0  0
  3 13  2  0  0  0
  4  6  1  0  0  0
  4 27  1  0  0  0
  5  9  2  0  0  0
  5 18  1  0  0  0
  6 16  1  0  0  0
  6  7  2  0  0  0
  7  9  1  0  0  0
  7 19  1  0  0  0
  8 10  1  0  0  0
  8 28  1  0  0  0
  8 29  1  0  0  0
  9 30  1  0  0  0
 10 14  1  0  0  0
 10 12  2  0  0  0
 11 12  1  0  0  0
 11 31  1  0  0  0
 11 32  1  0  0  0
 12 15  1  0  0  0
 14 17  2  0  0  0
 14 33  1  0  0  0
 15 20  2  0  0  0
 15 34  1  0  0  0
 16 24  1  0  0  0
 16 25  1  0  0  0
 16 35  1  0  0  0
 17 22  1  0  0  0
 17 20  1  0  0  0
 18 36  1  0  0  0
 19 37  1  0  0  0
 20 38  1  0  0  0
 21 23  1  0  0  0
 21 39  1  0  0  0
 21 40  1  0  0  0
 22 26  1  0  0  0
 23 26  1  0  0  0
 23 41  1  0  0  0
 23 42  1  0  0  0
 24 43  1  0  0  0
 24 44  1  0  0  0
 24 45  1  0  0  0
 25 46  1  0  0  0
 25 47  1  0  0  0
 25 48  1  0  0  0
 26 49  1  0  0  0
 26 50  1  0  0  0
M  END
> <s_m_entry_id>
35867

> <s_m_entry_name>
dock_pv.23

> <s_m_Source_Path>
/home/csk/Desktop/cluster/DUD-E-result/cp2c9

> <s_m_Source_File>
dock_pv.maegz

> <i_m_Source_File_Index>
23

> <chembl_id>
CHEMBL1215745

> <chembl_pref_name>
None

> <i_lp_mmshare_version>
53161

> <i_f3d_flags>
0

> <r_lp_tautomer_probability>
0.999999999898

> <s_lp_Force_Field>
OPLS_2005

> <r_lp_Energy>
41.681917

> <b_lp_Chiralities_Consistent>
1

> <s_lp_Variant>
CHEMBL3397_lig31-1

> <s_i_glide_gridfile>
glide-grid_1r9o

> <i_i_glide_lignum>
52

> <i_i_glide_rotatable_bonds>
8

> <r_i_docking_score>
-7.8415185939276

> <r_i_glide_ligand_efficiency>
-0.301596868997215

> <r_i_glide_ligand_efficiency_sa>
-0.893479537677876

> <r_i_glide_ligand_efficiency_ln>
-1.84155491166275

> <r_i_glide_gscore>
-7.8415185939276

> <r_i_glide_lipo>
-4.09178104879565

> <r_i_glide_hbond>
-0.276795251448499

> <r_i_glide_metal>
0

> <r_i_glide_rewards>
-1.64592047981638

> <r_i_glide_evdw>
-37.4989700317383

> <r_i_glide_ecoul>
-3.69671082496643

> <r_i_glide_erotb>
0.602433311464802

> <r_i_glide_esite>
0

> <r_i_glide_emodel>
-54.8981073383296

> <r_i_glide_energy>
-41.1956808567047

> <r_i_glide_einternal>
6.13202142715454

> <i_i_glide_confnum>
22

> <i_i_glide_posenum>
4

> <r_i_glide_eff_state_penalty>
0

> <s_user_duplicate_titles>
CHEMBL3397_lig31

> <s_m_subgroup_title>
dock_pv

> <s_m_subgroupid>
dock_pv

> <b_m_subgroup_collapsed>
1

$$$$
CHEMBL3397_lig158
                    3D
 Schrodinger Suite 2021-1.
 32 34  0  0  1  0            999 V2000
    3.5010   30.5853   -3.5371 O   0  0  0  0  0  0
    6.2217   34.7745   -5.7252 O   0  0  0  0  0  0
    3.5012   34.6946   -5.9409 O   0  0  0  0  0  0
    5.5537   31.7780   -3.6976 C   0  0  0  0  0  0
    6.2673   32.8702   -4.2463 C   0  0  0  0  0  0
    3.2809   32.9138   -4.2524 C   0  0  2  0  0  0
    4.0618   31.6414   -3.8271 C   0  0  0  0  0  0
    5.6077   33.9074   -5.0982 C   0  0  0  0  0  0
    4.0429   33.8917   -5.1787 C   0  0  0  0  0  0
    2.7756   33.6978   -2.9928 C   0  0  0  0  0  0
    6.2723   30.7569   -3.0521 C   0  0  0  0  0  0
    7.6513   32.9587   -4.0340 C   0  0  0  0  0  0
    1.3562   33.3733   -2.5253 C   0  0  0  0  0  0
    7.6457   30.8583   -2.8576 C   0  0  0  0  0  0
    8.3294   31.9740   -3.3237 C   0  0  0  0  0  0
    1.0405   32.1110   -2.0115 C   0  0  0  0  0  0
    0.3775   34.3734   -2.5470 C   0  0  0  0  0  0
   -0.2421   31.8467   -1.5393 C   0  0  0  0  0  0
   -0.8954   34.1204   -2.0416 C   0  0  0  0  0  0
   -1.2003   32.8571   -1.5413 C   0  0  0  0  0  0
    2.4193   32.5773   -4.8295 H   0  0  0  0  0  0
    2.8267   34.7793   -3.1469 H   0  0  0  0  0  0
    3.4373   33.5391   -2.1383 H   0  0  0  0  0  0
    5.7676   29.8839   -2.6600 H   0  0  0  0  0  0
    8.2191   33.7911   -4.4267 H   0  0  0  0  0  0
    8.1776   30.0741   -2.3410 H   0  0  0  0  0  0
    9.3934   32.0586   -3.1600 H   0  0  0  0  0  0
    1.7846   31.3337   -1.9547 H   0  0  0  0  0  0
    0.6042   35.3569   -2.9330 H   0  0  0  0  0  0
   -0.4851   30.8721   -1.1427 H   0  0  0  0  0  0
   -1.6445   34.8985   -2.0421 H   0  0  0  0  0  0
   -2.1859   32.6611   -1.1449 H   0  0  0  0  0  0
  1  7  2  0  0  0
  2  8  2  0  0  0
  3  9  2  0  0  0
  4  5  2  0  0  0
  4 11  1  0  0  0
  4  7  1  0  0  0
  5  8  1  0  0  0
  5 12  1  0  0  0
  6  9  1  0  0  0
  6  7  1  0  0  0
  6 10  1  0  0  0
  6 21  1  0  0  0
  8  9  1  0  0  0
 10 13  1  0  0  0
 10 22  1  0  0  0
 10 23  1  0  0  0
 11 14  2  0  0  0
 11 24  1  0  0  0
 12 15  2  0  0  0
 12 25  1  0  0  0
 13 16  2  0  0  0
 13 17  1  0  0  0
 14 15  1  0  0  0
 14 26  1  0  0  0
 15 27  1  0  0  0
 16 18  1  0  0  0
 16 28  1  0  0  0
 17 19  2  0  0  0
 17 29  1  0  0  0
 18 20  2  0  0  0
 18 30  1  0  0  0
 19 20  1  0  0  0
 19 31  1  0  0  0
 20 32  1  0  0  0
M  END
> <s_m_entry_id>
35868

> <s_m_entry_name>
dock_pv.24

> <s_m_Source_Path>
/home/csk/Desktop/cluster/DUD-E-result/cp2c9

> <s_m_Source_File>
dock_pv.maegz

> <i_m_Source_File_Index>
24

> <chembl_id>
CHEMBL1317916

> <chembl_pref_name>
None

> <i_lp_mmshare_version>
53161

> <i_f3d_flags>
0

> <r_lp_tautomer_probability>
0.818181818181818

> <s_lp_Force_Field>
OPLS_2005

> <r_lp_Energy>
29.737896

> <b_lp_Chiralities_Consistent>
1

> <s_lp_Variant>
CHEMBL3397_lig158-2

> <s_i_glide_gridfile>
glide-grid_1r9o

> <i_i_glide_lignum>
200

> <i_i_glide_rotatable_bonds>
2

> <r_i_docking_score>
-7.83413678425948

> <r_i_glide_ligand_efficiency>
-0.391706839212974

> <r_i_glide_ligand_efficiency_sa>
-1.06325594383866

> <r_i_glide_ligand_efficiency_ln>
-1.96062604997592

> <r_i_glide_gscore>
-7.83413678425948

> <r_i_glide_lipo>
-3.72771567412149

> <r_i_glide_hbond>
0

> <r_i_glide_metal>
0

> <r_i_glide_rewards>
-2.76624756858754

> <r_i_glide_evdw>
-36.5495758056641

> <r_i_glide_ecoul>
-0.144567385315895

> <r_i_glide_erotb>
0.50899035653014

> <r_i_glide_esite>
0

> <r_i_glide_emodel>
-51.4279408260989

> <r_i_glide_energy>
-36.69414319098

> <r_i_glide_einternal>
1.75769650936127

> <i_i_glide_confnum>
1

> <i_i_glide_posenum>
44

> <r_i_glide_eff_state_penalty>
0

> <s_user_duplicate_titles>
CHEMBL3397_lig158

> <s_m_subgroup_title>
dock_pv

> <s_m_subgroupid>
dock_pv

> <b_m_subgroup_collapsed>
1

$$$$
CHEMBL3397_lig100
                    3D
 Schrodinger Suite 2021-1.
 40 44  0  0  1  0            999 V2000
    8.7075   35.5749   -0.3501 S   0  0  0  0  0  0
    8.9605   32.0113   -2.6355 O   0  0  0  0  0  0
    2.0943   32.4601   -4.3190 O   0  0  0  0  0  0
    6.7603   32.0767   -3.3789 N   0  0  0  0  0  0
    6.7191   34.7751   -2.7409 N   0  0  0  0  0  0
    4.3923   32.2342   -4.0412 N   0  0  0  0  0  0
    3.3171   34.4133   -3.9620 N   0  0  0  0  0  0
    5.5531   32.8190   -3.6167 C   0  0  0  0  0  0
    7.9088   32.6286   -2.8273 C   0  0  0  0  0  0
    6.8431   30.7152   -3.9413 C   0  0  0  0  0  0
    5.6003   34.1850   -3.3065 C   0  0  0  0  0  0
    7.7643   34.0778   -2.5105 C   0  0  0  0  0  0
    8.8614   34.8618   -1.9401 C   0  0  0  0  0  0
    7.2744   29.5418   -3.0840 C   0  0  0  0  0  0
    5.8456   29.6382   -3.5378 C   0  0  0  0  0  0
    3.3155   33.0651   -4.1440 C   0  0  0  0  0  0
    4.4739   34.9617   -3.5410 C   0  0  0  0  0  0
   10.0004   35.3363   -2.5845 C   0  0  0  0  0  0
    1.1066   32.6924   -3.3830 C   0  0  0  0  0  0
   10.1454   36.5097   -0.5862 C   0  0  0  0  0  0
   10.7005   36.2920   -1.8372 C   0  0  0  0  0  0
    0.7020   31.6151   -2.5978 C   0  0  0  0  0  0
    0.4757   33.9368   -3.2407 C   0  0  0  0  0  0
   -0.3262   31.7688   -1.6717 C   0  0  0  0  0  0
   -0.5398   34.1002   -2.3039 C   0  0  0  0  0  0
   -0.9460   33.0099   -1.5383 C   0  0  0  0  0  0
    7.1870   30.7305   -4.9759 H   0  0  0  0  0  0
    7.9254   28.7823   -3.5163 H   0  0  0  0  0  0
    7.5006   29.7231   -2.0356 H   0  0  0  0  0  0
    5.0788   29.8687   -2.7969 H   0  0  0  0  0  0
    5.4852   28.9522   -4.3052 H   0  0  0  0  0  0
    4.4637   36.0184   -3.3307 H   0  0  0  0  0  0
   10.2679   35.0641   -3.5946 H   0  0  0  0  0  0
   10.4811   37.1943    0.1797 H   0  0  0  0  0  0
   11.5673   36.8196   -2.2013 H   0  0  0  0  0  0
    1.1773   30.6588   -2.7407 H   0  0  0  0  0  0
    0.7587   34.7707   -3.8635 H   0  0  0  0  0  0
   -0.6460   30.9343   -1.0648 H   0  0  0  0  0  0
   -1.0226   35.0593   -2.1873 H   0  0  0  0  0  0
   -1.7332   33.1336   -0.8062 H   0  0  0  0  0  0
  1 13  1  0  0  0
  1 20  1  0  0  0
  2  9  2  0  0  0
  3 16  1  0  0  0
  3 19  1  0  0  0
  4  8  1  0  0  0
  4  9  1  0  0  0
  4 10  1  0  0  0
  5 11  1  0  0  0
  5 12  2  0  0  0
  6  8  1  0  0  0
  6 16  2  0  0  0
  7 16  1  0  0  0
  7 17  2  0  0  0
  8 11  2  0  0  0
  9 12  1  0  0  0
 10 14  1  0  0  0
 10 15  1  0  0  0
 10 27  1  0  0  0
 11 17  1  0  0  0
 12 13  1  0  0  0
 13 18  2  0  0  0
 14 15  1  0  0  0
 14 28  1  0  0  0
 14 29  1  0  0  0
 15 30  1  0  0  0
 15 31  1  0  0  0
 17 32  1  0  0  0
 18 21  1  0  0  0
 18 33  1  0  0  0
 19 22  2  0  0  0
 19 23  1  0  0  0
 20 21  2  0  0  0
 20 34  1  0  0  0
 21 35  1  0  0  0
 22 24  1  0  0  0
 22 36  1  0  0  0
 23 25  2  0  0  0
 23 37  1  0  0  0
 24 26  2  0  0  0
 24 38  1  0  0  0
 25 26  1  0  0  0
 25 39  1  0  0  0
 26 40  1  0  0  0
M  END
> <s_m_entry_id>
35869

> <s_m_entry_name>
dock_pv.25

> <s_m_Source_Path>
/home/csk/Desktop/cluster/DUD-E-result/cp2c9

> <s_m_Source_File>
dock_pv.maegz

> <i_m_Source_File_Index>
25

> <chembl_id>
CHEMBL1591272

> <chembl_pref_name>
None

> <i_lp_mmshare_version>
53161

> <i_f3d_flags>
0

> <r_lp_tautomer_probability>
1

> <s_lp_Force_Field>
OPLS_2005

> <r_lp_Energy>
51.772819

> <b_lp_Chiralities_Consistent>
1

> <s_lp_Variant>
CHEMBL3397_lig100-1

> <s_i_glide_gridfile>
glide-grid_1r9o

> <i_i_glide_lignum>
138

> <i_i_glide_rotatable_bonds>
4

> <r_i_docking_score>
-7.81677918657649

> <r_i_glide_ligand_efficiency>
-0.300645353329865

> <r_i_glide_ligand_efficiency_sa>
-0.890660676257384

> <r_i_glide_ligand_efficiency_ln>
-1.83574494302296

> <r_i_glide_gscore>
-7.81677918657649

> <r_i_glide_lipo>
-4.25183031855332

> <r_i_glide_hbond>
0

> <r_i_glide_metal>
0

> <r_i_glide_rewards>
-1.86791915512514

> <r_i_glide_evdw>
-44.7665176391602

> <r_i_glide_ecoul>
-0.290023237466812

> <r_i_glide_erotb>
0.584799654679991

> <r_i_glide_esite>
0

> <r_i_glide_emodel>
-54.6677514498127

> <r_i_glide_energy>
-45.056540876627

> <r_i_glide_einternal>
12.8713388442993

> <i_i_glide_confnum>
22

> <i_i_glide_posenum>
318

> <r_i_glide_eff_state_penalty>
0

> <s_user_duplicate_titles>
CHEMBL3397_lig100

> <s_m_subgroup_title>
dock_pv

> <s_m_subgroupid>
dock_pv

> <b_m_subgroup_collapsed>
1

$$$$
CHEMBL3397_lig8
                    3D
 Schrodinger Suite 2021-1.
 42 45  0  0  1  0            999 V2000
    6.3883   32.4497   -3.1177 C   0  0  0  0  0  0
    5.2932   32.3716   -2.0351 C   0  0  0  0  0  0
    3.9207   31.9748   -2.5877 C   0  0  0  0  0  0
    3.5146   32.9167   -3.6390 N   0  0  1  0  0  0
    4.4632   32.8947   -4.7629 C   0  0  0  0  0  0
    5.8816   33.2977   -4.3039 C   0  0  0  0  0  0
   10.0782   33.2954   -1.1425 C   0  0  0  0  0  0
    9.2573   34.4006   -1.3842 C   0  0  0  0  0  0
    8.0428   34.2351   -2.0538 C   0  0  0  0  0  0
    9.6904   32.0286   -1.5805 C   0  0  0  0  0  0
    8.4968   31.8789   -2.2863 C   0  0  0  0  0  0
    7.6798   32.9698   -2.5242 C   0  0  0  0  0  0
    6.6804   31.1290   -3.5683 O   0  0  0  0  0  0
    7.8252   30.6570   -2.8627 C   0  0  0  0  0  0
    2.1555   32.6331   -4.0953 C   0  0  0  0  0  0
    1.0827   33.0573   -3.0973 C   0  0  0  0  0  0
    0.7345   34.4054   -3.0006 C   0  0  0  0  0  0
   -0.3509   34.7907   -2.2251 C   0  0  0  0  0  0
   -1.0725   33.8328   -1.5252 C   0  0  0  0  0  0
   -0.6918   32.4924   -1.5524 C   0  0  0  0  0  0
    0.3902   32.1027   -2.3409 C   0  0  0  0  0  0
   -2.1369   34.2169   -0.7884 F   0  0  0  0  0  0
    5.1912   33.3299   -1.5416 H   0  0  0  0  0  0
    5.5799   31.6643   -1.2566 H   0  0  0  0  0  0
    3.2013   32.0005   -1.7680 H   0  0  0  0  0  0
    3.9224   30.9532   -2.9730 H   0  0  0  0  0  0
    4.4640   31.9139   -5.2451 H   0  0  0  0  0  0
    4.1287   33.6094   -5.5163 H   0  0  0  0  0  0
    6.5668   33.1760   -5.1440 H   0  0  0  0  0  0
    5.9009   34.3644   -4.0771 H   0  0  0  0  0  0
   10.9966   33.4116   -0.5861 H   0  0  0  0  0  0
    9.5386   35.3781   -1.0206 H   0  0  0  0  0  0
    7.3901   35.0853   -2.1858 H   0  0  0  0  0  0
   10.3060   31.1761   -1.3458 H   0  0  0  0  0  0
    8.4720   30.1011   -3.5410 H   0  0  0  0  0  0
    7.5024   29.9725   -2.0797 H   0  0  0  0  0  0
    2.0555   31.5759   -4.3343 H   0  0  0  0  0  0
    1.9555   33.1686   -5.0257 H   0  0  0  0  0  0
    1.2808   35.1635   -3.5411 H   0  0  0  0  0  0
   -0.6370   35.8299   -2.1704 H   0  0  0  0  0  0
   -1.2483   31.7644   -0.9800 H   0  0  0  0  0  0
    0.6600   31.0596   -2.4000 H   0  0  0  0  0  0
  1 12  1  0  0  0
  1 13  1  0  0  0
  1  2  1  0  0  0
  1  6  1  0  0  0
  2  3  1  0  0  0
  2 23  1  0  0  0
  2 24  1  0  0  0
  3  4  1  0  0  0
  3 25  1  0  0  0
  3 26  1  0  0  0
  4  5  1  0  0  0
  4 15  1  0  0  0
  5  6  1  0  0  0
  5 27  1  0  0  0
  5 28  1  0  0  0
  6 29  1  0  0  0
  6 30  1  0  0  0
  7  8  2  0  0  0
  7 10  1  0  0  0
  7 31  1  0  0  0
  8  9  1  0  0  0
  8 32  1  0  0  0
  9 12  2  0  0  0
  9 33  1  0  0  0
 10 11  2  0  0  0
 10 34  1  0  0  0
 11 12  1  0  0  0
 11 14  1  0  0  0
 13 14  1  0  0  0
 14 35  1  0  0  0
 14 36  1  0  0  0
 15 16  1  0  0  0
 15 37  1  0  0  0
 15 38  1  0  0  0
 16 17  2  0  0  0
 16 21  1  0  0  0
 17 18  1  0  0  0
 17 39  1  0  0  0
 18 19  2  0  0  0
 18 40  1  0  0  0
 19 20  1  0  0  0
 19 22  1  0  0  0
 20 21  2  0  0  0
 20 41  1  0  0  0
 21 42  1  0  0  0
M  END
> <s_m_entry_id>
35870

> <s_m_entry_name>
dock_pv.26

> <s_m_Source_Path>
/home/csk/Desktop/cluster/DUD-E-result/cp2c9

> <s_m_Source_File>
dock_pv.maegz

> <i_m_Source_File_Index>
26

> <chembl_id>
CHEMBL466289

> <chembl_pref_name>
None

> <i_lp_mmshare_version>
53161

> <i_f3d_flags>
0

> <r_lp_tautomer_probability>
1

> <s_lp_Force_Field>
OPLS_2005

> <r_lp_Energy>
43.568498

> <b_lp_Chiralities_Consistent>
1

> <s_lp_Variant>
CHEMBL3397_lig8-1

> <s_i_glide_gridfile>
glide-grid_1r9o

> <i_i_glide_lignum>
10

> <i_i_glide_rotatable_bonds>
2

> <r_i_docking_score>
-7.81211225176049

> <r_i_glide_ligand_efficiency>
-0.355096011443658

> <r_i_glide_ligand_efficiency_sa>
-0.994992989198798

> <r_i_glide_ligand_efficiency_ln>
-1.90956518804824

> <r_i_glide_gscore>
-7.81211225176049

> <r_i_glide_lipo>
-4.79094918537701

> <r_i_glide_hbond>
0

> <r_i_glide_metal>
0

> <r_i_glide_rewards>
-1.49257815855756

> <r_i_glide_evdw>
-36.751823425293

> <r_i_glide_ecoul>
-0.704487979412079

> <r_i_glide_erotb>
0.414679460350548

> <r_i_glide_esite>
0

> <r_i_glide_emodel>
-53.5797681428655

> <r_i_glide_energy>
-37.456311404705

> <r_i_glide_einternal>
0.0745864138007164

> <i_i_glide_confnum>
1

> <i_i_glide_posenum>
42

> <r_i_glide_eff_state_penalty>
0

> <s_user_duplicate_titles>
CHEMBL3397_lig8

> <s_m_subgroup_title>
dock_pv

> <s_m_subgroupid>
dock_pv

> <b_m_subgroup_collapsed>
1

$$$$
CHEMBL3397_lig141
                    3D
 Schrodinger Suite 2021-1.
 37 40  0  0  1  0            999 V2000
    5.0881   32.3618   -4.3496 C   0  0  0  0  0  0
    3.1855   31.1747   -3.1571 C   0  0  0  0  0  0
    3.7469   32.4610   -3.6166 C   0  0  0  0  0  0
    3.0361   33.5990   -3.4574 C   0  0  0  0  0  0
    1.6955   33.6056   -2.8295 C   0  0  0  0  0  0
    0.9375   34.7515   -2.5421 C   0  0  0  0  0  0
   -0.3184   34.6323   -1.9420 C   0  0  0  0  0  0
   -0.8279   33.3747   -1.6159 C   0  0  0  0  0  0
   -0.0808   32.2293   -1.8910 C   0  0  0  0  0  0
    1.1752   32.3493   -2.4868 C   0  0  0  0  0  0
    1.8661   31.1757   -2.7409 O   0  0  0  0  0  0
    3.7400   30.0780   -3.1411 O   0  0  0  0  0  0
    3.5001   34.8117   -3.8671 O   0  0  0  0  0  0
    7.0251   31.1348   -3.1856 C   0  0  0  0  0  0
    6.3194   32.4191   -3.4413 C   0  0  0  0  0  0
    6.8208   33.5704   -2.9484 C   0  0  0  0  0  0
    8.0656   33.6138   -2.1667 C   0  0  0  0  0  0
    8.6329   34.7836   -1.6428 C   0  0  0  0  0  0
    9.8317   34.7223   -0.9335 C   0  0  0  0  0  0
   10.4627   33.4927   -0.7411 C   0  0  0  0  0  0
    9.9039   32.3229   -1.2523 C   0  0  0  0  0  0
    8.7097   32.3866   -1.9649 C   0  0  0  0  0  0
    8.1993   31.1938   -2.4513 O   0  0  0  0  0  0
    6.7006   30.0059   -3.5463 O   0  0  0  0  0  0
    6.2206   34.7749   -3.1409 O   0  0  0  0  0  0
    5.1583   33.1868   -5.0610 H   0  0  0  0  0  0
    5.1061   31.4809   -4.9954 H   0  0  0  0  0  0
    1.3071   35.7428   -2.7549 H   0  0  0  0  0  0
   -0.8933   35.5188   -1.7170 H   0  0  0  0  0  0
   -1.7941   33.2881   -1.1389 H   0  0  0  0  0  0
   -0.4727   31.2556   -1.6359 H   0  0  0  0  0  0
    2.8517   35.4844   -3.6498 H   0  0  0  0  0  0
    8.1501   35.7400   -1.7823 H   0  0  0  0  0  0
   10.2589   35.6243   -0.5197 H   0  0  0  0  0  0
   11.3753   33.4415   -0.1664 H   0  0  0  0  0  0
   10.3885   31.3719   -1.0878 H   0  0  0  0  0  0
    5.3333   34.6392   -3.4954 H   0  0  0  0  0  0
  1  3  1  0  0  0
  1 15  1  0  0  0
  1 26  1  0  0  0
  1 27  1  0  0  0
  2  3  1  0  0  0
  2 11  1  0  0  0
  2 12  2  0  0  0
  3  4  2  0  0  0
  4  5  1  0  0  0
  4 13  1  0  0  0
  5  6  1  0  0  0
  5 10  2  0  0  0
  6  7  2  0  0  0
  6 28  1  0  0  0
  7  8  1  0  0  0
  7 29  1  0  0  0
  8  9  2  0  0  0
  8 30  1  0  0  0
  9 10  1  0  0  0
  9 31  1  0  0  0
 10 11  1  0  0  0
 13 32  1  0  0  0
 14 15  1  0  0  0
 14 23  1  0  0  0
 14 24  2  0  0  0
 15 16  2  0  0  0
 16 17  1  0  0  0
 16 25  1  0  0  0
 17 18  1  0  0  0
 17 22  2  0  0  0
 18 19  2  0  0  0
 18 33  1  0  0  0
 19 20  1  0  0  0
 19 34  1  0  0  0
 20 21  2  0  0  0
 20 35  1  0  0  0
 21 22  1  0  0  0
 21 36  1  0  0  0
 22 23  1  0  0  0
 25 37  1  0  0  0
M  END
> <s_m_entry_id>
35871

> <s_m_entry_name>
dock_pv.27

> <s_m_Source_Path>
/home/csk/Desktop/cluster/DUD-E-result/cp2c9

> <s_m_Source_File>
dock_pv.maegz

> <i_m_Source_File_Index>
27

> <chembl_id>
CHEMBL1466

> <chembl_pref_name>
DICUMAROL

> <i_lp_mmshare_version>
53161

> <i_f3d_flags>
0

> <r_lp_tautomer_probability>
1

> <s_lp_Force_Field>
OPLS_2005

> <r_lp_Energy>
21.968277

> <b_lp_Chiralities_Consistent>
1

> <s_lp_Variant>
CHEMBL3397_lig141-1

> <s_i_glide_gridfile>
glide-grid_1r9o

> <i_i_glide_lignum>
181

> <i_i_glide_rotatable_bonds>
4

> <r_i_docking_score>
-7.79303968601391

> <r_i_glide_ligand_efficiency>
-0.311721587440557

> <r_i_glide_ligand_efficiency_sa>
-0.911479450082081

> <r_i_glide_ligand_efficiency_ln>
-1.84718394413928

> <r_i_glide_gscore>
-7.79303968601391

> <r_i_glide_lipo>
-4.70569763610186

> <r_i_glide_hbond>
0

> <r_i_glide_metal>
0

> <r_i_glide_rewards>
-1.22133008204594

> <r_i_glide_evdw>
-42.450252532959

> <r_i_glide_ecoul>
-0.516400873661041

> <r_i_glide_erotb>
0.333960789830994

> <r_i_glide_esite>
0

> <r_i_glide_emodel>
-60.9009443335223

> <r_i_glide_energy>
-42.96665340662

> <r_i_glide_einternal>
1.78030800819397

> <i_i_glide_confnum>
1

> <i_i_glide_posenum>
399

> <r_i_glide_eff_state_penalty>
0

> <s_user_duplicate_titles>
CHEMBL3397_lig141,66411

> <s_m_subgroup_title>
dock_pv

> <s_m_subgroupid>
dock_pv

> <b_m_subgroup_collapsed>
1

$$$$
CHEMBL3397_lig83
                    3D
 Schrodinger Suite 2021-1.
 40 41  0  0  1  0            999 V2000
    6.1332   32.0130   -2.1550 O   0  0  0  0  0  0
    5.6268   31.0287   -3.0868 N   0  0  2  0  0  0
    9.4027   32.0134   -1.9761 N   0  0  0  0  0  0
    5.7883   33.7180   -3.9677 C   0  0  0  0  0  0
    5.7270   33.3528   -2.4818 C   0  0  0  0  0  0
    1.0117   32.6245   -2.2260 C   0  0  0  0  0  0
    4.4792   30.3684   -2.4533 C   0  0  0  0  0  0
    4.6014   33.8791   -4.6889 C   0  0  0  0  0  0
    7.0211   33.9031   -4.5993 C   0  0  0  0  0  0
    2.2229   31.8404   -2.4080 C   0  0  0  0  0  0
    6.6912   30.0292   -3.2462 C   0  0  0  0  0  0
    3.2491   31.1826   -2.4854 C   0  0  0  0  0  0
   -0.1458   32.0072   -1.7454 C   0  0  0  0  0  0
    1.0189   33.9936   -2.5049 C   0  0  0  0  0  0
    4.6448   34.2234   -6.0356 C   0  0  0  0  0  0
    7.0648   34.2463   -5.9491 C   0  0  0  0  0  0
    5.8756   34.4048   -6.6593 C   0  0  0  0  0  0
   -1.2964   32.7648   -1.5406 C   0  0  0  0  0  0
   -0.1326   34.7483   -2.2964 C   0  0  0  0  0  0
    8.0584   30.5659   -3.7177 C   0  0  0  0  0  0
   -1.2834   34.1315   -1.8116 C   0  0  0  0  0  0
    8.8094   31.3772   -2.7411 C   0  0  0  0  0  0
    4.7335   33.5451   -2.0759 H   0  0  0  0  0  0
    6.3842   34.0334   -1.9422 H   0  0  0  0  0  0
    4.7009   30.1072   -1.4185 H   0  0  0  0  0  0
    4.2404   29.4444   -2.9813 H   0  0  0  0  0  0
    3.6453   33.7333   -4.2108 H   0  0  0  0  0  0
    7.9402   33.7841   -4.0440 H   0  0  0  0  0  0
    6.8380   29.4488   -2.3344 H   0  0  0  0  0  0
    6.3439   29.3083   -3.9880 H   0  0  0  0  0  0
   -0.1585   30.9503   -1.5190 H   0  0  0  0  0  0
    1.9109   34.4831   -2.8672 H   0  0  0  0  0  0
    3.7298   34.3508   -6.5948 H   0  0  0  0  0  0
    8.0130   34.3953   -6.4439 H   0  0  0  0  0  0
    5.9008   34.6839   -7.7015 H   0  0  0  0  0  0
   -2.1901   32.2994   -1.1528 H   0  0  0  0  0  0
   -0.1304   35.8095   -2.4957 H   0  0  0  0  0  0
    8.7003   29.7143   -3.9426 H   0  0  0  0  0  0
    7.9539   31.1333   -4.6427 H   0  0  0  0  0  0
   -2.1719   34.7197   -1.6372 H   0  0  0  0  0  0
  1  2  1  0  0  0
  1  5  1  0  0  0
  2  7  1  0  0  0
  2 11  1  0  0  0
  3 22  3  0  0  0
  4  5  1  0  0  0
  4  8  2  0  0  0
  4  9  1  0  0  0
  5 23  1  0  0  0
  5 24  1  0  0  0
  6 10  1  0  0  0
  6 13  2  0  0  0
  6 14  1  0  0  0
  7 12  1  0  0  0
  7 25  1  0  0  0
  7 26  1  0  0  0
  8 15  1  0  0  0
  8 27  1  0  0  0
  9 16  2  0  0  0
  9 28  1  0  0  0
 10 12  3  0  0  0
 11 20  1  0  0  0
 11 29  1  0  0  0
 11 30  1  0  0  0
 13 18  1  0  0  0
 13 31  1  0  0  0
 14 19  2  0  0  0
 14 32  1  0  0  0
 15 17  2  0  0  0
 15 33  1  0  0  0
 16 17  1  0  0  0
 16 34  1  0  0  0
 17 35  1  0  0  0
 18 21  2  0  0  0
 18 36  1  0  0  0
 19 21  1  0  0  0
 19 37  1  0  0  0
 20 22  1  0  0  0
 20 38  1  0  0  0
 20 39  1  0  0  0
 21 40  1  0  0  0
M  END
> <s_m_entry_id>
35872

> <s_m_entry_name>
dock_pv.28

> <s_m_Source_Path>
/home/csk/Desktop/cluster/DUD-E-result/cp2c9

> <s_m_Source_File>
dock_pv.maegz

> <i_m_Source_File_Index>
28

> <chembl_id>
CHEMBL1599647

> <chembl_pref_name>
None

> <i_lp_mmshare_version>
53161

> <i_f3d_flags>
0

> <r_lp_tautomer_probability>
1

> <s_lp_Force_Field>
OPLS_2005

> <r_lp_Energy>
13.856264

> <b_lp_Chiralities_Consistent>
1

> <s_lp_Variant>
CHEMBL3397_lig83-1

> <s_i_glide_gridfile>
glide-grid_1r9o

> <i_i_glide_lignum>
121

> <i_i_glide_rotatable_bonds>
8

> <r_i_docking_score>
-7.75822778914241

> <r_i_glide_ligand_efficiency>
-0.352646717688292

> <r_i_glide_ligand_efficiency_sa>
-0.988129971771002

> <r_i_glide_ligand_efficiency_ln>
-1.89639385990085

> <r_i_glide_gscore>
-7.75822778914241

> <r_i_glide_lipo>
-4.80254467005105

> <r_i_glide_hbond>
0

> <r_i_glide_metal>
0

> <r_i_glide_rewards>
-2.17903144311139

> <r_i_glide_evdw>
-38.5433120727539

> <r_i_glide_ecoul>
0.464905321598053

> <r_i_glide_erotb>
1.08077812941801

> <r_i_glide_esite>
0

> <r_i_glide_emodel>
-53.7389878511681

> <r_i_glide_energy>
-38.0784067511559

> <r_i_glide_einternal>
2.17838263511658

> <i_i_glide_confnum>
94

> <i_i_glide_posenum>
302

> <r_i_glide_eff_state_penalty>
0

> <s_user_duplicate_titles>
CHEMBL3397_lig83

> <s_m_subgroup_title>
dock_pv

> <s_m_subgroupid>
dock_pv

> <b_m_subgroup_collapsed>
1

$$$$
CHEMBL3397_lig19
                    3D
 Schrodinger Suite 2021-1.
 50 55  0  0  1  0            999 V2000
   10.9632   37.2134   -0.8562 C   0  0  0  0  0  0
   11.5004   37.8442   -1.9330 N   0  0  0  0  0  0
   11.4163   37.2317   -3.1363 C   0  0  0  0  0  0
   10.7964   35.9952   -3.3014 C   0  0  0  0  0  0
   10.2302   35.3465   -2.1906 C   0  0  0  0  0  0
   10.3255   35.9739   -0.9414 C   0  0  0  0  0  0
    9.4131   34.1175   -2.3604 C   0  0  0  0  0  0
    8.5183   34.1032   -3.4228 C   0  0  0  0  0  0
    8.4969   32.0098   -1.5410 C   0  0  0  0  0  0
    9.4329   33.0484   -1.4604 C   0  0  0  0  0  0
    6.3934   31.2986   -2.7679 N   0  0  0  0  0  0
    7.4849   32.0881   -2.5193 C   0  0  0  0  0  0
    7.5211   33.1418   -3.4431 C   0  0  0  0  0  0
    6.4253   32.9844   -4.2635 N   0  0  0  0  0  0
    5.7589   31.8546   -3.7880 C   0  0  0  0  0  0
    4.4602   31.2181   -4.3214 C   0  0  2  0  0  0
    3.0239   33.0619   -5.1831 O   0  0  0  0  0  0
    3.7247   31.8634   -5.5339 C   0  0  0  0  0  0
    2.3167   32.9676   -4.0058 C   0  0  0  0  0  0
    2.6165   32.0055   -3.0299 C   0  0  0  0  0  0
    1.8873   31.9705   -1.8435 C   0  0  0  0  0  0
    0.8531   32.8820   -1.6372 C   0  0  0  0  0  0
    0.5651   33.8507   -2.5983 C   0  0  0  0  0  0
    1.2994   33.8962   -3.7825 C   0  0  0  0  0  0
    6.1319   33.9121   -5.3690 C   0  0  0  0  0  0
    6.9247   33.6126   -6.6681 C   0  0  0  0  0  0
    8.1734   34.4256   -6.9401 C   0  0  0  0  0  0
    8.2886   32.9416   -6.6472 C   0  0  0  0  0  0
    3.5297   30.9939   -3.2496 O   0  0  0  0  0  0
   11.0288   37.7398    0.0858 H   0  0  0  0  0  0
   11.8255   37.7654   -3.9825 H   0  0  0  0  0  0
   10.7211   35.5789   -4.2947 H   0  0  0  0  0  0
    9.8762   35.5344   -0.0622 H   0  0  0  0  0  0
    8.5422   34.8694   -4.1630 H   0  0  0  0  0  0
    8.5118   31.2328   -0.7867 H   0  0  0  0  0  0
   10.1551   33.0422   -0.6567 H   0  0  0  0  0  0
    4.7449   30.2129   -4.6281 H   0  0  0  0  0  0
    2.9865   31.1754   -5.9268 H   0  0  0  0  0  0
    4.4150   32.0447   -6.3587 H   0  0  0  0  0  0
    2.0928   31.2130   -1.1026 H   0  0  0  0  0  0
    0.2551   32.8196   -0.7454 H   0  0  0  0  0  0
   -0.2359   34.5566   -2.4332 H   0  0  0  0  0  0
    1.0579   34.6375   -4.5266 H   0  0  0  0  0  0
    5.0738   33.9893   -5.5568 H   0  0  0  0  0  0
    6.3677   34.9186   -5.0225 H   0  0  0  0  0  0
    6.2712   33.3902   -7.5153 H   0  0  0  0  0  0
    8.3772   34.7875   -7.9390 H   0  0  0  0  0  0
    8.4854   35.1720   -6.2163 H   0  0  0  0  0  0
    8.7006   32.5901   -5.7050 H   0  0  0  0  0  0
    8.5694   32.2613   -7.4462 H   0  0  0  0  0  0
  1  6  1  0  0  0
  1  2  2  0  0  0
  1 30  1  0  0  0
  2  3  1  0  0  0
  3  4  2  0  0  0
  3 31  1  0  0  0
  4  5  1  0  0  0
  4 32  1  0  0  0
  5  6  2  0  0  0
  5  7  1  0  0  0
  6 33  1  0  0  0
  7  8  2  0  0  0
  7 10  1  0  0  0
  8 13  1  0  0  0
  8 34  1  0  0  0
  9 12  1  0  0  0
  9 10  2  0  0  0
  9 35  1  0  0  0
 10 36  1  0  0  0
 11 15  2  0  0  0
 11 12  1  0  0  0
 12 13  2  0  0  0
 13 14  1  0  0  0
 14 15  1  0  0  0
 14 25  1  0  0  0
 15 16  1  0  0  0
 16 29  1  0  0  0
 16 18  1  0  0  0
 16 37  1  0  0  0
 17 19  1  0  0  0
 17 18  1  0  0  0
 18 38  1  0  0  0
 18 39  1  0  0  0
 19 20  2  0  0  0
 19 24  1  0  0  0
 20 29  1  0  0  0
 20 21  1  0  0  0
 21 22  2  0  0  0
 21 40  1  0  0  0
 22 23  1  0  0  0
 22 41  1  0  0  0
 23 24  2  0  0  0
 23 42  1  0  0  0
 24 43  1  0  0  0
 25 26  1  0  0  0
 25 44  1  0  0  0
 25 45  1  0  0  0
 26 27  1  0  0  0
 26 28  1  0  0  0
 26 46  1  0  0  0
 27 28  1  0  0  0
 27 47  1  0  0  0
 27 48  1  0  0  0
 28 49  1  0  0  0
 28 50  1  0  0  0
M  END
> <s_m_entry_id>
35873

> <s_m_entry_name>
dock_pv.29

> <s_m_Source_Path>
/home/csk/Desktop/cluster/DUD-E-result/cp2c9

> <s_m_Source_File>
dock_pv.maegz

> <i_m_Source_File_Index>
29

> <chembl_id>
CHEMBL1080402

> <chembl_pref_name>
None

> <i_lp_mmshare_version>
53161

> <i_f3d_flags>
0

> <r_lp_tautomer_probability>
1

> <s_lp_Force_Field>
OPLS_2005

> <r_lp_Energy>
29.443782

> <b_lp_Chiralities_Consistent>
1

> <s_lp_Variant>
CHEMBL3397_lig19-2

> <s_i_glide_gridfile>
glide-grid_1r9o

> <i_i_glide_lignum>
32

> <i_i_glide_rotatable_bonds>
4

> <r_i_docking_score>
-7.73994848643178

> <r_i_glide_ligand_efficiency>
-0.266894775394199

> <r_i_glide_ligand_efficiency_sa>
-0.819985308210866

> <r_i_glide_ligand_efficiency_ln>
-1.77225193523374

> <r_i_glide_gscore>
-7.73994848643178

> <r_i_glide_lipo>
-4.63975616812301

> <r_i_glide_hbond>
-0.0540429792269942

> <r_i_glide_metal>
0

> <r_i_glide_rewards>
-1.67689817197668

> <r_i_glide_evdw>
-34.4983825683594

> <r_i_glide_ecoul>
-1.15331816673279

> <r_i_glide_erotb>
0.528665686322789

> <r_i_glide_esite>
0

> <r_i_glide_emodel>
-40.0528325864116

> <r_i_glide_energy>
-35.6517007350922

> <r_i_glide_einternal>
7.83208799362183

> <i_i_glide_confnum>
141

> <i_i_glide_posenum>
246

> <r_i_glide_eff_state_penalty>
0

> <s_user_duplicate_titles>
CHEMBL3397_lig19

> <s_m_subgroup_title>
dock_pv

> <s_m_subgroupid>
dock_pv

> <b_m_subgroup_collapsed>
1

$$$$
CHEMBL3397_lig120
                    3D
 Schrodinger Suite 2021-1.
 54 57  0  0  1  0            999 V2000
   10.6999   33.1751   -0.8383 O   0  0  0  0  0  0
    9.0456   33.5732   -2.3672 N   0  0  0  0  0  0
    4.4951   32.5302   -4.8388 N   0  0  1  0  0  0
   10.3024   36.3957   -1.7094 N   0  0  0  0  0  0
    0.5094   33.4882   -1.9409 N   0  0  0  0  0  0
    6.8340   32.4307   -3.9277 C   0  0  1  0  0  0
    9.8951   33.9387   -1.3681 C   0  0  0  0  0  0
    5.4895   31.6859   -4.1496 C   0  0  0  0  0  0
    6.6766   33.6906   -3.0365 C   0  0  0  0  0  0
    7.8036   31.5708   -3.0879 C   0  0  0  0  0  0
    9.9022   35.3122   -0.9393 C   0  0  0  0  0  0
    7.3387   32.6929   -5.3780 C   0  0  0  0  0  0
    8.0058   34.4736   -2.9308 C   0  0  0  0  0  0
    9.1994   32.2229   -2.9632 C   0  0  0  0  0  0
    6.3599   33.6081   -6.1270 C   0  0  0  0  0  0
    4.9521   32.9775   -6.1665 C   0  0  0  0  0  0
    9.5251   35.7928    0.3117 C   0  0  0  0  0  0
    3.1921   31.8689   -4.9170 C   0  0  0  0  0  0
   10.1973   37.5215   -0.9280 C   0  0  0  0  0  0
    9.7005   37.1749    0.3143 C   0  0  0  0  0  0
    2.2514   32.4294   -3.8669 C   0  0  0  0  0  0
   10.8492   36.3758   -3.0587 C   0  0  0  0  0  0
    1.5003   33.5748   -4.1435 C   0  0  0  0  0  0
    2.1425   31.8326   -2.6063 C   0  0  0  0  0  0
    0.6443   34.0706   -3.1583 C   0  0  0  0  0  0
    1.2570   32.3864   -1.6785 C   0  0  0  0  0  0
    5.6336   30.7756   -4.7350 H   0  0  0  0  0  0
    5.0918   31.3732   -3.1835 H   0  0  0  0  0  0
    6.2831   33.4453   -2.0475 H   0  0  0  0  0  0
    5.9333   34.3665   -3.4607 H   0  0  0  0  0  0
    7.9434   30.6080   -3.5806 H   0  0  0  0  0  0
    7.3939   31.3238   -2.1067 H   0  0  0  0  0  0
    8.3011   33.1881   -5.3818 H   0  0  0  0  0  0
    7.4979   31.7554   -5.9151 H   0  0  0  0  0  0
    7.8054   35.3432   -2.3074 H   0  0  0  0  0  0
    8.3278   34.7735   -3.9254 H   0  0  0  0  0  0
    9.6589   32.3736   -3.9406 H   0  0  0  0  0  0
    9.8136   31.5556   -2.3554 H   0  0  0  0  0  0
    6.3147   34.6124   -5.7038 H   0  0  0  0  0  0
    6.7158   33.7592   -7.1423 H   0  0  0  0  0  0
    4.2328   33.6943   -6.5654 H   0  0  0  0  0  0
    4.9487   32.1283   -6.8537 H   0  0  0  0  0  0
    9.1651   35.1924    1.1378 H   0  0  0  0  0  0
    2.7221   32.0157   -5.8923 H   0  0  0  0  0  0
    3.2858   30.7877   -4.7947 H   0  0  0  0  0  0
   10.4792   38.4910   -1.3197 H   0  0  0  0  0  0
    9.4987   37.8508    1.1318 H   0  0  0  0  0  0
   11.5796   35.5773   -3.1442 H   0  0  0  0  0  0
   11.3276   37.3294   -3.2804 H   0  0  0  0  0  0
   10.0480   36.2236   -3.7767 H   0  0  0  0  0  0
    1.5755   34.0656   -5.1027 H   0  0  0  0  0  0
    2.7257   30.9591   -2.3556 H   0  0  0  0  0  0
    0.0418   34.9490   -3.3417 H   0  0  0  0  0  0
    1.1406   31.9489   -0.6973 H   0  0  0  0  0  0
  1  7  2  0  0  0
  2  7  1  0  0  0
  2 13  1  0  0  0
  2 14  1  0  0  0
  3  8  1  0  0  0
  3 16  1  0  0  0
  3 18  1  0  0  0
  4 11  1  0  0  0
  4 19  1  0  0  0
  4 22  1  0  0  0
  5 25  2  0  0  0
  5 26  1  0  0  0
  6  8  1  0  0  0
  6  9  1  0  0  0
  6 10  1  0  0  0
  6 12  1  0  0  0
  7 11  1  0  0  0
  8 27  1  0  0  0
  8 28  1  0  0  0
  9 13  1  0  0  0
  9 29  1  0  0  0
  9 30  1  0  0  0
 10 14  1  0  0  0
 10 31  1  0  0  0
 10 32  1  0  0  0
 11 17  2  0  0  0
 12 15  1  0  0  0
 12 33  1  0  0  0
 12 34  1  0  0  0
 13 35  1  0  0  0
 13 36  1  0  0  0
 14 37  1  0  0  0
 14 38  1  0  0  0
 15 16  1  0  0  0
 15 39  1  0  0  0
 15 40  1  0  0  0
 16 41  1  0  0  0
 16 42  1  0  0  0
 17 20  1  0  0  0
 17 43  1  0  0  0
 18 21  1  0  0  0
 18 44  1  0  0  0
 18 45  1  0  0  0
 19 20  2  0  0  0
 19 46  1  0  0  0
 20 47  1  0  0  0
 21 23  2  0  0  0
 21 24  1  0  0  0
 22 48  1  0  0  0
 22 49  1  0  0  0
 22 50  1  0  0  0
 23 25  1  0  0  0
 23 51  1  0  0  0
 24 26  2  0  0  0
 24 52  1  0  0  0
 25 53  1  0  0  0
 26 54  1  0  0  0
M  END
> <s_m_entry_id>
35874

> <s_m_entry_name>
dock_pv.30

> <s_m_Source_Path>
/home/csk/Desktop/cluster/DUD-E-result/cp2c9

> <s_m_Source_File>
dock_pv.maegz

> <i_m_Source_File_Index>
30

> <chembl_id>
CHEMBL1554465

> <chembl_pref_name>
None

> <i_lp_mmshare_version>
53161

> <i_f3d_flags>
0

> <r_lp_tautomer_probability>
1

> <s_lp_Force_Field>
OPLS_2005

> <r_lp_Energy>
50.54543

> <b_lp_Chiralities_Consistent>
1

> <s_lp_Variant>
CHEMBL3397_lig120-1

> <s_i_glide_gridfile>
glide-grid_1r9o

> <i_i_glide_lignum>
158

> <i_i_glide_rotatable_bonds>
4

> <r_i_docking_score>
-7.73431113893515

> <r_i_glide_ligand_efficiency>
-0.29747350534366

> <r_i_glide_ligand_efficiency_sa>
-0.88126408907887

> <r_i_glide_ligand_efficiency_ln>
-1.81637759263412

> <r_i_glide_gscore>
-7.73431113893515

> <r_i_glide_lipo>
-4.46852886211653

> <r_i_glide_hbond>
0

> <r_i_glide_metal>
0

> <r_i_glide_rewards>
-1.84173949249336

> <r_i_glide_evdw>
-42.2871131896973

> <r_i_glide_ecoul>
0.580590844154358

> <r_i_glide_erotb>
0.614479034124899

> <r_i_glide_esite>
-0.0112547855884504

> <r_i_glide_emodel>
-56.7443042345558

> <r_i_glide_energy>
-41.7065223455429

> <r_i_glide_einternal>
8.29978656768799

> <i_i_glide_confnum>
38

> <i_i_glide_posenum>
191

> <r_i_glide_eff_state_penalty>
0

> <s_user_duplicate_titles>
CHEMBL3397_lig120

> <s_m_subgroup_title>
dock_pv

> <s_m_subgroupid>
dock_pv

> <b_m_subgroup_collapsed>
1

$$$$
CHEMBL3397_lig12
                    3D
 Schrodinger Suite 2021-1.
 46 50  0  0  1  0            999 V2000
   11.0192   36.9041   -1.2306 C   0  0  0  0  0  0
   10.7366   37.3079    0.0312 N   0  0  0  0  0  0
    9.7580   36.6522    0.6981 C   0  0  0  0  0  0
    9.0523   35.5867    0.1503 C   0  0  0  0  0  0
    9.3746   35.1498   -1.1375 C   0  0  0  0  0  0
   10.3737   35.8285   -1.8447 C   0  0  0  0  0  0
    8.5016   34.1822   -1.8298 C   0  0  0  0  0  0
    7.3685   34.7751   -2.3639 C   0  0  0  0  0  0
    7.8649   31.9938   -2.7483 C   0  0  0  0  0  0
    8.7562   32.8013   -1.9944 C   0  0  0  0  0  0
    5.7292   32.1167   -4.0999 N   0  0  0  0  0  0
    6.7376   32.6239   -3.3182 C   0  0  0  0  0  0
    6.5265   33.9992   -3.1175 C   0  0  0  0  0  0
    5.3958   34.3102   -3.8134 N   0  0  0  0  0  0
    4.9377   33.1411   -4.3444 C   0  0  0  0  0  0
    3.6654   33.1239   -5.1672 C   0  0  2  0  0  0
    2.7012   34.0724   -4.6489 O   0  0  0  0  0  0
    2.7012   31.3601   -3.8513 O   0  0  0  0  0  0
    3.0325   31.7193   -5.2000 C   0  0  0  0  0  0
    1.8678   32.2764   -3.2505 C   0  0  0  0  0  0
    1.9288   33.6323   -3.5857 C   0  0  0  0  0  0
    1.1106   34.5444   -2.9143 C   0  0  0  0  0  0
    0.2072   34.0957   -1.9492 C   0  0  0  0  0  0
    0.1217   32.7354   -1.6501 C   0  0  0  0  0  0
    0.9640   31.8282   -2.2895 C   0  0  0  0  0  0
    9.9906   32.1729   -1.3466 C   0  0  0  0  0  0
    8.1044   30.5018   -2.9656 C   0  0  0  0  0  0
   11.7588   37.4885   -1.7558 H   0  0  0  0  0  0
    9.4957   37.0289    1.6713 H   0  0  0  0  0  0
    8.2184   35.1737    0.6952 H   0  0  0  0  0  0
   10.5915   35.5684   -2.8711 H   0  0  0  0  0  0
    7.1797   35.8310   -2.2792 H   0  0  0  0  0  0
    4.9120   35.1907   -3.9068 H   0  0  0  0  0  0
    3.9155   33.4388   -6.1810 H   0  0  0  0  0  0
    2.1498   31.7313   -5.8415 H   0  0  0  0  0  0
    3.7251   30.9768   -5.5975 H   0  0  0  0  0  0
    1.1543   35.5961   -3.1420 H   0  0  0  0  0  0
   -0.4335   34.8004   -1.4385 H   0  0  0  0  0  0
   -0.5902   32.3841   -0.9161 H   0  0  0  0  0  0
    0.8949   30.7839   -2.0518 H   0  0  0  0  0  0
    9.6957   31.3285   -0.7254 H   0  0  0  0  0  0
   10.6659   31.7850   -2.1094 H   0  0  0  0  0  0
   10.5484   32.8586   -0.7098 H   0  0  0  0  0  0
    7.3762   29.9135   -2.4040 H   0  0  0  0  0  0
    7.9795   30.2619   -4.0207 H   0  0  0  0  0  0
    9.1006   30.1628   -2.7059 H   0  0  0  0  0  0
  1  2  2  0  0  0
  1  6  1  0  0  0
  1 28  1  0  0  0
  2  3  1  0  0  0
  3  4  2  0  0  0
  3 29  1  0  0  0
  4  5  1  0  0  0
  4 30  1  0  0  0
  5  7  1  0  0  0
  5  6  2  0  0  0
  6 31  1  0  0  0
  7  8  2  0  0  0
  7 10  1  0  0  0
  8 13  1  0  0  0
  8 32  1  0  0  0
  9 12  1  0  0  0
  9 10  2  0  0  0
  9 27  1  0  0  0
 10 26  1  0  0  0
 11 12  1  0  0  0
 11 15  2  0  0  0
 12 13  2  0  0  0
 13 14  1  0  0  0
 14 15  1  0  0  0
 14 33  1  0  0  0
 15 16  1  0  0  0
 16 17  1  0  0  0
 16 19  1  0  0  0
 16 34  1  0  0  0
 17 21  1  0  0  0
 18 20  1  0  0  0
 18 19  1  0  0  0
 19 35  1  0  0  0
 19 36  1  0  0  0
 20 21  2  0  0  0
 20 25  1  0  0  0
 21 22  1  0  0  0
 22 23  2  0  0  0
 22 37  1  0  0  0
 23 24  1  0  0  0
 23 38  1  0  0  0
 24 25  2  0  0  0
 24 39  1  0  0  0
 25 40  1  0  0  0
 26 41  1  0  0  0
 26 42  1  0  0  0
 26 43  1  0  0  0
 27 44  1  0  0  0
 27 45  1  0  0  0
 27 46  1  0  0  0
M  END
> <s_m_entry_id>
35875

> <s_m_entry_name>
dock_pv.31

> <s_m_Source_Path>
/home/csk/Desktop/cluster/DUD-E-result/cp2c9

> <s_m_Source_File>
dock_pv.maegz

> <i_m_Source_File_Index>
31

> <chembl_id>
CHEMBL1092795

> <chembl_pref_name>
None

> <i_lp_mmshare_version>
53161

> <i_f3d_flags>
0

> <r_lp_tautomer_probability>
1

> <s_lp_Force_Field>
OPLS_2005

> <r_lp_Energy>
21.398359

> <b_lp_Chiralities_Consistent>
1

> <s_lp_Variant>
CHEMBL3397_lig12-1

> <s_i_glide_gridfile>
glide-grid_1r9o

> <i_i_glide_lignum>
17

> <i_i_glide_rotatable_bonds>
2

> <r_i_docking_score>
-7.73273586585041

> <r_i_glide_ligand_efficiency>
-0.286397624661126

> <r_i_glide_ligand_efficiency_sa>
-0.859192873039459

> <r_i_glide_ligand_efficiency_ln>
-1.8000534254558

> <r_i_glide_gscore>
-7.73273586585041

> <r_i_glide_lipo>
-4.88923162955575

> <r_i_glide_hbond>
0

> <r_i_glide_metal>
0

> <r_i_glide_rewards>
-1.29868505018241

> <r_i_glide_evdw>
-38.79345703125

> <r_i_glide_ecoul>
0.63413941860199

> <r_i_glide_erotb>
0.299732752659955

> <r_i_glide_esite>
0

> <r_i_glide_emodel>
-41.0246301326484

> <r_i_glide_energy>
-38.159317612648

> <r_i_glide_einternal>
3.88882946968079

> <i_i_glide_confnum>
15

> <i_i_glide_posenum>
112

> <r_i_glide_eff_state_penalty>
0

> <s_user_duplicate_titles>
CHEMBL3397_lig12

> <s_m_subgroup_title>
dock_pv

> <s_m_subgroupid>
dock_pv

> <b_m_subgroup_collapsed>
1

$$$$
CHEMBL3397_lig12
                    3D
 Schrodinger Suite 2021-1.
 46 50  0  0  1  0            999 V2000
   -0.6675   32.1676   -1.5409 C   0  0  0  0  0  0
   -1.2593   33.3885   -1.5397 N   0  0  0  0  0  0
   -0.4958   34.4597   -1.8730 C   0  0  0  0  0  0
    0.8482   34.3490   -2.2324 C   0  0  0  0  0  0
    1.4454   33.0805   -2.2594 C   0  0  0  0  0  0
    0.6705   31.9756   -1.8923 C   0  0  0  0  0  0
    2.8104   32.9054   -2.8246 C   0  0  0  0  0  0
    3.9134   32.8104   -1.9593 C   0  0  0  0  0  0
    4.2559   32.7633   -4.8109 C   0  0  0  0  0  0
    2.9785   32.8608   -4.2252 C   0  0  0  0  0  0
    6.6893   32.6893   -4.2708 N   0  0  0  0  0  0
    5.3615   32.7386   -3.9459 C   0  0  0  0  0  0
    5.1848   32.7643   -2.5431 C   0  0  0  0  0  0
    6.4779   32.7455   -2.0481 N   0  0  0  0  0  0
    7.3326   32.6936   -3.1320 C   0  0  0  0  0  0
    8.8574   32.6270   -3.1006 C   0  0  1  0  0  0
    9.4481   33.8928   -3.4418 O   0  0  0  0  0  0
    9.5015   32.9433   -0.7424 O   0  0  0  0  0  0
    9.5201   32.0247   -1.8338 C   0  0  0  0  0  0
    9.8975   34.2228   -1.0731 C   0  0  0  0  0  0
    9.8532   34.6892   -2.3909 C   0  0  0  0  0  0
   10.3010   35.9749   -2.6903 C   0  0  0  0  0  0
   10.7029   36.8300   -1.6615 C   0  0  0  0  0  0
   10.6976   36.3841   -0.3386 C   0  0  0  0  0  0
   10.3010   35.0785   -0.0435 C   0  0  0  0  0  0
    1.7588   32.9397   -5.1451 C   0  0  0  0  0  0
    4.4231   32.7019   -6.3287 C   0  0  0  0  0  0
   -1.2959   31.3324   -1.2669 H   0  0  0  0  0  0
   -0.9855   35.4221   -1.8603 H   0  0  0  0  0  0
    1.4042   35.2270   -2.5282 H   0  0  0  0  0  0
    1.0867   30.9838   -1.9297 H   0  0  0  0  0  0
    3.7853   32.8382   -0.8870 H   0  0  0  0  0  0
    6.7878   32.7561   -1.0865 H   0  0  0  0  0  0
    9.1013   31.9753   -3.9368 H   0  0  0  0  0  0
    9.0243   31.1008   -1.5359 H   0  0  0  0  0  0
   10.5580   31.7762   -2.0646 H   0  0  0  0  0  0
   10.3012   36.3201   -3.7143 H   0  0  0  0  0  0
   11.0112   37.8407   -1.8864 H   0  0  0  0  0  0
   11.0042   37.0488    0.4564 H   0  0  0  0  0  0
   10.3161   34.7365    0.9811 H   0  0  0  0  0  0
    1.5789   31.9764   -5.6214 H   0  0  0  0  0  0
    0.8317   33.2729   -4.6818 H   0  0  0  0  0  0
    1.9619   33.6691   -5.9233 H   0  0  0  0  0  0
    5.4308   32.4013   -6.6147 H   0  0  0  0  0  0
    3.7424   31.9728   -6.7680 H   0  0  0  0  0  0
    4.2185   33.6749   -6.7763 H   0  0  0  0  0  0
  1  2  2  0  0  0
  1  6  1  0  0  0
  1 28  1  0  0  0
  2  3  1  0  0  0
  3  4  2  0  0  0
  3 29  1  0  0  0
  4  5  1  0  0  0
  4 30  1  0  0  0
  5  7  1  0  0  0
  5  6  2  0  0  0
  6 31  1  0  0  0
  7  8  2  0  0  0
  7 10  1  0  0  0
  8 13  1  0  0  0
  8 32  1  0  0  0
  9 12  1  0  0  0
  9 10  2  0  0  0
  9 27  1  0  0  0
 10 26  1  0  0  0
 11 12  1  0  0  0
 11 15  2  0  0  0
 12 13  2  0  0  0
 13 14  1  0  0  0
 14 15  1  0  0  0
 14 33  1  0  0  0
 15 16  1  0  0  0
 16 17  1  0  0  0
 16 19  1  0  0  0
 16 34  1  0  0  0
 17 21  1  0  0  0
 18 20  1  0  0  0
 18 19  1  0  0  0
 19 35  1  0  0  0
 19 36  1  0  0  0
 20 21  2  0  0  0
 20 25  1  0  0  0
 21 22  1  0  0  0
 22 23  2  0  0  0
 22 37  1  0  0  0
 23 24  1  0  0  0
 23 38  1  0  0  0
 24 25  2  0  0  0
 24 39  1  0  0  0
 25 40  1  0  0  0
 26 41  1  0  0  0
 26 42  1  0  0  0
 26 43  1  0  0  0
 27 44  1  0  0  0
 27 45  1  0  0  0
 27 46  1  0  0  0
M  END
> <s_m_entry_id>
35876

> <s_m_entry_name>
dock_pv.32

> <s_m_Source_Path>
/home/csk/Desktop/cluster/DUD-E-result/cp2c9

> <s_m_Source_File>
dock_pv.maegz

> <i_m_Source_File_Index>
32

> <chembl_id>
CHEMBL1092795

> <chembl_pref_name>
None

> <i_lp_mmshare_version>
53161

> <i_f3d_flags>
0

> <r_lp_tautomer_probability>
1

> <s_lp_Force_Field>
OPLS_2005

> <r_lp_Energy>
21.416762

> <b_lp_Chiralities_Consistent>
1

> <s_lp_Variant>
CHEMBL3397_lig12-2

> <s_i_glide_gridfile>
glide-grid_1r9o

> <i_i_glide_lignum>
18

> <i_i_glide_rotatable_bonds>
2

> <r_i_docking_score>
-7.7182677745241

> <r_i_glide_ligand_efficiency>
-0.285861769426818

> <r_i_glide_ligand_efficiency_sa>
-0.857585307338302

> <r_i_glide_ligand_efficiency_ln>
-1.79668549232016

> <r_i_glide_gscore>
-7.7182677745241

> <r_i_glide_lipo>
-4.26516902509519

> <r_i_glide_hbond>
-0.0113346761778691

> <r_i_glide_metal>
0

> <r_i_glide_rewards>
-1.4614283985867

> <r_i_glide_evdw>
-40.9103469848633

> <r_i_glide_ecoul>
-1.56367385387421

> <r_i_glide_erotb>
0.299732752659955

> <r_i_glide_esite>
0

> <r_i_glide_emodel>
-50.1910900368387

> <r_i_glide_energy>
-42.4740208387375

> <r_i_glide_einternal>
4.88016843795776

> <i_i_glide_confnum>
22

> <i_i_glide_posenum>
151

> <r_i_glide_eff_state_penalty>
0

> <s_user_duplicate_titles>
CHEMBL3397_lig12

> <s_m_subgroup_title>
dock_pv

> <s_m_subgroupid>
dock_pv

> <b_m_subgroup_collapsed>
1

$$$$
CHEMBL3397_lig158
                    3D
 Schrodinger Suite 2021-1.
 32 34  0  0  1  0            999 V2000
    2.3185   33.1744   -5.1297 O   0  0  0  0  0  0
    7.1320   31.2233   -3.2986 O   0  0  0  0  0  0
    4.8150   29.9742   -2.5724 O   0  0  0  0  0  0
    4.7024   33.2483   -5.2000 C   0  0  0  0  0  0
    5.9498   32.7345   -4.7677 C   0  0  0  0  0  0
    3.4127   31.7914   -3.4472 C   0  0  1  0  0  0
    3.3805   32.7729   -4.6481 C   0  0  0  0  0  0
    6.0617   31.6611   -3.7318 C   0  0  0  0  0  0
    4.7332   31.0339   -3.1939 C   0  0  0  0  0  0
    2.9470   32.4711   -2.1205 C   0  0  0  0  0  0
    4.6939   34.2260   -6.2101 C   0  0  0  0  0  0
    7.1318   33.2374   -5.3356 C   0  0  0  0  0  0
    1.4768   32.8860   -2.0685 C   0  0  0  0  0  0
    5.8753   34.7124   -6.7591 C   0  0  0  0  0  0
    7.0962   34.2200   -6.3199 C   0  0  0  0  0  0
    1.1026   34.1858   -2.4255 C   0  0  0  0  0  0
    0.5056   31.9799   -1.6284 C   0  0  0  0  0  0
   -0.2299   34.5771   -2.3457 C   0  0  0  0  0  0
   -0.8274   32.3738   -1.5411 C   0  0  0  0  0  0
   -1.1872   33.6712   -1.8995 C   0  0  0  0  0  0
    2.7000   31.0077   -3.6922 H   0  0  0  0  0  0
    3.5660   33.3461   -1.9089 H   0  0  0  0  0  0
    3.1187   31.8143   -1.2637 H   0  0  0  0  0  0
    3.7635   34.6358   -6.5797 H   0  0  0  0  0  0
    8.0974   32.8636   -5.0241 H   0  0  0  0  0  0
    5.8371   35.4707   -7.5289 H   0  0  0  0  0  0
    8.0153   34.5927   -6.7477 H   0  0  0  0  0  0
    1.8430   34.8954   -2.7644 H   0  0  0  0  0  0
    0.7766   30.9790   -1.3340 H   0  0  0  0  0  0
   -0.5171   35.5795   -2.6251 H   0  0  0  0  0  0
   -1.5784   31.6835   -1.1849 H   0  0  0  0  0  0
   -2.2188   33.9786   -1.8241 H   0  0  0  0  0  0
  1  7  2  0  0  0
  2  8  2  0  0  0
  3  9  2  0  0  0
  4  5  2  0  0  0
  4 11  1  0  0  0
  4  7  1  0  0  0
  5  8  1  0  0  0
  5 12  1  0  0  0
  6  9  1  0  0  0
  6  7  1  0  0  0
  6 10  1  0  0  0
  6 21  1  0  0  0
  8  9  1  0  0  0
 10 13  1  0  0  0
 10 22  1  0  0  0
 10 23  1  0  0  0
 11 14  2  0  0  0
 11 24  1  0  0  0
 12 15  2  0  0  0
 12 25  1  0  0  0
 13 16  2  0  0  0
 13 17  1  0  0  0
 14 15  1  0  0  0
 14 26  1  0  0  0
 15 27  1  0  0  0
 16 18  1  0  0  0
 16 28  1  0  0  0
 17 19  2  0  0  0
 17 29  1  0  0  0
 18 20  2  0  0  0
 18 30  1  0  0  0
 19 20  1  0  0  0
 19 31  1  0  0  0
 20 32  1  0  0  0
M  END
> <s_m_entry_id>
35877

> <s_m_entry_name>
dock_pv.33

> <s_m_Source_Path>
/home/csk/Desktop/cluster/DUD-E-result/cp2c9

> <s_m_Source_File>
dock_pv.maegz

> <i_m_Source_File_Index>
33

> <chembl_id>
CHEMBL1317916

> <chembl_pref_name>
None

> <i_lp_mmshare_version>
53161

> <i_f3d_flags>
0

> <r_lp_tautomer_probability>
0.818181818181818

> <s_lp_Force_Field>
OPLS_2005

> <r_lp_Energy>
29.737923

> <b_lp_Chiralities_Consistent>
1

> <s_lp_Variant>
CHEMBL3397_lig158-1

> <s_i_glide_gridfile>
glide-grid_1r9o

> <i_i_glide_lignum>
199

> <i_i_glide_rotatable_bonds>
2

> <r_i_docking_score>
-7.709707688352

> <r_i_glide_ligand_efficiency>
-0.3854853844176

> <r_i_glide_ligand_efficiency_sa>
-1.04636831735811

> <r_i_glide_ligand_efficiency_ln>
-1.92948555121653

> <r_i_glide_gscore>
-7.709707688352

> <r_i_glide_lipo>
-3.82107432109325

> <r_i_glide_hbond>
0

> <r_i_glide_metal>
0

> <r_i_glide_rewards>
-2.52054612193886

> <r_i_glide_evdw>
-37.2181930541992

> <r_i_glide_ecoul>
-0.107786327600479

> <r_i_glide_erotb>
0.50899035653014

> <r_i_glide_esite>
0

> <r_i_glide_emodel>
-53.8001908036139

> <r_i_glide_energy>
-37.3259793817997

> <r_i_glide_einternal>
0.0322046093642712

> <i_i_glide_confnum>
1

> <i_i_glide_posenum>
54

> <r_i_glide_eff_state_penalty>
0

> <s_user_duplicate_titles>
CHEMBL3397_lig158

> <s_m_subgroup_title>
dock_pv

> <s_m_subgroupid>
dock_pv

> <b_m_subgroup_collapsed>
1

$$$$
CHEMBL3397_lig121
                    3D
 Schrodinger Suite 2021-1.
 46 49  0  0  1  0            999 V2000
    0.3548   33.2972   -1.8374 Cl  0  0  0  0  0  0
    4.0974   30.0342   -3.1673 O   0  0  0  0  0  0
    9.0848   34.8165   -1.6989 O   0  0  0  0  0  0
    7.2898   35.1638   -7.3601 O   0  0  0  0  0  0
    7.4381   33.3114   -2.3011 N   0  0  0  0  0  0
    5.7236   31.6756   -2.7306 N   0  0  0  0  0  0
    9.3347   31.2828   -2.2018 N   0  0  0  0  0  0
    6.3209   29.3646   -3.1377 N   0  0  0  0  0  0
    7.0295   31.9745   -2.5714 C   0  0  0  0  0  0
    8.0200   30.9875   -2.5861 C   0  0  0  0  0  0
    8.7192   33.6624   -1.9416 C   0  0  0  0  0  0
    9.6326   32.4922   -1.8978 C   0  0  0  0  0  0
    5.4236   30.3731   -2.9930 C   0  0  0  0  0  0
    6.4498   34.3749   -2.5475 C   0  0  0  0  0  0
    7.6244   29.6895   -2.9250 C   0  0  0  0  0  0
    5.9739   34.5017   -3.9827 C   0  0  0  0  0  0
    3.2215   31.0398   -3.4959 C   0  0  0  0  0  0
   11.0432   32.7508   -1.4042 C   0  0  0  0  0  0
    6.8714   34.4084   -5.0529 C   0  0  0  0  0  0
    4.6381   34.8215   -4.2161 C   0  0  0  0  0  0
    6.4517   34.7754   -6.3387 C   0  0  0  0  0  0
    2.3088   31.5750   -2.5810 C   0  0  0  0  0  0
    3.3233   31.5771   -4.7743 C   0  0  0  0  0  0
    4.2026   35.0578   -5.5143 C   0  0  0  0  0  0
    1.4819   32.6334   -2.9612 C   0  0  0  0  0  0
    5.0996   34.9945   -6.5699 C   0  0  0  0  0  0
    2.5100   32.6349   -5.1407 C   0  0  0  0  0  0
    1.5811   33.1682   -4.2460 C   0  0  0  0  0  0
    8.6905   35.0758   -7.1764 C   0  0  0  0  0  0
    6.8181   35.3575   -2.2545 H   0  0  0  0  0  0
    5.5720   34.1689   -1.9411 H   0  0  0  0  0  0
    8.3372   28.8791   -2.9674 H   0  0  0  0  0  0
   11.4982   33.5721   -1.9419 H   0  0  0  0  0  0
   11.0398   33.0158   -0.3465 H   0  0  0  0  0  0
   11.6944   31.8860   -1.5419 H   0  0  0  0  0  0
    7.9142   34.2326   -4.8428 H   0  0  0  0  0  0
    3.9401   34.9095   -3.3958 H   0  0  0  0  0  0
    2.2518   31.1753   -1.5807 H   0  0  0  0  0  0
    4.0547   31.1908   -5.4687 H   0  0  0  0  0  0
    3.1769   35.3257   -5.7108 H   0  0  0  0  0  0
    4.7672   35.2953   -7.5410 H   0  0  0  0  0  0
    2.7001   33.0659   -6.1079 H   0  0  0  0  0  0
    0.9599   34.0026   -4.5376 H   0  0  0  0  0  0
    9.2062   35.5292   -8.0223 H   0  0  0  0  0  0
    9.0362   35.5777   -6.2723 H   0  0  0  0  0  0
    8.9569   34.0228   -7.1421 H   0  0  0  0  0  0
  1 25  1  0  0  0
  2 13  1  0  0  0
  2 17  1  0  0  0
  3 11  2  0  0  0
  4 21  1  0  0  0
  4 29  1  0  0  0
  5  9  1  0  0  0
  5 11  1  0  0  0
  5 14  1  0  0  0
  6  9  1  0  0  0
  6 13  2  0  0  0
  7 10  1  0  0  0
  7 12  2  0  0  0
  8 13  1  0  0  0
  8 15  2  0  0  0
  9 10  2  0  0  0
 10 15  1  0  0  0
 11 12  1  0  0  0
 12 18  1  0  0  0
 14 16  1  0  0  0
 14 30  1  0  0  0
 14 31  1  0  0  0
 15 32  1  0  0  0
 16 19  2  0  0  0
 16 20  1  0  0  0
 17 22  1  0  0  0
 17 23  2  0  0  0
 18 33  1  0  0  0
 18 34  1  0  0  0
 18 35  1  0  0  0
 19 21  1  0  0  0
 19 36  1  0  0  0
 20 24  2  0  0  0
 20 37  1  0  0  0
 21 26  2  0  0  0
 22 25  2  0  0  0
 22 38  1  0  0  0
 23 27  1  0  0  0
 23 39  1  0  0  0
 24 26  1  0  0  0
 24 40  1  0  0  0
 25 28  1  0  0  0
 26 41  1  0  0  0
 27 28  2  0  0  0
 27 42  1  0  0  0
 28 43  1  0  0  0
 29 44  1  0  0  0
 29 45  1  0  0  0
 29 46  1  0  0  0
M  END
> <s_m_entry_id>
35878

> <s_m_entry_name>
dock_pv.34

> <s_m_Source_Path>
/home/csk/Desktop/cluster/DUD-E-result/cp2c9

> <s_m_Source_File>
dock_pv.maegz

> <i_m_Source_File_Index>
34

> <chembl_id>
CHEMBL1593269

> <chembl_pref_name>
None

> <i_lp_mmshare_version>
53161

> <i_f3d_flags>
0

> <r_lp_tautomer_probability>
1

> <s_lp_Force_Field>
OPLS_2005

> <r_lp_Energy>
31.172767

> <b_lp_Chiralities_Consistent>
1

> <s_lp_Variant>
CHEMBL3397_lig121-1

> <s_i_glide_gridfile>
glide-grid_1r9o

> <i_i_glide_lignum>
159

> <i_i_glide_rotatable_bonds>
5

> <r_i_docking_score>
-7.70025422824887

> <r_i_glide_ligand_efficiency>
-0.265526007870651

> <r_i_glide_ligand_efficiency_sa>
-0.815780020722536

> <r_i_glide_ligand_efficiency_ln>
-1.7631629566694

> <r_i_glide_gscore>
-7.70025422824887

> <r_i_glide_lipo>
-4.74275646490588

> <r_i_glide_hbond>
0

> <r_i_glide_metal>
0

> <r_i_glide_rewards>
-1.82370694919343

> <r_i_glide_evdw>
-34.3168258666992

> <r_i_glide_ecoul>
0.739790141582489

> <r_i_glide_erotb>
0.471081957948028

> <r_i_glide_esite>
0

> <r_i_glide_emodel>
-38.8365215626592

> <r_i_glide_energy>
-33.5770357251167

> <r_i_glide_einternal>
0.696506679058075

> <i_i_glide_confnum>
5

> <i_i_glide_posenum>
256

> <r_i_glide_eff_state_penalty>
0

> <s_user_duplicate_titles>
CHEMBL3397_lig121

> <s_m_subgroup_title>
dock_pv

> <s_m_subgroupid>
dock_pv

> <b_m_subgroup_collapsed>
1

$$$$
CHEMBL3397_lig17
                    3D
 Schrodinger Suite 2021-1.
 43 47  0  0  1  0            999 V2000
   10.8236   37.5027   -1.1793 C   0  0  0  0  0  0
   11.1008   37.5275    0.1461 N   0  0  0  0  0  0
   10.9030   36.3939    0.8582 C   0  0  0  0  0  0
   10.4117   35.2262    0.2982 C   0  0  0  0  0  0
   10.0309   35.2310   -1.0454 C   0  0  0  0  0  0
   10.2996   36.3746   -1.8073 C   0  0  0  0  0  0
    9.2473   34.1294   -1.6408 C   0  0  0  0  0  0
    8.0765   34.4930   -2.3101 C   0  0  0  0  0  0
    8.8571   31.7719   -2.1149 C   0  0  0  0  0  0
    9.6276   32.7866   -1.5406 C   0  0  0  0  0  0
    6.8020   31.3506   -3.4858 N   0  0  0  0  0  0
    7.7076   32.1332   -2.8315 C   0  0  0  0  0  0
    7.3543   33.4914   -2.9451 C   0  0  0  0  0  0
    6.2617   33.5147   -3.7816 N   0  0  0  0  0  0
    5.9325   32.1883   -4.0105 C   0  0  0  0  0  0
    4.7889   31.6992   -4.8989 C   0  0  1  0  0  0
    3.4446   30.5886   -3.1397 O   0  0  0  0  0  0
    4.1482   30.3806   -4.3793 C   0  0  0  0  0  0
    2.7003   31.7548   -3.0847 C   0  0  0  0  0  0
    2.8778   32.7831   -4.0160 C   0  0  0  0  0  0
    2.1474   33.9627   -3.9224 C   0  0  0  0  0  0
    1.2289   34.1295   -2.8866 C   0  0  0  0  0  0
    1.0562   33.1151   -1.9429 C   0  0  0  0  0  0
    1.8022   31.9372   -2.0305 C   0  0  0  0  0  0
    5.5681   34.7207   -4.2201 C   0  0  0  0  0  0
    3.7343   32.6525   -5.0832 O   0  0  0  0  0  0
   10.9978   38.4199   -1.7251 H   0  0  0  0  0  0
   11.1019   36.4232    1.9175 H   0  0  0  0  0  0
   10.3013   34.3749    0.9390 H   0  0  0  0  0  0
   10.0481   36.3870   -2.8578 H   0  0  0  0  0  0
    7.7588   35.5241   -2.3407 H   0  0  0  0  0  0
    9.1432   30.7378   -2.0220 H   0  0  0  0  0  0
   10.5281   32.5238   -1.0043 H   0  0  0  0  0  0
    5.2043   31.5752   -5.8957 H   0  0  0  0  0  0
    4.9089   29.6188   -4.2088 H   0  0  0  0  0  0
    3.5009   29.9819   -5.1531 H   0  0  0  0  0  0
    2.3080   34.7362   -4.6536 H   0  0  0  0  0  0
    0.6559   35.0431   -2.8137 H   0  0  0  0  0  0
    0.3442   33.2462   -1.1431 H   0  0  0  0  0  0
    1.6767   31.1748   -1.2803 H   0  0  0  0  0  0
    6.2838   35.5329   -4.3229 H   0  0  0  0  0  0
    5.1177   34.5747   -5.2005 H   0  0  0  0  0  0
    4.8107   34.9976   -3.4860 H   0  0  0  0  0  0
  1  6  1  0  0  0
  1  2  2  0  0  0
  1 27  1  0  0  0
  2  3  1  0  0  0
  3  4  2  0  0  0
  3 28  1  0  0  0
  4  5  1  0  0  0
  4 29  1  0  0  0
  5  7  1  0  0  0
  5  6  2  0  0  0
  6 30  1  0  0  0
  7  8  2  0  0  0
  7 10  1  0  0  0
  8 13  1  0  0  0
  8 31  1  0  0  0
  9 12  1  0  0  0
  9 10  2  0  0  0
  9 32  1  0  0  0
 10 33  1  0  0  0
 11 12  1  0  0  0
 11 15  2  0  0  0
 12 13  2  0  0  0
 13 14  1  0  0  0
 14 15  1  0  0  0
 14 25  1  0  0  0
 15 16  1  0  0  0
 16 26  1  0  0  0
 16 18  1  0  0  0
 16 34  1  0  0  0
 17 19  1  0  0  0
 17 18  1  0  0  0
 18 35  1  0  0  0
 18 36  1  0  0  0
 19 20  2  0  0  0
 19 24  1  0  0  0
 20 26  1  0  0  0
 20 21  1  0  0  0
 21 22  2  0  0  0
 21 37  1  0  0  0
 22 23  1  0  0  0
 22 38  1  0  0  0
 23 24  2  0  0  0
 23 39  1  0  0  0
 24 40  1  0  0  0
 25 41  1  0  0  0
 25 42  1  0  0  0
 25 43  1  0  0  0
M  END
> <s_m_entry_id>
35879

> <s_m_entry_name>
dock_pv.35

> <s_m_Source_Path>
/home/csk/Desktop/cluster/DUD-E-result/cp2c9

> <s_m_Source_File>
dock_pv.maegz

> <i_m_Source_File_Index>
35

> <chembl_id>
CHEMBL1091819

> <chembl_pref_name>
None

> <i_lp_mmshare_version>
53161

> <i_f3d_flags>
0

> <r_lp_tautomer_probability>
1

> <s_lp_Force_Field>
OPLS_2005

> <r_lp_Energy>
18.215549

> <b_lp_Chiralities_Consistent>
1

> <s_lp_Variant>
CHEMBL3397_lig17-1

> <s_i_glide_gridfile>
glide-grid_1r9o

> <i_i_glide_lignum>
27

> <i_i_glide_rotatable_bonds>
2

> <r_i_docking_score>
-7.68383032325316

> <r_i_glide_ligand_efficiency>
-0.295531935509737

> <r_i_glide_ligand_efficiency_sa>
-0.875512196085582

> <r_i_glide_ligand_efficiency_ln>
-1.80452233871227

> <r_i_glide_gscore>
-7.68383032325316

> <r_i_glide_lipo>
-4.3750403827148

> <r_i_glide_hbond>
0

> <r_i_glide_metal>
0

> <r_i_glide_rewards>
-1.76609783220952

> <r_i_glide_evdw>
-38.1183280944824

> <r_i_glide_ecoul>
0.275855034589767

> <r_i_glide_erotb>
0.321846041206818

> <r_i_glide_esite>
0

> <r_i_glide_emodel>
-51.6591873408134

> <r_i_glide_energy>
-37.8424730598927

> <r_i_glide_einternal>
3.75653195381165

> <i_i_glide_confnum>
16

> <i_i_glide_posenum>
160

> <r_i_glide_eff_state_penalty>
0

> <s_user_duplicate_titles>
CHEMBL3397_lig17

> <s_m_subgroup_title>
dock_pv

> <s_m_subgroupid>
dock_pv

> <b_m_subgroup_collapsed>
1

$$$$
CHEMBL3397_lig13
                    3D
 Schrodinger Suite 2021-1.
 42 46  0  0  1  0            999 V2000
    9.7494   36.8339    0.6676 C   0  0  0  0  0  0
   10.7020   37.5750    0.0491 N   0  0  0  0  0  0
   11.0491   37.2305   -1.2170 C   0  0  0  0  0  0
   10.5013   36.1297   -1.8791 C   0  0  0  0  0  0
    9.5456   35.3578   -1.2111 C   0  0  0  0  0  0
    9.1485   35.7319    0.0731 C   0  0  0  0  0  0
    8.9224   34.1822   -1.8351 C   0  0  0  0  0  0
    7.6224   34.3083   -2.3297 C   0  0  0  0  0  0
    8.9864   31.7968   -2.3407 C   0  0  0  0  0  0
    9.5962   32.9546   -1.8547 C   0  0  0  0  0  0
    6.8535   30.9160   -3.3104 N   0  0  0  0  0  0
    7.6740   31.8950   -2.8153 C   0  0  0  0  0  0
    7.0191   33.1497   -2.8064 C   0  0  0  0  0  0
    5.7779   32.8825   -3.3171 N   0  0  0  0  0  0
    5.7346   31.5389   -3.5850 C   0  0  0  0  0  0
    4.4795   30.8630   -4.0832 C   0  0  1  0  0  0
    3.3969   30.7836   -2.9853 C   0  0  0  0  0  0
    3.3709   32.8218   -5.1015 O   0  0  0  0  0  0
    3.9003   31.5224   -5.3553 C   0  0  0  0  0  0
    2.4685   32.8888   -4.0586 C   0  0  0  0  0  0
    2.4771   31.9990   -2.9699 C   0  0  0  0  0  0
    1.5858   32.2401   -1.9173 C   0  0  0  0  0  0
    0.7013   33.3196   -1.9574 C   0  0  0  0  0  0
    0.6914   34.1766   -3.0565 C   0  0  0  0  0  0
    1.5792   33.9573   -4.1064 C   0  0  0  0  0  0
    9.4547   37.1445    1.6570 H   0  0  0  0  0  0
   11.7720   37.8707   -1.7002 H   0  0  0  0  0  0
   10.7919   35.8902   -2.8923 H   0  0  0  0  0  0
    8.3863   35.1774    0.5995 H   0  0  0  0  0  0
    7.0987   35.2515   -2.3115 H   0  0  0  0  0  0
    9.4987   30.8478   -2.3321 H   0  0  0  0  0  0
   10.5969   32.8880   -1.4524 H   0  0  0  0  0  0
    4.9913   33.4977   -3.4686 H   0  0  0  0  0  0
    4.7332   29.8352   -4.3493 H   0  0  0  0  0  0
    2.7872   29.8938   -3.1411 H   0  0  0  0  0  0
    3.8628   30.6761   -2.0046 H   0  0  0  0  0  0
    4.6573   31.5906   -6.1354 H   0  0  0  0  0  0
    3.1019   30.8967   -5.7493 H   0  0  0  0  0  0
    1.5652   31.5751   -1.0663 H   0  0  0  0  0  0
    0.0124   33.4873   -1.1419 H   0  0  0  0  0  0
   -0.0040   35.0029   -3.0976 H   0  0  0  0  0  0
    1.5766   34.5734   -4.9861 H   0  0  0  0  0  0
  1  6  1  0  0  0
  1  2  2  0  0  0
  1 26  1  0  0  0
  2  3  1  0  0  0
  3  4  2  0  0  0
  3 27  1  0  0  0
  4  5  1  0  0  0
  4 28  1  0  0  0
  5  6  2  0  0  0
  5  7  1  0  0  0
  6 29  1  0  0  0
  7  8  2  0  0  0
  7 10  1  0  0  0
  8 13  1  0  0  0
  8 30  1  0  0  0
  9 12  1  0  0  0
  9 10  2  0  0  0
  9 31  1  0  0  0
 10 32  1  0  0  0
 11 12  1  0  0  0
 11 15  2  0  0  0
 12 13  2  0  0  0
 13 14  1  0  0  0
 14 15  1  0  0  0
 14 33  1  0  0  0
 15 16  1  0  0  0
 16 17  1  0  0  0
 16 19  1  0  0  0
 16 34  1  0  0  0
 17 21  1  0  0  0
 17 35  1  0  0  0
 17 36  1  0  0  0
 18 20  1  0  0  0
 18 19  1  0  0  0
 19 37  1  0  0  0
 19 38  1  0  0  0
 20 21  2  0  0  0
 20 25  1  0  0  0
 21 22  1  0  0  0
 22 23  2  0  0  0
 22 39  1  0  0  0
 23 24  1  0  0  0
 23 40  1  0  0  0
 24 25  2  0  0  0
 24 41  1  0  0  0
 25 42  1  0  0  0
M  END
> <s_m_entry_id>
35880

> <s_m_entry_name>
dock_pv.36

> <s_m_Source_Path>
/home/csk/Desktop/cluster/DUD-E-result/cp2c9

> <s_m_Source_File>
dock_pv.maegz

> <i_m_Source_File_Index>
36

> <chembl_id>
CHEMBL452734

> <chembl_pref_name>
None

> <i_lp_mmshare_version>
53161

> <i_f3d_flags>
0

> <r_lp_tautomer_probability>
1

> <s_lp_Force_Field>
OPLS_2005

> <r_lp_Energy>
16.522466

> <b_lp_Chiralities_Consistent>
1

> <s_lp_Variant>
CHEMBL3397_lig13-2

> <s_i_glide_gridfile>
glide-grid_1r9o

> <i_i_glide_lignum>
20

> <i_i_glide_rotatable_bonds>
2

> <r_i_docking_score>
-7.62037358871286

> <r_i_glide_ligand_efficiency>
-0.304814943548514

> <r_i_glide_ligand_efficiency_sa>
-0.891284300851898

> <r_i_glide_ligand_efficiency_ln>
-1.80625690469354

> <r_i_glide_gscore>
-7.62037358871286

> <r_i_glide_lipo>
-4.66404233715454

> <r_i_glide_hbond>
0

> <r_i_glide_metal>
0

> <r_i_glide_rewards>
-1.5135120206236

> <r_i_glide_evdw>
-40.6888618469238

> <r_i_glide_ecoul>
1.60940897464752

> <r_i_glide_erotb>
0.35021251521435

> <r_i_glide_esite>
0

> <r_i_glide_emodel>
-49.5227412766033

> <r_i_glide_energy>
-39.0794528722763

> <r_i_glide_einternal>
3.4240288734436

> <i_i_glide_confnum>
17

> <i_i_glide_posenum>
92

> <r_i_glide_eff_state_penalty>
0

> <s_user_duplicate_titles>
CHEMBL3397_lig13

> <s_m_subgroup_title>
dock_pv

> <s_m_subgroupid>
dock_pv

> <b_m_subgroup_collapsed>
1

$$$$
CHEMBL3397_lig11
                    3D
 Schrodinger Suite 2021-1.
 43 47  0  0  1  0            999 V2000
   10.7844   37.0869   -1.1758 C   0  0  0  0  0  0
   10.3731   37.4622    0.0594 N   0  0  0  0  0  0
    9.3424   36.7819    0.6202 C   0  0  0  0  0  0
    8.7030   35.7215   -0.0178 C   0  0  0  0  0  0
    9.1587   35.3165   -1.2775 C   0  0  0  0  0  0
   10.2198   36.0139   -1.8682 C   0  0  0  0  0  0
    8.5174   34.1787   -1.9741 C   0  0  0  0  0  0
    7.2458   34.4185   -2.5043 C   0  0  0  0  0  0
    8.4958   31.8873   -2.8186 C   0  0  0  0  0  0
    9.1220   32.9040   -2.0844 C   0  0  0  0  0  0
    6.4092   31.2635   -4.0259 N   0  0  0  0  0  0
    7.2312   32.1221   -3.3551 C   0  0  0  0  0  0
    6.6157   33.3745   -3.1636 C   0  0  0  0  0  0
    5.3651   33.2187   -3.6990 N   0  0  0  0  0  0
    5.2840   31.9238   -4.1481 C   0  0  0  0  0  0
    3.9680   31.2327   -4.4175 C   0  0  2  0  0  0
    2.9559   32.1435   -4.8910 O   0  0  0  0  0  0
    3.1486   31.3824   -2.1263 O   0  0  0  0  0  0
    3.5199   30.4653   -3.1545 C   0  0  0  0  0  0
    2.2590   32.3383   -2.5587 C   0  0  0  0  0  0
    2.1999   32.7471   -3.9003 C   0  0  0  0  0  0
    1.3049   33.7459   -4.2777 C   0  0  0  0  0  0
    0.4862   34.3464   -3.3157 C   0  0  0  0  0  0
    0.5512   33.9379   -1.9819 C   0  0  0  0  0  0
    1.4413   32.9321   -1.6030 C   0  0  0  0  0  0
   10.3900   32.5088   -1.3199 C   0  0  0  0  0  0
   10.7078   33.3492   -0.3400 F   0  0  0  0  0  0
   10.1614   31.3349   -0.7411 F   0  0  0  0  0  0
   11.4428   32.3751   -2.1311 F   0  0  0  0  0  0
   11.5803   37.6751   -1.6067 H   0  0  0  0  0  0
    9.0229   37.1118    1.5979 H   0  0  0  0  0  0
    7.8801   35.2111    0.4611 H   0  0  0  0  0  0
   10.5741   35.7442   -2.8528 H   0  0  0  0  0  0
    6.7592   35.3741   -2.3773 H   0  0  0  0  0  0
    8.9427   30.9073   -2.9035 H   0  0  0  0  0  0
    4.5778   33.8504   -3.6905 H   0  0  0  0  0  0
    4.1189   30.5116   -5.2159 H   0  0  0  0  0  0
    2.6941   29.8108   -3.3998 H   0  0  0  0  0  0
    4.3203   29.8272   -2.7768 H   0  0  0  0  0  0
    1.2374   34.0453   -5.3126 H   0  0  0  0  0  0
   -0.2084   35.1219   -3.6052 H   0  0  0  0  0  0
   -0.0887   34.3989   -1.2429 H   0  0  0  0  0  0
    1.5009   32.6085   -0.5766 H   0  0  0  0  0  0
  1  6  1  0  0  0
  1  2  2  0  0  0
  1 30  1  0  0  0
  2  3  1  0  0  0
  3  4  2  0  0  0
  3 31  1  0  0  0
  4  5  1  0  0  0
  4 32  1  0  0  0
  5  6  2  0  0  0
  5  7  1  0  0  0
  6 33  1  0  0  0
  7  8  2  0  0  0
  7 10  1  0  0  0
  8 13  1  0  0  0
  8 34  1  0  0  0
  9 12  1  0  0  0
  9 10  2  0  0  0
  9 35  1  0  0  0
 10 26  1  0  0  0
 11 12  1  0  0  0
 11 15  2  0  0  0
 12 13  2  0  0  0
 13 14  1  0  0  0
 14 15  1  0  0  0
 14 36  1  0  0  0
 15 16  1  0  0  0
 16 17  1  0  0  0
 16 19  1  0  0  0
 16 37  1  0  0  0
 17 21  1  0  0  0
 18 20  1  0  0  0
 18 19  1  0  0  0
 19 38  1  0  0  0
 19 39  1  0  0  0
 20 21  2  0  0  0
 20 25  1  0  0  0
 21 22  1  0  0  0
 22 23  2  0  0  0
 22 40  1  0  0  0
 23 24  1  0  0  0
 23 41  1  0  0  0
 24 25  2  0  0  0
 24 42  1  0  0  0
 25 43  1  0  0  0
 26 27  1  0  0  0
 26 28  1  0  0  0
 26 29  1  0  0  0
M  END
> <s_m_entry_id>
35881

> <s_m_entry_name>
dock_pv.37

> <s_m_Source_Path>
/home/csk/Desktop/cluster/DUD-E-result/cp2c9

> <s_m_Source_File>
dock_pv.maegz

> <i_m_Source_File_Index>
37

> <chembl_id>
CHEMBL1092501

> <chembl_pref_name>
None

> <i_lp_mmshare_version>
53161

> <i_f3d_flags>
0

> <r_lp_tautomer_probability>
1

> <s_lp_Force_Field>
OPLS_2005

> <r_lp_Energy>
19.784124

> <b_lp_Chiralities_Consistent>
1

> <s_lp_Variant>
CHEMBL3397_lig11-1

> <s_i_glide_gridfile>
glide-grid_1r9o

> <i_i_glide_lignum>
15

> <i_i_glide_rotatable_bonds>
3

> <r_i_docking_score>
-7.61722219267122

> <r_i_glide_ligand_efficiency>
-0.262662834230042

> <r_i_glide_ligand_efficiency_sa>
-0.806983444181507

> <r_i_glide_ligand_efficiency_ln>
-1.74415072603287

> <r_i_glide_gscore>
-7.61722219267122

> <r_i_glide_lipo>
-4.63660737661471

> <r_i_glide_hbond>
0

> <r_i_glide_metal>
0

> <r_i_glide_rewards>
-1.31311834882927

> <r_i_glide_evdw>
-42.2429847717285

> <r_i_glide_ecoul>
1.31136441230774

> <r_i_glide_erotb>
0.247948109513018

> <r_i_glide_esite>
0

> <r_i_glide_emodel>
-47.6370245185362

> <r_i_glide_energy>
-40.9316203594208

> <r_i_glide_einternal>
4.44491195678711

> <i_i_glide_confnum>
23

> <i_i_glide_posenum>
362

> <r_i_glide_eff_state_penalty>
0

> <s_user_duplicate_titles>
CHEMBL3397_lig11

> <s_m_subgroup_title>
dock_pv

> <s_m_subgroupid>
dock_pv

> <b_m_subgroup_collapsed>
1

$$$$
CHEMBL3397_lig163
                    3D
 Schrodinger Suite 2021-1.
 48 50  0  0  1  0            999 V2000
    1.5243   31.9750   -1.9408 S   0  0  0  0  0  0
    9.5921   36.5241    0.6169 F   0  0  0  0  0  0
   11.1003   34.9880    0.7079 F   0  0  0  0  0  0
   11.1008   36.4091   -0.9296 F   0  0  0  0  0  0
    4.1959   30.7044   -2.7387 O   0  0  0  0  0  0
    5.2702   32.6906   -2.9450 N   0  0  0  0  0  0
    6.6604   32.2154   -3.0763 C   0  0  1  0  0  0
    7.0263   32.0258   -4.5715 C   0  0  1  0  0  0
    7.4639   33.2038   -5.4135 C   0  0  1  0  0  0
    7.6615   33.1229   -2.3448 C   0  0  0  0  0  0
    8.4559   32.1144   -5.0968 C   0  0  0  0  0  0
    8.8408   32.5896   -1.8071 C   0  0  0  0  0  0
    7.4145   34.4906   -2.2204 C   0  0  0  0  0  0
    4.1648   31.9336   -2.8140 C   0  0  0  0  0  0
    6.9570   33.3859   -6.8444 C   0  0  0  0  0  0
    9.4509   34.7757   -0.9663 C   0  0  0  0  0  0
    9.7437   33.4163   -1.1410 C   0  0  0  0  0  0
    8.3007   35.3086   -1.5386 C   0  0  0  0  0  0
    2.9315   32.6898   -2.6831 C   0  0  0  0  0  0
   10.3293   35.6875   -0.1189 C   0  0  0  0  0  0
    5.8096   34.4056   -6.9947 C   0  0  0  0  0  0
    2.6254   33.9754   -3.1434 C   0  0  0  0  0  0
    0.5810   33.3966   -2.2191 C   0  0  0  0  0  0
    1.3106   34.3736   -2.8729 C   0  0  0  0  0  0
    4.5598   34.1208   -6.1504 C   0  0  0  0  0  0
    3.9510   32.7302   -6.3881 C   0  0  0  0  0  0
    5.1333   33.6741   -3.1047 H   0  0  0  0  0  0
    6.7238   31.2417   -2.5800 H   0  0  0  0  0  0
    6.4096   31.2511   -5.0282 H   0  0  0  0  0  0
    7.6103   34.1648   -4.9256 H   0  0  0  0  0  0
    8.7688   31.4414   -5.8951 H   0  0  0  0  0  0
    9.2805   32.3748   -4.4359 H   0  0  0  0  0  0
    9.0540   31.5339   -1.8992 H   0  0  0  0  0  0
    6.5266   34.9370   -2.6422 H   0  0  0  0  0  0
    6.6589   32.4239   -7.2624 H   0  0  0  0  0  0
    7.8026   33.7241   -7.4431 H   0  0  0  0  0  0
   10.6372   32.9824   -0.7126 H   0  0  0  0  0  0
    8.0695   36.3573   -1.4245 H   0  0  0  0  0  0
    5.5009   34.4624   -8.0358 H   0  0  0  0  0  0
    6.1885   35.3991   -6.7484 H   0  0  0  0  0  0
    3.3232   34.6283   -3.6416 H   0  0  0  0  0  0
   -0.4484   33.4433   -1.8912 H   0  0  0  0  0  0
    0.9061   35.3381   -3.1399 H   0  0  0  0  0  0
    3.8071   34.8827   -6.3615 H   0  0  0  0  0  0
    4.8245   34.2392   -5.1043 H   0  0  0  0  0  0
    2.9576   32.6540   -5.9415 H   0  0  0  0  0  0
    4.5563   31.9470   -5.9384 H   0  0  0  0  0  0
    3.8942   32.5086   -7.4535 H   0  0  0  0  0  0
  1 19  1  0  0  0
  1 23  1  0  0  0
  2 20  1  0  0  0
  3 20  1  0  0  0
  4 20  1  0  0  0
  5 14  2  0  0  0
  6  7  1  0  0  0
  6 14  1  0  0  0
  6 27  1  0  0  0
  7  8  1  0  0  0
  7 10  1  0  0  0
  7 28  1  0  0  0
  8  9  1  0  0  0
  8 11  1  0  0  0
  8 29  1  0  0  0
  9 11  1  0  0  0
  9 15  1  0  0  0
  9 30  1  0  0  0
 10 12  2  0  0  0
 10 13  1  0  0  0
 11 31  1  0  0  0
 11 32  1  0  0  0
 12 17  1  0  0  0
 12 33  1  0  0  0
 13 18  2  0  0  0
 13 34  1  0  0  0
 14 19  1  0  0  0
 15 21  1  0  0  0
 15 35  1  0  0  0
 15 36  1  0  0  0
 16 17  2  0  0  0
 16 18  1  0  0  0
 16 20  1  0  0  0
 17 37  1  0  0  0
 18 38  1  0  0  0
 19 22  2  0  0  0
 21 25  1  0  0  0
 21 39  1  0  0  0
 21 40  1  0  0  0
 22 24  1  0  0  0
 22 41  1  0  0  0
 23 24  2  0  0  0
 23 42  1  0  0  0
 24 43  1  0  0  0
 25 26  1  0  0  0
 25 44  1  0  0  0
 25 45  1  0  0  0
 26 46  1  0  0  0
 26 47  1  0  0  0
 26 48  1  0  0  0
M  END
> <s_m_entry_id>
35882

> <s_m_entry_name>
dock_pv.38

> <s_m_Source_Path>
/home/csk/Desktop/cluster/DUD-E-result/cp2c9

> <s_m_Source_File>
dock_pv.maegz

> <i_m_Source_File_Index>
38

> <chembl_id>
CHEMBL1515698

> <chembl_pref_name>
None

> <i_lp_mmshare_version>
53161

> <i_f3d_flags>
0

> <r_lp_tautomer_probability>
1

> <s_lp_Force_Field>
OPLS_2005

> <r_lp_Energy>
19.699488

> <b_lp_Chiralities_Consistent>
1

> <s_lp_Variant>
CHEMBL3397_lig163-2

> <s_i_glide_gridfile>
glide-grid_1r9o

> <i_i_glide_lignum>
208

> <i_i_glide_rotatable_bonds>
9

> <r_i_docking_score>
-7.59988744970697

> <r_i_glide_ligand_efficiency>
-0.292303363450268

> <r_i_glide_ligand_efficiency_sa>
-0.865947564063223

> <r_i_glide_ligand_efficiency_ln>
-1.78480863029899

> <r_i_glide_gscore>
-7.59988744970697

> <r_i_glide_lipo>
-4.58270258754329

> <r_i_glide_hbond>
0

> <r_i_glide_metal>
0

> <r_i_glide_rewards>
-1.80822401994301

> <r_i_glide_evdw>
-38.1403465270996

> <r_i_glide_ecoul>
-0.339821755886078

> <r_i_glide_erotb>
0.800416998987501

> <r_i_glide_esite>
-0.0513872514702842

> <r_i_glide_emodel>
-51.0867995670508

> <r_i_glide_energy>
-38.4801682829857

> <r_i_glide_einternal>
10.3666353225708

> <i_i_glide_confnum>
28

> <i_i_glide_posenum>
397

> <r_i_glide_eff_state_penalty>
0

> <s_user_duplicate_titles>
CHEMBL3397_lig163

> <s_m_subgroup_title>
dock_pv

> <s_m_subgroupid>
dock_pv

> <b_m_subgroup_collapsed>
1

$$$$
CHEMBL3397_lig21
                    3D
 Schrodinger Suite 2021-1.
 56 61  0  0  1  0            999 V2000
   11.1000   38.6901   -2.1215 C   0  0  0  0  0  0
   11.7975   38.7948   -3.2778 N   0  0  0  0  0  0
   11.9001   37.6928   -4.0483 C   0  0  0  0  0  0
   11.3125   36.4801   -3.6979 C   0  0  0  0  0  0
   10.5531   36.3748   -2.5147 C   0  0  0  0  0  0
   10.5129   37.5060   -1.6803 C   0  0  0  0  0  0
    9.6907   35.1752   -2.2562 C   0  0  0  0  0  0
    9.3511   34.3479   -3.3344 C   0  0  0  0  0  0
    8.0981   33.9755   -0.8521 C   0  0  0  0  0  0
    9.0642   34.9642   -1.0216 C   0  0  0  0  0  0
    7.0173   32.0094   -1.9390 N   0  0  0  0  0  0
    7.8845   33.0563   -1.8852 C   0  0  0  0  0  0
    8.5103   33.2511   -3.1272 C   0  0  0  0  0  0
    7.8698   32.3625   -3.9831 N   0  0  0  0  0  0
    6.9696   31.6560   -3.1995 C   0  0  0  0  0  0
    5.9810   30.6151   -3.7403 C   0  0  1  0  0  0
    4.4200   30.7752   -1.9003 O   0  0  0  0  0  0
    5.2203   29.8398   -2.6334 C   0  0  0  0  0  0
    3.5699   31.4940   -2.7069 C   0  0  0  0  0  0
    3.8670   31.7092   -4.0574 C   0  0  0  0  0  0
    2.9458   32.3665   -4.8693 C   0  0  0  0  0  0
    1.7721   32.8811   -4.3123 C   0  0  0  0  0  0
    1.5068   32.7133   -2.9503 C   0  0  0  0  0  0
    2.4045   32.0115   -2.1433 C   0  0  0  0  0  0
    7.9136   32.3771   -5.4497 C   0  0  0  0  0  0
    7.4177   33.7185   -6.0744 C   0  0  0  0  0  0
    6.1372   34.3316   -5.4979 C   0  0  0  0  0  0
    5.0118   34.5311   -6.3000 C   0  0  0  0  0  0
    3.9010   35.1756   -5.7535 C   0  0  0  0  0  0
    3.9010   35.5500   -4.4095 C   0  0  0  0  0  0
    4.9735   35.3078   -3.5998 C   0  0  0  0  0  0
    6.0939   34.7751   -4.1737 C   0  0  0  0  0  0
    5.0149   31.2032   -4.6409 O   0  0  0  0  0  0
   11.0344   39.5943   -1.5413 H   0  0  0  0  0  0
   12.4400   37.8051   -4.9776 H   0  0  0  0  0  0
   11.4065   35.6599   -4.3884 H   0  0  0  0  0  0
    9.9438   37.5298   -0.7652 H   0  0  0  0  0  0
    9.5390   34.6957   -4.3337 H   0  0  0  0  0  0
    7.5061   33.9338    0.0561 H   0  0  0  0  0  0
    9.2441   35.6282   -0.1900 H   0  0  0  0  0  0
    6.5574   29.8985   -4.3242 H   0  0  0  0  0  0
    4.5953   29.0651   -3.0823 H   0  0  0  0  0  0
    5.9152   29.3550   -1.9492 H   0  0  0  0  0  0
    3.1468   32.4812   -5.9234 H   0  0  0  0  0  0
    1.0678   33.4092   -4.9373 H   0  0  0  0  0  0
    0.5987   33.1144   -2.5231 H   0  0  0  0  0  0
    2.1942   31.8621   -1.0947 H   0  0  0  0  0  0
    8.9347   32.1588   -5.7601 H   0  0  0  0  0  0
    7.3198   31.5523   -5.8412 H   0  0  0  0  0  0
    8.1936   34.4803   -6.0245 H   0  0  0  0  0  0
    7.2826   33.5553   -7.1408 H   0  0  0  0  0  0
    5.0092   34.2334   -7.3386 H   0  0  0  0  0  0
    3.0355   35.3969   -6.3489 H   0  0  0  0  0  0
    3.1010   36.0803   -3.9407 H   0  0  0  0  0  0
    4.9737   35.6207   -2.5713 H   0  0  0  0  0  0
    6.9256   34.8126   -3.5286 H   0  0  0  0  0  0
  1  6  1  0  0  0
  1  2  2  0  0  0
  1 34  1  0  0  0
  2  3  1  0  0  0
  3  4  2  0  0  0
  3 35  1  0  0  0
  4  5  1  0  0  0
  4 36  1  0  0  0
  5  6  2  0  0  0
  5  7  1  0  0  0
  6 37  1  0  0  0
  7  8  2  0  0  0
  7 10  1  0  0  0
  8 13  1  0  0  0
  8 38  1  0  0  0
  9 12  1  0  0  0
  9 10  2  0  0  0
  9 39  1  0  0  0
 10 40  1  0  0  0
 11 12  1  0  0  0
 11 15  2  0  0  0
 12 13  2  0  0  0
 13 14  1  0  0  0
 14 25  1  0  0  0
 14 15  1  0  0  0
 15 16  1  0  0  0
 16 33  1  0  0  0
 16 18  1  0  0  0
 16 41  1  0  0  0
 17 19  1  0  0  0
 17 18  1  0  0  0
 18 42  1  0  0  0
 18 43  1  0  0  0
 19 20  2  0  0  0
 19 24  1  0  0  0
 20 33  1  0  0  0
 20 21  1  0  0  0
 21 22  2  0  0  0
 21 44  1  0  0  0
 22 23  1  0  0  0
 22 45  1  0  0  0
 23 24  2  0  0  0
 23 46  1  0  0  0
 24 47  1  0  0  0
 25 26  1  0  0  0
 25 48  1  0  0  0
 25 49  1  0  0  0
 26 27  1  0  0  0
 26 50  1  0  0  0
 26 51  1  0  0  0
 27 28  2  0  0  0
 27 32  1  0  0  0
 28 29  1  0  0  0
 28 52  1  0  0  0
 29 30  2  0  0  0
 29 53  1  0  0  0
 30 31  1  0  0  0
 30 54  1  0  0  0
 31 32  2  0  0  0
 31 55  1  0  0  0
 32 56  1  0  0  0
M  END
> <s_m_entry_id>
35883

> <s_m_entry_name>
dock_pv.39

> <s_m_Source_Path>
/home/csk/Desktop/cluster/DUD-E-result/cp2c9

> <s_m_Source_File>
dock_pv.maegz

> <i_m_Source_File_Index>
39

> <chembl_id>
CHEMBL1079339

> <chembl_pref_name>
None

> <i_lp_mmshare_version>
53161

> <i_f3d_flags>
0

> <r_lp_tautomer_probability>
1

> <s_lp_Force_Field>
OPLS_2005

> <r_lp_Energy>
22.937253

> <b_lp_Chiralities_Consistent>
1

> <s_lp_Variant>
CHEMBL3397_lig21-1

> <s_i_glide_gridfile>
glide-grid_1r9o

> <i_i_glide_lignum>
35

> <i_i_glide_rotatable_bonds>
5

> <r_i_docking_score>
-7.58266387648486

> <r_i_glide_ligand_efficiency>
-0.229777693226814

> <r_i_glide_ligand_efficiency_sa>
-0.737019838433257

> <r_i_glide_ligand_efficiency_ln>
-1.68634518519788

> <r_i_glide_gscore>
-7.58266387648486

> <r_i_glide_lipo>
-5.32677320964925

> <r_i_glide_hbond>
0

> <r_i_glide_metal>
0

> <r_i_glide_rewards>
-0.885623779488278

> <r_i_glide_evdw>
-33.6615219116211

> <r_i_glide_ecoul>
-1.44578051567078

> <r_i_glide_erotb>
0.529676285584333

> <r_i_glide_esite>
0

> <r_i_glide_emodel>
-40.717592830223

> <r_i_glide_energy>
-35.1073024272919

> <r_i_glide_einternal>
5.33525276184082

> <i_i_glide_confnum>
137

> <i_i_glide_posenum>
140

> <r_i_glide_eff_state_penalty>
0

> <s_user_duplicate_titles>
CHEMBL3397_lig21

> <s_m_subgroup_title>
dock_pv

> <s_m_subgroupid>
dock_pv

> <b_m_subgroup_collapsed>
1

$$$$
CHEMBL3397_lig34
                    3D
 Schrodinger Suite 2021-1.
 34 36  0  0  1  0            999 V2000
    5.1376   30.2615   -2.8267 C   0  0  0  0  0  0
    4.1064   30.5941   -3.9167 C   0  0  0  0  0  0
    3.1033   31.6505   -3.4915 C   0  0  0  0  0  0
    2.0724   31.1750   -2.7405 O   0  0  0  0  0  0
    1.2543   32.2253   -2.4758 C   0  0  0  0  0  0
    0.0659   32.1633   -1.7377 C   0  0  0  0  0  0
   -0.6206   33.3635   -1.5479 C   0  0  0  0  0  0
   -0.1210   34.5645   -2.0541 C   0  0  0  0  0  0
    1.0718   34.6086   -2.7846 C   0  0  0  0  0  0
    1.7685   33.4158   -3.0361 C   0  0  0  0  0  0
    2.9641   33.0206   -3.7363 C   0  0  0  0  0  0
    3.8579   33.8689   -4.5269 C   0  0  0  0  0  0
    3.4450   34.7570   -5.2667 O   0  0  0  0  0  0
    5.3059   33.6437   -4.3449 C   0  0  0  0  0  0
    5.8625   33.9502   -3.1060 C   0  0  0  0  0  0
    7.2008   33.6844   -2.8436 C   0  0  0  0  0  0
    7.9122   34.1217   -1.1328 Br  0  0  0  0  0  0
    7.9919   33.0892   -3.8264 C   0  0  0  0  0  0
    9.2924   32.7750   -3.5401 O   0  0  0  0  0  0
    7.4459   32.8042   -5.0851 C   0  0  0  0  0  0
    8.4906   31.9751   -6.4420 Br  0  0  0  0  0  0
    6.1084   33.1039   -5.3531 C   0  0  0  0  0  0
    5.8584   29.5246   -3.1832 H   0  0  0  0  0  0
    5.6963   31.1446   -2.5174 H   0  0  0  0  0  0
    4.6631   29.8494   -1.9387 H   0  0  0  0  0  0
    3.5886   29.6814   -4.2093 H   0  0  0  0  0  0
    4.6326   30.9135   -4.8117 H   0  0  0  0  0  0
   -0.2993   31.2328   -1.3295 H   0  0  0  0  0  0
   -1.5440   33.3696   -0.9838 H   0  0  0  0  0  0
   -0.6647   35.4803   -1.8695 H   0  0  0  0  0  0
    1.4561   35.5478   -3.1408 H   0  0  0  0  0  0
    5.2401   34.3791   -2.3410 H   0  0  0  0  0  0
    9.4751   31.8426   -3.6704 H   0  0  0  0  0  0
    5.6910   32.8689   -6.3229 H   0  0  0  0  0  0
  1  2  1  0  0  0
  1 23  1  0  0  0
  1 24  1  0  0  0
  1 25  1  0  0  0
  2  3  1  0  0  0
  2 26  1  0  0  0
  2 27  1  0  0  0
  3  4  1  0  0  0
  3 11  2  0  0  0
  4  5  1  0  0  0
  5  6  2  0  0  0
  5 10  1  0  0  0
  6  7  1  0  0  0
  6 28  1  0  0  0
  7  8  2  0  0  0
  7 29  1  0  0  0
  8  9  1  0  0  0
  8 30  1  0  0  0
  9 10  2  0  0  0
  9 31  1  0  0  0
 10 11  1  0  0  0
 11 12  1  0  0  0
 12 13  2  0  0  0
 12 14  1  0  0  0
 14 15  2  0  0  0
 14 22  1  0  0  0
 15 16  1  0  0  0
 15 32  1  0  0  0
 16 17  1  0  0  0
 16 18  2  0  0  0
 18 19  1  0  0  0
 18 20  1  0  0  0
 19 33  1  0  0  0
 20 21  1  0  0  0
 20 22  2  0  0  0
 22 34  1  0  0  0
M  END
> <s_m_entry_id>
35884

> <s_m_entry_name>
dock_pv.40

> <s_m_Source_Path>
/home/csk/Desktop/cluster/DUD-E-result/cp2c9

> <s_m_Source_File>
dock_pv.maegz

> <i_m_Source_File_Index>
40

> <chembl_id>
CHEMBL388590

> <chembl_pref_name>
BENZBROMARONE

> <i_lp_mmshare_version>
53161

> <i_f3d_flags>
0

> <r_lp_tautomer_probability>
1

> <s_lp_Force_Field>
OPLS_2005

> <r_lp_Energy>
13.985633

> <b_lp_Chiralities_Consistent>
1

> <s_lp_Variant>
CHEMBL3397_lig34-1

> <s_i_glide_gridfile>
glide-grid_1r9o

> <i_i_glide_lignum>
55

> <i_i_glide_rotatable_bonds>
4

> <r_i_docking_score>
-7.57429642726165

> <r_i_glide_ligand_efficiency>
-0.344286201239166

> <r_i_glide_ligand_efficiency_sa>
-0.964703475880099

> <r_i_glide_ligand_efficiency_ln>
-1.85143432599775

> <r_i_glide_gscore>
-7.57429642726165

> <r_i_glide_lipo>
-4.56231864786955

> <r_i_glide_hbond>
0

> <r_i_glide_metal>
0

> <r_i_glide_rewards>
-1.16299780551197

> <r_i_glide_evdw>
-37.3685188293457

> <r_i_glide_ecoul>
-1.34014308452606

> <r_i_glide_erotb>
0.220467430266054

> <r_i_glide_esite>
0

> <r_i_glide_emodel>
-48.7788870956748

> <r_i_glide_energy>
-38.7086619138718

> <r_i_glide_einternal>
15.4396152496338

> <i_i_glide_confnum>
14

> <i_i_glide_posenum>
274

> <r_i_glide_eff_state_penalty>
0

> <s_user_duplicate_titles>
CHEMBL3397_lig34,374182

> <s_m_subgroup_title>
dock_pv

> <s_m_subgroupid>
dock_pv

> <b_m_subgroup_collapsed>
1

$$$$
CHEMBL3397_lig129
                    3D
 Schrodinger Suite 2021-1.
 35 38  0  0  1  0            999 V2000
    5.1430   32.0696   -3.4443 N   0  0  0  0  0  0
    3.8592   32.4067   -3.0554 C   0  0  0  0  0  0
    3.1346   31.8164   -1.8540 C   0  0  0  0  0  0
    1.8685   32.6437   -1.5405 C   0  0  0  0  0  0
    1.1015   33.0630   -2.8060 C   0  0  0  0  0  0
    1.9447   33.9751   -3.7227 C   0  0  0  0  0  0
    3.3373   33.3807   -3.8940 C   0  0  0  0  0  0
    4.3473   33.6544   -4.8682 C   0  0  0  0  0  0
    4.4185   34.5116   -5.9733 C   0  0  0  0  0  0
    5.5786   34.5264   -6.7406 C   0  0  0  0  0  0
    6.6647   33.7238   -6.4107 C   0  0  0  0  0  0
    6.6608   32.8601   -5.3112 C   0  0  0  0  0  0
    5.4727   32.8289   -4.5614 C   0  0  0  0  0  0
    5.9620   30.9847   -2.8756 C   0  0  0  0  0  0
    7.4710   31.2567   -2.6275 C   0  0  0  0  0  0
    8.2083   32.1470   -3.5166 N   0  0  2  0  0  0
    7.8843   32.0512   -4.9328 C   0  0  0  0  0  0
    3.7733   31.7771   -0.9708 H   0  0  0  0  0  0
    2.8461   30.7925   -2.0934 H   0  0  0  0  0  0
    2.1487   33.5389   -0.9848 H   0  0  0  0  0  0
    1.2163   32.0747   -0.8758 H   0  0  0  0  0  0
    0.1778   33.5734   -2.5302 H   0  0  0  0  0  0
    0.7979   32.1683   -3.3522 H   0  0  0  0  0  0
    2.0177   34.9721   -3.2883 H   0  0  0  0  0  0
    1.4436   34.0863   -4.6851 H   0  0  0  0  0  0
    3.5854   35.1480   -6.2321 H   0  0  0  0  0  0
    5.6389   35.1834   -7.5960 H   0  0  0  0  0  0
    7.5512   33.7904   -7.0251 H   0  0  0  0  0  0
    5.5133   30.6279   -1.9502 H   0  0  0  0  0  0
    5.8709   30.1459   -3.5685 H   0  0  0  0  0  0
    7.9778   30.2950   -2.7337 H   0  0  0  0  0  0
    7.6495   31.5418   -1.5896 H   0  0  0  0  0  0
    9.2031   32.0281   -3.3837 H   0  0  0  0  0  0
    7.7070   31.0103   -5.2058 H   0  0  0  0  0  0
    8.7411   32.3750   -5.5202 H   0  0  0  0  0  0
  1  2  1  0  0  0
  1 13  1  0  0  0
  1 14  1  0  0  0
  2  3  1  0  0  0
  2  7  2  0  0  0
  3  4  1  0  0  0
  3 18  1  0  0  0
  3 19  1  0  0  0
  4  5  1  0  0  0
  4 20  1  0  0  0
  4 21  1  0  0  0
  5  6  1  0  0  0
  5 22  1  0  0  0
  5 23  1  0  0  0
  6  7  1  0  0  0
  6 24  1  0  0  0
  6 25  1  0  0  0
  7  8  1  0  0  0
  8  9  1  0  0  0
  8 13  2  0  0  0
  9 10  2  0  0  0
  9 26  1  0  0  0
 10 11  1  0  0  0
 10 27  1  0  0  0
 11 12  2  0  0  0
 11 28  1  0  0  0
 12 13  1  0  0  0
 12 17  1  0  0  0
 14 15  1  0  0  0
 14 29  1  0  0  0
 14 30  1  0  0  0
 15 16  1  0  0  0
 15 31  1  0  0  0
 15 32  1  0  0  0
 16 17  1  0  0  0
 16 33  1  0  0  0
 17 34  1  0  0  0
 17 35  1  0  0  0
M  END
> <s_m_entry_id>
35885

> <s_m_entry_name>
dock_pv.41

> <s_m_Source_Path>
/home/csk/Desktop/cluster/DUD-E-result/cp2c9

> <s_m_Source_File>
dock_pv.maegz

> <i_m_Source_File_Index>
41

> <chembl_id>
CHEMBL258465

> <chembl_pref_name>
None

> <i_lp_mmshare_version>
53161

> <i_f3d_flags>
0

> <r_lp_tautomer_probability>
1

> <s_lp_Force_Field>
OPLS_2005

> <r_lp_Energy>
41.94736

> <b_lp_Chiralities_Consistent>
1

> <s_lp_Variant>
CHEMBL3397_lig129-1

> <s_i_glide_gridfile>
glide-grid_1r9o

> <i_i_glide_lignum>
168

> <i_i_glide_rotatable_bonds>
0

> <r_i_docking_score>
-7.55769596312459

> <r_i_glide_ligand_efficiency>
-0.444570350772035

> <r_i_glide_ligand_efficiency_sa>
-1.14311555761304

> <r_i_glide_ligand_efficiency_ln>
-1.97163457516487

> <r_i_glide_gscore>
-7.55769596312459

> <r_i_glide_lipo>
-3.94830693396901

> <r_i_glide_hbond>
0

> <r_i_glide_metal>
0

> <r_i_glide_rewards>
-2.09010685448638

> <r_i_glide_evdw>
-30.5306529998779

> <r_i_glide_ecoul>
0.0483365021646023

> <r_i_glide_erotb>
0

> <r_i_glide_esite>
0

> <r_i_glide_emodel>
-44.4126881977767

> <r_i_glide_energy>
-30.4823164977133

> <r_i_glide_einternal>
0

> <i_i_glide_confnum>
1

> <i_i_glide_posenum>
225

> <r_i_glide_eff_state_penalty>
0

> <s_user_duplicate_titles>
CHEMBL3397_lig129

> <s_m_subgroup_title>
dock_pv

> <s_m_subgroupid>
dock_pv

> <b_m_subgroup_collapsed>
1

$$$$
CHEMBL3397_lig16
                    3D
 Schrodinger Suite 2021-1.
 46 50  0  0  1  0            999 V2000
   -1.2538   34.3196   -1.9038 C   0  0  0  0  0  0
   -1.8106   33.1700   -1.4535 N   0  0  0  0  0  0
   -1.0943   32.0248   -1.5380 C   0  0  0  0  0  0
    0.1910   31.9930   -2.0685 C   0  0  0  0  0  0
    0.7791   33.1859   -2.5135 C   0  0  0  0  0  0
    0.0309   34.3691   -2.4352 C   0  0  0  0  0  0
    2.1743   33.2163   -3.0177 C   0  0  0  0  0  0
    3.1918   32.5531   -2.3151 C   0  0  0  0  0  0
    3.7591   34.0786   -4.6786 C   0  0  0  0  0  0
    2.4648   33.9466   -4.1768 C   0  0  0  0  0  0
    6.1389   33.4322   -4.2502 N   0  0  0  0  0  0
    4.7934   33.4477   -3.9819 C   0  0  0  0  0  0
    4.4917   32.6892   -2.8239 C   0  0  0  0  0  0
    5.7127   32.2117   -2.4352 N   0  0  0  0  0  0
    6.6586   32.7070   -3.2882 C   0  0  0  0  0  0
    8.1251   32.3660   -3.0866 C   0  0  1  0  0  0
    9.1055   33.3712   -3.7110 C   0  0  0  0  0  0
    8.2964   33.4722   -0.9496 O   0  0  0  0  0  0
    8.4998   32.2131   -1.6002 C   0  0  0  0  0  0
    9.0881   34.4878   -1.4357 C   0  0  0  0  0  0
    9.4909   34.5209   -2.7769 C   0  0  0  0  0  0
   10.3035   35.5822   -3.1887 C   0  0  0  0  0  0
   10.7220   36.5699   -2.2931 C   0  0  0  0  0  0
   10.2783   36.5355   -0.9715 C   0  0  0  0  0  0
    9.4544   35.4958   -0.5421 C   0  0  0  0  0  0
    2.8851   31.8086   -1.1889 O   0  0  0  0  0  0
    3.8875   31.5784   -0.2077 C   0  0  0  0  0  0
   -1.8523   35.2140   -1.8165 H   0  0  0  0  0  0
   -1.5668   31.1198   -1.1812 H   0  0  0  0  0  0
    0.7240   31.0567   -2.1243 H   0  0  0  0  0  0
    0.4409   35.3112   -2.7671 H   0  0  0  0  0  0
    3.9566   34.6446   -5.5779 H   0  0  0  0  0  0
    1.6449   34.3914   -4.7157 H   0  0  0  0  0  0
    5.9370   31.6392   -1.6365 H   0  0  0  0  0  0
    8.2936   31.3981   -3.5639 H   0  0  0  0  0  0
    9.9979   32.7950   -3.9417 H   0  0  0  0  0  0
    8.6990   33.7648   -4.6419 H   0  0  0  0  0  0
    7.8894   31.4366   -1.1452 H   0  0  0  0  0  0
    9.5389   31.8915   -1.4918 H   0  0  0  0  0  0
   10.6327   35.6330   -4.2165 H   0  0  0  0  0  0
   11.3421   37.3854   -2.6359 H   0  0  0  0  0  0
   10.5650   37.3196   -0.2832 H   0  0  0  0  0  0
    9.1112   35.4671    0.4799 H   0  0  0  0  0  0
    3.4944   31.1743    0.7167 H   0  0  0  0  0  0
    4.6872   30.9107   -0.5344 H   0  0  0  0  0  0
    4.3018   32.5443    0.0735 H   0  0  0  0  0  0
  1  6  1  0  0  0
  1  2  2  0  0  0
  1 28  1  0  0  0
  2  3  1  0  0  0
  3  4  2  0  0  0
  3 29  1  0  0  0
  4  5  1  0  0  0
  4 30  1  0  0  0
  5  6  2  0  0  0
  5  7  1  0  0  0
  6 31  1  0  0  0
  7  8  2  0  0  0
  7 10  1  0  0  0
  8 13  1  0  0  0
  8 26  1  0  0  0
  9 12  1  0  0  0
  9 10  2  0  0  0
  9 32  1  0  0  0
 10 33  1  0  0  0
 11 12  1  0  0  0
 11 15  2  0  0  0
 12 13  2  0  0  0
 13 14  1  0  0  0
 14 15  1  0  0  0
 14 34  1  0  0  0
 15 16  1  0  0  0
 16 17  1  0  0  0
 16 19  1  0  0  0
 16 35  1  0  0  0
 17 21  1  0  0  0
 17 36  1  0  0  0
 17 37  1  0  0  0
 18 20  1  0  0  0
 18 19  1  0  0  0
 19 38  1  0  0  0
 19 39  1  0  0  0
 20 21  2  0  0  0
 20 25  1  0  0  0
 21 22  1  0  0  0
 22 23  2  0  0  0
 22 40  1  0  0  0
 23 24  1  0  0  0
 23 41  1  0  0  0
 24 25  2  0  0  0
 24 42  1  0  0  0
 25 43  1  0  0  0
 26 27  1  0  0  0
 27 44  1  0  0  0
 27 45  1  0  0  0
 27 46  1  0  0  0
M  END
> <s_m_entry_id>
35886

> <s_m_entry_name>
dock_pv.42

> <s_m_Source_Path>
/home/csk/Desktop/cluster/DUD-E-result/cp2c9

> <s_m_Source_File>
dock_pv.maegz

> <i_m_Source_File_Index>
42

> <chembl_id>
CHEMBL1077314

> <chembl_pref_name>
None

> <i_lp_mmshare_version>
53161

> <i_f3d_flags>
0

> <r_lp_tautomer_probability>
1

> <s_lp_Force_Field>
OPLS_2005

> <r_lp_Energy>
24.024909

> <b_lp_Chiralities_Consistent>
1

> <s_lp_Variant>
CHEMBL3397_lig16-2

> <s_i_glide_gridfile>
glide-grid_1r9o

> <i_i_glide_lignum>
26

> <i_i_glide_rotatable_bonds>
3

> <r_i_docking_score>
-7.55356784036164

> <r_i_glide_ligand_efficiency>
-0.279761771865246

> <r_i_glide_ligand_efficiency_sa>
-0.839285314673688

> <r_i_glide_ligand_efficiency_ln>
-1.75834606293777

> <r_i_glide_gscore>
-7.55356784036164

> <r_i_glide_lipo>
-4.41412645724951

> <r_i_glide_hbond>
0

> <r_i_glide_metal>
0

> <r_i_glide_rewards>
-1.39071812256942

> <r_i_glide_evdw>
-37.896167755127

> <r_i_glide_ecoul>
-1.02431750297546

> <r_i_glide_erotb>
0.299732752659955

> <r_i_glide_esite>
0

> <r_i_glide_emodel>
-51.8037057295299

> <r_i_glide_energy>
-38.9204852581024

> <r_i_glide_einternal>
2.32352662086487

> <i_i_glide_confnum>
14

> <i_i_glide_posenum>
160

> <r_i_glide_eff_state_penalty>
0

> <s_user_duplicate_titles>
CHEMBL3397_lig16

> <s_m_subgroup_title>
dock_pv

> <s_m_subgroupid>
dock_pv

> <b_m_subgroup_collapsed>
1

$$$$
CHEMBL3397_lig9
                    3D
 Schrodinger Suite 2021-1.
 40 44  0  0  1  0            999 V2000
   -0.8618   33.5774   -1.5537 C   0  0  0  0  0  0
   -1.3227   32.3017   -1.5414 N   0  0  0  0  0  0
   -0.4758   31.3199   -1.9347 C   0  0  0  0  0  0
    0.8367   31.5747   -2.3361 C   0  0  0  0  0  0
    1.3225   32.8847   -2.3217 C   0  0  0  0  0  0
    0.4398   33.9071   -1.9414 C   0  0  0  0  0  0
    2.7297   33.1759   -2.7056 C   0  0  0  0  0  0
    3.7899   32.4188   -2.1757 C   0  0  0  0  0  0
    4.2757   34.5857   -3.9792 C   0  0  0  0  0  0
    2.9851   34.2271   -3.5917 C   0  0  0  0  0  0
    6.6795   33.9760   -3.7050 N   0  0  0  0  0  0
    5.3409   33.8413   -3.4617 C   0  0  0  0  0  0
    5.0862   32.7703   -2.5711 C   0  0  0  0  0  0
    6.3420   32.2755   -2.2923 N   0  0  0  0  0  0
    7.2528   33.0257   -3.0067 C   0  0  0  0  0  0
    8.7432   32.7046   -3.1067 C   0  0  1  0  0  0
    9.5004   33.8609   -3.4887 O   0  0  0  0  0  0
    9.5068   32.9666   -0.7730 O   0  0  0  0  0  0
    9.4159   32.0545   -1.8680 C   0  0  0  0  0  0
    9.9041   34.2418   -1.1215 C   0  0  0  0  0  0
    9.8715   34.6881   -2.4484 C   0  0  0  0  0  0
   10.3011   35.9738   -2.7628 C   0  0  0  0  0  0
   10.7014   36.8428   -1.7448 C   0  0  0  0  0  0
   10.6954   36.4151   -0.4153 C   0  0  0  0  0  0
   10.3010   35.1128   -0.1026 C   0  0  0  0  0  0
   -1.5540   34.3409   -1.2294 H   0  0  0  0  0  0
   -0.8763   30.3169   -1.9378 H   0  0  0  0  0  0
    1.4757   30.7742   -2.6712 H   0  0  0  0  0  0
    0.7646   34.9368   -1.9166 H   0  0  0  0  0  0
    3.6100   31.6068   -1.4868 H   0  0  0  0  0  0
    4.4468   35.4032   -4.6642 H   0  0  0  0  0  0
    2.1434   34.7750   -3.9799 H   0  0  0  0  0  0
    6.5960   31.5017   -1.6975 H   0  0  0  0  0  0
    8.8330   32.0080   -3.9407 H   0  0  0  0  0  0
    8.8609   31.1768   -1.5401 H   0  0  0  0  0  0
   10.4205   31.7277   -2.1398 H   0  0  0  0  0  0
   10.3017   36.3039   -3.7924 H   0  0  0  0  0  0
   11.0045   37.8527   -1.9832 H   0  0  0  0  0  0
   10.9964   37.0925    0.3712 H   0  0  0  0  0  0
   10.3081   34.7822    0.9258 H   0  0  0  0  0  0
  1  6  1  0  0  0
  1  2  2  0  0  0
  1 26  1  0  0  0
  2  3  1  0  0  0
  3  4  2  0  0  0
  3 27  1  0  0  0
  4  5  1  0  0  0
  4 28  1  0  0  0
  5  6  2  0  0  0
  5  7  1  0  0  0
  6 29  1  0  0  0
  7  8  2  0  0  0
  7 10  1  0  0  0
  8 13  1  0  0  0
  8 30  1  0  0  0
  9 12  1  0  0  0
  9 10  2  0  0  0
  9 31  1  0  0  0
 10 32  1  0  0  0
 11 12  1  0  0  0
 11 15  2  0  0  0
 12 13  2  0  0  0
 13 14  1  0  0  0
 14 15  1  0  0  0
 14 33  1  0  0  0
 15 16  1  0  0  0
 16 17  1  0  0  0
 16 19  1  0  0  0
 16 34  1  0  0  0
 17 21  1  0  0  0
 18 20  1  0  0  0
 18 19  1  0  0  0
 19 35  1  0  0  0
 19 36  1  0  0  0
 20 21  2  0  0  0
 20 25  1  0  0  0
 21 22  1  0  0  0
 22 23  2  0  0  0
 22 37  1  0  0  0
 23 24  1  0  0  0
 23 38  1  0  0  0
 24 25  2  0  0  0
 24 39  1  0  0  0
 25 40  1  0  0  0
M  END
> <s_m_entry_id>
35887

> <s_m_entry_name>
dock_pv.43

> <s_m_Source_Path>
/home/csk/Desktop/cluster/DUD-E-result/cp2c9

> <s_m_Source_File>
dock_pv.maegz

> <i_m_Source_File_Index>
43

> <chembl_id>
CHEMBL1089378

> <chembl_pref_name>
None

> <i_lp_mmshare_version>
53161

> <i_f3d_flags>
0

> <r_lp_tautomer_probability>
1

> <s_lp_Force_Field>
OPLS_2005

> <r_lp_Energy>
17.05586

> <b_lp_Chiralities_Consistent>
1

> <s_lp_Variant>
CHEMBL3397_lig9-2

> <s_i_glide_gridfile>
glide-grid_1r9o

> <i_i_glide_lignum>
12

> <i_i_glide_rotatable_bonds>
2

> <r_i_docking_score>
-7.538505247659

> <r_i_glide_ligand_efficiency>
-0.30154020990636

> <r_i_glide_ligand_efficiency_sa>
-0.88170892160459

> <r_i_glide_ligand_efficiency_ln>
-1.78685165446757

> <r_i_glide_gscore>
-7.538505247659

> <r_i_glide_lipo>
-4.12332229466824

> <r_i_glide_hbond>
0

> <r_i_glide_metal>
0

> <r_i_glide_rewards>
-1.5338221175086

> <r_i_glide_evdw>
-40.3450927734375

> <r_i_glide_ecoul>
-1.40414261817932

> <r_i_glide_erotb>
0.346515195916619

> <r_i_glide_esite>
0

> <r_i_glide_emodel>
-56.3934395321084

> <r_i_glide_energy>
-41.7492353916168

> <r_i_glide_einternal>
0.665241181850433

> <i_i_glide_confnum>
22

> <i_i_glide_posenum>
59

> <r_i_glide_eff_state_penalty>
0

> <s_user_duplicate_titles>
CHEMBL3397_lig9

> <s_m_subgroup_title>
dock_pv

> <s_m_subgroupid>
dock_pv

> <b_m_subgroup_collapsed>
1

$$$$
CHEMBL3397_lig24
                    3D
 Schrodinger Suite 2021-1.
 54 59  0  0  1  0            999 V2000
   11.0274   38.0042   -1.5753 C   0  0  0  0  0  0
   11.5031   38.5157   -2.7396 N   0  0  0  0  0  0
   11.5222   37.7098   -3.8255 C   0  0  0  0  0  0
   11.0292   36.4070   -3.7934 C   0  0  0  0  0  0
   10.4896   35.8947   -2.5985 C   0  0  0  0  0  0
   10.5280   36.7079   -1.4602 C   0  0  0  0  0  0
    9.7656   34.5959   -2.5640 C   0  0  0  0  0  0
    8.7971   34.3736   -3.5446 C   0  0  0  0  0  0
    9.2332   32.4682   -1.5017 C   0  0  0  0  0  0
    9.9800   33.6446   -1.5611 C   0  0  0  0  0  0
    7.2833   31.2968   -2.4995 N   0  0  0  0  0  0
    8.1935   32.3006   -2.4277 C   0  0  0  0  0  0
    7.9690   33.2534   -3.4429 C   0  0  0  0  0  0
    6.8423   32.7931   -4.1294 N   0  0  0  0  0  0
    6.4420   31.6404   -3.4478 C   0  0  0  0  0  0
    5.2431   30.7132   -3.7495 C   0  0  1  0  0  0
    4.0847   31.1750   -1.6770 O   0  0  0  0  0  0
    4.6445   30.1095   -2.4580 C   0  0  0  0  0  0
    3.1273   31.8713   -2.3807 C   0  0  0  0  0  0
    3.1590   31.9292   -3.7783 C   0  0  0  0  0  0
    2.1514   32.6069   -4.4621 C   0  0  0  0  0  0
    1.1604   33.2870   -3.7516 C   0  0  0  0  0  0
    1.1476   33.2503   -2.3567 C   0  0  0  0  0  0
    2.1259   32.5308   -1.6728 C   0  0  0  0  0  0
    6.0752   33.4622   -5.2018 C   0  0  0  0  0  0
    5.1177   34.4877   -4.5720 C   0  0  0  0  0  0
    4.1612   34.9790   -5.6716 C   0  0  0  0  0  0
    4.8757   35.5732   -6.7428 O   0  0  0  0  0  0
    5.8982   34.7794   -7.3253 C   0  0  0  0  0  0
    6.8888   34.1813   -6.2950 C   0  0  0  0  0  0
    4.1508   31.2940   -4.5083 O   0  0  0  0  0  0
   11.0170   38.6832   -0.7372 H   0  0  0  0  0  0
   11.8975   38.1412   -4.7443 H   0  0  0  0  0  0
   11.0049   35.8533   -4.7166 H   0  0  0  0  0  0
   10.1086   36.3723   -0.5230 H   0  0  0  0  0  0
    8.7014   35.1011   -4.3245 H   0  0  0  0  0  0
    9.4094   31.7346   -0.7300 H   0  0  0  0  0  0
   10.7304   33.8195   -0.8048 H   0  0  0  0  0  0
    5.6355   29.8898   -4.3438 H   0  0  0  0  0  0
    3.8826   29.3793   -2.7291 H   0  0  0  0  0  0
    5.3932   29.5733   -1.8807 H   0  0  0  0  0  0
    2.1402   32.6033   -5.5361 H   0  0  0  0  0  0
    0.3964   33.8344   -4.2827 H   0  0  0  0  0  0
    0.3762   33.7693   -1.8057 H   0  0  0  0  0  0
    2.1054   32.4801   -0.6013 H   0  0  0  0  0  0
    5.5613   32.6512   -5.7129 H   0  0  0  0  0  0
    4.5314   34.0711   -3.7575 H   0  0  0  0  0  0
    5.6695   35.3414   -4.1746 H   0  0  0  0  0  0
    3.5450   34.1797   -6.0737 H   0  0  0  0  0  0
    3.5013   35.7342   -5.2545 H   0  0  0  0  0  0
    5.4342   33.9880   -7.9149 H   0  0  0  0  0  0
    6.4387   35.4333   -8.0064 H   0  0  0  0  0  0
    7.5039   34.9916   -5.9248 H   0  0  0  0  0  0
    7.5324   33.4714   -6.8149 H   0  0  0  0  0  0
  1  6  1  0  0  0
  1  2  2  0  0  0
  1 32  1  0  0  0
  2  3  1  0  0  0
  3  4  2  0  0  0
  3 33  1  0  0  0
  4  5  1  0  0  0
  4 34  1  0  0  0
  5  6  2  0  0  0
  5  7  1  0  0  0
  6 35  1  0  0  0
  7  8  2  0  0  0
  7 10  1  0  0  0
  8 13  1  0  0  0
  8 36  1  0  0  0
  9 12  1  0  0  0
  9 10  2  0  0  0
  9 37  1  0  0  0
 10 38  1  0  0  0
 11 12  1  0  0  0
 11 15  2  0  0  0
 12 13  2  0  0  0
 13 14  1  0  0  0
 14 25  1  0  0  0
 14 15  1  0  0  0
 15 16  1  0  0  0
 16 31  1  0  0  0
 16 18  1  0  0  0
 16 39  1  0  0  0
 17 19  1  0  0  0
 17 18  1  0  0  0
 18 40  1  0  0  0
 18 41  1  0  0  0
 19 20  2  0  0  0
 19 24  1  0  0  0
 20 31  1  0  0  0
 20 21  1  0  0  0
 21 22  2  0  0  0
 21 42  1  0  0  0
 22 23  1  0  0  0
 22 43  1  0  0  0
 23 24  2  0  0  0
 23 44  1  0  0  0
 24 45  1  0  0  0
 25 26  1  0  0  0
 25 30  1  0  0  0
 25 46  1  0  0  0
 26 27  1  0  0  0
 26 47  1  0  0  0
 26 48  1  0  0  0
 27 28  1  0  0  0
 27 49  1  0  0  0
 27 50  1  0  0  0
 28 29  1  0  0  0
 29 30  1  0  0  0
 29 51  1  0  0  0
 29 52  1  0  0  0
 30 53  1  0  0  0
 30 54  1  0  0  0
M  END
> <s_m_entry_id>
35888

> <s_m_entry_name>
dock_pv.44

> <s_m_Source_Path>
/home/csk/Desktop/cluster/DUD-E-result/cp2c9

> <s_m_Source_File>
dock_pv.maegz

> <i_m_Source_File_Index>
44

> <chembl_id>
CHEMBL1081324

> <chembl_pref_name>
None

> <i_lp_mmshare_version>
53161

> <i_f3d_flags>
0

> <r_lp_tautomer_probability>
1

> <s_lp_Force_Field>
OPLS_2005

> <r_lp_Energy>
31.653664

> <b_lp_Chiralities_Consistent>
1

> <s_lp_Variant>
CHEMBL3397_lig24-1

> <s_i_glide_gridfile>
glide-grid_1r9o

> <i_i_glide_lignum>
41

> <i_i_glide_rotatable_bonds>
3

> <r_i_docking_score>
-7.53744163066244

> <r_i_glide_ligand_efficiency>
-0.243143278408466

> <r_i_glide_ligand_efficiency_sa>
-0.763805589677068

> <r_i_glide_ligand_efficiency_ln>
-1.69992408255893

> <r_i_glide_gscore>
-7.53744163066244

> <r_i_glide_lipo>
-4.76528908433638

> <r_i_glide_hbond>
0

> <r_i_glide_metal>
0

> <r_i_glide_rewards>
-1.1969991689493

> <r_i_glide_evdw>
-37.3849449157715

> <r_i_glide_ecoul>
-0.347396492958069

> <r_i_glide_erotb>
0.346203342355534

> <r_i_glide_esite>
0

> <r_i_glide_emodel>
-37.6682347109411

> <r_i_glide_energy>
-37.7323414087296

> <r_i_glide_einternal>
3.76751899719238

> <i_i_glide_confnum>
57

> <i_i_glide_posenum>
261

> <r_i_glide_eff_state_penalty>
0

> <s_user_duplicate_titles>
CHEMBL3397_lig24

> <s_m_subgroup_title>
dock_pv

> <s_m_subgroupid>
dock_pv

> <b_m_subgroup_collapsed>
1

$$$$
CHEMBL3397_lig135
                    3D
 Schrodinger Suite 2021-1.
 42 45  0  0  1  0            999 V2000
   -1.0787   36.5442   -1.5408 F   0  0  0  0  0  0
   -2.7878   34.6015   -0.6611 F   0  0  0  0  0  0
    2.3805   31.1920   -2.2536 O   0  0  0  0  0  0
    8.3654   33.1588   -2.0962 O   0  0  0  0  0  0
    3.7130   31.6792   -4.0447 N   0  0  0  0  0  0
    2.2973   34.0345   -4.3784 N   0  0  0  0  0  0
    5.2951   32.3751   -5.7688 N   0  0  0  0  0  0
    5.1053   34.6037   -6.7085 N   0  0  0  0  0  0
    1.9247   33.2089   -3.4630 C   0  0  0  0  0  0
    4.1742   32.6110   -5.0263 C   0  0  0  0  0  0
    2.6724   31.9419   -3.1808 C   0  0  0  0  0  0
    3.4697   33.8157   -5.1186 C   0  0  0  0  0  0
    0.7084   33.5394   -2.6553 C   0  0  0  0  0  0
    4.4848   30.4425   -3.8090 C   0  0  0  0  0  0
    3.9739   34.7893   -5.9799 C   0  0  0  0  0  0
    0.4040   34.8849   -2.3856 C   0  0  0  0  0  0
    5.9113   30.6190   -3.3111 C   0  0  0  0  0  0
   -0.1829   32.5549   -2.1877 C   0  0  0  0  0  0
   -0.7765   35.2409   -1.7338 C   0  0  0  0  0  0
    5.7072   33.3927   -6.5717 C   0  0  0  0  0  0
   -1.6481   34.2552   -1.2930 C   0  0  0  0  0  0
   -1.3482   32.9134   -1.5107 C   0  0  0  0  0  0
    6.4046   31.8369   -2.8097 C   0  0  0  0  0  0
    6.7685   29.5307   -3.4478 C   0  0  0  0  0  0
    7.7690   31.9871   -2.5197 C   0  0  0  0  0  0
    8.1154   29.6643   -3.1407 C   0  0  0  0  0  0
    8.6093   30.8890   -2.6856 C   0  0  0  0  0  0
    7.6190   34.3654   -2.1741 C   0  0  0  0  0  0
    4.5209   29.8888   -4.7418 H   0  0  0  0  0  0
    3.9942   29.7625   -3.1128 H   0  0  0  0  0  0
    3.4991   35.7535   -6.0776 H   0  0  0  0  0  0
    1.0708   35.6767   -2.6998 H   0  0  0  0  0  0
   -0.0158   31.5023   -2.3780 H   0  0  0  0  0  0
    6.6079   33.2272   -7.1435 H   0  0  0  0  0  0
   -2.0287   32.1604   -1.1456 H   0  0  0  0  0  0
    5.7285   32.6687   -2.6791 H   0  0  0  0  0  0
    6.3945   28.5830   -3.8166 H   0  0  0  0  0  0
    8.7654   28.8092   -3.2508 H   0  0  0  0  0  0
    9.6557   31.0052   -2.4613 H   0  0  0  0  0  0
    8.2319   35.1990   -1.8330 H   0  0  0  0  0  0
    7.3108   34.5735   -3.1993 H   0  0  0  0  0  0
    6.7352   34.3260   -1.5407 H   0  0  0  0  0  0
  1 19  1  0  0  0
  2 21  1  0  0  0
  3 11  2  0  0  0
  4 25  1  0  0  0
  4 28  1  0  0  0
  5 10  1  0  0  0
  5 11  1  0  0  0
  5 14  1  0  0  0
  6  9  2  0  0  0
  6 12  1  0  0  0
  7 10  1  0  0  0
  7 20  2  0  0  0
  8 15  2  0  0  0
  8 20  1  0  0  0
  9 11  1  0  0  0
  9 13  1  0  0  0
 10 12  2  0  0  0
 12 15  1  0  0  0
 13 16  2  0  0  0
 13 18  1  0  0  0
 14 17  1  0  0  0
 14 29  1  0  0  0
 14 30  1  0  0  0
 15 31  1  0  0  0
 16 19  1  0  0  0
 16 32  1  0  0  0
 17 23  2  0  0  0
 17 24  1  0  0  0
 18 22  2  0  0  0
 18 33  1  0  0  0
 19 21  2  0  0  0
 20 34  1  0  0  0
 21 22  1  0  0  0
 22 35  1  0  0  0
 23 25  1  0  0  0
 23 36  1  0  0  0
 24 26  2  0  0  0
 24 37  1  0  0  0
 25 27  2  0  0  0
 26 27  1  0  0  0
 26 38  1  0  0  0
 27 39  1  0  0  0
 28 40  1  0  0  0
 28 41  1  0  0  0
 28 42  1  0  0  0
M  END
> <s_m_entry_id>
35890

> <s_m_entry_name>
dock_pv.46

> <s_m_Source_Path>
/home/csk/Desktop/cluster/DUD-E-result/cp2c9

> <s_m_Source_File>
dock_pv.maegz

> <i_m_Source_File_Index>
46

> <chembl_id>
CHEMBL1611856

> <chembl_pref_name>
None

> <i_lp_mmshare_version>
53161

> <i_f3d_flags>
0

> <r_lp_tautomer_probability>
1

> <s_lp_Force_Field>
OPLS_2005

> <r_lp_Energy>
35.240469

> <b_lp_Chiralities_Consistent>
1

> <s_lp_Variant>
CHEMBL3397_lig135-1

> <s_i_glide_gridfile>
glide-grid_1r9o

> <i_i_glide_lignum>
174

> <i_i_glide_rotatable_bonds>
4

> <r_i_docking_score>
-7.49124692417425

> <r_i_glide_ligand_efficiency>
-0.267544533006223

> <r_i_glide_ligand_efficiency_sa>
-0.812422777509936

> <r_i_glide_ligand_efficiency_ln>
-1.72919974266665

> <r_i_glide_gscore>
-7.49124692417425

> <r_i_glide_lipo>
-4.71475764978001

> <r_i_glide_hbond>
0

> <r_i_glide_metal>
0

> <r_i_glide_rewards>
-0.933828724362601

> <r_i_glide_evdw>
-40.1312484741211

> <r_i_glide_ecoul>
-1.58932745456696

> <r_i_glide_erotb>
0.402300991859452

> <r_i_glide_esite>
0

> <r_i_glide_emodel>
-57.7645923034935

> <r_i_glide_energy>
-41.720575928688

> <r_i_glide_einternal>
2.04814910888672

> <i_i_glide_confnum>
1

> <i_i_glide_posenum>
328

> <r_i_glide_eff_state_penalty>
0

> <s_user_duplicate_titles>
CHEMBL3397_lig135

> <s_m_subgroup_title>
dock_pv

> <s_m_subgroupid>
dock_pv

> <b_m_subgroup_collapsed>
1

$$$$
CHEMBL3397_lig70
                    3D
 Schrodinger Suite 2021-1.
 49 51  0  0  1  0            999 V2000
    4.8097   31.4527   -4.1406 C   0  0  0  0  0  0
    3.1346   33.1683   -4.2155 C   0  0  0  0  0  0
    4.2099   33.5424   -5.1479 C   0  0  0  0  0  0
    3.4640   31.9387   -3.6530 C   0  0  0  0  0  0
    5.1923   32.5512   -5.1100 C   0  0  0  0  0  0
    7.3718   32.7725   -1.9440 C   0  0  0  0  0  0
    7.5169   34.1418   -1.7640 N   0  0  0  0  0  0
    8.7611   34.6969   -1.2121 C   0  0  1  0  0  0
    9.9564   34.5563   -2.1702 C   0  0  0  0  0  0
    5.8332   31.2625   -3.0027 C   0  0  0  0  0  0
    6.1655   32.5344   -2.4523 O   0  0  0  0  0  0
    8.2264   31.9139   -1.7065 O   0  0  0  0  0  0
   10.3033   35.4068   -2.9617 O   0  0  0  0  0  0
    8.5321   36.1437   -0.6979 C   0  0  0  0  0  0
   10.5774   33.3602   -1.9414 O   0  0  0  0  0  0
    4.3679   34.6538   -5.9750 C   0  0  0  0  0  0
    1.9531   33.8140   -3.8418 C   0  0  0  0  0  0
    2.5983   31.3378   -2.7474 C   0  0  0  0  0  0
    6.3593   32.6907   -5.8632 C   0  0  0  0  0  0
    9.6606   36.7794    0.1617 C   0  0  0  0  0  0
   10.7756   37.4442   -0.6639 C   0  0  0  0  0  0
   10.2481   35.8454    1.2334 C   0  0  0  0  0  0
    5.5261   34.7751   -6.7444 C   0  0  0  0  0  0
    1.0985   33.2202   -2.9132 C   0  0  0  0  0  0
    1.4167   31.9762   -2.3692 C   0  0  0  0  0  0
    6.5301   33.8107   -6.6705 C   0  0  0  0  0  0
    4.6871   30.5051   -4.6652 H   0  0  0  0  0  0
    6.8072   34.7600   -2.1282 H   0  0  0  0  0  0
    8.9747   34.0966   -0.3410 H   0  0  0  0  0  0
    6.7195   30.7716   -3.4112 H   0  0  0  0  0  0
    5.4380   30.6107   -2.2226 H   0  0  0  0  0  0
    7.6435   36.1374   -0.0644 H   0  0  0  0  0  0
    8.3012   36.7981   -1.5376 H   0  0  0  0  0  0
    9.9919   32.7369   -1.4945 H   0  0  0  0  0  0
    3.6124   35.4237   -6.0273 H   0  0  0  0  0  0
    1.6899   34.7746   -4.2453 H   0  0  0  0  0  0
    2.8583   30.3778   -2.3414 H   0  0  0  0  0  0
    7.1406   31.9458   -5.8165 H   0  0  0  0  0  0
    9.1827   37.5971    0.7036 H   0  0  0  0  0  0
   11.6554   36.8046   -0.7388 H   0  0  0  0  0  0
   11.0940   38.3728   -0.1941 H   0  0  0  0  0  0
   10.4542   37.6905   -1.6755 H   0  0  0  0  0  0
   10.7359   34.9697    0.8038 H   0  0  0  0  0  0
   11.0106   36.3708    1.8049 H   0  0  0  0  0  0
    9.4842   35.5059    1.9332 H   0  0  0  0  0  0
    5.6532   35.6347   -7.3858 H   0  0  0  0  0  0
    0.1869   33.7206   -2.6191 H   0  0  0  0  0  0
    0.7514   31.5113   -1.6558 H   0  0  0  0  0  0
    7.4449   33.9296   -7.2299 H   0  0  0  0  0  0
  1  4  1  0  0  0
  1  5  1  0  0  0
  1 10  1  0  0  0
  1 27  1  0  0  0
  2  4  1  0  0  0
  2 17  2  0  0  0
  2  3  1  0  0  0
  3  5  2  0  0  0
  3 16  1  0  0  0
  4 18  2  0  0  0
  5 19  1  0  0  0
  6 11  1  0  0  0
  6  7  1  0  0  0
  6 12  2  0  0  0
  7  8  1  0  0  0
  7 28  1  0  0  0
  8  9  1  0  0  0
  8 14  1  0  0  0
  8 29  1  0  0  0
  9 13  2  0  0  0
  9 15  1  0  0  0
 10 11  1  0  0  0
 10 30  1  0  0  0
 10 31  1  0  0  0
 14 20  1  0  0  0
 14 32  1  0  0  0
 14 33  1  0  0  0
 15 34  1  0  0  0
 16 23  2  0  0  0
 16 35  1  0  0  0
 17 24  1  0  0  0
 17 36  1  0  0  0
 18 25  1  0  0  0
 18 37  1  0  0  0
 19 26  2  0  0  0
 19 38  1  0  0  0
 20 21  1  0  0  0
 20 22  1  0  0  0
 20 39  1  0  0  0
 21 40  1  0  0  0
 21 41  1  0  0  0
 21 42  1  0  0  0
 22 43  1  0  0  0
 22 44  1  0  0  0
 22 45  1  0  0  0
 23 26  1  0  0  0
 23 46  1  0  0  0
 24 25  2  0  0  0
 24 47  1  0  0  0
 25 48  1  0  0  0
 26 49  1  0  0  0
M  END
> <s_m_entry_id>
35891

> <s_m_entry_name>
dock_pv.47

> <s_m_Source_Path>
/home/csk/Desktop/cluster/DUD-E-result/cp2c9

> <s_m_Source_File>
dock_pv.maegz

> <i_m_Source_File_Index>
47

> <chembl_id>
CHEMBL152028

> <chembl_pref_name>
N- (9-FLUORENYLMETHOXYCARBONYL)-L-LEUCINE

> <i_lp_mmshare_version>
53161

> <i_f3d_flags>
0

> <r_lp_tautomer_probability>
1

> <s_lp_Force_Field>
OPLS_2005

> <r_lp_Energy>
26.508069

> <b_lp_Chiralities_Consistent>
1

> <s_lp_Variant>
CHEMBL3397_lig70-1

> <s_i_glide_gridfile>
glide-grid_1r9o

> <i_i_glide_lignum>
101

> <i_i_glide_rotatable_bonds>
9

> <r_i_docking_score>
-7.4857418020344

> <r_i_glide_ligand_efficiency>
-0.287913146232092

> <r_i_glide_ligand_efficiency_sa>
-0.852941562829048

> <r_i_glide_ligand_efficiency_ln>
-1.7580018994855

> <r_i_glide_gscore>
-7.4857418020344

> <r_i_glide_lipo>
-4.60742556301219

> <r_i_glide_hbond>
0

> <r_i_glide_metal>
0

> <r_i_glide_rewards>
-1.81047109168613

> <r_i_glide_evdw>
-38.8895568847656

> <r_i_glide_ecoul>
-0.271572589874268

> <r_i_glide_erotb>
0.917368585383347

> <r_i_glide_esite>
0

> <r_i_glide_emodel>
-49.4727633640271

> <r_i_glide_energy>
-39.1611294746399

> <r_i_glide_einternal>
6.08966827392578

> <i_i_glide_confnum>
15

> <i_i_glide_posenum>
51

> <r_i_glide_eff_state_penalty>
0

> <s_user_duplicate_titles>
CHEMBL3397_lig70

> <s_m_subgroup_title>
dock_pv

> <s_m_subgroupid>
dock_pv

> <b_m_subgroup_collapsed>
1

$$$$
CHEMBL3397_lig23
                    3D
 Schrodinger Suite 2021-1.
 50 54  0  0  1  0            999 V2000
   -0.4003   31.2879   -1.9412 C   0  0  0  0  0  0
   -1.2679   32.2469   -1.5407 N   0  0  0  0  0  0
   -0.8277   33.5295   -1.5411 C   0  0  0  0  0  0
    0.4621   33.8888   -1.9425 C   0  0  0  0  0  0
    1.3571   32.8968   -2.3824 C   0  0  0  0  0  0
    0.8929   31.5750   -2.3840 C   0  0  0  0  0  0
    2.7509   33.2271   -2.8225 C   0  0  0  0  0  0
    3.8090   32.3296   -2.5953 C   0  0  0  0  0  0
    4.3015   34.8686   -3.7823 C   0  0  0  0  0  0
    3.0146   34.4583   -3.4345 C   0  0  0  0  0  0
    6.7046   34.1951   -3.6883 N   0  0  0  0  0  0
    5.3651   34.0046   -3.5025 C   0  0  0  0  0  0
    5.1084   32.7427   -2.9331 C   0  0  0  0  0  0
    6.3584   32.1528   -2.8295 N   0  0  0  0  0  0
    7.2915   33.0973   -3.2634 C   0  0  0  0  0  0
    8.8263   32.9258   -3.3862 C   0  0  2  0  0  0
    9.5284   32.8478   -1.0451 O   0  0  0  0  0  0
    9.6083   32.1472   -2.2896 C   0  0  0  0  0  0
    9.8992   34.1767   -1.1467 C   0  0  0  0  0  0
    9.8599   34.8448   -2.3753 C   0  0  0  0  0  0
   10.3012   36.1631   -2.4709 C   0  0  0  0  0  0
   10.6961   36.8544   -1.3240 C   0  0  0  0  0  0
   10.6875   36.2080   -0.0865 C   0  0  0  0  0  0
   10.3018   34.8679    0.0003 C   0  0  0  0  0  0
    6.5749   30.8021   -2.3215 C   0  0  0  0  0  0
    6.8482   29.7624   -3.4169 C   0  0  0  0  0  0
    5.6018   29.1805   -3.7888 O   0  0  0  0  0  0
    5.6948   27.8436   -4.2625 C   0  0  0  0  0  0
    9.4961   34.1983   -3.5408 O   0  0  0  0  0  0
   -0.7724   30.2736   -1.9400 H   0  0  0  0  0  0
   -1.5265   34.2749   -1.1898 H   0  0  0  0  0  0
    0.7567   34.9266   -1.8937 H   0  0  0  0  0  0
    1.5236   30.7754   -2.7403 H   0  0  0  0  0  0
    3.6312   31.3727   -2.1317 H   0  0  0  0  0  0
    4.4763   35.8418   -4.2124 H   0  0  0  0  0  0
    2.2042   35.1583   -3.5502 H   0  0  0  0  0  0
    8.9777   32.4035   -4.3326 H   0  0  0  0  0  0
   10.6570   32.0837   -2.5895 H   0  0  0  0  0  0
    9.2833   31.1187   -2.1749 H   0  0  0  0  0  0
   10.3121   36.6546   -3.4332 H   0  0  0  0  0  0
   11.0064   37.8883   -1.3909 H   0  0  0  0  0  0
   10.9982   36.7395    0.8013 H   0  0  0  0  0  0
   10.3446   34.3750    0.9598 H   0  0  0  0  0  0
    7.3446   30.8220   -1.5531 H   0  0  0  0  0  0
    5.6668   30.5076   -1.7960 H   0  0  0  0  0  0
    7.3355   30.2070   -4.2865 H   0  0  0  0  0  0
    7.5263   29.0093   -3.0081 H   0  0  0  0  0  0
    4.7048   27.4523   -4.4882 H   0  0  0  0  0  0
    6.3005   27.7754   -5.1518 H   0  0  0  0  0  0
    6.1591   27.1766   -3.5414 H   0  0  0  0  0  0
  1  6  1  0  0  0
  1  2  2  0  0  0
  1 30  1  0  0  0
  2  3  1  0  0  0
  3  4  2  0  0  0
  3 31  1  0  0  0
  4  5  1  0  0  0
  4 32  1  0  0  0
  5  6  2  0  0  0
  5  7  1  0  0  0
  6 33  1  0  0  0
  7  8  2  0  0  0
  7 10  1  0  0  0
  8 13  1  0  0  0
  8 34  1  0  0  0
  9 12  1  0  0  0
  9 10  2  0  0  0
  9 35  1  0  0  0
 10 36  1  0  0  0
 11 15  2  0  0  0
 11 12  1  0  0  0
 12 13  2  0  0  0
 13 14  1  0  0  0
 14 15  1  0  0  0
 14 25  1  0  0  0
 15 16  1  0  0  0
 16 29  1  0  0  0
 16 18  1  0  0  0
 16 37  1  0  0  0
 17 19  1  0  0  0
 17 18  1  0  0  0
 18 38  1  0  0  0
 18 39  1  0  0  0
 19 20  2  0  0  0
 19 24  1  0  0  0
 20 29  1  0  0  0
 20 21  1  0  0  0
 21 22  2  0  0  0
 21 40  1  0  0  0
 22 23  1  0  0  0
 22 41  1  0  0  0
 23 24  2  0  0  0
 23 42  1  0  0  0
 24 43  1  0  0  0
 25 26  1  0  0  0
 25 44  1  0  0  0
 25 45  1  0  0  0
 26 27  1  0  0  0
 26 46  1  0  0  0
 26 47  1  0  0  0
 27 28  1  0  0  0
 28 48  1  0  0  0
 28 49  1  0  0  0
 28 50  1  0  0  0
M  END
> <s_m_entry_id>
35892

> <s_m_entry_name>
dock_pv.48

> <s_m_Source_Path>
/home/csk/Desktop/cluster/DUD-E-result/cp2c9

> <s_m_Source_File>
dock_pv.maegz

> <i_m_Source_File_Index>
48

> <chembl_id>
CHEMBL1077341

> <chembl_pref_name>
None

> <i_lp_mmshare_version>
53161

> <i_f3d_flags>
0

> <r_lp_tautomer_probability>
1

> <s_lp_Force_Field>
OPLS_2005

> <r_lp_Energy>
19.010546

> <b_lp_Chiralities_Consistent>
1

> <s_lp_Variant>
CHEMBL3397_lig23-2

> <s_i_glide_gridfile>
glide-grid_1r9o

> <i_i_glide_lignum>
40

> <i_i_glide_rotatable_bonds>
5

> <r_i_docking_score>
-7.46038112059314

> <r_i_glide_ligand_efficiency>
-0.257254521399764

> <r_i_glide_ligand_efficiency_sa>
-0.79036739369312

> <r_i_glide_ligand_efficiency_ln>
-1.70823809767342

> <r_i_glide_gscore>
-7.46038112059314

> <r_i_glide_lipo>
-4.72842144529902

> <r_i_glide_hbond>
0

> <r_i_glide_metal>
0

> <r_i_glide_rewards>
-0.858728084214637

> <r_i_glide_evdw>
-43.5434150695801

> <r_i_glide_ecoul>
-1.43334794044495

> <r_i_glide_erotb>
0.51894135346626

> <r_i_glide_esite>
0

> <r_i_glide_emodel>
-55.5683632688296

> <r_i_glide_energy>
-44.976763010025

> <r_i_glide_einternal>
6.42928409576416

> <i_i_glide_confnum>
93

> <i_i_glide_posenum>
129

> <r_i_glide_eff_state_penalty>
0

> <s_user_duplicate_titles>
CHEMBL3397_lig23

> <s_m_subgroup_title>
dock_pv

> <s_m_subgroupid>
dock_pv

> <b_m_subgroup_collapsed>
1

$$$$
CHEMBL3397_lig116
                    3D
 Schrodinger Suite 2021-1.
 40 42  0  0  1  0            999 V2000
    7.6483   32.5384   -5.8496 O   0  0  0  0  0  0
    8.3026   35.5996   -1.1312 O   0  0  0  0  0  0
    5.8586   32.3971   -4.3799 N   0  0  0  0  0  0
    3.8731   32.1915   -2.9738 N   0  0  0  0  0  0
    4.4209   34.0213   -6.1609 N   0  0  0  0  0  0
    1.8259   33.2825   -3.6491 N   0  0  0  0  0  0
    1.9517   31.9335   -1.6832 N   0  0  0  0  0  0
    4.4875   32.6940   -4.0826 C   0  0  0  0  0  0
    3.7988   33.4988   -5.0104 C   0  0  0  0  0  0
    6.4940   32.8305   -5.5287 C   0  0  0  0  0  0
    6.6425   31.5691   -3.4321 C   0  0  0  0  0  0
    2.5604   32.5058   -2.8043 C   0  0  0  0  0  0
    2.4594   33.7707   -4.7457 C   0  0  0  0  0  0
    5.6460   33.6984   -6.3651 C   0  0  0  0  0  0
    7.7254   32.3075   -2.6419 C   0  0  0  0  0  0
    7.5608   33.6353   -2.2262 C   0  0  0  0  0  0
    8.9142   31.6424   -2.3404 C   0  0  0  0  0  0
    8.5639   34.2993   -1.5152 C   0  0  0  0  0  0
    9.9260   32.2925   -1.6364 C   0  0  0  0  0  0
    9.7566   33.6145   -1.2275 C   0  0  0  0  0  0
    0.5177   32.0245   -1.4286 C   0  0  0  0  0  0
   -0.2955   30.8987   -2.0742 C   0  0  0  0  0  0
    9.2535   36.2904   -0.3276 C   0  0  0  0  0  0
    2.4972   31.2705   -1.1579 H   0  0  0  0  0  0
    5.9980   31.0829   -2.6987 H   0  0  0  0  0  0
    7.1066   30.7526   -3.9903 H   0  0  0  0  0  0
    1.8674   34.3739   -5.4172 H   0  0  0  0  0  0
    6.1048   34.1180   -7.2553 H   0  0  0  0  0  0
    6.6436   34.1613   -2.4432 H   0  0  0  0  0  0
    9.0580   30.6171   -2.6563 H   0  0  0  0  0  0
   10.8423   31.7619   -1.4101 H   0  0  0  0  0  0
   10.5532   34.0868   -0.6754 H   0  0  0  0  0  0
    0.1289   32.9915   -1.7491 H   0  0  0  0  0  0
    0.3824   31.9743   -0.3523 H   0  0  0  0  0  0
   -1.3634   31.0923   -1.9647 H   0  0  0  0  0  0
   -0.0995   29.9441   -1.5922 H   0  0  0  0  0  0
   -0.0855   30.7870   -3.1407 H   0  0  0  0  0  0
    8.8619   37.2710   -0.0644 H   0  0  0  0  0  0
    9.4524   35.7602    0.6059 H   0  0  0  0  0  0
   10.1935   36.4444   -0.8615 H   0  0  0  0  0  0
  1 10  2  0  0  0
  2 18  1  0  0  0
  2 23  1  0  0  0
  3  8  1  0  0  0
  3 10  1  0  0  0
  3 11  1  0  0  0
  4  8  1  0  0  0
  4 12  2  0  0  0
  5  9  1  0  0  0
  5 14  2  0  0  0
  6 12  1  0  0  0
  6 13  2  0  0  0
  7 12  1  0  0  0
  7 21  1  0  0  0
  7 24  1  0  0  0
  8  9  2  0  0  0
  9 13  1  0  0  0
 10 14  1  0  0  0
 11 15  1  0  0  0
 11 25  1  0  0  0
 11 26  1  0  0  0
 13 27  1  0  0  0
 14 28  1  0  0  0
 15 16  2  0  0  0
 15 17  1  0  0  0
 16 18  1  0  0  0
 16 29  1  0  0  0
 17 19  2  0  0  0
 17 30  1  0  0  0
 18 20  2  0  0  0
 19 20  1  0  0  0
 19 31  1  0  0  0
 20 32  1  0  0  0
 21 22  1  0  0  0
 21 33  1  0  0  0
 21 34  1  0  0  0
 22 35  1  0  0  0
 22 36  1  0  0  0
 22 37  1  0  0  0
 23 38  1  0  0  0
 23 39  1  0  0  0
 23 40  1  0  0  0
M  END
> <s_m_entry_id>
35893

> <s_m_entry_name>
dock_pv.49

> <s_m_Source_Path>
/home/csk/Desktop/cluster/DUD-E-result/cp2c9

> <s_m_Source_File>
dock_pv.maegz

> <i_m_Source_File_Index>
49

> <chembl_id>
CHEMBL1455570

> <chembl_pref_name>
None

> <i_lp_mmshare_version>
53161

> <i_f3d_flags>
0

> <r_lp_tautomer_probability>
1

> <s_lp_Force_Field>
OPLS_2005

> <r_lp_Energy>
21.518976

> <b_lp_Chiralities_Consistent>
1

> <s_lp_Variant>
CHEMBL3397_lig116-1

> <s_i_glide_gridfile>
glide-grid_1r9o

> <i_i_glide_lignum>
154

> <i_i_glide_rotatable_bonds>
5

> <r_i_docking_score>
-7.44477489901084

> <r_i_glide_ligand_efficiency>
-0.323685865174384

> <r_i_glide_ligand_efficiency_sa>
-0.920519542852023

> <r_i_glide_ligand_efficiency_ln>
-1.80021407606737

> <r_i_glide_gscore>
-7.44477489901084

> <r_i_glide_lipo>
-3.77313569775783

> <r_i_glide_hbond>
0

> <r_i_glide_metal>
0

> <r_i_glide_rewards>
-2.3152577280253

> <r_i_glide_evdw>
-42.2726974487305

> <r_i_glide_ecoul>
1.22218883037567

> <r_i_glide_erotb>
0.573925074652464

> <r_i_glide_esite>
0

> <r_i_glide_emodel>
-57.3575284142876

> <r_i_glide_energy>
-41.0505086183548

> <r_i_glide_einternal>
5.36589193344116

> <i_i_glide_confnum>
7

> <i_i_glide_posenum>
225

> <r_i_glide_eff_state_penalty>
0

> <s_user_duplicate_titles>
CHEMBL3397_lig116

> <s_m_subgroup_title>
dock_pv

> <s_m_subgroupid>
dock_pv

> <b_m_subgroup_collapsed>
1

$$$$
CHEMBL3397_lig56
                    3D
 Schrodinger Suite 2021-1.
 32 33  0  0  1  0            999 V2000
    4.5039   31.6422   -1.1409 O   0  0  0  0  0  0
    3.1010   35.1750   -3.5411 O   0  0  0  0  0  0
    6.3700   32.7752   -6.2284 O   0  0  0  0  0  0
   -0.3145   31.2922   -1.5696 O   0  0  0  0  0  0
    4.0762   32.4731   -3.3697 C   0  0  0  0  0  0
    2.6748   32.8572   -3.0294 C   0  0  0  0  0  0
    4.9333   31.8982   -2.4168 C   0  0  0  0  0  0
    2.2372   34.1868   -3.1407 C   0  0  0  0  0  0
    4.5822   32.7423   -4.6482 C   0  0  0  0  0  0
    1.7856   31.9026   -2.5212 C   0  0  0  0  0  0
    5.9110   32.4685   -4.9722 C   0  0  0  0  0  0
    0.5022   32.2565   -2.1038 C   0  0  0  0  0  0
    6.7580   31.9024   -4.0098 C   0  0  0  0  0  0
    0.0742   33.5846   -2.2168 C   0  0  0  0  0  0
    6.2598   31.6135   -2.7376 C   0  0  0  0  0  0
    0.9470   34.5422   -2.7409 C   0  0  0  0  0  0
    8.2142   31.6054   -4.3215 C   0  0  0  0  0  0
   -1.3212   34.0032   -1.7713 C   0  0  0  0  0  0
    5.2146   31.5761   -0.4942 H   0  0  0  0  0  0
    2.7412   36.0574   -3.4178 H   0  0  0  0  0  0
    5.6996   33.1758   -6.7849 H   0  0  0  0  0  0
   -1.1112   31.6716   -1.1920 H   0  0  0  0  0  0
    3.9358   33.1947   -5.3871 H   0  0  0  0  0  0
    2.1111   30.8791   -2.4206 H   0  0  0  0  0  0
    6.9091   31.1830   -1.9892 H   0  0  0  0  0  0
    0.6304   35.5735   -2.8058 H   0  0  0  0  0  0
    8.7004   31.0581   -3.5115 H   0  0  0  0  0  0
    8.7580   32.5340   -4.5055 H   0  0  0  0  0  0
    8.2901   31.0010   -5.2279 H   0  0  0  0  0  0
   -1.4246   33.8919   -0.6910 H   0  0  0  0  0  0
   -1.5466   35.0369   -2.0381 H   0  0  0  0  0  0
   -2.0747   33.3690   -2.2409 H   0  0  0  0  0  0
  1  7  1  0  0  0
  1 19  1  0  0  0
  2  8  1  0  0  0
  2 20  1  0  0  0
  3 11  1  0  0  0
  3 21  1  0  0  0
  4 12  1  0  0  0
  4 22  1  0  0  0
  5  6  1  0  0  0
  5  7  1  0  0  0
  5  9  2  0  0  0
  6  8  2  0  0  0
  6 10  1  0  0  0
  7 15  2  0  0  0
  8 16  1  0  0  0
  9 11  1  0  0  0
  9 23  1  0  0  0
 10 12  2  0  0  0
 10 24  1  0  0  0
 11 13  2  0  0  0
 12 14  1  0  0  0
 13 15  1  0  0  0
 13 17  1  0  0  0
 14 16  2  0  0  0
 14 18  1  0  0  0
 15 25  1  0  0  0
 16 26  1  0  0  0
 17 27  1  0  0  0
 17 28  1  0  0  0
 17 29  1  0  0  0
 18 30  1  0  0  0
 18 31  1  0  0  0
 18 32  1  0  0  0
M  END
> <s_m_entry_id>
35894

> <s_m_entry_name>
dock_pv.50

> <s_m_Source_Path>
/home/csk/Desktop/cluster/DUD-E-result/cp2c9

> <s_m_Source_File>
dock_pv.maegz

> <i_m_Source_File_Index>
50

> <chembl_id>
CHEMBL1527565

> <chembl_pref_name>
None

> <i_lp_mmshare_version>
53161

> <i_f3d_flags>
0

> <r_lp_tautomer_probability>
0.999999998833997

> <s_lp_Force_Field>
OPLS_2005

> <r_lp_Energy>
13.075194

> <b_lp_Chiralities_Consistent>
1

> <s_lp_Variant>
CHEMBL3397_lig56-1

> <s_i_glide_gridfile>
glide-grid_1r9o

> <i_i_glide_lignum>
87

> <i_i_glide_rotatable_bonds>
5

> <r_i_docking_score>
-7.43841684178092

> <r_i_glide_ligand_efficiency>
-0.41324538009894

> <r_i_glide_ligand_efficiency_sa>
-1.08300927254745

> <r_i_glide_ligand_efficiency_ln>
-1.91200669362341

> <r_i_glide_gscore>
-7.43841684178092

> <r_i_glide_lipo>
-3.43268866638258

> <r_i_glide_hbond>
-0.32

> <r_i_glide_metal>
0

> <r_i_glide_rewards>
-1.86094500704232

> <r_i_glide_evdw>
-29.6995182037354

> <r_i_glide_ecoul>
-4.18088531494141

> <r_i_glide_erotb>
0.287325539071957

> <r_i_glide_esite>
0

> <r_i_glide_emodel>
-48.3549296007494

> <r_i_glide_energy>
-33.8804035186768

> <r_i_glide_einternal>
0.994536817073822

> <i_i_glide_confnum>
1

> <i_i_glide_posenum>
389

> <r_i_glide_eff_state_penalty>
0

> <s_user_duplicate_titles>
CHEMBL3397_lig56

> <s_m_subgroup_title>
dock_pv

> <s_m_subgroupid>
dock_pv

> <b_m_subgroup_collapsed>
1

$$$$
CHEMBL3397_lig18
                    3D
 Schrodinger Suite 2021-1.
 43 47  0  0  1  0            999 V2000
   10.5000   37.2431   -0.3061 C   0  0  0  0  0  0
   11.1001   37.8595   -1.3552 N   0  0  0  0  0  0
   11.1017   37.2268   -2.5515 C   0  0  0  0  0  0
   10.5055   35.9829   -2.7422 C   0  0  0  0  0  0
    9.8469   35.3801   -1.6668 C   0  0  0  0  0  0
    9.8575   36.0105   -0.4194 C   0  0  0  0  0  0
    9.0564   34.1669   -1.9087 C   0  0  0  0  0  0
    7.7323   34.3217   -2.3211 C   0  0  0  0  0  0
    8.9337   31.7430   -2.1759 C   0  0  0  0  0  0
    9.6326   32.8970   -1.8172 C   0  0  0  0  0  0
    6.6816   31.0669   -3.1840 N   0  0  0  0  0  0
    7.6340   31.9200   -2.6653 C   0  0  0  0  0  0
    7.0244   33.1928   -2.7294 C   0  0  0  0  0  0
    5.7594   33.1220   -3.2312 N   0  0  0  0  0  0
    5.5771   31.8519   -3.4954 C   0  0  0  0  0  0
    4.2750   31.2942   -4.0643 C   0  0  1  0  0  0
    3.0576   31.1755   -1.9670 O   0  0  0  0  0  0
    3.5385   30.3860   -3.0497 C   0  0  0  0  0  0
    2.2858   32.2321   -2.3903 C   0  0  0  0  0  0
    2.5002   32.8474   -3.6320 C   0  0  0  0  0  0
    1.7105   33.9331   -4.0155 C   0  0  0  0  0  0
    0.6907   34.3745   -3.1689 C   0  0  0  0  0  0
    0.4735   33.7505   -1.9406 C   0  0  0  0  0  0
    1.2798   32.6830   -1.5419 C   0  0  0  0  0  0
    6.8130   29.6188   -3.2837 C   0  0  0  0  0  0
    3.3965   32.3330   -4.5530 O   0  0  0  0  0  0
   10.5076   37.7832    0.6285 H   0  0  0  0  0  0
   11.5619   37.7531   -3.3756 H   0  0  0  0  0  0
   10.4854   35.5365   -3.7257 H   0  0  0  0  0  0
    9.3451   35.5769    0.4270 H   0  0  0  0  0  0
    7.2761   35.2988   -2.3703 H   0  0  0  0  0  0
    9.4000   30.7738   -2.1195 H   0  0  0  0  0  0
   10.6579   32.8006   -1.4881 H   0  0  0  0  0  0
    4.5262   30.7142   -4.9467 H   0  0  0  0  0  0
    4.1914   29.6112   -2.6527 H   0  0  0  0  0  0
    2.7037   29.8813   -3.5225 H   0  0  0  0  0  0
    1.8529   34.3745   -4.9894 H   0  0  0  0  0  0
    0.0425   35.1770   -3.4809 H   0  0  0  0  0  0
   -0.3227   34.0919   -1.2954 H   0  0  0  0  0  0
    1.1137   32.1906   -0.5959 H   0  0  0  0  0  0
    7.8403   29.3597   -3.5429 H   0  0  0  0  0  0
    6.5715   29.1738   -2.3204 H   0  0  0  0  0  0
    6.1521   29.2198   -4.0520 H   0  0  0  0  0  0
  1  6  1  0  0  0
  1  2  2  0  0  0
  1 27  1  0  0  0
  2  3  1  0  0  0
  3  4  2  0  0  0
  3 28  1  0  0  0
  4  5  1  0  0  0
  4 29  1  0  0  0
  5  7  1  0  0  0
  5  6  2  0  0  0
  6 30  1  0  0  0
  7  8  2  0  0  0
  7 10  1  0  0  0
  8 13  1  0  0  0
  8 31  1  0  0  0
  9 12  1  0  0  0
  9 10  2  0  0  0
  9 32  1  0  0  0
 10 33  1  0  0  0
 11 12  1  0  0  0
 11 15  1  0  0  0
 11 25  1  0  0  0
 12 13  2  0  0  0
 13 14  1  0  0  0
 14 15  2  0  0  0
 15 16  1  0  0  0
 16 26  1  0  0  0
 16 18  1  0  0  0
 16 34  1  0  0  0
 17 19  1  0  0  0
 17 18  1  0  0  0
 18 35  1  0  0  0
 18 36  1  0  0  0
 19 20  2  0  0  0
 19 24  1  0  0  0
 20 26  1  0  0  0
 20 21  1  0  0  0
 21 22  2  0  0  0
 21 37  1  0  0  0
 22 23  1  0  0  0
 22 38  1  0  0  0
 23 24  2  0  0  0
 23 39  1  0  0  0
 24 40  1  0  0  0
 25 41  1  0  0  0
 25 42  1  0  0  0
 25 43  1  0  0  0
M  END
> <s_m_entry_id>
35895

> <s_m_entry_name>
dock_pv.51

> <s_m_Source_Path>
/home/csk/Desktop/cluster/DUD-E-result/cp2c9

> <s_m_Source_File>
dock_pv.maegz

> <i_m_Source_File_Index>
51

> <chembl_id>
CHEMBL1092154

> <chembl_pref_name>
None

> <i_lp_mmshare_version>
53161

> <i_f3d_flags>
0

> <r_lp_tautomer_probability>
1

> <s_lp_Force_Field>
OPLS_2005

> <r_lp_Energy>
18.289076

> <b_lp_Chiralities_Consistent>
1

> <s_lp_Variant>
CHEMBL3397_lig18-1

> <s_i_glide_gridfile>
glide-grid_1r9o

> <i_i_glide_lignum>
29

> <i_i_glide_rotatable_bonds>
2

> <r_i_docking_score>
-7.42816404267527

> <r_i_glide_ligand_efficiency>
-0.285698617025972

> <r_i_glide_ligand_efficiency_sa>
-0.846381028769668

> <r_i_glide_ligand_efficiency_ln>
-1.74447995162805

> <r_i_glide_gscore>
-7.42816404267527

> <r_i_glide_lipo>
-4.44627068397435

> <r_i_glide_hbond>
0

> <r_i_glide_metal>
0

> <r_i_glide_rewards>
-1.16826044142023

> <r_i_glide_evdw>
-41.1231231689453

> <r_i_glide_ecoul>
-0.528818666934967

> <r_i_glide_erotb>
0.321846041206818

> <r_i_glide_esite>
0

> <r_i_glide_emodel>
-50.0322900999368

> <r_i_glide_energy>
-41.6519418358803

> <r_i_glide_einternal>
6.44249534606934

> <i_i_glide_confnum>
18

> <i_i_glide_posenum>
148

> <r_i_glide_eff_state_penalty>
0

> <s_user_duplicate_titles>
CHEMBL3397_lig18

> <s_m_subgroup_title>
dock_pv

> <s_m_subgroupid>
dock_pv

> <b_m_subgroup_collapsed>
1

$$$$
CHEMBL3397_lig80
                    3D
 Schrodinger Suite 2021-1.
 42 43  0  0  1  0            999 V2000
    0.7516   34.2737   -2.3410 S   0  0  0  0  0  0
    2.7013   31.0115   -3.1405 O   0  0  0  0  0  0
    3.5476   33.0251   -2.5470 N   0  0  0  0  0  0
    4.8955   32.8551   -3.1035 C   0  0  1  0  0  0
    2.5445   32.1388   -2.6750 C   0  0  0  0  0  0
    1.2419   32.5943   -2.2450 C   0  0  0  0  0  0
    5.0131   33.2938   -4.5543 C   0  0  0  0  0  0
    0.1725   31.7945   -1.8415 C   0  0  0  0  0  0
    5.9088   33.6668   -2.3338 C   0  0  0  0  0  0
    4.2011   34.3188   -5.0501 C   0  0  0  0  0  0
    5.9858   32.7070   -5.3700 C   0  0  0  0  0  0
   -0.8342   33.8822   -1.7610 C   0  0  0  0  0  0
   -0.9849   32.5212   -1.5409 C   0  0  0  0  0  0
    4.3886   34.7750   -6.3410 C   0  0  0  0  0  0
    6.1758   33.1751   -6.6642 C   0  0  0  0  0  0
    5.3782   34.2102   -7.1378 C   0  0  0  0  0  0
    6.9626   33.1753   -1.6610 C   0  0  0  0  0  0
    7.9702   34.0161   -0.9008 C   0  0  0  0  0  0
    8.3786   35.3571   -1.5440 C   0  0  0  0  0  0
    9.3732   36.1779   -0.7014 C   0  0  0  0  0  0
    8.8056   36.6519    0.6466 C   0  0  0  0  0  0
    3.3056   33.9568   -2.2483 H   0  0  0  0  0  0
    5.1770   31.8000   -3.0346 H   0  0  0  0  0  0
    0.2323   30.7215   -1.7526 H   0  0  0  0  0  0
    5.7388   34.7328   -2.3470 H   0  0  0  0  0  0
    3.4480   34.7876   -4.4346 H   0  0  0  0  0  0
    6.6173   31.9162   -4.9913 H   0  0  0  0  0  0
   -1.5694   34.6597   -1.6130 H   0  0  0  0  0  0
   -1.8999   32.0712   -1.1841 H   0  0  0  0  0  0
    3.7749   35.5745   -6.7267 H   0  0  0  0  0  0
    6.9403   32.7440   -7.2921 H   0  0  0  0  0  0
    5.5014   34.5802   -8.1424 H   0  0  0  0  0  0
    7.1231   32.1064   -1.6337 H   0  0  0  0  0  0
    8.8588   33.4040   -0.7415 H   0  0  0  0  0  0
    7.5010   34.2038    0.0598 H   0  0  0  0  0  0
    7.5011   35.9745   -1.7275 H   0  0  0  0  0  0
    8.8149   35.1621   -2.5245 H   0  0  0  0  0  0
    9.6780   37.0534   -1.2768 H   0  0  0  0  0  0
   10.2821   35.5998   -0.5305 H   0  0  0  0  0  0
    9.4961   37.3368    1.1381 H   0  0  0  0  0  0
    8.6356   35.8183    1.3279 H   0  0  0  0  0  0
    7.8568   37.1738    0.5175 H   0  0  0  0  0  0
  1  6  1  0  0  0
  1 12  1  0  0  0
  2  5  2  0  0  0
  3  4  1  0  0  0
  3  5  1  0  0  0
  3 22  1  0  0  0
  4  7  1  0  0  0
  4  9  1  0  0  0
  4 23  1  0  0  0
  5  6  1  0  0  0
  6  8  2  0  0  0
  7 10  2  0  0  0
  7 11  1  0  0  0
  8 13  1  0  0  0
  8 24  1  0  0  0
  9 17  2  0  0  0
  9 25  1  0  0  0
 10 14  1  0  0  0
 10 26  1  0  0  0
 11 15  2  0  0  0
 11 27  1  0  0  0
 12 13  2  0  0  0
 12 28  1  0  0  0
 13 29  1  0  0  0
 14 16  2  0  0  0
 14 30  1  0  0  0
 15 16  1  0  0  0
 15 31  1  0  0  0
 16 32  1  0  0  0
 17 18  1  0  0  0
 17 33  1  0  0  0
 18 19  1  0  0  0
 18 34  1  0  0  0
 18 35  1  0  0  0
 19 20  1  0  0  0
 19 36  1  0  0  0
 19 37  1  0  0  0
 20 21  1  0  0  0
 20 38  1  0  0  0
 20 39  1  0  0  0
 21 40  1  0  0  0
 21 41  1  0  0  0
 21 42  1  0  0  0
M  END
> <s_m_entry_id>
35896

> <s_m_entry_name>
dock_pv.52

> <s_m_Source_Path>
/home/csk/Desktop/cluster/DUD-E-result/cp2c9

> <s_m_Source_File>
dock_pv.maegz

> <i_m_Source_File_Index>
52

> <chembl_id>
CHEMBL1494697

> <chembl_pref_name>
None

> <i_lp_mmshare_version>
53161

> <i_f3d_flags>
0

> <r_lp_tautomer_probability>
1

> <s_lp_Force_Field>
OPLS_2005

> <r_lp_Energy>
9.801844

> <b_lp_Chiralities_Consistent>
1

> <s_lp_Variant>
CHEMBL3397_lig80-2

> <s_i_glide_gridfile>
glide-grid_1r9o

> <i_i_glide_lignum>
114

> <i_i_glide_rotatable_bonds>
8

> <r_i_docking_score>
-7.41071459678631

> <r_i_glide_ligand_efficiency>
-0.352891171275539

> <r_i_glide_ligand_efficiency_sa>
-0.973599983075485

> <r_i_glide_ligand_efficiency_ln>
-1.83228420929657

> <r_i_glide_gscore>
-7.41071459678631

> <r_i_glide_lipo>
-4.48262808282524

> <r_i_glide_hbond>
0

> <r_i_glide_metal>
0

> <r_i_glide_rewards>
-2.13733634470593

> <r_i_glide_evdw>
-36.2935066223145

> <r_i_glide_ecoul>
-0.00201576924882829

> <r_i_glide_erotb>
1.02422752724791

> <r_i_glide_esite>
0

> <r_i_glide_emodel>
-44.653711769212

> <r_i_glide_energy>
-36.2955223915633

> <r_i_glide_einternal>
10.8854093551636

> <i_i_glide_confnum>
59

> <i_i_glide_posenum>
259

> <r_i_glide_eff_state_penalty>
0

> <s_user_duplicate_titles>
CHEMBL3397_lig80

> <s_m_subgroup_title>
dock_pv

> <s_m_subgroupid>
dock_pv

> <b_m_subgroup_collapsed>
1

$$$$
CHEMBL3397_lig6
                    3D
 Schrodinger Suite 2021-1.
 48 51  0  0  1  0            999 V2000
    5.4658   29.9530   -3.7763 C   0  0  0  0  0  0
    4.6901   31.0875   -3.9305 C   0  0  0  0  0  0
    5.1502   32.3683   -3.6023 C   0  0  0  0  0  0
    6.7539   30.0699   -3.2683 C   0  0  0  0  0  0
    7.2560   31.3251   -2.8786 C   0  0  0  0  0  0
    6.4671   32.5090   -3.0231 C   0  0  0  0  0  0
    7.0634   33.7451   -2.5659 C   0  0  0  0  0  0
    8.3039   33.7569   -1.9757 N   0  3  0  0  0  0
    9.0530   32.6203   -1.8789 C   0  0  0  0  0  0
    8.5508   31.4113   -2.3416 C   0  0  0  0  0  0
    6.3001   35.0599   -2.7691 C   0  0  0  0  0  0
   10.4542   32.6310   -1.2684 C   0  0  0  0  0  0
    4.8855   28.7746   -4.1761 O   0  0  0  0  0  0
    5.6608   27.5891   -4.2693 C   0  0  0  0  0  0
    4.3623   33.4855   -3.8216 O   0  0  0  0  0  0
    3.0819   33.3730   -4.4381 C   0  0  0  0  0  0
    8.8177   34.9622   -1.3511 C   0  0  0  0  0  0
    9.7914   37.1906    0.0365 C   0  0  0  0  0  0
    8.8234   36.3752    0.6098 C   0  0  0  0  0  0
    8.3214   35.2869   -0.0884 C   0  0  0  0  0  0
   10.2449   36.9562   -1.2832 C   0  0  0  0  0  0
    9.7854   35.7987   -1.9858 C   0  0  0  0  0  0
   10.2665   35.5752   -3.3017 C   0  0  0  0  0  0
   11.1011   37.8736   -1.9404 C   0  0  0  0  0  0
   11.5009   37.6498   -3.2539 C   0  0  0  0  0  0
   11.1013   36.5001   -3.9231 C   0  0  0  0  0  0
    3.7056   30.9402   -4.3455 H   0  0  0  0  0  0
    7.3861   29.2056   -3.1420 H   0  0  0  0  0  0
    9.1344   30.5064   -2.2685 H   0  0  0  0  0  0
    6.1854   35.2437   -3.8377 H   0  0  0  0  0  0
    5.3023   35.0023   -2.3411 H   0  0  0  0  0  0
    6.7606   35.9453   -2.3410 H   0  0  0  0  0  0
   10.8446   31.6208   -1.1416 H   0  0  0  0  0  0
   11.1433   33.1649   -1.9209 H   0  0  0  0  0  0
   10.4654   33.1062   -0.2881 H   0  0  0  0  0  0
    4.9523   26.7750   -4.3625 H   0  0  0  0  0  0
    6.3006   27.5752   -5.1412 H   0  0  0  0  0  0
    6.3025   27.3851   -3.4192 H   0  0  0  0  0  0
    2.6486   34.3672   -4.5447 H   0  0  0  0  0  0
    3.1508   32.9380   -5.4365 H   0  0  0  0  0  0
    2.3954   32.7798   -3.8318 H   0  0  0  0  0  0
   10.1503   38.0575    0.5714 H   0  0  0  0  0  0
    8.4461   36.5989    1.5974 H   0  0  0  0  0  0
    7.5514   34.6831    0.3719 H   0  0  0  0  0  0
    9.9147   34.7193   -3.8562 H   0  0  0  0  0  0
   11.4058   38.7752   -1.4282 H   0  0  0  0  0  0
   12.1213   38.3765   -3.7599 H   0  0  0  0  0  0
   11.4178   36.3388   -4.9444 H   0  0  0  0  0  0
  1 13  1  0  0  0
  1  2  2  0  0  0
  1  4  1  0  0  0
  2  3  1  0  0  0
  2 27  1  0  0  0
  3  6  2  0  0  0
  3 15  1  0  0  0
  4  5  2  0  0  0
  4 28  1  0  0  0
  5  6  1  0  0  0
  5 10  1  0  0  0
  6  7  1  0  0  0
  7  8  2  0  0  0
  7 11  1  0  0  0
  8 17  1  0  0  0
  8  9  1  0  0  0
  9 10  2  0  0  0
  9 12  1  0  0  0
 10 29  1  0  0  0
 11 30  1  0  0  0
 11 31  1  0  0  0
 11 32  1  0  0  0
 12 33  1  0  0  0
 12 34  1  0  0  0
 12 35  1  0  0  0
 13 14  1  0  0  0
 14 36  1  0  0  0
 14 37  1  0  0  0
 14 38  1  0  0  0
 15 16  1  0  0  0
 16 39  1  0  0  0
 16 40  1  0  0  0
 16 41  1  0  0  0
 17 22  2  0  0  0
 17 20  1  0  0  0
 18 21  2  0  0  0
 18 19  1  0  0  0
 18 42  1  0  0  0
 19 20  2  0  0  0
 19 43  1  0  0  0
 20 44  1  0  0  0
 21 22  1  0  0  0
 21 24  1  0  0  0
 22 23  1  0  0  0
 23 26  2  0  0  0
 23 45  1  0  0  0
 24 25  2  0  0  0
 24 46  1  0  0  0
 25 26  1  0  0  0
 25 47  1  0  0  0
 26 48  1  0  0  0
M  CHG  1   8   1
M  END
> <s_m_entry_id>
35897

> <s_m_entry_name>
dock_pv.53

> <s_m_Source_Path>
/home/csk/Desktop/cluster/DUD-E-result/cp2c9

> <s_m_Source_File>
dock_pv.maegz

> <i_m_Source_File_Index>
53

> <chembl_id>
CHEMBL375355

> <chembl_pref_name>
None

> <i_lp_mmshare_version>
53161

> <i_f3d_flags>
0

> <r_lp_tautomer_probability>
1

> <s_lp_Force_Field>
OPLS_2005

> <r_lp_Energy>
50.648796

> <b_lp_Chiralities_Consistent>
1

> <s_lp_Variant>
CHEMBL3397_lig6-1

> <s_i_glide_gridfile>
glide-grid_1r9o

> <i_i_glide_lignum>
7

> <i_i_glide_rotatable_bonds>
3

> <r_i_docking_score>
-7.39585470110659

> <r_i_glide_ligand_efficiency>
-0.284455950042561

> <r_i_glide_ligand_efficiency_sa>
-0.842699632720972

> <r_i_glide_ligand_efficiency_ln>
-1.73689220877624

> <r_i_glide_gscore>
-7.39585470110659

> <r_i_glide_lipo>
-4.08491328979961

> <r_i_glide_hbond>
0

> <r_i_glide_metal>
0

> <r_i_glide_rewards>
-1.23656817870493

> <r_i_glide_evdw>
-35.7464141845703

> <r_i_glide_ecoul>
-2.98071885108948

> <r_i_glide_erotb>
0.160055304289882

> <r_i_glide_esite>
0

> <r_i_glide_emodel>
-45.4387887683232

> <r_i_glide_energy>
-38.7271330356598

> <r_i_glide_einternal>
0.0324061065912247

> <i_i_glide_confnum>
2

> <i_i_glide_posenum>
29

> <r_i_glide_eff_state_penalty>
0

> <s_user_duplicate_titles>
CHEMBL3397_lig6

> <s_m_subgroup_title>
dock_pv

> <s_m_subgroupid>
dock_pv

> <b_m_subgroup_collapsed>
1

$$$$
CHEMBL3397_lig114
                    3D
 Schrodinger Suite 2021-1.
 32 34  0  0  1  0            999 V2000
    1.9837   32.2687   -1.9253 C   0  0  0  0  0  0
    1.5011   32.9324   -3.0669 C   0  0  0  0  0  0
    2.3710   33.5508   -3.9650 C   0  0  0  0  0  0
    3.3680   32.2467   -1.6964 C   0  0  0  0  0  0
    4.2297   32.8501   -2.6117 C   0  0  0  0  0  0
    3.7523   33.5173   -3.7469 C   0  0  0  0  0  0
    4.7167   34.1725   -4.6817 C   0  0  0  0  0  0
    6.1095   34.0293   -4.2732 C   0  0  0  0  0  0
    6.4648   33.3231   -3.1779 C   0  0  0  0  0  0
    5.5757   32.7517   -2.3333 O   0  0  0  0  0  0
    4.3545   34.7749   -5.6899 O   0  0  0  0  0  0
    7.8286   33.1658   -2.6366 C   0  0  0  0  0  0
    8.7314   34.2317   -2.6541 C   0  0  0  0  0  0
    9.9944   34.0997   -2.0925 C   0  0  0  0  0  0
   10.3767   32.8818   -1.5409 C   0  0  0  0  0  0
    9.5014   31.8020   -1.5408 C   0  0  0  0  0  0
    8.2281   31.9436   -2.0831 C   0  0  0  0  0  0
    1.1627   31.6292   -1.0128 O   0  0  0  0  0  0
   -0.2514   31.6847   -1.1753 C   0  0  0  0  0  0
    3.9010   31.6470   -0.5750 O   0  0  0  0  0  0
    0.4432   32.9844   -3.2734 H   0  0  0  0  0  0
    1.9605   34.0517   -4.8312 H   0  0  0  0  0  0
    6.8723   34.4931   -4.8770 H   0  0  0  0  0  0
    8.4480   35.1750   -3.0797 H   0  0  0  0  0  0
   10.6790   34.9346   -2.1018 H   0  0  0  0  0  0
   11.3646   32.7728   -1.1190 H   0  0  0  0  0  0
    9.8112   30.8633   -1.1069 H   0  0  0  0  0  0
    7.5484   31.1033   -2.0629 H   0  0  0  0  0  0
   -0.7325   31.1749   -0.3408 H   0  0  0  0  0  0
   -0.5680   31.1875   -2.0934 H   0  0  0  0  0  0
   -0.6173   32.7124   -1.1793 H   0  0  0  0  0  0
    4.8356   31.8368   -0.4238 H   0  0  0  0  0  0
  1  2  2  0  0  0
  1 18  1  0  0  0
  1  4  1  0  0  0
  2  3  1  0  0  0
  2 21  1  0  0  0
  3  6  2  0  0  0
  3 22  1  0  0  0
  4  5  2  0  0  0
  4 20  1  0  0  0
  5 10  1  0  0  0
  5  6  1  0  0  0
  6  7  1  0  0  0
  7 11  2  0  0  0
  7  8  1  0  0  0
  8  9  2  0  0  0
  8 23  1  0  0  0
  9 10  1  0  0  0
  9 12  1  0  0  0
 12 13  2  0  0  0
 12 17  1  0  0  0
 13 14  1  0  0  0
 13 24  1  0  0  0
 14 15  2  0  0  0
 14 25  1  0  0  0
 15 16  1  0  0  0
 15 26  1  0  0  0
 16 17  2  0  0  0
 16 27  1  0  0  0
 17 28  1  0  0  0
 18 19  1  0  0  0
 19 29  1  0  0  0
 19 30  1  0  0  0
 19 31  1  0  0  0
 20 32  1  0  0  0
M  END
> <s_m_entry_id>
35898

> <s_m_entry_name>
dock_pv.54

> <s_m_Source_Path>
/home/csk/Desktop/cluster/DUD-E-result/cp2c9

> <s_m_Source_File>
dock_pv.maegz

> <i_m_Source_File_Index>
54

> <chembl_id>
CHEMBL243663

> <chembl_pref_name>
None

> <i_lp_mmshare_version>
53161

> <i_f3d_flags>
0

> <r_lp_tautomer_probability>
1

> <s_lp_Force_Field>
OPLS_2005

> <r_lp_Energy>
14.949155

> <b_lp_Chiralities_Consistent>
1

> <s_lp_Variant>
CHEMBL3397_lig114-1

> <s_i_glide_gridfile>
glide-grid_1r9o

> <i_i_glide_lignum>
152

> <i_i_glide_rotatable_bonds>
3

> <r_i_docking_score>
-7.35068342452759

> <r_i_glide_ligand_efficiency>
-0.36753417122638

> <r_i_glide_ligand_efficiency_sa>
-0.997641228081272

> <r_i_glide_ligand_efficiency_ln>
-1.83963361939401

> <r_i_glide_gscore>
-7.35068342452759

> <r_i_glide_lipo>
-3.92390955666213

> <r_i_glide_hbond>
0

> <r_i_glide_metal>
0

> <r_i_glide_rewards>
-1.66816516810023

> <r_i_glide_evdw>
-34.1819686889648

> <r_i_glide_ecoul>
-1.9833732843399

> <r_i_glide_erotb>
0.247995727333995

> <r_i_glide_esite>
0

> <r_i_glide_emodel>
-50.1037063027893

> <r_i_glide_energy>
-36.1653419733047

> <r_i_glide_einternal>
1.24640965461731

> <i_i_glide_confnum>
1

> <i_i_glide_posenum>
244

> <r_i_glide_eff_state_penalty>
0

> <s_user_duplicate_titles>
CHEMBL3397_lig114

> <s_m_subgroup_title>
dock_pv

> <s_m_subgroupid>
dock_pv

> <b_m_subgroup_collapsed>
1

$$$$
CHEMBL3397_lig106
                    3D
 Schrodinger Suite 2021-1.
 50 52  0  0  1  0            999 V2000
    3.7950   32.6006   -4.5733 N   0  0  1  0  0  0
    6.1574   30.6408   -2.8137 C   0  0  0  0  0  0
    4.8686   29.9639   -3.1429 C   0  0  0  0  0  0
    6.2287   31.9658   -2.3587 C   0  0  0  0  0  0
    3.5572   30.7243   -2.9740 C   0  0  0  0  0  0
    7.4828   32.5761   -2.0971 C   0  0  0  0  0  0
    3.0928   31.3607   -4.2768 C   0  0  0  0  0  0
    4.0848   32.7173   -6.0128 C   0  0  0  0  0  0
    7.3392   29.9263   -3.0107 C   0  0  0  0  0  0
    4.7981   28.8080   -3.5630 O   0  0  0  0  0  0
    8.6770   31.8197   -2.2716 C   0  0  0  0  0  0
    8.5725   30.4979   -2.7434 C   0  0  0  0  0  0
    3.1398   33.7538   -3.9232 C   0  0  0  0  0  0
    5.4307   33.3657   -6.2318 C   0  0  0  0  0  0
    7.5891   33.9198   -1.6712 C   0  0  0  0  0  0
    9.9268   32.4107   -1.9675 C   0  0  0  0  0  0
    1.7552   34.0755   -4.5290 C   0  0  0  0  0  0
    4.0432   34.9996   -3.8610 C   0  0  0  0  0  0
    5.5408   34.5369   -6.9740 C   0  0  0  0  0  0
    6.5617   32.7858   -5.6605 C   0  0  0  0  0  0
    8.8283   34.4822   -1.3880 C   0  0  0  0  0  0
    9.9859   33.7260   -1.5212 C   0  0  0  0  0  0
    7.7806   33.4343   -5.7387 C   0  0  0  0  0  0
    6.7630   35.1757   -7.0748 C   0  0  0  0  0  0
    7.8702   34.6420   -6.4338 C   0  0  0  0  0  0
    5.3405   32.5626   -2.2162 H   0  0  0  0  0  0
    2.8052   29.9791   -2.7411 H   0  0  0  0  0  0
    3.5649   31.4089   -2.1271 H   0  0  0  0  0  0
    3.1326   30.6392   -5.0933 H   0  0  0  0  0  0
    2.0370   31.5746   -4.1475 H   0  0  0  0  0  0
    4.1643   31.7464   -6.5039 H   0  0  0  0  0  0
    3.3052   33.2564   -6.5381 H   0  0  0  0  0  0
    7.3196   28.9036   -3.3651 H   0  0  0  0  0  0
    9.4627   29.9132   -2.8931 H   0  0  0  0  0  0
    2.9579   33.4755   -2.8823 H   0  0  0  0  0  0
    6.7001   34.5088   -1.5577 H   0  0  0  0  0  0
   10.8349   31.8393   -2.0845 H   0  0  0  0  0  0
    1.2025   34.7519   -3.8822 H   0  0  0  0  0  0
    1.8784   34.5324   -5.5087 H   0  0  0  0  0  0
    1.0955   33.2255   -4.6694 H   0  0  0  0  0  0
    3.6509   35.7250   -3.1488 H   0  0  0  0  0  0
    5.0563   34.7479   -3.5422 H   0  0  0  0  0  0
    4.1096   35.5040   -4.8244 H   0  0  0  0  0  0
    4.6980   34.9821   -7.4665 H   0  0  0  0  0  0
    6.4863   31.8545   -5.1249 H   0  0  0  0  0  0
    8.8918   35.5066   -1.0514 H   0  0  0  0  0  0
   10.9379   34.1631   -1.2748 H   0  0  0  0  0  0
    8.6332   32.9937   -5.2404 H   0  0  0  0  0  0
    6.8383   36.0892   -7.6424 H   0  0  0  0  0  0
    8.8046   35.1765   -6.5014 H   0  0  0  0  0  0
  1  7  1  0  0  0
  1  8  1  0  0  0
  1 13  1  0  0  0
  2  3  1  0  0  0
  2  4  2  0  0  0
  2  9  1  0  0  0
  3  5  1  0  0  0
  3 10  2  0  0  0
  4  6  1  0  0  0
  4 26  1  0  0  0
  5  7  1  0  0  0
  5 27  1  0  0  0
  5 28  1  0  0  0
  6 15  2  0  0  0
  6 11  1  0  0  0
  7 29  1  0  0  0
  7 30  1  0  0  0
  8 14  1  0  0  0
  8 31  1  0  0  0
  8 32  1  0  0  0
  9 12  2  0  0  0
  9 33  1  0  0  0
 11 12  1  0  0  0
 11 16  2  0  0  0
 12 34  1  0  0  0
 13 17  1  0  0  0
 13 18  1  0  0  0
 13 35  1  0  0  0
 14 19  1  0  0  0
 14 20  2  0  0  0
 15 21  1  0  0  0
 15 36  1  0  0  0
 16 22  1  0  0  0
 16 37  1  0  0  0
 17 38  1  0  0  0
 17 39  1  0  0  0
 17 40  1  0  0  0
 18 41  1  0  0  0
 18 42  1  0  0  0
 18 43  1  0  0  0
 19 24  2  0  0  0
 19 44  1  0  0  0
 20 23  1  0  0  0
 20 45  1  0  0  0
 21 22  2  0  0  0
 21 46  1  0  0  0
 22 47  1  0  0  0
 23 25  2  0  0  0
 23 48  1  0  0  0
 24 25  1  0  0  0
 24 49  1  0  0  0
 25 50  1  0  0  0
M  END
> <s_m_entry_id>
35899

> <s_m_entry_name>
dock_pv.55

> <s_m_Source_Path>
/home/csk/Desktop/cluster/DUD-E-result/cp2c9

> <s_m_Source_File>
dock_pv.maegz

> <i_m_Source_File_Index>
55

> <chembl_id>
CHEMBL596674

> <chembl_pref_name>
None

> <i_lp_mmshare_version>
53161

> <i_f3d_flags>
0

> <r_lp_tautomer_probability>
0.99990000499975

> <s_lp_Force_Field>
OPLS_2005

> <r_lp_Energy>
35.435218

> <b_lp_Chiralities_Consistent>
1

> <s_lp_Variant>
CHEMBL3397_lig106-1

> <s_i_glide_gridfile>
glide-grid_1r9o

> <i_i_glide_lignum>
144

> <i_i_glide_rotatable_bonds>
7

> <r_i_docking_score>
-7.33655641305747

> <r_i_glide_ligand_efficiency>
-0.293462256522299

> <r_i_glide_ligand_efficiency_sa>
-0.858088842646482

> <r_i_glide_ligand_efficiency_ln>
-1.7389837287488

> <r_i_glide_gscore>
-7.33655641305747

> <r_i_glide_lipo>
-5.15502404909693

> <r_i_glide_hbond>
-0.0147503668056264

> <r_i_glide_metal>
0

> <r_i_glide_rewards>
-1.56187863137669

> <r_i_glide_evdw>
-28.1031875610352

> <r_i_glide_ecoul>
0.766423642635345

> <r_i_glide_erotb>
0.685292465878233

> <r_i_glide_esite>
0

> <r_i_glide_emodel>
-22.3348825657749

> <r_i_glide_energy>
-27.3367639183998

> <r_i_glide_einternal>
10.2126216888428

> <i_i_glide_confnum>
39

> <i_i_glide_posenum>
248

> <r_i_glide_eff_state_penalty>
0

> <s_user_duplicate_titles>
CHEMBL3397_lig106

> <s_m_subgroup_title>
dock_pv

> <s_m_subgroupid>
dock_pv

> <b_m_subgroup_collapsed>
1

$$$$
CHEMBL3397_lig38
                    3D
 Schrodinger Suite 2021-1.
 56 60  0  0  1  0            999 V2000
    7.1087   31.5689   -5.8075 O   0  0  0  0  0  0
   10.7042   35.6090   -1.3520 O   0  0  0  0  0  0
    5.6651   34.8191   -4.3480 O   0  0  0  0  0  0
    7.9525   33.0161   -4.2993 N   0  0  0  0  0  0
    8.1285   30.9082   -2.4566 N   0  0  0  0  0  0
    9.3101   34.4063   -2.8406 N   0  0  0  0  0  0
   10.2843   33.4204   -0.8525 N   0  0  0  0  0  0
    8.6941   33.2245   -3.0982 C   0  0  0  0  0  0
    8.8302   32.1108   -2.2451 C   0  0  0  0  0  0
    7.4759   31.7904   -4.6636 C   0  0  0  0  0  0
    7.4919   30.7921   -3.5608 C   0  0  0  0  0  0
   10.0692   34.4453   -1.7107 C   0  0  0  0  0  0
    7.8413   34.0883   -5.3097 C   0  0  0  0  0  0
    9.6598   32.2524   -1.1400 C   0  0  0  0  0  0
    6.4263   34.6627   -5.5424 C   0  0  1  0  0  0
    6.6303   29.5428   -3.7251 C   0  0  0  0  0  0
   10.9036   36.6776   -2.1942 C   0  0  0  0  0  0
    5.3701   29.5012   -2.8333 C   0  0  0  0  0  0
    5.4449   34.0449   -6.5409 C   0  0  0  0  0  0
    4.4996   30.7501   -2.7400 C   0  0  0  0  0  0
    4.2845   35.0304   -4.6687 C   0  0  0  0  0  0
    4.1178   34.6536   -6.1406 C   0  0  0  0  0  0
   10.7816   37.9459   -1.6393 C   0  0  0  0  0  0
   11.3425   36.5341   -3.5199 C   0  0  0  0  0  0
    4.5685   31.5697   -1.6112 C   0  0  0  0  0  0
    3.5396   30.9896   -3.7238 C   0  0  0  0  0  0
   11.0931   39.0628   -2.3998 C   0  0  0  0  0  0
   11.6451   37.6468   -4.2870 C   0  0  0  0  0  0
   11.5291   38.9039   -3.7165 C   0  0  0  0  0  0
    3.6160   32.5659   -1.4288 C   0  0  0  0  0  0
    2.5921   31.9955   -3.5416 C   0  0  0  0  0  0
    2.6181   32.7605   -2.3780 C   0  0  0  0  0  0
    8.4846   34.9199   -5.0258 H   0  0  0  0  0  0
    8.2472   33.7633   -6.2694 H   0  0  0  0  0  0
    9.8088   31.4439   -0.4391 H   0  0  0  0  0  0
    6.7039   35.5836   -6.0344 H   0  0  0  0  0  0
    7.2292   28.6533   -3.5184 H   0  0  0  0  0  0
    6.2938   29.4091   -4.7399 H   0  0  0  0  0  0
    5.6519   29.1844   -1.8346 H   0  0  0  0  0  0
    4.7250   28.6907   -3.1770 H   0  0  0  0  0  0
    5.7509   34.2460   -7.5716 H   0  0  0  0  0  0
    5.3841   32.9634   -6.4735 H   0  0  0  0  0  0
    3.9852   36.0626   -4.5041 H   0  0  0  0  0  0
    3.6710   34.3928   -4.0471 H   0  0  0  0  0  0
    3.9197   35.5479   -6.7318 H   0  0  0  0  0  0
    3.2882   33.9615   -6.3004 H   0  0  0  0  0  0
   10.4594   38.0661   -0.6153 H   0  0  0  0  0  0
   11.4857   35.5746   -3.9722 H   0  0  0  0  0  0
    5.3300   31.4054   -0.8619 H   0  0  0  0  0  0
    3.5040   30.3653   -4.6084 H   0  0  0  0  0  0
   10.9846   40.0385   -1.9540 H   0  0  0  0  0  0
   11.9795   37.5422   -5.3114 H   0  0  0  0  0  0
   11.7891   39.7691   -4.3126 H   0  0  0  0  0  0
    3.6466   33.1805   -0.5441 H   0  0  0  0  0  0
    1.8341   32.1640   -4.2898 H   0  0  0  0  0  0
    1.8744   33.5283   -2.2197 H   0  0  0  0  0  0
  1 10  2  0  0  0
  2 12  1  0  0  0
  2 17  1  0  0  0
  3 15  1  0  0  0
  3 21  1  0  0  0
  4  8  1  0  0  0
  4 10  1  0  0  0
  4 13  1  0  0  0
  5  9  1  0  0  0
  5 11  2  0  0  0
  6  8  1  0  0  0
  6 12  2  0  0  0
  7 12  1  0  0  0
  7 14  2  0  0  0
  8  9  2  0  0  0
  9 14  1  0  0  0
 10 11  1  0  0  0
 11 16  1  0  0  0
 13 15  1  0  0  0
 13 33  1  0  0  0
 13 34  1  0  0  0
 14 35  1  0  0  0
 15 19  1  0  0  0
 15 36  1  0  0  0
 16 18  1  0  0  0
 16 37  1  0  0  0
 16 38  1  0  0  0
 17 23  2  0  0  0
 17 24  1  0  0  0
 18 20  1  0  0  0
 18 39  1  0  0  0
 18 40  1  0  0  0
 19 22  1  0  0  0
 19 41  1  0  0  0
 19 42  1  0  0  0
 20 25  2  0  0  0
 20 26  1  0  0  0
 21 22  1  0  0  0
 21 43  1  0  0  0
 21 44  1  0  0  0
 22 45  1  0  0  0
 22 46  1  0  0  0
 23 27  1  0  0  0
 23 47  1  0  0  0
 24 28  2  0  0  0
 24 48  1  0  0  0
 25 30  1  0  0  0
 25 49  1  0  0  0
 26 31  2  0  0  0
 26 50  1  0  0  0
 27 29  2  0  0  0
 27 51  1  0  0  0
 28 29  1  0  0  0
 28 52  1  0  0  0
 29 53  1  0  0  0
 30 32  2  0  0  0
 30 54  1  0  0  0
 31 32  1  0  0  0
 31 55  1  0  0  0
 32 56  1  0  0  0
M  END
> <s_m_entry_id>
35900

> <s_m_entry_name>
dock_pv.56

> <s_m_Source_Path>
/home/csk/Desktop/cluster/DUD-E-result/cp2c9

> <s_m_Source_File>
dock_pv.maegz

> <i_m_Source_File_Index>
56

> <chembl_id>
CHEMBL1475924

> <chembl_pref_name>
None

> <i_lp_mmshare_version>
53161

> <i_f3d_flags>
0

> <r_lp_tautomer_probability>
1

> <s_lp_Force_Field>
OPLS_2005

> <r_lp_Energy>
46.084593

> <b_lp_Chiralities_Consistent>
1

> <s_lp_Variant>
CHEMBL3397_lig38-1

> <s_i_glide_gridfile>
glide-grid_1r9o

> <i_i_glide_lignum>
62

> <i_i_glide_rotatable_bonds>
7

> <r_i_docking_score>
-7.32797729995854

> <r_i_glide_ligand_efficiency>
-0.228999290623704

> <r_i_glide_ligand_efficiency_sa>
-0.727027428832184

> <r_i_glide_ligand_efficiency_ln>
-1.64093387057761

> <r_i_glide_gscore>
-7.32797729995854

> <r_i_glide_lipo>
-4.74076385567867

> <r_i_glide_hbond>
-0.16

> <r_i_glide_metal>
0

> <r_i_glide_rewards>
-0.686166841936455

> <r_i_glide_evdw>
-42.6132011413574

> <r_i_glide_ecoul>
-2.45160913467407

> <r_i_glide_erotb>
0.757354824925564

> <r_i_glide_esite>
0

> <r_i_glide_emodel>
-43.8048059785799

> <r_i_glide_energy>
-45.0648102760315

> <r_i_glide_einternal>
21.6705455780029

> <i_i_glide_confnum>
162

> <i_i_glide_posenum>
13

> <r_i_glide_eff_state_penalty>
0

> <s_user_duplicate_titles>
CHEMBL3397_lig38

> <s_m_subgroup_title>
dock_pv

> <s_m_subgroupid>
dock_pv

> <b_m_subgroup_collapsed>
1

$$$$
CHEMBL3397_lig137
                    3D
 Schrodinger Suite 2021-1.
 30 32  0  0  1  0            999 V2000
    8.4415   33.0753   -1.9642 C   0  0  0  0  0  0
    8.8209   31.7958   -2.3454 C   0  0  0  0  0  0
    7.8660   30.8638   -2.7491 C   0  0  0  0  0  0
    7.1012   33.4329   -1.9833 C   0  0  0  0  0  0
    6.1422   32.4992   -2.3586 C   0  0  0  0  0  0
    6.5011   31.1996   -2.7477 C   0  0  0  0  0  0
    5.4262   30.2390   -3.1427 C   0  0  0  0  0  0
    4.0842   30.7718   -3.0172 C   0  0  0  0  0  0
    3.8516   32.0473   -2.6552 C   0  0  0  0  0  0
    4.8312   32.9331   -2.3398 O   0  0  0  0  0  0
    2.5043   32.6293   -2.5023 C   0  0  0  0  0  0
    2.1175   33.7687   -3.2236 C   0  0  0  0  0  0
    0.8290   34.2891   -3.0836 C   0  0  0  0  0  0
   -0.0954   33.6639   -2.2494 C   0  0  0  0  0  0
    0.2728   32.5242   -1.5411 C   0  0  0  0  0  0
    1.5705   32.0267   -1.6505 C   0  0  0  0  0  0
    5.6659   29.1021   -3.5414 O   0  0  0  0  0  0
    8.3001   29.6250   -3.1410 O   0  0  0  0  0  0
    9.3838   33.9845   -1.5772 O   0  0  0  0  0  0
    2.9913   34.3749   -4.0855 O   0  0  0  0  0  0
    9.8666   31.5288   -2.3395 H   0  0  0  0  0  0
    6.7848   34.4206   -1.7004 H   0  0  0  0  0  0
    3.2486   30.1272   -3.2381 H   0  0  0  0  0  0
    0.5374   35.1742   -3.6242 H   0  0  0  0  0  0
   -1.0938   34.0652   -2.1491 H   0  0  0  0  0  0
   -0.4392   32.0413   -0.8871 H   0  0  0  0  0  0
    1.8530   31.1750   -1.0554 H   0  0  0  0  0  0
    7.5515   29.0612   -3.3699 H   0  0  0  0  0  0
    8.9823   34.8226   -1.3421 H   0  0  0  0  0  0
    3.8742   34.0020   -4.0187 H   0  0  0  0  0  0
  1  2  2  0  0  0
  1  4  1  0  0  0
  1 19  1  0  0  0
  2  3  1  0  0  0
  2 21  1  0  0  0
  3  6  2  0  0  0
  3 18  1  0  0  0
  4  5  2  0  0  0
  4 22  1  0  0  0
  5  6  1  0  0  0
  5 10  1  0  0  0
  6  7  1  0  0  0
  7 17  2  0  0  0
  7  8  1  0  0  0
  8  9  2  0  0  0
  8 23  1  0  0  0
  9 10  1  0  0  0
  9 11  1  0  0  0
 11 12  2  0  0  0
 11 16  1  0  0  0
 12 13  1  0  0  0
 12 20  1  0  0  0
 13 14  2  0  0  0
 13 24  1  0  0  0
 14 15  1  0  0  0
 14 25  1  0  0  0
 15 16  2  0  0  0
 15 26  1  0  0  0
 16 27  1  0  0  0
 18 28  1  0  0  0
 19 29  1  0  0  0
 20 30  1  0  0  0
M  END
> <s_m_entry_id>
35901

> <s_m_entry_name>
dock_pv.57

> <s_m_Source_Path>
/home/csk/Desktop/cluster/DUD-E-result/cp2c9

> <s_m_Source_File>
dock_pv.maegz

> <i_m_Source_File_Index>
57

> <chembl_id>
CHEMBL242385

> <chembl_pref_name>
None

> <i_lp_mmshare_version>
53161

> <i_f3d_flags>
0

> <r_lp_tautomer_probability>
0.999999999997365

> <s_lp_Force_Field>
OPLS_2005

> <r_lp_Energy>
18.908394

> <b_lp_Chiralities_Consistent>
1

> <s_lp_Variant>
CHEMBL3397_lig137-1

> <s_i_glide_gridfile>
glide-grid_1r9o

> <i_i_glide_lignum>
176

> <i_i_glide_rotatable_bonds>
4

> <r_i_docking_score>
-7.32086804732405

> <r_i_glide_ligand_efficiency>
-0.366043402366203

> <r_i_glide_ligand_efficiency_sa>
-0.993594658828977

> <r_i_glide_ligand_efficiency_ln>
-1.83217181385692

> <r_i_glide_gscore>
-7.32086804732405

> <r_i_glide_lipo>
-4.18147096724273

> <r_i_glide_hbond>
0

> <r_i_glide_metal>
0

> <r_i_glide_rewards>
-1.56656659090909

> <r_i_glide_evdw>
-35.990177154541

> <r_i_glide_ecoul>
-0.121300667524338

> <r_i_glide_erotb>
0.244873468683471

> <r_i_glide_esite>
0

> <r_i_glide_emodel>
-50.9665649488363

> <r_i_glide_energy>
-36.1114778220654

> <r_i_glide_einternal>
1.87132060527802

> <i_i_glide_confnum>
4

> <i_i_glide_posenum>
289

> <r_i_glide_eff_state_penalty>
0

> <s_user_duplicate_titles>
CHEMBL3397_lig137

> <s_m_subgroup_title>
dock_pv

> <s_m_subgroupid>
dock_pv

> <b_m_subgroup_collapsed>
1

$$$$
CHEMBL3397_lig79
                    3D
 Schrodinger Suite 2021-1.
 32 35  0  0  1  0            999 V2000
    4.7010   28.7750   -4.3410 O   0  0  0  0  0  0
    6.9034   33.5537   -2.5298 N   0  0  0  0  0  0
    8.1552   33.5485   -2.0086 C   0  0  0  0  0  0
    8.9681   32.4245   -1.9410 C   0  0  0  0  0  0
    8.8086   34.6467   -1.2780 C   0  0  0  0  0  0
    9.9892   34.1427   -0.7410 C   0  0  0  0  0  0
    7.1915   31.1641   -2.9638 C   0  0  0  0  0  0
    6.4118   32.3633   -2.9838 C   0  0  0  0  0  0
    8.5058   31.2227   -2.4535 C   0  0  0  0  0  0
   10.2265   32.7193   -1.1791 C   0  0  0  0  0  0
    6.6297   29.9548   -3.4166 C   0  0  0  0  0  0
    8.4060   35.9483   -0.9774 C   0  0  0  0  0  0
    5.0817   32.3018   -3.4592 C   0  0  0  0  0  0
    5.3102   29.9166   -3.8743 C   0  0  0  0  0  0
   10.7010   34.8993    0.1847 C   0  0  0  0  0  0
    4.5511   31.0859   -3.8875 C   0  0  0  0  0  0
    9.1531   36.7162   -0.0823 C   0  0  0  0  0  0
   10.2973   36.1900    0.5082 C   0  0  0  0  0  0
    5.4541   27.5750   -4.4780 C   0  0  0  0  0  0
    9.1010   30.3238   -2.4059 H   0  0  0  0  0  0
   10.3010   32.0498   -0.3220 H   0  0  0  0  0  0
   11.1338   32.5871   -1.7697 H   0  0  0  0  0  0
    7.2385   29.0640   -3.3828 H   0  0  0  0  0  0
    7.5010   36.3538   -1.3943 H   0  0  0  0  0  0
    4.4785   33.1985   -3.4739 H   0  0  0  0  0  0
   11.5396   34.4642    0.6960 H   0  0  0  0  0  0
    3.5326   31.0475   -4.2456 H   0  0  0  0  0  0
    8.8311   37.7018    0.1990 H   0  0  0  0  0  0
   10.8519   36.7680    1.2330 H   0  0  0  0  0  0
    4.8162   26.7899   -4.8811 H   0  0  0  0  0  0
    5.8519   27.2111   -3.5410 H   0  0  0  0  0  0
    6.3010   27.6941   -5.1410 H   0  0  0  0  0  0
  1 14  1  0  0  0
  1 19  1  0  0  0
  2  3  2  0  0  0
  2  8  1  0  0  0
  3  4  1  0  0  0
  3  5  1  0  0  0
  4  9  2  0  0  0
  4 10  1  0  0  0
  5  6  1  0  0  0
  5 12  2  0  0  0
  6 10  1  0  0  0
  6 15  2  0  0  0
  7  8  1  0  0  0
  7  9  1  0  0  0
  7 11  2  0  0  0
  8 13  2  0  0  0
  9 20  1  0  0  0
 10 21  1  0  0  0
 10 22  1  0  0  0
 11 14  1  0  0  0
 11 23  1  0  0  0
 12 17  1  0  0  0
 12 24  1  0  0  0
 13 16  1  0  0  0
 13 25  1  0  0  0
 14 16  2  0  0  0
 15 18  1  0  0  0
 15 26  1  0  0  0
 16 27  1  0  0  0
 17 18  2  0  0  0
 17 28  1  0  0  0
 18 29  1  0  0  0
 19 30  1  0  0  0
 19 31  1  0  0  0
 19 32  1  0  0  0
M  END
> <s_m_entry_id>
35902

> <s_m_entry_name>
dock_pv.58

> <s_m_Source_Path>
/home/csk/Desktop/cluster/DUD-E-result/cp2c9

> <s_m_Source_File>
dock_pv.maegz

> <i_m_Source_File_Index>
58

> <chembl_id>
CHEMBL1364404

> <chembl_pref_name>
None

> <i_lp_mmshare_version>
53161

> <i_f3d_flags>
0

> <r_lp_tautomer_probability>
1

> <s_lp_Force_Field>
OPLS_2005

> <r_lp_Energy>
35.622758

> <b_lp_Chiralities_Consistent>
1

> <s_lp_Variant>
CHEMBL3397_lig79-1

> <s_i_glide_gridfile>
glide-grid_1r9o

> <i_i_glide_lignum>
112

> <i_i_glide_rotatable_bonds>
1

> <r_i_docking_score>
-7.30404091918066

> <r_i_glide_ligand_efficiency>
-0.384423206272666

> <r_i_glide_ligand_efficiency_sa>
-1.02579551641816

> <r_i_glide_ligand_efficiency_ln>
-1.85173124942706

> <r_i_glide_gscore>
-7.30404091918066

> <r_i_glide_lipo>
-3.80228913279402

> <r_i_glide_hbond>
0

> <r_i_glide_metal>
0

> <r_i_glide_rewards>
-1.89845573297707

> <r_i_glide_evdw>
-28.3223476409912

> <r_i_glide_ecoul>
-1.24785780906677

> <r_i_glide_erotb>
0

> <r_i_glide_esite>
0

> <r_i_glide_emodel>
-38.0846590131115

> <r_i_glide_energy>
-29.570205450058

> <r_i_glide_einternal>
0.155035108327866

> <i_i_glide_confnum>
1

> <i_i_glide_posenum>
32

> <r_i_glide_eff_state_penalty>
0

> <s_user_duplicate_titles>
CHEMBL3397_lig79

> <s_m_subgroup_title>
dock_pv

> <s_m_subgroupid>
dock_pv

> <b_m_subgroup_collapsed>
1

$$$$
CHEMBL3397_lig122
                    3D
 Schrodinger Suite 2021-1.
 44 46  0  0  1  0            999 V2000
    8.9544   32.1501   -1.6479 C   0  0  0  0  0  0
    8.2433   33.4854   -1.3555 C   0  0  0  0  0  0
    8.1431   34.3750   -2.5994 C   0  0  0  0  0  0
    7.5270   33.6652   -3.8267 C   0  0  0  0  0  0
    8.3004   32.3495   -4.0742 C   0  0  0  0  0  0
    8.3046   31.4234   -2.8394 C   0  0  0  0  0  0
    6.0824   33.4247   -3.6565 N   0  0  0  0  0  0
    5.1803   33.2105   -4.6707 C   0  0  0  0  0  0
    3.9680   32.6787   -4.2660 N   0  0  0  0  0  0
    5.5446   33.5762   -6.2816 S   0  0  0  0  0  0
    2.7726   32.6202   -5.1394 C   0  0  0  0  0  0
    1.6169   33.3227   -4.4064 C   0  0  0  0  0  0
    1.3322   32.7244   -3.0136 C   0  0  0  0  0  0
    2.6343   32.5916   -2.1927 C   0  0  0  0  0  0
    3.7973   31.9423   -2.9854 C   0  0  0  0  0  0
    0.1960   33.4153   -2.2825 C   0  0  0  0  0  0
    0.0350   34.7754   -2.2385 N   0  0  0  0  0  0
   -1.1169   35.0155   -1.5413 C   0  0  0  0  0  0
   -1.6989   33.9134   -1.1416 N   0  0  0  0  0  0
   -0.9044   32.9464   -1.5681 C   0  0  0  0  0  0
    8.9419   31.5158   -0.7628 H   0  0  0  0  0  0
   10.0065   32.3358   -1.8659 H   0  0  0  0  0  0
    7.2440   33.2879   -0.9647 H   0  0  0  0  0  0
    8.7758   34.0331   -0.5794 H   0  0  0  0  0  0
    7.5603   35.2615   -2.3417 H   0  0  0  0  0  0
    9.1385   34.7414   -2.8611 H   0  0  0  0  0  0
    7.6718   34.3463   -4.6674 H   0  0  0  0  0  0
    9.3291   32.5816   -4.3409 H   0  0  0  0  0  0
    7.8883   31.8184   -4.9349 H   0  0  0  0  0  0
    7.2881   31.1189   -2.5864 H   0  0  0  0  0  0
    8.8455   30.5032   -3.0569 H   0  0  0  0  0  0
    5.7549   33.3085   -2.7090 H   0  0  0  0  0  0
    2.9050   33.1017   -6.1032 H   0  0  0  0  0  0
    2.5397   31.5757   -5.3327 H   0  0  0  0  0  0
    1.8910   34.3737   -4.3182 H   0  0  0  0  0  0
    0.7339   33.2461   -5.0421 H   0  0  0  0  0  0
    1.0485   31.6912   -3.2251 H   0  0  0  0  0  0
    2.4611   31.9850   -1.3029 H   0  0  0  0  0  0
    2.9811   33.5741   -1.8821 H   0  0  0  0  0  0
    3.5467   30.9103   -3.2356 H   0  0  0  0  0  0
    4.6940   31.8962   -2.3649 H   0  0  0  0  0  0
    0.6397   35.4699   -2.6581 H   0  0  0  0  0  0
   -1.4591   36.0262   -1.3741 H   0  0  0  0  0  0
   -1.1367   31.9079   -1.3744 H   0  0  0  0  0  0
  1  2  1  0  0  0
  1  6  1  0  0  0
  1 21  1  0  0  0
  1 22  1  0  0  0
  2  3  1  0  0  0
  2 23  1  0  0  0
  2 24  1  0  0  0
  3  4  1  0  0  0
  3 25  1  0  0  0
  3 26  1  0  0  0
  4  7  1  0  0  0
  4  5  1  0  0  0
  4 27  1  0  0  0
  5  6  1  0  0  0
  5 28  1  0  0  0
  5 29  1  0  0  0
  6 30  1  0  0  0
  6 31  1  0  0  0
  7  8  1  0  0  0
  7 32  1  0  0  0
  8  9  1  0  0  0
  8 10  2  0  0  0
  9 15  1  0  0  0
  9 11  1  0  0  0
 11 12  1  0  0  0
 11 33  1  0  0  0
 11 34  1  0  0  0
 12 13  1  0  0  0
 12 35  1  0  0  0
 12 36  1  0  0  0
 13 14  1  0  0  0
 13 16  1  0  0  0
 13 37  1  0  0  0
 14 15  1  0  0  0
 14 38  1  0  0  0
 14 39  1  0  0  0
 15 40  1  0  0  0
 15 41  1  0  0  0
 16 17  1  0  0  0
 16 20  2  0  0  0
 17 18  1  0  0  0
 17 42  1  0  0  0
 18 19  2  0  0  0
 18 43  1  0  0  0
 19 20  1  0  0  0
 20 44  1  0  0  0
M  END
> <s_m_entry_id>
35903

> <s_m_entry_name>
dock_pv.59

> <s_m_Source_Path>
/home/csk/Desktop/cluster/DUD-E-result/cp2c9

> <s_m_Source_File>
dock_pv.maegz

> <i_m_Source_File_Index>
59

> <chembl_id>
CHEMBL260374

> <chembl_pref_name>
THIOPERAMIDE

> <i_lp_mmshare_version>
53161

> <i_f3d_flags>
0

> <r_lp_tautomer_probability>
0.499999999999999

> <s_lp_Force_Field>
OPLS_2005

> <r_lp_Energy>
43.162962

> <b_lp_Chiralities_Consistent>
1

> <s_lp_Variant>
CHEMBL3397_lig122-1

> <s_i_glide_gridfile>
glide-grid_1r9o

> <i_i_glide_lignum>
160

> <i_i_glide_rotatable_bonds>
4

> <r_i_docking_score>
-7.25442080093244

> <r_i_glide_ligand_efficiency>
-0.362721040046622

> <r_i_glide_ligand_efficiency_sa>
-0.984576380029001

> <r_i_glide_ligand_efficiency_ln>
-1.81554225966196

> <r_i_glide_gscore>
-7.25442080093244

> <r_i_glide_lipo>
-3.34391117886226

> <r_i_glide_hbond>
0

> <r_i_glide_metal>
0

> <r_i_glide_rewards>
-2.86680697371939

> <r_i_glide_evdw>
-40.0106163024902

> <r_i_glide_ecoul>
0.686200678348541

> <r_i_glide_erotb>
0.853898065021446

> <r_i_glide_esite>
0

> <r_i_glide_emodel>
-56.2729781817232

> <r_i_glide_energy>
-39.3244156241417

> <r_i_glide_einternal>
1.31352615356445

> <i_i_glide_confnum>
152

> <i_i_glide_posenum>
205

> <r_i_glide_eff_state_penalty>
0

> <s_user_duplicate_titles>
CHEMBL3397_lig122,CHEMBL3397_lig122

> <s_m_subgroup_title>
dock_pv

> <s_m_subgroupid>
dock_pv

> <b_m_subgroup_collapsed>
1

$$$$
CHEMBL3397_lig10
                    3D
 Schrodinger Suite 2021-1.
 43 47  0  0  1  0            999 V2000
    0.3452   32.3771   -1.5675 C   0  0  0  0  0  0
   -0.1659   33.3732   -2.3312 N   0  0  0  0  0  0
    0.6657   33.9780   -3.2163 C   0  0  0  0  0  0
    2.0076   33.6229   -3.3613 C   0  0  0  0  0  0
    2.5357   32.6036   -2.5566 C   0  0  0  0  0  0
    1.6798   31.9772   -1.6423 C   0  0  0  0  0  0
    3.9799   32.2594   -2.6137 C   0  0  0  0  0  0
    4.9028   33.2912   -2.4383 C   0  0  0  0  0  0
    5.7861   30.6078   -2.8477 C   0  0  0  0  0  0
    4.4223   30.9435   -2.8151 C   0  0  0  0  0  0
    8.0973   31.6034   -2.5875 N   0  0  0  0  0  0
    6.7182   31.6356   -2.6130 C   0  0  0  0  0  0
    6.2476   32.9472   -2.3939 C   0  0  0  0  0  0
    7.3812   33.6750   -2.1815 N   0  0  0  0  0  0
    8.4597   32.8473   -2.3700 C   0  0  0  0  0  0
    9.8842   33.4040   -2.4732 C   0  0  2  0  0  0
   10.5603   33.5232   -1.2016 O   0  0  0  0  0  0
    9.1679   35.7158   -2.3411 O   0  0  0  0  0  0
    9.8971   34.8012   -3.1546 C   0  0  0  0  0  0
    9.5417   35.7215   -1.0345 C   0  0  0  0  0  0
   10.2562   34.6642   -0.4782 C   0  0  0  0  0  0
   10.6996   34.7758    0.8305 C   0  0  0  0  0  0
   10.2817   35.8338    1.6292 C   0  0  0  0  0  0
    9.4429   36.8049    1.0882 C   0  0  0  0  0  0
    9.1082   36.7799   -0.2570 C   0  0  0  0  0  0
    6.2075   29.1824   -3.1331 C   0  0  0  0  0  0
   -0.3333   31.9165   -0.8636 H   0  0  0  0  0  0
    0.2349   34.7708   -3.8116 H   0  0  0  0  0  0
    2.6320   34.1426   -4.0729 H   0  0  0  0  0  0
    2.0481   31.2086   -0.9805 H   0  0  0  0  0  0
    4.5847   34.3150   -2.3155 H   0  0  0  0  0  0
    3.6858   30.1683   -2.9708 H   0  0  0  0  0  0
    7.4838   34.6682   -2.0204 H   0  0  0  0  0  0
   10.4615   32.7028   -3.0694 H   0  0  0  0  0  0
   10.9116   35.1749   -3.2899 H   0  0  0  0  0  0
    9.3943   34.7714   -4.1185 H   0  0  0  0  0  0
   11.2745   33.9801    1.2553 H   0  0  0  0  0  0
   10.5745   35.8777    2.6684 H   0  0  0  0  0  0
    9.0829   37.6200    1.6932 H   0  0  0  0  0  0
    8.5216   37.5741   -0.6898 H   0  0  0  0  0  0
    6.9427   29.1701   -3.9319 H   0  0  0  0  0  0
    6.7031   28.7768   -2.2546 H   0  0  0  0  0  0
    5.3763   28.5404   -3.4269 H   0  0  0  0  0  0
  1  6  1  0  0  0
  1  2  2  0  0  0
  1 27  1  0  0  0
  2  3  1  0  0  0
  3  4  2  0  0  0
  3 28  1  0  0  0
  4  5  1  0  0  0
  4 29  1  0  0  0
  5  7  1  0  0  0
  5  6  2  0  0  0
  6 30  1  0  0  0
  7  8  2  0  0  0
  7 10  1  0  0  0
  8 13  1  0  0  0
  8 31  1  0  0  0
  9 12  1  0  0  0
  9 10  2  0  0  0
  9 26  1  0  0  0
 10 32  1  0  0  0
 11 12  1  0  0  0
 11 15  2  0  0  0
 12 13  2  0  0  0
 13 14  1  0  0  0
 14 15  1  0  0  0
 14 33  1  0  0  0
 15 16  1  0  0  0
 16 17  1  0  0  0
 16 19  1  0  0  0
 16 34  1  0  0  0
 17 21  1  0  0  0
 18 20  1  0  0  0
 18 19  1  0  0  0
 19 35  1  0  0  0
 19 36  1  0  0  0
 20 21  2  0  0  0
 20 25  1  0  0  0
 21 22  1  0  0  0
 22 23  2  0  0  0
 22 37  1  0  0  0
 23 24  1  0  0  0
 23 38  1  0  0  0
 24 25  2  0  0  0
 24 39  1  0  0  0
 25 40  1  0  0  0
 26 41  1  0  0  0
 26 42  1  0  0  0
 26 43  1  0  0  0
M  END
> <s_m_entry_id>
35904

> <s_m_entry_name>
dock_pv.60

> <s_m_Source_Path>
/home/csk/Desktop/cluster/DUD-E-result/cp2c9

> <s_m_Source_File>
dock_pv.maegz

> <i_m_Source_File_Index>
60

> <chembl_id>
CHEMBL1092500

> <chembl_pref_name>
None

> <i_lp_mmshare_version>
53161

> <i_f3d_flags>
0

> <r_lp_tautomer_probability>
1

> <s_lp_Force_Field>
OPLS_2005

> <r_lp_Energy>
17.553061

> <b_lp_Chiralities_Consistent>
1

> <s_lp_Variant>
CHEMBL3397_lig10-1

> <s_i_glide_gridfile>
glide-grid_1r9o

> <i_i_glide_lignum>
13

> <i_i_glide_rotatable_bonds>
2

> <r_i_docking_score>
-7.19319310626978

> <r_i_glide_ligand_efficiency>
-0.276661273318068

> <r_i_glide_ligand_efficiency_sa>
-0.819607933595234

> <r_i_glide_ligand_efficiency_ln>
-1.68929779821575

> <r_i_glide_gscore>
-7.19319310626978

> <r_i_glide_lipo>
-4.65189796219446

> <r_i_glide_hbond>
-0.00226133978676761

> <r_i_glide_metal>
0

> <r_i_glide_rewards>
-1.16086366581454

> <r_i_glide_evdw>
-32.1490745544434

> <r_i_glide_ecoul>
-0.617083013057709

> <r_i_glide_erotb>
0.321846041206818

> <r_i_glide_esite>
0

> <r_i_glide_emodel>
-37.1839183952614

> <r_i_glide_energy>
-32.7661575675011

> <r_i_glide_einternal>
2.55972838401794

> <i_i_glide_confnum>
23

> <i_i_glide_posenum>
202

> <r_i_glide_eff_state_penalty>
0

> <s_user_duplicate_titles>
CHEMBL3397_lig10

> <s_m_subgroup_title>
dock_pv

> <s_m_subgroupid>
dock_pv

> <b_m_subgroup_collapsed>
1

$$$$
CHEMBL3397_lig147
                    3D
 Schrodinger Suite 2021-1.
 65 68  0  0  1  0            999 V2000
   10.8225   36.7748   -1.5145 Cl  0  0  0  0  0  0
    3.8123   32.2037   -3.2253 P   0  0  0  0  0  0
    3.6570   30.7226   -3.2017 O   0  0  0  0  0  0
    5.2441   32.7241   -2.4078 N   0  0  2  0  0  0
    7.4126   31.4943   -3.2910 C   0  0  1  0  0  0
    6.5815   32.8042   -3.0824 C   0  0  2  0  0  0
    6.7072   30.3158   -3.9461 C   0  0  1  0  0  0
    7.7538   31.0871   -4.7107 C   0  0  0  0  0  0
    7.5216   33.9262   -2.6738 C   0  0  0  0  0  0
    8.4316   31.1293   -2.1871 C   0  0  0  0  0  0
    7.0539   28.8823   -3.5004 C   0  0  0  0  0  0
    2.2978   33.0037   -2.5764 C   0  0  0  0  0  0
    4.0386   32.8868   -4.8924 C   0  0  0  0  0  0
    7.6919   34.3109   -1.3400 C   0  0  0  0  0  0
    8.4268   34.3746   -3.6364 C   0  0  0  0  0  0
    9.7487   31.8994   -2.0615 C   0  0  0  0  0  0
    5.9302   27.8904   -3.6424 C   0  0  0  0  0  0
    8.6988   35.1994   -0.9788 C   0  0  0  0  0  0
    9.5013   35.1756   -3.2575 C   0  0  0  0  0  0
    1.4113   32.1814   -1.8757 C   0  0  0  0  0  0
    4.5330   34.1836   -5.0938 C   0  0  0  0  0  0
    1.9051   34.3057   -2.9051 C   0  0  0  0  0  0
    3.9067   32.0079   -5.9617 C   0  0  0  0  0  0
    9.6003   35.6348   -1.9431 C   0  0  0  0  0  0
   10.3011   31.7230   -0.6985 C   0  0  0  0  0  0
    0.1381   32.6302   -1.5418 C   0  0  0  0  0  0
    5.0800   34.5181   -6.3274 C   0  0  0  0  0  0
    0.6506   34.7750   -2.5219 C   0  0  0  0  0  0
    4.4129   32.3746   -7.1995 C   0  0  0  0  0  0
    5.4994   27.5169   -5.0283 C   0  0  0  0  0  0
   -0.2368   33.9305   -1.8644 C   0  0  0  0  0  0
    5.0722   33.5832   -7.3517 C   0  0  0  0  0  0
    5.2633   32.6683   -1.3894 H   0  0  0  0  0  0
    6.3665   33.0701   -4.1060 H   0  0  0  0  0  0
    5.7056   30.4130   -4.3410 H   0  0  0  0  0  0
    7.4272   31.7083   -5.5452 H   0  0  0  0  0  0
    8.7007   30.6064   -4.9313 H   0  0  0  0  0  0
    7.8818   31.1419   -1.2480 H   0  0  0  0  0  0
    8.8130   30.1245   -2.3411 H   0  0  0  0  0  0
    7.9787   28.5032   -3.9382 H   0  0  0  0  0  0
    7.2016   28.8767   -2.4217 H   0  0  0  0  0  0
    7.1008   33.8710   -0.5590 H   0  0  0  0  0  0
    8.3313   34.0496   -4.6617 H   0  0  0  0  0  0
   10.5150   31.5756   -2.7471 H   0  0  0  0  0  0
    9.7093   32.9489   -2.2006 H   0  0  0  0  0  0
    6.3008   26.9812   -3.1481 H   0  0  0  0  0  0
    5.0475   28.2932   -3.1414 H   0  0  0  0  0  0
    8.8020   35.5151    0.0491 H   0  0  0  0  0  0
   10.2078   35.5139   -4.0014 H   0  0  0  0  0  0
    1.6920   31.1752   -1.6200 H   0  0  0  0  0  0
    4.6360   34.8745   -4.2683 H   0  0  0  0  0  0
    2.5590   34.9628   -3.4538 H   0  0  0  0  0  0
    3.4962   31.0184   -5.8231 H   0  0  0  0  0  0
   10.9416   32.5754   -0.4611 H   0  0  0  0  0  0
    9.5361   31.6660    0.0605 H   0  0  0  0  0  0
   10.8593   30.7883   -0.7407 H   0  0  0  0  0  0
   -0.5481   31.9801   -1.0174 H   0  0  0  0  0  0
    5.5390   35.4779   -6.4974 H   0  0  0  0  0  0
    0.3572   35.7888   -2.7406 H   0  0  0  0  0  0
    4.3251   31.6932   -8.0340 H   0  0  0  0  0  0
    4.7014   26.7752   -4.9853 H   0  0  0  0  0  0
    5.0843   28.3716   -5.5398 H   0  0  0  0  0  0
    6.3561   27.0989   -5.5408 H   0  0  0  0  0  0
   -1.2159   34.2922   -1.5840 H   0  0  0  0  0  0
    5.4773   33.8412   -8.3139 H   0  0  0  0  0  0
  1 24  1  0  0  0
  2  3  2  0  0  0
  2  4  1  0  0  0
  2 12  1  0  0  0
  2 13  1  0  0  0
  4  6  1  0  0  0
  4 33  1  0  0  0
  5  6  1  0  0  0
  5  7  1  0  0  0
  5  8  1  0  0  0
  5 10  1  0  0  0
  6  9  1  0  0  0
  6 34  1  0  0  0
  7  8  1  0  0  0
  7 11  1  0  0  0
  7 35  1  0  0  0
  8 36  1  0  0  0
  8 37  1  0  0  0
  9 14  2  0  0  0
  9 15  1  0  0  0
 10 16  1  0  0  0
 10 38  1  0  0  0
 10 39  1  0  0  0
 11 17  1  0  0  0
 11 40  1  0  0  0
 11 41  1  0  0  0
 12 20  2  0  0  0
 12 22  1  0  0  0
 13 21  2  0  0  0
 13 23  1  0  0  0
 14 18  1  0  0  0
 14 42  1  0  0  0
 15 19  2  0  0  0
 15 43  1  0  0  0
 16 25  1  0  0  0
 16 44  1  0  0  0
 16 45  1  0  0  0
 17 30  1  0  0  0
 17 46  1  0  0  0
 17 47  1  0  0  0
 18 24  2  0  0  0
 18 48  1  0  0  0
 19 24  1  0  0  0
 19 49  1  0  0  0
 20 26  1  0  0  0
 20 50  1  0  0  0
 21 27  1  0  0  0
 21 51  1  0  0  0
 22 28  2  0  0  0
 22 52  1  0  0  0
 23 29  2  0  0  0
 23 53  1  0  0  0
 25 54  1  0  0  0
 25 55  1  0  0  0
 25 56  1  0  0  0
 26 31  2  0  0  0
 26 57  1  0  0  0
 27 32  2  0  0  0
 27 58  1  0  0  0
 28 31  1  0  0  0
 28 59  1  0  0  0
 29 32  1  0  0  0
 29 60  1  0  0  0
 30 61  1  0  0  0
 30 62  1  0  0  0
 30 63  1  0  0  0
 31 64  1  0  0  0
 32 65  1  0  0  0
M  END
> <s_m_entry_id>
35905

> <s_m_entry_name>
dock_pv.61

> <s_m_Source_Path>
/home/csk/Desktop/cluster/DUD-E-result/cp2c9

> <s_m_Source_File>
dock_pv.maegz

> <i_m_Source_File_Index>
61

> <chembl_id>
CHEMBL1364980

> <chembl_pref_name>
None

> <i_lp_mmshare_version>
53161

> <i_f3d_flags>
0

> <r_lp_tautomer_probability>
1

> <s_lp_Force_Field>
OPLS_2005

> <r_lp_Energy>
26.611038

> <b_lp_Chiralities_Consistent>
1

> <s_lp_Variant>
CHEMBL3397_lig147-1

> <s_i_glide_gridfile>
glide-grid_1r9o

> <i_i_glide_lignum>
187

> <i_i_glide_rotatable_bonds>
10

> <r_i_docking_score>
-7.18552338501696

> <r_i_glide_ligand_efficiency>
-0.22454760578178

> <r_i_glide_ligand_efficiency_sa>
-0.712894210446309

> <r_i_glide_ligand_efficiency_ln>
-1.60903455587513

> <r_i_glide_gscore>
-7.18552338501696

> <r_i_glide_lipo>
-6.07398399653009

> <r_i_glide_hbond>
0

> <r_i_glide_metal>
0

> <r_i_glide_rewards>
-0.585232641819979

> <r_i_glide_evdw>
-21.6110363006592

> <r_i_glide_ecoul>
-1.25921940803528

> <r_i_glide_erotb>
0.743127979571363

> <r_i_glide_esite>
0

> <r_i_glide_emodel>
-40.7034400553534

> <r_i_glide_energy>
-22.8702557086945

> <r_i_glide_einternal>
23.130485534668

> <i_i_glide_confnum>
66

> <i_i_glide_posenum>
313

> <r_i_glide_eff_state_penalty>
0

> <s_user_duplicate_titles>
CHEMBL3397_lig147

> <s_m_subgroup_title>
dock_pv

> <s_m_subgroupid>
dock_pv

> <b_m_subgroup_collapsed>
1

$$$$
CHEMBL3397_lig87
                    3D
 Schrodinger Suite 2021-1.
 52 53  0  0  1  0            999 V2000
    9.3235   31.9404   -1.7987 C   0  0  0  0  0  0
    8.1416   31.8813   -2.5428 C   0  0  0  0  0  0
    7.4915   33.0770   -2.8729 C   0  0  0  0  0  0
    8.0274   34.2941   -2.4845 C   0  0  0  0  0  0
    9.2389   34.3494   -1.8008 C   0  0  0  0  0  0
    9.8843   33.1649   -1.4426 C   0  0  0  0  0  0
    9.8147   35.5990   -1.5567 N   0  0  0  0  0  0
   10.0657   36.2296    0.0702 S   0  0  0  0  0  0
    8.3065   36.4916    0.6726 C   0  0  0  0  0  0
   10.7028   37.5359   -0.1028 O   0  0  0  0  0  0
   10.7010   35.1736    0.8602 O   0  0  0  0  0  0
    7.6877   30.6317   -2.9258 O   0  0  0  0  0  0
    6.6273   30.5285   -3.8856 C   0  0  0  0  0  0
    5.2305   30.7187   -3.2495 C   0  0  1  0  0  0
    4.0671   30.8459   -4.2671 C   0  0  0  0  0  0
    4.9579   29.5762   -2.4812 O   0  0  0  0  0  0
    4.1456   32.0160   -5.1526 N   0  0  2  0  0  0
    3.6780   33.3535   -4.7214 C   0  0  0  0  0  0
    3.4757   33.7064   -3.2247 C   0  0  0  0  0  0
    2.0297   33.5930   -2.7437 C   0  0  0  0  0  0
    1.2136   34.7307   -2.7409 C   0  0  0  0  0  0
   -0.1141   34.6544   -2.3280 C   0  0  0  0  0  0
   -0.6482   33.4310   -1.9297 C   0  0  0  0  0  0
    0.1536   32.2858   -1.9410 C   0  0  0  0  0  0
    1.4958   32.3803   -2.3017 C   0  0  0  0  0  0
   -0.4986   30.7395   -1.5404 Cl  0  0  0  0  0  0
   -2.2859   33.3634   -1.3941 Cl  0  0  0  0  0  0
    3.5176   31.7014   -6.4370 C   0  0  0  0  0  0
    9.8216   31.0276   -1.5157 H   0  0  0  0  0  0
    6.5768   33.0918   -3.4417 H   0  0  0  0  0  0
    7.4842   35.1822   -2.7405 H   0  0  0  0  0  0
   10.8208   33.1868   -0.9037 H   0  0  0  0  0  0
    9.6930   36.3041   -2.2673 H   0  0  0  0  0  0
    8.3457   36.9452    1.6591 H   0  0  0  0  0  0
    7.8108   35.5245    0.7212 H   0  0  0  0  0  0
    7.7895   37.1524   -0.0206 H   0  0  0  0  0  0
    6.7902   31.2212   -4.7134 H   0  0  0  0  0  0
    6.6837   29.5424   -4.3410 H   0  0  0  0  0  0
    5.2500   31.5281   -2.5333 H   0  0  0  0  0  0
    4.0913   29.9333   -4.8660 H   0  0  0  0  0  0
    3.0982   30.8171   -3.7906 H   0  0  0  0  0  0
    5.7654   29.3187   -2.0214 H   0  0  0  0  0  0
    4.4062   34.0565   -5.1319 H   0  0  0  0  0  0
    2.7429   33.6057   -5.2281 H   0  0  0  0  0  0
    4.1510   33.2178   -2.5359 H   0  0  0  0  0  0
    3.7517   34.7581   -3.1321 H   0  0  0  0  0  0
    1.6098   35.6863   -3.0517 H   0  0  0  0  0  0
   -0.7269   35.5445   -2.3184 H   0  0  0  0  0  0
    2.1056   31.4965   -2.2267 H   0  0  0  0  0  0
    3.7157   32.4903   -7.1645 H   0  0  0  0  0  0
    3.8981   30.7755   -6.8585 H   0  0  0  0  0  0
    2.4390   31.5761   -6.3357 H   0  0  0  0  0  0
  1  6  1  0  0  0
  1  2  2  0  0  0
  1 29  1  0  0  0
  2  3  1  0  0  0
  2 12  1  0  0  0
  3  4  2  0  0  0
  3 30  1  0  0  0
  4  5  1  0  0  0
  4 31  1  0  0  0
  5  7  1  0  0  0
  5  6  2  0  0  0
  6 32  1  0  0  0
  7  8  1  0  0  0
  7 33  1  0  0  0
  8  9  1  0  0  0
  8 10  2  0  0  0
  8 11  2  0  0  0
  9 34  1  0  0  0
  9 35  1  0  0  0
  9 36  1  0  0  0
 12 13  1  0  0  0
 13 14  1  0  0  0
 13 37  1  0  0  0
 13 38  1  0  0  0
 14 15  1  0  0  0
 14 16  1  0  0  0
 14 39  1  0  0  0
 15 17  1  0  0  0
 15 40  1  0  0  0
 15 41  1  0  0  0
 16 42  1  0  0  0
 17 18  1  0  0  0
 17 28  1  0  0  0
 18 19  1  0  0  0
 18 43  1  0  0  0
 18 44  1  0  0  0
 19 20  1  0  0  0
 19 45  1  0  0  0
 19 46  1  0  0  0
 20 21  2  0  0  0
 20 25  1  0  0  0
 21 22  1  0  0  0
 21 47  1  0  0  0
 22 23  2  0  0  0
 22 48  1  0  0  0
 23 24  1  0  0  0
 23 27  1  0  0  0
 24 25  2  0  0  0
 24 26  1  0  0  0
 25 49  1  0  0  0
 28 50  1  0  0  0
 28 51  1  0  0  0
 28 52  1  0  0  0
M  END
> <s_m_entry_id>
35906

> <s_m_entry_name>
dock_pv.62

> <s_m_Source_Path>
/home/csk/Desktop/cluster/DUD-E-result/cp2c9

> <s_m_Source_File>
dock_pv.maegz

> <i_m_Source_File_Index>
62

> <chembl_id>
CHEMBL493044

> <chembl_pref_name>
None

> <i_lp_mmshare_version>
53161

> <i_f3d_flags>
0

> <r_lp_tautomer_probability>
1

> <s_lp_Force_Field>
OPLS_2005

> <r_lp_Energy>
25.385768

> <b_lp_Chiralities_Consistent>
1

> <s_lp_Variant>
CHEMBL3397_lig87-1

> <s_i_glide_gridfile>
glide-grid_1r9o

> <i_i_glide_lignum>
125

> <i_i_glide_rotatable_bonds>
11

> <r_i_docking_score>
-7.17800168273746

> <r_i_glide_ligand_efficiency>
-0.256357202954909

> <r_i_glide_ligand_efficiency_sa>
-0.778451454489116

> <r_i_glide_ligand_efficiency_ln>
-1.6568935436631

> <r_i_glide_gscore>
-7.17800168273746

> <r_i_glide_lipo>
-5.24652665861032

> <r_i_glide_hbond>
0

> <r_i_glide_metal>
0

> <r_i_glide_rewards>
-0.35610328913694

> <r_i_glide_evdw>
-48.6396102905273

> <r_i_glide_ecoul>
0.37484684586525

> <r_i_glide_erotb>
0.800381752656382

> <r_i_glide_esite>
0

> <r_i_glide_emodel>
-59.4895901576531

> <r_i_glide_energy>
-48.2647634446621

> <r_i_glide_einternal>
17.8938407897949

> <i_i_glide_confnum>
30

> <i_i_glide_posenum>
76

> <r_i_glide_eff_state_penalty>
0

> <s_user_duplicate_titles>
CHEMBL3397_lig87

> <s_m_subgroup_title>
dock_pv

> <s_m_subgroupid>
dock_pv

> <b_m_subgroup_collapsed>
1

$$$$
CHEMBL3397_lig119
                    3D
 Schrodinger Suite 2021-1.
 30 32  0  0  1  0            999 V2000
    2.1185   33.4304   -2.9847 C   0  0  0  0  0  0
    3.4046   33.9884   -3.5405 C   0  0  0  0  0  0
    1.0297   34.2213   -2.5785 C   0  0  0  0  0  0
    1.9888   32.0430   -2.8516 C   0  0  0  0  0  0
    4.4510   32.9999   -3.6887 C   0  0  0  0  0  0
    4.2259   31.6875   -3.4956 C   0  0  0  0  0  0
    3.0165   31.1754   -3.1430 O   0  0  0  0  0  0
   -0.1302   33.6513   -2.0335 C   0  0  0  0  0  0
    0.8146   31.4670   -2.3832 C   0  0  0  0  0  0
   -0.2239   32.2644   -1.9412 C   0  0  0  0  0  0
    3.5959   35.1740   -3.8012 O   0  0  0  0  0  0
    5.2613   30.6367   -3.5217 C   0  0  0  0  0  0
    1.1010   35.5750   -2.6733 O   0  0  0  0  0  0
   -1.1656   34.4342   -1.5676 O   0  0  0  0  0  0
   -1.3201   31.6669   -1.3910 O   0  0  0  0  0  0
    4.9088   29.3549   -3.9410 C   0  0  0  0  0  0
    6.5851   30.8927   -3.1411 C   0  0  0  0  0  0
    7.5245   29.8648   -3.1410 C   0  0  0  0  0  0
    5.8413   28.3270   -3.9410 C   0  0  0  0  0  0
    7.1399   28.5799   -3.5158 C   0  0  0  0  0  0
    5.4405   33.3394   -3.9502 H   0  0  0  0  0  0
    0.7008   30.3980   -2.3416 H   0  0  0  0  0  0
    0.3030   36.0103   -2.9943 H   0  0  0  0  0  0
   -0.9138   35.3420   -1.3794 H   0  0  0  0  0  0
   -1.8924   32.3326   -0.9944 H   0  0  0  0  0  0
    3.9010   29.1746   -4.2757 H   0  0  0  0  0  0
    6.8845   31.8787   -2.8172 H   0  0  0  0  0  0
    8.5405   30.0562   -2.8280 H   0  0  0  0  0  0
    5.5573   27.3316   -4.2517 H   0  0  0  0  0  0
    7.8598   27.7743   -3.4952 H   0  0  0  0  0  0
  1  2  1  0  0  0
  1  3  2  0  0  0
  1  4  1  0  0  0
  2  5  1  0  0  0
  2 11  2  0  0  0
  3  8  1  0  0  0
  3 13  1  0  0  0
  4  7  1  0  0  0
  4  9  2  0  0  0
  5  6  2  0  0  0
  5 21  1  0  0  0
  6  7  1  0  0  0
  6 12  1  0  0  0
  8 14  1  0  0  0
  8 10  2  0  0  0
  9 10  1  0  0  0
  9 22  1  0  0  0
 10 15  1  0  0  0
 12 16  1  0  0  0
 12 17  2  0  0  0
 13 23  1  0  0  0
 14 24  1  0  0  0
 15 25  1  0  0  0
 16 19  2  0  0  0
 16 26  1  0  0  0
 17 18  1  0  0  0
 17 27  1  0  0  0
 18 20  2  0  0  0
 18 28  1  0  0  0
 19 20  1  0  0  0
 19 29  1  0  0  0
 20 30  1  0  0  0
M  END
> <s_m_entry_id>
35907

> <s_m_entry_name>
dock_pv.63

> <s_m_Source_Path>
/home/csk/Desktop/cluster/DUD-E-result/cp2c9

> <s_m_Source_File>
dock_pv.maegz

> <i_m_Source_File_Index>
63

> <chembl_id>
CHEMBL8260

> <chembl_pref_name>
BAICALEIN

> <i_lp_mmshare_version>
53161

> <i_f3d_flags>
0

> <r_lp_tautomer_probability>
1

> <s_lp_Force_Field>
OPLS_2005

> <r_lp_Energy>
14.070339

> <b_lp_Chiralities_Consistent>
1

> <s_lp_Variant>
CHEMBL3397_lig119-1

> <s_i_glide_gridfile>
glide-grid_1r9o

> <i_i_glide_lignum>
157

> <i_i_glide_rotatable_bonds>
4

> <r_i_docking_score>
-7.17241104118004

> <r_i_glide_ligand_efficiency>
-0.358620552059002

> <r_i_glide_ligand_efficiency_sa>
-0.973445943209885

> <r_i_glide_ligand_efficiency_ln>
-1.79501792165884

> <r_i_glide_gscore>
-7.17241104118004

> <r_i_glide_lipo>
-3.87783295401149

> <r_i_glide_hbond>
0

> <r_i_glide_metal>
0

> <r_i_glide_rewards>
-1.56656659090909

> <r_i_glide_evdw>
-28.0515918731689

> <r_i_glide_ecoul>
-3.80203580856323

> <r_i_glide_erotb>
0.244873468683471

> <r_i_glide_esite>
0

> <r_i_glide_emodel>
-39.521703280419

> <r_i_glide_energy>
-31.8536276817322

> <r_i_glide_einternal>
3.86970472335815

> <i_i_glide_confnum>
3

> <i_i_glide_posenum>
320

> <r_i_glide_eff_state_penalty>
0

> <s_user_duplicate_titles>
CHEMBL3397_lig119

> <s_m_subgroup_title>
dock_pv

> <s_m_subgroupid>
dock_pv

> <b_m_subgroup_collapsed>
1

$$$$
CHEMBL3397_lig105
                    3D
 Schrodinger Suite 2021-1.
 49 52  0  0  1  0            999 V2000
    9.9009   35.2691   -3.9404 O   0  0  0  0  0  0
    8.3364   33.9081   -2.9749 N   0  0  0  0  0  0
    2.8367   32.3644   -2.8595 N   0  0  0  0  0  0
    0.8328   31.2422   -2.3055 N   0  0  0  0  0  0
   10.9577   36.3782    0.8035 N   0  0  0  0  0  0
    5.8614   32.3205   -3.3264 C   0  0  0  0  0  0
    6.5031   32.5544   -1.9380 C   0  0  0  0  0  0
    7.1117   32.1366   -4.1966 C   0  0  0  0  0  0
    4.9126   33.4246   -3.8523 C   0  0  0  0  0  0
    4.9599   31.0688   -3.4158 C   0  0  0  0  0  0
    9.3872   34.7900   -2.9246 C   0  0  0  0  0  0
    7.3381   33.8669   -1.8670 C   0  0  0  0  0  0
    7.8940   33.4562   -4.3300 C   0  0  0  0  0  0
    3.6605   33.5834   -2.9741 C   0  0  0  0  0  0
    3.6764   31.1785   -2.5619 C   0  0  0  0  0  0
    1.4948   32.4272   -2.4508 C   0  0  0  0  0  0
    9.9282   35.3254   -1.6115 C   0  0  0  0  0  0
    0.8376   33.6432   -2.1808 C   0  0  0  0  0  0
   10.2985   36.6792   -1.5002 C   0  0  0  0  0  0
   10.1753   34.4968   -0.5132 C   0  0  0  0  0  0
   -0.4417   31.2413   -1.8462 C   0  0  0  0  0  0
   -0.4813   33.6302   -1.7213 C   0  0  0  0  0  0
   10.7714   37.1693   -0.2816 C   0  0  0  0  0  0
   10.6905   35.0575    0.6603 C   0  0  0  0  0  0
   -1.1327   32.4121   -1.5406 C   0  0  0  0  0  0
    7.1041   31.6971   -1.6258 H   0  0  0  0  0  0
    5.7256   32.6210   -1.1772 H   0  0  0  0  0  0
    6.8000   31.8592   -5.2054 H   0  0  0  0  0  0
    7.7421   31.3087   -3.8645 H   0  0  0  0  0  0
    5.4141   34.3902   -3.8614 H   0  0  0  0  0  0
    4.6274   33.2608   -4.8931 H   0  0  0  0  0  0
    4.6935   30.8210   -4.4422 H   0  0  0  0  0  0
    5.5231   30.1994   -3.0753 H   0  0  0  0  0  0
    7.8060   33.8464   -0.8855 H   0  0  0  0  0  0
    6.6782   34.7293   -1.9535 H   0  0  0  0  0  0
    7.2922   34.2296   -4.8065 H   0  0  0  0  0  0
    8.7012   33.1673   -4.9836 H   0  0  0  0  0  0
    3.9403   33.9126   -1.9743 H   0  0  0  0  0  0
    3.0742   34.3821   -3.4291 H   0  0  0  0  0  0
    3.9165   31.1787   -1.4980 H   0  0  0  0  0  0
    3.0969   30.2735   -2.7514 H   0  0  0  0  0  0
    1.3284   34.5963   -2.2954 H   0  0  0  0  0  0
   10.2346   37.3499   -2.3427 H   0  0  0  0  0  0
    9.9822   33.4336   -0.5654 H   0  0  0  0  0  0
   -0.8988   30.2721   -1.7278 H   0  0  0  0  0  0
   -0.9876   34.5567   -1.4947 H   0  0  0  0  0  0
   11.0337   38.2109   -0.1680 H   0  0  0  0  0  0
   10.8611   34.4401    1.5285 H   0  0  0  0  0  0
   -2.1455   32.3814   -1.1704 H   0  0  0  0  0  0
  1 11  2  0  0  0
  2 11  1  0  0  0
  2 12  1  0  0  0
  2 13  1  0  0  0
  3 14  1  0  0  0
  3 15  1  0  0  0
  3 16  1  0  0  0
  4 16  1  0  0  0
  4 21  2  0  0  0
  5 23  2  0  0  0
  5 24  1  0  0  0
  6  7  1  0  0  0
  6  8  1  0  0  0
  6  9  1  0  0  0
  6 10  1  0  0  0
  7 12  1  0  0  0
  7 26  1  0  0  0
  7 27  1  0  0  0
  8 13  1  0  0  0
  8 28  1  0  0  0
  8 29  1  0  0  0
  9 14  1  0  0  0
  9 30  1  0  0  0
  9 31  1  0  0  0
 10 15  1  0  0  0
 10 32  1  0  0  0
 10 33  1  0  0  0
 11 17  1  0  0  0
 12 34  1  0  0  0
 12 35  1  0  0  0
 13 36  1  0  0  0
 13 37  1  0  0  0
 14 38  1  0  0  0
 14 39  1  0  0  0
 15 40  1  0  0  0
 15 41  1  0  0  0
 16 18  2  0  0  0
 17 19  2  0  0  0
 17 20  1  0  0  0
 18 22  1  0  0  0
 18 42  1  0  0  0
 19 23  1  0  0  0
 19 43  1  0  0  0
 20 24  2  0  0  0
 20 44  1  0  0  0
 21 25  1  0  0  0
 21 45  1  0  0  0
 22 25  2  0  0  0
 22 46  1  0  0  0
 23 47  1  0  0  0
 24 48  1  0  0  0
 25 49  1  0  0  0
M  END
> <s_m_entry_id>
35908

> <s_m_entry_name>
dock_pv.64

> <s_m_Source_Path>
/home/csk/Desktop/cluster/DUD-E-result/cp2c9

> <s_m_Source_File>
dock_pv.maegz

> <i_m_Source_File_Index>
64

> <chembl_id>
CHEMBL1315700

> <chembl_pref_name>
None

> <i_lp_mmshare_version>
53161

> <i_f3d_flags>
0

> <r_lp_tautomer_probability>
1

> <s_lp_Force_Field>
OPLS_2005

> <r_lp_Energy>
48.973754

> <b_lp_Chiralities_Consistent>
1

> <s_lp_Variant>
CHEMBL3397_lig105-1

> <s_i_glide_gridfile>
glide-grid_1r9o

> <i_i_glide_lignum>
143

> <i_i_glide_rotatable_bonds>
3

> <r_i_docking_score>
-7.14237122224684

> <r_i_glide_ligand_efficiency>
-0.285694848889874

> <r_i_glide_ligand_efficiency_sa>
-0.83537680497371

> <r_i_glide_ligand_efficiency_ln>
-1.6929560192661

> <r_i_glide_gscore>
-7.14237122224684

> <r_i_glide_lipo>
-3.84626904177065

> <r_i_glide_hbond>
0

> <r_i_glide_metal>
0

> <r_i_glide_rewards>
-1.92483322588482

> <r_i_glide_evdw>
-33.1249694824219

> <r_i_glide_ecoul>
-1.43735802173615

> <r_i_glide_erotb>
0.50058322279015

> <r_i_glide_esite>
0

> <r_i_glide_emodel>
-40.3750562361835

> <r_i_glide_energy>
-34.562327504158

> <r_i_glide_einternal>
6.8631649017334

> <i_i_glide_confnum>
50

> <i_i_glide_posenum>
133

> <r_i_glide_eff_state_penalty>
0

> <s_user_duplicate_titles>
CHEMBL3397_lig105

> <s_m_subgroup_title>
dock_pv

> <s_m_subgroupid>
dock_pv

> <b_m_subgroup_collapsed>
1

$$$$
CHEMBL3397_lig5
                    3D
 Schrodinger Suite 2021-1.
 48 51  0  0  1  0            999 V2000
    8.2361   36.3321   -0.3070 C   0  0  0  0  0  0
    9.3068   35.5104   -0.7423 O   0  0  0  0  0  0
    9.0374   34.2638   -1.2687 C   0  0  0  0  0  0
   10.1410   33.4459   -1.4319 C   0  0  0  0  0  0
   10.0320   32.1636   -1.9410 C   0  0  0  0  0  0
    8.7643   31.6331   -2.2626 C   0  0  0  0  0  0
    8.7010   30.3648   -2.7410 N   0  0  0  0  0  0
    7.5059   29.8249   -3.0568 C   0  0  0  0  0  0
    6.3136   30.5000   -2.8806 C   0  0  0  0  0  0
    6.3424   31.8047   -2.3824 C   0  0  0  0  0  0
    5.0419   32.5703   -2.2590 C   0  0  2  0  0  0
    3.9979   31.7968   -1.6881 O   0  0  0  0  0  0
    4.6919   33.2254   -3.6179 C   0  0  1  0  0  0
    3.9019   32.3116   -4.6157 C   0  0  0  0  0  0
    2.7585   33.1188   -5.2651 C   0  0  2  0  0  0
    3.4329   34.3534   -5.9343 C   0  0  0  0  0  0
    4.2429   35.1750   -4.8953 C   0  0  0  0  0  0
    4.1584   34.6039   -3.5410 N   0  0  1  0  0  0
    2.7402   34.5077   -3.1410 C   0  0  0  0  0  0
    1.8685   33.6753   -4.1203 C   0  0  2  0  0  0
    1.1010   32.6004   -3.3543 C   0  0  0  0  0  0
    0.3011   32.8260   -2.2975 C   0  0  0  0  0  0
    7.5984   32.4313   -2.0794 C   0  0  0  0  0  0
    7.7705   33.7763   -1.6193 C   0  0  0  0  0  0
    8.6429   37.2182    0.1787 H   0  0  0  0  0  0
    7.6211   36.6658   -1.1410 H   0  0  0  0  0  0
    7.6130   35.8173    0.4257 H   0  0  0  0  0  0
   11.1010   33.8181   -1.1348 H   0  0  0  0  0  0
   10.9250   31.5750   -2.0755 H   0  0  0  0  0  0
    7.5178   28.8119   -3.4330 H   0  0  0  0  0  0
    5.3793   30.0214   -3.1376 H   0  0  0  0  0  0
    5.1672   33.3627   -1.5410 H   0  0  0  0  0  0
    4.2466   31.5915   -0.7828 H   0  0  0  0  0  0
    5.6706   33.3661   -4.0840 H   0  0  0  0  0  0
    3.4903   31.4319   -4.1226 H   0  0  0  0  0  0
    4.5778   31.9058   -5.3698 H   0  0  0  0  0  0
    2.1831   32.4947   -5.9410 H   0  0  0  0  0  0
    4.0749   34.0294   -6.7542 H   0  0  0  0  0  0
    2.7010   35.0415   -6.3410 H   0  0  0  0  0  0
    3.9010   36.2107   -4.8717 H   0  0  0  0  0  0
    5.2884   35.2096   -5.2047 H   0  0  0  0  0  0
    2.3002   35.4860   -2.9410 H   0  0  0  0  0  0
    2.7283   33.9750   -2.1858 H   0  0  0  0  0  0
    1.1078   34.3358   -4.5402 H   0  0  0  0  0  0
    1.2127   31.5832   -3.6987 H   0  0  0  0  0  0
    0.1471   33.8224   -1.9089 H   0  0  0  0  0  0
   -0.2124   32.0134   -1.8044 H   0  0  0  0  0  0
    6.9192   34.4266   -1.5410 H   0  0  0  0  0  0
  1  2  1  0  0  0
  1 25  1  0  0  0
  1 26  1  0  0  0
  1 27  1  0  0  0
  2  3  1  0  0  0
  3  4  2  0  0  0
  3 24  1  0  0  0
  4  5  1  0  0  0
  4 28  1  0  0  0
  5  6  2  0  0  0
  5 29  1  0  0  0
  6  7  1  0  0  0
  6 23  1  0  0  0
  7  8  2  0  0  0
  8  9  1  0  0  0
  8 30  1  0  0  0
  9 10  2  0  0  0
  9 31  1  0  0  0
 10 11  1  0  0  0
 10 23  1  0  0  0
 11 12  1  0  0  0
 11 13  1  0  0  0
 11 32  1  0  0  0
 12 33  1  0  0  0
 13 14  1  0  0  0
 13 18  1  0  0  0
 13 34  1  0  0  0
 14 15  1  0  0  0
 14 35  1  0  0  0
 14 36  1  0  0  0
 15 16  1  0  0  0
 15 20  1  0  0  0
 15 37  1  0  0  0
 16 17  1  0  0  0
 16 38  1  0  0  0
 16 39  1  0  0  0
 17 18  1  0  0  0
 17 40  1  0  0  0
 17 41  1  0  0  0
 18 19  1  0  0  0
 19 20  1  0  0  0
 19 42  1  0  0  0
 19 43  1  0  0  0
 20 21  1  0  0  0
 20 44  1  0  0  0
 21 22  2  0  0  0
 21 45  1  0  0  0
 22 46  1  0  0  0
 22 47  1  0  0  0
 23 24  2  0  0  0
 24 48  1  0  0  0
M  END
> <s_m_entry_id>
35909

> <s_m_entry_name>
dock_pv.65

> <s_m_Source_Path>
/home/csk/Desktop/cluster/DUD-E-result/cp2c9

> <s_m_Source_File>
dock_pv.maegz

> <i_m_Source_File_Index>
65

> <chembl_id>
CHEMBL1294

> <chembl_pref_name>
QUINIDINE

> <i_lp_mmshare_version>
53161

> <i_f3d_flags>
0

> <r_lp_tautomer_probability>
1

> <s_lp_Force_Field>
OPLS_2005

> <r_lp_Energy>
77.322307

> <b_lp_Chiralities_Consistent>
1

> <s_lp_Variant>
CHEMBL3397_lig5-1

> <s_i_glide_gridfile>
glide-grid_1r9o

> <i_i_glide_lignum>
6

> <i_i_glide_rotatable_bonds>
5

> <r_i_docking_score>
-7.14125959601415

> <r_i_glide_ligand_efficiency>
-0.297552483167256

> <r_i_glide_ligand_efficiency_sa>
-0.858289881074525

> <r_i_glide_ligand_efficiency_ln>
-1.70923111237641

> <r_i_glide_gscore>
-7.14125959601415

> <r_i_glide_lipo>
-4.73655423121929

> <r_i_glide_hbond>
0

> <r_i_glide_metal>
0

> <r_i_glide_rewards>
-1.25993741486814

> <r_i_glide_evdw>
-31.8477745056152

> <r_i_glide_ecoul>
-0.574634373188019

> <r_i_glide_erotb>
0.53381593133224

> <r_i_glide_esite>
0

> <r_i_glide_emodel>
-38.297673473597

> <r_i_glide_energy>
-32.4224088788033

> <r_i_glide_einternal>
10.2822027206421

> <i_i_glide_confnum>
11

> <i_i_glide_posenum>
89

> <r_i_glide_eff_state_penalty>
0

> <s_user_duplicate_titles>
CHEMBL3397_lig5

> <s_m_subgroup_title>
dock_pv

> <s_m_subgroupid>
dock_pv

> <b_m_subgroup_collapsed>
1

$$$$
CHEMBL3397_lig157
                    3D
 Schrodinger Suite 2021-1.
 33 35  0  0  1  0            999 V2000
    9.5767   34.5162   -1.1451 C   0  0  0  0  0  0
   10.2402   33.2911   -1.2217 C   0  0  0  0  0  0
    9.6162   32.1918   -1.8094 C   0  0  0  0  0  0
    8.2784   34.6331   -1.6387 C   0  0  0  0  0  0
    7.6505   33.5273   -2.2099 C   0  0  0  0  0  0
    8.3158   32.2954   -2.3156 C   0  0  0  0  0  0
    7.6264   31.1270   -2.9415 C   0  0  0  0  0  0
    6.2328   31.3862   -3.2512 C   0  0  0  0  0  0
    5.6800   32.6050   -3.0888 C   0  0  0  0  0  0
    6.3485   33.6964   -2.6354 O   0  0  0  0  0  0
    4.2434   32.8767   -3.2626 C   0  0  0  0  0  0
    3.3087   32.5374   -2.2670 C   0  0  0  0  0  0
    1.9343   32.7621   -2.4623 C   0  0  0  0  0  0
    1.5150   33.3686   -3.6575 C   0  0  0  0  0  0
    2.4416   33.7282   -4.6326 C   0  0  0  0  0  0
    3.7980   33.4864   -4.4375 C   0  0  0  0  0  0
    8.1827   30.0494   -3.1410 O   0  0  0  0  0  0
    3.7361   31.9783   -1.0576 N   0  0  0  0  0  0
    1.0652   32.3689   -1.4552 O   0  0  0  0  0  0
   -0.3384   32.5376   -1.6235 C   0  0  0  0  0  0
   10.0555   35.3677   -0.6830 H   0  0  0  0  0  0
   11.2327   33.1754   -0.8123 H   0  0  0  0  0  0
   10.1399   31.2500   -1.8407 H   0  0  0  0  0  0
    7.7481   35.5704   -1.5686 H   0  0  0  0  0  0
    5.6141   30.5674   -3.5836 H   0  0  0  0  0  0
    0.4727   33.5756   -3.8460 H   0  0  0  0  0  0
    2.1040   34.2003   -5.5412 H   0  0  0  0  0  0
    4.5041   33.7659   -5.2069 H   0  0  0  0  0  0
    4.7207   31.9750   -0.8259 H   0  0  0  0  0  0
    3.0367   31.8404   -0.3424 H   0  0  0  0  0  0
   -0.8591   32.1653   -0.7414 H   0  0  0  0  0  0
   -0.6068   33.5877   -1.7472 H   0  0  0  0  0  0
   -0.7036   31.9658   -2.4761 H   0  0  0  0  0  0
  1  2  2  0  0  0
  1  4  1  0  0  0
  1 21  1  0  0  0
  2  3  1  0  0  0
  2 22  1  0  0  0
  3  6  2  0  0  0
  3 23  1  0  0  0
  4  5  2  0  0  0
  4 24  1  0  0  0
  5  6  1  0  0  0
  5 10  1  0  0  0
  6  7  1  0  0  0
  7 17  2  0  0  0
  7  8  1  0  0  0
  8  9  2  0  0  0
  8 25  1  0  0  0
  9 10  1  0  0  0
  9 11  1  0  0  0
 11 12  2  0  0  0
 11 16  1  0  0  0
 12 13  1  0  0  0
 12 18  1  0  0  0
 13 14  2  0  0  0
 13 19  1  0  0  0
 14 15  1  0  0  0
 14 26  1  0  0  0
 15 16  2  0  0  0
 15 27  1  0  0  0
 16 28  1  0  0  0
 18 29  1  0  0  0
 18 30  1  0  0  0
 19 20  1  0  0  0
 20 31  1  0  0  0
 20 32  1  0  0  0
 20 33  1  0  0  0
M  END
> <s_m_entry_id>
35910

> <s_m_entry_name>
dock_pv.66

> <s_m_Source_Path>
/home/csk/Desktop/cluster/DUD-E-result/cp2c9

> <s_m_Source_File>
dock_pv.maegz

> <i_m_Source_File_Index>
66

> <chembl_id>
CHEMBL35482

> <chembl_pref_name>
None

> <i_lp_mmshare_version>
53161

> <i_f3d_flags>
0

> <r_lp_tautomer_probability>
1

> <s_lp_Force_Field>
OPLS_2005

> <r_lp_Energy>
22.278034

> <b_lp_Chiralities_Consistent>
1

> <s_lp_Variant>
CHEMBL3397_lig157-1

> <s_i_glide_gridfile>
glide-grid_1r9o

> <i_i_glide_lignum>
198

> <i_i_glide_rotatable_bonds>
2

> <r_i_docking_score>
-7.12593605853709

> <r_i_glide_ligand_efficiency>
-0.356296802926854

> <r_i_glide_ligand_efficiency_sa>
-0.967138317635335

> <r_i_glide_ligand_efficiency_ln>
-1.78338676635083

> <r_i_glide_gscore>
-7.12593605853709

> <r_i_glide_lipo>
-3.88149250336945

> <r_i_glide_hbond>
0

> <r_i_glide_metal>
0

> <r_i_glide_rewards>
-1.70012558147377

> <r_i_glide_evdw>
-36.1542778015137

> <r_i_glide_ecoul>
0.0921272933483124

> <r_i_glide_erotb>
0.249576822379567

> <r_i_glide_esite>
0

> <r_i_glide_emodel>
-48.9379159216475

> <r_i_glide_energy>
-36.0621505081654

> <r_i_glide_einternal>
2.55491709709167

> <i_i_glide_confnum>
2

> <i_i_glide_posenum>
309

> <r_i_glide_eff_state_penalty>
0

> <s_user_duplicate_titles>
CHEMBL3397_lig157

> <s_m_subgroup_title>
dock_pv

> <s_m_subgroupid>
dock_pv

> <b_m_subgroup_collapsed>
1

$$$$
CHEMBL3397_lig67
                    3D
 Schrodinger Suite 2021-1.
 51 54  0  0  1  0            999 V2000
    3.6139   34.0223   -3.3256 C   0  0  0  0  0  0
    4.3672   33.2192   -2.4595 C   0  0  0  0  0  0
    3.7316   32.3771   -1.5414 C   0  0  0  0  0  0
    2.3426   32.3117   -1.5213 C   0  0  0  0  0  0
    1.5957   33.1142   -2.3791 C   0  0  0  0  0  0
    2.2238   33.9751   -3.2757 C   0  0  0  0  0  0
    0.2305   33.0563   -2.3388 O   0  0  0  0  0  0
    5.7778   33.2285   -2.5374 N   0  0  0  0  0  0
    6.4201   34.3753   -2.3413 N   0  0  0  0  0  0
    7.6911   34.0881   -2.2819 C   0  0  0  0  0  0
    7.9199   32.7548   -2.6258 C   0  0  0  0  0  0
    6.6549   32.1939   -2.7913 C   0  0  0  0  0  0
    6.2485   30.8291   -3.2122 C   0  0  0  0  0  0
    5.0673   30.6897   -3.9355 C   0  0  0  0  0  0
    4.6595   29.4448   -4.3406 C   0  0  0  0  0  0
    5.4984   28.3600   -4.1944 C   0  0  0  0  0  0
    6.7017   28.4765   -3.5223 C   0  0  0  0  0  0
    7.0385   29.7009   -2.9612 C   0  0  0  0  0  0
    8.7045   35.1211   -1.9323 C   0  0  0  0  0  0
    8.5533   35.9326   -0.8048 C   0  0  0  0  0  0
    9.4255   36.9993   -0.6093 C   0  0  0  0  0  0
   10.4317   37.2288   -1.5419 C   0  0  0  0  0  0
   10.6899   36.3383   -2.5745 C   0  0  0  0  0  0
    9.8091   35.2899   -2.7735 C   0  0  0  0  0  0
    9.2648   32.1199   -2.7780 C   0  0  0  0  0  0
   10.0736   32.1825   -1.4757 C   0  0  0  0  0  0
   11.5542   32.0006   -1.7502 C   0  0  0  0  0  0
    5.1367   27.1759   -4.7372 O   0  0  0  0  0  0
   11.1031   38.4048   -1.5400 O   0  0  0  0  0  0
    4.1031   34.6766   -4.0354 H   0  0  0  0  0  0
    4.3103   31.7579   -0.8696 H   0  0  0  0  0  0
    1.8431   31.6540   -0.8249 H   0  0  0  0  0  0
    1.6338   34.5910   -3.9387 H   0  0  0  0  0  0
   -0.1885   33.7432   -2.8646 H   0  0  0  0  0  0
    4.4481   31.5225   -4.2161 H   0  0  0  0  0  0
    3.7463   29.3710   -4.9049 H   0  0  0  0  0  0
    7.3235   27.6067   -3.3746 H   0  0  0  0  0  0
    7.9206   29.7527   -2.3492 H   0  0  0  0  0  0
    7.7348   35.7817   -0.1180 H   0  0  0  0  0  0
    9.2636   37.6853    0.2069 H   0  0  0  0  0  0
   11.4632   36.5333   -3.3009 H   0  0  0  0  0  0
    9.9196   34.6894   -3.6569 H   0  0  0  0  0  0
    9.1873   31.1085   -3.1445 H   0  0  0  0  0  0
    9.8028   32.6154   -3.5780 H   0  0  0  0  0  0
    9.9464   33.1057   -0.9218 H   0  0  0  0  0  0
    9.7121   31.4090   -0.7971 H   0  0  0  0  0  0
   12.2655   32.7751   -1.4498 H   0  0  0  0  0  0
   11.8452   31.1753   -1.1412 H   0  0  0  0  0  0
   11.7768   31.7420   -2.7798 H   0  0  0  0  0  0
    4.3019   27.2078   -5.2056 H   0  0  0  0  0  0
   10.7743   39.0384   -0.8892 H   0  0  0  0  0  0
  1  6  1  0  0  0
  1  2  2  0  0  0
  1 30  1  0  0  0
  2  3  1  0  0  0
  2  8  1  0  0  0
  3  4  2  0  0  0
  3 31  1  0  0  0
  4  5  1  0  0  0
  4 32  1  0  0  0
  5  7  1  0  0  0
  5  6  2  0  0  0
  6 33  1  0  0  0
  7 34  1  0  0  0
  8  9  1  0  0  0
  8 12  1  0  0  0
  9 10  2  0  0  0
 10 11  1  0  0  0
 10 19  1  0  0  0
 11 12  2  0  0  0
 11 25  1  0  0  0
 12 13  1  0  0  0
 13 18  1  0  0  0
 13 14  2  0  0  0
 14 15  1  0  0  0
 14 35  1  0  0  0
 15 16  2  0  0  0
 15 36  1  0  0  0
 16 17  1  0  0  0
 16 28  1  0  0  0
 17 18  2  0  0  0
 17 37  1  0  0  0
 18 38  1  0  0  0
 19 20  2  0  0  0
 19 24  1  0  0  0
 20 21  1  0  0  0
 20 39  1  0  0  0
 21 22  2  0  0  0
 21 40  1  0  0  0
 22 23  1  0  0  0
 22 29  1  0  0  0
 23 24  2  0  0  0
 23 41  1  0  0  0
 24 42  1  0  0  0
 25 26  1  0  0  0
 25 43  1  0  0  0
 25 44  1  0  0  0
 26 27  1  0  0  0
 26 45  1  0  0  0
 26 46  1  0  0  0
 27 47  1  0  0  0
 27 48  1  0  0  0
 27 49  1  0  0  0
 28 50  1  0  0  0
 29 51  1  0  0  0
M  END
> <s_m_entry_id>
35911

> <s_m_entry_name>
dock_pv.67

> <s_m_Source_Path>
/home/csk/Desktop/cluster/DUD-E-result/cp2c9

> <s_m_Source_File>
dock_pv.maegz

> <i_m_Source_File_Index>
67

> <chembl_id>
CHEMBL441282

> <chembl_pref_name>
PROPYLPYRAZOLETRIOL

> <i_lp_mmshare_version>
53161

> <i_f3d_flags>
0

> <r_lp_tautomer_probability>
0.99999999999473

> <s_lp_Force_Field>
OPLS_2005

> <r_lp_Energy>
19.117353

> <b_lp_Chiralities_Consistent>
1

> <s_lp_Variant>
CHEMBL3397_lig67-1

> <s_i_glide_gridfile>
glide-grid_1r9o

> <i_i_glide_lignum>
98

> <i_i_glide_rotatable_bonds>
8

> <r_i_docking_score>
-7.07093196301964

> <r_i_glide_ligand_efficiency>
-0.243825240104126

> <r_i_glide_ligand_efficiency_sa>
-0.749108386857973

> <r_i_glide_ligand_efficiency_ln>
-1.61906411616763

> <r_i_glide_gscore>
-7.07093196301964

> <r_i_glide_lipo>
-4.88541052839321

> <r_i_glide_hbond>
-0.32

> <r_i_glide_metal>
0

> <r_i_glide_rewards>
-0.817538867806441

> <r_i_glide_evdw>
-21.6171131134033

> <r_i_glide_ecoul>
-3.25634574890137

> <r_i_glide_erotb>
0.521324951185382

> <r_i_glide_esite>
0

> <r_i_glide_emodel>
-22.5029810509439

> <r_i_glide_energy>
-24.8734588623047

> <r_i_glide_einternal>
8.54508972167969

> <i_i_glide_confnum>
47

> <i_i_glide_posenum>
59

> <r_i_glide_eff_state_penalty>
0

> <s_user_duplicate_titles>
CHEMBL3397_lig67

> <s_m_subgroup_title>
dock_pv

> <s_m_subgroupid>
dock_pv

> <b_m_subgroup_collapsed>
1

$$$$
CHEMBL3397_lig1
                    3D
 Schrodinger Suite 2021-1.
 42 44  0  0  1  0            999 V2000
   -0.1370   34.4966   -2.3088 C   0  0  0  0  0  0
   -1.0997   33.6170   -1.9397 N   0  0  0  0  0  0
   -0.7669   32.3029   -1.8958 C   0  0  0  0  0  0
    0.5071   31.8319   -2.2159 C   0  0  0  0  0  0
    1.5124   32.7469   -2.5521 C   0  0  0  0  0  0
    1.1670   34.1061   -2.6172 C   0  0  0  0  0  0
    2.9301   32.3142   -2.7794 C   0  0  0  0  0  0
    3.9990   33.1425   -2.5923 N   0  0  0  0  0  0
    5.1317   32.3919   -2.7787 C   0  0  0  0  0  0
    4.7805   31.1632   -3.0848 N   0  0  0  0  0  0
    3.3766   31.1161   -3.0895 N   0  0  0  0  0  0
    6.5121   32.9389   -2.5604 C   0  0  0  0  0  0
    7.6512   32.1649   -2.2995 C   0  0  0  0  0  0
    8.8748   32.7847   -1.9702 C   0  0  0  0  0  0
    8.9695   34.1762   -1.8628 C   0  0  0  0  0  0
    7.8192   34.9136   -2.1008 C   0  0  0  0  0  0
    6.6415   34.3253   -2.5231 C   0  0  0  0  0  0
   10.0451   31.9815   -1.6401 N   0  3  0  0  0  0
    9.9016   31.1758   -0.7413 O   0  0  0  0  0  0
   11.1005   32.2013   -2.2209 O   0  5  0  0  0  0
   10.1695   34.7580   -1.4775 O   0  0  0  0  0  0
   10.3675   36.1720   -1.6257 C   0  0  0  0  0  0
   10.3227   36.9436   -0.2914 C   0  0  0  0  0  0
   11.5178   36.5708    0.5834 C   0  0  0  0  0  0
    8.9965   36.7884    0.4788 C   0  0  0  0  0  0
   -0.4242   35.5377   -2.3376 H   0  0  0  0  0  0
   -1.5521   31.6208   -1.6035 H   0  0  0  0  0  0
    0.7021   30.7773   -2.1880 H   0  0  0  0  0  0
    1.8931   34.8571   -2.8882 H   0  0  0  0  0  0
    3.9604   34.1082   -2.3066 H   0  0  0  0  0  0
    7.5770   31.0862   -2.3153 H   0  0  0  0  0  0
    7.8079   35.9738   -1.9382 H   0  0  0  0  0  0
    5.8017   34.9682   -2.7440 H   0  0  0  0  0  0
    9.7132   36.6437   -2.3452 H   0  0  0  0  0  0
   11.3526   36.3060   -2.0738 H   0  0  0  0  0  0
   10.4269   38.0033   -0.5313 H   0  0  0  0  0  0
   11.4977   35.5172    0.8644 H   0  0  0  0  0  0
   11.5459   37.1728    1.4880 H   0  0  0  0  0  0
   12.4565   36.7515    0.0592 H   0  0  0  0  0  0
    8.7911   35.7458    0.7249 H   0  0  0  0  0  0
    9.0179   37.3464    1.4152 H   0  0  0  0  0  0
    8.1532   37.1746   -0.0930 H   0  0  0  0  0  0
  1  6  1  0  0  0
  1  2  2  0  0  0
  1 26  1  0  0  0
  2  3  1  0  0  0
  3  4  2  0  0  0
  3 27  1  0  0  0
  4  5  1  0  0  0
  4 28  1  0  0  0
  5  6  2  0  0  0
  5  7  1  0  0  0
  6 29  1  0  0  0
  7  8  1  0  0  0
  7 11  2  0  0  0
  8 30  1  0  0  0
  8  9  1  0  0  0
  9 10  2  0  0  0
  9 12  1  0  0  0
 10 11  1  0  0  0
 12 13  2  0  0  0
 12 17  1  0  0  0
 13 14  1  0  0  0
 13 31  1  0  0  0
 14 15  2  0  0  0
 14 18  1  0  0  0
 15 16  1  0  0  0
 15 21  1  0  0  0
 16 17  2  0  0  0
 16 32  1  0  0  0
 17 33  1  0  0  0
 18 19  2  0  0  0
 18 20  1  0  0  0
 21 22  1  0  0  0
 22 23  1  0  0  0
 22 34  1  0  0  0
 22 35  1  0  0  0
 23 24  1  0  0  0
 23 25  1  0  0  0
 23 36  1  0  0  0
 24 37  1  0  0  0
 24 38  1  0  0  0
 24 39  1  0  0  0
 25 40  1  0  0  0
 25 41  1  0  0  0
 25 42  1  0  0  0
M  CHG  2  18   1  20  -1
M  END
> <s_m_entry_id>
35912

> <s_m_entry_name>
dock_pv.68

> <s_m_Source_Path>
/home/csk/Desktop/cluster/DUD-E-result/cp2c9

> <s_m_Source_File>
dock_pv.maegz

> <i_m_Source_File_Index>
68

> <chembl_id>
CHEMBL468704

> <chembl_pref_name>
None

> <i_lp_mmshare_version>
53161

> <i_f3d_flags>
0

> <r_lp_tautomer_probability>
0.0517155146543963

> <s_lp_Force_Field>
OPLS_2005

> <r_lp_Energy>
20.506152

> <b_lp_Chiralities_Consistent>
1

> <s_lp_Variant>
CHEMBL3397_lig1-2

> <s_i_glide_gridfile>
glide-grid_1r9o

> <i_i_glide_lignum>
2

> <i_i_glide_rotatable_bonds>
6

> <r_i_docking_score>
-7.04731363603223

> <r_i_glide_ligand_efficiency>
-0.281892545441289

> <r_i_glide_ligand_efficiency_sa>
-0.824258802255911

> <r_i_glide_ligand_efficiency_ln>
-1.67042452268725

> <r_i_glide_gscore>
-7.04731363603223

> <r_i_glide_lipo>
-3.5862294443358

> <r_i_glide_hbond>
-0.0492318582659261

> <r_i_glide_metal>
0

> <r_i_glide_rewards>
-2.22400173441182

> <r_i_glide_evdw>
-37.0530319213867

> <r_i_glide_ecoul>
0.156837046146393

> <r_i_glide_erotb>
0.657310867102773

> <r_i_glide_esite>
-0.0160354269740894

> <r_i_glide_emodel>
-43.8968190935037

> <r_i_glide_energy>
-36.8961948752403

> <r_i_glide_einternal>
3.25987720489502

> <i_i_glide_confnum>
4

> <i_i_glide_posenum>
235

> <r_i_glide_eff_state_penalty>
0

> <s_user_duplicate_titles>
CHEMBL3397_lig1

> <s_m_subgroup_title>
dock_pv

> <s_m_subgroupid>
dock_pv

> <b_m_subgroup_collapsed>
1

$$$$
CHEMBL3397_lig13
                    3D
 Schrodinger Suite 2021-1.
 42 46  0  0  1  0            999 V2000
   11.1011   38.1773   -1.9098 C   0  0  0  0  0  0
   11.6004   38.5709   -3.1078 N   0  0  0  0  0  0
   11.6009   37.6665   -4.1128 C   0  0  0  0  0  0
   11.0999   36.3759   -3.9561 C   0  0  0  0  0  0
   10.5660   35.9757   -2.7201 C   0  0  0  0  0  0
   10.6047   36.8950   -1.6646 C   0  0  0  0  0  0
    9.8505   34.6785   -2.5830 C   0  0  0  0  0  0
    8.8782   34.3747   -3.5410 C   0  0  0  0  0  0
    9.3873   32.5878   -1.3945 C   0  0  0  0  0  0
   10.0922   33.7900   -1.5243 C   0  0  0  0  0  0
    7.4732   31.2756   -2.3630 N   0  0  0  0  0  0
    8.3591   32.3196   -2.3091 C   0  0  0  0  0  0
    8.1237   33.2234   -3.3640 C   0  0  0  0  0  0
    7.0605   32.6887   -4.0440 N   0  0  0  0  0  0
    6.6780   31.5533   -3.3739 C   0  0  0  0  0  0
    5.4801   30.7057   -3.7928 C   0  0  2  0  0  0
    4.4361   31.4100   -4.7112 C   0  0  0  0  0  0
    4.1235   31.1751   -1.8257 O   0  0  0  0  0  0
    4.7210   30.1249   -2.5873 C   0  0  0  0  0  0
    3.2639   31.9851   -2.5390 C   0  0  0  0  0  0
    3.3946   32.1958   -3.9231 C   0  0  0  0  0  0
    2.5037   33.0775   -4.5442 C   0  0  0  0  0  0
    1.5006   33.7163   -3.8141 C   0  0  0  0  0  0
    1.3850   33.4963   -2.4429 C   0  0  0  0  0  0
    2.2734   32.6344   -1.8032 C   0  0  0  0  0  0
   11.1011   38.9303   -1.1390 H   0  0  0  0  0  0
   11.9858   38.0042   -5.0651 H   0  0  0  0  0  0
   11.0793   35.7134   -4.8045 H   0  0  0  0  0  0
   10.1846   36.6512   -0.6990 H   0  0  0  0  0  0
    8.7016   35.0212   -4.3857 H   0  0  0  0  0  0
    9.5922   31.9068   -0.5814 H   0  0  0  0  0  0
   10.8381   34.0266   -0.7809 H   0  0  0  0  0  0
    6.5732   33.0502   -4.8489 H   0  0  0  0  0  0
    5.8835   29.8543   -4.3410 H   0  0  0  0  0  0
    4.9110   32.0476   -5.4572 H   0  0  0  0  0  0
    3.9013   30.6481   -5.2812 H   0  0  0  0  0  0
    3.9491   29.4347   -2.9339 H   0  0  0  0  0  0
    5.3884   29.5565   -1.9416 H   0  0  0  0  0  0
    2.5745   33.2501   -5.6073 H   0  0  0  0  0  0
    0.8059   34.3759   -4.3123 H   0  0  0  0  0  0
    0.6115   33.9937   -1.8755 H   0  0  0  0  0  0
    2.1925   32.4663   -0.7409 H   0  0  0  0  0  0
  1  6  1  0  0  0
  1  2  2  0  0  0
  1 26  1  0  0  0
  2  3  1  0  0  0
  3  4  2  0  0  0
  3 27  1  0  0  0
  4  5  1  0  0  0
  4 28  1  0  0  0
  5  6  2  0  0  0
  5  7  1  0  0  0
  6 29  1  0  0  0
  7  8  2  0  0  0
  7 10  1  0  0  0
  8 13  1  0  0  0
  8 30  1  0  0  0
  9 12  1  0  0  0
  9 10  2  0  0  0
  9 31  1  0  0  0
 10 32  1  0  0  0
 11 12  1  0  0  0
 11 15  2  0  0  0
 12 13  2  0  0  0
 13 14  1  0  0  0
 14 15  1  0  0  0
 14 33  1  0  0  0
 15 16  1  0  0  0
 16 17  1  0  0  0
 16 19  1  0  0  0
 16 34  1  0  0  0
 17 21  1  0  0  0
 17 35  1  0  0  0
 17 36  1  0  0  0
 18 20  1  0  0  0
 18 19  1  0  0  0
 19 37  1  0  0  0
 19 38  1  0  0  0
 20 21  2  0  0  0
 20 25  1  0  0  0
 21 22  1  0  0  0
 22 23  2  0  0  0
 22 39  1  0  0  0
 23 24  1  0  0  0
 23 40  1  0  0  0
 24 25  2  0  0  0
 24 41  1  0  0  0
 25 42  1  0  0  0
M  END
> <s_m_entry_id>
35913

> <s_m_entry_name>
dock_pv.69

> <s_m_Source_Path>
/home/csk/Desktop/cluster/DUD-E-result/cp2c9

> <s_m_Source_File>
dock_pv.maegz

> <i_m_Source_File_Index>
69

> <chembl_id>
CHEMBL452734

> <chembl_pref_name>
None

> <i_lp_mmshare_version>
53161

> <i_f3d_flags>
0

> <r_lp_tautomer_probability>
1

> <s_lp_Force_Field>
OPLS_2005

> <r_lp_Energy>
16.522466

> <b_lp_Chiralities_Consistent>
1

> <s_lp_Variant>
CHEMBL3397_lig13-1

> <s_i_glide_gridfile>
glide-grid_1r9o

> <i_i_glide_lignum>
19

> <i_i_glide_rotatable_bonds>
2

> <r_i_docking_score>
-7.04342147056753

> <r_i_glide_ligand_efficiency>
-0.281736858822701

> <r_i_glide_ligand_efficiency_sa>
-0.823803571822045

> <r_i_glide_ligand_efficiency_ln>
-1.66950196283333

> <r_i_glide_gscore>
-7.04342147056753

> <r_i_glide_lipo>
-3.73639050151069

> <r_i_glide_hbond>
0

> <r_i_glide_metal>
0

> <r_i_glide_rewards>
-1.55401484371486

> <r_i_glide_evdw>
-38.0293045043945

> <r_i_glide_ecoul>
-1.34508943557739

> <r_i_glide_erotb>
0.35021251521435

> <r_i_glide_esite>
0

> <r_i_glide_emodel>
-51.4877235530609

> <r_i_glide_energy>
-39.3743939399719

> <r_i_glide_einternal>
1.47798049449921

> <i_i_glide_confnum>
16

> <i_i_glide_posenum>
107

> <r_i_glide_eff_state_penalty>
0

> <s_user_duplicate_titles>
CHEMBL3397_lig13

> <s_m_subgroup_title>
dock_pv

> <s_m_subgroupid>
dock_pv

> <b_m_subgroup_collapsed>
1

$$$$
CHEMBL3397_lig153
                    3D
 Schrodinger Suite 2021-1.
 36 38  0  0  1  0            999 V2000
   -0.7571   34.2114   -1.7693 N   0  0  0  0  0  0
    0.3269   33.5912   -2.3889 C   0  0  0  0  0  0
    0.7011   33.9779   -3.6722 C   0  0  0  0  0  0
    1.7672   33.3509   -4.3055 C   0  0  0  0  0  0
    2.4541   32.3306   -3.6467 C   0  0  0  0  0  0
    2.0989   31.9627   -2.3490 C   0  0  0  0  0  0
    1.0207   32.5847   -1.7275 C   0  0  0  0  0  0
    3.7647   31.4514   -4.4823 S   0  0  0  0  0  0
    3.9005   30.1399   -3.8368 O   0  0  0  0  0  0
    3.5266   31.5750   -5.9252 O   0  0  0  0  0  0
    5.2299   32.3245   -4.0878 N   0  0  0  0  0  0
    5.8632   33.2190   -4.9038 C   0  0  0  0  0  0
    5.4692   33.8974   -6.0454 C   0  0  0  0  0  0
    6.5712   34.6656   -6.4149 C   0  0  0  0  0  0
    7.5819   34.5016   -5.5960 N   0  0  0  0  0  0
    7.1664   33.6174   -4.6725 N   0  0  0  0  0  0
    8.0442   33.1940   -3.6425 C   0  0  0  0  0  0
    8.7770   34.1303   -2.9036 C   0  0  0  0  0  0
    9.6036   33.7194   -1.8619 C   0  0  0  0  0  0
    9.7089   32.3629   -1.5666 C   0  0  0  0  0  0
    9.0008   31.4259   -2.3121 C   0  0  0  0  0  0
    8.1697   31.8339   -3.3492 C   0  0  0  0  0  0
   -0.9945   33.9694   -0.8145 H   0  0  0  0  0  0
   -1.2306   34.9693   -2.2405 H   0  0  0  0  0  0
    0.1573   34.7577   -4.1821 H   0  0  0  0  0  0
    2.0400   33.6386   -5.3082 H   0  0  0  0  0  0
    2.6291   31.1766   -1.8348 H   0  0  0  0  0  0
    0.7247   32.2699   -0.7410 H   0  0  0  0  0  0
    5.6572   32.0050   -3.2314 H   0  0  0  0  0  0
    4.5141   33.8406   -6.5468 H   0  0  0  0  0  0
    6.6287   35.3321   -7.2635 H   0  0  0  0  0  0
    8.7011   35.1751   -3.1315 H   0  0  0  0  0  0
   10.1537   34.4453   -1.2848 H   0  0  0  0  0  0
   10.3435   32.0342   -0.7580 H   0  0  0  0  0  0
    9.0998   30.3752   -2.0960 H   0  0  0  0  0  0
    7.6342   31.0900   -3.9210 H   0  0  0  0  0  0
  1  2  1  0  0  0
  1 23  1  0  0  0
  1 24  1  0  0  0
  2  3  2  0  0  0
  2  7  1  0  0  0
  3  4  1  0  0  0
  3 25  1  0  0  0
  4  5  2  0  0  0
  4 26  1  0  0  0
  5  6  1  0  0  0
  5  8  1  0  0  0
  6  7  2  0  0  0
  6 27  1  0  0  0
  7 28  1  0  0  0
  8  9  2  0  0  0
  8 10  2  0  0  0
  8 11  1  0  0  0
 11 12  1  0  0  0
 11 29  1  0  0  0
 12 13  2  0  0  0
 12 16  1  0  0  0
 13 14  1  0  0  0
 13 30  1  0  0  0
 14 15  2  0  0  0
 14 31  1  0  0  0
 15 16  1  0  0  0
 16 17  1  0  0  0
 17 18  2  0  0  0
 17 22  1  0  0  0
 18 19  1  0  0  0
 18 32  1  0  0  0
 19 20  2  0  0  0
 19 33  1  0  0  0
 20 21  1  0  0  0
 20 34  1  0  0  0
 21 22  2  0  0  0
 21 35  1  0  0  0
 22 36  1  0  0  0
M  END
> <s_m_entry_id>
35914

> <s_m_entry_name>
dock_pv.70

> <s_m_Source_Path>
/home/csk/Desktop/cluster/DUD-E-result/cp2c9

> <s_m_Source_File>
dock_pv.maegz

> <i_m_Source_File_Index>
70

> <chembl_id>
CHEMBL1109

> <chembl_pref_name>
SULFAPHENAZOLE

> <i_lp_mmshare_version>
53161

> <i_f3d_flags>
0

> <r_lp_tautomer_probability>
1

> <s_lp_Force_Field>
OPLS_2005

> <r_lp_Energy>
10.112929

> <b_lp_Chiralities_Consistent>
1

> <s_lp_Variant>
CHEMBL3397_lig153-1

> <s_i_glide_gridfile>
glide-grid_1r9o

> <i_i_glide_lignum>
194

> <i_i_glide_rotatable_bonds>
4

> <r_i_docking_score>
-7.04289082045135

> <r_i_glide_ligand_efficiency>
-0.320131400929607

> <r_i_glide_ligand_efficiency_sa>
-0.897020775458324

> <r_i_glide_ligand_efficiency_ln>
-1.72153941220284

> <r_i_glide_gscore>
-7.04289082045135

> <r_i_glide_lipo>
-4.03167828361825

> <r_i_glide_hbond>
0

> <r_i_glide_metal>
0

> <r_i_glide_rewards>
-1.85866401008844

> <r_i_glide_evdw>
-38.4340705871582

> <r_i_glide_ecoul>
0.112112745642662

> <r_i_glide_erotb>
0.752338090766851

> <r_i_glide_esite>
0

> <r_i_glide_emodel>
-54.2958066111325

> <r_i_glide_energy>
-38.3219578415155

> <r_i_glide_einternal>
1.2519246339798

> <i_i_glide_confnum>
37

> <i_i_glide_posenum>
132

> <r_i_glide_eff_state_penalty>
0

> <s_user_duplicate_titles>
CHEMBL3397_lig153,153330

> <s_m_subgroup_title>
dock_pv

> <s_m_subgroupid>
dock_pv

> <b_m_subgroup_collapsed>
1

$$$$
CHEMBL3397_lig74
                    3D
 Schrodinger Suite 2021-1.
 39 42  0  0  1  0            999 V2000
    2.6127   31.5750   -1.1409 O   0  0  0  0  0  0
    1.0789   32.7571   -2.3198 O   0  0  0  0  0  0
    6.8431   32.8760   -5.1468 N   0  0  0  0  0  0
    6.0515   33.0240   -6.3009 N   0  0  1  0  0  0
   10.7010   33.7652   -0.3410 N   0  0  0  0  0  0
    5.0163   33.0882   -3.5069 C   0  0  0  0  0  0
    4.0424   33.8792   -4.1772 C   0  0  0  0  0  0
    6.4419   33.0306   -3.9423 C   0  0  0  0  0  0
    3.2458   32.2782   -2.1010 C   0  0  0  0  0  0
    2.3231   32.9937   -2.7957 C   0  0  0  0  0  0
    4.5979   32.2964   -2.4190 C   0  0  0  0  0  0
    2.6863   33.8134   -3.8376 C   0  0  0  0  0  0
    7.4801   33.1530   -2.9142 C   0  0  0  0  0  0
    4.4613   34.7919   -5.2896 C   0  0  0  0  0  0
    5.0844   34.1010   -6.5036 C   0  0  1  0  0  0
    1.2511   31.8742   -1.2541 C   0  0  0  0  0  0
    7.5821   34.3478   -2.1956 C   0  0  0  0  0  0
    8.4375   32.1457   -2.7409 C   0  0  0  0  0  0
    8.6546   34.5493   -1.3319 C   0  0  0  0  0  0
    9.5076   32.3483   -1.8739 C   0  0  0  0  0  0
    9.6187   33.5544   -1.1874 C   0  0  0  0  0  0
    5.7642   35.1750   -7.3396 C   0  0  0  0  0  0
    6.6832   32.9222   -7.0822 H   0  0  0  0  0  0
   11.2563   32.9571   -0.0991 H   0  0  0  0  0  0
   10.6459   34.5322    0.3141 H   0  0  0  0  0  0
    5.2969   31.6868   -1.8636 H   0  0  0  0  0  0
    1.9398   34.3750   -4.3767 H   0  0  0  0  0  0
    5.1508   35.5043   -4.8346 H   0  0  0  0  0  0
    3.6166   35.3962   -5.6260 H   0  0  0  0  0  0
    4.2783   33.6623   -7.0936 H   0  0  0  0  0  0
    0.9832   32.3750   -0.3410 H   0  0  0  0  0  0
    0.6593   30.9732   -1.4132 H   0  0  0  0  0  0
    6.8617   35.1411   -2.3410 H   0  0  0  0  0  0
    8.3753   31.2227   -3.3007 H   0  0  0  0  0  0
    8.7396   35.4833   -0.7961 H   0  0  0  0  0  0
   10.2532   31.5761   -1.7547 H   0  0  0  0  0  0
    5.1010   36.0199   -7.4624 H   0  0  0  0  0  0
    6.7108   35.5263   -6.9257 H   0  0  0  0  0  0
    5.9010   34.8210   -8.3410 H   0  0  0  0  0  0
  1  9  1  0  0  0
  1 16  1  0  0  0
  2 10  1  0  0  0
  2 16  1  0  0  0
  3  4  1  0  0  0
  3  8  2  0  0  0
  4 15  1  0  0  0
  4 23  1  0  0  0
  5 21  1  0  0  0
  5 24  1  0  0  0
  5 25  1  0  0  0
  6  7  1  0  0  0
  6  8  1  0  0  0
  6 11  2  0  0  0
  7 12  2  0  0  0
  7 14  1  0  0  0
  8 13  1  0  0  0
  9 10  2  0  0  0
  9 11  1  0  0  0
 10 12  1  0  0  0
 11 26  1  0  0  0
 12 27  1  0  0  0
 13 17  2  0  0  0
 13 18  1  0  0  0
 14 15  1  0  0  0
 14 28  1  0  0  0
 14 29  1  0  0  0
 15 22  1  0  0  0
 15 30  1  0  0  0
 16 31  1  0  0  0
 16 32  1  0  0  0
 17 19  1  0  0  0
 17 33  1  0  0  0
 18 20  2  0  0  0
 18 34  1  0  0  0
 19 21  2  0  0  0
 19 35  1  0  0  0
 20 21  1  0  0  0
 20 36  1  0  0  0
 22 37  1  0  0  0
 22 38  1  0  0  0
 22 39  1  0  0  0
M  END
> <s_m_entry_id>
35915

> <s_m_entry_name>
dock_pv.71

> <s_m_Source_Path>
/home/csk/Desktop/cluster/DUD-E-result/cp2c9

> <s_m_Source_File>
dock_pv.maegz

> <i_m_Source_File_Index>
71

> <chembl_id>
CHEMBL1324434

> <chembl_pref_name>
None

> <i_lp_mmshare_version>
53161

> <i_f3d_flags>
0

> <r_lp_tautomer_probability>
1

> <s_lp_Force_Field>
OPLS_2005

> <r_lp_Energy>
43.811987

> <b_lp_Chiralities_Consistent>
1

> <s_lp_Variant>
CHEMBL3397_lig74-1

> <s_i_glide_gridfile>
glide-grid_1r9o

> <i_i_glide_lignum>
106

> <i_i_glide_rotatable_bonds>
1

> <r_i_docking_score>
-7.04228295990772

> <r_i_glide_ligand_efficiency>
-0.320103770904896

> <r_i_glide_ligand_efficiency_sa>
-0.896943355042457

> <r_i_glide_ligand_efficiency_ln>
-1.72139082891373

> <r_i_glide_gscore>
-7.04228295990772

> <r_i_glide_lipo>
-3.66266564233001

> <r_i_glide_hbond>
0

> <r_i_glide_metal>
0

> <r_i_glide_rewards>
-2.10896096686603

> <r_i_glide_evdw>
-28.9728450775146

> <r_i_glide_ecoul>
-0.17302031815052

> <r_i_glide_erotb>
0.209837883541086

> <r_i_glide_esite>
-0.00589893265445033

> <r_i_glide_emodel>
-35.4268018681888

> <r_i_glide_energy>
-29.1458653956652

> <r_i_glide_einternal>
1.51010227203369

> <i_i_glide_confnum>
4

> <i_i_glide_posenum>
70

> <r_i_glide_eff_state_penalty>
0

> <s_user_duplicate_titles>
CHEMBL3397_lig74

> <s_m_subgroup_title>
dock_pv

> <s_m_subgroupid>
dock_pv

> <b_m_subgroup_collapsed>
1

$$$$
CHEMBL3397_lig93
                    3D
 Schrodinger Suite 2021-1.
 36 37  0  0  1  0            999 V2000
   10.6607   36.3173   -2.5355 C   0  0  0  0  0  0
   10.3114   36.8948   -1.3087 C   0  0  0  0  0  0
    9.2324   36.3872   -0.5798 C   0  0  0  0  0  0
    8.4691   35.3417   -1.0812 C   0  0  0  0  0  0
    8.7839   34.7749   -2.3088 C   0  0  0  0  0  0
    9.9010   35.2363   -3.0083 C   0  0  0  0  0  0
   11.7151   36.8589   -3.2443 O   0  0  0  0  0  0
   11.6082   36.9172   -4.6642 C   0  0  0  0  0  0
   11.0232   37.9689   -0.8420 O   0  0  0  0  0  0
    8.6759   37.1750    1.2590 I   0  0  0  0  0  0
    7.8842   33.7638   -2.8738 C   0  0  0  0  0  0
    7.9956   32.4421   -2.6335 C   0  0  0  0  0  0
    7.0589   31.4720   -3.1958 C   0  0  0  0  0  0
    9.0445   31.9234   -1.8280 C   0  0  0  0  0  0
    9.9010   31.5750   -1.1410 N   0  0  0  0  0  0
    5.6501   31.8881   -3.4402 C   0  0  0  0  0  0
    7.4534   30.3592   -3.5410 O   0  0  0  0  0  0
    5.1631   31.9750   -4.7481 C   0  0  0  0  0  0
    3.8430   32.3563   -4.9851 C   0  0  0  0  0  0
    2.9945   32.6373   -3.9156 C   0  0  0  0  0  0
    3.4676   32.5349   -2.6012 C   0  0  0  0  0  0
    4.7979   32.1767   -2.3652 C   0  0  0  0  0  0
    2.6296   32.7750   -1.5410 O   0  0  0  0  0  0
    1.7003   33.0131   -4.1646 O   0  0  0  0  0  0
    7.6172   34.9845   -0.5199 H   0  0  0  0  0  0
   10.1510   34.7750   -3.9410 H   0  0  0  0  0  0
   12.2843   37.6837   -5.0437 H   0  0  0  0  0  0
   11.8988   35.9750   -5.1228 H   0  0  0  0  0  0
   10.6020   37.1750   -4.9971 H   0  0  0  0  0  0
   10.5115   38.5978   -0.3200 H   0  0  0  0  0  0
    7.0955   34.1519   -3.5055 H   0  0  0  0  0  0
    5.8067   31.7597   -5.5890 H   0  0  0  0  0  0
    3.4763   32.4299   -5.9986 H   0  0  0  0  0  0
    5.1565   32.1015   -1.3465 H   0  0  0  0  0  0
    3.0576   32.6955   -0.6856 H   0  0  0  0  0  0
    1.2334   33.1723   -3.3390 H   0  0  0  0  0  0
  1  6  1  0  0  0
  1  2  2  0  0  0
  1  7  1  0  0  0
  2  9  1  0  0  0
  2  3  1  0  0  0
  3  4  2  0  0  0
  3 10  1  0  0  0
  4  5  1  0  0  0
  4 25  1  0  0  0
  5 11  1  0  0  0
  5  6  2  0  0  0
  6 26  1  0  0  0
  7  8  1  0  0  0
  8 27  1  0  0  0
  8 28  1  0  0  0
  8 29  1  0  0  0
  9 30  1  0  0  0
 11 12  2  0  0  0
 11 31  1  0  0  0
 12 13  1  0  0  0
 12 14  1  0  0  0
 13 16  1  0  0  0
 13 17  2  0  0  0
 14 15  3  0  0  0
 16 18  2  0  0  0
 16 22  1  0  0  0
 18 19  1  0  0  0
 18 32  1  0  0  0
 19 20  2  0  0  0
 19 33  1  0  0  0
 20 21  1  0  0  0
 20 24  1  0  0  0
 21 22  2  0  0  0
 21 23  1  0  0  0
 22 34  1  0  0  0
 23 35  1  0  0  0
 24 36  1  0  0  0
M  END
> <s_m_entry_id>
35916

> <s_m_entry_name>
dock_pv.72

> <s_m_Source_Path>
/home/csk/Desktop/cluster/DUD-E-result/cp2c9

> <s_m_Source_File>
dock_pv.maegz

> <i_m_Source_File_Index>
72

> <chembl_id>
CHEMBL1257003

> <chembl_pref_name>
None

> <i_lp_mmshare_version>
53161

> <i_f3d_flags>
0

> <r_lp_tautomer_probability>
1

> <s_lp_Force_Field>
OPLS_2005

> <r_lp_Energy>
22.658733

> <b_lp_Chiralities_Consistent>
1

> <s_lp_Variant>
CHEMBL3397_lig93-1

> <s_i_glide_gridfile>
glide-grid_1r9o

> <i_i_glide_lignum>
131

> <i_i_glide_rotatable_bonds>
7

> <r_i_docking_score>
-7.02669457794908

> <r_i_glide_ligand_efficiency>
-0.292778940747878

> <r_i_glide_ligand_efficiency_sa>
-0.844520602082727

> <r_i_glide_ligand_efficiency_ln>
-1.68181044650732

> <r_i_glide_gscore>
-7.02669457794908

> <r_i_glide_lipo>
-3.04836022612699

> <r_i_glide_hbond>
-0.16

> <r_i_glide_metal>
0

> <r_i_glide_rewards>
-1.39357875780361

> <r_i_glide_evdw>
-37.8550033569336

> <r_i_glide_ecoul>
-5.63314485549927

> <r_i_glide_erotb>
0.31296630215309

> <r_i_glide_esite>
0

> <r_i_glide_emodel>
-53.6677111124925

> <r_i_glide_energy>
-43.4881482124329

> <r_i_glide_einternal>
14.8986845016479

> <i_i_glide_confnum>
11

> <i_i_glide_posenum>
300

> <r_i_glide_eff_state_penalty>
0

> <s_user_duplicate_titles>
CHEMBL3397_lig93

> <s_m_subgroup_title>
dock_pv

> <s_m_subgroupid>
dock_pv

> <b_m_subgroup_collapsed>
1

$$$$
CHEMBL3397_lig85
                    3D
 Schrodinger Suite 2021-1.
 47 50  0  0  1  0            999 V2000
    5.9010   35.4549   -3.1410 O   0  0  0  0  0  0
    5.0865   28.6730   -4.3410 O   0  0  0  0  0  0
   -0.5260   33.8876   -2.5815 O   0  0  0  0  0  0
    5.6319   33.2383   -3.5017 N   0  0  0  0  0  0
    8.1116   32.7316   -2.2965 N   0  0  0  0  0  0
    5.3595   30.8828   -3.9254 N   0  0  0  0  0  0
    7.0892   29.3291   -3.2318 N   0  0  0  0  0  0
   11.9010   38.0289   -3.2154 N   0  0  0  0  0  0
    6.1095   31.9006   -3.4381 C   0  0  0  0  0  0
    7.6573   33.9327   -2.3480 C   0  0  0  0  0  0
    6.3433   34.3089   -3.0181 C   0  0  0  0  0  0
    7.3619   31.6860   -2.8432 C   0  0  0  0  0  0
    8.4863   34.9533   -1.6910 C   0  0  0  0  0  0
    4.2545   33.4773   -4.0186 C   0  0  0  0  0  0
    7.8255   30.3748   -2.7747 C   0  0  0  0  0  0
    5.8828   29.6447   -3.7913 C   0  0  0  0  0  0
    3.1015   33.1644   -3.0571 C   0  0  0  0  0  0
    9.5267   35.5750   -2.3842 C   0  0  0  0  0  0
    8.3010   35.2657   -0.3409 C   0  0  0  0  0  0
   10.2733   36.5920   -1.7751 C   0  0  0  0  0  0
    1.8319   33.7088   -3.2998 C   0  0  0  0  0  0
    3.2736   32.3343   -1.9414 C   0  0  0  0  0  0
    9.0826   36.2331    0.2896 C   0  0  0  0  0  0
   10.0610   36.9116   -0.4320 C   0  0  0  0  0  0
    0.7415   33.3709   -2.4789 C   0  0  0  0  0  0
    2.1856   31.9750   -1.1594 C   0  0  0  0  0  0
    0.9196   32.4458   -1.4626 C   0  0  0  0  0  0
   11.1797   37.3924   -2.5748 C   0  0  0  0  0  0
    5.5882   27.3648   -4.4930 C   0  0  0  0  0  0
   -0.6780   35.1750   -3.1413 C   0  0  0  0  0  0
    4.1339   34.5056   -4.3637 H   0  0  0  0  0  0
    4.1048   32.8623   -4.9068 H   0  0  0  0  0  0
    8.7874   30.1473   -2.3410 H   0  0  0  0  0  0
    9.6879   35.3339   -3.4276 H   0  0  0  0  0  0
    7.5232   34.7747    0.2271 H   0  0  0  0  0  0
    1.6915   34.3751   -4.1354 H   0  0  0  0  0  0
    4.2342   31.9227   -1.6768 H   0  0  0  0  0  0
    8.9071   36.4783    1.3270 H   0  0  0  0  0  0
   10.6196   37.7038    0.0505 H   0  0  0  0  0  0
    2.3132   31.2955   -0.3338 H   0  0  0  0  0  0
    0.0794   32.1486   -0.8521 H   0  0  0  0  0  0
    4.7981   26.7750   -4.9450 H   0  0  0  0  0  0
    6.4604   27.3208   -5.1410 H   0  0  0  0  0  0
    5.8523   26.9197   -3.5410 H   0  0  0  0  0  0
   -1.6989   35.5137   -2.9736 H   0  0  0  0  0  0
   -0.0081   35.8876   -2.6579 H   0  0  0  0  0  0
   -0.4990   35.1605   -4.2148 H   0  0  0  0  0  0
  1 11  2  0  0  0
  2 16  1  0  0  0
  2 29  1  0  0  0
  3 25  1  0  0  0
  3 30  1  0  0  0
  4  9  1  0  0  0
  4 11  1  0  0  0
  4 14  1  0  0  0
  5 10  2  0  0  0
  5 12  1  0  0  0
  6  9  1  0  0  0
  6 16  2  0  0  0
  7 15  2  0  0  0
  7 16  1  0  0  0
  8 28  3  0  0  0
  9 12  2  0  0  0
 10 11  1  0  0  0
 10 13  1  0  0  0
 12 15  1  0  0  0
 13 18  2  0  0  0
 13 19  1  0  0  0
 14 17  1  0  0  0
 14 31  1  0  0  0
 14 32  1  0  0  0
 15 33  1  0  0  0
 17 21  2  0  0  0
 17 22  1  0  0  0
 18 20  1  0  0  0
 18 34  1  0  0  0
 19 23  2  0  0  0
 19 35  1  0  0  0
 20 24  2  0  0  0
 20 28  1  0  0  0
 21 25  1  0  0  0
 21 36  1  0  0  0
 22 26  2  0  0  0
 22 37  1  0  0  0
 23 24  1  0  0  0
 23 38  1  0  0  0
 24 39  1  0  0  0
 25 27  2  0  0  0
 26 27  1  0  0  0
 26 40  1  0  0  0
 27 41  1  0  0  0
 29 42  1  0  0  0
 29 43  1  0  0  0
 29 44  1  0  0  0
 30 45  1  0  0  0
 30 46  1  0  0  0
 30 47  1  0  0  0
M  END
> <s_m_entry_id>
35917

> <s_m_entry_name>
dock_pv.73

> <s_m_Source_Path>
/home/csk/Desktop/cluster/DUD-E-result/cp2c9

> <s_m_Source_File>
dock_pv.maegz

> <i_m_Source_File_Index>
73

> <chembl_id>
CHEMBL1404317

> <chembl_pref_name>
None

> <i_lp_mmshare_version>
53161

> <i_f3d_flags>
0

> <r_lp_tautomer_probability>
1

> <s_lp_Force_Field>
OPLS_2005

> <r_lp_Energy>
36.503988

> <b_lp_Chiralities_Consistent>
1

> <s_lp_Variant>
CHEMBL3397_lig85-1

> <s_i_glide_gridfile>
glide-grid_1r9o

> <i_i_glide_lignum>
123

> <i_i_glide_rotatable_bonds>
5

> <r_i_docking_score>
-7.025754734163

> <r_i_glide_ligand_efficiency>
-0.2341918244721

> <r_i_glide_ligand_efficiency_sa>
-0.727688448803346

> <r_i_glide_ligand_efficiency_ln>
-1.59632802733098

> <r_i_glide_gscore>
-7.025754734163

> <r_i_glide_lipo>
-4.08740619616742

> <r_i_glide_hbond>
-0.135802641903017

> <r_i_glide_metal>
0

> <r_i_glide_rewards>
-0.854969245385365

> <r_i_glide_evdw>
-41.3652572631836

> <r_i_glide_ecoul>
-1.26989734172821

> <r_i_glide_erotb>
0.36849081744036

> <r_i_glide_esite>
-0.0573200037291514

> <r_i_glide_emodel>
-54.0827194442029

> <r_i_glide_energy>
-42.6351546049118

> <r_i_glide_einternal>
4.9918270111084

> <i_i_glide_confnum>
2

> <i_i_glide_posenum>
310

> <r_i_glide_eff_state_penalty>
0

> <s_user_duplicate_titles>
CHEMBL3397_lig85

> <s_m_subgroup_title>
dock_pv

> <s_m_subgroupid>
dock_pv

> <b_m_subgroup_collapsed>
1

$$$$
CHEMBL3397_lig111
                    3D
 Schrodinger Suite 2021-1.
 44 46  0  0  1  0            999 V2000
   10.7008   34.5738   -0.2092 O   0  0  0  0  0  0
   10.5419   32.4480   -1.9417 O   0  0  0  0  0  0
    4.0270   32.4242   -4.4982 N   0  0  0  0  0  0
    8.2692   32.5958   -1.9566 N   0  0  0  0  0  0
    6.0496   32.5705   -3.7994 C   0  0  0  0  0  0
    5.2781   32.9497   -5.0608 C   0  0  0  0  0  0
    4.7850   31.8205   -3.3941 C   0  0  0  0  0  0
    7.3145   31.6919   -4.0226 C   0  0  0  0  0  0
    6.3593   33.7601   -2.8578 C   0  0  0  0  0  0
    9.5139   33.0747   -1.6749 C   0  0  0  0  0  0
    8.0682   31.3383   -2.7061 C   0  0  0  0  0  0
    7.0106   33.2440   -1.5621 C   0  0  0  0  0  0
    9.6366   34.3716   -1.0289 C   0  0  0  0  0  0
    2.9661   33.3997   -4.2219 C   0  0  0  0  0  0
    8.9442   35.5769   -1.1472 C   0  0  0  0  0  0
    1.6347   32.8195   -3.6846 C   0  0  0  0  0  0
   10.6710   35.8648    0.2093 C   0  0  0  0  0  0
    9.5912   36.5170   -0.3463 C   0  0  0  0  0  0
    0.5957   33.9496   -3.5647 C   0  0  0  0  0  0
    1.7474   32.0736   -2.3404 C   0  0  0  0  0  0
    5.5838   32.3962   -5.9488 H   0  0  0  0  0  0
    5.2522   34.0199   -5.2806 H   0  0  0  0  0  0
    4.4179   32.0730   -2.3997 H   0  0  0  0  0  0
    4.8657   30.7367   -3.5008 H   0  0  0  0  0  0
    7.0569   30.7724   -4.5486 H   0  0  0  0  0  0
    8.0005   32.2168   -4.6891 H   0  0  0  0  0  0
    7.0035   34.4852   -3.3577 H   0  0  0  0  0  0
    5.4488   34.3050   -2.6058 H   0  0  0  0  0  0
    7.4424   30.6912   -2.0886 H   0  0  0  0  0  0
    8.9955   30.7894   -2.8792 H   0  0  0  0  0  0
    6.3781   32.4636   -1.1415 H   0  0  0  0  0  0
    7.1033   33.9465   -0.7366 H   0  0  0  0  0  0
    2.7569   33.8962   -5.1710 H   0  0  0  0  0  0
    3.3345   34.1728   -3.5469 H   0  0  0  0  0  0
    8.0727   35.7628   -1.7526 H   0  0  0  0  0  0
    1.2555   32.1202   -4.4304 H   0  0  0  0  0  0
   11.4703   36.1826    0.8594 H   0  0  0  0  0  0
    9.3293   37.5539   -0.2052 H   0  0  0  0  0  0
    0.9520   34.7602   -2.9283 H   0  0  0  0  0  0
   -0.3403   33.5897   -3.1399 H   0  0  0  0  0  0
    0.3631   34.3753   -4.5397 H   0  0  0  0  0  0
    2.2037   32.7013   -1.5715 H   0  0  0  0  0  0
    0.7687   31.7615   -1.9758 H   0  0  0  0  0  0
    2.3400   31.1667   -2.4359 H   0  0  0  0  0  0
  1 13  1  0  0  0
  1 17  1  0  0  0
  2 10  2  0  0  0
  3  6  1  0  0  0
  3  7  1  0  0  0
  3 14  1  0  0  0
  4 10  1  0  0  0
  4 11  1  0  0  0
  4 12  1  0  0  0
  5  6  1  0  0  0
  5  7  1  0  0  0
  5  8  1  0  0  0
  5  9  1  0  0  0
  6 21  1  0  0  0
  6 22  1  0  0  0
  7 23  1  0  0  0
  7 24  1  0  0  0
  8 11  1  0  0  0
  8 25  1  0  0  0
  8 26  1  0  0  0
  9 12  1  0  0  0
  9 27  1  0  0  0
  9 28  1  0  0  0
 10 13  1  0  0  0
 11 29  1  0  0  0
 11 30  1  0  0  0
 12 31  1  0  0  0
 12 32  1  0  0  0
 13 15  2  0  0  0
 14 16  1  0  0  0
 14 33  1  0  0  0
 14 34  1  0  0  0
 15 18  1  0  0  0
 15 35  1  0  0  0
 16 19  1  0  0  0
 16 20  1  0  0  0
 16 36  1  0  0  0
 17 18  2  0  0  0
 17 37  1  0  0  0
 18 38  1  0  0  0
 19 39  1  0  0  0
 19 40  1  0  0  0
 19 41  1  0  0  0
 20 42  1  0  0  0
 20 43  1  0  0  0
 20 44  1  0  0  0
M  END
> <s_m_entry_id>
35918

> <s_m_entry_name>
dock_pv.74

> <s_m_Source_Path>
/home/csk/Desktop/cluster/DUD-E-result/cp2c9

> <s_m_Source_File>
dock_pv.maegz

> <i_m_Source_File_Index>
74

> <chembl_id>
CHEMBL1599748

> <chembl_pref_name>
None

> <i_lp_mmshare_version>
53161

> <i_f3d_flags>
0

> <r_lp_tautomer_probability>
1

> <s_lp_Force_Field>
OPLS_2005

> <r_lp_Energy>
50.687021

> <b_lp_Chiralities_Consistent>
1

> <s_lp_Variant>
CHEMBL3397_lig111-1

> <s_i_glide_gridfile>
glide-grid_1r9o

> <i_i_glide_lignum>
149

> <i_i_glide_rotatable_bonds>
4

> <r_i_docking_score>
-7.0170297147786

> <r_i_glide_ligand_efficiency>
-0.35085148573893

> <r_i_glide_ligand_efficiency_sa>
-0.952357452747246

> <r_i_glide_ligand_efficiency_ln>
-1.75613110047969

> <r_i_glide_gscore>
-7.0170297147786

> <r_i_glide_lipo>
-3.50664305651569

> <r_i_glide_hbond>
-0.0330915284462748

> <r_i_glide_metal>
0

> <r_i_glide_rewards>
-2.46028899945144

> <r_i_glide_evdw>
-32.1459884643555

> <r_i_glide_ecoul>
-0.775345683097839

> <r_i_glide_erotb>
0.706595145317257

> <r_i_glide_esite>
0

> <r_i_glide_emodel>
-46.2396636090047

> <r_i_glide_energy>
-32.9213341474533

> <r_i_glide_einternal>
2.13328099250793

> <i_i_glide_confnum>
63

> <i_i_glide_posenum>
107

> <r_i_glide_eff_state_penalty>
0

> <s_user_duplicate_titles>
CHEMBL3397_lig111

> <s_m_subgroup_title>
dock_pv

> <s_m_subgroupid>
dock_pv

> <b_m_subgroup_collapsed>
1

$$$$
CHEMBL3397_lig27
                    3D
 Schrodinger Suite 2021-1.
 58 62  0  0  1  0            999 V2000
    9.6233   34.9854   -0.5862 C   0  0  2  0  0  0
   11.4843   37.9056   -2.1731 C   0  0  0  0  0  0
   11.3949   37.5039   -3.4961 C   0  0  0  0  0  0
   10.6382   36.3780   -3.8515 C   0  0  0  0  0  0
   10.9643   37.1126   -1.1584 C   0  0  0  0  0  0
   10.2890   35.9466   -1.4930 C   0  0  0  0  0  0
   10.0456   35.5871   -2.8208 C   0  0  0  0  0  0
    9.2029   34.4281   -2.7989 N   0  0  0  0  0  0
    9.0618   33.9420   -1.5394 C   0  0  0  0  0  0
   10.2677   36.2900   -5.2767 C   0  0  0  0  0  0
   10.9109   36.7966   -6.3636 C   0  0  0  0  0  0
   10.2624   36.7263   -7.6462 C   0  0  0  0  0  0
    9.5374   35.7788   -7.9364 O   0  0  0  0  0  0
   10.2947   37.9123   -8.4123 N   0  0  0  0  0  0
    9.1523   38.3767   -9.6764 S   0  0  0  0  0  0
    8.5974   40.0566   -9.3617 C   0  0  0  0  0  0
    7.9347   37.5764   -9.5422 O   0  0  0  0  0  0
    9.9018   38.4086  -10.9307 O   0  0  0  0  0  0
    8.4090   33.7551   -3.8627 C   0  0  0  0  0  0
    6.8764   33.8954   -3.8898 C   0  0  0  0  0  0
    8.5825   32.8727   -1.1778 O   0  0  0  0  0  0
    6.2805   34.5621   -4.9633 C   0  0  0  0  0  0
    4.8993   34.5855   -5.1288 C   0  0  0  0  0  0
    6.0557   33.2271   -2.9731 C   0  0  0  0  0  0
    4.6451   33.2312   -3.1072 C   0  0  0  0  0  0
    4.0580   33.9148   -4.2129 C   0  0  0  0  0  0
    2.6529   33.8852   -4.3751 C   0  0  0  0  0  0
    1.8518   33.2153   -3.4550 C   0  0  0  0  0  0
    2.4193   32.5583   -2.3692 C   0  0  0  0  0  0
    3.8017   32.5546   -2.1864 C   0  0  0  0  0  0
    7.2226   40.3196   -9.4234 C   0  0  0  0  0  0
    6.7309   41.5832   -9.1137 C   0  0  0  0  0  0
    7.6005   42.6026   -8.7498 C   0  0  0  0  0  0
    8.9795   42.3658   -8.7413 C   0  0  0  0  0  0
    9.4814   41.0939   -9.0537 C   0  0  0  0  0  0
    7.0948   43.8071   -8.4023 F   0  0  0  0  0  0
    8.5833   35.5741    0.1860 O   0  0  0  0  0  0
    5.3978   41.8147   -9.1384 F   0  0  0  0  0  0
   10.3488   34.4975    0.0699 H   0  0  0  0  0  0
   11.9020   38.8690   -1.9419 H   0  0  0  0  0  0
   11.7871   38.1766   -4.2511 H   0  0  0  0  0  0
   11.0592   37.4352   -0.1302 H   0  0  0  0  0  0
    9.3052   35.8364   -5.4460 H   0  0  0  0  0  0
   11.8735   37.2926   -6.3156 H   0  0  0  0  0  0
   11.1000   38.5568   -8.3419 H   0  0  0  0  0  0
    8.6665   34.1054   -4.8376 H   0  0  0  0  0  0
    8.6535   32.6923   -3.8726 H   0  0  0  0  0  0
    6.8927   35.0577   -5.7036 H   0  0  0  0  0  0
    4.4637   35.0996   -5.9735 H   0  0  0  0  0  0
    6.4700   32.6560   -2.1614 H   0  0  0  0  0  0
    2.2041   34.3686   -5.2284 H   0  0  0  0  0  0
    0.7802   33.2022   -3.5885 H   0  0  0  0  0  0
    1.7834   32.0405   -1.6654 H   0  0  0  0  0  0
    4.2387   32.0339   -1.3442 H   0  0  0  0  0  0
    6.5154   39.5419   -9.6785 H   0  0  0  0  0  0
    9.6609   43.1600   -8.4755 H   0  0  0  0  0  0
   10.5471   40.9215   -9.0262 H   0  0  0  0  0  0
    7.7987   35.6621   -0.3656 H   0  0  0  0  0  0
  1  9  1  0  0  0
  1  6  1  0  0  0
  1 37  1  0  0  0
  1 39  1  0  0  0
  2  5  1  0  0  0
  2  3  2  0  0  0
  2 40  1  0  0  0
  3  4  1  0  0  0
  3 41  1  0  0  0
  4 10  1  0  0  0
  4  7  2  0  0  0
  5  6  2  0  0  0
  5 42  1  0  0  0
  6  7  1  0  0  0
  7  8  1  0  0  0
  8 19  1  0  0  0
  8  9  1  0  0  0
  9 21  2  0  0  0
 10 11  2  0  0  0
 10 43  1  0  0  0
 11 12  1  0  0  0
 11 44  1  0  0  0
 12 13  2  0  0  0
 12 14  1  0  0  0
 14 15  1  0  0  0
 14 45  1  0  0  0
 15 16  1  0  0  0
 15 17  2  0  0  0
 15 18  2  0  0  0
 16 31  2  0  0  0
 16 35  1  0  0  0
 19 20  1  0  0  0
 19 46  1  0  0  0
 19 47  1  0  0  0
 20 22  2  0  0  0
 20 24  1  0  0  0
 22 23  1  0  0  0
 22 48  1  0  0  0
 23 26  2  0  0  0
 23 49  1  0  0  0
 24 25  2  0  0  0
 24 50  1  0  0  0
 25 26  1  0  0  0
 25 30  1  0  0  0
 26 27  1  0  0  0
 27 28  2  0  0  0
 27 51  1  0  0  0
 28 29  1  0  0  0
 28 52  1  0  0  0
 29 30  2  0  0  0
 29 53  1  0  0  0
 30 54  1  0  0  0
 31 32  1  0  0  0
 31 55  1  0  0  0
 32 33  2  0  0  0
 32 38  1  0  0  0
 33 34  1  0  0  0
 33 36  1  0  0  0
 34 35  2  0  0  0
 34 56  1  0  0  0
 35 57  1  0  0  0
 37 58  1  0  0  0
M  END
> <s_m_entry_id>
35919

> <s_m_entry_name>
dock_pv.75

> <s_m_Source_Path>
/home/csk/Desktop/cluster/DUD-E-result/cp2c9

> <s_m_Source_File>
dock_pv.maegz

> <i_m_Source_File_Index>
75

> <chembl_id>
CHEMBL1093792

> <chembl_pref_name>
None

> <i_lp_mmshare_version>
53161

> <i_f3d_flags>
0

> <r_lp_tautomer_probability>
1

> <s_lp_Force_Field>
OPLS_2005

> <r_lp_Energy>
47.026437

> <b_lp_Chiralities_Consistent>
1

> <s_lp_Variant>
CHEMBL3397_lig27-2

> <s_i_glide_gridfile>
glide-grid_1r9o

> <i_i_glide_lignum>
47

> <i_i_glide_rotatable_bonds>
8

> <r_i_docking_score>
-7.0005637386252

> <r_i_glide_ligand_efficiency>
-0.184225361542768

> <r_i_glide_ligand_efficiency_sa>
-0.619361134064442

> <r_i_glide_ligand_efficiency_ln>
-1.50952747776835

> <r_i_glide_gscore>
-7.0005637386252

> <r_i_glide_lipo>
-3.29288740102753

> <r_i_glide_hbond>
-0.16

> <r_i_glide_metal>
0

> <r_i_glide_rewards>
-0.113916527879499

> <r_i_glide_evdw>
-46.2366256713867

> <r_i_glide_ecoul>
-9.56117248535156

> <r_i_glide_erotb>
0.433401775496216

> <r_i_glide_esite>
-0.121154428842313

> <r_i_glide_emodel>
-60.517009278042

> <r_i_glide_energy>
-55.7977981567383

> <r_i_glide_einternal>
17.9044551849365

> <i_i_glide_confnum>
24

> <i_i_glide_posenum>
300

> <r_i_glide_eff_state_penalty>
0

> <s_user_duplicate_titles>
CHEMBL3397_lig27

> <s_m_subgroup_title>
dock_pv

> <s_m_subgroupid>
dock_pv

> <b_m_subgroup_collapsed>
1

$$$$
CHEMBL3397_lig22
                    3D
 Schrodinger Suite 2021-1.
 59 64  0  0  1  0            999 V2000
   11.1200   38.7933   -2.2949 C   0  0  0  0  0  0
   11.6205   39.0898   -3.5189 N   0  0  0  0  0  0
   11.6719   38.0717   -4.4134 C   0  0  0  0  0  0
   11.2278   36.7768   -4.1234 C   0  0  0  0  0  0
   10.7094   36.4810   -2.8477 C   0  0  0  0  0  0
   10.7007   37.5169   -1.9082 C   0  0  0  0  0  0
   10.0908   35.1534   -2.5568 C   0  0  0  0  0  0
    9.2744   34.5937   -3.5412 C   0  0  0  0  0  0
    9.7210   33.2018   -1.1415 C   0  0  0  0  0  0
   10.3007   34.4559   -1.3607 C   0  0  0  0  0  0
    8.0342   31.5858   -2.0471 N   0  0  0  0  0  0
    8.8447   32.6826   -2.1000 C   0  0  0  0  0  0
    8.7021   33.3403   -3.3286 C   0  0  0  0  0  0
    7.9598   32.4596   -4.1042 N   0  0  0  0  0  0
    7.4341   31.5408   -3.2155 C   0  0  0  0  0  0
    6.3522   30.5191   -3.5943 C   0  0  1  0  0  0
    5.1008   30.7689   -1.5464 O   0  0  0  0  0  0
    5.7439   29.7919   -2.3930 C   0  0  0  0  0  0
    4.1200   31.4515   -2.2370 C   0  0  0  0  0  0
    4.1812   31.5700   -3.6276 C   0  0  0  0  0  0
    3.0948   32.0767   -4.3356 C   0  0  0  0  0  0
    1.9702   32.5386   -3.6432 C   0  0  0  0  0  0
    1.9470   32.5046   -2.2448 C   0  0  0  0  0  0
    3.0274   31.9656   -1.5406 C   0  0  0  0  0  0
    7.7280   32.5000   -5.5496 C   0  0  0  0  0  0
    7.0417   33.7719   -6.0644 C   0  0  0  0  0  0
    5.6969   33.9615   -5.5192 N   0  0  0  0  0  0
    4.8829   34.6699   -6.5138 C   0  0  0  0  0  0
    3.5808   35.2045   -5.9211 C   0  0  0  0  0  0
    3.9012   35.9732   -4.7662 O   0  0  0  0  0  0
    4.4055   35.1970   -3.7107 C   0  0  0  0  0  0
    5.7240   34.6208   -4.1971 C   0  0  0  0  0  0
    5.2591   31.0892   -4.3428 O   0  0  0  0  0  0
   11.1012   39.6094   -1.5873 H   0  0  0  0  0  0
   12.0571   38.3184   -5.3937 H   0  0  0  0  0  0
   11.2681   36.0193   -4.8920 H   0  0  0  0  0  0
   10.3019   37.3622   -0.9166 H   0  0  0  0  0  0
    9.1046   35.1383   -4.4560 H   0  0  0  0  0  0
    9.9181   32.6424   -0.2453 H   0  0  0  0  0  0
   10.9160   34.8827   -0.5821 H   0  0  0  0  0  0
    6.8185   29.7766   -4.2328 H   0  0  0  0  0  0
    6.5558   29.2412   -1.9416 H   0  0  0  0  0  0
    5.0198   29.0558   -2.7505 H   0  0  0  0  0  0
    3.1302   32.1089   -5.4144 H   0  0  0  0  0  0
    1.1267   32.9407   -4.1853 H   0  0  0  0  0  0
    1.0846   32.8790   -1.7086 H   0  0  0  0  0  0
    2.9994   31.8828   -0.4644 H   0  0  0  0  0  0
    8.6844   32.3642   -6.0464 H   0  0  0  0  0  0
    7.1445   31.6305   -5.8498 H   0  0  0  0  0  0
    7.6591   34.6599   -5.9321 H   0  0  0  0  0  0
    6.9780   33.6438   -7.1444 H   0  0  0  0  0  0
    5.4346   35.5325   -6.8958 H   0  0  0  0  0  0
    4.7024   34.0256   -7.3751 H   0  0  0  0  0  0
    2.8796   34.4054   -5.6897 H   0  0  0  0  0  0
    3.0879   35.8335   -6.6555 H   0  0  0  0  0  0
    3.7052   34.4403   -3.3796 H   0  0  0  0  0  0
    4.5821   35.8382   -2.8502 H   0  0  0  0  0  0
    6.1721   34.0117   -3.4176 H   0  0  0  0  0  0
    6.3082   35.5192   -4.2963 H   0  0  0  0  0  0
  1  6  1  0  0  0
  1  2  2  0  0  0
  1 34  1  0  0  0
  2  3  1  0  0  0
  3  4  2  0  0  0
  3 35  1  0  0  0
  4  5  1  0  0  0
  4 36  1  0  0  0
  5  6  2  0  0  0
  5  7  1  0  0  0
  6 37  1  0  0  0
  7  8  2  0  0  0
  7 10  1  0  0  0
  8 13  1  0  0  0
  8 38  1  0  0  0
  9 12  1  0  0  0
  9 10  2  0  0  0
  9 39  1  0  0  0
 10 40  1  0  0  0
 11 12  1  0  0  0
 11 15  2  0  0  0
 12 13  2  0  0  0
 13 14  1  0  0  0
 14 25  1  0  0  0
 14 15  1  0  0  0
 15 16  1  0  0  0
 16 33  1  0  0  0
 16 18  1  0  0  0
 16 41  1  0  0  0
 17 19  1  0  0  0
 17 18  1  0  0  0
 18 42  1  0  0  0
 18 43  1  0  0  0
 19 20  2  0  0  0
 19 24  1  0  0  0
 20 33  1  0  0  0
 20 21  1  0  0  0
 21 22  2  0  0  0
 21 44  1  0  0  0
 22 23  1  0  0  0
 22 45  1  0  0  0
 23 24  2  0  0  0
 23 46  1  0  0  0
 24 47  1  0  0  0
 25 26  1  0  0  0
 25 48  1  0  0  0
 25 49  1  0  0  0
 26 27  1  0  0  0
 26 50  1  0  0  0
 26 51  1  0  0  0
 27 28  1  0  0  0
 27 32  1  0  0  0
 28 29  1  0  0  0
 28 52  1  0  0  0
 28 53  1  0  0  0
 29 30  1  0  0  0
 29 54  1  0  0  0
 29 55  1  0  0  0
 30 31  1  0  0  0
 31 32  1  0  0  0
 31 56  1  0  0  0
 31 57  1  0  0  0
 32 58  1  0  0  0
 32 59  1  0  0  0
M  END
> <s_m_entry_id>
35920

> <s_m_entry_name>
dock_pv.76

> <s_m_Source_Path>
/home/csk/Desktop/cluster/DUD-E-result/cp2c9

> <s_m_Source_File>
dock_pv.maegz

> <i_m_Source_File_Index>
76

> <chembl_id>
CHEMBL1079515

> <chembl_pref_name>
None

> <i_lp_mmshare_version>
53161

> <i_f3d_flags>
0

> <r_lp_tautomer_probability>
1

> <s_lp_Force_Field>
OPLS_2005

> <r_lp_Energy>
39.26482

> <b_lp_Chiralities_Consistent>
1

> <s_lp_Variant>
CHEMBL3397_lig22-1

> <s_i_glide_gridfile>
glide-grid_1r9o

> <i_i_glide_lignum>
37

> <i_i_glide_rotatable_bonds>
5

> <r_i_docking_score>
-6.99788589134737

> <r_i_glide_ligand_efficiency>
-0.212057148222648

> <r_i_glide_ligand_efficiency_sa>
-0.680180582052404

> <r_i_glide_ligand_efficiency_ln>
-1.55629358912167

> <r_i_glide_gscore>
-6.99788589134737

> <r_i_glide_lipo>
-4.75966011922958

> <r_i_glide_hbond>
0

> <r_i_glide_metal>
0

> <r_i_glide_rewards>
-0.492290180847498

> <r_i_glide_evdw>
-39.0517539978027

> <r_i_glide_ecoul>
-2.02416515350342

> <r_i_glide_erotb>
0.510276881645356

> <r_i_glide_esite>
0

> <r_i_glide_emodel>
-45.7353882684507

> <r_i_glide_energy>
-41.0759191513062

> <r_i_glide_einternal>
4.67044067382812

> <i_i_glide_confnum>
157

> <i_i_glide_posenum>
21

> <r_i_glide_eff_state_penalty>
0

> <s_user_duplicate_titles>
CHEMBL3397_lig22

> <s_m_subgroup_title>
dock_pv

> <s_m_subgroupid>
dock_pv

> <b_m_subgroup_collapsed>
1

$$$$
CHEMBL3397_lig148
                    3D
 Schrodinger Suite 2021-1.
 52 56  0  0  1  0            999 V2000
    4.1635   34.7069   -5.4880 O   0  0  0  0  0  0
    3.8600   32.6857   -1.7925 O   0  0  0  0  0  0
    8.6983   29.1171   -3.5408 O   0  0  0  0  0  0
    6.5828   28.3247   -3.5411 O   0  0  0  0  0  0
    6.0565   34.0497   -6.5407 O   0  0  0  0  0  0
    8.3944   35.5749    0.7861 O   0  0  0  0  0  0
   11.5013   36.4323   -2.7681 O   0  0  0  0  0  0
   10.8259   36.5676   -0.1087 O   0  0  0  0  0  0
    7.3403   33.8321   -3.7300 C   0  0  2  0  0  0
    6.0637   34.6289   -4.1116 C   0  0  2  0  0  0
    7.0307   32.3810   -3.4039 C   0  0  0  0  0  0
    5.7041   31.9000   -3.2075 C   0  0  0  0  0  0
    4.8149   34.3479   -3.2902 C   0  0  2  0  0  0
    4.5100   32.8388   -3.0394 C   0  0  2  0  0  0
    8.3040   34.5105   -2.7306 C   0  0  0  0  0  0
    5.4848   34.4233   -5.5182 C   0  0  0  0  0  0
    8.1000   31.4870   -3.4151 C   0  0  0  0  0  0
    7.8303   30.1386   -3.3894 C   0  0  0  0  0  0
    5.4753   30.5111   -3.2073 C   0  0  0  0  0  0
    6.5594   29.6641   -3.3425 C   0  0  0  0  0  0
    3.7395   35.0050   -4.1605 C   0  0  0  0  0  0
    7.9865   34.6369   -1.3787 C   0  0  0  0  0  0
    9.5010   35.0884   -3.1870 C   0  0  0  0  0  0
    8.7938   35.3834   -0.5164 C   0  0  0  0  0  0
   10.3458   35.8037   -2.3363 C   0  0  0  0  0  0
    9.9977   35.9189   -0.9858 C   0  0  0  0  0  0
    7.9298   27.9654   -3.4143 C   0  0  0  0  0  0
    7.8852   36.8607    1.1010 C   0  0  0  0  0  0
   11.6008   36.8187   -4.1386 C   0  0  0  0  0  0
   10.8136   37.9739   -0.2552 C   0  0  0  0  0  0
    4.8952   34.8719   -2.3424 H   0  0  0  0  0  0
    6.2886   35.6823   -4.0528 H   0  0  0  0  0  0
    4.4829   32.8872   -1.0891 H   0  0  0  0  0  0
    7.9249   33.7816   -4.6513 H   0  0  0  0  0  0
    3.7764   32.5032   -3.7759 H   0  0  0  0  0  0
    9.1030   31.8533   -3.5406 H   0  0  0  0  0  0
    4.4700   30.1201   -3.1304 H   0  0  0  0  0  0
    2.7535   34.5850   -3.9561 H   0  0  0  0  0  0
    3.6773   36.0811   -3.9895 H   0  0  0  0  0  0
    7.1009   34.1735   -0.9918 H   0  0  0  0  0  0
    9.7254   35.0568   -4.2392 H   0  0  0  0  0  0
    8.0977   27.5530   -2.4225 H   0  0  0  0  0  0
    8.2063   27.2248   -4.1666 H   0  0  0  0  0  0
    7.2299   36.7824    1.9695 H   0  0  0  0  0  0
    8.6846   37.5513    1.3679 H   0  0  0  0  0  0
    7.2961   37.2922    0.2888 H   0  0  0  0  0  0
   12.4300   37.5153   -4.2558 H   0  0  0  0  0  0
   11.7953   35.9702   -4.7910 H   0  0  0  0  0  0
   10.7019   37.3329   -4.4811 H   0  0  0  0  0  0
   11.1013   38.4073    0.6996 H   0  0  0  0  0  0
   11.5033   38.3001   -1.0293 H   0  0  0  0  0  0
    9.8406   38.3748   -0.5238 H   0  0  0  0  0  0
  1 16  1  0  0  0
  1 21  1  0  0  0
  2 14  1  0  0  0
  2 33  1  0  0  0
  3 18  1  0  0  0
  3 27  1  0  0  0
  4 20  1  0  0  0
  4 27  1  0  0  0
  5 16  2  0  0  0
  6 24  1  0  0  0
  6 28  1  0  0  0
  7 25  1  0  0  0
  7 29  1  0  0  0
  8 26  1  0  0  0
  8 30  1  0  0  0
  9 10  1  0  0  0
  9 11  1  0  0  0
  9 15  1  0  0  0
  9 34  1  0  0  0
 10 13  1  0  0  0
 10 16  1  0  0  0
 10 32  1  0  0  0
 11 12  2  0  0  0
 11 17  1  0  0  0
 12 14  1  0  0  0
 12 19  1  0  0  0
 13 14  1  0  0  0
 13 21  1  0  0  0
 13 31  1  0  0  0
 14 35  1  0  0  0
 15 22  2  0  0  0
 15 23  1  0  0  0
 17 18  2  0  0  0
 17 36  1  0  0  0
 18 20  1  0  0  0
 19 20  2  0  0  0
 19 37  1  0  0  0
 21 38  1  0  0  0
 21 39  1  0  0  0
 22 24  1  0  0  0
 22 40  1  0  0  0
 23 25  2  0  0  0
 23 41  1  0  0  0
 24 26  2  0  0  0
 25 26  1  0  0  0
 27 42  1  0  0  0
 27 43  1  0  0  0
 28 44  1  0  0  0
 28 45  1  0  0  0
 28 46  1  0  0  0
 29 47  1  0  0  0
 29 48  1  0  0  0
 29 49  1  0  0  0
 30 50  1  0  0  0
 30 51  1  0  0  0
 30 52  1  0  0  0
M  END
> <s_m_entry_id>
35921

> <s_m_entry_name>
dock_pv.77

> <s_m_Source_Path>
/home/csk/Desktop/cluster/DUD-E-result/cp2c9

> <s_m_Source_File>
dock_pv.maegz

> <i_m_Source_File_Index>
77

> <chembl_id>
CHEMBL1330659

> <chembl_pref_name>
None

> <i_lp_mmshare_version>
53161

> <i_f3d_flags>
0

> <r_lp_tautomer_probability>
1

> <s_lp_Force_Field>
OPLS_2005

> <r_lp_Energy>
54.759162

> <b_lp_Chiralities_Consistent>
1

> <s_lp_Variant>
CHEMBL3397_lig148-1

> <s_i_glide_gridfile>
glide-grid_1r9o

> <i_i_glide_lignum>
189

> <i_i_glide_rotatable_bonds>
5

> <r_i_docking_score>
-6.99280838865267

> <r_i_glide_ligand_efficiency>
-0.233093612955089

> <r_i_glide_ligand_efficiency_sa>
-0.724276050283145

> <r_i_glide_ligand_efficiency_ln>
-1.58884225865184

> <r_i_glide_gscore>
-6.99280838865267

> <r_i_glide_lipo>
-3.8561244366987

> <r_i_glide_hbond>
-0.28322444231907

> <r_i_glide_metal>
0

> <r_i_glide_rewards>
-0.722300265157876

> <r_i_glide_evdw>
-35.928165435791

> <r_i_glide_ecoul>
-2.99787664413452

> <r_i_glide_erotb>
0.114930523932702

> <r_i_glide_esite>
0

> <r_i_glide_emodel>
-39.9090974865957

> <r_i_glide_energy>
-38.9260420799255

> <r_i_glide_einternal>
8.48070621490479

> <i_i_glide_confnum>
2

> <i_i_glide_posenum>
61

> <r_i_glide_eff_state_penalty>
0

> <s_user_duplicate_titles>
CHEMBL3397_lig148

> <s_m_subgroup_title>
dock_pv

> <s_m_subgroupid>
dock_pv

> <b_m_subgroup_collapsed>
1

$$$$
CHEMBL3397_lig36
                    3D
 Schrodinger Suite 2021-1.
 51 54  0  0  1  0            999 V2000
   12.2334   38.7682   -5.1404 F   0  0  0  0  0  0
    8.1591   32.0291   -5.8567 O   0  0  0  0  0  0
    5.2441   29.9772   -2.8694 O   0  0  0  0  0  0
    9.6755   36.6982    0.3049 O   0  0  0  0  0  0
    6.7426   31.0902   -4.2820 N   0  0  0  0  0  0
    4.5634   31.7645   -4.0140 N   0  0  0  0  0  0
    8.8369   32.1208   -2.2559 N   0  0  1  0  0  0
    5.9460   32.9511   -5.5695 C   0  0  0  0  0  0
    7.0703   31.9896   -5.2737 C   0  0  0  0  0  0
    4.7213   32.8228   -4.9046 C   0  0  0  0  0  0
    5.5206   30.8771   -3.6644 C   0  0  0  0  0  0
    6.1378   33.9697   -6.5047 C   0  0  0  0  0  0
    7.8582   30.2804   -3.7629 C   0  0  0  0  0  0
    3.6953   33.7385   -5.1345 C   0  0  0  0  0  0
    8.4291   30.7191   -2.4054 C   0  0  0  0  0  0
    5.1068   34.8716   -6.7411 C   0  0  0  0  0  0
    3.9004   34.7742   -6.0456 C   0  0  0  0  0  0
    9.3041   34.6845   -0.8957 C   0  0  0  0  0  0
    9.8322   36.1253   -0.7756 C   0  0  0  0  0  0
   10.5166   36.7718   -1.9417 C   0  0  0  0  0  0
    7.7078   33.0086   -1.9246 C   0  0  0  0  0  0
    9.8686   32.1993   -1.2095 C   0  0  0  0  0  0
    8.1478   34.4777   -1.8934 C   0  0  0  0  0  0
   10.4162   33.6202   -1.0136 C   0  0  0  0  0  0
   10.9462   38.0970   -1.8101 C   0  0  0  0  0  0
   10.7011   36.1245   -3.1768 C   0  0  0  0  0  0
   11.6722   38.1172   -4.1024 C   0  0  0  0  0  0
   11.5034   38.7707   -2.8892 C   0  0  0  0  0  0
   11.2830   36.7914   -4.2503 C   0  0  0  0  0  0
    3.6796   31.6307   -3.5472 H   0  0  0  0  0  0
    7.0718   34.0772   -7.0374 H   0  0  0  0  0  0
    8.6996   30.2424   -4.4588 H   0  0  0  0  0  0
    7.5402   29.2392   -3.6767 H   0  0  0  0  0  0
    2.7488   33.6541   -4.6195 H   0  0  0  0  0  0
    9.3047   30.0840   -2.3378 H   0  0  0  0  0  0
    7.7565   30.4322   -1.5992 H   0  0  0  0  0  0
    5.2454   35.6652   -7.4616 H   0  0  0  0  0  0
    3.1157   35.4884   -6.2499 H   0  0  0  0  0  0
    8.8245   34.5106    0.0589 H   0  0  0  0  0  0
    7.2426   32.7094   -0.9869 H   0  0  0  0  0  0
    6.9249   32.9477   -2.6693 H   0  0  0  0  0  0
    9.5013   31.7782   -0.2744 H   0  0  0  0  0  0
   10.7097   31.5749   -1.5100 H   0  0  0  0  0  0
    7.2909   35.0735   -1.5821 H   0  0  0  0  0  0
    8.3565   34.7814   -2.9161 H   0  0  0  0  0  0
   11.1006   33.8091   -1.8335 H   0  0  0  0  0  0
   11.0220   33.6166   -0.1067 H   0  0  0  0  0  0
   10.8317   38.6326   -0.8786 H   0  0  0  0  0  0
   10.3783   35.1130   -3.3586 H   0  0  0  0  0  0
   11.8355   39.7913   -2.7753 H   0  0  0  0  0  0
   11.4096   36.2964   -5.2016 H   0  0  0  0  0  0
  1 27  1  0  0  0
  2  9  2  0  0  0
  3 11  2  0  0  0
  4 19  2  0  0  0
  5  9  1  0  0  0
  5 11  1  0  0  0
  5 13  1  0  0  0
  6 10  1  0  0  0
  6 11  1  0  0  0
  6 30  1  0  0  0
  7 15  1  0  0  0
  7 21  1  0  0  0
  7 22  1  0  0  0
  8  9  1  0  0  0
  8 10  2  0  0  0
  8 12  1  0  0  0
 10 14  1  0  0  0
 12 16  2  0  0  0
 12 31  1  0  0  0
 13 15  1  0  0  0
 13 32  1  0  0  0
 13 33  1  0  0  0
 14 17  2  0  0  0
 14 34  1  0  0  0
 15 35  1  0  0  0
 15 36  1  0  0  0
 16 17  1  0  0  0
 16 37  1  0  0  0
 17 38  1  0  0  0
 18 19  1  0  0  0
 18 23  1  0  0  0
 18 24  1  0  0  0
 18 39  1  0  0  0
 19 20  1  0  0  0
 20 25  2  0  0  0
 20 26  1  0  0  0
 21 23  1  0  0  0
 21 40  1  0  0  0
 21 41  1  0  0  0
 22 24  1  0  0  0
 22 42  1  0  0  0
 22 43  1  0  0  0
 23 44  1  0  0  0
 23 45  1  0  0  0
 24 46  1  0  0  0
 24 47  1  0  0  0
 25 28  1  0  0  0
 25 48  1  0  0  0
 26 29  2  0  0  0
 26 49  1  0  0  0
 27 28  2  0  0  0
 27 29  1  0  0  0
 28 50  1  0  0  0
 29 51  1  0  0  0
M  END
> <s_m_entry_id>
35922

> <s_m_entry_name>
dock_pv.78

> <s_m_Source_Path>
/home/csk/Desktop/cluster/DUD-E-result/cp2c9

> <s_m_Source_File>
dock_pv.maegz

> <i_m_Source_File_Index>
78

> <chembl_id>
CHEMBL51

> <chembl_pref_name>
KETANSERIN

> <i_lp_mmshare_version>
53161

> <i_f3d_flags>
0

> <r_lp_tautomer_probability>
0.99990000499975

> <s_lp_Force_Field>
OPLS_2005

> <r_lp_Energy>
48.136235

> <b_lp_Chiralities_Consistent>
1

> <s_lp_Variant>
CHEMBL3397_lig36-1

> <s_i_glide_gridfile>
glide-grid_1r9o

> <i_i_glide_lignum>
60

> <i_i_glide_rotatable_bonds>
5

> <r_i_docking_score>
-6.9727300202087

> <r_i_glide_ligand_efficiency>
-0.240438966214093

> <r_i_glide_ligand_efficiency_sa>
-0.738704680620923

> <r_i_glide_ligand_efficiency_ln>
-1.59657836145034

> <r_i_glide_gscore>
-6.9727300202087

> <r_i_glide_lipo>
-3.54064391134341

> <r_i_glide_hbond>
0

> <r_i_glide_metal>
0

> <r_i_glide_rewards>
-1.88034322228704

> <r_i_glide_evdw>
-42.5796318054199

> <r_i_glide_ecoul>
-0.169126719236374

> <r_i_glide_erotb>
0.625303019885443

> <r_i_glide_esite>
-0.0226953083072383

> <r_i_glide_emodel>
-53.1727389854083

> <r_i_glide_energy>
-42.7487585246563

> <r_i_glide_einternal>
8.58974742889404

> <i_i_glide_confnum>
18

> <i_i_glide_posenum>
388

> <r_i_glide_eff_state_penalty>
0

> <s_user_duplicate_titles>
CHEMBL3397_lig36

> <s_m_subgroup_title>
dock_pv

> <s_m_subgroupid>
dock_pv

> <b_m_subgroup_collapsed>
1

$$$$
CHEMBL3397_lig19
                    3D
 Schrodinger Suite 2021-1.
 50 55  0  0  1  0            999 V2000
   11.6051   37.7663   -4.0960 C   0  0  0  0  0  0
   11.5928   38.6929   -3.1118 N   0  0  0  0  0  0
   11.1010   38.3191   -1.9041 C   0  0  0  0  0  0
   10.6203   37.0372   -1.6298 C   0  0  0  0  0  0
   10.5919   36.0930   -2.6643 C   0  0  0  0  0  0
   11.1204   36.4725   -3.9106 C   0  0  0  0  0  0
    9.8995   34.7833   -2.5032 C   0  0  0  0  0  0
    9.0603   34.3701   -3.5410 C   0  0  0  0  0  0
    9.3527   32.7729   -1.2253 C   0  0  0  0  0  0
   10.0446   33.9809   -1.3636 C   0  0  0  0  0  0
    7.6069   31.3338   -2.3098 N   0  0  0  0  0  0
    8.4637   32.3934   -2.2424 C   0  0  0  0  0  0
    8.3694   33.1703   -3.4104 C   0  0  0  0  0  0
    7.5358   32.4540   -4.2515 N   0  0  0  0  0  0
    7.0035   31.4414   -3.4737 C   0  0  0  0  0  0
    5.8975   30.4899   -3.9462 C   0  0  1  0  0  0
    4.7011   30.4808   -1.8392 O   0  0  0  0  0  0
    5.3051   29.6225   -2.8132 C   0  0  0  0  0  0
    3.8255   31.4010   -2.3780 C   0  0  0  0  0  0
    3.9015   31.7804   -3.7226 C   0  0  0  0  0  0
    2.9931   32.7023   -4.2436 C   0  0  0  0  0  0
    2.0293   33.2703   -3.4064 C   0  0  0  0  0  0
    1.9687   32.9080   -2.0573 C   0  0  0  0  0  0
    2.8710   31.9753   -1.5409 C   0  0  0  0  0  0
    7.2885   32.7116   -5.6729 C   0  0  0  0  0  0
    6.0398   33.5699   -5.9604 C   0  0  0  0  0  0
    5.6825   34.7749   -5.1194 C   0  0  0  0  0  0
    6.2223   34.9574   -6.5234 C   0  0  0  0  0  0
    4.8050   31.1870   -4.5808 O   0  0  0  0  0  0
   11.9866   38.0874   -5.0557 H   0  0  0  0  0  0
   11.1007   39.0823   -1.1411 H   0  0  0  0  0  0
   10.2079   36.8120   -0.6564 H   0  0  0  0  0  0
   11.1138   35.7942   -4.7474 H   0  0  0  0  0  0
    8.9405   34.9721   -4.4270 H   0  0  0  0  0  0
    9.4765   32.1584   -0.3453 H   0  0  0  0  0  0
   10.6982   34.2941   -0.5622 H   0  0  0  0  0  0
    6.3174   29.8238   -4.6918 H   0  0  0  0  0  0
    6.1079   29.0599   -2.3408 H   0  0  0  0  0  0
    4.5749   28.9191   -3.2161 H   0  0  0  0  0  0
    3.0308   32.9702   -5.2887 H   0  0  0  0  0  0
    1.3249   33.9871   -3.8034 H   0  0  0  0  0  0
    1.2227   33.3492   -1.4120 H   0  0  0  0  0  0
    2.8266   31.6827   -0.5019 H   0  0  0  0  0  0
    8.1834   33.1691   -6.0964 H   0  0  0  0  0  0
    7.1946   31.7460   -6.1721 H   0  0  0  0  0  0
    5.2172   32.9758   -6.3601 H   0  0  0  0  0  0
    4.6295   34.9870   -4.9320 H   0  0  0  0  0  0
    6.3020   35.0329   -4.2619 H   0  0  0  0  0  0
    7.2326   35.3451   -6.6570 H   0  0  0  0  0  0
    5.5450   35.2898   -7.3118 H   0  0  0  0  0  0
  1  6  1  0  0  0
  1  2  2  0  0  0
  1 30  1  0  0  0
  2  3  1  0  0  0
  3  4  2  0  0  0
  3 31  1  0  0  0
  4  5  1  0  0  0
  4 32  1  0  0  0
  5  6  2  0  0  0
  5  7  1  0  0  0
  6 33  1  0  0  0
  7  8  2  0  0  0
  7 10  1  0  0  0
  8 13  1  0  0  0
  8 34  1  0  0  0
  9 12  1  0  0  0
  9 10  2  0  0  0
  9 35  1  0  0  0
 10 36  1  0  0  0
 11 15  2  0  0  0
 11 12  1  0  0  0
 12 13  2  0  0  0
 13 14  1  0  0  0
 14 15  1  0  0  0
 14 25  1  0  0  0
 15 16  1  0  0  0
 16 29  1  0  0  0
 16 18  1  0  0  0
 16 37  1  0  0  0
 17 19  1  0  0  0
 17 18  1  0  0  0
 18 38  1  0  0  0
 18 39  1  0  0  0
 19 20  2  0  0  0
 19 24  1  0  0  0
 20 29  1  0  0  0
 20 21  1  0  0  0
 21 22  2  0  0  0
 21 40  1  0  0  0
 22 23  1  0  0  0
 22 41  1  0  0  0
 23 24  2  0  0  0
 23 42  1  0  0  0
 24 43  1  0  0  0
 25 26  1  0  0  0
 25 44  1  0  0  0
 25 45  1  0  0  0
 26 27  1  0  0  0
 26 28  1  0  0  0
 26 46  1  0  0  0
 27 28  1  0  0  0
 27 47  1  0  0  0
 27 48  1  0  0  0
 28 49  1  0  0  0
 28 50  1  0  0  0
M  END
> <s_m_entry_id>
35923

> <s_m_entry_name>
dock_pv.79

> <s_m_Source_Path>
/home/csk/Desktop/cluster/DUD-E-result/cp2c9

> <s_m_Source_File>
dock_pv.maegz

> <i_m_Source_File_Index>
79

> <chembl_id>
CHEMBL1080402

> <chembl_pref_name>
None

> <i_lp_mmshare_version>
53161

> <i_f3d_flags>
0

> <r_lp_tautomer_probability>
1

> <s_lp_Force_Field>
OPLS_2005

> <r_lp_Energy>
28.993712

> <b_lp_Chiralities_Consistent>
1

> <s_lp_Variant>
CHEMBL3397_lig19-1

> <s_i_glide_gridfile>
glide-grid_1r9o

> <i_i_glide_lignum>
31

> <i_i_glide_rotatable_bonds>
4

> <r_i_docking_score>
-6.96461354570499

> <r_i_glide_ligand_efficiency>
-0.240159087782931

> <r_i_glide_ligand_efficiency_sa>
-0.737844805408681

> <r_i_glide_ligand_efficiency_ln>
-1.59471989460502

> <r_i_glide_gscore>
-6.96461354570499

> <r_i_glide_lipo>
-4.05771527340839

> <r_i_glide_hbond>
0

> <r_i_glide_metal>
0

> <r_i_glide_rewards>
-1.19617019984558

> <r_i_glide_evdw>
-39.0398941040039

> <r_i_glide_ecoul>
-1.91599369049072

> <r_i_glide_erotb>
0.528665686322789

> <r_i_glide_esite>
0

> <r_i_glide_emodel>
-54.2752657330242

> <r_i_glide_energy>
-40.9558877944946

> <r_i_glide_einternal>
4.7898736000061

> <i_i_glide_confnum>
88

> <i_i_glide_posenum>
133

> <r_i_glide_eff_state_penalty>
0

> <s_user_duplicate_titles>
CHEMBL3397_lig19

> <s_m_subgroup_title>
dock_pv

> <s_m_subgroupid>
dock_pv

> <b_m_subgroup_collapsed>
1

$$$$
CHEMBL3397_lig156
                    3D
 Schrodinger Suite 2021-1.
 46 46  0  0  1  0            999 V2000
    6.5414   33.4679   -4.7281 C   0  0  0  0  0  0
    5.0694   32.3764   -3.0880 C   0  0  0  0  0  0
    5.8886   32.8946   -2.0723 C   0  0  0  0  0  0
    6.9910   33.7118   -2.3327 C   0  0  0  0  0  0
    7.2968   33.9721   -3.6647 C   0  0  0  0  0  0
    7.6829   34.3680   -1.1844 C   0  0  0  0  0  0
    8.7799   35.1756   -1.1387 C   0  0  0  0  0  0
    9.1457   35.8892    0.0624 C   0  0  0  0  0  0
    9.6334   35.3945   -2.2671 C   0  0  0  0  0  0
   10.3695   35.5751   -3.1413 N   0  0  0  0  0  0
    8.1413   36.3196    0.8596 N   0  0  0  0  0  0
   10.7011   36.3144    0.4589 S   0  0  0  0  0  0
    6.9701   33.8065   -6.1854 C   0  0  0  0  0  0
    7.7338   35.1554   -6.3086 C   0  0  0  0  0  0
    5.7479   33.9696   -7.1447 C   0  0  0  0  0  0
    7.9294   32.6813   -6.6236 C   0  0  0  0  0  0
    3.7657   31.5891   -2.7445 C   0  0  0  0  0  0
    2.5337   32.1995   -3.4739 C   0  0  0  0  0  0
    3.4009   31.6608   -1.2358 C   0  0  0  0  0  0
    3.9282   30.0992   -3.1406 C   0  0  0  0  0  0
    5.4526   32.6235   -4.4219 C   0  0  0  0  0  0
    4.7648   32.0167   -5.4390 O   0  0  0  0  0  0
    5.6437   32.7149   -1.0401 H   0  0  0  0  0  0
    8.1396   34.5841   -3.8896 H   0  0  0  0  0  0
    7.1782   34.1917   -0.2463 H   0  0  0  0  0  0
    7.1790   36.1400    0.6127 H   0  0  0  0  0  0
    8.3623   36.8546    1.6873 H   0  0  0  0  0  0
    8.6916   35.1801   -5.7893 H   0  0  0  0  0  0
    7.9761   35.3829   -7.3483 H   0  0  0  0  0  0
    7.1137   35.9718   -5.9409 H   0  0  0  0  0  0
    5.4791   33.0410   -7.6499 H   0  0  0  0  0  0
    4.8674   34.3415   -6.6177 H   0  0  0  0  0  0
    5.9011   34.6971   -7.9410 H   0  0  0  0  0  0
    7.4242   31.7266   -6.7418 H   0  0  0  0  0  0
    8.4538   32.9265   -7.5408 H   0  0  0  0  0  0
    8.7010   32.5061   -5.8735 H   0  0  0  0  0  0
    2.5223   32.0055   -4.5446 H   0  0  0  0  0  0
    1.5951   31.7850   -3.1027 H   0  0  0  0  0  0
    2.4831   33.2803   -3.3346 H   0  0  0  0  0  0
    4.1495   31.1777   -0.6056 H   0  0  0  0  0  0
    3.3035   32.6929   -0.8956 H   0  0  0  0  0  0
    2.4445   31.1777   -1.0277 H   0  0  0  0  0  0
    4.6033   29.5777   -2.4609 H   0  0  0  0  0  0
    2.9733   29.5767   -3.1408 H   0  0  0  0  0  0
    4.3323   29.9622   -4.1422 H   0  0  0  0  0  0
    5.1024   32.2887   -6.2943 H   0  0  0  0  0  0
  1  5  1  0  0  0
  1 21  2  0  0  0
  1 13  1  0  0  0
  2 21  1  0  0  0
  2  3  2  0  0  0
  2 17  1  0  0  0
  3  4  1  0  0  0
  3 23  1  0  0  0
  4  5  2  0  0  0
  4  6  1  0  0  0
  5 24  1  0  0  0
  6  7  2  0  0  0
  6 25  1  0  0  0
  7  8  1  0  0  0
  7  9  1  0  0  0
  8 11  1  0  0  0
  8 12  2  0  0  0
  9 10  3  0  0  0
 11 26  1  0  0  0
 11 27  1  0  0  0
 13 14  1  0  0  0
 13 15  1  0  0  0
 13 16  1  0  0  0
 14 28  1  0  0  0
 14 29  1  0  0  0
 14 30  1  0  0  0
 15 31  1  0  0  0
 15 32  1  0  0  0
 15 33  1  0  0  0
 16 34  1  0  0  0
 16 35  1  0  0  0
 16 36  1  0  0  0
 17 18  1  0  0  0
 17 19  1  0  0  0
 17 20  1  0  0  0
 18 37  1  0  0  0
 18 38  1  0  0  0
 18 39  1  0  0  0
 19 40  1  0  0  0
 19 41  1  0  0  0
 19 42  1  0  0  0
 20 43  1  0  0  0
 20 44  1  0  0  0
 20 45  1  0  0  0
 21 22  1  0  0  0
 22 46  1  0  0  0
M  END
> <s_m_entry_id>
35924

> <s_m_entry_name>
dock_pv.80

> <s_m_Source_Path>
/home/csk/Desktop/cluster/DUD-E-result/cp2c9

> <s_m_Source_File>
dock_pv.maegz

> <i_m_Source_File_Index>
80

> <chembl_id>
CHEMBL539947

> <chembl_pref_name>
TYRPHOSTIN AG 879

> <i_lp_mmshare_version>
53161

> <i_f3d_flags>
0

> <r_lp_tautomer_probability>
1

> <s_lp_Force_Field>
OPLS_2005

> <r_lp_Energy>
34.110348

> <b_lp_Chiralities_Consistent>
1

> <s_lp_Variant>
CHEMBL3397_lig156-1

> <s_i_glide_gridfile>
glide-grid_1r9o

> <i_i_glide_lignum>
197

> <i_i_glide_rotatable_bonds>
5

> <r_i_docking_score>
-6.93607264730386

> <r_i_glide_ligand_efficiency>
-0.315276029422903

> <r_i_glide_ligand_efficiency_sa>
-0.883415833545614

> <r_i_glide_ligand_efficiency_ln>
-1.69542915439806

> <r_i_glide_gscore>
-6.93607264730386

> <r_i_glide_lipo>
-3.27211851440156

> <r_i_glide_hbond>
0

> <r_i_glide_metal>
0

> <r_i_glide_rewards>
-2.54888283119982

> <r_i_glide_evdw>
-28.7420120239258

> <r_i_glide_ecoul>
-0.331746697425842

> <r_i_glide_erotb>
0.371791304107676

> <r_i_glide_esite>
0

> <r_i_glide_emodel>
-30.1838959661613

> <r_i_glide_energy>
-29.0737587213516

> <r_i_glide_einternal>
6.08428525924683

> <i_i_glide_confnum>
1

> <i_i_glide_posenum>
36

> <r_i_glide_eff_state_penalty>
0

> <s_user_duplicate_titles>
CHEMBL3397_lig156

> <s_m_subgroup_title>
dock_pv

> <s_m_subgroupid>
dock_pv

> <b_m_subgroup_collapsed>
1

$$$$
CHEMBL3397_lig4
                    3D
 Schrodinger Suite 2021-1.
 45 47  0  0  1  0            999 V2000
    5.2545   29.8518   -3.8399 C   0  0  0  0  0  0
    4.4807   30.9923   -3.9379 C   0  0  0  0  0  0
    4.9501   32.2476   -3.5420 C   0  0  0  0  0  0
    6.5259   29.9141   -3.2973 C   0  0  0  0  0  0
    7.0454   31.1401   -2.8728 C   0  0  0  0  0  0
    6.2796   32.3433   -2.9863 C   0  0  0  0  0  0
    6.9288   33.5560   -2.5603 C   0  0  0  0  0  0
    8.1941   33.5190   -2.0315 N   0  3  0  0  0  0
    8.8943   32.3586   -1.8995 C   0  0  0  0  0  0
    8.3452   31.1756   -2.3533 C   0  0  0  0  0  0
    6.2244   34.9024   -2.7798 C   0  0  0  0  0  0
   10.3010   32.3217   -1.2963 C   0  0  0  0  0  0
    4.7010   28.7124   -4.3410 O   0  0  0  0  0  0
    5.4715   27.5399   -4.4725 C   0  0  0  0  0  0
    4.1710   33.3812   -3.6983 O   0  0  0  0  0  0
    2.8285   33.2901   -4.1702 C   0  0  0  0  0  0
    8.8962   34.7327   -1.7402 C   0  0  0  0  0  0
   10.2619   37.0583   -1.3110 C   0  0  0  0  0  0
    9.3695   36.6030   -0.3370 C   0  0  0  0  0  0
    8.6720   35.4223   -0.5498 C   0  0  0  0  0  0
   10.5045   36.3383   -2.4767 C   0  0  0  0  0  0
    9.7954   35.1750   -2.7026 C   0  0  0  0  0  0
   10.9434   38.3750   -1.1345 C   0  0  0  0  0  0
    3.5012   30.8749   -4.3732 H   0  0  0  0  0  0
    7.1356   29.0284   -3.1999 H   0  0  0  0  0  0
    8.9244   30.2702   -2.3419 H   0  0  0  0  0  0
    6.1207   35.1021   -3.8468 H   0  0  0  0  0  0
    5.2298   34.9002   -2.3410 H   0  0  0  0  0  0
    6.7246   35.7576   -2.3410 H   0  0  0  0  0  0
   10.6275   31.2994   -1.1100 H   0  0  0  0  0  0
   11.0296   32.7749   -1.9676 H   0  0  0  0  0  0
   10.3332   32.8460   -0.3411 H   0  0  0  0  0  0
    4.8292   26.7750   -4.8937 H   0  0  0  0  0  0
    6.3012   27.6825   -5.1410 H   0  0  0  0  0  0
    5.8756   27.1750   -3.5410 H   0  0  0  0  0  0
    2.3801   34.2836   -4.1673 H   0  0  0  0  0  0
    2.7875   32.9154   -5.1941 H   0  0  0  0  0  0
    2.2175   32.6539   -3.5278 H   0  0  0  0  0  0
    9.1911   37.1767    0.5614 H   0  0  0  0  0  0
    7.9468   35.0824    0.1744 H   0  0  0  0  0  0
   11.1717   36.7138   -3.2392 H   0  0  0  0  0  0
    9.9010   34.6357   -3.6245 H   0  0  0  0  0  0
   11.9010   38.3750   -1.6409 H   0  0  0  0  0  0
   11.1010   38.5456   -0.0719 H   0  0  0  0  0  0
   10.3309   39.1750   -1.5474 H   0  0  0  0  0  0
  1 13  1  0  0  0
  1  2  2  0  0  0
  1  4  1  0  0  0
  2  3  1  0  0  0
  2 24  1  0  0  0
  3  6  2  0  0  0
  3 15  1  0  0  0
  4  5  2  0  0  0
  4 25  1  0  0  0
  5  6  1  0  0  0
  5 10  1  0  0  0
  6  7  1  0  0  0
  7 11  1  0  0  0
  7  8  2  0  0  0
  8 17  1  0  0  0
  8  9  1  0  0  0
  9 12  1  0  0  0
  9 10  2  0  0  0
 10 26  1  0  0  0
 11 27  1  0  0  0
 11 28  1  0  0  0
 11 29  1  0  0  0
 12 30  1  0  0  0
 12 31  1  0  0  0
 12 32  1  0  0  0
 13 14  1  0  0  0
 14 33  1  0  0  0
 14 34  1  0  0  0
 14 35  1  0  0  0
 15 16  1  0  0  0
 16 36  1  0  0  0
 16 37  1  0  0  0
 16 38  1  0  0  0
 17 22  2  0  0  0
 17 20  1  0  0  0
 18 21  2  0  0  0
 18 19  1  0  0  0
 18 23  1  0  0  0
 19 20  2  0  0  0
 19 39  1  0  0  0
 20 40  1  0  0  0
 21 22  1  0  0  0
 21 41  1  0  0  0
 22 42  1  0  0  0
 23 43  1  0  0  0
 23 44  1  0  0  0
 23 45  1  0  0  0
M  CHG  1   8   1
M  END
> <s_m_entry_id>
35925

> <s_m_entry_name>
dock_pv.81

> <s_m_Source_Path>
/home/csk/Desktop/cluster/DUD-E-result/cp2c9

> <s_m_Source_File>
dock_pv.maegz

> <i_m_Source_File_Index>
81

> <chembl_id>
CHEMBL520612

> <chembl_pref_name>
None

> <i_lp_mmshare_version>
53161

> <i_f3d_flags>
0

> <r_lp_tautomer_probability>
1

> <s_lp_Force_Field>
OPLS_2005

> <r_lp_Energy>
44.984988

> <b_lp_Chiralities_Consistent>
1

> <s_lp_Variant>
CHEMBL3397_lig4-1

> <s_i_glide_gridfile>
glide-grid_1r9o

> <i_i_glide_lignum>
5

> <i_i_glide_rotatable_bonds>
3

> <r_i_docking_score>
-6.93553598185222

> <r_i_glide_ligand_efficiency>
-0.301545042689227

> <r_i_glide_ligand_efficiency_sa>
-0.857553988945538

> <r_i_glide_ligand_efficiency_ln>
-1.67707548837521

> <r_i_glide_gscore>
-6.93553598185222

> <r_i_glide_lipo>
-4.01241586499746

> <r_i_glide_hbond>
0

> <r_i_glide_metal>
0

> <r_i_glide_rewards>
-1.30538653008665

> <r_i_glide_evdw>
-30.7020359039307

> <r_i_glide_ecoul>
-1.84772670269012

> <r_i_glide_erotb>
0.194527213831942

> <r_i_glide_esite>
0

> <r_i_glide_emodel>
-37.7481223996218

> <r_i_glide_energy>
-32.5497626066208

> <r_i_glide_einternal>
2.2028272151947

> <i_i_glide_confnum>
1

> <i_i_glide_posenum>
379

> <r_i_glide_eff_state_penalty>
0

> <s_user_duplicate_titles>
CHEMBL3397_lig4

> <s_m_subgroup_title>
dock_pv

> <s_m_subgroupid>
dock_pv

> <b_m_subgroup_collapsed>
1

$$$$
CHEMBL3397_lig155
                    3D
 Schrodinger Suite 2021-1.
 50 54  0  0  1  0            999 V2000
    8.3158   30.5312   -2.9437 N   0  0  0  0  0  0
    6.9776   30.2716   -3.1558 C   0  0  0  0  0  0
    6.6499   29.0199   -3.5409 N   0  0  0  0  0  0
    5.3361   28.7781   -3.7507 C   0  0  0  0  0  0
    4.3006   29.6309   -3.5423 N   0  0  0  0  0  0
    4.6728   30.8593   -3.1532 C   0  0  0  0  0  0
    6.0168   31.2738   -2.9728 C   0  0  0  0  0  0
    3.8569   31.9379   -2.8424 N   0  0  0  0  0  0
    2.3867   31.9566   -2.8629 C   0  0  0  0  0  0
    1.7410   32.5301   -1.5798 C   0  0  0  0  0  0
    0.5963   33.4229   -2.0724 C   0  0  0  0  0  0
    1.1004   33.9693   -3.4075 C   0  0  0  0  0  0
    1.8302   32.7832   -4.0423 C   0  0  0  0  0  0
    4.6782   33.0179   -2.5685 C   0  0  0  0  0  0
    6.0152   32.6689   -2.6508 C   0  0  0  0  0  0
    7.2213   33.5160   -2.4801 C   0  0  0  0  0  0
    7.6649   33.8835   -1.2135 C   0  0  0  0  0  0
    8.8335   34.6254   -1.0680 C   0  0  0  0  0  0
    9.5610   35.0152   -2.1865 C   0  0  0  0  0  0
    9.1037   34.6619   -3.4554 C   0  0  0  0  0  0
    7.9366   33.9180   -3.6059 C   0  0  0  0  0  0
   10.7420   35.6849   -1.9730 O   0  0  0  0  0  0
   11.0876   36.7941   -2.7076 C   0  0  0  0  0  0
   11.0995   38.0225   -2.0566 C   0  0  0  0  0  0
   11.4977   39.1643   -2.7404 C   0  0  0  0  0  0
   11.9074   39.0793   -4.0686 C   0  0  0  0  0  0
   11.9045   37.8550   -4.7253 C   0  0  0  0  0  0
   11.5073   36.7125   -4.0400 C   0  0  0  0  0  0
    8.5956   31.4559   -2.6500 H   0  0  0  0  0  0
    8.9792   29.7837   -3.0775 H   0  0  0  0  0  0
    5.0856   27.7760   -4.0692 H   0  0  0  0  0  0
    2.0896   30.9157   -3.0043 H   0  0  0  0  0  0
    1.3759   31.7462   -0.9142 H   0  0  0  0  0  0
    2.4390   33.1434   -1.0085 H   0  0  0  0  0  0
   -0.3072   32.8264   -2.2264 H   0  0  0  0  0  0
    0.3504   34.2173   -1.3667 H   0  0  0  0  0  0
    0.2895   34.3409   -4.0352 H   0  0  0  0  0  0
    1.7946   34.7942   -3.2388 H   0  0  0  0  0  0
    2.5900   33.0948   -4.7634 H   0  0  0  0  0  0
    1.1080   32.1788   -4.5960 H   0  0  0  0  0  0
    4.2334   33.9754   -2.3474 H   0  0  0  0  0  0
    7.1089   33.5749   -0.3414 H   0  0  0  0  0  0
    9.1845   34.8927   -0.0823 H   0  0  0  0  0  0
    9.5987   35.0088   -4.3401 H   0  0  0  0  0  0
    7.5897   33.6532   -4.5949 H   0  0  0  0  0  0
   10.7944   38.0959   -1.0222 H   0  0  0  0  0  0
   11.5013   40.1049   -2.2123 H   0  0  0  0  0  0
   12.2267   39.9674   -4.5977 H   0  0  0  0  0  0
   12.2245   37.7922   -5.7546 H   0  0  0  0  0  0
   11.5543   35.7662   -4.5494 H   0  0  0  0  0  0
  1  2  1  0  0  0
  1 29  1  0  0  0
  1 30  1  0  0  0
  2  3  2  0  0  0
  2  7  1  0  0  0
  3  4  1  0  0  0
  4  5  2  0  0  0
  4 31  1  0  0  0
  5  6  1  0  0  0
  6  8  1  0  0  0
  6  7  2  0  0  0
  7 15  1  0  0  0
  8  9  1  0  0  0
  8 14  1  0  0  0
  9 10  1  0  0  0
  9 13  1  0  0  0
  9 32  1  0  0  0
 10 11  1  0  0  0
 10 33  1  0  0  0
 10 34  1  0  0  0
 11 12  1  0  0  0
 11 35  1  0  0  0
 11 36  1  0  0  0
 12 13  1  0  0  0
 12 37  1  0  0  0
 12 38  1  0  0  0
 13 39  1  0  0  0
 13 40  1  0  0  0
 14 15  2  0  0  0
 14 41  1  0  0  0
 15 16  1  0  0  0
 16 17  2  0  0  0
 16 21  1  0  0  0
 17 18  1  0  0  0
 17 42  1  0  0  0
 18 19  2  0  0  0
 18 43  1  0  0  0
 19 20  1  0  0  0
 19 22  1  0  0  0
 20 21  2  0  0  0
 20 44  1  0  0  0
 21 45  1  0  0  0
 22 23  1  0  0  0
 23 24  2  0  0  0
 23 28  1  0  0  0
 24 25  1  0  0  0
 24 46  1  0  0  0
 25 26  2  0  0  0
 25 47  1  0  0  0
 26 27  1  0  0  0
 26 48  1  0  0  0
 27 28  2  0  0  0
 27 49  1  0  0  0
 28 50  1  0  0  0
M  END
> <s_m_entry_id>
35926

> <s_m_entry_name>
dock_pv.82

> <s_m_Source_Path>
/home/csk/Desktop/cluster/DUD-E-result/cp2c9

> <s_m_Source_File>
dock_pv.maegz

> <i_m_Source_File_Index>
82

> <chembl_id>
CHEMBL47940

> <chembl_pref_name>
None

> <i_lp_mmshare_version>
53161

> <i_f3d_flags>
0

> <r_lp_tautomer_probability>
1

> <s_lp_Force_Field>
OPLS_2005

> <r_lp_Energy>
42.003269

> <b_lp_Chiralities_Consistent>
1

> <s_lp_Variant>
CHEMBL3397_lig155-1

> <s_i_glide_gridfile>
glide-grid_1r9o

> <i_i_glide_lignum>
196

> <i_i_glide_rotatable_bonds>
4

> <r_i_docking_score>
-6.93309440891925

> <r_i_glide_ligand_efficiency>
-0.247610514604259

> <r_i_glide_ligand_efficiency_sa>
-0.751891357132598

> <r_i_glide_ligand_efficiency_ln>
-1.60036175407584

> <r_i_glide_gscore>
-6.93309440891925

> <r_i_glide_lipo>
-4.01817692911243

> <r_i_glide_hbond>
-0.16

> <r_i_glide_metal>
0

> <r_i_glide_rewards>
-1.08511944741975

> <r_i_glide_evdw>
-38.7572822570801

> <r_i_glide_ecoul>
-1.96174287796021

> <r_i_glide_erotb>
0.562327512160967

> <r_i_glide_esite>
0

> <r_i_glide_emodel>
-54.4910662263631

> <r_i_glide_energy>
-40.7190251350403

> <r_i_glide_einternal>
5.72644948959351

> <i_i_glide_confnum>
146

> <i_i_glide_posenum>
291

> <r_i_glide_eff_state_penalty>
0

> <s_user_duplicate_titles>
CHEMBL3397_lig155

> <s_m_subgroup_title>
dock_pv

> <s_m_subgroupid>
dock_pv

> <b_m_subgroup_collapsed>
1

$$$$
CHEMBL3397_lig20
                    3D
 Schrodinger Suite 2021-1.
 53 58  0  0  1  0            999 V2000
   11.9623   37.8978   -4.2755 C   0  0  0  0  0  0
   11.9012   39.0238   -3.5341 N   0  0  0  0  0  0
   11.2626   38.9502   -2.3427 C   0  0  0  0  0  0
   10.7010   37.7780   -1.8454 C   0  0  0  0  0  0
   10.7010   36.6196   -2.6404 C   0  0  0  0  0  0
   11.4030   36.6907   -3.8616 C   0  0  0  0  0  0
    9.7830   35.4658   -2.3166 C   0  0  0  0  0  0
    9.3623   34.6188   -3.3515 C   0  0  0  0  0  0
    8.1790   34.3752   -0.8242 C   0  0  0  0  0  0
    9.1879   35.3125   -1.0560 C   0  0  0  0  0  0
    6.9250   32.4552   -1.8516 N   0  0  0  0  0  0
    7.8232   33.4859   -1.8474 C   0  0  0  0  0  0
    8.4107   33.6286   -3.1091 C   0  0  0  0  0  0
    7.7859   32.6744   -3.9011 N   0  0  0  0  0  0
    6.9226   31.9778   -3.0758 C   0  0  0  0  0  0
    6.0548   30.7910   -3.5560 C   0  0  1  0  0  0
    4.7009   30.7171   -1.5631 O   0  0  0  0  0  0
    5.4918   29.8966   -2.4393 C   0  0  0  0  0  0
    3.7511   31.4649   -2.2403 C   0  0  0  0  0  0
    3.8769   31.7324   -3.6095 C   0  0  0  0  0  0
    2.9020   32.4799   -4.2723 C   0  0  0  0  0  0
    1.8201   32.9939   -3.5534 C   0  0  0  0  0  0
    1.7040   32.7430   -2.1834 C   0  0  0  0  0  0
    2.6686   31.9750   -1.5276 C   0  0  0  0  0  0
    7.9010   32.5276   -5.3479 C   0  0  0  0  0  0
    7.1981   33.6661   -6.0774 C   0  0  0  0  0  0
    5.8054   33.7351   -6.0350 C   0  0  0  0  0  0
    5.1133   34.6964   -6.7457 C   0  0  0  0  0  0
    5.8329   35.5750   -7.5410 C   0  0  0  0  0  0
    7.2115   35.5750   -7.5410 C   0  0  0  0  0  0
    7.9010   34.6364   -6.7921 C   0  0  0  0  0  0
    4.9204   31.1931   -4.3410 O   0  0  0  0  0  0
   12.4521   37.9860   -5.2335 H   0  0  0  0  0  0
   11.1860   39.8738   -1.7882 H   0  0  0  0  0  0
   10.1625   37.8375   -0.9124 H   0  0  0  0  0  0
   11.4593   35.8610   -4.5443 H   0  0  0  0  0  0
    9.6960   34.7825   -4.3410 H   0  0  0  0  0  0
    7.6634   34.3579    0.1206 H   0  0  0  0  0  0
    9.4492   35.9689   -0.2405 H   0  0  0  0  0  0
    6.6687   30.1554   -4.1934 H   0  0  0  0  0  0
    4.8683   29.1143   -2.8756 H   0  0  0  0  0  0
    6.3212   29.4068   -1.9410 H   0  0  0  0  0  0
    2.9774   32.6548   -5.3349 H   0  0  0  0  0  0
    1.0651   33.5783   -4.0592 H   0  0  0  0  0  0
    0.8630   33.1367   -1.6307 H   0  0  0  0  0  0
    2.5738   31.7594   -0.4751 H   0  0  0  0  0  0
    8.9454   32.3751   -5.6217 H   0  0  0  0  0  0
    7.4249   31.6004   -5.6634 H   0  0  0  0  0  0
    5.2386   33.0391   -5.4677 H   0  0  0  0  0  0
    4.0341   34.7303   -6.7249 H   0  0  0  0  0  0
    5.3232   36.3051   -8.1489 H   0  0  0  0  0  0
    7.7473   36.2726   -8.1683 H   0  0  0  0  0  0
    8.9704   34.6651   -6.8787 H   0  0  0  0  0  0
  1  6  1  0  0  0
  1  2  2  0  0  0
  1 33  1  0  0  0
  2  3  1  0  0  0
  3  4  2  0  0  0
  3 34  1  0  0  0
  4  5  1  0  0  0
  4 35  1  0  0  0
  5  6  2  0  0  0
  5  7  1  0  0  0
  6 36  1  0  0  0
  7  8  2  0  0  0
  7 10  1  0  0  0
  8 13  1  0  0  0
  8 37  1  0  0  0
  9 12  1  0  0  0
  9 10  2  0  0  0
  9 38  1  0  0  0
 10 39  1  0  0  0
 11 12  1  0  0  0
 11 15  2  0  0  0
 12 13  2  0  0  0
 13 14  1  0  0  0
 14 25  1  0  0  0
 14 15  1  0  0  0
 15 16  1  0  0  0
 16 32  1  0  0  0
 16 18  1  0  0  0
 16 40  1  0  0  0
 17 19  1  0  0  0
 17 18  1  0  0  0
 18 41  1  0  0  0
 18 42  1  0  0  0
 19 20  2  0  0  0
 19 24  1  0  0  0
 20 32  1  0  0  0
 20 21  1  0  0  0
 21 22  2  0  0  0
 21 43  1  0  0  0
 22 23  1  0  0  0
 22 44  1  0  0  0
 23 24  2  0  0  0
 23 45  1  0  0  0
 24 46  1  0  0  0
 25 26  1  0  0  0
 25 47  1  0  0  0
 25 48  1  0  0  0
 26 27  2  0  0  0
 26 31  1  0  0  0
 27 28  1  0  0  0
 27 49  1  0  0  0
 28 29  2  0  0  0
 28 50  1  0  0  0
 29 30  1  0  0  0
 29 51  1  0  0  0
 30 31  2  0  0  0
 30 52  1  0  0  0
 31 53  1  0  0  0
M  END
> <s_m_entry_id>
35927

> <s_m_entry_name>
dock_pv.83

> <s_m_Source_Path>
/home/csk/Desktop/cluster/DUD-E-result/cp2c9

> <s_m_Source_File>
dock_pv.maegz

> <i_m_Source_File_Index>
83

> <chembl_id>
CHEMBL1079338

> <chembl_pref_name>
None

> <i_lp_mmshare_version>
53161

> <i_f3d_flags>
0

> <r_lp_tautomer_probability>
1

> <s_lp_Force_Field>
OPLS_2005

> <r_lp_Energy>
25.709405

> <b_lp_Chiralities_Consistent>
1

> <s_lp_Variant>
CHEMBL3397_lig20-1

> <s_i_glide_gridfile>
glide-grid_1r9o

> <i_i_glide_lignum>
33

> <i_i_glide_rotatable_bonds>
4

> <r_i_docking_score>
-6.92971113282923

> <r_i_glide_ligand_efficiency>
-0.216553472900913

> <r_i_glide_ligand_efficiency_sa>
-0.687514420586306

> <r_i_glide_ligand_efficiency_ln>
-1.55175121943166

> <r_i_glide_gscore>
-6.92971113282923

> <r_i_glide_lipo>
-4.66434317448163

> <r_i_glide_hbond>
0

> <r_i_glide_metal>
0

> <r_i_glide_rewards>
-1.16023246435407

> <r_i_glide_evdw>
-25.6130409240723

> <r_i_glide_ecoul>
-1.82811963558197

> <r_i_glide_erotb>
0.449734497547383

> <r_i_glide_esite>
0

> <r_i_glide_emodel>
-28.7424410328467

> <r_i_glide_energy>
-27.4411605596542

> <r_i_glide_einternal>
1.47027814388275

> <i_i_glide_confnum>
55

> <i_i_glide_posenum>
91

> <r_i_glide_eff_state_penalty>
0

> <s_user_duplicate_titles>
CHEMBL3397_lig20

> <s_m_subgroup_title>
dock_pv

> <s_m_subgroupid>
dock_pv

> <b_m_subgroup_collapsed>
1

$$$$
CHEMBL3397_lig55
                    3D
 Schrodinger Suite 2021-1.
 39 40  0  0  1  0            999 V2000
    5.5010   32.7750   -7.8009 Br  0  0  0  0  0  0
    8.3161   36.5865    1.2590 Br  0  0  0  0  0  0
    3.5010   35.9750   -3.5410 Br  0  0  0  0  0  0
   11.5599   37.0114   -3.4482 Br  0  0  0  0  0  0
    3.7184   34.8087   -6.3410 O   0  0  0  0  0  0
   10.6587   37.5750   -0.5266 O   0  0  0  0  0  0
    7.6749   29.3757   -3.1410 O   0  0  0  0  0  0
    5.4687   29.1750   -3.6816 O   0  0  0  0  0  0
    7.9154   33.0647   -2.8870 C   0  0  0  0  0  0
    6.8669   33.5636   -3.9054 C   0  0  0  0  0  0
    8.6231   34.2947   -2.2170 C   0  0  0  0  0  0
    7.1744   32.1021   -1.8751 C   0  0  0  0  0  0
    6.7705   33.0971   -5.2324 C   0  0  0  0  0  0
    8.3010   34.7750   -0.9377 C   0  0  0  0  0  0
    5.8807   34.4331   -3.4360 C   0  0  0  0  0  0
    9.6113   35.0059   -2.9178 C   0  0  0  0  0  0
    5.7024   33.4904   -6.0467 C   0  0  0  0  0  0
    8.9401   35.8915   -0.3936 C   0  0  0  0  0  0
    4.8310   34.8302   -4.2466 C   0  0  0  0  0  0
   10.3010   36.0803   -2.3640 C   0  0  0  0  0  0
    4.7460   34.3756   -5.5544 C   0  0  0  0  0  0
    9.9773   36.5216   -1.0832 C   0  0  0  0  0  0
    9.0255   32.2211   -3.5473 C   0  0  0  0  0  0
    6.0865   31.1091   -2.4182 C   0  0  0  0  0  0
    6.5307   29.8172   -3.1262 C   0  0  0  0  0  0
    3.9010   35.6645   -6.7410 H   0  0  0  0  0  0
   10.1151   38.3466   -0.3410 H   0  0  0  0  0  0
    5.7625   28.3398   -4.0523 H   0  0  0  0  0  0
    7.8985   31.5688   -1.2564 H   0  0  0  0  0  0
    6.6073   32.7048   -1.1702 H   0  0  0  0  0  0
    7.4821   32.3926   -5.6349 H   0  0  0  0  0  0
    7.5202   34.3299   -0.3471 H   0  0  0  0  0  0
    5.9095   34.7750   -2.4163 H   0  0  0  0  0  0
    9.8315   34.7750   -3.9410 H   0  0  0  0  0  0
    9.5318   32.7548   -4.3410 H   0  0  0  0  0  0
    9.7741   31.9084   -2.8164 H   0  0  0  0  0  0
    8.6443   31.3360   -4.0383 H   0  0  0  0  0  0
    5.4996   30.7750   -1.5629 H   0  0  0  0  0  0
    5.3661   31.6249   -3.0523 H   0  0  0  0  0  0
  1 17  1  0  0  0
  2 18  1  0  0  0
  3 19  1  0  0  0
  4 20  1  0  0  0
  5 21  1  0  0  0
  5 26  1  0  0  0
  6 22  1  0  0  0
  6 27  1  0  0  0
  7 25  2  0  0  0
  8 25  1  0  0  0
  8 28  1  0  0  0
  9 10  1  0  0  0
  9 11  1  0  0  0
  9 12  1  0  0  0
  9 23  1  0  0  0
 10 13  2  0  0  0
 10 15  1  0  0  0
 11 14  2  0  0  0
 11 16  1  0  0  0
 12 24  1  0  0  0
 12 29  1  0  0  0
 12 30  1  0  0  0
 13 17  1  0  0  0
 13 31  1  0  0  0
 14 18  1  0  0  0
 14 32  1  0  0  0
 15 19  2  0  0  0
 15 33  1  0  0  0
 16 20  2  0  0  0
 16 34  1  0  0  0
 17 21  2  0  0  0
 18 22  2  0  0  0
 19 21  1  0  0  0
 20 22  1  0  0  0
 23 35  1  0  0  0
 23 36  1  0  0  0
 23 37  1  0  0  0
 24 25  1  0  0  0
 24 38  1  0  0  0
 24 39  1  0  0  0
M  END
> <s_m_entry_id>
35928

> <s_m_entry_name>
dock_pv.84

> <s_m_Source_Path>
/home/csk/Desktop/cluster/DUD-E-result/cp2c9

> <s_m_Source_File>
dock_pv.maegz

> <i_m_Source_File_Index>
84

> <chembl_id>
CHEMBL1611308

> <chembl_pref_name>
None

> <i_lp_mmshare_version>
53161

> <i_f3d_flags>
0

> <r_lp_tautomer_probability>
0.99999999999473

> <s_lp_Force_Field>
OPLS_2005

> <r_lp_Energy>
20.779303

> <b_lp_Chiralities_Consistent>
1

> <s_lp_Variant>
CHEMBL3397_lig55-1

> <s_i_glide_gridfile>
glide-grid_1r9o

> <i_i_glide_lignum>
86

> <i_i_glide_rotatable_bonds>
8

> <r_i_docking_score>
-6.91809009007846

> <r_i_glide_ligand_efficiency>
-0.276723603603139

> <r_i_glide_ligand_efficiency_sa>
-0.809144724649584

> <r_i_glide_ligand_efficiency_ln>
-1.63979466977902

> <r_i_glide_gscore>
-6.91809009007846

> <r_i_glide_lipo>
-3.86394869950086

> <r_i_glide_hbond>
-0.334719996334081

> <r_i_glide_metal>
0

> <r_i_glide_rewards>
-0.357274795219576

> <r_i_glide_evdw>
-40.277889251709

> <r_i_glide_ecoul>
-3.46675038337708

> <r_i_glide_erotb>
0.17176042106806

> <r_i_glide_esite>
0

> <r_i_glide_emodel>
-56.3234590537133

> <r_i_glide_energy>
-43.7446396350861

> <r_i_glide_einternal>
4.86222743988037

> <i_i_glide_confnum>
48

> <i_i_glide_posenum>
195

> <r_i_glide_eff_state_penalty>
0

> <s_user_duplicate_titles>
CHEMBL3397_lig55

> <s_m_subgroup_title>
dock_pv

> <s_m_subgroupid>
dock_pv

> <b_m_subgroup_collapsed>
1

$$$$
CHEMBL3397_lig29
                    3D
 Schrodinger Suite 2021-1.
 46 49  0  0  1  0            999 V2000
    3.9327   30.0403   -3.4664 C   0  0  0  0  0  0
    4.9620   29.1244   -3.6726 C   0  0  0  0  0  0
    6.2640   29.4562   -3.5410 N   0  0  0  0  0  0
    6.5289   30.7395   -3.2101 C   0  0  0  0  0  0
    5.5994   31.7196   -3.0177 N   0  0  0  0  0  0
    4.2944   31.3505   -3.1487 C   0  0  0  0  0  0
    7.8847   30.9823   -3.0077 N   0  0  0  0  0  0
    8.5512   32.1049   -2.5227 C   0  0  0  0  0  0
    9.5770   31.8876   -1.6123 C   0  0  0  0  0  0
   10.2996   32.9576   -1.1181 C   0  0  0  0  0  0
    9.9899   34.2592   -1.5060 C   0  0  0  0  0  0
    8.9629   34.4748   -2.4298 C   0  0  0  0  0  0
    8.2433   33.3992   -2.9426 C   0  0  0  0  0  0
    3.2537   32.4071   -2.9948 C   0  0  0  0  0  0
    1.7592   32.0604   -2.1480 S   0  0  0  0  0  0
    1.2417   33.6722   -2.4781 C   0  0  0  0  0  0
    2.0997   34.3959   -3.1413 N   0  0  0  0  0  0
    3.2117   33.7403   -3.4246 C   0  0  0  0  0  0
    4.2599   34.5272   -4.1834 C   0  0  0  0  0  0
    0.0249   34.1141   -2.0493 N   0  0  0  0  0  0
   10.6967   35.2953   -0.9176 N   0  0  0  0  0  0
   10.8791   36.6273   -1.5053 C   0  0  0  0  0  0
    9.7906   37.5749   -1.0039 C   0  0  0  0  0  0
    9.7110   37.5752    0.4204 O   0  0  0  0  0  0
    9.5134   36.2836    0.9760 C   0  0  0  0  0  0
   10.7012   35.4208    0.5445 C   0  0  0  0  0  0
    2.8987   29.7478   -3.5411 H   0  0  0  0  0  0
    4.7666   28.0945   -3.9356 H   0  0  0  0  0  0
    8.4497   30.1519   -3.0958 H   0  0  0  0  0  0
    9.8188   30.8931   -1.2697 H   0  0  0  0  0  0
   11.0954   32.7761   -0.4140 H   0  0  0  0  0  0
    8.7078   35.4730   -2.7417 H   0  0  0  0  0  0
    7.4545   33.5717   -3.6588 H   0  0  0  0  0  0
    4.7769   35.2324   -3.5305 H   0  0  0  0  0  0
    5.0221   33.8828   -4.6231 H   0  0  0  0  0  0
    3.8333   35.1040   -5.0048 H   0  0  0  0  0  0
   -0.2814   35.0563   -2.2429 H   0  0  0  0  0  0
   -0.5544   33.5673   -1.4279 H   0  0  0  0  0  0
   11.8546   37.0200   -1.2172 H   0  0  0  0  0  0
   10.8842   36.5703   -2.5939 H   0  0  0  0  0  0
    8.8184   37.3012   -1.4126 H   0  0  0  0  0  0
    9.9972   38.5864   -1.3525 H   0  0  0  0  0  0
    8.5560   35.8576    0.6673 H   0  0  0  0  0  0
    9.5017   36.3543    2.0584 H   0  0  0  0  0  0
   10.6983   34.4528    1.0468 H   0  0  0  0  0  0
   11.6220   35.9125    0.8570 H   0  0  0  0  0  0
  1  2  2  0  0  0
  1  6  1  0  0  0
  1 27  1  0  0  0
  2  3  1  0  0  0
  2 28  1  0  0  0
  3  4  2  0  0  0
  4  7  1  0  0  0
  4  5  1  0  0  0
  5  6  2  0  0  0
  6 14  1  0  0  0
  7  8  1  0  0  0
  7 29  1  0  0  0
  8 13  1  0  0  0
  8  9  2  0  0  0
  9 10  1  0  0  0
  9 30  1  0  0  0
 10 11  2  0  0  0
 10 31  1  0  0  0
 11 21  1  0  0  0
 11 12  1  0  0  0
 12 13  2  0  0  0
 12 32  1  0  0  0
 13 33  1  0  0  0
 14 15  1  0  0  0
 14 18  2  0  0  0
 15 16  1  0  0  0
 16 17  2  0  0  0
 16 20  1  0  0  0
 17 18  1  0  0  0
 18 19  1  0  0  0
 19 34  1  0  0  0
 19 35  1  0  0  0
 19 36  1  0  0  0
 20 37  1  0  0  0
 20 38  1  0  0  0
 21 22  1  0  0  0
 21 26  1  0  0  0
 22 23  1  0  0  0
 22 39  1  0  0  0
 22 40  1  0  0  0
 23 24  1  0  0  0
 23 41  1  0  0  0
 23 42  1  0  0  0
 24 25  1  0  0  0
 25 26  1  0  0  0
 25 43  1  0  0  0
 25 44  1  0  0  0
 26 45  1  0  0  0
 26 46  1  0  0  0
M  END
> <s_m_entry_id>
35929

> <s_m_entry_name>
dock_pv.85

> <s_m_Source_Path>
/home/csk/Desktop/cluster/DUD-E-result/cp2c9

> <s_m_Source_File>
dock_pv.maegz

> <i_m_Source_File_Index>
85

> <chembl_id>
CHEMBL482967

> <chembl_pref_name>
CYC-116

> <i_lp_mmshare_version>
53161

> <i_f3d_flags>
0

> <r_lp_tautomer_probability>
0.999999987636

> <s_lp_Force_Field>
OPLS_2005

> <r_lp_Energy>
20.731247

> <b_lp_Chiralities_Consistent>
1

> <s_lp_Variant>
CHEMBL3397_lig29-1

> <s_i_glide_gridfile>
glide-grid_1r9o

> <i_i_glide_lignum>
50

> <i_i_glide_rotatable_bonds>
4

> <r_i_docking_score>
-6.91179677490479

> <r_i_glide_ligand_efficiency>
-0.265838337496338

> <r_i_glide_ligand_efficiency_sa>
-0.787545028809554

> <r_i_glide_ligand_efficiency_ln>
-1.62321279313135

> <r_i_glide_gscore>
-6.91179677490479

> <r_i_glide_lipo>
-4.20422895977226

> <r_i_glide_hbond>
0

> <r_i_glide_metal>
0

> <r_i_glide_rewards>
-0.940533995124613

> <r_i_glide_evdw>
-43.2484397888184

> <r_i_glide_ecoul>
-0.621885895729065

> <r_i_glide_erotb>
0.567766195258309

> <r_i_glide_esite>
-0.0790951414659459

> <r_i_glide_emodel>
-53.8535161168166

> <r_i_glide_energy>
-43.8703256845474

> <r_i_glide_einternal>
6.4760890007019

> <i_i_glide_confnum>
29

> <i_i_glide_posenum>
293

> <r_i_glide_eff_state_penalty>
0

> <s_user_duplicate_titles>
CHEMBL3397_lig29

> <s_m_subgroup_title>
dock_pv

> <s_m_subgroupid>
dock_pv

> <b_m_subgroup_collapsed>
1

$$$$
CHEMBL3397_lig51
                    3D
 Schrodinger Suite 2021-1.
 55 57  0  0  1  0            999 V2000
    4.3304   30.9683   -3.7420 O   0  0  0  0  0  0
    7.4489   30.8863   -3.1672 O   0  0  0  0  0  0
    0.0347   34.4950   -3.5377 O   0  0  0  0  0  0
    7.3053   27.9030   -3.5411 O   0  0  0  0  0  0
    3.1749   32.9028   -4.6079 C   0  0  0  0  0  0
    3.2647   31.8409   -3.6854 C   0  0  0  0  0  0
    5.0419   30.6811   -2.5334 C   0  0  1  0  0  0
    4.2857   33.1566   -5.6713 C   0  0  0  0  0  0
    6.3937   29.9644   -2.8140 C   0  0  1  0  0  0
    7.8007   31.7212   -2.0518 C   0  0  1  0  0  0
    2.0341   33.7158   -4.5471 C   0  0  0  0  0  0
    2.2798   31.6763   -2.7053 C   0  0  0  0  0  0
    1.0749   33.5885   -3.5395 C   0  0  0  0  0  0
    5.3223   31.9511   -1.7395 C   0  0  0  0  0  0
    8.8460   32.7930   -2.2963 C   0  0  0  0  0  0
    6.5602   32.4179   -1.5412 C   0  0  0  0  0  0
    1.2119   32.5556   -2.6085 C   0  0  0  0  0  0
    6.2379   28.7961   -3.7590 C   0  0  0  0  0  0
    5.7129   33.0899   -5.0731 C   0  0  0  0  0  0
    4.2279   34.5602   -6.3282 C   0  0  0  0  0  0
    4.1369   32.0730   -6.7507 C   0  0  0  0  0  0
    8.8061   33.5933   -3.4342 C   0  0  0  0  0  0
    9.6617   33.1464   -1.2187 C   0  0  0  0  0  0
    9.5007   34.7998   -3.4493 C   0  0  0  0  0  0
   10.2996   34.3759   -1.2120 C   0  0  0  0  0  0
   10.2230   35.2027   -2.3285 C   0  0  0  0  0  0
   -0.8704   34.5180   -2.4363 C   0  0  0  0  0  0
    7.0406   27.2926   -2.8425 H   0  0  0  0  0  0
    4.4128   30.0091   -1.9522 H   0  0  0  0  0  0
    6.7223   29.4558   -1.9409 H   0  0  0  0  0  0
    8.1960   31.0861   -1.2592 H   0  0  0  0  0  0
    1.8767   34.4670   -5.2979 H   0  0  0  0  0  0
    2.3547   30.8737   -1.9942 H   0  0  0  0  0  0
    4.5025   32.5048   -1.3082 H   0  0  0  0  0  0
    6.7001   33.2913   -0.9244 H   0  0  0  0  0  0
    0.4917   32.4057   -1.8190 H   0  0  0  0  0  0
    5.2943   28.2676   -3.6124 H   0  0  0  0  0  0
    6.2450   29.1970   -4.7409 H   0  0  0  0  0  0
    6.0357   32.0759   -4.8577 H   0  0  0  0  0  0
    6.4675   33.4580   -5.7689 H   0  0  0  0  0  0
    5.7927   33.6814   -4.1604 H   0  0  0  0  0  0
    3.5004   34.5848   -7.1148 H   0  0  0  0  0  0
    4.0111   35.3553   -5.6136 H   0  0  0  0  0  0
    5.1510   34.8323   -6.8386 H   0  0  0  0  0  0
    3.1307   31.9745   -7.1387 H   0  0  0  0  0  0
    4.8203   32.1999   -7.5903 H   0  0  0  0  0  0
    4.2998   31.1141   -6.2898 H   0  0  0  0  0  0
    8.1998   33.3100   -4.2776 H   0  0  0  0  0  0
    9.7138   32.5153   -0.3433 H   0  0  0  0  0  0
    9.4898   35.4351   -4.3237 H   0  0  0  0  0  0
   10.8588   34.6793   -0.3373 H   0  0  0  0  0  0
   10.7246   36.1598   -2.3349 H   0  0  0  0  0  0
   -1.5985   35.3145   -2.5895 H   0  0  0  0  0  0
   -0.3513   34.7210   -1.4978 H   0  0  0  0  0  0
   -1.4243   33.5829   -2.3415 H   0  0  0  0  0  0
  1  6  1  0  0  0
  1  7  1  0  0  0
  2  9  1  0  0  0
  2 10  1  0  0  0
  3 13  1  0  0  0
  3 27  1  0  0  0
  4 18  1  0  0  0
  4 28  1  0  0  0
  5  6  1  0  0  0
  5  8  1  0  0  0
  5 11  2  0  0  0
  6 12  2  0  0  0
  7  9  1  0  0  0
  7 14  1  0  0  0
  7 29  1  0  0  0
  8 19  1  0  0  0
  8 20  1  0  0  0
  8 21  1  0  0  0
  9 18  1  0  0  0
  9 30  1  0  0  0
 10 15  1  0  0  0
 10 16  1  0  0  0
 10 31  1  0  0  0
 11 13  1  0  0  0
 11 32  1  0  0  0
 12 17  1  0  0  0
 12 33  1  0  0  0
 13 17  2  0  0  0
 14 16  2  0  0  0
 14 34  1  0  0  0
 15 22  2  0  0  0
 15 23  1  0  0  0
 16 35  1  0  0  0
 17 36  1  0  0  0
 18 37  1  0  0  0
 18 38  1  0  0  0
 19 39  1  0  0  0
 19 40  1  0  0  0
 19 41  1  0  0  0
 20 42  1  0  0  0
 20 43  1  0  0  0
 20 44  1  0  0  0
 21 45  1  0  0  0
 21 46  1  0  0  0
 21 47  1  0  0  0
 22 24  1  0  0  0
 22 48  1  0  0  0
 23 25  2  0  0  0
 23 49  1  0  0  0
 24 26  2  0  0  0
 24 50  1  0  0  0
 25 26  1  0  0  0
 25 51  1  0  0  0
 26 52  1  0  0  0
 27 53  1  0  0  0
 27 54  1  0  0  0
 27 55  1  0  0  0
M  END
> <s_m_entry_id>
35930

> <s_m_entry_name>
dock_pv.86

> <s_m_Source_Path>
/home/csk/Desktop/cluster/DUD-E-result/cp2c9

> <s_m_Source_File>
dock_pv.maegz

> <i_m_Source_File_Index>
86

> <chembl_id>
CHEMBL1515452

> <chembl_pref_name>
None

> <i_lp_mmshare_version>
53161

> <i_f3d_flags>
0

> <r_lp_tautomer_probability>
1

> <s_lp_Force_Field>
OPLS_2005

> <r_lp_Energy>
30.277556

> <b_lp_Chiralities_Consistent>
1

> <s_lp_Variant>
CHEMBL3397_lig51-8

> <s_i_glide_gridfile>
glide-grid_1r9o

> <i_i_glide_lignum>
82

> <i_i_glide_rotatable_bonds>
7

> <r_i_docking_score>
-6.91098029333323

> <r_i_glide_ligand_efficiency>
-0.255962233086416

> <r_i_glide_ligand_efficiency_sa>
-0.767886698415638

> <r_i_glide_ligand_efficiency_ln>
-1.60876227587322

> <r_i_glide_gscore>
-6.91098029333323

> <r_i_glide_lipo>
-4.71820539387096

> <r_i_glide_hbond>
0

> <r_i_glide_metal>
0

> <r_i_glide_rewards>
-1.16512341712631

> <r_i_glide_evdw>
-26.5075416564941

> <r_i_glide_ecoul>
-1.80010509490967

> <r_i_glide_erotb>
0.567741364725203

> <r_i_glide_esite>
0

> <r_i_glide_emodel>
-31.2961811222058

> <r_i_glide_energy>
-28.3076467514038

> <r_i_glide_einternal>
12.5699605941772

> <i_i_glide_confnum>
4

> <i_i_glide_posenum>
351

> <r_i_glide_eff_state_penalty>
0

> <s_user_duplicate_titles>
CHEMBL3397_lig51

> <s_m_subgroup_title>
dock_pv

> <s_m_subgroupid>
dock_pv

> <b_m_subgroup_collapsed>
1

$$$$
CHEMBL3397_lig118
                    3D
 Schrodinger Suite 2021-1.
 34 36  0  0  1  0            999 V2000
    1.4526   31.9753   -1.1415 O   0  0  0  0  0  0
    5.2475   33.5073   -4.8882 N   0  0  0  0  0  0
    7.6533   32.4674   -4.7189 N   0  0  1  0  0  0
    6.1064   32.4914   -2.9531 C   0  0  1  0  0  0
    6.2148   32.4973   -4.4675 C   0  0  1  0  0  0
    4.6000   32.5519   -2.9185 C   0  0  0  0  0  0
    4.1337   33.1888   -4.0864 C   0  0  0  0  0  0
    6.9731   31.2546   -2.7111 C   0  0  0  0  0  0
    3.7016   32.1500   -1.9293 C   0  0  0  0  0  0
    8.0573   31.3747   -3.8146 C   0  0  0  0  0  0
    2.7724   33.4736   -4.2219 C   0  0  0  0  0  0
    6.7208   33.7227   -2.2200 C   0  0  0  0  0  0
    2.3375   32.3884   -2.0996 C   0  0  0  0  0  0
    5.1622   33.6254   -6.3399 C   0  0  0  0  0  0
    1.8755   33.0579   -3.2359 C   0  0  0  0  0  0
    8.0382   32.1913   -6.0984 C   0  0  0  0  0  0
    5.8265   31.5554   -4.8814 H   0  0  0  0  0  0
    0.5572   32.2827   -1.3008 H   0  0  0  0  0  0
    6.3796   30.3450   -2.8261 H   0  0  0  0  0  0
    7.3752   31.2297   -1.6976 H   0  0  0  0  0  0
    4.0512   31.6663   -1.0281 H   0  0  0  0  0  0
    9.0275   31.5860   -3.3631 H   0  0  0  0  0  0
    8.1357   30.4206   -4.3404 H   0  0  0  0  0  0
    2.4015   33.9958   -5.0909 H   0  0  0  0  0  0
    7.7601   33.9019   -2.4954 H   0  0  0  0  0  0
    6.1738   34.6415   -2.4333 H   0  0  0  0  0  0
    6.7042   33.5731   -1.1418 H   0  0  0  0  0  0
    4.2953   34.2259   -6.6197 H   0  0  0  0  0  0
    6.0385   34.1356   -6.7367 H   0  0  0  0  0  0
    5.0647   32.6507   -6.8227 H   0  0  0  0  0  0
    0.8220   33.2605   -3.3599 H   0  0  0  0  0  0
    9.1038   31.9756   -6.1616 H   0  0  0  0  0  0
    7.5014   31.3288   -6.4893 H   0  0  0  0  0  0
    7.8446   33.0464   -6.7436 H   0  0  0  0  0  0
  1 13  1  0  0  0
  1 18  1  0  0  0
  2  5  1  0  0  0
  2  7  1  0  0  0
  2 14  1  0  0  0
  3  5  1  0  0  0
  3 10  1  0  0  0
  3 16  1  0  0  0
  4  5  1  0  0  0
  4  6  1  0  0  0
  4  8  1  0  0  0
  4 12  1  0  0  0
  5 17  1  0  0  0
  6  7  2  0  0  0
  6  9  1  0  0  0
  7 11  1  0  0  0
  8 10  1  0  0  0
  8 19  1  0  0  0
  8 20  1  0  0  0
  9 13  2  0  0  0
  9 21  1  0  0  0
 10 22  1  0  0  0
 10 23  1  0  0  0
 11 15  2  0  0  0
 11 24  1  0  0  0
 12 25  1  0  0  0
 12 26  1  0  0  0
 12 27  1  0  0  0
 13 15  1  0  0  0
 14 28  1  0  0  0
 14 29  1  0  0  0
 14 30  1  0  0  0
 15 31  1  0  0  0
 16 32  1  0  0  0
 16 33  1  0  0  0
 16 34  1  0  0  0
M  END
> <s_m_entry_id>
35931

> <s_m_entry_name>
dock_pv.87

> <s_m_Source_Path>
/home/csk/Desktop/cluster/DUD-E-result/cp2c9

> <s_m_Source_File>
dock_pv.maegz

> <i_m_Source_File_Index>
87

> <chembl_id>
CHEMBL1373567

> <chembl_pref_name>
None

> <i_lp_mmshare_version>
53161

> <i_f3d_flags>
0

> <r_lp_tautomer_probability>
0.999999999997365

> <s_lp_Force_Field>
OPLS_2005

> <r_lp_Energy>
64.331921

> <b_lp_Chiralities_Consistent>
1

> <s_lp_Variant>
CHEMBL3397_lig118-1

> <s_i_glide_gridfile>
glide-grid_1r9o

> <i_i_glide_lignum>
156

> <i_i_glide_rotatable_bonds>
1

> <r_i_docking_score>
-6.89443286225359

> <r_i_glide_ligand_efficiency>
-0.430902053890849

> <r_i_glide_ligand_efficiency_sa>
-1.08580513527654

> <r_i_glide_ligand_efficiency_ln>
-1.82750714956291

> <r_i_glide_gscore>
-6.89443286225359

> <r_i_glide_lipo>
-3.08291442771268

> <r_i_glide_hbond>
0

> <r_i_glide_metal>
0

> <r_i_glide_rewards>
-2.4791705497667

> <r_i_glide_evdw>
-24.8193378448486

> <r_i_glide_ecoul>
-0.60920661687851

> <r_i_glide_erotb>
0

> <r_i_glide_esite>
0

> <r_i_glide_emodel>
-35.7146529383161

> <r_i_glide_energy>
-25.4285444617271

> <r_i_glide_einternal>
0.0298346094787121

> <i_i_glide_confnum>
1

> <i_i_glide_posenum>
113

> <r_i_glide_eff_state_penalty>
0

> <s_user_duplicate_titles>
CHEMBL3397_lig118

> <s_m_subgroup_title>
dock_pv

> <s_m_subgroupid>
dock_pv

> <b_m_subgroup_collapsed>
1

$$$$
CHEMBL3397_lig20
                    3D
 Schrodinger Suite 2021-1.
 53 58  0  0  1  0            999 V2000
   11.6315   37.4731   -4.0199 C   0  0  0  0  0  0
   11.7112   38.4943   -3.1396 N   0  0  0  0  0  0
   11.1010   38.3286   -1.9408 C   0  0  0  0  0  0
   10.4268   37.1659   -1.5735 C   0  0  0  0  0  0
   10.2910   36.1166   -2.5043 C   0  0  0  0  0  0
   10.9416   36.2939   -3.7417 C   0  0  0  0  0  0
    9.2982   34.9982   -2.2694 C   0  0  0  0  0  0
    8.7841   34.2374   -3.3386 C   0  0  0  0  0  0
    7.6340   33.9786   -0.8019 C   0  0  0  0  0  0
    8.7393   34.7992   -1.0024 C   0  0  0  0  0  0
    5.9924   32.4479   -1.9262 N   0  0  0  0  0  0
    7.0998   33.2540   -1.8675 C   0  0  0  0  0  0
    7.7144   33.3581   -3.1111 C   0  0  0  0  0  0
    6.9963   32.4837   -3.9095 N   0  0  0  0  0  0
    5.9152   32.0228   -3.1651 C   0  0  0  0  0  0
    4.8079   31.0406   -3.6340 C   0  0  2  0  0  0
    3.1671   32.3759   -4.9951 O   0  0  0  0  0  0
    4.0584   31.2654   -4.9937 C   0  0  0  0  0  0
    2.4480   32.5163   -3.8398 C   0  0  0  0  0  0
    2.7641   31.8134   -2.6685 C   0  0  0  0  0  0
    1.9630   31.9751   -1.5404 C   0  0  0  0  0  0
    0.8656   32.8367   -1.5903 C   0  0  0  0  0  0
    0.5918   33.5768   -2.7403 C   0  0  0  0  0  0
    1.3902   33.4210   -3.8704 C   0  0  0  0  0  0
    7.2862   32.2746   -5.3089 C   0  0  0  0  0  0
    6.9255   33.5167   -6.0991 C   0  0  0  0  0  0
    5.6511   34.0758   -6.0133 C   0  0  0  0  0  0
    5.3135   35.1744   -6.7800 C   0  0  0  0  0  0
    6.2998   35.7893   -7.5427 C   0  0  0  0  0  0
    7.6040   35.3154   -7.5410 C   0  0  0  0  0  0
    7.8973   34.1455   -6.8613 C   0  0  0  0  0  0
    3.7869   30.8784   -2.6282 O   0  0  0  0  0  0
   12.0943   37.6323   -4.9839 H   0  0  0  0  0  0
   11.1189   39.1677   -1.2643 H   0  0  0  0  0  0
    9.9286   37.1651   -0.6176 H   0  0  0  0  0  0
   10.8611   35.5751   -4.5350 H   0  0  0  0  0  0
    9.1015   34.4029   -4.3399 H   0  0  0  0  0  0
    7.1508   33.9749    0.1605 H   0  0  0  0  0  0
    9.0926   35.3473   -0.1441 H   0  0  0  0  0  0
    5.3057   30.0724   -3.6936 H   0  0  0  0  0  0
    4.7010   31.4486   -5.8408 H   0  0  0  0  0  0
    3.5012   30.3590   -5.2300 H   0  0  0  0  0  0
    2.1691   31.4155   -0.6413 H   0  0  0  0  0  0
    0.2129   32.9283   -0.7412 H   0  0  0  0  0  0
   -0.2505   34.2529   -2.7622 H   0  0  0  0  0  0
    1.1713   33.9730   -4.7724 H   0  0  0  0  0  0
    8.3549   32.0658   -5.3901 H   0  0  0  0  0  0
    6.7918   31.3814   -5.6719 H   0  0  0  0  0  0
    4.9233   33.6858   -5.3366 H   0  0  0  0  0  0
    4.3111   35.5763   -6.7418 H   0  0  0  0  0  0
    6.0501   36.6701   -8.1168 H   0  0  0  0  0  0
    8.3588   35.8014   -8.1419 H   0  0  0  0  0  0
    8.8469   33.6824   -7.0418 H   0  0  0  0  0  0
  1  6  1  0  0  0
  1  2  2  0  0  0
  1 33  1  0  0  0
  2  3  1  0  0  0
  3  4  2  0  0  0
  3 34  1  0  0  0
  4  5  1  0  0  0
  4 35  1  0  0  0
  5  6  2  0  0  0
  5  7  1  0  0  0
  6 36  1  0  0  0
  7  8  2  0  0  0
  7 10  1  0  0  0
  8 13  1  0  0  0
  8 37  1  0  0  0
  9 12  1  0  0  0
  9 10  2  0  0  0
  9 38  1  0  0  0
 10 39  1  0  0  0
 11 12  1  0  0  0
 11 15  2  0  0  0
 12 13  2  0  0  0
 13 14  1  0  0  0
 14 25  1  0  0  0
 14 15  1  0  0  0
 15 16  1  0  0  0
 16 32  1  0  0  0
 16 18  1  0  0  0
 16 40  1  0  0  0
 17 19  1  0  0  0
 17 18  1  0  0  0
 18 41  1  0  0  0
 18 42  1  0  0  0
 19 20  2  0  0  0
 19 24  1  0  0  0
 20 32  1  0  0  0
 20 21  1  0  0  0
 21 22  2  0  0  0
 21 43  1  0  0  0
 22 23  1  0  0  0
 22 44  1  0  0  0
 23 24  2  0  0  0
 23 45  1  0  0  0
 24 46  1  0  0  0
 25 26  1  0  0  0
 25 47  1  0  0  0
 25 48  1  0  0  0
 26 27  2  0  0  0
 26 31  1  0  0  0
 27 28  1  0  0  0
 27 49  1  0  0  0
 28 29  2  0  0  0
 28 50  1  0  0  0
 29 30  1  0  0  0
 29 51  1  0  0  0
 30 31  2  0  0  0
 30 52  1  0  0  0
 31 53  1  0  0  0
M  END
> <s_m_entry_id>
35932

> <s_m_entry_name>
dock_pv.88

> <s_m_Source_Path>
/home/csk/Desktop/cluster/DUD-E-result/cp2c9

> <s_m_Source_File>
dock_pv.maegz

> <i_m_Source_File_Index>
88

> <chembl_id>
CHEMBL1079338

> <chembl_pref_name>
None

> <i_lp_mmshare_version>
53161

> <i_f3d_flags>
0

> <r_lp_tautomer_probability>
1

> <s_lp_Force_Field>
OPLS_2005

> <r_lp_Energy>
24.125428

> <b_lp_Chiralities_Consistent>
1

> <s_lp_Variant>
CHEMBL3397_lig20-2

> <s_i_glide_gridfile>
glide-grid_1r9o

> <i_i_glide_lignum>
34

> <i_i_glide_rotatable_bonds>
4

> <r_i_docking_score>
-6.87807118873704

> <r_i_glide_ligand_efficiency>
-0.214939724648032

> <r_i_glide_ligand_efficiency_sa>
-0.682391089243754

> <r_i_glide_ligand_efficiency_ln>
-1.54018762829771

> <r_i_glide_gscore>
-6.87807118873704

> <r_i_glide_lipo>
-4.56559497708181

> <r_i_glide_hbond>
0

> <r_i_glide_metal>
0

> <r_i_glide_rewards>
-1.66076820527347

> <r_i_glide_evdw>
-15.2277565002441

> <r_i_glide_ecoul>
-2.26703119277954

> <r_i_glide_erotb>
0.449734497547383

> <r_i_glide_esite>
0

> <r_i_glide_emodel>
-23.2422298112564

> <r_i_glide_energy>
-17.4947876930237

> <r_i_glide_einternal>
7.12165927886963

> <i_i_glide_confnum>
58

> <i_i_glide_posenum>
91

> <r_i_glide_eff_state_penalty>
0

> <s_user_duplicate_titles>
CHEMBL3397_lig20

> <s_m_subgroup_title>
dock_pv

> <s_m_subgroupid>
dock_pv

> <b_m_subgroup_collapsed>
1

$$$$
CHEMBL3397_lig108
                    3D
 Schrodinger Suite 2021-1.
 38 39  0  0  1  0            999 V2000
    9.7874   36.2931    0.7881 S   0  0  0  0  0  0
    1.4497   33.5657   -3.8685 S   0  0  0  0  0  0
    9.4664   35.1509   -0.5463 C   0  0  0  0  0  0
    3.1850   33.4393   -4.2735 C   0  0  0  0  0  0
    3.7275   34.1653   -5.3373 C   0  0  0  0  0  0
   10.3010   34.0522   -0.7407 C   0  0  0  0  0  0
    8.8851   33.2629   -2.5387 C   0  0  0  0  0  0
    5.8982   33.1630   -4.9299 C   0  0  0  0  0  0
   10.0368   33.1287   -1.7483 C   0  0  0  0  0  0
    5.0768   34.0329   -5.6679 C   0  0  0  0  0  0
    8.4846   32.0233   -3.7521 S   0  0  0  0  0  0
    7.6339   33.0258   -5.3219 S   0  0  0  0  0  0
   10.3011   35.5180    1.9190 O   0  0  0  0  0  0
    8.6174   37.1631    0.9275 O   0  0  0  0  0  0
    0.7449   33.9749   -5.0869 O   0  0  0  0  0  0
    1.0951   32.3433   -3.1410 O   0  0  0  0  0  0
   11.0982   37.2605    0.1947 N   0  0  0  0  0  0
    1.3236   34.8805   -2.7410 N   0  0  0  0  0  0
    8.3647   35.3242   -1.3767 C   0  0  0  0  0  0
    3.9992   32.5784   -3.5379 C   0  0  0  0  0  0
    8.0569   34.3749   -2.3510 C   0  0  0  0  0  0
    5.3424   32.4358   -3.8683 C   0  0  0  0  0  0
   10.9378   32.0856   -1.9399 N   0  0  0  0  0  0
    5.5737   34.7748   -6.7411 N   0  0  0  0  0  0
    3.1011   34.8239   -5.9187 H   0  0  0  0  0  0
   11.1175   33.8917   -0.0558 H   0  0  0  0  0  0
   11.9890   36.7777    0.0724 H   0  0  0  0  0  0
   10.8475   37.9205   -0.5454 H   0  0  0  0  0  0
    0.8304   35.7022   -3.1044 H   0  0  0  0  0  0
    1.0208   34.5940   -1.8079 H   0  0  0  0  0  0
    7.7465   36.1934   -1.2419 H   0  0  0  0  0  0
    3.5931   32.0061   -2.7155 H   0  0  0  0  0  0
    7.1679   34.5115   -2.9460 H   0  0  0  0  0  0
    5.9285   31.7480   -3.2806 H   0  0  0  0  0  0
   10.7580   31.4310   -2.6884 H   0  0  0  0  0  0
   11.7824   32.0119   -1.3895 H   0  0  0  0  0  0
    4.9662   35.4000   -7.2519 H   0  0  0  0  0  0
    6.5510   34.6853   -6.9806 H   0  0  0  0  0  0
  1  3  1  0  0  0
  1 13  2  0  0  0
  1 14  2  0  0  0
  1 17  1  0  0  0
  2  4  1  0  0  0
  2 15  2  0  0  0
  2 16  2  0  0  0
  2 18  1  0  0  0
  3  6  1  0  0  0
  3 19  2  0  0  0
  4 20  1  0  0  0
  4  5  2  0  0  0
  5 10  1  0  0  0
  5 25  1  0  0  0
  6  9  2  0  0  0
  6 26  1  0  0  0
  7 21  2  0  0  0
  7 11  1  0  0  0
  7  9  1  0  0  0
  8 12  1  0  0  0
  8 10  2  0  0  0
  8 22  1  0  0  0
  9 23  1  0  0  0
 10 24  1  0  0  0
 11 12  1  0  0  0
 17 27  1  0  0  0
 17 28  1  0  0  0
 18 29  1  0  0  0
 18 30  1  0  0  0
 19 21  1  0  0  0
 19 31  1  0  0  0
 20 22  2  0  0  0
 20 32  1  0  0  0
 21 33  1  0  0  0
 22 34  1  0  0  0
 23 35  1  0  0  0
 23 36  1  0  0  0
 24 37  1  0  0  0
 24 38  1  0  0  0
M  END
> <s_m_entry_id>
35934

> <s_m_entry_name>
dock_pv.90

> <s_m_Source_Path>
/home/csk/Desktop/cluster/DUD-E-result/cp2c9

> <s_m_Source_File>
dock_pv.maegz

> <i_m_Source_File_Index>
90

> <chembl_id>
CHEMBL120806

> <chembl_pref_name>
None

> <i_lp_mmshare_version>
53161

> <i_f3d_flags>
0

> <r_lp_tautomer_probability>
1

> <s_lp_Force_Field>
OPLS_2005

> <r_lp_Energy>
24.731166

> <b_lp_Chiralities_Consistent>
1

> <s_lp_Variant>
CHEMBL3397_lig108-1

> <s_i_glide_gridfile>
glide-grid_1r9o

> <i_i_glide_lignum>
146

> <i_i_glide_rotatable_bonds>
5

> <r_i_docking_score>
-6.85125696917644

> <r_i_glide_ligand_efficiency>
-0.285469040382352

> <r_i_glide_ligand_efficiency_sa>
-0.823435200782723

> <r_i_glide_ligand_efficiency_ln>
-1.63982017642072

> <r_i_glide_gscore>
-6.85125696917644

> <r_i_glide_lipo>
-2.89348438381103

> <r_i_glide_hbond>
-0.204470654237397

> <r_i_glide_metal>
0

> <r_i_glide_rewards>
-1.61279487124173

> <r_i_glide_evdw>
-42.3671684265137

> <r_i_glide_ecoul>
-2.52724814414978

> <r_i_glide_erotb>
0.356938583061862

> <r_i_glide_esite>
0

> <r_i_glide_emodel>
-59.3970181919276

> <r_i_glide_energy>
-44.8944165706635

> <r_i_glide_einternal>
5.5145206451416

> <i_i_glide_confnum>
1

> <i_i_glide_posenum>
346

> <r_i_glide_eff_state_penalty>
0

> <s_user_duplicate_titles>
CHEMBL3397_lig108

> <s_m_subgroup_title>
dock_pv

> <s_m_subgroupid>
dock_pv

> <b_m_subgroup_collapsed>
1

$$$$
CHEMBL3397_lig97
                    3D
 Schrodinger Suite 2021-1.
 37 40  0  0  1  0            999 V2000
   11.6875   38.1374   -3.1991 C   0  0  0  0  0  0
   11.1010   38.1740   -1.9411 C   0  0  0  0  0  0
   10.7010   35.9754   -3.6080 C   0  0  0  0  0  0
   11.5002   37.0371   -4.0209 C   0  0  0  0  0  0
   10.0552   35.9746   -2.3402 C   0  0  0  0  0  0
   10.2881   37.1054   -1.4899 C   0  0  0  0  0  0
    9.6599   37.1687   -0.2259 C   0  0  0  0  0  0
    8.7659   36.1842    0.1652 C   0  0  0  0  0  0
    8.5100   35.1017   -0.6630 C   0  0  0  0  0  0
    9.1574   34.9410   -1.8885 C   0  0  0  0  0  0
    8.9248   33.6349   -2.6726 C   0  0  0  0  0  0
    7.4520   33.2547   -2.9503 C   0  0  0  0  0  0
    9.9021   32.1754   -1.7223 Br  0  0  0  0  0  0
    6.7568   32.4798   -2.0191 C   0  0  0  0  0  0
    5.4541   32.0569   -2.2379 C   0  0  0  0  0  0
    4.8038   32.3727   -3.4217 C   0  0  0  0  0  0
    6.7999   33.5970   -4.1882 C   0  0  0  0  0  0
    5.4594   33.1359   -4.4152 C   0  0  0  0  0  0
    4.8051   33.4425   -5.6358 C   0  0  0  0  0  0
    5.4521   34.1891   -6.6127 C   0  0  0  0  0  0
    6.7412   34.6552   -6.4016 C   0  0  0  0  0  0
    7.4076   34.3726   -5.2146 C   0  0  0  0  0  0
   12.2865   38.9708   -3.5418 H   0  0  0  0  0  0
   11.2198   39.0452   -1.3130 H   0  0  0  0  0  0
   10.5539   35.1750   -4.3051 H   0  0  0  0  0  0
   11.9548   37.0186   -5.0022 H   0  0  0  0  0  0
    9.8452   38.0137    0.4215 H   0  0  0  0  0  0
    8.2643   36.2586    1.1195 H   0  0  0  0  0  0
    7.8134   34.3516   -0.3221 H   0  0  0  0  0  0
    9.4279   33.6402   -3.6296 H   0  0  0  0  0  0
    7.2390   32.1797   -1.1058 H   0  0  0  0  0  0
    4.9521   31.4621   -1.4881 H   0  0  0  0  0  0
    3.7934   32.0296   -3.5929 H   0  0  0  0  0  0
    3.7989   33.0882   -5.8076 H   0  0  0  0  0  0
    4.9480   34.4153   -7.5398 H   0  0  0  0  0  0
    7.2283   35.2488   -7.1619 H   0  0  0  0  0  0
    8.3943   34.7756   -5.0820 H   0  0  0  0  0  0
  1  2  2  0  0  0
  1  4  1  0  0  0
  1 23  1  0  0  0
  2  6  1  0  0  0
  2 24  1  0  0  0
  3  5  1  0  0  0
  3  4  2  0  0  0
  3 25  1  0  0  0
  4 26  1  0  0  0
  5  6  1  0  0  0
  5 10  2  0  0  0
  6  7  2  0  0  0
  7  8  1  0  0  0
  7 27  1  0  0  0
  8  9  2  0  0  0
  8 28  1  0  0  0
  9 10  1  0  0  0
  9 29  1  0  0  0
 10 11  1  0  0  0
 11 12  1  0  0  0
 11 13  1  0  0  0
 11 30  1  0  0  0
 12 14  2  0  0  0
 12 17  1  0  0  0
 14 15  1  0  0  0
 14 31  1  0  0  0
 15 16  2  0  0  0
 15 32  1  0  0  0
 16 18  1  0  0  0
 16 33  1  0  0  0
 17 18  1  0  0  0
 17 22  2  0  0  0
 18 19  2  0  0  0
 19 20  1  0  0  0
 19 34  1  0  0  0
 20 21  2  0  0  0
 20 35  1  0  0  0
 21 22  1  0  0  0
 21 36  1  0  0  0
 22 37  1  0  0  0
M  END
> <s_m_entry_id>
35935

> <s_m_entry_name>
dock_pv.91

> <s_m_Source_Path>
/home/csk/Desktop/cluster/DUD-E-result/cp2c9

> <s_m_Source_File>
dock_pv.maegz

> <i_m_Source_File_Index>
91

> <chembl_id>
CHEMBL512832

> <chembl_pref_name>
None

> <i_lp_mmshare_version>
53161

> <i_f3d_flags>
0

> <r_lp_tautomer_probability>
1

> <s_lp_Force_Field>
OPLS_2005

> <r_lp_Energy>
25.110309

> <b_lp_Chiralities_Consistent>
1

> <s_lp_Variant>
CHEMBL3397_lig97-1

> <s_i_glide_gridfile>
glide-grid_1r9o

> <i_i_glide_lignum>
135

> <i_i_glide_rotatable_bonds>
2

> <r_i_docking_score>
-6.85019685530896

> <r_i_glide_ligand_efficiency>
-0.311372584332225

> <r_i_glide_ligand_efficiency_sa>
-0.872478226887751

> <r_i_glide_ligand_efficiency_ln>
-1.67443797843889

> <r_i_glide_gscore>
-6.85019685530896

> <r_i_glide_lipo>
-3.7294269590379

> <r_i_glide_hbond>
0

> <r_i_glide_metal>
0

> <r_i_glide_rewards>
-1.42564439085578

> <r_i_glide_evdw>
-35.3735656738281

> <r_i_glide_ecoul>
-1.61302506923676

> <r_i_glide_erotb>
0.315506538661643

> <r_i_glide_esite>
0

> <r_i_glide_emodel>
-48.4198913315855

> <r_i_glide_energy>
-36.9865907430649

> <r_i_glide_einternal>
5.56537103652954

> <i_i_glide_confnum>
3

> <i_i_glide_posenum>
232

> <r_i_glide_eff_state_penalty>
0

> <s_user_duplicate_titles>
CHEMBL3397_lig97

> <s_m_subgroup_title>
dock_pv

> <s_m_subgroupid>
dock_pv

> <b_m_subgroup_collapsed>
1

$$$$
CHEMBL3397_lig127
                    3D
 Schrodinger Suite 2021-1.
 44 46  0  0  1  0            999 V2000
    4.1873   30.7168   -3.8824 C   0  0  0  0  0  0
    3.8402   32.0570   -3.9660 C   0  0  0  0  0  0
    4.7777   33.0446   -3.6407 C   0  0  0  0  0  0
    5.4753   30.3381   -3.5283 C   0  0  0  0  0  0
    6.4383   31.3065   -3.1881 C   0  0  0  0  0  0
    6.0471   32.6577   -3.1815 C   0  0  0  0  0  0
    6.9389   33.6746   -2.8945 O   0  0  0  0  0  0
    7.9707   33.3298   -1.9713 C   0  0  1  0  0  0
    8.7763   32.1288   -2.5238 C   0  0  0  0  0  0
    7.8727   30.9630   -2.9405 C   0  0  0  0  0  0
    8.3013   29.8239   -3.1239 O   0  0  0  0  0  0
    8.8316   34.5616   -1.6720 C   0  0  0  0  0  0
    8.6458   35.2738   -0.4818 C   0  0  0  0  0  0
    9.4050   36.4098   -0.2128 C   0  0  0  0  0  0
   10.3457   36.8465   -1.1419 C   0  0  0  0  0  0
   10.5331   36.1543   -2.3369 C   0  0  0  0  0  0
    9.7751   35.0156   -2.5998 C   0  0  0  0  0  0
    2.5877   32.3757   -4.4206 O   0  0  0  0  0  0
    5.7524   28.9982   -3.5448 O   0  0  0  0  0  0
    4.4659   34.5175   -3.8966 C   0  0  0  0  0  0
    4.8242   35.0550   -5.2861 C   0  0  0  0  0  0
    5.6754   34.5880   -6.2380 C   0  0  0  0  0  0
    6.4833   33.2980   -6.1815 C   0  0  0  0  0  0
    5.9297   35.3556   -7.5217 C   0  0  0  0  0  0
    3.4697   29.9594   -4.1519 H   0  0  0  0  0  0
    7.5084   33.0348   -1.0261 H   0  0  0  0  0  0
    9.4234   32.3756   -3.3637 H   0  0  0  0  0  0
    9.4336   31.7501   -1.7413 H   0  0  0  0  0  0
    7.9026   34.9574    0.2352 H   0  0  0  0  0  0
    9.2544   36.9594    0.7051 H   0  0  0  0  0  0
   10.9170   37.7418   -0.9395 H   0  0  0  0  0  0
   11.2367   36.5145   -3.0724 H   0  0  0  0  0  0
    9.9009   34.5035   -3.5405 H   0  0  0  0  0  0
    2.4650   33.3210   -4.5175 H   0  0  0  0  0  0
    6.6679   28.8256   -3.3001 H   0  0  0  0  0  0
    4.9704   35.1412   -3.1569 H   0  0  0  0  0  0
    3.4062   34.7043   -3.7227 H   0  0  0  0  0  0
    4.3007   35.9746   -5.5027 H   0  0  0  0  0  0
    7.3032   33.3874   -5.4702 H   0  0  0  0  0  0
    6.9384   33.0659   -7.1432 H   0  0  0  0  0  0
    5.8619   32.4384   -5.9376 H   0  0  0  0  0  0
    7.0002   35.4776   -7.6894 H   0  0  0  0  0  0
    5.5010   34.7900   -8.3410 H   0  0  0  0  0  0
    5.5008   36.3506   -7.5413 H   0  0  0  0  0  0
  1  2  2  0  0  0
  1  4  1  0  0  0
  1 25  1  0  0  0
  2  3  1  0  0  0
  2 18  1  0  0  0
  3  6  2  0  0  0
  3 20  1  0  0  0
  4  5  2  0  0  0
  4 19  1  0  0  0
  5 10  1  0  0  0
  5  6  1  0  0  0
  6  7  1  0  0  0
  7  8  1  0  0  0
  8 12  1  0  0  0
  8  9  1  0  0  0
  8 26  1  0  0  0
  9 10  1  0  0  0
  9 27  1  0  0  0
  9 28  1  0  0  0
 10 11  2  0  0  0
 12 13  2  0  0  0
 12 17  1  0  0  0
 13 14  1  0  0  0
 13 29  1  0  0  0
 14 15  2  0  0  0
 14 30  1  0  0  0
 15 16  1  0  0  0
 15 31  1  0  0  0
 16 17  2  0  0  0
 16 32  1  0  0  0
 17 33  1  0  0  0
 18 34  1  0  0  0
 19 35  1  0  0  0
 20 21  1  0  0  0
 20 36  1  0  0  0
 20 37  1  0  0  0
 21 22  2  0  0  0
 21 38  1  0  0  0
 22 23  1  0  0  0
 22 24  1  0  0  0
 23 39  1  0  0  0
 23 40  1  0  0  0
 23 41  1  0  0  0
 24 42  1  0  0  0
 24 43  1  0  0  0
 24 44  1  0  0  0
M  END
> <s_m_entry_id>
35936

> <s_m_entry_name>
dock_pv.92

> <s_m_Source_Path>
/home/csk/Desktop/cluster/DUD-E-result/cp2c9

> <s_m_Source_File>
dock_pv.maegz

> <i_m_Source_File_Index>
92

> <chembl_id>
CHEMBL253998

> <chembl_pref_name>
GLABRANIN

> <i_lp_mmshare_version>
53161

> <i_f3d_flags>
0

> <r_lp_tautomer_probability>
0.99995

> <s_lp_Force_Field>
OPLS_2005

> <r_lp_Energy>
27.251548

> <b_lp_Chiralities_Consistent>
1

> <s_lp_Variant>
CHEMBL3397_lig127-1

> <s_i_glide_gridfile>
glide-grid_1r9o

> <i_i_glide_lignum>
166

> <i_i_glide_rotatable_bonds>
5

> <r_i_docking_score>
-6.83387809112673

> <r_i_glide_ligand_efficiency>
-0.284744920463614

> <r_i_glide_ligand_efficiency_sa>
-0.821346477501634

> <r_i_glide_ligand_efficiency_ln>
-1.63566061343868

> <r_i_glide_gscore>
-6.83387809112673

> <r_i_glide_lipo>
-4.1248391593289

> <r_i_glide_hbond>
0

> <r_i_glide_metal>
0

> <r_i_glide_rewards>
-1.39583670211354

> <r_i_glide_evdw>
-36.9838981628418

> <r_i_glide_ecoul>
0.0136141860857606

> <r_i_glide_erotb>
0.533950550544937

> <r_i_glide_esite>
0

> <r_i_glide_emodel>
-49.0384784311161

> <r_i_glide_energy>
-36.970283976756

> <r_i_glide_einternal>
1.69650709629059

> <i_i_glide_confnum>
4

> <i_i_glide_posenum>
141

> <r_i_glide_eff_state_penalty>
0

> <s_user_duplicate_titles>
CHEMBL3397_lig127

> <s_m_subgroup_title>
dock_pv

> <s_m_subgroupid>
dock_pv

> <b_m_subgroup_collapsed>
1

$$$$
CHEMBL3397_lig151
                    3D
 Schrodinger Suite 2021-1.
 51 52  0  0  1  0            999 V2000
    7.9118   32.9832   -6.3483 O   0  0  0  0  0  0
    7.0031   35.2976   -7.1408 O   0  0  0  0  0  0
   10.7705   36.0785   -0.3605 O   0  0  0  0  0  0
    4.7010   28.8007   -3.5410 O   0  0  0  0  0  0
    5.3128   30.8582   -2.7924 N   0  0  0  0  0  0
    6.5870   33.2532   -6.0786 C   0  0  0  0  0  0
    6.0856   34.4691   -6.5306 C   0  0  0  0  0  0
    4.3965   32.6817   -5.1693 C   0  0  0  0  0  0
    5.7294   32.3708   -5.4251 C   0  0  0  0  0  0
    4.7289   34.7750   -6.3289 C   0  0  0  0  0  0
    3.8951   33.8975   -5.6336 C   0  0  0  0  0  0
    3.5124   31.6713   -4.4389 C   0  0  0  0  0  0
    3.9233   31.3547   -2.9711 C   0  0  0  0  0  0
    8.3552   32.9511   -1.7253 C   0  0  0  0  0  0
    6.2124   31.8072   -2.3432 C   0  0  0  0  0  0
    5.5882   29.5750   -3.1909 C   0  0  0  0  0  0
    7.5450   31.7874   -2.1219 C   0  0  0  0  0  0
    9.9311   35.0928   -0.8411 C   0  0  0  0  0  0
    9.6179   32.7155   -1.1836 C   0  0  0  0  0  0
    7.8971   34.2681   -1.8560 C   0  0  0  0  0  0
   10.3894   33.7803   -0.7410 C   0  0  0  0  0  0
    8.6776   35.3317   -1.4142 C   0  0  0  0  0  0
    8.5319   31.8398   -5.7848 C   0  0  0  0  0  0
    6.5486   36.3009   -8.0275 C   0  0  0  0  0  0
    7.0046   29.0120   -3.3138 C   0  0  0  0  0  0
   10.3268   37.4323   -0.3531 C   0  0  0  0  0  0
    6.0949   31.4110   -5.1193 H   0  0  0  0  0  0
    4.3152   35.7050   -6.6832 H   0  0  0  0  0  0
    2.8600   34.1602   -5.4712 H   0  0  0  0  0  0
    3.5010   30.7489   -5.0215 H   0  0  0  0  0  0
    2.4750   32.0081   -4.4508 H   0  0  0  0  0  0
    3.2382   30.5909   -2.5994 H   0  0  0  0  0  0
    3.6964   32.2067   -2.3284 H   0  0  0  0  0  0
    5.6986   32.7397   -2.1599 H   0  0  0  0  0  0
    8.1248   30.8939   -2.2481 H   0  0  0  0  0  0
    9.9934   31.7081   -1.0687 H   0  0  0  0  0  0
    6.9353   34.4860   -2.2955 H   0  0  0  0  0  0
   11.3443   33.5750   -0.2806 H   0  0  0  0  0  0
    8.2922   36.3334   -1.5213 H   0  0  0  0  0  0
    9.4964   31.6753   -6.2648 H   0  0  0  0  0  0
    8.6970   31.9754   -4.7164 H   0  0  0  0  0  0
    7.9460   30.9412   -5.9409 H   0  0  0  0  0  0
    7.3917   36.7161   -8.5793 H   0  0  0  0  0  0
    5.8878   35.8457   -8.7410 H   0  0  0  0  0  0
    6.0293   37.1193   -7.5410 H   0  0  0  0  0  0
    7.6292   29.6474   -3.9396 H   0  0  0  0  0  0
    7.4605   28.8649   -2.3411 H   0  0  0  0  0  0
    6.9733   28.0302   -3.7891 H   0  0  0  0  0  0
   11.1006   38.0577    0.0917 H   0  0  0  0  0  0
    9.4224   37.5564    0.2448 H   0  0  0  0  0  0
   10.1432   37.8033   -1.3626 H   0  0  0  0  0  0
  1  6  1  0  0  0
  1 23  1  0  0  0
  2  7  1  0  0  0
  2 24  1  0  0  0
  3 18  1  0  0  0
  3 26  1  0  0  0
  4 16  2  0  0  0
  5 13  1  0  0  0
  5 15  1  0  0  0
  5 16  1  0  0  0
  6  7  1  0  0  0
  6  9  2  0  0  0
  7 10  2  0  0  0
  8  9  1  0  0  0
  8 11  2  0  0  0
  8 12  1  0  0  0
  9 27  1  0  0  0
 10 11  1  0  0  0
 10 28  1  0  0  0
 11 29  1  0  0  0
 12 13  1  0  0  0
 12 30  1  0  0  0
 12 31  1  0  0  0
 13 32  1  0  0  0
 13 33  1  0  0  0
 14 17  1  0  0  0
 14 19  2  0  0  0
 14 20  1  0  0  0
 15 17  2  0  0  0
 15 34  1  0  0  0
 16 25  1  0  0  0
 17 35  1  0  0  0
 18 21  2  0  0  0
 18 22  1  0  0  0
 19 21  1  0  0  0
 19 36  1  0  0  0
 20 22  2  0  0  0
 20 37  1  0  0  0
 21 38  1  0  0  0
 22 39  1  0  0  0
 23 40  1  0  0  0
 23 41  1  0  0  0
 23 42  1  0  0  0
 24 43  1  0  0  0
 24 44  1  0  0  0
 24 45  1  0  0  0
 25 46  1  0  0  0
 25 47  1  0  0  0
 25 48  1  0  0  0
 26 49  1  0  0  0
 26 50  1  0  0  0
 26 51  1  0  0  0
M  END
> <s_m_entry_id>
35937

> <s_m_entry_name>
dock_pv.93

> <s_m_Source_Path>
/home/csk/Desktop/cluster/DUD-E-result/cp2c9

> <s_m_Source_File>
dock_pv.maegz

> <i_m_Source_File_Index>
93

> <chembl_id>
CHEMBL1593321

> <chembl_pref_name>
None

> <i_lp_mmshare_version>
53161

> <i_f3d_flags>
0

> <r_lp_tautomer_probability>
1

> <s_lp_Force_Field>
OPLS_2005

> <r_lp_Energy>
33.928882

> <b_lp_Chiralities_Consistent>
1

> <s_lp_Variant>
CHEMBL3397_lig151-1

> <s_i_glide_gridfile>
glide-grid_1r9o

> <i_i_glide_lignum>
192

> <i_i_glide_rotatable_bonds>
9

> <r_i_docking_score>
-6.82321319335638

> <r_i_glide_ligand_efficiency>
-0.262431276667553

> <r_i_glide_ligand_efficiency_sa>
-0.777451624510416

> <r_i_glide_ligand_efficiency_ln>
-1.60240922967115

> <r_i_glide_gscore>
-6.82321319335638

> <r_i_glide_lipo>
-4.09574005027888

> <r_i_glide_hbond>
-0.0572553514970474

> <r_i_glide_metal>
0

> <r_i_glide_rewards>
-1.19880191429264

> <r_i_glide_evdw>
-37.0022811889648

> <r_i_glide_ecoul>
-2.52050089836121

> <r_i_glide_erotb>
0.756773316914606

> <r_i_glide_esite>
0

> <r_i_glide_emodel>
-50.7955234376055

> <r_i_glide_energy>
-39.522782087326

> <r_i_glide_einternal>
8.43990516662598

> <i_i_glide_confnum>
9

> <i_i_glide_posenum>
181

> <r_i_glide_eff_state_penalty>
0

> <s_user_duplicate_titles>
CHEMBL3397_lig151

> <s_m_subgroup_title>
dock_pv

> <s_m_subgroupid>
dock_pv

> <b_m_subgroup_collapsed>
1

$$$$
CHEMBL3397_lig134
                    3D
 Schrodinger Suite 2021-1.
 53 57  0  0  1  0            999 V2000
    8.5932   33.0611   -1.9234 C   0  0  0  0  0  0
    3.9918   33.0821   -3.5797 C   0  0  0  0  0  0
    8.2741   31.6795   -2.3334 C   0  0  0  0  0  0
    6.3654   32.8786   -2.6195 C   0  0  2  0  0  0
    5.5104   33.0720   -3.9206 C   0  0  2  0  0  0
    7.4756   33.8091   -2.2071 C   0  0  0  0  0  0
    7.0016   31.6254   -2.7226 O   0  0  0  0  0  0
    3.4235   32.1656   -2.6564 C   0  0  0  0  0  0
    2.0725   32.2541   -2.3430 C   0  0  0  0  0  0
    3.1171   33.9788   -4.2501 C   0  0  0  0  0  0
    5.9591   34.1378   -4.8457 N   0  0  2  0  0  0
    9.7200   33.6578   -1.3279 C   0  0  0  0  0  0
    1.2566   33.1255   -2.9840 C   0  0  0  0  0  0
    1.7389   33.9748   -3.9616 C   0  0  0  0  0  0
    7.5009   35.1737   -1.9913 C   0  0  0  0  0  0
    1.3506   31.5748   -1.4122 O   0  0  0  0  0  0
   -0.0074   33.0111   -2.5006 O   0  0  0  0  0  0
    8.9692   30.6837   -2.3411 O   0  0  0  0  0  0
    9.6853   35.0164   -0.9709 C   0  0  0  0  0  0
    3.6922   34.9539   -5.2687 C   0  0  0  0  0  0
    0.0096   31.8816   -1.6728 C   0  0  0  0  0  0
    4.9798   34.4099   -5.8988 C   0  0  0  0  0  0
    8.5737   35.7762   -1.3438 C   0  0  0  0  0  0
    4.1435   31.1722   -2.0462 O   0  0  0  0  0  0
   10.8106   32.9167   -0.9570 O   0  0  0  0  0  0
   10.7535   35.5428   -0.2707 O   0  0  0  0  0  0
    7.2403   33.8164   -5.4812 C   0  0  0  0  0  0
    4.3077   30.0046   -2.8445 C   0  0  0  0  0  0
   11.5007   32.2050   -1.9729 C   0  0  0  0  0  0
   10.6769   36.8726    0.2386 C   0  0  0  0  0  0
    5.6054   32.1603   -4.5136 H   0  0  0  0  0  0
    5.6996   32.8383   -1.7583 H   0  0  0  0  0  0
    1.0546   34.6473   -4.4516 H   0  0  0  0  0  0
    6.6645   35.7616   -2.3411 H   0  0  0  0  0  0
    2.9774   35.1709   -6.0605 H   0  0  0  0  0  0
    3.9007   35.9073   -4.7789 H   0  0  0  0  0  0
   -0.4527   31.0424   -2.1903 H   0  0  0  0  0  0
   -0.5385   32.0660   -0.7492 H   0  0  0  0  0  0
    5.3752   35.1764   -6.5657 H   0  0  0  0  0  0
    4.8004   33.5415   -6.5371 H   0  0  0  0  0  0
    8.5176   36.8341   -1.1401 H   0  0  0  0  0  0
    7.5759   34.6396   -6.1143 H   0  0  0  0  0  0
    8.0247   33.6459   -4.7468 H   0  0  0  0  0  0
    7.1712   32.9222   -6.1040 H   0  0  0  0  0  0
    4.8503   29.2523   -2.2741 H   0  0  0  0  0  0
    3.3475   29.5745   -3.1401 H   0  0  0  0  0  0
    4.8834   30.1985   -3.7494 H   0  0  0  0  0  0
   11.9010   31.2904   -1.5402 H   0  0  0  0  0  0
   10.9278   31.9747   -2.8655 H   0  0  0  0  0  0
   12.3432   32.7750   -2.3411 H   0  0  0  0  0  0
   11.5489   37.0714    0.8603 H   0  0  0  0  0  0
   10.6656   37.6116   -0.5638 H   0  0  0  0  0  0
    9.7962   37.0149    0.8677 H   0  0  0  0  0  0
  1  3  1  0  0  0
  1  6  2  0  0  0
  1 12  1  0  0  0
  2  5  1  0  0  0
  2  8  1  0  0  0
  2 10  2  0  0  0
  3  7  1  0  0  0
  3 18  2  0  0  0
  4  6  1  0  0  0
  4  5  1  0  0  0
  4 32  1  0  0  0
  4  7  1  0  0  0
  5 11  1  0  0  0
  5 31  1  0  0  0
  6 15  1  0  0  0
  8  9  2  0  0  0
  8 24  1  0  0  0
  9 16  1  0  0  0
  9 13  1  0  0  0
 10 14  1  0  0  0
 10 20  1  0  0  0
 11 22  1  0  0  0
 11 27  1  0  0  0
 12 19  2  0  0  0
 12 25  1  0  0  0
 13 14  2  0  0  0
 13 17  1  0  0  0
 14 33  1  0  0  0
 15 23  2  0  0  0
 15 34  1  0  0  0
 16 21  1  0  0  0
 17 21  1  0  0  0
 19 23  1  0  0  0
 19 26  1  0  0  0
 20 22  1  0  0  0
 20 35  1  0  0  0
 20 36  1  0  0  0
 21 37  1  0  0  0
 21 38  1  0  0  0
 22 39  1  0  0  0
 22 40  1  0  0  0
 23 41  1  0  0  0
 24 28  1  0  0  0
 25 29  1  0  0  0
 26 30  1  0  0  0
 27 42  1  0  0  0
 27 43  1  0  0  0
 27 44  1  0  0  0
 28 45  1  0  0  0
 28 46  1  0  0  0
 28 47  1  0  0  0
 29 48  1  0  0  0
 29 49  1  0  0  0
 29 50  1  0  0  0
 30 51  1  0  0  0
 30 52  1  0  0  0
 30 53  1  0  0  0
M  END
> <s_m_entry_id>
35938

> <s_m_entry_name>
dock_pv.94

> <s_m_Source_Path>
/home/csk/Desktop/cluster/DUD-E-result/cp2c9

> <s_m_Source_File>
dock_pv.maegz

> <i_m_Source_File_Index>
94

> <chembl_id>
CHEMBL364713

> <chembl_pref_name>
NOSCAPINE

> <i_lp_mmshare_version>
53161

> <i_f3d_flags>
0

> <r_lp_tautomer_probability>
1

> <s_lp_Force_Field>
OPLS_2005

> <r_lp_Energy>
68.69101

> <b_lp_Chiralities_Consistent>
1

> <s_lp_Variant>
CHEMBL3397_lig134-1

> <s_i_glide_gridfile>
glide-grid_1r9o

> <i_i_glide_lignum>
173

> <i_i_glide_rotatable_bonds>
4

> <r_i_docking_score>
-6.81501284159358

> <r_i_glide_ligand_efficiency>
-0.227167094719786

> <r_i_glide_ligand_efficiency_sa>
-0.705860980196161

> <r_i_glide_ligand_efficiency_ln>
-1.54844517312237

> <r_i_glide_gscore>
-6.81501284159358

> <r_i_glide_lipo>
-4.3798550194151

> <r_i_glide_hbond>
-0.0633654479635002

> <r_i_glide_metal>
0

> <r_i_glide_rewards>
-0.590314636363635

> <r_i_glide_evdw>
-35.6745758056641

> <r_i_glide_ecoul>
-0.754494667053223

> <r_i_glide_erotb>
0.115425252489843

> <r_i_glide_esite>
0

> <r_i_glide_emodel>
-48.11908766419

> <r_i_glide_energy>
-36.4290704727173

> <r_i_glide_einternal>
2.31429648399353

> <i_i_glide_confnum>
1

> <i_i_glide_posenum>
24

> <r_i_glide_eff_state_penalty>
0

> <s_user_duplicate_titles>
CHEMBL3397_lig134

> <s_m_subgroup_title>
dock_pv

> <s_m_subgroupid>
dock_pv

> <b_m_subgroup_collapsed>
1

$$$$
CHEMBL3397_lig150
                    3D
 Schrodinger Suite 2021-1.
 53 55  0  0  1  0            999 V2000
    4.1130   31.1748   -1.9373 O   0  0  0  0  0  0
    5.2123   29.1751   -3.3009 O   0  0  0  0  0  0
    5.2871   34.7750   -6.1646 O   0  0  0  0  0  0
   10.0802   35.0898   -1.1870 N   0  0  0  0  0  0
   10.7269   36.7737    0.1553 N   0  0  0  0  0  0
    5.4248   31.3375   -2.3383 C   0  0  0  0  0  0
    6.0114   30.2775   -3.0464 C   0  0  0  0  0  0
    7.4895   32.6203   -2.5328 C   0  0  0  0  0  0
    6.1800   32.4937   -2.0845 C   0  0  0  0  0  0
    7.3544   30.3852   -3.4424 C   0  0  0  0  0  0
    8.0807   31.5515   -3.2009 C   0  0  0  0  0  0
    8.2308   33.9330   -2.3194 C   0  0  0  0  0  0
    9.5947   33.7837   -1.6128 C   0  0  0  0  0  0
    3.4607   32.1608   -1.1401 C   0  0  0  0  0  0
    2.4675   32.7532   -3.8474 C   0  0  0  0  0  0
   10.3121   35.5309    0.0949 C   0  0  0  0  0  0
   10.3946   36.1661   -1.9765 C   0  0  0  0  0  0
    4.3570   34.0589   -5.4447 C   0  0  0  0  0  0
    1.9415   32.1114   -1.3929 C   0  0  0  0  0  0
    1.5380   32.0102   -2.8863 C   0  0  0  0  0  0
    3.2021   32.0374   -4.7975 C   0  0  0  0  0  0
    2.6606   34.1293   -3.7203 C   0  0  0  0  0  0
    4.1370   32.6831   -5.5967 C   0  0  0  0  0  0
    3.6146   34.7731   -4.5051 C   0  0  0  0  0  0
   10.7660   37.1753   -1.1002 C   0  0  0  0  0  0
    5.7444   28.0491   -3.9959 C   0  0  0  0  0  0
    6.0985   34.1095   -7.1168 C   0  0  0  0  0  0
    5.7667   33.3221   -1.5454 H   0  0  0  0  0  0
    7.8522   29.5731   -3.9410 H   0  0  0  0  0  0
    9.1008   31.6305   -3.5391 H   0  0  0  0  0  0
    8.3622   34.3976   -3.2963 H   0  0  0  0  0  0
    7.5986   34.6143   -1.7469 H   0  0  0  0  0  0
    9.5132   33.1356   -0.7409 H   0  0  0  0  0  0
   10.3401   33.3482   -2.2790 H   0  0  0  0  0  0
    3.7669   33.1753   -1.3675 H   0  0  0  0  0  0
    3.7056   31.9748   -0.0941 H   0  0  0  0  0  0
   10.1677   34.8712    0.9367 H   0  0  0  0  0  0
   10.2998   36.1262   -3.0528 H   0  0  0  0  0  0
    1.4969   33.0089   -0.9619 H   0  0  0  0  0  0
    1.5034   31.2792   -0.8417 H   0  0  0  0  0  0
    0.5140   32.3575   -3.0296 H   0  0  0  0  0  0
    1.5225   30.9506   -3.1408 H   0  0  0  0  0  0
    3.1010   30.9666   -4.8862 H   0  0  0  0  0  0
    2.1067   34.6918   -2.9823 H   0  0  0  0  0  0
    4.7012   32.0965   -6.3050 H   0  0  0  0  0  0
    3.7916   35.8299   -4.3768 H   0  0  0  0  0  0
   11.0551   38.1837   -1.3593 H   0  0  0  0  0  0
    5.0218   27.2331   -3.9417 H   0  0  0  0  0  0
    5.9006   28.2683   -5.0486 H   0  0  0  0  0  0
    6.6694   27.6834   -3.5454 H   0  0  0  0  0  0
    6.7981   34.8309   -7.5366 H   0  0  0  0  0  0
    5.5010   33.6968   -7.9332 H   0  0  0  0  0  0
    6.6860   33.3108   -6.6586 H   0  0  0  0  0  0
  1  6  1  0  0  0
  1 14  1  0  0  0
  2  7  1  0  0  0
  2 26  1  0  0  0
  3 18  1  0  0  0
  3 27  1  0  0  0
  4 13  1  0  0  0
  4 16  1  0  0  0
  4 17  1  0  0  0
  5 16  2  0  0  0
  5 25  1  0  0  0
  6  7  1  0  0  0
  6  9  2  0  0  0
  7 10  2  0  0  0
  8  9  1  0  0  0
  8 11  2  0  0  0
  8 12  1  0  0  0
  9 28  1  0  0  0
 10 11  1  0  0  0
 10 29  1  0  0  0
 11 30  1  0  0  0
 12 13  1  0  0  0
 12 31  1  0  0  0
 12 32  1  0  0  0
 13 33  1  0  0  0
 13 34  1  0  0  0
 14 19  1  0  0  0
 14 35  1  0  0  0
 14 36  1  0  0  0
 15 20  1  0  0  0
 15 21  2  0  0  0
 15 22  1  0  0  0
 16 37  1  0  0  0
 17 25  2  0  0  0
 17 38  1  0  0  0
 18 23  2  0  0  0
 18 24  1  0  0  0
 19 20  1  0  0  0
 19 39  1  0  0  0
 19 40  1  0  0  0
 20 41  1  0  0  0
 20 42  1  0  0  0
 21 23  1  0  0  0
 21 43  1  0  0  0
 22 24  2  0  0  0
 22 44  1  0  0  0
 23 45  1  0  0  0
 24 46  1  0  0  0
 25 47  1  0  0  0
 26 48  1  0  0  0
 26 49  1  0  0  0
 26 50  1  0  0  0
 27 51  1  0  0  0
 27 52  1  0  0  0
 27 53  1  0  0  0
M  END
> <s_m_entry_id>
35939

> <s_m_entry_name>
dock_pv.95

> <s_m_Source_Path>
/home/csk/Desktop/cluster/DUD-E-result/cp2c9

> <s_m_Source_File>
dock_pv.maegz

> <i_m_Source_File_Index>
95

> <chembl_id>
CHEMBL1332270

> <chembl_pref_name>
None

> <i_lp_mmshare_version>
53161

> <i_f3d_flags>
0

> <r_lp_tautomer_probability>
1

> <s_lp_Force_Field>
OPLS_2005

> <r_lp_Energy>
25.514491

> <b_lp_Chiralities_Consistent>
1

> <s_lp_Variant>
CHEMBL3397_lig150-1

> <s_i_glide_gridfile>
glide-grid_1r9o

> <i_i_glide_lignum>
191

> <i_i_glide_rotatable_bonds>
10

> <r_i_docking_score>
-6.81342504899426

> <r_i_glide_ligand_efficiency>
-0.252349075888676

> <r_i_glide_ligand_efficiency_sa>
-0.757047226834328

> <r_i_glide_ligand_efficiency_ln>
-1.58605302331501

> <r_i_glide_gscore>
-6.81342504899426

> <r_i_glide_lipo>
-4.59521109051868

> <r_i_glide_hbond>
0

> <r_i_glide_metal>
0

> <r_i_glide_rewards>
-0.910544379635139

> <r_i_glide_evdw>
-45.2936058044434

> <r_i_glide_ecoul>
-1.12930977344513

> <r_i_glide_erotb>
1.14664496456565

> <r_i_glide_esite>
-0.0202377871671602

> <r_i_glide_emodel>
-63.1213183658904

> <r_i_glide_energy>
-46.4229155778885

> <r_i_glide_einternal>
6.39983987808228

> <i_i_glide_confnum>
56

> <i_i_glide_posenum>
312

> <r_i_glide_eff_state_penalty>
0

> <s_user_duplicate_titles>
CHEMBL3397_lig150

> <s_m_subgroup_title>
dock_pv

> <s_m_subgroupid>
dock_pv

> <b_m_subgroup_collapsed>
1

$$$$
690981
                    3D
 Schrodinger Suite 2021-1.
 32 34  0  0  1  0            999 V2000
    5.9104   34.0581   -6.1342 C   0  0  0  0  0  0
    4.7308   33.3277   -6.0565 C   0  0  0  0  0  0
    4.4885   32.5190   -4.9493 C   0  0  0  0  0  0
    5.4220   32.4184   -3.9041 C   0  0  0  0  0  0
    6.6300   33.1549   -3.9875 C   0  0  0  0  0  0
    6.8471   33.9700   -5.1078 C   0  0  0  0  0  0
    7.7101   33.0925   -2.9602 C   0  0  0  0  0  0
    8.3631   31.8877   -2.6826 C   0  0  0  0  0  0
    9.4128   31.8455   -1.7693 C   0  0  0  0  0  0
    9.8428   33.0074   -1.1410 C   0  0  0  0  0  0
    9.1994   34.2281   -1.3796 C   0  0  0  0  0  0
    8.1308   34.2499   -2.2882 C   0  0  0  0  0  0
    9.6613   35.4791   -0.6875 C   0  0  0  0  0  0
    9.1406   36.7672   -0.7760 C   0  0  0  0  0  0
    9.9755   37.5739   -0.0554 N   0  0  0  0  0  0
   10.9083   36.7302    0.4704 C   0  0  0  0  0  0
   10.7011   35.4801    0.1376 N   0  0  0  0  0  0
    5.0638   31.5567   -2.6814 C   0  0  0  0  0  0
    5.6947   30.3857   -2.7585 F   0  0  0  0  0  0
    5.3975   32.1597   -1.5415 F   0  0  0  0  0  0
    3.7554   31.2976   -2.6212 F   0  0  0  0  0  0
    9.9197   38.5816    0.0595 H   0  0  0  0  0  0
    6.1003   34.6891   -6.9903 H   0  0  0  0  0  0
    4.0024   33.3915   -6.8521 H   0  0  0  0  0  0
    3.5593   31.9685   -4.9124 H   0  0  0  0  0  0
    7.7639   34.5357   -5.1924 H   0  0  0  0  0  0
    8.0695   30.9788   -3.1869 H   0  0  0  0  0  0
    9.8979   30.9117   -1.5400 H   0  0  0  0  0  0
   10.6661   32.9434   -0.4445 H   0  0  0  0  0  0
    7.6168   35.1753   -2.4866 H   0  0  0  0  0  0
    8.3011   37.1750   -1.3085 H   0  0  0  0  0  0
   11.6915   37.1121    1.1084 H   0  0  0  0  0  0
  1  6  1  0  0  0
  1  2  2  0  0  0
  1 23  1  0  0  0
  2  3  1  0  0  0
  2 24  1  0  0  0
  3  4  2  0  0  0
  3 25  1  0  0  0
  4  5  1  0  0  0
  4 18  1  0  0  0
  5  6  2  0  0  0
  5  7  1  0  0  0
  6 26  1  0  0  0
  7 12  1  0  0  0
  7  8  2  0  0  0
  8  9  1  0  0  0
  8 27  1  0  0  0
  9 10  2  0  0  0
  9 28  1  0  0  0
 10 11  1  0  0  0
 10 29  1  0  0  0
 11 12  2  0  0  0
 11 13  1  0  0  0
 12 30  1  0  0  0
 13 17  1  0  0  0
 13 14  2  0  0  0
 14 15  1  0  0  0
 14 31  1  0  0  0
 15 22  1  0  0  0
 15 16  1  0  0  0
 16 17  2  0  0  0
 16 32  1  0  0  0
 18 19  1  0  0  0
 18 20  1  0  0  0
 18 21  1  0  0  0
M  END
> <s_m_entry_id>
36006

> <s_m_entry_name>
ligand_docking-pose.1

> <s_m_Source_Path>
/home/csk/Desktop/cluster/DUD-E-result/cp2c9

> <s_m_Source_File>
ligand_docking-pose.sdf

> <i_m_Source_File_Index>
1

> <i_lp_mmshare_version>
53161

> <r_lp_tautomer_probability>
0.499999999999999

> <s_lp_Force_Field>
OPLS_2005

> <r_lp_Energy>
21.2553

> <b_lp_Chiralities_Consistent>
1

> <s_lp_Variant>
690981-1

> <s_i_glide_gridfile>
glide-grid_1r9o

> <i_i_glide_lignum>
12

> <i_i_glide_rotatable_bonds>
3

> <r_i_docking_score>
-8.91112591908996

> <r_i_glide_ligand_efficiency>
-0.424339329480474

> <r_i_glide_ligand_efficiency_sa>
-1.17072003390494

> <r_i_glide_ligand_efficiency_ln>
-2.2032578768696

> <r_i_glide_gscore>
-8.91112591908996

> <r_i_glide_lipo>
-3.46433179433155

> <r_i_glide_hbond>
-0.32

> <r_i_glide_metal>
0

> <r_i_glide_rewards>
-3.592632839432

> <r_i_glide_evdw>
-33.015079498291

> <r_i_glide_ecoul>
-2.14134526252747

> <r_i_glide_erotb>
0.437794478967258

> <r_i_glide_esite>
0

> <r_i_glide_emodel>
-54.7918918298846

> <r_i_glide_energy>
-35.1564247608185

> <r_i_glide_einternal>
0.0832975283265114

> <i_i_glide_confnum>
1

> <i_i_glide_posenum>
338

> <r_i_glide_eff_state_penalty>
0

> <i_f3d_flags>
0

> <s_user_duplicate_titles>
690981

> <s_m_subgroup_title>
dock_pv

> <s_m_subgroupid>
dock_pv1

> <b_m_subgroup_collapsed>
0

$$$$
513340
                    3D
 Schrodinger Suite 2021-1.
 46 50  0  0  1  0            999 V2000
   10.1313   35.1470   -0.4661 C   0  0  0  0  0  0
   10.7010   33.8853   -0.3410 C   0  0  0  0  0  0
   10.1536   32.7690   -0.9630 C   0  0  0  0  0  0
    8.9000   32.8776   -1.5963 C   0  0  0  0  0  0
    8.2046   31.7376   -2.0676 C   0  0  0  0  0  0
    6.8814   31.8407   -2.4978 C   0  0  0  0  0  0
    6.2847   33.1086   -2.5244 C   0  0  0  0  0  0
    7.0086   34.2588   -2.2585 C   0  0  0  0  0  0
    8.2906   34.1637   -1.6992 C   0  0  0  0  0  0
    8.9457   35.3016   -1.1711 C   0  0  0  0  0  0
    6.2480   30.6248   -2.8447 N   0  0  0  0  0  0
    5.0519   30.3433   -3.4130 C   0  0  0  0  0  0
    4.7010   29.1750   -3.5410 O   0  0  0  0  0  0
    4.1422   31.4402   -3.9085 C   0  0  0  0  0  0
    2.9089   31.6184   -3.2767 C   0  0  0  0  0  0
    2.1109   32.7234   -3.5844 C   0  0  0  0  0  0
    2.4772   33.6265   -4.5324 N   0  0  0  0  0  0
    3.6745   33.4914   -5.1608 C   0  0  0  0  0  0
    4.5461   32.3882   -4.9056 C   0  0  0  0  0  0
    5.8181   32.3751   -5.5410 C   0  0  0  0  0  0
    6.2464   33.4650   -6.2822 C   0  0  0  0  0  0
    5.3834   34.5179   -6.5578 C   0  0  0  0  0  0
    4.0987   34.5325   -6.0212 C   0  0  0  0  0  0
    7.9010   33.5445   -6.7423 Cl  0  0  0  0  0  0
    0.8556   33.0311   -2.8276 C   0  0  0  0  0  0
    0.1120   32.0137   -2.2051 C   0  0  0  0  0  0
   -1.0722   32.3362   -1.5410 C   0  0  0  0  0  0
   -1.5426   33.6034   -1.4453 N   0  0  0  0  0  0
   -0.8153   34.5900   -2.0200 C   0  0  0  0  0  0
    0.3703   34.3472   -2.7129 C   0  0  0  0  0  0
   10.5946   36.0011    0.0070 H   0  0  0  0  0  0
   11.5967   33.7652    0.2492 H   0  0  0  0  0  0
   10.6196   31.7992   -0.8640 H   0  0  0  0  0  0
    8.6886   30.7750   -2.0020 H   0  0  0  0  0  0
    5.2456   33.2683   -2.7355 H   0  0  0  0  0  0
    6.5309   35.2229   -2.3410 H   0  0  0  0  0  0
    8.4798   36.2739   -1.2473 H   0  0  0  0  0  0
    6.7840   29.7998   -2.6219 H   0  0  0  0  0  0
    2.6152   30.9394   -2.4896 H   0  0  0  0  0  0
    6.5165   31.5758   -5.3436 H   0  0  0  0  0  0
    5.7242   35.3537   -7.1521 H   0  0  0  0  0  0
    3.4471   35.3741   -6.2093 H   0  0  0  0  0  0
    0.4163   30.9798   -2.2590 H   0  0  0  0  0  0
   -1.6692   31.5727   -1.0639 H   0  0  0  0  0  0
   -1.2014   35.5936   -1.9189 H   0  0  0  0  0  0
    0.9029   35.1790   -3.1484 H   0  0  0  0  0  0
  1 10  1  0  0  0
  1  2  2  0  0  0
  1 31  1  0  0  0
  2  3  1  0  0  0
  2 32  1  0  0  0
  3  4  2  0  0  0
  3 33  1  0  0  0
  4  9  1  0  0  0
  4  5  1  0  0  0
  5  6  2  0  0  0
  5 34  1  0  0  0
  6  7  1  0  0  0
  6 11  1  0  0  0
  7  8  2  0  0  0
  7 35  1  0  0  0
  8  9  1  0  0  0
  8 36  1  0  0  0
  9 10  2  0  0  0
 10 37  1  0  0  0
 11 12  1  0  0  0
 11 38  1  0  0  0
 12 13  2  0  0  0
 12 14  1  0  0  0
 14 19  1  0  0  0
 14 15  2  0  0  0
 15 16  1  0  0  0
 15 39  1  0  0  0
 16 17  2  0  0  0
 16 25  1  0  0  0
 17 18  1  0  0  0
 18 23  2  0  0  0
 18 19  1  0  0  0
 19 20  2  0  0  0
 20 21  1  0  0  0
 20 40  1  0  0  0
 21 22  2  0  0  0
 21 24  1  0  0  0
 22 23  1  0  0  0
 22 41  1  0  0  0
 23 42  1  0  0  0
 25 30  1  0  0  0
 25 26  2  0  0  0
 26 27  1  0  0  0
 26 43  1  0  0  0
 27 28  2  0  0  0
 27 44  1  0  0  0
 28 29  1  0  0  0
 29 30  2  0  0  0
 29 45  1  0  0  0
 30 46  1  0  0  0
M  END
> <s_m_entry_id>
36007

> <s_m_entry_name>
ligand_docking-pose.2

> <s_m_Source_Path>
/home/csk/Desktop/cluster/DUD-E-result/cp2c9

> <s_m_Source_File>
ligand_docking-pose.sdf

> <i_m_Source_File_Index>
2

> <i_lp_mmshare_version>
53161

> <r_lp_tautomer_probability>
1

> <s_lp_Force_Field>
OPLS_2005

> <r_lp_Energy>
31.918649

> <b_lp_Chiralities_Consistent>
1

> <s_lp_Variant>
513340-1

> <s_i_glide_gridfile>
glide-grid_1r9o

> <i_i_glide_lignum>
11

> <i_i_glide_rotatable_bonds>
4

> <r_i_docking_score>
-8.50775381680883

> <r_i_glide_ligand_efficiency>
-0.283591793893628

> <r_i_glide_ligand_efficiency_sa>
-0.881185639409018

> <r_i_glide_ligand_efficiency_ln>
-1.93305436658144

> <r_i_glide_gscore>
-8.50775381680883

> <r_i_glide_lipo>
-6.18568279105917

> <r_i_glide_hbond>
0

> <r_i_glide_metal>
0

> <r_i_glide_rewards>
-0.134315927987595

> <r_i_glide_evdw>
-50.8518714904785

> <r_i_glide_ecoul>
-0.760744750499725

> <r_i_glide_erotb>
0.468950189336816

> <r_i_glide_esite>
0

> <r_i_glide_emodel>
-66.6168089208424

> <r_i_glide_energy>
-51.6126162409782

> <r_i_glide_einternal>
10.0287847518921

> <i_i_glide_confnum>
24

> <i_i_glide_posenum>
318

> <r_i_glide_eff_state_penalty>
0

> <i_f3d_flags>
0

> <s_user_duplicate_titles>
513340

> <s_m_subgroup_title>
dock_pv

> <s_m_subgroupid>
dock_pv1

> <b_m_subgroup_collapsed>
0

$$$$
430088
                    3D
 Schrodinger Suite 2021-1.
 53 55  0  0  1  0            999 V2000
    0.8330   32.8921   -2.3661 C   0  0  0  0  0  0
    1.6984   33.9759   -2.6791 O   0  0  0  0  0  0
    2.6305   33.8337   -3.6873 C   0  0  0  0  0  0
    3.5815   34.8442   -3.7913 C   0  0  0  0  0  0
    4.5951   34.7738   -4.7346 C   0  0  0  0  0  0
    4.6558   33.6963   -5.6173 C   0  0  0  0  0  0
    3.6911   32.6879   -5.5437 C   0  0  0  0  0  0
    2.6790   32.7586   -4.5858 C   0  0  0  0  0  0
    5.7646   33.6473   -6.6635 C   0  0  0  0  0  0
    7.1803   33.5389   -6.0569 C   0  0  0  0  0  0
    7.5007   32.1626   -5.4398 C   0  0  0  0  0  0
    8.3014   32.3039   -4.2679 O   0  0  0  0  0  0
    7.5950   32.5275   -3.0455 C   0  0  1  0  0  0
    7.3651   31.1867   -2.3141 C   0  0  0  0  0  0
    6.2649   30.4399   -2.8828 N   0  0  0  0  0  0
    4.9430   30.7877   -2.8676 C   0  0  0  0  0  0
    4.2989   29.7692   -3.5416 C   0  0  0  0  0  0
    5.1279   28.8237   -3.9410 N   0  0  0  0  0  0
    6.3040   29.2351   -3.5395 C   0  0  0  0  0  0
    8.4085   33.4812   -2.1760 C   0  0  0  0  0  0
    9.5955   33.0570   -1.5761 C   0  0  0  0  0  0
   10.3017   33.9263   -0.7556 C   0  0  0  0  0  0
    9.8761   35.2382   -0.5608 C   0  0  0  0  0  0
    8.6732   35.6530   -1.1444 C   0  0  0  0  0  0
    7.9425   34.7756   -1.9412 C   0  0  0  0  0  0
   10.6942   36.0507    0.1992 O   0  0  0  0  0  0
   10.3761   37.4351    0.3118 C   0  0  0  0  0  0
    0.3037   33.1149   -1.4400 H   0  0  0  0  0  0
    1.3797   31.9599   -2.2141 H   0  0  0  0  0  0
    0.0825   32.7504   -3.1411 H   0  0  0  0  0  0
    3.5354   35.7015   -3.1408 H   0  0  0  0  0  0
    5.3286   35.5636   -4.7660 H   0  0  0  0  0  0
    3.7225   31.8486   -6.2237 H   0  0  0  0  0  0
    1.9416   31.9745   -4.5483 H   0  0  0  0  0  0
    5.5914   32.8359   -7.3714 H   0  0  0  0  0  0
    5.6934   34.5620   -7.2534 H   0  0  0  0  0  0
    7.9199   33.7514   -6.8291 H   0  0  0  0  0  0
    7.3203   34.3252   -5.3150 H   0  0  0  0  0  0
    6.5974   31.5869   -5.2409 H   0  0  0  0  0  0
    8.0656   31.5749   -6.1629 H   0  0  0  0  0  0
    6.6347   33.0147   -3.2374 H   0  0  0  0  0  0
    8.2607   30.5652   -2.3390 H   0  0  0  0  0  0
    7.1234   31.3738   -1.2692 H   0  0  0  0  0  0
    4.5985   31.7018   -2.4051 H   0  0  0  0  0  0
    3.2384   29.7093   -3.7279 H   0  0  0  0  0  0
    7.2402   28.7113   -3.6589 H   0  0  0  0  0  0
    9.9684   32.0552   -1.7333 H   0  0  0  0  0  0
   11.2054   33.5792   -0.2778 H   0  0  0  0  0  0
    8.2940   36.6531   -1.0013 H   0  0  0  0  0  0
    7.0170   35.1138   -2.3843 H   0  0  0  0  0  0
   11.1690   37.9427    0.8586 H   0  0  0  0  0  0
   10.3007   37.9163   -0.6648 H   0  0  0  0  0  0
    9.4436   37.5875    0.8572 H   0  0  0  0  0  0
  1  2  1  0  0  0
  1 28  1  0  0  0
  1 29  1  0  0  0
  1 30  1  0  0  0
  2  3  1  0  0  0
  3  8  1  0  0  0
  3  4  2  0  0  0
  4  5  1  0  0  0
  4 31  1  0  0  0
  5  6  2  0  0  0
  5 32  1  0  0  0
  6  7  1  0  0  0
  6  9  1  0  0  0
  7  8  2  0  0  0
  7 33  1  0  0  0
  8 34  1  0  0  0
  9 10  1  0  0  0
  9 35  1  0  0  0
  9 36  1  0  0  0
 10 11  1  0  0  0
 10 37  1  0  0  0
 10 38  1  0  0  0
 11 12  1  0  0  0
 11 39  1  0  0  0
 11 40  1  0  0  0
 12 13  1  0  0  0
 13 14  1  0  0  0
 13 20  1  0  0  0
 13 41  1  0  0  0
 14 15  1  0  0  0
 14 42  1  0  0  0
 14 43  1  0  0  0
 15 19  1  0  0  0
 15 16  1  0  0  0
 16 17  2  0  0  0
 16 44  1  0  0  0
 17 18  1  0  0  0
 17 45  1  0  0  0
 18 19  2  0  0  0
 19 46  1  0  0  0
 20 25  1  0  0  0
 20 21  2  0  0  0
 21 22  1  0  0  0
 21 47  1  0  0  0
 22 23  2  0  0  0
 22 48  1  0  0  0
 23 24  1  0  0  0
 23 26  1  0  0  0
 24 25  2  0  0  0
 24 49  1  0  0  0
 25 50  1  0  0  0
 26 27  1  0  0  0
 27 51  1  0  0  0
 27 52  1  0  0  0
 27 53  1  0  0  0
M  END
> <s_m_entry_id>
36008

> <s_m_entry_name>
ligand_docking-pose.3

> <s_m_Source_Path>
/home/csk/Desktop/cluster/DUD-E-result/cp2c9

> <s_m_Source_File>
ligand_docking-pose.sdf

> <i_m_Source_File_Index>
3

> <i_lp_mmshare_version>
53161

> <r_lp_tautomer_probability>
1

> <s_lp_Force_Field>
OPLS_2005

> <r_lp_Energy>
22.140296

> <b_lp_Chiralities_Consistent>
1

> <s_lp_Variant>
430088-2

> <s_i_glide_gridfile>
glide-grid_1r9o

> <i_i_glide_lignum>
168

> <i_i_glide_rotatable_bonds>
10

> <r_i_docking_score>
-8.49828891521262

> <r_i_glide_ligand_efficiency>
-0.314751441304171

> <r_i_glide_ligand_efficiency_sa>
-0.944254322875144

> <r_i_glide_ligand_efficiency_ln>
-1.97826155421891

> <r_i_glide_gscore>
-8.49828891521262

> <r_i_glide_lipo>
-5.37899094826042

> <r_i_glide_hbond>
0

> <r_i_glide_metal>
0

> <r_i_glide_rewards>
-1.88798496459414

> <r_i_glide_evdw>
-45.5648155212402

> <r_i_glide_ecoul>
-0.664781272411346

> <r_i_glide_erotb>
1.14664496456565

> <r_i_glide_esite>
0

> <r_i_glide_emodel>
-62.5075459943128

> <r_i_glide_energy>
-46.2295967936516

> <r_i_glide_einternal>
13.5073223114014

> <i_i_glide_confnum>
36

> <i_i_glide_posenum>
231

> <r_i_glide_eff_state_penalty>
0

> <i_f3d_flags>
0

> <s_user_duplicate_titles>
430088

> <s_m_subgroup_title>
dock_pv

> <s_m_subgroupid>
dock_pv1

> <b_m_subgroup_collapsed>
0

$$$$
513342
                    3D
 Schrodinger Suite 2021-1.
 46 50  0  0  1  0            999 V2000
   10.1363   35.1207   -0.4526 C   0  0  0  0  0  0
   10.7010   33.8555   -0.3410 C   0  0  0  0  0  0
   10.1522   32.7497   -0.9804 C   0  0  0  0  0  0
    8.9025   32.8713   -1.6186 C   0  0  0  0  0  0
    8.2070   31.7401   -2.1093 C   0  0  0  0  0  0
    6.8854   31.8523   -2.5413 C   0  0  0  0  0  0
    6.2915   33.1216   -2.5543 C   0  0  0  0  0  0
    7.0170   34.2665   -2.2692 C   0  0  0  0  0  0
    8.2970   34.1604   -1.7061 C   0  0  0  0  0  0
    8.9538   35.2889   -1.1600 C   0  0  0  0  0  0
    6.2539   30.6402   -2.9006 N   0  0  0  0  0  0
    5.0411   30.3521   -3.4268 C   0  0  0  0  0  0
    4.7010   29.1782   -3.5410 O   0  0  0  0  0  0
    4.0966   31.4400   -3.8808 C   0  0  0  0  0  0
    2.8722   31.5750   -3.2205 C   0  0  0  0  0  0
    2.0288   32.6508   -3.5078 C   0  0  0  0  0  0
    2.3438   33.5750   -4.4515 N   0  0  0  0  0  0
    3.5325   33.4890   -5.1001 C   0  0  0  0  0  0
    4.4459   32.4124   -4.8771 C   0  0  0  0  0  0
    5.7029   32.4539   -5.5397 C   0  0  0  0  0  0
    6.0796   33.5783   -6.2572 C   0  0  0  0  0  0
    5.1751   34.6018   -6.5049 C   0  0  0  0  0  0
    3.9010   34.5585   -5.9487 C   0  0  0  0  0  0
    7.9010   33.7690   -6.7410 Br  0  0  0  0  0  0
    0.7635   32.8957   -2.7503 C   0  0  0  0  0  0
    0.2319   34.1915   -2.6101 C   0  0  0  0  0  0
   -0.9781   34.3702   -1.9410 C   0  0  0  0  0  0
   -1.6846   33.3396   -1.4194 N   0  0  0  0  0  0
   -1.1647   32.0936   -1.5387 C   0  0  0  0  0  0
    0.0469   31.8334   -2.1762 C   0  0  0  0  0  0
   10.6012   35.9665    0.0335 H   0  0  0  0  0  0
   11.5955   33.7249    0.2492 H   0  0  0  0  0  0
   10.6151   31.7771   -0.8932 H   0  0  0  0  0  0
    8.6881   30.7750   -2.0542 H   0  0  0  0  0  0
    5.2543   33.2876   -2.7667 H   0  0  0  0  0  0
    6.5426   35.2329   -2.3410 H   0  0  0  0  0  0
    8.4914   36.2637   -1.2251 H   0  0  0  0  0  0
    6.8024   29.8164   -2.7052 H   0  0  0  0  0  0
    2.6124   30.8773   -2.4379 H   0  0  0  0  0  0
    6.4361   31.6814   -5.3646 H   0  0  0  0  0  0
    5.4764   35.4588   -7.0909 H   0  0  0  0  0  0
    3.2141   35.3756   -6.1151 H   0  0  0  0  0  0
    0.7395   35.0533   -3.0191 H   0  0  0  0  0  0
   -1.4060   35.3549   -1.8230 H   0  0  0  0  0  0
   -1.7395   31.2918   -1.1012 H   0  0  0  0  0  0
    0.3893   30.8130   -2.2565 H   0  0  0  0  0  0
  1 10  1  0  0  0
  1  2  2  0  0  0
  1 31  1  0  0  0
  2  3  1  0  0  0
  2 32  1  0  0  0
  3  4  2  0  0  0
  3 33  1  0  0  0
  4  9  1  0  0  0
  4  5  1  0  0  0
  5  6  2  0  0  0
  5 34  1  0  0  0
  6  7  1  0  0  0
  6 11  1  0  0  0
  7  8  2  0  0  0
  7 35  1  0  0  0
  8  9  1  0  0  0
  8 36  1  0  0  0
  9 10  2  0  0  0
 10 37  1  0  0  0
 11 12  1  0  0  0
 11 38  1  0  0  0
 12 13  2  0  0  0
 12 14  1  0  0  0
 14 19  1  0  0  0
 14 15  2  0  0  0
 15 16  1  0  0  0
 15 39  1  0  0  0
 16 17  2  0  0  0
 16 25  1  0  0  0
 17 18  1  0  0  0
 18 23  2  0  0  0
 18 19  1  0  0  0
 19 20  2  0  0  0
 20 21  1  0  0  0
 20 40  1  0  0  0
 21 22  2  0  0  0
 21 24  1  0  0  0
 22 23  1  0  0  0
 22 41  1  0  0  0
 23 42  1  0  0  0
 25 30  1  0  0  0
 25 26  2  0  0  0
 26 27  1  0  0  0
 26 43  1  0  0  0
 27 28  2  0  0  0
 27 44  1  0  0  0
 28 29  1  0  0  0
 29 30  2  0  0  0
 29 45  1  0  0  0
 30 46  1  0  0  0
M  END
> <s_m_entry_id>
36009

> <s_m_entry_name>
ligand_docking-pose.4

> <s_m_Source_Path>
/home/csk/Desktop/cluster/DUD-E-result/cp2c9

> <s_m_Source_File>
ligand_docking-pose.sdf

> <i_m_Source_File_Index>
4

> <i_lp_mmshare_version>
53161

> <r_lp_tautomer_probability>
1

> <s_lp_Force_Field>
OPLS_2005

> <r_lp_Energy>
32.015984

> <b_lp_Chiralities_Consistent>
1

> <s_lp_Variant>
513342-1

> <s_i_glide_gridfile>
glide-grid_1r9o

> <i_i_glide_lignum>
9

> <i_i_glide_rotatable_bonds>
4

> <r_i_docking_score>
-8.30007620739476

> <r_i_glide_ligand_efficiency>
-0.276669206913159

> <r_i_glide_ligand_efficiency_sa>
-0.859675552142399

> <r_i_glide_ligand_efficiency_ln>
-1.88586775089377

> <r_i_glide_gscore>
-8.30007620739476

> <r_i_glide_lipo>
-6.24006494490262

> <r_i_glide_hbond>
0

> <r_i_glide_metal>
0

> <r_i_glide_rewards>
0.190458929097312

> <r_i_glide_evdw>
-51.447883605957

> <r_i_glide_ecoul>
-0.448113948106766

> <r_i_glide_erotb>
0.389141080924413

> <r_i_glide_esite>
0

> <r_i_glide_emodel>
-65.1944638129375

> <r_i_glide_energy>
-51.8959975540638

> <r_i_glide_einternal>
10.4723720550537

> <i_i_glide_confnum>
59

> <i_i_glide_posenum>
341

> <r_i_glide_eff_state_penalty>
0

> <i_f3d_flags>
0

> <s_user_duplicate_titles>
513342

> <s_m_subgroup_title>
dock_pv

> <s_m_subgroupid>
dock_pv1

> <b_m_subgroup_collapsed>
0

$$$$
590212
                    3D
 Schrodinger Suite 2021-1.
 54 56  0  0  1  0            999 V2000
    8.3526   36.7540   -0.1595 C   0  0  0  0  0  0
    9.6550   35.9288   -0.2320 C   0  0  0  0  0  0
   10.8684   36.8932   -0.1376 C   0  0  0  0  0  0
    9.7580   34.9442   -1.4401 C   0  0  0  0  0  0
   10.7008   35.0750   -2.2214 O   0  0  0  0  0  0
    8.8815   33.9158   -1.5787 N   0  0  0  0  0  0
    9.0972   32.8072   -2.5104 C   0  0  0  0  0  0
    7.8944   31.8864   -2.2647 C   0  0  0  0  0  0
    6.7684   32.7384   -1.6564 C   0  0  1  0  0  0
    7.5015   33.9774   -1.1061 C   0  0  0  0  0  0
    5.7010   33.1094   -2.6143 N   0  0  0  0  0  0
    6.1254   33.6802   -3.8952 C   0  0  0  0  0  0
    5.5447   33.0413   -5.1617 C   0  0  0  0  0  0
    4.6303   31.9752   -5.0856 C   0  0  0  0  0  0
    3.9008   31.5755   -6.1881 C   0  0  0  0  0  0
    4.1891   32.1272   -7.4226 C   0  0  0  0  0  0
    5.1684   33.1018   -7.5410 C   0  0  0  0  0  0
    5.8773   33.5597   -6.4294 C   0  0  0  0  0  0
    7.0115   34.5640   -6.6728 C   0  0  0  0  0  0
    6.6552   35.5125   -7.5404 F   0  0  0  0  0  0
    7.4483   35.1750   -5.5929 F   0  0  0  0  0  0
    8.0568   33.8929   -7.1408 F   0  0  0  0  0  0
    4.3051   33.0448   -2.3041 C   0  0  0  0  0  0
    3.8265   32.1815   -1.3122 C   0  0  0  0  0  0
    2.4606   31.9750   -1.1411 C   0  0  0  0  0  0
    1.5220   32.6244   -1.9339 C   0  0  0  0  0  0
    1.9669   33.5309   -2.9020 C   0  0  0  0  0  0
    3.3396   33.7427   -3.0671 C   0  0  0  0  0  0
    0.8619   34.3738   -3.9356 Cl  0  0  0  0  0  0
    0.1118   32.3158   -1.7202 C   0  0  0  0  0  0
   -1.0033   32.0642   -1.5429 N   0  0  0  0  0  0
    6.3858   32.1869   -0.8099 H   0  0  0  0  0  0
    7.5019   36.1846    0.2068 H   0  0  0  0  0  0
    8.0951   37.1731   -1.1305 H   0  0  0  0  0  0
    8.4561   37.5750    0.5464 H   0  0  0  0  0  0
    9.7029   35.3149    0.6681 H   0  0  0  0  0  0
   11.8115   36.3582   -0.0311 H   0  0  0  0  0  0
   10.9469   37.5248   -1.0244 H   0  0  0  0  0  0
   10.7905   37.5617    0.7202 H   0  0  0  0  0  0
    9.1239   33.1687   -3.5387 H   0  0  0  0  0  0
   10.0466   32.3031   -2.3187 H   0  0  0  0  0  0
    7.6028   31.3512   -3.1697 H   0  0  0  0  0  0
    8.1786   31.1213   -1.5428 H   0  0  0  0  0  0
    7.5009   33.9780   -0.0190 H   0  0  0  0  0  0
    7.0669   34.8789   -1.5391 H   0  0  0  0  0  0
    5.8745   34.7417   -3.8803 H   0  0  0  0  0  0
    7.2031   33.6370   -3.9823 H   0  0  0  0  0  0
    4.4190   31.4602   -4.1638 H   0  0  0  0  0  0
    3.1664   30.7952   -6.0850 H   0  0  0  0  0  0
    3.6649   31.7772   -8.2990 H   0  0  0  0  0  0
    5.3788   33.4845   -8.5234 H   0  0  0  0  0  0
    4.4876   31.5967   -0.6954 H   0  0  0  0  0  0
    2.1366   31.2789   -0.3790 H   0  0  0  0  0  0
    3.6439   34.4350   -3.8359 H   0  0  0  0  0  0
  1  2  1  0  0  0
  1 33  1  0  0  0
  1 34  1  0  0  0
  1 35  1  0  0  0
  2  3  1  0  0  0
  2  4  1  0  0  0
  2 36  1  0  0  0
  3 37  1  0  0  0
  3 38  1  0  0  0
  3 39  1  0  0  0
  4  5  2  0  0  0
  4  6  1  0  0  0
  6 10  1  0  0  0
  6  7  1  0  0  0
  7  8  1  0  0  0
  7 40  1  0  0  0
  7 41  1  0  0  0
  8  9  1  0  0  0
  8 42  1  0  0  0
  8 43  1  0  0  0
  9 32  1  0  0  0
  9 10  1  0  0  0
  9 11  1  0  0  0
 10 44  1  0  0  0
 10 45  1  0  0  0
 11 12  1  0  0  0
 11 23  1  0  0  0
 12 13  1  0  0  0
 12 46  1  0  0  0
 12 47  1  0  0  0
 13 18  1  0  0  0
 13 14  2  0  0  0
 14 15  1  0  0  0
 14 48  1  0  0  0
 15 16  2  0  0  0
 15 49  1  0  0  0
 16 17  1  0  0  0
 16 50  1  0  0  0
 17 18  2  0  0  0
 17 51  1  0  0  0
 18 19  1  0  0  0
 19 20  1  0  0  0
 19 21  1  0  0  0
 19 22  1  0  0  0
 23 28  1  0  0  0
 23 24  2  0  0  0
 24 25  1  0  0  0
 24 52  1  0  0  0
 25 26  2  0  0  0
 25 53  1  0  0  0
 26 27  1  0  0  0
 26 30  1  0  0  0
 27 28  2  0  0  0
 27 29  1  0  0  0
 28 54  1  0  0  0
 30 31  3  0  0  0
M  END
> <s_m_entry_id>
36010

> <s_m_entry_name>
ligand_docking-pose.5

> <s_m_Source_Path>
/home/csk/Desktop/cluster/DUD-E-result/cp2c9

> <s_m_Source_File>
ligand_docking-pose.sdf

> <i_m_Source_File_Index>
5

> <i_lp_mmshare_version>
53161

> <r_lp_tautomer_probability>
1

> <s_lp_Force_Field>
OPLS_2005

> <r_lp_Energy>
49.651002

> <b_lp_Chiralities_Consistent>
1

> <s_lp_Variant>
590212-1

> <s_i_glide_gridfile>
glide-grid_1r9o

> <i_i_glide_lignum>
132

> <i_i_glide_rotatable_bonds>
7

> <r_i_docking_score>
-8.24358140433217

> <r_i_glide_ligand_efficiency>
-0.265921980784909

> <r_i_glide_ligand_efficiency_sa>
-0.8353621645271

> <r_i_glide_ligand_efficiency_ln>
-1.85918024210658

> <r_i_glide_gscore>
-8.24358140433217

> <r_i_glide_lipo>
-4.87851723265231

> <r_i_glide_hbond>
-0.16

> <r_i_glide_metal>
0

> <r_i_glide_rewards>
-1.80765710864598

> <r_i_glide_evdw>
-29.284688949585

> <r_i_glide_ecoul>
-2.8555326461792

> <r_i_glide_erotb>
0.495157281372242

> <r_i_glide_esite>
0

> <r_i_glide_emodel>
-34.4498177748047

> <r_i_glide_energy>
-32.1402215957642

> <r_i_glide_einternal>
13.676926612854

> <i_i_glide_confnum>
58

> <i_i_glide_posenum>
124

> <r_i_glide_eff_state_penalty>
0

> <i_f3d_flags>
0

> <s_user_duplicate_titles>
590212

> <s_m_subgroup_title>
dock_pv

> <s_m_subgroupid>
dock_pv1

> <b_m_subgroup_collapsed>
0

$$$$
611817
                    3D
 Schrodinger Suite 2021-1.
 59 62  0  0  1  0            999 V2000
    4.1460   34.2258   -6.5935 C   0  0  0  0  0  0
    5.4732   34.0051   -5.9013 C   0  0  0  0  0  0
    6.4167   33.1866   -6.5244 C   0  0  0  0  0  0
    7.6078   32.8716   -5.8847 C   0  0  0  0  0  0
    7.8566   33.3654   -4.6085 C   0  0  0  0  0  0
    6.9231   34.1841   -3.9662 C   0  0  0  0  0  0
    5.7314   34.5512   -4.6313 C   0  0  0  0  0  0
    4.6960   35.4834   -3.9634 C   0  0  0  0  0  0
    3.4253   34.8927   -3.5410 N   0  0  0  0  0  0
    3.2130   33.5726   -3.1228 C   0  0  0  0  0  0
    1.9463   33.0564   -2.7969 C   0  0  0  0  0  0
    1.8032   31.6465   -2.6545 C   0  0  0  0  0  0
    2.9468   30.8334   -2.7829 C   0  0  0  0  0  0
    4.2007   31.4259   -2.8979 C   0  0  0  0  0  0
    4.2909   32.7603   -3.0517 N   0  0  0  0  0  0
    5.4175   30.6697   -2.8800 N   0  0  0  0  0  0
    6.5590   31.2525   -2.3416 C   0  0  0  0  0  0
    7.8155   30.7805   -2.4764 C   0  0  0  0  0  0
    7.9594   29.5002   -3.1408 C   0  0  0  0  0  0
    6.8485   28.8499   -3.5409 C   0  0  0  0  0  0
    5.5391   29.4848   -3.5858 C   0  0  0  0  0  0
    4.7010   28.9919   -4.3316 O   0  0  0  0  0  0
    0.4116   31.3816   -2.4426 C   0  0  0  0  0  0
   -0.2111   32.5993   -2.2921 C   0  0  0  0  0  0
    0.6838   33.6200   -2.5786 N   0  0  0  0  0  0
    0.3180   35.0425   -2.6793 C   0  0  0  0  0  0
   -0.5470   35.5562   -1.5402 C   0  0  0  0  0  0
   -1.3459   36.6323   -1.5411 C   0  0  0  0  0  0
   -1.6751   32.8278   -1.9399 C   0  0  0  0  0  0
   -0.2892   30.0504   -2.3853 C   0  0  0  0  0  0
    7.1815   34.5454   -2.5067 C   0  0  0  0  0  0
    4.1177   33.6974   -7.5411 H   0  0  0  0  0  0
    3.3313   33.8291   -5.9890 H   0  0  0  0  0  0
    3.9603   35.2889   -6.7407 H   0  0  0  0  0  0
    6.2213   32.7769   -7.5045 H   0  0  0  0  0  0
    8.3263   32.2246   -6.3666 H   0  0  0  0  0  0
    8.7662   33.0737   -4.1043 H   0  0  0  0  0  0
    4.3549   36.2141   -4.6953 H   0  0  0  0  0  0
    5.1349   36.0451   -3.1408 H   0  0  0  0  0  0
    2.6217   35.5011   -3.5616 H   0  0  0  0  0  0
    2.8683   29.7640   -2.7423 H   0  0  0  0  0  0
    6.3465   32.1449   -1.7741 H   0  0  0  0  0  0
    8.6598   31.2757   -2.0186 H   0  0  0  0  0  0
    8.9217   29.0129   -3.1786 H   0  0  0  0  0  0
    6.9270   27.8510   -3.9452 H   0  0  0  0  0  0
    1.2134   35.6543   -2.6729 H   0  0  0  0  0  0
   -0.1801   35.1759   -3.6408 H   0  0  0  0  0  0
   -0.5003   34.9829   -0.6260 H   0  0  0  0  0  0
   -1.9180   36.8858   -0.6608 H   0  0  0  0  0  0
   -1.4396   37.2782   -2.3945 H   0  0  0  0  0  0
   -2.2970   32.0072   -2.2899 H   0  0  0  0  0  0
   -1.8132   32.8926   -0.8603 H   0  0  0  0  0  0
   -2.1145   33.7222   -2.3743 H   0  0  0  0  0  0
   -0.6418   29.8477   -1.3814 H   0  0  0  0  0  0
   -1.1744   30.0633   -3.0148 H   0  0  0  0  0  0
    0.3008   29.2100   -2.7413 H   0  0  0  0  0  0
    7.9403   33.9026   -2.0585 H   0  0  0  0  0  0
    7.4754   35.5752   -2.3411 H   0  0  0  0  0  0
    6.2689   34.3769   -1.9413 H   0  0  0  0  0  0
  1  2  1  0  0  0
  1 32  1  0  0  0
  1 33  1  0  0  0
  1 34  1  0  0  0
  2  7  1  0  0  0
  2  3  2  0  0  0
  3  4  1  0  0  0
  3 35  1  0  0  0
  4  5  2  0  0  0
  4 36  1  0  0  0
  5  6  1  0  0  0
  5 37  1  0  0  0
  6  7  2  0  0  0
  6 31  1  0  0  0
  7  8  1  0  0  0
  8  9  1  0  0  0
  8 38  1  0  0  0
  8 39  1  0  0  0
  9 10  1  0  0  0
  9 40  1  0  0  0
 10 15  2  0  0  0
 10 11  1  0  0  0
 11 25  1  0  0  0
 11 12  2  0  0  0
 12 13  1  0  0  0
 12 23  1  0  0  0
 13 14  2  0  0  0
 13 41  1  0  0  0
 14 15  1  0  0  0
 14 16  1  0  0  0
 16 21  1  0  0  0
 16 17  1  0  0  0
 17 18  2  0  0  0
 17 42  1  0  0  0
 18 19  1  0  0  0
 18 43  1  0  0  0
 19 20  2  0  0  0
 19 44  1  0  0  0
 20 21  1  0  0  0
 20 45  1  0  0  0
 21 22  2  0  0  0
 23 24  2  0  0  0
 23 30  1  0  0  0
 24 25  1  0  0  0
 24 29  1  0  0  0
 25 26  1  0  0  0
 26 27  1  0  0  0
 26 46  1  0  0  0
 26 47  1  0  0  0
 27 28  2  0  0  0
 27 48  1  0  0  0
 28 49  1  0  0  0
 28 50  1  0  0  0
 29 51  1  0  0  0
 29 52  1  0  0  0
 29 53  1  0  0  0
 30 54  1  0  0  0
 30 55  1  0  0  0
 30 56  1  0  0  0
 31 57  1  0  0  0
 31 58  1  0  0  0
 31 59  1  0  0  0
M  END
> <s_m_entry_id>
36011

> <s_m_entry_name>
ligand_docking-pose.6

> <s_m_Source_Path>
/home/csk/Desktop/cluster/DUD-E-result/cp2c9

> <s_m_Source_File>
ligand_docking-pose.sdf

> <i_m_Source_File_Index>
6

> <i_lp_mmshare_version>
53161

> <r_lp_tautomer_probability>
1

> <s_lp_Force_Field>
OPLS_2005

> <r_lp_Energy>
33.989319

> <b_lp_Chiralities_Consistent>
1

> <s_lp_Variant>
611817-1

> <s_i_glide_gridfile>
glide-grid_1r9o

> <i_i_glide_lignum>
58

> <i_i_glide_rotatable_bonds>
6

> <r_i_docking_score>
-8.11991738313221

> <r_i_glide_ligand_efficiency>
-0.261932818810717

> <r_i_glide_ligand_efficiency_sa>
-0.822830688296462

> <r_i_glide_ligand_efficiency_ln>
-1.83129021547888

> <r_i_glide_gscore>
-8.11991738313221

> <r_i_glide_lipo>
-6.2727852570394

> <r_i_glide_hbond>
0

> <r_i_glide_metal>
0

> <r_i_glide_rewards>
-0.906633997065128

> <r_i_glide_evdw>
-33.0945014953613

> <r_i_glide_ecoul>
0.126430347561836

> <r_i_glide_erotb>
0.695262393606107

> <r_i_glide_esite>
0

> <r_i_glide_emodel>
-55.8334703251017

> <r_i_glide_energy>
-32.9680711477995

> <r_i_glide_einternal>
18.6445598602295

> <i_i_glide_confnum>
36

> <i_i_glide_posenum>
246

> <r_i_glide_eff_state_penalty>
0

> <i_f3d_flags>
0

> <s_user_duplicate_titles>
611817

> <s_m_subgroup_title>
dock_pv

> <s_m_subgroupid>
dock_pv1

> <b_m_subgroup_collapsed>
0

$$$$
520282
                    3D
 Schrodinger Suite 2021-1.
 44 47  0  0  1  0            999 V2000
    0.8078   33.0160   -1.9435 C   0  0  0  0  0  0
    0.5979   33.7130   -3.1282 C   0  0  0  0  0  0
    1.4949   33.5751   -4.1817 C   0  0  0  0  0  0
    2.6323   32.7666   -4.0501 C   0  0  0  0  0  0
    2.8580   32.0669   -2.8421 C   0  0  0  0  0  0
    1.9281   32.1993   -1.7988 C   0  0  0  0  0  0
    4.0620   31.1751   -2.6501 C   0  0  0  0  0  0
    4.4461   30.3928   -3.5187 O   0  0  0  0  0  0
    4.7010   31.3523   -1.4620 O   0  0  0  0  0  0
    3.5770   32.6639   -5.0834 N   0  0  0  0  0  0
    4.0252   33.6552   -5.8743 C   0  0  0  0  0  0
    3.5193   34.7748   -5.9417 O   0  0  0  0  0  0
    5.3370   33.3772   -6.6224 C   0  0  0  0  0  0
    6.4081   32.5597   -5.8335 C   0  0  0  0  0  0
    6.9809   33.1315   -4.5288 C   0  0  0  0  0  0
    6.4391   34.2493   -3.8871 C   0  0  0  0  0  0
    7.0138   34.7733   -2.7410 C   0  0  0  0  0  0
    8.2138   34.2387   -2.2411 C   0  0  0  0  0  0
    8.7573   33.0685   -2.8394 C   0  0  0  0  0  0
    8.1049   32.5120   -3.9706 C   0  0  0  0  0  0
    9.9578   32.5334   -2.3083 C   0  0  0  0  0  0
   10.6606   33.1610   -1.2764 C   0  0  0  0  0  0
   10.1252   34.3300   -0.7410 C   0  0  0  0  0  0
    8.9163   34.8707   -1.1868 C   0  0  0  0  0  0
    8.7005   36.0447   -0.4044 C   0  0  0  0  0  0
    9.6695   36.1983    0.4621 N   0  0  0  0  0  0
   10.5298   35.1758    0.2759 N   0  0  0  0  0  0
   11.3402   35.0807    0.8706 H   0  0  0  0  0  0
    0.0925   33.1088   -1.1410 H   0  0  0  0  0  0
   -0.2709   34.3454   -3.2396 H   0  0  0  0  0  0
    1.2924   34.1054   -5.0999 H   0  0  0  0  0  0
    2.0558   31.6624   -0.8687 H   0  0  0  0  0  0
    4.3320   32.0834   -0.9647 H   0  0  0  0  0  0
    4.1553   31.8367   -5.0291 H   0  0  0  0  0  0
    5.0853   32.8674   -7.5531 H   0  0  0  0  0  0
    5.7711   34.3350   -6.9127 H   0  0  0  0  0  0
    6.0165   31.5750   -5.5950 H   0  0  0  0  0  0
    7.2473   32.3846   -6.5096 H   0  0  0  0  0  0
    5.5934   34.7879   -4.2743 H   0  0  0  0  0  0
    6.6114   35.6844   -2.3410 H   0  0  0  0  0  0
    8.5261   31.6350   -4.4404 H   0  0  0  0  0  0
   10.3696   31.6347   -2.7410 H   0  0  0  0  0  0
   11.5977   32.7747   -0.9205 H   0  0  0  0  0  0
    7.8847   36.7497   -0.4571 H   0  0  0  0  0  0
  1  6  1  0  0  0
  1  2  2  0  0  0
  1 29  1  0  0  0
  2  3  1  0  0  0
  2 30  1  0  0  0
  3  4  2  0  0  0
  3 31  1  0  0  0
  4  5  1  0  0  0
  4 10  1  0  0  0
  5  6  2  0  0  0
  5  7  1  0  0  0
  6 32  1  0  0  0
  7  8  2  0  0  0
  7  9  1  0  0  0
  9 33  1  0  0  0
 10 11  1  0  0  0
 10 34  1  0  0  0
 11 12  2  0  0  0
 11 13  1  0  0  0
 13 14  1  0  0  0
 13 35  1  0  0  0
 13 36  1  0  0  0
 14 15  1  0  0  0
 14 37  1  0  0  0
 14 38  1  0  0  0
 15 20  1  0  0  0
 15 16  2  0  0  0
 16 17  1  0  0  0
 16 39  1  0  0  0
 17 18  2  0  0  0
 17 40  1  0  0  0
 18 24  1  0  0  0
 18 19  1  0  0  0
 19 20  2  0  0  0
 19 21  1  0  0  0
 20 41  1  0  0  0
 21 22  2  0  0  0
 21 42  1  0  0  0
 22 23  1  0  0  0
 22 43  1  0  0  0
 23 27  1  0  0  0
 23 24  2  0  0  0
 24 25  1  0  0  0
 25 26  2  0  0  0
 25 44  1  0  0  0
 26 27  1  0  0  0
 27 28  1  0  0  0
M  END
> <s_m_entry_id>
36012

> <s_m_entry_name>
ligand_docking-pose.7

> <s_m_Source_Path>
/home/csk/Desktop/cluster/DUD-E-result/cp2c9

> <s_m_Source_File>
ligand_docking-pose.sdf

> <i_m_Source_File_Index>
7

> <i_lp_mmshare_version>
53161

> <r_lp_tautomer_probability>
1

> <s_lp_Force_Field>
OPLS_2005

> <r_lp_Energy>
37.273443

> <b_lp_Chiralities_Consistent>
1

> <s_lp_Variant>
520282-1

> <s_i_glide_gridfile>
glide-grid_1r9o

> <i_i_glide_lignum>
27

> <i_i_glide_rotatable_bonds>
7

> <r_i_docking_score>
-8.04107613755661

> <r_i_glide_ligand_efficiency>
-0.297817634724319

> <r_i_glide_ligand_efficiency_sa>
-0.893452903191399

> <r_i_glide_ligand_efficiency_ln>
-1.87182995732234

> <r_i_glide_gscore>
-8.04107613755661

> <r_i_glide_lipo>
-4.29727707960545

> <r_i_glide_hbond>
0

> <r_i_glide_metal>
0

> <r_i_glide_rewards>
-2.01856318929627

> <r_i_glide_evdw>
-44.1435012817383

> <r_i_glide_ecoul>
-1.73385882377625

> <r_i_glide_erotb>
0.742018018998457

> <r_i_glide_esite>
0

> <r_i_glide_emodel>
-61.694289561662

> <r_i_glide_energy>
-45.8773601055145

> <r_i_glide_einternal>
6.91153812408447

> <i_i_glide_confnum>
1

> <i_i_glide_posenum>
114

> <r_i_glide_eff_state_penalty>
0

> <i_f3d_flags>
0

> <s_user_duplicate_titles>
520282

> <s_m_subgroup_title>
dock_pv

> <s_m_subgroupid>
dock_pv1

> <b_m_subgroup_collapsed>
0

$$$$
17471
                    3D
 Schrodinger Suite 2021-1.
 37 39  0  0  1  0            999 V2000
    7.4430   32.6569   -6.3193 C   0  0  0  0  0  0
    6.1117   32.9576   -5.6086 C   0  0  0  0  0  0
    5.9618   32.2363   -4.2428 C   0  0  1  0  0  0
    7.0437   32.6424   -3.2294 C   0  0  0  0  0  0
    7.1739   33.9689   -2.8041 C   0  0  0  0  0  0
    8.2173   34.3400   -1.9580 C   0  0  0  0  0  0
    9.1366   33.3799   -1.5392 C   0  0  0  0  0  0
    9.0113   32.0539   -1.9419 C   0  0  0  0  0  0
    7.9650   31.6852   -2.7835 C   0  0  0  0  0  0
    4.5275   32.1803   -3.6573 C   0  0  0  0  0  0
    3.7562   33.4462   -3.5587 C   0  0  0  0  0  0
    4.1612   34.5605   -3.8928 O   0  0  0  0  0  0
    2.3721   33.2874   -3.0083 C   0  0  0  0  0  0
    1.5006   34.3784   -2.8593 C   0  0  0  0  0  0
    0.2222   34.2053   -2.3282 C   0  0  0  0  0  0
   -0.2086   32.9370   -1.9409 C   0  0  0  0  0  0
    0.6406   31.8415   -2.0913 C   0  0  0  0  0  0
    1.9168   32.0238   -2.6203 C   0  0  0  0  0  0
    2.7023   30.9038   -2.7413 O   0  0  0  0  0  0
    3.9516   31.0259   -3.2390 C   0  0  0  0  0  0
    4.5674   29.8198   -3.2530 O   0  0  0  0  0  0
    7.4996   33.1872   -7.2673 H   0  0  0  0  0  0
    8.2986   32.9735   -5.7209 H   0  0  0  0  0  0
    7.5608   31.5920   -6.5199 H   0  0  0  0  0  0
    5.2912   32.6662   -6.2696 H   0  0  0  0  0  0
    6.0291   34.0369   -5.4832 H   0  0  0  0  0  0
    6.1923   31.2051   -4.5113 H   0  0  0  0  0  0
    6.4842   34.7293   -3.1419 H   0  0  0  0  0  0
    8.3147   35.3701   -1.6404 H   0  0  0  0  0  0
    9.9499   33.6683   -0.8855 H   0  0  0  0  0  0
    9.7246   31.3152   -1.6062 H   0  0  0  0  0  0
    7.8951   30.6552   -3.1079 H   0  0  0  0  0  0
    1.8145   35.3765   -3.1401 H   0  0  0  0  0  0
   -0.4321   35.0586   -2.2093 H   0  0  0  0  0  0
   -1.1986   32.8042   -1.5254 H   0  0  0  0  0  0
    0.3104   30.8542   -1.8018 H   0  0  0  0  0  0
    5.4790   29.9443   -3.5173 H   0  0  0  0  0  0
  1  2  1  0  0  0
  1 22  1  0  0  0
  1 23  1  0  0  0
  1 24  1  0  0  0
  2  3  1  0  0  0
  2 25  1  0  0  0
  2 26  1  0  0  0
  3  4  1  0  0  0
  3 10  1  0  0  0
  3 27  1  0  0  0
  4  9  1  0  0  0
  4  5  2  0  0  0
  5  6  1  0  0  0
  5 28  1  0  0  0
  6  7  2  0  0  0
  6 29  1  0  0  0
  7  8  1  0  0  0
  7 30  1  0  0  0
  8  9  2  0  0  0
  8 31  1  0  0  0
  9 32  1  0  0  0
 10 20  2  0  0  0
 10 11  1  0  0  0
 11 12  2  0  0  0
 11 13  1  0  0  0
 13 18  2  0  0  0
 13 14  1  0  0  0
 14 15  2  0  0  0
 14 33  1  0  0  0
 15 16  1  0  0  0
 15 34  1  0  0  0
 16 17  2  0  0  0
 16 35  1  0  0  0
 17 18  1  0  0  0
 17 36  1  0  0  0
 18 19  1  0  0  0
 19 20  1  0  0  0
 20 21  1  0  0  0
 21 37  1  0  0  0
M  END
> <s_m_entry_id>
36013

> <s_m_entry_name>
ligand_docking-pose.8

> <s_m_Source_Path>
/home/csk/Desktop/cluster/DUD-E-result/cp2c9

> <s_m_Source_File>
ligand_docking-pose.sdf

> <i_m_Source_File_Index>
8

> <i_lp_mmshare_version>
53161

> <r_lp_tautomer_probability>
1

> <s_lp_Force_Field>
OPLS_2005

> <r_lp_Energy>
17.318309

> <b_lp_Chiralities_Consistent>
1

> <s_lp_Variant>
17471-2

> <s_i_glide_gridfile>
glide-grid_1r9o

> <i_i_glide_lignum>
104

> <i_i_glide_rotatable_bonds>
4

> <r_i_docking_score>
-7.98276947956808

> <r_i_glide_ligand_efficiency>
-0.380131879979432

> <r_i_glide_ligand_efficiency_sa>
-1.04875503282414

> <r_i_glide_ligand_efficiency_ln>
-1.97372362311863

> <r_i_glide_gscore>
-7.98276947956808

> <r_i_glide_lipo>
-4.63444582117687

> <r_i_glide_hbond>
0

> <r_i_glide_metal>
0

> <r_i_glide_rewards>
-1.83870402594667

> <r_i_glide_evdw>
-36.1272583007812

> <r_i_glide_ecoul>
-1.0858428478241

> <r_i_glide_erotb>
0.459619709768146

> <r_i_glide_esite>
0

> <r_i_glide_emodel>
-53.8059382265287

> <r_i_glide_energy>
-37.2131011486053

> <r_i_glide_einternal>
1.56092202663422

> <i_i_glide_confnum>
1

> <i_i_glide_posenum>
225

> <r_i_glide_eff_state_penalty>
0

> <i_f3d_flags>
0

> <s_user_duplicate_titles>
17471

> <s_m_subgroup_title>
dock_pv

> <s_m_subgroupid>
dock_pv1

> <b_m_subgroup_collapsed>
0

$$$$
513784
                    3D
 Schrodinger Suite 2021-1.
 52 56  0  0  1  0            999 V2000
    4.7007   31.1954   -0.8766 C   0  0  0  0  0  0
    4.1907   31.6785   -2.1953 C   0  0  0  0  0  0
    4.6536   31.3260   -3.4089 C   0  0  0  0  0  0
    3.9261   31.8569   -4.6803 C   0  0  1  0  0  0
    2.5574   32.3947   -4.3745 N   0  0  0  0  0  0
    2.1872   32.6091   -3.1584 C   0  0  0  0  0  0
    3.0440   32.4016   -2.1019 N   0  0  0  0  0  0
    0.8655   33.0609   -2.7613 C   0  0  0  0  0  0
    0.0357   32.1966   -2.0374 C   0  0  0  0  0  0
   -1.1707   32.6653   -1.5322 C   0  0  0  0  0  0
   -1.5165   34.0021   -1.7034 C   0  0  0  0  0  0
   -0.7058   34.8574   -2.4434 C   0  0  0  0  0  0
    0.4809   34.3786   -2.9894 C   0  0  0  0  0  0
    4.7810   32.8535   -5.5037 C   0  0  0  0  0  0
    6.1275   32.5672   -5.7893 C   0  0  0  0  0  0
    6.9390   33.4838   -6.4432 C   0  0  0  0  0  0
    6.3947   34.6812   -6.8801 C   0  0  0  0  0  0
    5.0516   34.9511   -6.6798 C   0  0  0  0  0  0
    4.2498   34.0612   -5.9771 C   0  0  0  0  0  0
    7.1632   35.5742   -7.5396 F   0  0  0  0  0  0
    5.6446   30.2825   -3.5380 C   0  0  0  0  0  0
    5.3063   29.1753   -3.9417 O   0  0  0  0  0  0
    6.9314   30.4708   -3.1802 N   0  0  0  0  0  0
    7.6958   31.5525   -2.6887 C   0  0  0  0  0  0
    8.9857   31.1734   -2.3395 C   0  0  0  0  0  0
    9.9165   32.0496   -1.7954 C   0  0  0  0  0  0
    9.5310   33.3736   -1.5908 C   0  0  0  0  0  0
    8.2150   33.8011   -1.9565 C   0  0  0  0  0  0
    7.2961   32.8904   -2.5265 C   0  0  0  0  0  0
    8.2212   35.1736   -1.5948 C   0  0  0  0  0  0
    9.4647   35.4217   -1.0747 N   0  0  0  0  0  0
   10.2974   34.3728   -1.0572 N   0  0  0  0  0  0
    9.7539   36.3238   -0.7236 H   0  0  0  0  0  0
    4.7017   30.1102   -0.8776 H   0  0  0  0  0  0
    5.7067   31.5754   -0.7414 H   0  0  0  0  0  0
    4.1000   31.5286   -0.0285 H   0  0  0  0  0  0
    3.7726   31.0112   -5.3544 H   0  0  0  0  0  0
    2.7053   32.6417   -1.1832 H   0  0  0  0  0  0
    0.3249   31.1722   -1.8499 H   0  0  0  0  0  0
   -1.8116   32.0089   -0.9626 H   0  0  0  0  0  0
   -2.4277   34.3777   -1.2653 H   0  0  0  0  0  0
   -0.9863   35.8900   -2.5827 H   0  0  0  0  0  0
    1.1266   35.0443   -3.5386 H   0  0  0  0  0  0
    6.5830   31.6344   -5.5114 H   0  0  0  0  0  0
    7.9778   33.2584   -6.6346 H   0  0  0  0  0  0
    4.6508   35.8781   -7.0499 H   0  0  0  0  0  0
    3.2165   34.3250   -5.8123 H   0  0  0  0  0  0
    7.4692   29.6233   -3.2788 H   0  0  0  0  0  0
    9.2621   30.1432   -2.4850 H   0  0  0  0  0  0
   10.9087   31.7104   -1.5351 H   0  0  0  0  0  0
    6.3125   33.2291   -2.8099 H   0  0  0  0  0  0
    7.5019   35.9711   -1.6543 H   0  0  0  0  0  0
  1  2  1  0  0  0
  1 34  1  0  0  0
  1 35  1  0  0  0
  1 36  1  0  0  0
  2  7  1  0  0  0
  2  3  2  0  0  0
  3  4  1  0  0  0
  3 21  1  0  0  0
  4  5  1  0  0  0
  4 14  1  0  0  0
  4 37  1  0  0  0
  5  6  2  0  0  0
  6  7  1  0  0  0
  6  8  1  0  0  0
  7 38  1  0  0  0
  8 13  1  0  0  0
  8  9  2  0  0  0
  9 10  1  0  0  0
  9 39  1  0  0  0
 10 11  2  0  0  0
 10 40  1  0  0  0
 11 12  1  0  0  0
 11 41  1  0  0  0
 12 13  2  0  0  0
 12 42  1  0  0  0
 13 43  1  0  0  0
 14 19  1  0  0  0
 14 15  2  0  0  0
 15 16  1  0  0  0
 15 44  1  0  0  0
 16 17  2  0  0  0
 16 45  1  0  0  0
 17 18  1  0  0  0
 17 20  1  0  0  0
 18 19  2  0  0  0
 18 46  1  0  0  0
 19 47  1  0  0  0
 21 22  2  0  0  0
 21 23  1  0  0  0
 23 48  1  0  0  0
 23 24  1  0  0  0
 24 25  1  0  0  0
 24 29  2  0  0  0
 25 26  2  0  0  0
 25 49  1  0  0  0
 26 27  1  0  0  0
 26 50  1  0  0  0
 27 32  2  0  0  0
 27 28  1  0  0  0
 28 29  1  0  0  0
 28 30  2  0  0  0
 29 51  1  0  0  0
 30 31  1  0  0  0
 30 52  1  0  0  0
 31 33  1  0  0  0
 31 32  1  0  0  0
M  END
> <s_m_entry_id>
36015

> <s_m_entry_name>
ligand_docking-pose.10

> <s_m_Source_Path>
/home/csk/Desktop/cluster/DUD-E-result/cp2c9

> <s_m_Source_File>
ligand_docking-pose.sdf

> <i_m_Source_File_Index>
10

> <i_lp_mmshare_version>
53161

> <r_lp_tautomer_probability>
0.0196078431372549

> <s_lp_Force_Field>
OPLS_2005

> <r_lp_Energy>
52.287902

> <b_lp_Chiralities_Consistent>
1

> <s_lp_Variant>
513784-3

> <s_i_glide_gridfile>
glide-grid_1r9o

> <i_i_glide_lignum>
80

> <i_i_glide_rotatable_bonds>
5

> <r_i_docking_score>
-7.96666182761422

> <r_i_glide_ligand_efficiency>
-0.248958182112944

> <r_i_glide_ligand_efficiency_sa>
-0.790392959451259

> <r_i_glide_ligand_efficiency_ln>
-1.7839527462024

> <r_i_glide_gscore>
-7.96666182761422

> <r_i_glide_lipo>
-5.90521120789096

> <r_i_glide_hbond>
-0.0365232579804198

> <r_i_glide_metal>
0

> <r_i_glide_rewards>
-0.269986464920144

> <r_i_glide_evdw>
-43.1867446899414

> <r_i_glide_ecoul>
-0.957034409046173

> <r_i_glide_erotb>
0.547951499031298

> <r_i_glide_esite>
0

> <r_i_glide_emodel>
-28.1128666469702

> <r_i_glide_energy>
-44.1437790989876

> <r_i_glide_einternal>
32.5951919555664

> <i_i_glide_confnum>
4

> <i_i_glide_posenum>
308

> <r_i_glide_eff_state_penalty>
0

> <i_f3d_flags>
0

> <s_user_duplicate_titles>
513784

> <s_m_subgroup_title>
dock_pv

> <s_m_subgroupid>
dock_pv1

> <b_m_subgroup_collapsed>
0

$$$$
513337
                    3D
 Schrodinger Suite 2021-1.
 46 50  0  0  1  0            999 V2000
   10.0083   35.4753   -0.6443 C   0  0  0  0  0  0
    8.8218   36.0000   -1.1251 C   0  0  0  0  0  0
    7.8974   35.1746   -1.7678 C   0  0  0  0  0  0
    8.1419   33.7995   -1.9410 C   0  0  0  0  0  0
    7.1689   32.9176   -2.4910 C   0  0  0  0  0  0
    7.4706   31.5594   -2.6759 C   0  0  0  0  0  0
    8.7426   31.1049   -2.3415 C   0  0  0  0  0  0
    9.6883   31.9352   -1.7501 C   0  0  0  0  0  0
    9.3957   33.2873   -1.5212 C   0  0  0  0  0  0
   10.3005   34.1290   -0.8342 C   0  0  0  0  0  0
    6.6018   30.5504   -3.1334 N   0  0  0  0  0  0
    5.2910   30.5176   -3.4534 C   0  0  0  0  0  0
    4.7266   29.4278   -3.5249 O   0  0  0  0  0  0
    4.4944   31.7573   -3.7794 C   0  0  0  0  0  0
    3.2830   31.9568   -3.1068 C   0  0  0  0  0  0
    2.4704   33.0508   -3.4104 C   0  0  0  0  0  0
    2.8352   33.9636   -4.3473 N   0  0  0  0  0  0
    3.9986   33.8020   -5.0293 C   0  0  0  0  0  0
    4.8681   32.6894   -4.8048 C   0  0  0  0  0  0
    6.0451   32.5888   -5.6037 C   0  0  0  0  0  0
    6.3473   33.5626   -6.5501 C   0  0  0  0  0  0
    5.5048   34.6500   -6.7416 C   0  0  0  0  0  0
    4.3366   34.7753   -5.9970 C   0  0  0  0  0  0
    1.1556   33.2916   -2.7294 C   0  0  0  0  0  0
    0.5860   34.5756   -2.6808 C   0  0  0  0  0  0
   -0.6526   34.7630   -2.0656 C   0  0  0  0  0  0
   -1.3519   33.7478   -1.5038 N   0  0  0  0  0  0
   -0.8030   32.5094   -1.5417 C   0  0  0  0  0  0
    0.4344   32.2447   -2.1322 C   0  0  0  0  0  0
   10.7038   36.1141   -0.1157 H   0  0  0  0  0  0
    8.6004   37.0483   -0.9900 H   0  0  0  0  0  0
    6.9711   35.5760   -2.1433 H   0  0  0  0  0  0
    6.2024   33.3298   -2.7247 H   0  0  0  0  0  0
    9.0019   30.0665   -2.4884 H   0  0  0  0  0  0
   10.6532   31.5613   -1.4415 H   0  0  0  0  0  0
   11.2072   33.7040   -0.4307 H   0  0  0  0  0  0
    7.0055   29.6260   -3.0951 H   0  0  0  0  0  0
    2.9777   31.2523   -2.3447 H   0  0  0  0  0  0
    6.7191   31.7534   -5.4822 H   0  0  0  0  0  0
    7.2455   33.4707   -7.1423 H   0  0  0  0  0  0
    5.7520   35.3984   -7.4800 H   0  0  0  0  0  0
    3.6760   35.6129   -6.1651 H   0  0  0  0  0  0
    1.0912   35.4285   -3.1095 H   0  0  0  0  0  0
   -1.1008   35.7436   -2.0185 H   0  0  0  0  0  0
   -1.3761   31.7237   -1.0674 H   0  0  0  0  0  0
    0.8007   31.2293   -2.1390 H   0  0  0  0  0  0
  1 10  1  0  0  0
  1  2  2  0  0  0
  1 30  1  0  0  0
  2  3  1  0  0  0
  2 31  1  0  0  0
  3  4  2  0  0  0
  3 32  1  0  0  0
  4  9  1  0  0  0
  4  5  1  0  0  0
  5  6  2  0  0  0
  5 33  1  0  0  0
  6  7  1  0  0  0
  6 11  1  0  0  0
  7  8  2  0  0  0
  7 34  1  0  0  0
  8  9  1  0  0  0
  8 35  1  0  0  0
  9 10  2  0  0  0
 10 36  1  0  0  0
 11 12  1  0  0  0
 11 37  1  0  0  0
 12 13  2  0  0  0
 12 14  1  0  0  0
 14 19  1  0  0  0
 14 15  2  0  0  0
 15 16  1  0  0  0
 15 38  1  0  0  0
 16 17  2  0  0  0
 16 24  1  0  0  0
 17 18  1  0  0  0
 18 23  2  0  0  0
 18 19  1  0  0  0
 19 20  2  0  0  0
 20 21  1  0  0  0
 20 39  1  0  0  0
 21 22  2  0  0  0
 21 40  1  0  0  0
 22 23  1  0  0  0
 22 41  1  0  0  0
 23 42  1  0  0  0
 24 29  1  0  0  0
 24 25  2  0  0  0
 25 26  1  0  0  0
 25 43  1  0  0  0
 26 27  2  0  0  0
 26 44  1  0  0  0
 27 28  1  0  0  0
 28 29  2  0  0  0
 28 45  1  0  0  0
 29 46  1  0  0  0
M  END
> <s_m_entry_id>
36016

> <s_m_entry_name>
ligand_docking-pose.11

> <s_m_Source_Path>
/home/csk/Desktop/cluster/DUD-E-result/cp2c9

> <s_m_Source_File>
ligand_docking-pose.sdf

> <i_m_Source_File_Index>
11

> <i_lp_mmshare_version>
53161

> <r_lp_tautomer_probability>
1

> <s_lp_Force_Field>
OPLS_2005

> <r_lp_Energy>
32.062342

> <b_lp_Chiralities_Consistent>
1

> <s_lp_Variant>
513337-1

> <s_i_glide_gridfile>
glide-grid_1r9o

> <i_i_glide_lignum>
10

> <i_i_glide_rotatable_bonds>
4

> <r_i_docking_score>
-7.95695384055167

> <r_i_glide_ligand_efficiency>
-0.274377718639713

> <r_i_glide_ligand_efficiency_sa>
-0.842975280623904

> <r_i_glide_ligand_efficiency_ln>
-1.82194065854621

> <r_i_glide_gscore>
-7.95695384055167

> <r_i_glide_lipo>
-6.06451639018956

> <r_i_glide_hbond>
0

> <r_i_glide_metal>
0

> <r_i_glide_rewards>
0.197388321012342

> <r_i_glide_evdw>
-51.0077934265137

> <r_i_glide_ecoul>
-0.590035676956177

> <r_i_glide_erotb>
0.549069251494656

> <r_i_glide_esite>
0

> <r_i_glide_emodel>
-67.7177208043014

> <r_i_glide_energy>
-51.5978291034698

> <r_i_glide_einternal>
4.78642416000366

> <i_i_glide_confnum>
51

> <i_i_glide_posenum>
252

> <r_i_glide_eff_state_penalty>
0

> <i_f3d_flags>
0

> <s_user_duplicate_titles>
513337

> <s_m_subgroup_title>
dock_pv

> <s_m_subgroupid>
dock_pv1

> <b_m_subgroup_collapsed>
0

$$$$
501546
                    3D
 Schrodinger Suite 2021-1.
 51 54  0  0  1  0            999 V2000
    5.8332   35.1750   -3.1054 C   0  0  0  0  0  0
    6.3438   34.3743   -4.2811 C   0  0  0  0  0  0
    7.4930   33.6027   -4.0926 C   0  0  0  0  0  0
    7.9564   32.7756   -5.1054 C   0  0  0  0  0  0
    7.3169   32.7576   -6.3352 C   0  0  0  0  0  0
    6.1740   33.5300   -6.5411 C   0  0  0  0  0  0
    5.6690   34.3508   -5.5146 C   0  0  0  0  0  0
    4.3558   35.1311   -5.7131 C   0  0  0  0  0  0
    3.1053   34.3760   -5.5584 N   0  0  0  0  0  0
    2.9557   33.3347   -4.6450 C   0  0  0  0  0  0
    3.8287   32.2447   -4.6272 C   0  0  0  0  0  0
    3.8052   31.3027   -3.6229 C   0  0  0  0  0  0
    2.7507   31.3412   -2.7325 C   0  0  0  0  0  0
    1.7927   32.3187   -2.8085 N   0  0  0  0  0  0
    1.8873   33.3647   -3.7265 C   0  0  0  0  0  0
    0.8890   34.2668   -3.5357 N   0  0  0  0  0  0
    0.1533   33.7757   -2.5612 C   0  0  0  0  0  0
    0.6347   32.5457   -2.1036 C   0  0  0  0  0  0
    0.1205   31.5595   -1.0866 C   0  0  0  0  0  0
   -1.0648   34.5453   -2.1070 C   0  0  0  0  0  0
    4.9254   30.3514   -3.4832 C   0  0  0  0  0  0
    6.1709   30.7565   -2.9922 C   0  0  0  0  0  0
    7.2366   29.8562   -3.0364 C   0  0  0  0  0  0
    7.0266   28.5709   -3.5363 C   0  0  0  0  0  0
    5.7457   28.2333   -3.9714 C   0  0  0  0  0  0
    4.7017   29.0989   -3.9444 N   0  0  0  0  0  0
    5.4246   33.3756   -7.8410 C   0  0  0  0  0  0
    6.6010   35.2353   -2.3426 H   0  0  0  0  0  0
    5.5971   36.1980   -3.3709 H   0  0  0  0  0  0
    4.9306   34.7162   -2.7020 H   0  0  0  0  0  0
    8.0101   33.6082   -3.1439 H   0  0  0  0  0  0
    8.8272   32.1587   -4.9421 H   0  0  0  0  0  0
    7.6938   32.1086   -7.1111 H   0  0  0  0  0  0
    4.3596   35.5676   -6.7122 H   0  0  0  0  0  0
    4.3000   35.9752   -5.0340 H   0  0  0  0  0  0
    2.2931   34.9776   -5.5818 H   0  0  0  0  0  0
    4.5928   32.1233   -5.3684 H   0  0  0  0  0  0
    2.6960   30.6549   -1.9335 H   0  0  0  0  0  0
   -0.7814   31.9030   -0.5781 H   0  0  0  0  0  0
   -0.1241   30.6024   -1.5482 H   0  0  0  0  0  0
    0.8841   31.3720   -0.3365 H   0  0  0  0  0  0
   -0.7789   35.4562   -1.5807 H   0  0  0  0  0  0
   -1.6929   34.8446   -2.9463 H   0  0  0  0  0  0
   -1.6914   33.9656   -1.4287 H   0  0  0  0  0  0
    6.3118   31.7543   -2.6048 H   0  0  0  0  0  0
    8.2112   30.1492   -2.6765 H   0  0  0  0  0  0
    7.8290   27.8473   -3.5666 H   0  0  0  0  0  0
    5.5376   27.2418   -4.3478 H   0  0  0  0  0  0
    5.8085   32.5703   -8.4668 H   0  0  0  0  0  0
    4.3723   33.1595   -7.6589 H   0  0  0  0  0  0
    5.4994   34.3357   -8.3433 H   0  0  0  0  0  0
  1  2  1  0  0  0
  1 28  1  0  0  0
  1 29  1  0  0  0
  1 30  1  0  0  0
  2  7  1  0  0  0
  2  3  2  0  0  0
  3  4  1  0  0  0
  3 31  1  0  0  0
  4  5  2  0  0  0
  4 32  1  0  0  0
  5  6  1  0  0  0
  5 33  1  0  0  0
  6  7  2  0  0  0
  6 27  1  0  0  0
  7  8  1  0  0  0
  8  9  1  0  0  0
  8 34  1  0  0  0
  8 35  1  0  0  0
  9 10  1  0  0  0
  9 36  1  0  0  0
 10 15  1  0  0  0
 10 11  2  0  0  0
 11 12  1  0  0  0
 11 37  1  0  0  0
 12 13  2  0  0  0
 12 21  1  0  0  0
 13 14  1  0  0  0
 13 38  1  0  0  0
 14 18  1  0  0  0
 14 15  1  0  0  0
 15 16  2  0  0  0
 16 17  1  0  0  0
 17 18  2  0  0  0
 17 20  1  0  0  0
 18 19  1  0  0  0
 19 39  1  0  0  0
 19 40  1  0  0  0
 19 41  1  0  0  0
 20 42  1  0  0  0
 20 43  1  0  0  0
 20 44  1  0  0  0
 21 26  1  0  0  0
 21 22  2  0  0  0
 22 23  1  0  0  0
 22 45  1  0  0  0
 23 24  2  0  0  0
 23 46  1  0  0  0
 24 25  1  0  0  0
 24 47  1  0  0  0
 25 26  2  0  0  0
 25 48  1  0  0  0
 27 49  1  0  0  0
 27 50  1  0  0  0
 27 51  1  0  0  0
M  END
> <s_m_entry_id>
36017

> <s_m_entry_name>
ligand_docking-pose.12

> <s_m_Source_Path>
/home/csk/Desktop/cluster/DUD-E-result/cp2c9

> <s_m_Source_File>
ligand_docking-pose.sdf

> <i_m_Source_File_Index>
12

> <i_lp_mmshare_version>
53161

> <r_lp_tautomer_probability>
1

> <s_lp_Force_Field>
OPLS_2005

> <r_lp_Energy>
19.558027

> <b_lp_Chiralities_Consistent>
1

> <s_lp_Variant>
501546-1

> <s_i_glide_gridfile>
glide-grid_1r9o

> <i_i_glide_lignum>
60

> <i_i_glide_rotatable_bonds>
4

> <r_i_docking_score>
-7.91963911945993

> <r_i_glide_ligand_efficiency>
-0.293319967387405

> <r_i_glide_ligand_efficiency_sa>
-0.87995990119548

> <r_i_glide_ligand_efficiency_ln>
-1.84356142155514

> <r_i_glide_gscore>
-7.91963911945993

> <r_i_glide_lipo>
-5.37479306617232

> <r_i_glide_hbond>
0

> <r_i_glide_metal>
0

> <r_i_glide_rewards>
-1.3857766619764

> <r_i_glide_evdw>
-37.3247909545898

> <r_i_glide_ecoul>
0.699206709861755

> <r_i_glide_erotb>
0.60228914993902

> <r_i_glide_esite>
0

> <r_i_glide_emodel>
-48.9223242723783

> <r_i_glide_energy>
-36.6255842447281

> <r_i_glide_einternal>
3.44171071052551

> <i_i_glide_confnum>
16

> <i_i_glide_posenum>
9

> <r_i_glide_eff_state_penalty>
0

> <i_f3d_flags>
0

> <s_user_duplicate_titles>
501546

> <s_m_subgroup_title>
dock_pv

> <s_m_subgroupid>
dock_pv1

> <b_m_subgroup_collapsed>
0

$$$$
590219
                    3D
 Schrodinger Suite 2021-1.
 57 59  0  0  1  0            999 V2000
    8.2135   36.3368    0.1723 C   0  0  0  0  0  0
    9.6263   36.0898   -0.4002 C   0  0  0  0  0  0
   10.1837   37.4638   -0.8742 C   0  0  0  0  0  0
   10.5481   35.6406    0.7638 C   0  0  0  0  0  0
    9.7418   35.0039   -1.5392 C   0  0  0  0  0  0
   10.7011   35.1084   -2.3099 O   0  0  0  0  0  0
    8.9787   33.8704   -1.5822 N   0  0  0  0  0  0
    9.4613   32.6654   -2.2756 C   0  0  0  0  0  0
    8.4582   31.5919   -1.8642 C   0  0  0  0  0  0
    7.1260   32.3276   -1.6894 C   0  0  1  0  0  0
    7.5729   33.7124   -1.1640 C   0  0  0  0  0  0
    6.2842   32.4630   -2.8937 N   0  0  0  0  0  0
    6.5789   31.8276   -4.1939 C   0  0  0  0  0  0
    6.4497   32.8358   -5.3295 C   0  0  0  0  0  0
    7.5022   33.7402   -5.4534 C   0  0  0  0  0  0
    7.4755   34.7773   -6.3730 C   0  0  0  0  0  0
    6.3390   34.9792   -7.1404 C   0  0  0  0  0  0
    5.2739   34.0988   -7.0082 C   0  0  0  0  0  0
    5.3137   32.9981   -6.1484 C   0  0  0  0  0  0
    4.0461   32.1433   -6.1110 C   0  0  0  0  0  0
    3.8972   31.5750   -7.3026 F   0  0  0  0  0  0
    3.9587   31.2081   -5.1680 F   0  0  0  0  0  0
    3.0262   32.9686   -5.9359 F   0  0  0  0  0  0
    4.9402   32.8708   -2.7037 C   0  0  0  0  0  0
    4.4609   34.0026   -3.3677 C   0  0  0  0  0  0
    3.1088   34.3234   -3.3535 C   0  0  0  0  0  0
    2.2122   33.5746   -2.5916 C   0  0  0  0  0  0
    2.6924   32.4891   -1.8416 C   0  0  0  0  0  0
    4.0472   32.1364   -1.9109 C   0  0  0  0  0  0
    1.6402   31.5753   -0.8158 Cl  0  0  0  0  0  0
    0.8148   33.9948   -2.5532 C   0  0  0  0  0  0
   -0.2909   34.3334   -2.5210 N   0  0  0  0  0  0
    6.5092   31.8538   -0.9304 H   0  0  0  0  0  0
    8.2113   37.1887    0.8520 H   0  0  0  0  0  0
    7.8415   35.5069    0.7668 H   0  0  0  0  0  0
    7.5034   36.5748   -0.6184 H   0  0  0  0  0  0
   11.1466   37.3911   -1.3819 H   0  0  0  0  0  0
    9.4973   37.9761   -1.5410 H   0  0  0  0  0  0
   10.3457   38.1360   -0.0297 H   0  0  0  0  0  0
   11.5921   35.6107    0.4605 H   0  0  0  0  0  0
   10.4903   36.3237    1.6121 H   0  0  0  0  0  0
   10.3009   34.6506    1.1409 H   0  0  0  0  0  0
    9.4596   32.8105   -3.3522 H   0  0  0  0  0  0
   10.4730   32.3996   -1.9635 H   0  0  0  0  0  0
    8.4458   30.7313   -2.5299 H   0  0  0  0  0  0
    8.7750   31.1793   -0.9082 H   0  0  0  0  0  0
    7.5071   33.6545   -0.0836 H   0  0  0  0  0  0
    6.9055   34.4877   -1.5420 H   0  0  0  0  0  0
    7.5973   31.4513   -4.2483 H   0  0  0  0  0  0
    5.9707   30.9380   -4.3318 H   0  0  0  0  0  0
    8.3460   33.6621   -4.7954 H   0  0  0  0  0  0
    8.3130   35.4561   -6.4468 H   0  0  0  0  0  0
    6.2729   35.8196   -7.8175 H   0  0  0  0  0  0
    4.3653   34.2898   -7.5409 H   0  0  0  0  0  0
    5.1326   34.6213   -3.9426 H   0  0  0  0  0  0
    2.7740   35.1750   -3.9213 H   0  0  0  0  0  0
    4.3969   31.2697   -1.3703 H   0  0  0  0  0  0
  1  2  1  0  0  0
  1 34  1  0  0  0
  1 35  1  0  0  0
  1 36  1  0  0  0
  2  3  1  0  0  0
  2  4  1  0  0  0
  2  5  1  0  0  0
  3 37  1  0  0  0
  3 38  1  0  0  0
  3 39  1  0  0  0
  4 40  1  0  0  0
  4 41  1  0  0  0
  4 42  1  0  0  0
  5  6  2  0  0  0
  5  7  1  0  0  0
  7 11  1  0  0  0
  7  8  1  0  0  0
  8  9  1  0  0  0
  8 43  1  0  0  0
  8 44  1  0  0  0
  9 10  1  0  0  0
  9 45  1  0  0  0
  9 46  1  0  0  0
 10 33  1  0  0  0
 10 11  1  0  0  0
 10 12  1  0  0  0
 11 47  1  0  0  0
 11 48  1  0  0  0
 12 13  1  0  0  0
 12 24  1  0  0  0
 13 14  1  0  0  0
 13 49  1  0  0  0
 13 50  1  0  0  0
 14 19  1  0  0  0
 14 15  2  0  0  0
 15 16  1  0  0  0
 15 51  1  0  0  0
 16 17  2  0  0  0
 16 52  1  0  0  0
 17 18  1  0  0  0
 17 53  1  0  0  0
 18 19  2  0  0  0
 18 54  1  0  0  0
 19 20  1  0  0  0
 20 21  1  0  0  0
 20 22  1  0  0  0
 20 23  1  0  0  0
 24 29  1  0  0  0
 24 25  2  0  0  0
 25 26  1  0  0  0
 25 55  1  0  0  0
 26 27  2  0  0  0
 26 56  1  0  0  0
 27 28  1  0  0  0
 27 31  1  0  0  0
 28 29  2  0  0  0
 28 30  1  0  0  0
 29 57  1  0  0  0
 31 32  3  0  0  0
M  END
> <s_m_entry_id>
36018

> <s_m_entry_name>
ligand_docking-pose.13

> <s_m_Source_Path>
/home/csk/Desktop/cluster/DUD-E-result/cp2c9

> <s_m_Source_File>
ligand_docking-pose.sdf

> <i_m_Source_File_Index>
13

> <i_lp_mmshare_version>
53161

> <r_lp_tautomer_probability>
1

> <s_lp_Force_Field>
OPLS_2005

> <r_lp_Energy>
59.826081

> <b_lp_Chiralities_Consistent>
1

> <s_lp_Variant>
590219-1

> <s_i_glide_gridfile>
glide-grid_1r9o

> <i_i_glide_lignum>
121

> <i_i_glide_rotatable_bonds>
7

> <r_i_docking_score>
-7.91267744859497

> <r_i_glide_ligand_efficiency>
-0.247271170268593

> <r_i_glide_ligand_efficiency_sa>
-0.785037030704633

> <r_i_glide_ligand_efficiency_ln>
-1.77186417218139

> <r_i_glide_gscore>
-7.91267744859497

> <r_i_glide_lipo>
-5.18082562354259

> <r_i_glide_hbond>
-0.16

> <r_i_glide_metal>
0

> <r_i_glide_rewards>
-0.598226801640986

> <r_i_glide_evdw>
-40.2855987548828

> <r_i_glide_ecoul>
-2.81154131889343

> <r_i_glide_erotb>
0.468242546632769

> <r_i_glide_esite>
-0.00585643446600589

> <r_i_glide_emodel>
-48.2539300124657

> <r_i_glide_energy>
-43.0971400737762

> <r_i_glide_einternal>
25.884464263916

> <i_i_glide_confnum>
179

> <i_i_glide_posenum>
105

> <r_i_glide_eff_state_penalty>
0

> <i_f3d_flags>
0

> <s_user_duplicate_titles>
590219

> <s_m_subgroup_title>
dock_pv

> <s_m_subgroupid>
dock_pv1

> <b_m_subgroup_collapsed>
0

$$$$
153403
                    3D
 Schrodinger Suite 2021-1.
 40 42  0  0  1  0            999 V2000
    4.3409   32.3760   -6.7462 C   0  0  0  0  0  0
    3.3629   32.1285   -5.5849 C   0  0  0  0  0  0
    3.6573   32.9780   -4.3219 C   0  0  1  0  0  0
    2.4479   33.0327   -3.3823 C   0  0  0  0  0  0
    1.8094   34.2552   -3.1399 C   0  0  0  0  0  0
    0.6546   34.3046   -2.3655 C   0  0  0  0  0  0
    0.1355   33.1284   -1.8301 C   0  0  0  0  0  0
    0.7738   31.9114   -2.0426 C   0  0  0  0  0  0
    1.9300   31.8637   -2.8166 C   0  0  0  0  0  0
    4.9852   32.6585   -3.5980 C   0  0  0  0  0  0
    5.7621   33.8318   -3.1374 C   0  0  0  0  0  0
    5.3928   35.0046   -3.2303 O   0  0  0  0  0  0
    7.0934   33.4941   -2.5424 C   0  0  0  0  0  0
    7.9809   34.4885   -2.1063 C   0  0  0  0  0  0
    9.2388   34.1487   -1.6066 C   0  0  0  0  0  0
    9.6283   32.8133   -1.5401 C   0  0  0  0  0  0
    8.7460   31.8131   -1.9411 C   0  0  0  0  0  0
    7.4841   32.1558   -2.4205 C   0  0  0  0  0  0
    6.6513   31.1209   -2.7589 O   0  0  0  0  0  0
    5.4733   31.4148   -3.3716 C   0  0  0  0  0  0
    4.7798   30.2796   -3.6589 O   0  0  0  0  0  0
    5.4827   29.0420   -3.7138 C   0  0  0  0  0  0
    4.0883   31.7542   -7.6056 H   0  0  0  0  0  0
    4.3115   33.4147   -7.0773 H   0  0  0  0  0  0
    5.3674   32.1485   -6.4574 H   0  0  0  0  0  0
    3.3340   31.0654   -5.3580 H   0  0  0  0  0  0
    2.3558   32.3518   -5.9320 H   0  0  0  0  0  0
    3.7417   33.9845   -4.7435 H   0  0  0  0  0  0
    2.2104   35.1726   -3.5405 H   0  0  0  0  0  0
    0.1643   35.2499   -2.1819 H   0  0  0  0  0  0
   -0.7601   33.1656   -1.2269 H   0  0  0  0  0  0
    0.3651   31.0069   -1.6170 H   0  0  0  0  0  0
    2.4110   30.9146   -2.9960 H   0  0  0  0  0  0
    7.7066   35.5334   -2.1639 H   0  0  0  0  0  0
    9.9079   34.9300   -1.2765 H   0  0  0  0  0  0
   10.6076   32.5490   -1.1605 H   0  0  0  0  0  0
    9.0276   30.7745   -1.8753 H   0  0  0  0  0  0
    4.8051   28.2422   -4.0113 H   0  0  0  0  0  0
    6.3008   29.0739   -4.4282 H   0  0  0  0  0  0
    5.9018   28.7879   -2.7414 H   0  0  0  0  0  0
  1  2  1  0  0  0
  1 23  1  0  0  0
  1 24  1  0  0  0
  1 25  1  0  0  0
  2  3  1  0  0  0
  2 26  1  0  0  0
  2 27  1  0  0  0
  3  4  1  0  0  0
  3 10  1  0  0  0
  3 28  1  0  0  0
  4  9  1  0  0  0
  4  5  2  0  0  0
  5  6  1  0  0  0
  5 29  1  0  0  0
  6  7  2  0  0  0
  6 30  1  0  0  0
  7  8  1  0  0  0
  7 31  1  0  0  0
  8  9  2  0  0  0
  8 32  1  0  0  0
  9 33  1  0  0  0
 10 20  2  0  0  0
 10 11  1  0  0  0
 11 12  2  0  0  0
 11 13  1  0  0  0
 13 18  2  0  0  0
 13 14  1  0  0  0
 14 15  2  0  0  0
 14 34  1  0  0  0
 15 16  1  0  0  0
 15 35  1  0  0  0
 16 17  2  0  0  0
 16 36  1  0  0  0
 17 18  1  0  0  0
 17 37  1  0  0  0
 18 19  1  0  0  0
 19 20  1  0  0  0
 20 21  1  0  0  0
 21 22  1  0  0  0
 22 38  1  0  0  0
 22 39  1  0  0  0
 22 40  1  0  0  0
M  END
> <s_m_entry_id>
36019

> <s_m_entry_name>
ligand_docking-pose.14

> <s_m_Source_Path>
/home/csk/Desktop/cluster/DUD-E-result/cp2c9

> <s_m_Source_File>
ligand_docking-pose.sdf

> <i_m_Source_File_Index>
14

> <i_lp_mmshare_version>
53161

> <r_lp_tautomer_probability>
1

> <s_lp_Force_Field>
OPLS_2005

> <r_lp_Energy>
18.213356

> <b_lp_Chiralities_Consistent>
1

> <s_lp_Variant>
153403-2

> <s_i_glide_gridfile>
glide-grid_1r9o

> <i_i_glide_lignum>
106

> <i_i_glide_rotatable_bonds>
4

> <r_i_docking_score>
-7.87839375244206

> <r_i_glide_ligand_efficiency>
-0.358108806929185

> <r_i_glide_ligand_efficiency_sa>
-1.00343496063576

> <r_i_glide_ligand_efficiency_ln>
-1.92576680449129

> <r_i_glide_gscore>
-7.87839375244206

> <r_i_glide_lipo>
-4.81656804573841

> <r_i_glide_hbond>
0

> <r_i_glide_metal>
0

> <r_i_glide_rewards>
-1.523767818871

> <r_i_glide_evdw>
-37.7470664978027

> <r_i_glide_ecoul>
-0.48568269610405

> <r_i_glide_erotb>
0.422147841473094

> <r_i_glide_esite>
0

> <r_i_glide_emodel>
-52.8987980724903

> <r_i_glide_energy>
-38.2327491939068

> <r_i_glide_einternal>
5.13049650192261

> <i_i_glide_confnum>
6

> <i_i_glide_posenum>
151

> <r_i_glide_eff_state_penalty>
0

> <i_f3d_flags>
0

> <s_user_duplicate_titles>
153403

> <s_m_subgroup_title>
dock_pv

> <s_m_subgroupid>
dock_pv1

> <b_m_subgroup_collapsed>
0

$$$$
374124
                    3D
 Schrodinger Suite 2021-1.
 40 42  0  0  1  0            999 V2000
    4.7541   34.4964   -5.6305 C   0  0  0  0  0  0
    4.3128   35.1135   -4.2927 C   0  0  0  0  0  0
    3.2652   34.2916   -3.5646 C   0  0  0  0  0  0
    3.0950   32.9341   -3.2566 C   0  0  0  0  0  0
    1.7590   32.8289   -2.7235 C   0  0  0  0  0  0
    0.9151   31.7952   -2.2837 C   0  0  0  0  0  0
   -0.3435   32.1137   -1.7656 C   0  0  0  0  0  0
   -0.7856   33.4360   -1.6970 C   0  0  0  0  0  0
    0.0124   34.4869   -2.1515 C   0  0  0  0  0  0
    1.2748   34.1503   -2.6539 C   0  0  0  0  0  0
    2.1955   35.0225   -3.1410 O   0  0  0  0  0  0
    3.9867   31.7996   -3.5036 C   0  0  0  0  0  0
    3.5008   30.7670   -3.9543 O   0  0  0  0  0  0
    5.4303   31.8075   -3.1072 C   0  0  0  0  0  0
    6.0392   32.8618   -2.4186 C   0  0  0  0  0  0
    7.3838   32.7961   -2.0455 C   0  0  0  0  0  0
    8.1319   31.6393   -2.3280 C   0  0  0  0  0  0
    7.5197   30.5490   -2.9707 C   0  0  0  0  0  0
    6.1895   30.6595   -3.3670 C   0  0  0  0  0  0
    8.2282   29.2254   -3.2491 C   0  0  0  0  0  0
    9.4452   31.5734   -1.9411 O   0  0  0  0  0  0
    7.9801   33.9941   -1.3166 C   0  0  0  0  0  0
    5.4221   35.1714   -6.1673 H   0  0  0  0  0  0
    5.2838   33.5533   -5.4880 H   0  0  0  0  0  0
    3.8994   34.2999   -6.2799 H   0  0  0  0  0  0
    3.9006   36.1011   -4.5097 H   0  0  0  0  0  0
    5.1812   35.3060   -3.6643 H   0  0  0  0  0  0
    1.2445   30.7751   -2.3415 H   0  0  0  0  0  0
   -0.9919   31.3252   -1.4094 H   0  0  0  0  0  0
   -1.7610   33.6458   -1.2815 H   0  0  0  0  0  0
   -0.3195   35.5130   -2.1093 H   0  0  0  0  0  0
    5.4733   33.7343   -2.1425 H   0  0  0  0  0  0
    5.7392   29.8119   -3.8665 H   0  0  0  0  0  0
    7.5784   28.5137   -3.7616 H   0  0  0  0  0  0
    9.1007   29.3741   -3.8742 H   0  0  0  0  0  0
    8.5413   28.7211   -2.3449 H   0  0  0  0  0  0
    9.8353   30.7267   -2.1642 H   0  0  0  0  0  0
    7.5005   34.1150   -0.3444 H   0  0  0  0  0  0
    7.7926   34.9077   -1.8843 H   0  0  0  0  0  0
    9.0589   33.9177   -1.1684 H   0  0  0  0  0  0
  1  2  1  0  0  0
  1 23  1  0  0  0
  1 24  1  0  0  0
  1 25  1  0  0  0
  2  3  1  0  0  0
  2 26  1  0  0  0
  2 27  1  0  0  0
  3 11  1  0  0  0
  3  4  2  0  0  0
  4  5  1  0  0  0
  4 12  1  0  0  0
  5 10  2  0  0  0
  5  6  1  0  0  0
  6  7  2  0  0  0
  6 28  1  0  0  0
  7  8  1  0  0  0
  7 29  1  0  0  0
  8  9  2  0  0  0
  8 30  1  0  0  0
  9 10  1  0  0  0
  9 31  1  0  0  0
 10 11  1  0  0  0
 12 13  2  0  0  0
 12 14  1  0  0  0
 14 19  1  0  0  0
 14 15  2  0  0  0
 15 16  1  0  0  0
 15 32  1  0  0  0
 16 17  2  0  0  0
 16 22  1  0  0  0
 17 18  1  0  0  0
 17 21  1  0  0  0
 18 19  2  0  0  0
 18 20  1  0  0  0
 19 33  1  0  0  0
 20 34  1  0  0  0
 20 35  1  0  0  0
 20 36  1  0  0  0
 21 37  1  0  0  0
 22 38  1  0  0  0
 22 39  1  0  0  0
 22 40  1  0  0  0
M  END
> <s_m_entry_id>
36020

> <s_m_entry_name>
ligand_docking-pose.15

> <s_m_Source_Path>
/home/csk/Desktop/cluster/DUD-E-result/cp2c9

> <s_m_Source_File>
ligand_docking-pose.sdf

> <i_m_Source_File_Index>
15

> <i_lp_mmshare_version>
53161

> <r_lp_tautomer_probability>
1

> <s_lp_Force_Field>
OPLS_2005

> <r_lp_Energy>
15.234354

> <b_lp_Chiralities_Consistent>
1

> <s_lp_Variant>
374124-1

> <s_i_glide_gridfile>
glide-grid_1r9o

> <i_i_glide_lignum>
95

> <i_i_glide_rotatable_bonds>
4

> <r_i_docking_score>
-7.86428895290169

> <r_i_glide_ligand_efficiency>
-0.357467679677349

> <r_i_glide_ligand_efficiency_sa>
-1.00163849686202

> <r_i_glide_ligand_efficiency_ln>
-1.92231907699856

> <r_i_glide_gscore>
-7.86428895290169

> <r_i_glide_lipo>
-4.79940563239241

> <r_i_glide_hbond>
0

> <r_i_glide_metal>
0

> <r_i_glide_rewards>
-1.72796227448787

> <r_i_glide_evdw>
-35.3090171813965

> <r_i_glide_ecoul>
0.0425464771687984

> <r_i_glide_erotb>
0.422147841473094

> <r_i_glide_esite>
0

> <r_i_glide_emodel>
-47.5017100743987

> <r_i_glide_energy>
-35.2664707042277

> <r_i_glide_einternal>
8.53602695465088

> <i_i_glide_confnum>
7

> <i_i_glide_posenum>
133

> <r_i_glide_eff_state_penalty>
0

> <i_f3d_flags>
0

> <s_user_duplicate_titles>
374124

> <s_m_subgroup_title>
dock_pv

> <s_m_subgroupid>
dock_pv1

> <b_m_subgroup_collapsed>
0

$$$$
153704
                    3D
 Schrodinger Suite 2021-1.
 41 43  0  0  1  0            999 V2000
    7.5835   32.9358   -6.3891 C   0  0  0  0  0  0
    6.1236   33.2864   -6.7204 C   0  0  1  0  0  0
    5.0606   32.6569   -5.7850 C   0  0  0  0  0  0
    5.0437   33.0946   -4.2927 C   0  0  2  0  0  0
    6.2601   32.6656   -3.4509 C   0  0  0  0  0  0
    6.8255   31.3879   -3.5629 C   0  0  0  0  0  0
    7.9422   31.0421   -2.8069 C   0  0  0  0  0  0
    8.5065   31.9748   -1.9416 C   0  0  0  0  0  0
    7.9587   33.2493   -1.8224 C   0  0  0  0  0  0
    6.8364   33.5905   -2.5724 C   0  0  0  0  0  0
    3.6933   32.7581   -3.6153 C   0  0  0  0  0  0
    2.8133   33.9082   -3.3237 C   0  0  0  0  0  0
    3.1007   35.0853   -3.5410 O   0  0  0  0  0  0
    1.4981   33.5405   -2.7174 C   0  0  0  0  0  0
    0.5331   34.5091   -2.4018 C   0  0  0  0  0  0
   -0.6808   34.1362   -1.8225 C   0  0  0  0  0  0
   -0.9440   32.7954   -1.5413 C   0  0  0  0  0  0
    0.0031   31.8228   -1.8582 C   0  0  0  0  0  0
    1.2102   32.1990   -2.4424 C   0  0  0  0  0  0
    2.0918   31.1877   -2.7407 O   0  0  0  0  0  0
    3.2710   31.5064   -3.3180 C   0  0  0  0  0  0
    3.9574   30.3746   -3.5859 O   0  0  0  0  0  0
    5.9990   34.6943   -6.7416 O   0  0  0  0  0  0
    5.9145   32.9326   -7.7324 H   0  0  0  0  0  0
    7.7312   31.8566   -6.3443 H   0  0  0  0  0  0
    8.2666   33.3285   -7.1417 H   0  0  0  0  0  0
    7.8986   33.3586   -5.4360 H   0  0  0  0  0  0
    5.1158   31.5750   -5.8472 H   0  0  0  0  0  0
    4.0855   32.8935   -6.2144 H   0  0  0  0  0  0
    5.1478   34.1792   -4.3517 H   0  0  0  0  0  0
    6.4109   30.6565   -4.2386 H   0  0  0  0  0  0
    8.3718   30.0552   -2.8948 H   0  0  0  0  0  0
    9.3722   31.7041   -1.3550 H   0  0  0  0  0  0
    8.3966   33.9681   -1.1459 H   0  0  0  0  0  0
    6.4164   34.5812   -2.4725 H   0  0  0  0  0  0
    0.7163   35.5575   -2.6030 H   0  0  0  0  0  0
   -1.4150   34.8907   -1.5779 H   0  0  0  0  0  0
   -1.8807   32.5137   -1.0818 H   0  0  0  0  0  0
   -0.1945   30.7818   -1.6537 H   0  0  0  0  0  0
    3.4267   29.6368   -3.2843 H   0  0  0  0  0  0
    5.0955   34.9230   -6.9746 H   0  0  0  0  0  0
  1  2  1  0  0  0
  1 25  1  0  0  0
  1 26  1  0  0  0
  1 27  1  0  0  0
  2 24  1  0  0  0
  2  3  1  0  0  0
  2 23  1  0  0  0
  3  4  1  0  0  0
  3 28  1  0  0  0
  3 29  1  0  0  0
  4  5  1  0  0  0
  4 11  1  0  0  0
  4 30  1  0  0  0
  5 10  1  0  0  0
  5  6  2  0  0  0
  6  7  1  0  0  0
  6 31  1  0  0  0
  7  8  2  0  0  0
  7 32  1  0  0  0
  8  9  1  0  0  0
  8 33  1  0  0  0
  9 10  2  0  0  0
  9 34  1  0  0  0
 10 35  1  0  0  0
 11 21  2  0  0  0
 11 12  1  0  0  0
 12 13  2  0  0  0
 12 14  1  0  0  0
 14 19  2  0  0  0
 14 15  1  0  0  0
 15 16  2  0  0  0
 15 36  1  0  0  0
 16 17  1  0  0  0
 16 37  1  0  0  0
 17 18  2  0  0  0
 17 38  1  0  0  0
 18 19  1  0  0  0
 18 39  1  0  0  0
 19 20  1  0  0  0
 20 21  1  0  0  0
 21 22  1  0  0  0
 22 40  1  0  0  0
 23 41  1  0  0  0
M  END
> <s_m_entry_id>
36021

> <s_m_entry_name>
ligand_docking-pose.16

> <s_m_Source_Path>
/home/csk/Desktop/cluster/DUD-E-result/cp2c9

> <s_m_Source_File>
ligand_docking-pose.sdf

> <i_m_Source_File_Index>
16

> <i_lp_mmshare_version>
53161

> <r_lp_tautomer_probability>
1

> <s_lp_Force_Field>
OPLS_2005

> <r_lp_Energy>
17.141369

> <b_lp_Chiralities_Consistent>
1

> <s_lp_Variant>
153704-1

> <s_i_glide_gridfile>
glide-grid_1r9o

> <i_i_glide_lignum>
151

> <i_i_glide_rotatable_bonds>
6

> <r_i_docking_score>
-7.8370725116686

> <r_i_glide_ligand_efficiency>
-0.340742283116026

> <r_i_glide_ligand_efficiency_sa>
-0.969025726580108

> <r_i_glide_ligand_efficiency_ln>
-1.8950751959661

> <r_i_glide_gscore>
-7.8370725116686

> <r_i_glide_lipo>
-5.11148825499848

> <r_i_glide_hbond>
0

> <r_i_glide_metal>
0

> <r_i_glide_rewards>
-1.40979104871435

> <r_i_glide_evdw>
-39.6923408508301

> <r_i_glide_ecoul>
-0.671486914157867

> <r_i_glide_erotb>
0.769546871709415

> <r_i_glide_esite>
0

> <r_i_glide_emodel>
-57.7127826651922

> <r_i_glide_energy>
-40.3638277649879

> <r_i_glide_einternal>
3.25673484802246

> <i_i_glide_confnum>
20

> <i_i_glide_posenum>
82

> <r_i_glide_eff_state_penalty>
0

> <i_f3d_flags>
0

> <s_user_duplicate_titles>
153704

> <s_m_subgroup_title>
dock_pv

> <s_m_subgroupid>
dock_pv1

> <b_m_subgroup_collapsed>
0

$$$$
520118
                    3D
 Schrodinger Suite 2021-1.
 44 47  0  0  1  0            999 V2000
    9.9702   33.0630   -1.3011 C   0  0  0  0  0  0
    9.8811   34.2265   -2.0567 C   0  0  0  0  0  0
    9.1024   34.2533   -3.2093 C   0  0  0  0  0  0
    8.3694   33.1165   -3.6007 C   0  0  0  0  0  0
    8.4354   31.9384   -2.8162 C   0  0  0  0  0  0
    9.2576   31.9298   -1.6802 C   0  0  0  0  0  0
    7.6140   30.7055   -3.1406 C   0  0  0  0  0  0
    6.4268   30.7693   -3.4545 O   0  0  0  0  0  0
    8.3018   29.5336   -3.1405 O   0  0  0  0  0  0
    7.5660   33.0720   -4.7546 N   0  0  0  0  0  0
    7.3653   33.9224   -5.7752 C   0  0  0  0  0  0
    7.9222   35.0014   -5.9411 O   0  0  0  0  0  0
    6.3202   33.4549   -6.7991 C   0  0  0  0  0  0
    5.1027   32.7141   -6.1844 C   0  0  0  0  0  0
    4.3388   33.4642   -5.1032 C   0  0  0  0  0  0
    3.3956   32.9192   -4.1813 C   0  0  0  0  0  0
    2.9236   31.6586   -3.7904 C   0  0  0  0  0  0
    1.7820   31.5774   -2.9809 C   0  0  0  0  0  0
    1.0768   32.7319   -2.5563 C   0  0  0  0  0  0
   -0.1628   32.6785   -1.8617 C   0  0  0  0  0  0
   -0.8361   33.8608   -1.5486 C   0  0  0  0  0  0
   -0.2898   35.0942   -1.8722 C   0  0  0  0  0  0
    0.9486   35.1753   -2.4944 C   0  0  0  0  0  0
    1.6254   34.0031   -2.8714 C   0  0  0  0  0  0
    2.8129   34.0542   -3.6341 C   0  0  0  0  0  0
    3.4997   35.1747   -4.0000 O   0  0  0  0  0  0
    4.4258   34.7751   -4.9654 N   0  0  0  0  0  0
   -2.0347   33.8475   -0.8900 O   0  0  0  0  0  0
   10.5745   33.0376   -0.4045 H   0  0  0  0  0  0
   10.4216   35.1113   -1.7572 H   0  0  0  0  0  0
    9.0936   35.1728   -3.7800 H   0  0  0  0  0  0
    9.3415   31.0490   -1.0597 H   0  0  0  0  0  0
    7.7151   28.8059   -3.3516 H   0  0  0  0  0  0
    7.0255   32.2214   -4.8003 H   0  0  0  0  0  0
    5.9586   34.3403   -7.3231 H   0  0  0  0  0  0
    6.8117   32.8265   -7.5409 H   0  0  0  0  0  0
    4.4139   32.4736   -6.9953 H   0  0  0  0  0  0
    5.4188   31.7478   -5.7942 H   0  0  0  0  0  0
    3.3910   30.7583   -4.1628 H   0  0  0  0  0  0
    1.3710   30.6091   -2.7392 H   0  0  0  0  0  0
   -0.5900   31.7213   -1.6072 H   0  0  0  0  0  0
   -0.8220   35.9988   -1.6166 H   0  0  0  0  0  0
    1.3749   36.1367   -2.7410 H   0  0  0  0  0  0
   -2.2387   33.0351   -0.4173 H   0  0  0  0  0  0
  1  6  1  0  0  0
  1  2  2  0  0  0
  1 29  1  0  0  0
  2  3  1  0  0  0
  2 30  1  0  0  0
  3  4  2  0  0  0
  3 31  1  0  0  0
  4  5  1  0  0  0
  4 10  1  0  0  0
  5  6  2  0  0  0
  5  7  1  0  0  0
  6 32  1  0  0  0
  7  8  2  0  0  0
  7  9  1  0  0  0
  9 33  1  0  0  0
 10 11  1  0  0  0
 10 34  1  0  0  0
 11 12  2  0  0  0
 11 13  1  0  0  0
 13 14  1  0  0  0
 13 35  1  0  0  0
 13 36  1  0  0  0
 14 15  1  0  0  0
 14 37  1  0  0  0
 14 38  1  0  0  0
 15 27  2  0  0  0
 15 16  1  0  0  0
 16 25  2  0  0  0
 16 17  1  0  0  0
 17 18  2  0  0  0
 17 39  1  0  0  0
 18 19  1  0  0  0
 18 40  1  0  0  0
 19 24  1  0  0  0
 19 20  2  0  0  0
 20 21  1  0  0  0
 20 41  1  0  0  0
 21 22  2  0  0  0
 21 28  1  0  0  0
 22 23  1  0  0  0
 22 42  1  0  0  0
 23 24  2  0  0  0
 23 43  1  0  0  0
 24 25  1  0  0  0
 25 26  1  0  0  0
 26 27  1  0  0  0
 28 44  1  0  0  0
M  END
> <s_m_entry_id>
36022

> <s_m_entry_name>
ligand_docking-pose.17

> <s_m_Source_Path>
/home/csk/Desktop/cluster/DUD-E-result/cp2c9

> <s_m_Source_File>
ligand_docking-pose.sdf

> <i_m_Source_File_Index>
17

> <i_lp_mmshare_version>
53161

> <r_lp_tautomer_probability>
1

> <s_lp_Force_Field>
OPLS_2005

> <r_lp_Energy>
30.86684

> <b_lp_Chiralities_Consistent>
1

> <s_lp_Variant>
520118-1

> <s_i_glide_gridfile>
glide-grid_1r9o

> <i_i_glide_lignum>
26

> <i_i_glide_rotatable_bonds>
8

> <r_i_docking_score>
-7.79941158383708

> <r_i_glide_ligand_efficiency>
-0.278550413708467

> <r_i_glide_ligand_efficiency_sa>
-0.845843113439027

> <r_i_glide_ligand_efficiency_ln>
-1.8003331942244

> <r_i_glide_gscore>
-7.79941158383708

> <r_i_glide_lipo>
-4.87354468300227

> <r_i_glide_hbond>
-0.296796391869029

> <r_i_glide_metal>
0

> <r_i_glide_rewards>
-1.76232857010257

> <r_i_glide_evdw>
-41.358341217041

> <r_i_glide_ecoul>
2.54166698455811

> <r_i_glide_erotb>
0.819925074305127

> <r_i_glide_esite>
0

> <r_i_glide_emodel>
-55.8570496171631

> <r_i_glide_energy>
-38.8166742324829

> <r_i_glide_einternal>
10.4287300109863

> <i_i_glide_confnum>
83

> <i_i_glide_posenum>
326

> <r_i_glide_eff_state_penalty>
0

> <i_f3d_flags>
0

> <s_user_duplicate_titles>
520118

> <s_m_subgroup_title>
dock_pv

> <s_m_subgroupid>
dock_pv1

> <b_m_subgroup_collapsed>
0

$$$$
320508
                    3D
 Schrodinger Suite 2021-1.
 46 48  0  0  1  0            999 V2000
    6.1910   30.7525   -4.1496 C   0  0  0  0  0  0
    7.1142   31.6564   -3.3831 C   0  0  0  0  0  0
    7.1999   33.0450   -3.3178 C   0  0  0  0  0  0
    8.3191   33.3266   -2.4569 C   0  0  0  0  0  0
    8.9343   34.5089   -2.0093 C   0  0  0  0  0  0
   10.0255   34.4240   -1.1370 C   0  0  0  0  0  0
   10.5040   33.1834   -0.7429 C   0  0  0  0  0  0
    9.9257   31.9834   -1.1409 C   0  0  0  0  0  0
    8.8390   32.0768   -2.0071 C   0  0  0  0  0  0
    8.0729   31.0990   -2.5838 N   0  0  0  0  0  0
   10.6969   35.4904   -0.5799 O   0  0  0  0  0  0
   10.3628   36.8261   -0.9130 C   0  0  0  0  0  0
   11.0977   37.5857   -0.1123 F   0  0  0  0  0  0
   10.7012   37.1012   -2.1735 F   0  0  0  0  0  0
    9.0836   37.1079   -0.6709 F   0  0  0  0  0  0
    6.3158   34.0844   -4.0006 C   0  0  0  0  0  0
    4.8650   33.6401   -4.1381 C   0  0  0  0  0  0
    4.3843   33.1677   -5.3601 C   0  0  0  0  0  0
    3.1037   32.6289   -5.4367 C   0  0  0  0  0  0
    2.2583   32.6614   -4.3322 C   0  0  0  0  0  0
    2.7005   33.1899   -3.1140 C   0  0  0  0  0  0
    4.0199   33.6341   -3.0259 C   0  0  0  0  0  0
    1.9352   33.2523   -1.9618 O   0  0  0  0  0  0
    0.5002   33.3563   -1.9688 C   0  0  1  0  0  0
   -0.0998   34.3245   -3.0176 C   0  0  0  0  0  0
   -0.1509   31.9537   -1.9406 C   0  0  0  0  0  0
    0.2991   30.9799   -2.5412 O   0  0  0  0  0  0
   -1.2777   31.9162   -1.1655 O   0  0  0  0  0  0
    8.1688   30.1020   -2.4738 H   0  0  0  0  0  0
    0.2699   33.8275   -1.0209 H   0  0  0  0  0  0
    6.0421   31.1750   -5.1409 H   0  0  0  0  0  0
    6.5831   29.7461   -4.2849 H   0  0  0  0  0  0
    5.2132   30.6607   -3.6771 H   0  0  0  0  0  0
    8.5503   35.4600   -2.3376 H   0  0  0  0  0  0
   11.3391   33.1750   -0.0573 H   0  0  0  0  0  0
   10.3010   31.0365   -0.7782 H   0  0  0  0  0  0
    6.7289   34.3592   -4.9724 H   0  0  0  0  0  0
    6.3046   35.0006   -3.4086 H   0  0  0  0  0  0
    5.0278   33.1425   -6.2255 H   0  0  0  0  0  0
    2.7757   32.1489   -6.3410 H   0  0  0  0  0  0
    1.2738   32.2377   -4.4287 H   0  0  0  0  0  0
    4.3937   33.9749   -2.0735 H   0  0  0  0  0  0
   -1.1578   34.5045   -2.8224 H   0  0  0  0  0  0
    0.4002   35.2905   -2.9633 H   0  0  0  0  0  0
   -0.0181   33.9763   -4.0455 H   0  0  0  0  0  0
   -1.4837   32.7314   -0.7007 H   0  0  0  0  0  0
  1  2  1  0  0  0
  1 31  1  0  0  0
  1 32  1  0  0  0
  1 33  1  0  0  0
  2 10  1  0  0  0
  2  3  2  0  0  0
  3  4  1  0  0  0
  3 16  1  0  0  0
  4  9  2  0  0  0
  4  5  1  0  0  0
  5  6  2  0  0  0
  5 34  1  0  0  0
  6  7  1  0  0  0
  6 11  1  0  0  0
  7  8  2  0  0  0
  7 35  1  0  0  0
  8  9  1  0  0  0
  8 36  1  0  0  0
  9 10  1  0  0  0
 10 29  1  0  0  0
 11 12  1  0  0  0
 12 13  1  0  0  0
 12 14  1  0  0  0
 12 15  1  0  0  0
 16 17  1  0  0  0
 16 37  1  0  0  0
 16 38  1  0  0  0
 17 22  1  0  0  0
 17 18  2  0  0  0
 18 19  1  0  0  0
 18 39  1  0  0  0
 19 20  2  0  0  0
 19 40  1  0  0  0
 20 21  1  0  0  0
 20 41  1  0  0  0
 21 22  2  0  0  0
 21 23  1  0  0  0
 22 42  1  0  0  0
 23 24  1  0  0  0
 24 30  1  0  0  0
 24 25  1  0  0  0
 24 26  1  0  0  0
 25 43  1  0  0  0
 25 44  1  0  0  0
 25 45  1  0  0  0
 26 27  2  0  0  0
 26 28  1  0  0  0
 28 46  1  0  0  0
M  END
> <s_m_entry_id>
36023

> <s_m_entry_name>
ligand_docking-pose.18

> <s_m_Source_Path>
/home/csk/Desktop/cluster/DUD-E-result/cp2c9

> <s_m_Source_File>
ligand_docking-pose.sdf

> <i_m_Source_File_Index>
18

> <i_lp_mmshare_version>
53161

> <r_lp_tautomer_probability>
1

> <s_lp_Force_Field>
OPLS_2005

> <r_lp_Energy>
14.059065

> <b_lp_Chiralities_Consistent>
1

> <s_lp_Variant>
320508-1

> <s_i_glide_gridfile>
glide-grid_1r9o

> <i_i_glide_lignum>
48

> <i_i_glide_rotatable_bonds>
8

> <r_i_docking_score>
-7.74751209398527

> <r_i_glide_ligand_efficiency>
-0.276696860499474

> <r_i_glide_ligand_efficiency_sa>
-0.840214634212065

> <r_i_glide_ligand_efficiency_ln>
-1.78835326813137

> <r_i_glide_gscore>
-7.74751209398527

> <r_i_glide_lipo>
-4.182707300319

> <r_i_glide_hbond>
-0.116866775478242

> <r_i_glide_metal>
0

> <r_i_glide_rewards>
-1.61811932815957

> <r_i_glide_evdw>
-40.8512916564941

> <r_i_glide_ecoul>
-3.37357759475708

> <r_i_glide_erotb>
0.757478464551069

> <r_i_glide_esite>
-0.0386959325412561

> <r_i_glide_emodel>
-62.4599261657006

> <r_i_glide_energy>
-44.2248692512512

> <r_i_glide_einternal>
5.28811740875244

> <i_i_glide_confnum>
68

> <i_i_glide_posenum>
380

> <r_i_glide_eff_state_penalty>
0

> <i_f3d_flags>
0

> <s_user_duplicate_titles>
320508

> <s_m_subgroup_title>
dock_pv

> <s_m_subgroupid>
dock_pv1

> <b_m_subgroup_collapsed>
0

$$$$
512628
                    3D
 Schrodinger Suite 2021-1.
 40 43  0  0  1  0            999 V2000
   10.4224   37.1739   -0.1377 C   0  0  0  0  0  0
    9.3146   36.7972    0.6159 C   0  0  0  0  0  0
    8.4317   35.8481    0.1147 C   0  0  0  0  0  0
    8.6494   35.2745   -1.1397 C   0  0  0  0  0  0
    9.7820   35.6421   -1.8861 C   0  0  0  0  0  0
   10.6562   36.6046   -1.3874 C   0  0  0  0  0  0
    7.6736   34.3532   -1.5643 N   0  0  0  0  0  0
    7.5017   33.7844   -2.7737 C   0  0  0  0  0  0
    8.2231   33.9591   -3.7574 O   0  0  0  0  0  0
    6.3166   32.8585   -2.8668 C   0  0  0  0  0  0
    5.0104   33.3568   -2.7428 C   0  0  0  0  0  0
    3.9156   32.4969   -2.8875 C   0  0  0  0  0  0
    4.0706   31.1780   -3.1687 N   0  0  0  0  0  0
    5.3192   30.6580   -3.2664 C   0  0  0  0  0  0
    6.4922   31.4537   -3.0846 C   0  0  0  0  0  0
    7.7577   30.7990   -3.1053 C   0  0  0  0  0  0
    7.8358   29.4226   -3.2836 C   0  0  0  0  0  0
    6.6924   28.6745   -3.5404 C   0  0  0  0  0  0
    5.4410   29.2756   -3.5402 C   0  0  0  0  0  0
    2.5057   32.9454   -2.6999 C   0  0  0  0  0  0
    2.0668   34.2020   -3.1405 C   0  0  0  0  0  0
    0.7547   34.5971   -2.8642 C   0  0  0  0  0  0
   -0.1444   33.8092   -2.2278 N   0  0  0  0  0  0
    0.2739   32.5854   -1.8286 C   0  0  0  0  0  0
    1.5762   32.1339   -2.0304 C   0  0  0  0  0  0
   11.0987   37.9293    0.2411 H   0  0  0  0  0  0
    9.1253   37.2495    1.5791 H   0  0  0  0  0  0
    7.5675   35.5793    0.7063 H   0  0  0  0  0  0
    9.9903   35.2192   -2.8559 H   0  0  0  0  0  0
   11.5037   36.9194   -1.9748 H   0  0  0  0  0  0
    6.9822   34.1135   -0.8688 H   0  0  0  0  0  0
    4.8463   34.4062   -2.5376 H   0  0  0  0  0  0
    8.6672   31.3626   -2.9525 H   0  0  0  0  0  0
    8.7964   28.9355   -3.2737 H   0  0  0  0  0  0
    6.7746   27.6102   -3.7036 H   0  0  0  0  0  0
    4.5557   28.6816   -3.7070 H   0  0  0  0  0  0
    2.7380   34.8748   -3.6529 H   0  0  0  0  0  0
    0.3985   35.5748   -3.1426 H   0  0  0  0  0  0
   -0.4481   31.9768   -1.3040 H   0  0  0  0  0  0
    1.8727   31.1750   -1.6433 H   0  0  0  0  0  0
  1  6  1  0  0  0
  1  2  2  0  0  0
  1 26  1  0  0  0
  2  3  1  0  0  0
  2 27  1  0  0  0
  3  4  2  0  0  0
  3 28  1  0  0  0
  4  5  1  0  0  0
  4  7  1  0  0  0
  5  6  2  0  0  0
  5 29  1  0  0  0
  6 30  1  0  0  0
  7  8  1  0  0  0
  7 31  1  0  0  0
  8  9  2  0  0  0
  8 10  1  0  0  0
 10 15  1  0  0  0
 10 11  2  0  0  0
 11 12  1  0  0  0
 11 32  1  0  0  0
 12 13  2  0  0  0
 12 20  1  0  0  0
 13 14  1  0  0  0
 14 19  2  0  0  0
 14 15  1  0  0  0
 15 16  2  0  0  0
 16 17  1  0  0  0
 16 33  1  0  0  0
 17 18  2  0  0  0
 17 34  1  0  0  0
 18 19  1  0  0  0
 18 35  1  0  0  0
 19 36  1  0  0  0
 20 25  1  0  0  0
 20 21  2  0  0  0
 21 22  1  0  0  0
 21 37  1  0  0  0
 22 23  2  0  0  0
 22 38  1  0  0  0
 23 24  1  0  0  0
 24 25  2  0  0  0
 24 39  1  0  0  0
 25 40  1  0  0  0
M  END
> <s_m_entry_id>
36024

> <s_m_entry_name>
ligand_docking-pose.19

> <s_m_Source_Path>
/home/csk/Desktop/cluster/DUD-E-result/cp2c9

> <s_m_Source_File>
ligand_docking-pose.sdf

> <i_m_Source_File_Index>
19

> <i_lp_mmshare_version>
53161

> <r_lp_tautomer_probability>
1

> <s_lp_Force_Field>
OPLS_2005

> <r_lp_Energy>
27.089579

> <b_lp_Chiralities_Consistent>
1

> <s_lp_Variant>
512628-1

> <s_i_glide_gridfile>
glide-grid_1r9o

> <i_i_glide_lignum>
33

> <i_i_glide_rotatable_bonds>
4

> <r_i_docking_score>
-7.73767828806485

> <r_i_glide_ligand_efficiency>
-0.309507131522594

> <r_i_glide_ligand_efficiency_sa>
-0.905004341704416

> <r_i_glide_ligand_efficiency_ln>
-1.83406163377814

> <r_i_glide_gscore>
-7.73767828806485

> <r_i_glide_lipo>
-4.90355270684624

> <r_i_glide_hbond>
0

> <r_i_glide_metal>
0

> <r_i_glide_rewards>
-1.34036428705057

> <r_i_glide_evdw>
-42.5608329772949

> <r_i_glide_ecoul>
-0.492162495851517

> <r_i_glide_erotb>
0.708104729074421

> <r_i_glide_esite>
0

> <r_i_glide_emodel>
-61.5499834794364

> <r_i_glide_energy>
-43.0529954731464

> <r_i_glide_einternal>
7.24480056762695

> <i_i_glide_confnum>
51

> <i_i_glide_posenum>
278

> <r_i_glide_eff_state_penalty>
0

> <i_f3d_flags>
0

> <s_user_duplicate_titles>
512628

> <s_m_subgroup_title>
dock_pv

> <s_m_subgroupid>
dock_pv1

> <b_m_subgroup_collapsed>
0

$$$$
512631
                    3D
 Schrodinger Suite 2021-1.
 52 56  0  0  1  0            999 V2000
    8.1072   32.8434   -6.5787 C   0  0  0  0  0  0
    6.6960   32.9828   -6.0871 C   0  0  0  0  0  0
    5.9443   34.1143   -6.3417 C   0  0  0  0  0  0
    4.6849   34.2615   -5.7639 C   0  0  0  0  0  0
    4.1670   33.2755   -4.8789 C   0  0  0  0  0  0
    4.9430   32.1065   -4.6289 C   0  0  0  0  0  0
    6.1909   31.9768   -5.2894 C   0  0  0  0  0  0
    4.4451   31.1581   -3.6842 C   0  0  0  0  0  0
    3.2068   31.4043   -3.0821 C   0  0  0  0  0  0
    2.4881   32.5648   -3.3833 C   0  0  0  0  0  0
    2.9655   33.4765   -4.2690 N   0  0  0  0  0  0
    1.1797   32.9068   -2.7304 C   0  0  0  0  0  0
    0.6958   34.2292   -2.7070 C   0  0  0  0  0  0
   -0.5335   34.5086   -2.1119 C   0  0  0  0  0  0
   -1.3047   33.5541   -1.5399 N   0  0  0  0  0  0
   -0.8389   32.2819   -1.5408 C   0  0  0  0  0  0
    0.3793   31.9225   -2.1222 C   0  0  0  0  0  0
    5.2137   29.9092   -3.3236 C   0  0  0  0  0  0
    4.7011   28.8169   -3.5410 O   0  0  0  0  0  0
    6.4812   29.9612   -2.8556 N   0  0  0  0  0  0
    7.3360   31.0450   -2.5669 C   0  0  0  0  0  0
    8.7004   30.7753   -2.6260 C   0  0  0  0  0  0
    9.6412   31.7530   -2.3117 C   0  0  0  0  0  0
    9.2423   33.0344   -1.9413 C   0  0  0  0  0  0
   10.1781   33.9988   -1.5194 C   0  0  0  0  0  0
    9.7670   35.2879   -1.2011 C   0  0  0  0  0  0
    8.4316   35.6342   -1.3489 C   0  0  0  0  0  0
    7.5010   34.6929   -1.7811 C   0  0  0  0  0  0
    7.8657   33.3587   -1.9925 C   0  0  0  0  0  0
    6.9140   32.3421   -2.2468 C   0  0  0  0  0  0
    3.8958   35.5074   -6.0538 C   0  0  0  0  0  0
    8.7011   32.7464   -5.6765 H   0  0  0  0  0  0
    8.2444   31.9233   -7.1410 H   0  0  0  0  0  0
    8.4538   33.7058   -7.1462 H   0  0  0  0  0  0
    6.3512   34.8931   -6.9711 H   0  0  0  0  0  0
    6.8015   31.1012   -5.1395 H   0  0  0  0  0  0
    2.8265   30.7104   -2.3515 H   0  0  0  0  0  0
    1.2588   35.0421   -3.1415 H   0  0  0  0  0  0
   -0.9176   35.5180   -2.0894 H   0  0  0  0  0  0
   -1.4710   31.5443   -1.0676 H   0  0  0  0  0  0
    0.6724   30.8851   -2.1123 H   0  0  0  0  0  0
    6.9097   29.0515   -2.7662 H   0  0  0  0  0  0
    9.0476   29.7880   -2.8954 H   0  0  0  0  0  0
   10.7049   31.5750   -2.3378 H   0  0  0  0  0  0
   11.2011   33.6897   -1.4229 H   0  0  0  0  0  0
   10.4779   36.0252   -0.8584 H   0  0  0  0  0  0
    8.1140   36.6448   -1.1379 H   0  0  0  0  0  0
    6.4706   34.9491   -1.9415 H   0  0  0  0  0  0
    5.8700   32.6027   -2.1779 H   0  0  0  0  0  0
    4.3682   35.9747   -6.9046 H   0  0  0  0  0  0
    2.8722   35.2817   -6.3403 H   0  0  0  0  0  0
    3.9014   36.1778   -5.1942 H   0  0  0  0  0  0
  1  2  1  0  0  0
  1 32  1  0  0  0
  1 33  1  0  0  0
  1 34  1  0  0  0
  2  7  1  0  0  0
  2  3  2  0  0  0
  3  4  1  0  0  0
  3 35  1  0  0  0
  4  5  2  0  0  0
  4 31  1  0  0  0
  5 11  1  0  0  0
  5  6  1  0  0  0
  6  7  2  0  0  0
  6  8  1  0  0  0
  7 36  1  0  0  0
  8  9  2  0  0  0
  8 18  1  0  0  0
  9 10  1  0  0  0
  9 37  1  0  0  0
 10 11  2  0  0  0
 10 12  1  0  0  0
 12 17  1  0  0  0
 12 13  2  0  0  0
 13 14  1  0  0  0
 13 38  1  0  0  0
 14 15  2  0  0  0
 14 39  1  0  0  0
 15 16  1  0  0  0
 16 17  2  0  0  0
 16 40  1  0  0  0
 17 41  1  0  0  0
 18 19  2  0  0  0
 18 20  1  0  0  0
 20 21  1  0  0  0
 20 42  1  0  0  0
 21 30  1  0  0  0
 21 22  2  0  0  0
 22 23  1  0  0  0
 22 43  1  0  0  0
 23 24  2  0  0  0
 23 44  1  0  0  0
 24 29  1  0  0  0
 24 25  1  0  0  0
 25 26  2  0  0  0
 25 45  1  0  0  0
 26 27  1  0  0  0
 26 46  1  0  0  0
 27 28  2  0  0  0
 27 47  1  0  0  0
 28 29  1  0  0  0
 28 48  1  0  0  0
 29 30  2  0  0  0
 30 49  1  0  0  0
 31 50  1  0  0  0
 31 51  1  0  0  0
 31 52  1  0  0  0
M  END
> <s_m_entry_id>
36025

> <s_m_entry_name>
ligand_docking-pose.20

> <s_m_Source_Path>
/home/csk/Desktop/cluster/DUD-E-result/cp2c9

> <s_m_Source_File>
ligand_docking-pose.sdf

> <i_m_Source_File_Index>
20

> <i_lp_mmshare_version>
53161

> <r_lp_tautomer_probability>
1

> <s_lp_Force_Field>
OPLS_2005

> <r_lp_Energy>
33.548281

> <b_lp_Chiralities_Consistent>
1

> <s_lp_Variant>
512631-1

> <s_i_glide_gridfile>
glide-grid_1r9o

> <i_i_glide_lignum>
50

> <i_i_glide_rotatable_bonds>
4

> <r_i_docking_score>
-7.73189779020144

> <r_i_glide_ligand_efficiency>
-0.249416057748434

> <r_i_glide_ligand_efficiency_sa>
-0.783510777309808

> <r_i_glide_ligand_efficiency_ln>
-1.74377990590057

> <r_i_glide_gscore>
-7.73189779020144

> <r_i_glide_lipo>
-6.29196436900734

> <r_i_glide_hbond>
-0.0216879498154289

> <r_i_glide_metal>
0

> <r_i_glide_rewards>
0.328533416213521

> <r_i_glide_evdw>
-43.0350189208984

> <r_i_glide_ecoul>
-0.516363739967346

> <r_i_glide_erotb>
0.482426619447829

> <r_i_glide_esite>
0

> <r_i_glide_emodel>
-49.3012487712863

> <r_i_glide_energy>
-43.5513826608658

> <r_i_glide_einternal>
5.5557427406311

> <i_i_glide_confnum>
50

> <i_i_glide_posenum>
48

> <r_i_glide_eff_state_penalty>
0

> <i_f3d_flags>
0

> <s_user_duplicate_titles>
512631

> <s_m_subgroup_title>
dock_pv

> <s_m_subgroupid>
dock_pv1

> <b_m_subgroup_collapsed>
0

$$$$
154110
                    3D
 Schrodinger Suite 2021-1.
 41 43  0  0  1  0            999 V2000
    7.8621   34.5021   -6.0132 C   0  0  0  0  0  0
    6.3248   34.5415   -5.9537 C   0  0  2  0  0  0
    5.6390   33.1524   -5.8632 C   0  0  0  0  0  0
    5.5287   32.4527   -4.4661 C   0  0  1  0  0  0
    6.6892   32.7104   -3.4916 C   0  0  0  0  0  0
    7.7068   31.7558   -3.3596 C   0  0  0  0  0  0
    8.7703   31.9760   -2.4894 C   0  0  0  0  0  0
    8.8341   33.1605   -1.7636 C   0  0  0  0  0  0
    7.8323   34.1186   -1.8856 C   0  0  0  0  0  0
    6.7561   33.8898   -2.7397 C   0  0  0  0  0  0
    4.1285   32.4175   -3.7963 C   0  0  0  0  0  0
    3.3724   33.6898   -3.6771 C   0  0  0  0  0  0
    3.7644   34.7883   -4.0696 O   0  0  0  0  0  0
    2.0320   33.5543   -3.0218 C   0  0  0  0  0  0
    1.1839   34.6531   -2.8190 C   0  0  0  0  0  0
   -0.0669   34.4905   -2.2221 C   0  0  0  0  0  0
   -0.4868   33.2284   -1.8059 C   0  0  0  0  0  0
    0.3510   32.1294   -1.9827 C   0  0  0  0  0  0
    1.5934   32.3000   -2.5896 C   0  0  0  0  0  0
    2.3587   31.1750   -2.7407 O   0  0  0  0  0  0
    3.5764   31.2783   -3.3149 C   0  0  0  0  0  0
    4.1918   30.0704   -3.3275 O   0  0  0  0  0  0
    5.9022   35.1742   -7.1427 O   0  0  0  0  0  0
    6.0155   35.1752   -5.1255 H   0  0  0  0  0  0
    8.3010   34.1095   -5.0974 H   0  0  0  0  0  0
    8.2142   33.8827   -6.8390 H   0  0  0  0  0  0
    8.2738   35.5035   -6.1520 H   0  0  0  0  0  0
    6.1495   32.4892   -6.5642 H   0  0  0  0  0  0
    4.6287   33.2245   -6.2707 H   0  0  0  0  0  0
    5.6762   31.4147   -4.7648 H   0  0  0  0  0  0
    7.6828   30.8380   -3.9289 H   0  0  0  0  0  0
    9.5452   31.2320   -2.3816 H   0  0  0  0  0  0
    9.6635   33.3328   -1.0938 H   0  0  0  0  0  0
    7.8845   35.0335   -1.3139 H   0  0  0  0  0  0
    5.9865   34.6414   -2.8200 H   0  0  0  0  0  0
    1.4859   35.6433   -3.1294 H   0  0  0  0  0  0
   -0.7087   35.3478   -2.0778 H   0  0  0  0  0  0
   -1.4518   33.1058   -1.3338 H   0  0  0  0  0  0
    0.0411   31.1480   -1.6576 H   0  0  0  0  0  0
    5.1005   30.1947   -3.6021 H   0  0  0  0  0  0
    4.9611   35.3610   -7.0768 H   0  0  0  0  0  0
  1  2  1  0  0  0
  1 25  1  0  0  0
  1 26  1  0  0  0
  1 27  1  0  0  0
  2 24  1  0  0  0
  2  3  1  0  0  0
  2 23  1  0  0  0
  3  4  1  0  0  0
  3 28  1  0  0  0
  3 29  1  0  0  0
  4  5  1  0  0  0
  4 11  1  0  0  0
  4 30  1  0  0  0
  5 10  1  0  0  0
  5  6  2  0  0  0
  6  7  1  0  0  0
  6 31  1  0  0  0
  7  8  2  0  0  0
  7 32  1  0  0  0
  8  9  1  0  0  0
  8 33  1  0  0  0
  9 10  2  0  0  0
  9 34  1  0  0  0
 10 35  1  0  0  0
 11 21  2  0  0  0
 11 12  1  0  0  0
 12 13  2  0  0  0
 12 14  1  0  0  0
 14 19  2  0  0  0
 14 15  1  0  0  0
 15 16  2  0  0  0
 15 36  1  0  0  0
 16 17  1  0  0  0
 16 37  1  0  0  0
 17 18  2  0  0  0
 17 38  1  0  0  0
 18 19  1  0  0  0
 18 39  1  0  0  0
 19 20  1  0  0  0
 20 21  1  0  0  0
 21 22  1  0  0  0
 22 40  1  0  0  0
 23 41  1  0  0  0
M  END
> <s_m_entry_id>
36026

> <s_m_entry_name>
ligand_docking-pose.21

> <s_m_Source_Path>
/home/csk/Desktop/cluster/DUD-E-result/cp2c9

> <s_m_Source_File>
ligand_docking-pose.sdf

> <i_m_Source_File_Index>
21

> <i_lp_mmshare_version>
53161

> <r_lp_tautomer_probability>
1

> <s_lp_Force_Field>
OPLS_2005

> <r_lp_Energy>
17.888765

> <b_lp_Chiralities_Consistent>
1

> <s_lp_Variant>
154110-2

> <s_i_glide_gridfile>
glide-grid_1r9o

> <i_i_glide_lignum>
154

> <i_i_glide_rotatable_bonds>
6

> <r_i_docking_score>
-7.7109188571152

> <r_i_glide_ligand_efficiency>
-0.335257341613704

> <r_i_glide_ligand_efficiency_sa>
-0.953427282571541

> <r_i_glide_ligand_efficiency_ln>
-1.86457009839699

> <r_i_glide_gscore>
-7.7109188571152

> <r_i_glide_lipo>
-4.77826413650464

> <r_i_glide_hbond>
0

> <r_i_glide_metal>
0

> <r_i_glide_rewards>
-1.53868789016582

> <r_i_glide_evdw>
-38.5224761962891

> <r_i_glide_ecoul>
-1.58259928226471

> <r_i_glide_erotb>
0.769546871709415

> <r_i_glide_esite>
0

> <r_i_glide_emodel>
-56.4229491382038

> <r_i_glide_energy>
-40.1050754785538

> <r_i_glide_einternal>
3.52956223487854

> <i_i_glide_confnum>
6

> <i_i_glide_posenum>
351

> <r_i_glide_eff_state_penalty>
0

> <i_f3d_flags>
0

> <s_user_duplicate_titles>
154110

> <s_m_subgroup_title>
dock_pv

> <s_m_subgroupid>
dock_pv1

> <b_m_subgroup_collapsed>
0

$$$$
422715
                    3D
 Schrodinger Suite 2021-1.
 51 54  0  0  1  0            999 V2000
    1.6776   32.0857   -4.3510 C   0  0  0  0  0  0
    2.8810   31.8660   -3.4044 C   0  0  0  0  0  0
    3.1689   30.3523   -3.3039 C   0  0  0  0  0  0
    4.1628   32.5778   -3.8633 C   0  0  0  0  0  0
    4.1577   33.3959   -4.9923 C   0  0  0  0  0  0
    5.3506   33.9283   -5.4916 C   0  0  0  0  0  0
    5.3668   34.7210   -6.6543 C   0  0  0  0  0  0
    6.5826   35.1749   -7.1413 C   0  0  0  0  0  0
    7.7494   34.8325   -6.4765 C   0  0  0  0  0  0
    7.7609   34.1215   -5.3299 N   0  0  0  0  0  0
    6.5807   33.6676   -4.8214 C   0  0  0  0  0  0
    6.5741   32.9257   -3.6048 C   0  0  0  0  0  0
    5.3691   32.3661   -3.1802 C   0  0  0  0  0  0
    7.7937   32.8157   -2.7601 C   0  0  0  0  0  0
    8.3248   31.5926   -2.3344 C   0  0  0  0  0  0
    9.4762   31.5750   -1.5407 C   0  0  0  0  0  0
   10.0962   32.7552   -1.1669 C   0  0  0  0  0  0
    9.5618   33.9774   -1.5514 C   0  0  0  0  0  0
    8.4221   33.9946   -2.3530 C   0  0  0  0  0  0
   10.1392   35.2292   -1.0424 C   0  0  0  0  0  0
   10.2448   36.3728   -1.8434 C   0  0  0  0  0  0
   10.6573   37.5736   -1.2749 C   0  0  0  0  0  0
   10.9639   37.5748    0.0820 C   0  0  0  0  0  0
   10.9530   36.4722    0.8589 N   0  0  0  0  0  0
   10.5444   35.3222    0.2939 C   0  0  0  0  0  0
    2.3099   32.4972   -1.6945 S   0  0  0  0  0  0
    3.5001   32.7297   -0.8714 O   0  0  0  0  0  0
    1.2485   31.6125   -1.2024 O   0  0  0  0  0  0
    1.4981   34.1590   -2.0691 C   0  0  0  0  0  0
    1.8844   31.7299   -5.3624 H   0  0  0  0  0  0
    0.8045   31.5747   -3.9472 H   0  0  0  0  0  0
    1.4006   33.1329   -4.4603 H   0  0  0  0  0  0
    3.6102   29.9764   -4.2283 H   0  0  0  0  0  0
    3.8577   30.1113   -2.4941 H   0  0  0  0  0  0
    2.2590   29.7831   -3.1410 H   0  0  0  0  0  0
    3.2576   33.6054   -5.5486 H   0  0  0  0  0  0
    4.4364   34.9659   -7.1411 H   0  0  0  0  0  0
    6.6190   35.7862   -8.0314 H   0  0  0  0  0  0
    8.7057   35.1748   -6.8441 H   0  0  0  0  0  0
    5.3733   31.7783   -2.2735 H   0  0  0  0  0  0
    7.8494   30.6635   -2.6133 H   0  0  0  0  0  0
    9.9007   30.6637   -1.1600 H   0  0  0  0  0  0
   10.9781   32.7360   -0.5477 H   0  0  0  0  0  0
    7.9890   34.9426   -2.6369 H   0  0  0  0  0  0
    9.9655   36.3447   -2.8867 H   0  0  0  0  0  0
   10.6954   38.4861   -1.8529 H   0  0  0  0  0  0
   11.2114   38.4946    0.5855 H   0  0  0  0  0  0
   10.5175   34.4734    0.9610 H   0  0  0  0  0  0
    1.3467   34.6968   -1.1410 H   0  0  0  0  0  0
    0.5293   33.9795   -2.5322 H   0  0  0  0  0  0
    2.1413   34.7265   -2.7423 H   0  0  0  0  0  0
  1  2  1  0  0  0
  1 30  1  0  0  0
  1 31  1  0  0  0
  1 32  1  0  0  0
  2  3  1  0  0  0
  2  4  1  0  0  0
  2 26  1  0  0  0
  3 33  1  0  0  0
  3 34  1  0  0  0
  3 35  1  0  0  0
  4 13  1  0  0  0
  4  5  2  0  0  0
  5  6  1  0  0  0
  5 36  1  0  0  0
  6 11  2  0  0  0
  6  7  1  0  0  0
  7  8  2  0  0  0
  7 37  1  0  0  0
  8  9  1  0  0  0
  8 38  1  0  0  0
  9 10  2  0  0  0
  9 39  1  0  0  0
 10 11  1  0  0  0
 11 12  1  0  0  0
 12 13  2  0  0  0
 12 14  1  0  0  0
 13 40  1  0  0  0
 14 19  1  0  0  0
 14 15  2  0  0  0
 15 16  1  0  0  0
 15 41  1  0  0  0
 16 17  2  0  0  0
 16 42  1  0  0  0
 17 18  1  0  0  0
 17 43  1  0  0  0
 18 19  2  0  0  0
 18 20  1  0  0  0
 19 44  1  0  0  0
 20 25  1  0  0  0
 20 21  2  0  0  0
 21 22  1  0  0  0
 21 45  1  0  0  0
 22 23  2  0  0  0
 22 46  1  0  0  0
 23 24  1  0  0  0
 23 47  1  0  0  0
 24 25  2  0  0  0
 25 48  1  0  0  0
 26 27  2  0  0  0
 26 28  2  0  0  0
 26 29  1  0  0  0
 29 49  1  0  0  0
 29 50  1  0  0  0
 29 51  1  0  0  0
M  END
> <s_m_entry_id>
36027

> <s_m_entry_name>
ligand_docking-pose.22

> <s_m_Source_Path>
/home/csk/Desktop/cluster/DUD-E-result/cp2c9

> <s_m_Source_File>
ligand_docking-pose.sdf

> <i_m_Source_File_Index>
22

> <i_lp_mmshare_version>
53161

> <r_lp_tautomer_probability>
1

> <s_lp_Force_Field>
OPLS_2005

> <r_lp_Energy>
24.789053

> <b_lp_Chiralities_Consistent>
1

> <s_lp_Variant>
422715-1

> <s_i_glide_gridfile>
glide-grid_1r9o

> <i_i_glide_lignum>
100

> <i_i_glide_rotatable_bonds>
4

> <r_i_docking_score>
-7.68369766316074

> <r_i_glide_ligand_efficiency>
-0.264955091833129

> <r_i_glide_ligand_efficiency_sa>
-0.814025985776372

> <r_i_glide_ligand_efficiency_ln>
-1.75937192310248

> <r_i_glide_gscore>
-7.68369766316074

> <r_i_glide_lipo>
-4.30891496521876

> <r_i_glide_hbond>
0

> <r_i_glide_metal>
0

> <r_i_glide_rewards>
-1.7879490695474

> <r_i_glide_evdw>
-35.4468955993652

> <r_i_glide_ecoul>
-1.18582332134247

> <r_i_glide_erotb>
0.363384649775045

> <r_i_glide_esite>
0

> <r_i_glide_emodel>
-44.5207728515418

> <r_i_glide_energy>
-36.6327189207077

> <r_i_glide_einternal>
4.2816686630249

> <i_i_glide_confnum>
3

> <i_i_glide_posenum>
146

> <r_i_glide_eff_state_penalty>
0

> <i_f3d_flags>
0

> <s_user_duplicate_titles>
422715

> <s_m_subgroup_title>
dock_pv

> <s_m_subgroupid>
dock_pv1

> <b_m_subgroup_collapsed>
0

$$$$
383732
                    3D
 Schrodinger Suite 2021-1.
 57 61  0  0  1  0            999 V2000
    3.3323   34.3667   -5.6747 C   0  0  0  0  0  0
    2.7721   33.6343   -4.4674 C   0  0  0  0  0  0
    1.5363   33.9755   -3.9077 C   0  0  0  0  0  0
    1.0618   33.3862   -2.7299 C   0  0  0  0  0  0
    1.7664   32.3670   -2.0823 C   0  0  0  0  0  0
    2.9786   32.0016   -2.6630 C   0  0  0  0  0  0
    3.4855   32.6144   -3.8353 C   0  0  0  0  0  0
    4.6901   32.0845   -4.1970 N   0  0  0  0  0  0
    4.9084   31.1526   -3.3128 C   0  0  0  0  0  0
    3.9426   31.0859   -2.3422 N   0  0  0  0  0  0
    6.0367   30.2651   -3.3804 C   0  0  0  0  0  0
    7.3018   30.6884   -3.1234 C   0  0  0  0  0  0
    8.3431   29.6776   -3.1410 C   0  0  0  0  0  0
    7.9981   28.3861   -3.2625 C   0  0  0  0  0  0
    6.7290   27.9890   -3.5410 N   0  0  0  0  0  0
    5.7341   28.8840   -3.7725 C   0  0  0  0  0  0
    4.7016   28.5331   -4.3253 O   0  0  0  0  0  0
    7.5731   31.9906   -2.7566 N   0  0  0  0  0  0
    8.8595   32.6791   -2.7558 C   0  0  1  0  0  0
    8.7301   34.2054   -3.0400 C   0  0  0  0  0  0
    9.1546   35.1706   -1.9329 C   0  0  0  0  0  0
   10.2967   35.9643   -2.0925 C   0  0  0  0  0  0
   10.6522   36.8793   -1.1037 C   0  0  0  0  0  0
    9.8729   36.9897    0.0452 C   0  0  0  0  0  0
    8.7394   36.1978    0.2155 C   0  0  0  0  0  0
    8.3798   35.2892   -0.7767 C   0  0  0  0  0  0
    9.7581   32.2691   -1.5617 C   0  0  0  0  0  0
   11.1105   32.3754   -1.9375 O   0  0  0  0  0  0
   -0.1098   33.8851   -2.1403 N   0  0  0  0  0  0
   -0.4592   35.1997   -1.9760 C   0  0  0  0  0  0
   -1.6385   35.2026   -1.2590 C   0  0  0  0  0  0
   -2.0447   33.9767   -1.0007 N   0  0  0  0  0  0
   -1.1376   33.1987   -1.5409 C   0  0  0  0  0  0
    3.9701   30.4267   -1.5808 H   0  0  0  0  0  0
    6.4976   27.0337   -3.7710 H   0  0  0  0  0  0
    9.3426   32.2857   -3.6513 H   0  0  0  0  0  0
    2.7010   35.1754   -6.0213 H   0  0  0  0  0  0
    4.3020   34.7965   -5.4214 H   0  0  0  0  0  0
    3.5008   33.6718   -6.4974 H   0  0  0  0  0  0
    0.9443   34.7586   -4.3555 H   0  0  0  0  0  0
    1.4109   31.9168   -1.1664 H   0  0  0  0  0  0
    9.3712   29.9494   -3.0189 H   0  0  0  0  0  0
    8.7041   27.5735   -3.2891 H   0  0  0  0  0  0
    6.7825   32.6127   -2.6703 H   0  0  0  0  0  0
    7.7044   34.4512   -3.3209 H   0  0  0  0  0  0
    9.3055   34.4440   -3.9332 H   0  0  0  0  0  0
   10.8892   35.8911   -2.9928 H   0  0  0  0  0  0
   11.5165   37.5148   -1.2292 H   0  0  0  0  0  0
   10.1418   37.7096    0.8034 H   0  0  0  0  0  0
    8.1379   36.2928    1.1084 H   0  0  0  0  0  0
    7.5013   34.6744   -0.6491 H   0  0  0  0  0  0
    9.5847   32.8888   -0.6890 H   0  0  0  0  0  0
    9.5981   31.2381   -1.2492 H   0  0  0  0  0  0
   11.3812   31.5748   -2.3950 H   0  0  0  0  0  0
    0.1741   35.9927   -2.3421 H   0  0  0  0  0  0
   -2.1841   36.0701   -0.9186 H   0  0  0  0  0  0
   -1.1271   32.1198   -1.5118 H   0  0  0  0  0  0
  1  2  1  0  0  0
  1 37  1  0  0  0
  1 38  1  0  0  0
  1 39  1  0  0  0
  2  7  1  0  0  0
  2  3  2  0  0  0
  3  4  1  0  0  0
  3 40  1  0  0  0
  4  5  2  0  0  0
  4 29  1  0  0  0
  5  6  1  0  0  0
  5 41  1  0  0  0
  6 10  1  0  0  0
  6  7  2  0  0  0
  7  8  1  0  0  0
  8  9  2  0  0  0
  9 10  1  0  0  0
  9 11  1  0  0  0
 10 34  1  0  0  0
 11 16  1  0  0  0
 11 12  2  0  0  0
 12 13  1  0  0  0
 12 18  1  0  0  0
 13 14  2  0  0  0
 13 42  1  0  0  0
 14 15  1  0  0  0
 14 43  1  0  0  0
 15 35  1  0  0  0
 15 16  1  0  0  0
 16 17  2  0  0  0
 18 19  1  0  0  0
 18 44  1  0  0  0
 19 36  1  0  0  0
 19 20  1  0  0  0
 19 27  1  0  0  0
 20 21  1  0  0  0
 20 45  1  0  0  0
 20 46  1  0  0  0
 21 26  1  0  0  0
 21 22  2  0  0  0
 22 23  1  0  0  0
 22 47  1  0  0  0
 23 24  2  0  0  0
 23 48  1  0  0  0
 24 25  1  0  0  0
 24 49  1  0  0  0
 25 26  2  0  0  0
 25 50  1  0  0  0
 26 51  1  0  0  0
 27 28  1  0  0  0
 27 52  1  0  0  0
 27 53  1  0  0  0
 28 54  1  0  0  0
 29 33  1  0  0  0
 29 30  1  0  0  0
 30 31  2  0  0  0
 30 55  1  0  0  0
 31 32  1  0  0  0
 31 56  1  0  0  0
 32 33  2  0  0  0
 33 57  1  0  0  0
M  END
> <s_m_entry_id>
36028

> <s_m_entry_name>
ligand_docking-pose.23

> <s_m_Source_Path>
/home/csk/Desktop/cluster/DUD-E-result/cp2c9

> <s_m_Source_File>
ligand_docking-pose.sdf

> <i_m_Source_File_Index>
23

> <i_lp_mmshare_version>
53161

> <r_lp_tautomer_probability>
0.999206294981429

> <s_lp_Force_Field>
OPLS_2005

> <r_lp_Energy>
42.731213

> <b_lp_Chiralities_Consistent>
1

> <s_lp_Variant>
383732-1

> <s_i_glide_gridfile>
glide-grid_1r9o

> <i_i_glide_lignum>
55

> <i_i_glide_rotatable_bonds>
8

> <r_i_docking_score>
-7.67766891918947

> <r_i_glide_ligand_efficiency>
-0.232656633914832

> <r_i_glide_ligand_efficiency_sa>
-0.746254139513335

> <r_i_glide_ligand_efficiency_ln>
-1.7074738147856

> <r_i_glide_gscore>
-7.67766891918947

> <r_i_glide_lipo>
-5.38749794470534

> <r_i_glide_hbond>
0

> <r_i_glide_metal>
0

> <r_i_glide_rewards>
-0.497628573426111

> <r_i_glide_evdw>
-46.5605964660645

> <r_i_glide_ecoul>
-0.546219944953918

> <r_i_glide_erotb>
0.617420413988292

> <r_i_glide_esite>
0

> <r_i_glide_emodel>
-55.1355594329221

> <r_i_glide_energy>
-47.1068164110184

> <r_i_glide_einternal>
10.0871257781982

> <i_i_glide_confnum>
5

> <i_i_glide_posenum>
278

> <r_i_glide_eff_state_penalty>
0

> <i_f3d_flags>
0

> <s_user_duplicate_titles>
383732

> <s_m_subgroup_title>
dock_pv

> <s_m_subgroupid>
dock_pv1

> <b_m_subgroup_collapsed>
0

$$$$
513017
                    3D
 Schrodinger Suite 2021-1.
 31 33  0  0  1  0            999 V2000
    0.0738   31.8434   -1.5421 C   0  0  0  0  0  0
    1.3590   32.0011   -2.0682 C   0  0  0  0  0  0
    1.7542   33.2266   -2.6221 C   0  0  0  0  0  0
    0.8413   34.2870   -2.6431 C   0  0  0  0  0  0
   -0.4372   34.1350   -2.1092 C   0  0  0  0  0  0
   -0.8229   32.9136   -1.5582 C   0  0  0  0  0  0
   -1.3032   35.1932   -2.1225 O   0  0  0  0  0  0
    3.1396   33.4396   -3.1390 C   0  0  0  0  0  0
    4.3036   32.8992   -2.5608 C   0  0  0  0  0  0
    5.4890   33.3491   -3.1355 C   0  0  0  0  0  0
    5.1712   34.3757   -4.4992 S   0  0  0  0  0  0
    3.4689   34.2369   -4.2336 C   0  0  0  0  0  0
    6.8908   33.0810   -2.7352 C   0  0  0  0  0  0
    7.7107   34.1456   -2.3462 C   0  0  0  0  0  0
    9.0213   33.9064   -1.9489 C   0  0  0  0  0  0
    9.5093   32.6021   -1.9493 C   0  0  0  0  0  0
    8.6982   31.5349   -2.3409 C   0  0  0  0  0  0
    7.3816   31.7739   -2.7209 C   0  0  0  0  0  0
   10.8003   32.3782   -1.5615 O   0  0  0  0  0  0
   -0.2261   30.8965   -1.1204 H   0  0  0  0  0  0
    2.0497   31.1741   -2.0420 H   0  0  0  0  0  0
    1.1365   35.2435   -3.0504 H   0  0  0  0  0  0
   -1.8142   32.7953   -1.1420 H   0  0  0  0  0  0
   -0.8966   35.9879   -2.4687 H   0  0  0  0  0  0
    4.2879   32.2536   -1.6949 H   0  0  0  0  0  0
    2.7921   34.7708   -4.8829 H   0  0  0  0  0  0
    7.3310   35.1581   -2.3405 H   0  0  0  0  0  0
    9.6554   34.7259   -1.6425 H   0  0  0  0  0  0
    9.0742   30.5233   -2.3426 H   0  0  0  0  0  0
    6.7492   30.9494   -3.0159 H   0  0  0  0  0  0
   11.0625   31.4568   -1.6330 H   0  0  0  0  0  0
  1  6  1  0  0  0
  1  2  2  0  0  0
  1 20  1  0  0  0
  2  3  1  0  0  0
  2 21  1  0  0  0
  3  4  2  0  0  0
  3  8  1  0  0  0
  4  5  1  0  0  0
  4 22  1  0  0  0
  5  6  2  0  0  0
  5  7  1  0  0  0
  6 23  1  0  0  0
  7 24  1  0  0  0
  8 12  2  0  0  0
  8  9  1  0  0  0
  9 10  2  0  0  0
  9 25  1  0  0  0
 10 11  1  0  0  0
 10 13  1  0  0  0
 11 12  1  0  0  0
 12 26  1  0  0  0
 13 18  1  0  0  0
 13 14  2  0  0  0
 14 15  1  0  0  0
 14 27  1  0  0  0
 15 16  2  0  0  0
 15 28  1  0  0  0
 16 17  1  0  0  0
 16 19  1  0  0  0
 17 18  2  0  0  0
 17 29  1  0  0  0
 18 30  1  0  0  0
 19 31  1  0  0  0
M  END
> <s_m_entry_id>
36029

> <s_m_entry_name>
ligand_docking-pose.24

> <s_m_Source_Path>
/home/csk/Desktop/cluster/DUD-E-result/cp2c9

> <s_m_Source_File>
ligand_docking-pose.sdf

> <i_m_Source_File_Index>
24

> <i_lp_mmshare_version>
53161

> <r_lp_tautomer_probability>
0.99999999999473

> <s_lp_Force_Field>
OPLS_2005

> <r_lp_Energy>
12.921292

> <b_lp_Chiralities_Consistent>
1

> <s_lp_Variant>
513017-1

> <s_i_glide_gridfile>
glide-grid_1r9o

> <i_i_glide_lignum>
34

> <i_i_glide_rotatable_bonds>
4

> <r_i_docking_score>
-7.63514852544098

> <r_i_glide_ligand_efficiency>
-0.401849922391631

> <r_i_glide_ligand_efficiency_sa>
-1.07229699439618

> <r_i_glide_ligand_efficiency_ln>
-1.93567413915337

> <r_i_glide_gscore>
-7.63514852544098

> <r_i_glide_lipo>
-4.66536541973863

> <r_i_glide_hbond>
0

> <r_i_glide_metal>
0

> <r_i_glide_rewards>
-1.57955945454545

> <r_i_glide_evdw>
-38.5312843322754

> <r_i_glide_ecoul>
0.270425289869308

> <r_i_glide_erotb>
0.495776771976477

> <r_i_glide_esite>
0

> <r_i_glide_emodel>
-53.5554533871673

> <r_i_glide_energy>
-38.2608590424061

> <r_i_glide_einternal>
4.36168813705444

> <i_i_glide_confnum>
7

> <i_i_glide_posenum>
389

> <r_i_glide_eff_state_penalty>
0

> <i_f3d_flags>
0

> <s_user_duplicate_titles>
513017

> <s_m_subgroup_title>
dock_pv

> <s_m_subgroupid>
dock_pv1

> <b_m_subgroup_collapsed>
0

$$$$
383645
                    3D
 Schrodinger Suite 2021-1.
 54 58  0  0  1  0            999 V2000
    9.1111   35.7978    0.8149 C   0  0  0  0  0  0
    9.4523   35.6441   -0.6575 C   0  0  0  0  0  0
   10.3821   36.5287   -1.2220 C   0  0  0  0  0  0
   10.6983   36.5021   -2.5878 C   0  0  0  0  0  0
   10.1241   35.5608   -3.4385 C   0  0  0  0  0  0
    9.2080   34.6686   -2.8814 C   0  0  0  0  0  0
    8.8499   34.6936   -1.5130 C   0  0  0  0  0  0
    7.9009   33.7304   -1.2537 N   0  0  0  0  0  0
    7.6820   33.1280   -2.4022 C   0  0  0  0  0  0
    8.4436   33.6594   -3.4142 N   0  0  0  0  0  0
    6.8038   31.9689   -2.5964 C   0  0  0  0  0  0
    5.4384   32.0260   -2.5575 C   0  0  0  0  0  0
    4.6777   30.8028   -2.7793 C   0  0  0  0  0  0
    5.3494   29.6885   -3.1037 C   0  0  0  0  0  0
    6.7077   29.6309   -3.1417 N   0  0  0  0  0  0
    7.4964   30.6928   -2.8378 C   0  0  0  0  0  0
    8.7010   30.5151   -2.7410 O   0  0  0  0  0  0
    4.7293   33.1753   -2.3406 N   0  0  0  0  0  0
    4.4120   34.1783   -3.3517 C   0  0  0  0  0  0
    3.1350   33.8779   -4.1825 C   0  0  2  0  0  0
    1.8730   33.6728   -3.3260 C   0  0  0  0  0  0
    1.2385   34.7749   -2.7410 C   0  0  0  0  0  0
    0.0791   34.6146   -1.9815 C   0  0  0  0  0  0
   -0.4522   33.3430   -1.7810 C   0  0  0  0  0  0
    0.1783   32.2322   -2.3367 C   0  0  0  0  0  0
    1.3288   32.3985   -3.1082 C   0  0  0  0  0  0
   -0.4892   30.6584   -2.0907 Cl  0  0  0  0  0  0
    3.3828   32.8107   -5.0864 O   0  0  0  0  0  0
   11.4562   37.5284   -3.1771 N   0  0  0  0  0  0
   12.1926   37.5010   -4.3408 C   0  0  0  0  0  0
   12.7008   38.7784   -4.4926 C   0  0  0  0  0  0
   12.3011   39.5749   -3.5384 N   0  0  0  0  0  0
   11.5214   38.8403   -2.7847 C   0  0  0  0  0  0
    8.4183   33.3107   -4.3600 H   0  0  0  0  0  0
    7.2039   28.7597   -3.2548 H   0  0  0  0  0  0
    9.2214   36.8326    1.1432 H   0  0  0  0  0  0
    8.0722   35.5230    1.0011 H   0  0  0  0  0  0
    9.7609   35.1751    1.4293 H   0  0  0  0  0  0
   10.8228   37.2882   -0.5902 H   0  0  0  0  0  0
   10.3131   35.5751   -4.5005 H   0  0  0  0  0  0
    3.6040   30.7936   -2.6976 H   0  0  0  0  0  0
    4.8891   28.7263   -3.2788 H   0  0  0  0  0  0
    3.9605   33.0828   -1.6927 H   0  0  0  0  0  0
    5.2708   34.3102   -4.0113 H   0  0  0  0  0  0
    4.3007   35.1338   -2.8381 H   0  0  0  0  0  0
    2.9462   34.7414   -4.8208 H   0  0  0  0  0  0
    1.6401   35.7699   -2.8727 H   0  0  0  0  0  0
   -0.4049   35.4755   -1.5445 H   0  0  0  0  0  0
   -1.3462   33.2190   -1.1871 H   0  0  0  0  0  0
    1.7849   31.5311   -3.5539 H   0  0  0  0  0  0
    4.2924   32.8621   -5.3874 H   0  0  0  0  0  0
   12.2991   36.6036   -4.9337 H   0  0  0  0  0  0
   13.3377   39.1723   -5.2709 H   0  0  0  0  0  0
   10.9817   39.1845   -1.9139 H   0  0  0  0  0  0
  1  2  1  0  0  0
  1 36  1  0  0  0
  1 37  1  0  0  0
  1 38  1  0  0  0
  2  7  1  0  0  0
  2  3  2  0  0  0
  3  4  1  0  0  0
  3 39  1  0  0  0
  4  5  2  0  0  0
  4 29  1  0  0  0
  5  6  1  0  0  0
  5 40  1  0  0  0
  6 10  1  0  0  0
  6  7  2  0  0  0
  7  8  1  0  0  0
  8  9  2  0  0  0
  9 10  1  0  0  0
  9 11  1  0  0  0
 10 34  1  0  0  0
 11 16  1  0  0  0
 11 12  2  0  0  0
 12 13  1  0  0  0
 12 18  1  0  0  0
 13 14  2  0  0  0
 13 41  1  0  0  0
 14 15  1  0  0  0
 14 42  1  0  0  0
 15 35  1  0  0  0
 15 16  1  0  0  0
 16 17  2  0  0  0
 18 19  1  0  0  0
 18 43  1  0  0  0
 19 20  1  0  0  0
 19 44  1  0  0  0
 19 45  1  0  0  0
 20 21  1  0  0  0
 20 28  1  0  0  0
 20 46  1  0  0  0
 21 26  1  0  0  0
 21 22  2  0  0  0
 22 23  1  0  0  0
 22 47  1  0  0  0
 23 24  2  0  0  0
 23 48  1  0  0  0
 24 25  1  0  0  0
 24 49  1  0  0  0
 25 26  2  0  0  0
 25 27  1  0  0  0
 26 50  1  0  0  0
 28 51  1  0  0  0
 29 33  1  0  0  0
 29 30  1  0  0  0
 30 31  2  0  0  0
 30 52  1  0  0  0
 31 32  1  0  0  0
 31 53  1  0  0  0
 32 33  2  0  0  0
 33 54  1  0  0  0
M  END
> <s_m_entry_id>
36030

> <s_m_entry_name>
ligand_docking-pose.25

> <s_m_Source_Path>
/home/csk/Desktop/cluster/DUD-E-result/cp2c9

> <s_m_Source_File>
ligand_docking-pose.sdf

> <i_m_Source_File_Index>
25

> <i_lp_mmshare_version>
53161

> <r_lp_tautomer_probability>
0.999206294981429

> <s_lp_Force_Field>
OPLS_2005

> <r_lp_Energy>
41.692569

> <b_lp_Chiralities_Consistent>
1

> <s_lp_Variant>
383645-1

> <s_i_glide_gridfile>
glide-grid_1r9o

> <i_i_glide_lignum>
52

> <i_i_glide_rotatable_bonds>
7

> <r_i_docking_score>
-7.63052179055906

> <r_i_glide_ligand_efficiency>
-0.231227933047244

> <r_i_glide_ligand_efficiency_sa>
-0.741671532438593

> <r_i_glide_ligand_efficiency_ln>
-1.69698853749297

> <r_i_glide_gscore>
-7.63052179055906

> <r_i_glide_lipo>
-4.70894679393977

> <r_i_glide_hbond>
0

> <r_i_glide_metal>
0

> <r_i_glide_rewards>
-0.32518334603901

> <r_i_glide_evdw>
-50.032096862793

> <r_i_glide_ecoul>
-3.32852029800415

> <r_i_glide_erotb>
0.473824792015567

> <r_i_glide_esite>
-0.0693335547555771

> <r_i_glide_emodel>
-67.2275428978873

> <r_i_glide_energy>
-53.3606171607971

> <r_i_glide_einternal>
6.0940146446228

> <i_i_glide_confnum>
166

> <i_i_glide_posenum>
183

> <r_i_glide_eff_state_penalty>
0

> <i_f3d_flags>
0

> <s_user_duplicate_titles>
383645

> <s_m_subgroup_title>
dock_pv

> <s_m_subgroupid>
dock_pv1

> <b_m_subgroup_collapsed>
0

$$$$
367457
                    3D
 Schrodinger Suite 2021-1.
 46 48  0  0  1  0            999 V2000
   -0.8050   34.4227   -1.7103 C   0  0  0  0  0  0
   -1.0355   33.0600   -1.5411 C   0  0  0  0  0  0
   -0.0964   32.1383   -1.9933 C   0  0  0  0  0  0
    1.0490   32.5847   -2.6593 C   0  0  0  0  0  0
    1.2800   33.9516   -2.8234 C   0  0  0  0  0  0
    0.3530   34.8702   -2.3410 C   0  0  0  0  0  0
    1.9739   31.5752   -3.3092 C   0  0  0  0  0  0
    3.3050   31.6546   -2.8200 O   0  0  0  0  0  0
    4.2572   30.8156   -3.3264 C   0  0  0  0  0  0
    4.0116   29.9761   -4.1949 O   0  0  0  0  0  0
    5.5177   31.0084   -2.7345 N   0  0  0  0  0  0
    5.7347   32.0489   -1.7080 C   0  0  0  0  0  0
    7.0685   32.7749   -1.9697 C   0  0  0  0  0  0
    8.2699   31.8401   -2.2136 C   0  0  0  0  0  0
    7.8811   30.9343   -3.3964 C   0  0  0  0  0  0
    6.6185   30.0948   -3.1167 C   0  0  0  0  0  0
    9.5836   32.6205   -2.5003 C   0  0  0  0  0  0
   10.2558   33.1692   -1.3232 N   0  0  0  0  0  0
   10.0116   34.4507   -0.8121 C   0  0  0  0  0  0
    9.0828   35.3327   -1.3775 C   0  0  0  0  0  0
    8.8232   36.5109   -0.6848 C   0  0  0  0  0  0
    9.4709   36.8517    0.4584 N   0  0  0  0  0  0
   10.3968   35.9640    0.8965 C   0  0  0  0  0  0
   10.7009   34.7755    0.3157 N   0  0  0  0  0  0
   -1.5251   35.1372   -1.3386 H   0  0  0  0  0  0
   -1.9312   32.7209   -1.0415 H   0  0  0  0  0  0
   -0.2872   31.0814   -1.8707 H   0  0  0  0  0  0
    2.1609   34.2998   -3.3422 H   0  0  0  0  0  0
    0.5288   35.9297   -2.4588 H   0  0  0  0  0  0
    1.5856   30.5698   -3.1405 H   0  0  0  0  0  0
    1.9670   31.7576   -4.3843 H   0  0  0  0  0  0
    4.9789   32.8335   -1.7608 H   0  0  0  0  0  0
    5.6336   31.5757   -0.7411 H   0  0  0  0  0  0
    6.9429   33.4391   -2.8267 H   0  0  0  0  0  0
    7.2677   33.4397   -1.1311 H   0  0  0  0  0  0
    8.4024   31.2018   -1.3380 H   0  0  0  0  0  0
    8.7010   30.2540   -3.6194 H   0  0  0  0  0  0
    7.7571   31.5218   -4.3086 H   0  0  0  0  0  0
    6.7436   29.3359   -2.3422 H   0  0  0  0  0  0
    6.3881   29.5668   -4.0436 H   0  0  0  0  0  0
   10.3211   31.9746   -2.9699 H   0  0  0  0  0  0
    9.4047   33.3969   -3.2454 H   0  0  0  0  0  0
   10.8105   32.5429   -0.7572 H   0  0  0  0  0  0
    8.5326   35.1092   -2.2769 H   0  0  0  0  0  0
    8.0568   37.1772   -1.0386 H   0  0  0  0  0  0
   10.9277   36.2164    1.8029 H   0  0  0  0  0  0
  1  6  1  0  0  0
  1  2  2  0  0  0
  1 25  1  0  0  0
  2  3  1  0  0  0
  2 26  1  0  0  0
  3  4  2  0  0  0
  3 27  1  0  0  0
  4  5  1  0  0  0
  4  7  1  0  0  0
  5  6  2  0  0  0
  5 28  1  0  0  0
  6 29  1  0  0  0
  7  8  1  0  0  0
  7 30  1  0  0  0
  7 31  1  0  0  0
  8  9  1  0  0  0
  9 10  2  0  0  0
  9 11  1  0  0  0
 11 16  1  0  0  0
 11 12  1  0  0  0
 12 13  1  0  0  0
 12 32  1  0  0  0
 12 33  1  0  0  0
 13 14  1  0  0  0
 13 34  1  0  0  0
 13 35  1  0  0  0
 14 15  1  0  0  0
 14 17  1  0  0  0
 14 36  1  0  0  0
 15 16  1  0  0  0
 15 37  1  0  0  0
 15 38  1  0  0  0
 16 39  1  0  0  0
 16 40  1  0  0  0
 17 18  1  0  0  0
 17 41  1  0  0  0
 17 42  1  0  0  0
 18 19  1  0  0  0
 18 43  1  0  0  0
 19 24  1  0  0  0
 19 20  2  0  0  0
 20 21  1  0  0  0
 20 44  1  0  0  0
 21 22  2  0  0  0
 21 45  1  0  0  0
 22 23  1  0  0  0
 23 24  2  0  0  0
 23 46  1  0  0  0
M  END
> <s_m_entry_id>
36031

> <s_m_entry_name>
ligand_docking-pose.26

> <s_m_Source_Path>
/home/csk/Desktop/cluster/DUD-E-result/cp2c9

> <s_m_Source_File>
ligand_docking-pose.sdf

> <i_m_Source_File_Index>
26

> <i_lp_mmshare_version>
53161

> <r_lp_tautomer_probability>
0.999999583200174

> <s_lp_Force_Field>
OPLS_2005

> <r_lp_Energy>
24.559349

> <b_lp_Chiralities_Consistent>
1

> <s_lp_Variant>
367457-1

> <s_i_glide_gridfile>
glide-grid_1r9o

> <i_i_glide_lignum>
24

> <i_i_glide_rotatable_bonds>
7

> <r_i_docking_score>
-7.62634406071049

> <r_i_glide_ligand_efficiency>
-0.317764335862937

> <r_i_glide_ligand_efficiency_sa>
-0.916590952743688

> <r_i_glide_ligand_efficiency_ln>
-1.82533408385391

> <r_i_glide_gscore>
-7.62634406071049

> <r_i_glide_lipo>
-4.04874926126334

> <r_i_glide_hbond>
0

> <r_i_glide_metal>
0

> <r_i_glide_rewards>
-2.36378034918433

> <r_i_glide_evdw>
-42.4107818603516

> <r_i_glide_ecoul>
-0.996835589408875

> <r_i_glide_erotb>
1.05624998116608

> <r_i_glide_esite>
0

> <r_i_glide_emodel>
-59.368570920072

> <r_i_glide_energy>
-43.4076174497604

> <r_i_glide_einternal>
8.184157371521

> <i_i_glide_confnum>
11

> <i_i_glide_posenum>
331

> <r_i_glide_eff_state_penalty>
0

> <i_f3d_flags>
0

> <s_user_duplicate_titles>
367457

> <s_m_subgroup_title>
dock_pv

> <s_m_subgroupid>
dock_pv1

> <b_m_subgroup_collapsed>
0

$$$$
466052
                    3D
 Schrodinger Suite 2021-1.
 39 41  0  0  1  0            999 V2000
    5.9009   34.7602   -6.7328 C   0  0  0  0  0  0
    7.0206   34.0289   -5.9716 C   0  0  0  0  0  0
    6.6759   32.5858   -5.5408 C   0  0  0  0  0  0
    5.6353   32.4403   -4.4247 C   0  0  0  0  0  0
    5.8039   31.9356   -3.1715 C   0  0  0  0  0  0
    4.6640   31.8051   -2.2507 C   0  0  0  0  0  0
    4.7010   31.2743   -1.1421 O   0  0  0  0  0  0
    3.4073   32.4249   -2.7553 C   0  0  0  0  0  0
    2.2585   32.5168   -1.9548 C   0  0  0  0  0  0
    1.1129   33.1487   -2.4387 C   0  0  0  0  0  0
    1.0984   33.6838   -3.7262 C   0  0  0  0  0  0
    2.2225   33.5712   -4.5403 C   0  0  0  0  0  0
    3.3646   32.9438   -4.0537 C   0  0  0  0  0  0
    4.4423   32.8749   -4.9053 O   0  0  0  0  0  0
    7.1464   31.5541   -2.7353 C   0  0  0  0  0  0
    7.4946   30.3765   -2.8266 O   0  0  0  0  0  0
    8.0754   32.6250   -2.2339 C   0  0  0  0  0  0
    9.4086   32.3059   -1.9411 C   0  0  0  0  0  0
   10.2875   33.2885   -1.4924 C   0  0  0  0  0  0
    9.8378   34.5969   -1.3247 C   0  0  0  0  0  0
    8.5117   34.9235   -1.5846 C   0  0  0  0  0  0
    7.6347   33.9440   -2.0393 C   0  0  0  0  0  0
   10.7000   35.5750   -0.9060 O   0  0  0  0  0  0
    6.2717   35.6876   -7.1685 H   0  0  0  0  0  0
    5.5077   34.1517   -7.5477 H   0  0  0  0  0  0
    5.0678   35.0186   -6.0791 H   0  0  0  0  0  0
    7.3242   34.6160   -5.1038 H   0  0  0  0  0  0
    7.8963   33.9899   -6.6218 H   0  0  0  0  0  0
    7.6028   32.0840   -5.2645 H   0  0  0  0  0  0
    6.3107   32.0243   -6.3974 H   0  0  0  0  0  0
    2.2500   32.1195   -0.9482 H   0  0  0  0  0  0
    0.2372   33.2302   -1.8101 H   0  0  0  0  0  0
    0.2112   34.1792   -4.0947 H   0  0  0  0  0  0
    2.2186   33.9755   -5.5394 H   0  0  0  0  0  0
    9.7756   31.2968   -2.0652 H   0  0  0  0  0  0
   11.3114   33.0251   -1.2758 H   0  0  0  0  0  0
    8.1552   35.9339   -1.4487 H   0  0  0  0  0  0
    6.6125   34.2322   -2.2384 H   0  0  0  0  0  0
   10.2536   36.4118   -0.7517 H   0  0  0  0  0  0
  1  2  1  0  0  0
  1 24  1  0  0  0
  1 25  1  0  0  0
  1 26  1  0  0  0
  2  3  1  0  0  0
  2 27  1  0  0  0
  2 28  1  0  0  0
  3  4  1  0  0  0
  3 29  1  0  0  0
  3 30  1  0  0  0
  4 14  1  0  0  0
  4  5  2  0  0  0
  5  6  1  0  0  0
  5 15  1  0  0  0
  6  7  2  0  0  0
  6  8  1  0  0  0
  8 13  2  0  0  0
  8  9  1  0  0  0
  9 10  2  0  0  0
  9 31  1  0  0  0
 10 11  1  0  0  0
 10 32  1  0  0  0
 11 12  2  0  0  0
 11 33  1  0  0  0
 12 13  1  0  0  0
 12 34  1  0  0  0
 13 14  1  0  0  0
 15 16  2  0  0  0
 15 17  1  0  0  0
 17 22  1  0  0  0
 17 18  2  0  0  0
 18 19  1  0  0  0
 18 35  1  0  0  0
 19 20  2  0  0  0
 19 36  1  0  0  0
 20 21  1  0  0  0
 20 23  1  0  0  0
 21 22  2  0  0  0
 21 37  1  0  0  0
 22 38  1  0  0  0
 23 39  1  0  0  0
M  END
> <s_m_entry_id>
36032

> <s_m_entry_name>
ligand_docking-pose.27

> <s_m_Source_Path>
/home/csk/Desktop/cluster/DUD-E-result/cp2c9

> <s_m_Source_File>
ligand_docking-pose.sdf

> <i_m_Source_File_Index>
27

> <i_lp_mmshare_version>
53161

> <r_lp_tautomer_probability>
1

> <s_lp_Force_Field>
OPLS_2005

> <r_lp_Energy>
22.165188

> <b_lp_Chiralities_Consistent>
1

> <s_lp_Variant>
466052-1

> <s_i_glide_gridfile>
glide-grid_1r9o

> <i_i_glide_lignum>
109

> <i_i_glide_rotatable_bonds>
5

> <r_i_docking_score>
-7.62139947380449

> <r_i_glide_ligand_efficiency>
-0.331365194513239

> <r_i_glide_ligand_efficiency_sa>
-0.942358533963371

> <r_i_glide_ligand_efficiency_ln>
-1.84292349979557

> <r_i_glide_gscore>
-7.62139947380449

> <r_i_glide_lipo>
-4.18346413425764

> <r_i_glide_hbond>
-0.15565109522603

> <r_i_glide_metal>
0

> <r_i_glide_rewards>
-1.77489858089085

> <r_i_glide_evdw>
-39.708080291748

> <r_i_glide_ecoul>
-0.705222368240356

> <r_i_glide_erotb>
0.583801706393491

> <r_i_glide_esite>
0

> <r_i_glide_emodel>
-57.1722553446171

> <r_i_glide_energy>
-40.4133026599884

> <r_i_glide_einternal>
3.02758312225342

> <i_i_glide_confnum>
9

> <i_i_glide_posenum>
377

> <r_i_glide_eff_state_penalty>
0

> <i_f3d_flags>
0

> <s_user_duplicate_titles>
466052

> <s_m_subgroup_title>
dock_pv

> <s_m_subgroupid>
dock_pv1

> <b_m_subgroup_collapsed>
0

$$$$
590228
                    3D
 Schrodinger Suite 2021-1.
 46 48  0  0  1  0            999 V2000
   -1.0635   34.5626   -1.7848 C   0  0  0  0  0  0
    0.4914   34.3639   -2.8174 S   0  0  0  0  0  0
    0.0995   34.3749   -4.2263 O   0  0  0  0  0  0
    1.5003   35.3066   -2.3419 O   0  0  0  0  0  0
    1.0448   32.7323   -2.4436 N   0  0  2  0  0  0
    1.6708   32.4220   -1.1444 C   0  0  0  0  0  0
    3.1329   32.2197   -1.4760 C   0  0  0  0  0  0
    3.2025   31.7704   -2.9349 C   0  0  1  0  0  0
    1.7759   31.9773   -3.4749 C   0  0  0  0  0  0
    4.2431   32.4907   -3.6835 N   0  0  0  0  0  0
    4.3117   32.2240   -5.1359 C   0  0  0  0  0  0
    5.4482   32.9852   -5.8223 C   0  0  0  0  0  0
    6.7038   32.3750   -5.8934 C   0  0  0  0  0  0
    7.8140   33.0707   -6.3413 C   0  0  0  0  0  0
    7.6790   34.3949   -6.7410 C   0  0  0  0  0  0
    6.4184   34.9834   -6.7628 C   0  0  0  0  0  0
    5.3005   34.2973   -6.2901 C   0  0  0  0  0  0
    3.7726   35.1056   -6.2777 Cl  0  0  0  0  0  0
    5.5107   32.4420   -3.0565 C   0  0  0  0  0  0
    6.1841   31.2299   -2.8567 C   0  0  0  0  0  0
    7.5101   31.2267   -2.4296 C   0  0  0  0  0  0
    8.1681   32.4315   -2.1684 C   0  0  0  0  0  0
    7.4730   33.6460   -2.2930 C   0  0  0  0  0  0
    6.1531   33.6408   -2.7428 C   0  0  0  0  0  0
    8.2095   35.1746   -1.9373 Cl  0  0  0  0  0  0
    9.5793   32.3976   -1.8145 C   0  0  0  0  0  0
   10.7012   32.3758   -1.5408 N   0  0  0  0  0  0
    3.4116   30.6992   -2.9669 H   0  0  0  0  0  0
   -1.4791   35.5494   -1.9774 H   0  0  0  0  0  0
   -0.8054   34.4646   -0.7335 H   0  0  0  0  0  0
   -1.7746   33.7902   -2.0724 H   0  0  0  0  0  0
    1.4934   33.1740   -0.3875 H   0  0  0  0  0  0
    1.2349   31.5033   -0.7475 H   0  0  0  0  0  0
    3.6367   33.1747   -1.3256 H   0  0  0  0  0  0
    3.6138   31.5246   -0.7904 H   0  0  0  0  0  0
    1.2917   31.0079   -3.4938 H   0  0  0  0  0  0
    1.6240   32.3557   -4.4851 H   0  0  0  0  0  0
    4.4360   31.1562   -5.3075 H   0  0  0  0  0  0
    3.3806   32.4861   -5.6356 H   0  0  0  0  0  0
    6.8388   31.3627   -5.5420 H   0  0  0  0  0  0
    8.7680   32.5722   -6.3733 H   0  0  0  0  0  0
    8.5374   34.9435   -7.1010 H   0  0  0  0  0  0
    6.3084   35.9849   -7.1425 H   0  0  0  0  0  0
    5.7058   30.2936   -3.1017 H   0  0  0  0  0  0
    8.0255   30.2808   -2.3413 H   0  0  0  0  0  0
    5.6320   34.5749   -2.8938 H   0  0  0  0  0  0
  1  2  1  0  0  0
  1 29  1  0  0  0
  1 30  1  0  0  0
  1 31  1  0  0  0
  2  3  2  0  0  0
  2  4  2  0  0  0
  2  5  1  0  0  0
  5  9  1  0  0  0
  5  6  1  0  0  0
  6  7  1  0  0  0
  6 32  1  0  0  0
  6 33  1  0  0  0
  7  8  1  0  0  0
  7 34  1  0  0  0
  7 35  1  0  0  0
  8 28  1  0  0  0
  8  9  1  0  0  0
  8 10  1  0  0  0
  9 36  1  0  0  0
  9 37  1  0  0  0
 10 11  1  0  0  0
 10 19  1  0  0  0
 11 12  1  0  0  0
 11 38  1  0  0  0
 11 39  1  0  0  0
 12 17  1  0  0  0
 12 13  2  0  0  0
 13 14  1  0  0  0
 13 40  1  0  0  0
 14 15  2  0  0  0
 14 41  1  0  0  0
 15 16  1  0  0  0
 15 42  1  0  0  0
 16 17  2  0  0  0
 16 43  1  0  0  0
 17 18  1  0  0  0
 19 24  1  0  0  0
 19 20  2  0  0  0
 20 21  1  0  0  0
 20 44  1  0  0  0
 21 22  2  0  0  0
 21 45  1  0  0  0
 22 23  1  0  0  0
 22 26  1  0  0  0
 23 24  2  0  0  0
 23 25  1  0  0  0
 24 46  1  0  0  0
 26 27  3  0  0  0
M  END
> <s_m_entry_id>
36033

> <s_m_entry_name>
ligand_docking-pose.28

> <s_m_Source_Path>
/home/csk/Desktop/cluster/DUD-E-result/cp2c9

> <s_m_Source_File>
ligand_docking-pose.sdf

> <i_m_Source_File_Index>
28

> <i_lp_mmshare_version>
53161

> <r_lp_tautomer_probability>
1

> <s_lp_Force_Field>
OPLS_2005

> <r_lp_Energy>
23.988024

> <b_lp_Chiralities_Consistent>
1

> <s_lp_Variant>
590228-1

> <s_i_glide_gridfile>
glide-grid_1r9o

> <i_i_glide_lignum>
174

> <i_i_glide_rotatable_bonds>
5

> <r_i_docking_score>
-7.57224730571405

> <r_i_glide_ligand_efficiency>
-0.280453603915335

> <r_i_glide_ligand_efficiency_sa>
-0.841360810821676

> <r_i_glide_ligand_efficiency_ln>
-1.76269433451676

> <r_i_glide_gscore>
-7.57224730571405

> <r_i_glide_lipo>
-4.89385313575363

> <r_i_glide_hbond>
0

> <r_i_glide_metal>
0

> <r_i_glide_rewards>
-0.997419039592332

> <r_i_glide_evdw>
-39.9746246337891

> <r_i_glide_ecoul>
-0.817920386791229

> <r_i_glide_erotb>
0.440444159340051

> <r_i_glide_esite>
0

> <r_i_glide_emodel>
-46.4611110953685

> <r_i_glide_energy>
-40.7925450205803

> <r_i_glide_einternal>
15.6375942230225

> <i_i_glide_confnum>
203

> <i_i_glide_posenum>
24

> <r_i_glide_eff_state_penalty>
0

> <i_f3d_flags>
0

> <s_user_duplicate_titles>
590228

> <s_m_subgroup_title>
dock_pv

> <s_m_subgroupid>
dock_pv1

> <b_m_subgroup_collapsed>
0

$$$$
397384
                    3D
 Schrodinger Suite 2021-1.
 33 35  0  0  1  0            999 V2000
    9.9898   34.3888   -1.3559 C   0  0  0  0  0  0
   10.3010   33.1018   -0.9316 C   0  0  0  0  0  0
    9.6551   32.0018   -1.4954 C   0  0  0  0  0  0
    8.6946   32.1822   -2.4925 C   0  0  0  0  0  0
    8.3930   33.4829   -2.9388 C   0  0  0  0  0  0
    9.0589   34.5712   -2.3706 C   0  0  0  0  0  0
    7.4945   33.7600   -3.9751 N   0  0  0  0  0  0
    6.0973   33.5603   -4.0190 C   0  0  0  0  0  0
    5.4876   34.1236   -4.9691 N   0  0  0  0  0  0
    3.8476   33.6493   -5.3600 S   0  0  0  0  0  0
    3.1178   34.7754   -5.9404 O   0  0  0  0  0  0
    3.8724   32.3823   -6.0989 O   0  0  0  0  0  0
    3.1913   33.3190   -3.7351 C   0  0  0  0  0  0
    1.8172   33.4128   -3.4821 C   0  0  0  0  0  0
    1.2842   32.8704   -2.3032 C   0  0  0  0  0  0
    2.1407   32.2161   -1.4147 C   0  0  0  0  0  0
    3.5153   32.1846   -1.6338 C   0  0  0  0  0  0
    4.0557   32.7587   -2.7872 C   0  0  0  0  0  0
    5.4467   32.8240   -2.9867 N   0  0  0  0  0  0
    4.3010   31.5750   -0.6941 O   0  0  0  0  0  0
   -0.1559   32.9638   -1.9913 N   0  3  0  0  0  0
   -0.7557   33.9737   -2.3412 O   0  5  0  0  0  0
   -0.6793   32.0307   -1.3874 O   0  0  0  0  0  0
    7.9075   30.7805   -3.1407 Cl  0  0  0  0  0  0
   10.4648   35.2446   -0.8996 H   0  0  0  0  0  0
   11.0218   32.9678   -0.1417 H   0  0  0  0  0  0
    9.8963   31.0111   -1.1405 H   0  0  0  0  0  0
    8.8439   35.5750   -2.7017 H   0  0  0  0  0  0
    7.8415   34.3898   -4.6835 H   0  0  0  0  0  0
    1.1603   33.8538   -4.2217 H   0  0  0  0  0  0
    1.7400   31.7657   -0.5164 H   0  0  0  0  0  0
    6.0496   32.3519   -2.3295 H   0  0  0  0  0  0
    5.0310   32.0788   -0.3112 H   0  0  0  0  0  0
  1  6  1  0  0  0
  1  2  2  0  0  0
  1 25  1  0  0  0
  2  3  1  0  0  0
  2 26  1  0  0  0
  3  4  2  0  0  0
  3 27  1  0  0  0
  4  5  1  0  0  0
  4 24  1  0  0  0
  5  6  2  0  0  0
  5  7  1  0  0  0
  6 28  1  0  0  0
  7  8  1  0  0  0
  7 29  1  0  0  0
  8 19  1  0  0  0
  8  9  2  0  0  0
  9 10  1  0  0  0
 10 11  2  0  0  0
 10 12  2  0  0  0
 10 13  1  0  0  0
 13 18  2  0  0  0
 13 14  1  0  0  0
 14 15  2  0  0  0
 14 30  1  0  0  0
 15 16  1  0  0  0
 15 21  1  0  0  0
 16 17  2  0  0  0
 16 31  1  0  0  0
 17 18  1  0  0  0
 17 20  1  0  0  0
 18 19  1  0  0  0
 19 32  1  0  0  0
 20 33  1  0  0  0
 21 22  1  0  0  0
 21 23  2  0  0  0
M  CHG  2  21   1  22  -1
M  END
> <s_m_entry_id>
36034

> <s_m_entry_name>
ligand_docking-pose.29

> <s_m_Source_Path>
/home/csk/Desktop/cluster/DUD-E-result/cp2c9

> <s_m_Source_File>
ligand_docking-pose.sdf

> <i_m_Source_File_Index>
29

> <i_lp_mmshare_version>
53161

> <r_lp_tautomer_probability>
1

> <s_lp_Force_Field>
OPLS_2005

> <r_lp_Energy>
12.621146

> <b_lp_Chiralities_Consistent>
1

> <s_lp_Variant>
397384-1

> <s_i_glide_gridfile>
glide-grid_1r9o

> <i_i_glide_lignum>
32

> <i_i_glide_rotatable_bonds>
4

> <r_i_docking_score>
-7.56710782049834

> <r_i_glide_ligand_efficiency>
-0.315296159187431

> <r_i_glide_ligand_efficiency_sa>
-0.909471499251847

> <r_i_glide_ligand_efficiency_ln>
-1.8111561333972

> <r_i_glide_gscore>
-7.56710782049834

> <r_i_glide_lipo>
-3.41023947000776

> <r_i_glide_hbond>
-0.255252165411612

> <r_i_glide_metal>
0

> <r_i_glide_rewards>
-1.71152438855497

> <r_i_glide_evdw>
-41.9518814086914

> <r_i_glide_ecoul>
-2.50649166107178

> <r_i_glide_erotb>
0.283476023071342

> <r_i_glide_esite>
0

> <r_i_glide_emodel>
-54.9959695451438

> <r_i_glide_energy>
-44.4583730697632

> <r_i_glide_einternal>
10.11647605896

> <i_i_glide_confnum>
3

> <i_i_glide_posenum>
34

> <r_i_glide_eff_state_penalty>
0

> <i_f3d_flags>
0

> <s_user_duplicate_titles>
397384

> <s_m_subgroup_title>
dock_pv

> <s_m_subgroupid>
dock_pv1

> <b_m_subgroup_collapsed>
0

$$$$
465835
                    3D
 Schrodinger Suite 2021-1.
 36 38  0  0  1  0            999 V2000
    3.7092   35.3016   -6.0501 C   0  0  0  0  0  0
    3.9010   35.3821   -4.5250 C   0  0  0  0  0  0
    3.1056   34.3280   -3.7516 C   0  0  0  0  0  0
    3.3668   33.0007   -3.6650 C   0  0  0  0  0  0
    2.4779   32.1013   -2.9289 C   0  0  0  0  0  0
    2.7006   30.9066   -2.7411 O   0  0  0  0  0  0
    1.2180   32.7437   -2.4673 C   0  0  0  0  0  0
    0.1678   31.9939   -1.9227 C   0  0  0  0  0  0
   -1.0159   32.6224   -1.5411 C   0  0  0  0  0  0
   -1.1584   34.0036   -1.6685 C   0  0  0  0  0  0
   -0.1184   34.7575   -2.2083 C   0  0  0  0  0  0
    1.0592   34.1273   -2.6003 C   0  0  0  0  0  0
    2.0443   34.9218   -3.1410 O   0  0  0  0  0  0
    4.5024   32.4413   -4.3758 C   0  0  0  0  0  0
    4.3372   31.9755   -5.5034 O   0  0  0  0  0  0
    5.7591   32.2264   -3.6167 C   0  0  0  0  0  0
    6.3462   33.2366   -2.8464 C   0  0  0  0  0  0
    7.5676   33.0220   -2.2114 C   0  0  0  0  0  0
    8.1924   31.7728   -2.3000 C   0  0  0  0  0  0
    7.5747   30.7431   -3.0265 C   0  0  0  0  0  0
    6.3866   30.9856   -3.7025 C   0  0  0  0  0  0
    8.3010   28.7870   -3.1410 I   0  0  0  0  0  0
    9.3900   31.5749   -1.6638 O   0  0  0  0  0  0
    8.4201   34.6095   -1.1407 I   0  0  0  0  0  0
    4.3842   35.9741   -6.5709 H   0  0  0  0  0  0
    3.9021   34.3075   -6.4490 H   0  0  0  0  0  0
    2.7011   35.5750   -6.3454 H   0  0  0  0  0  0
    3.6382   36.3751   -4.1585 H   0  0  0  0  0  0
    4.9614   35.2763   -4.3139 H   0  0  0  0  0  0
    0.2472   30.9212   -1.8126 H   0  0  0  0  0  0
   -1.8236   32.0323   -1.1407 H   0  0  0  0  0  0
   -2.0732   34.4844   -1.3535 H   0  0  0  0  0  0
   -0.2233   35.8231   -2.3324 H   0  0  0  0  0  0
    5.8794   34.2021   -2.7374 H   0  0  0  0  0  0
    5.9351   30.1813   -4.2659 H   0  0  0  0  0  0
    9.3789   30.7969   -1.1007 H   0  0  0  0  0  0
  1  2  1  0  0  0
  1 25  1  0  0  0
  1 26  1  0  0  0
  1 27  1  0  0  0
  2  3  1  0  0  0
  2 28  1  0  0  0
  2 29  1  0  0  0
  3 13  1  0  0  0
  3  4  2  0  0  0
  4  5  1  0  0  0
  4 14  1  0  0  0
  5  6  2  0  0  0
  5  7  1  0  0  0
  7 12  2  0  0  0
  7  8  1  0  0  0
  8  9  2  0  0  0
  8 30  1  0  0  0
  9 10  1  0  0  0
  9 31  1  0  0  0
 10 11  2  0  0  0
 10 32  1  0  0  0
 11 12  1  0  0  0
 11 33  1  0  0  0
 12 13  1  0  0  0
 14 15  2  0  0  0
 14 16  1  0  0  0
 16 21  1  0  0  0
 16 17  2  0  0  0
 17 18  1  0  0  0
 17 34  1  0  0  0
 18 19  2  0  0  0
 18 24  1  0  0  0
 19 20  1  0  0  0
 19 23  1  0  0  0
 20 21  2  0  0  0
 20 22  1  0  0  0
 21 35  1  0  0  0
 23 36  1  0  0  0
M  END
> <s_m_entry_id>
36036

> <s_m_entry_name>
ligand_docking-pose.31

> <s_m_Source_Path>
/home/csk/Desktop/cluster/DUD-E-result/cp2c9

> <s_m_Source_File>
ligand_docking-pose.sdf

> <i_m_Source_File_Index>
31

> <i_lp_mmshare_version>
53161

> <r_lp_tautomer_probability>
1

> <s_lp_Force_Field>
OPLS_2005

> <r_lp_Energy>
20.260682

> <b_lp_Chiralities_Consistent>
1

> <s_lp_Variant>
465835-1

> <s_i_glide_gridfile>
glide-grid_1r9o

> <i_i_glide_lignum>
97

> <i_i_glide_rotatable_bonds>
4

> <r_i_docking_score>
-7.53659763918795

> <r_i_glide_ligand_efficiency>
-0.314024901632831

> <r_i_glide_ligand_efficiency_sa>
-0.905804557931988

> <r_i_glide_ligand_efficiency_ln>
-1.80385364698863

> <r_i_glide_gscore>
-7.53659763918795

> <r_i_glide_lipo>
-4.93800357044483

> <r_i_glide_hbond>
0

> <r_i_glide_metal>
0

> <r_i_glide_rewards>
-0.353151185822824

> <r_i_glide_evdw>
-44.7573051452637

> <r_i_glide_ecoul>
-0.976368486881256

> <r_i_glide_erotb>
0.138877647375079

> <r_i_glide_esite>
0

> <r_i_glide_emodel>
-58.1592661257333

> <r_i_glide_energy>
-45.7336736321449

> <r_i_glide_einternal>
4.26668930053711

> <i_i_glide_confnum>
3

> <i_i_glide_posenum>
224

> <r_i_glide_eff_state_penalty>
0

> <i_f3d_flags>
0

> <s_user_duplicate_titles>
465835

> <s_m_subgroup_title>
dock_pv

> <s_m_subgroupid>
dock_pv1

> <b_m_subgroup_collapsed>
0

$$$$
383733
                    3D
 Schrodinger Suite 2021-1.
 50 53  0  0  1  0            999 V2000
    1.5082   32.8010   -5.5410 C   0  0  0  0  0  0
    1.6694   32.8656   -4.0896 C   0  0  0  0  0  0
    0.7140   33.5750   -3.3803 C   0  0  0  0  0  0
    0.8260   33.7286   -2.0222 C   0  0  0  0  0  0
    1.9087   33.1768   -1.3414 C   0  0  0  0  0  0
    2.8868   32.4916   -2.0504 C   0  0  0  0  0  0
    2.7729   32.3143   -3.4288 C   0  0  0  0  0  0
    3.8426   31.6225   -3.9265 N   0  0  0  0  0  0
    4.6099   31.3748   -2.8916 C   0  0  0  0  0  0
    4.0917   31.9028   -1.7286 N   0  0  0  0  0  0
    5.8450   30.5964   -2.9858 C   0  0  0  0  0  0
    7.0700   31.0730   -2.6199 C   0  0  0  0  0  0
    8.2232   30.1918   -2.7410 C   0  0  0  0  0  0
    8.0183   28.9276   -3.1410 C   0  0  0  0  0  0
    6.8095   28.4664   -3.5410 N   0  0  0  0  0  0
    5.7033   29.2405   -3.5410 C   0  0  0  0  0  0
    4.7010   28.7682   -4.0448 O   0  0  0  0  0  0
    7.2742   32.3336   -2.1225 N   0  0  0  0  0  0
    8.3562   33.2001   -2.5726 C   0  0  1  0  0  0
    7.8702   34.3750   -3.4206 C   0  0  0  0  0  0
    6.8678   34.0748   -4.5276 C   0  0  0  0  0  0
    7.2508   33.3094   -5.6294 C   0  0  0  0  0  0
    6.3645   33.1348   -6.6857 C   0  0  0  0  0  0
    5.1011   33.7158   -6.6389 C   0  0  0  0  0  0
    4.7102   34.4717   -5.5366 C   0  0  0  0  0  0
    5.5914   34.6436   -4.4742 C   0  0  0  0  0  0
    9.3387   33.6150   -1.4498 C   0  0  0  0  0  0
    8.9213   34.7716   -0.7410 O   0  0  0  0  0  0
   -0.4990   34.7732   -1.1410 Br  0  0  0  0  0  0
    4.5411   31.8136   -0.8284 H   0  0  0  0  0  0
    6.6652   27.5291   -3.8853 H   0  0  0  0  0  0
    8.9579   32.5971   -3.2550 H   0  0  0  0  0  0
    0.8850   33.6056   -5.9330 H   0  0  0  0  0  0
    2.5094   32.9086   -5.9410 H   0  0  0  0  0  0
    1.1010   31.8557   -5.8752 H   0  0  0  0  0  0
   -0.1130   34.0419   -3.8929 H   0  0  0  0  0  0
    2.0513   33.4189   -0.3410 H   0  0  0  0  0  0
    9.2012   30.5216   -2.4341 H   0  0  0  0  0  0
    8.7743   28.1632   -3.2263 H   0  0  0  0  0  0
    6.4828   32.8508   -1.7708 H   0  0  0  0  0  0
    8.7492   34.8184   -3.8854 H   0  0  0  0  0  0
    7.4487   35.1316   -2.7524 H   0  0  0  0  0  0
    8.2352   32.8677   -5.6790 H   0  0  0  0  0  0
    6.6611   32.5516   -7.5410 H   0  0  0  0  0  0
    4.4191   33.5750   -7.4645 H   0  0  0  0  0  0
    3.7307   34.9254   -5.5049 H   0  0  0  0  0  0
    5.2892   35.2425   -3.6273 H   0  0  0  0  0  0
    9.5208   32.7838   -0.7665 H   0  0  0  0  0  0
   10.3115   33.8337   -1.8915 H   0  0  0  0  0  0
    9.5428   34.9503   -0.0310 H   0  0  0  0  0  0
  1  2  1  0  0  0
  1 33  1  0  0  0
  1 34  1  0  0  0
  1 35  1  0  0  0
  2  7  1  0  0  0
  2  3  2  0  0  0
  3  4  1  0  0  0
  3 36  1  0  0  0
  4  5  2  0  0  0
  4 29  1  0  0  0
  5  6  1  0  0  0
  5 37  1  0  0  0
  6 10  1  0  0  0
  6  7  2  0  0  0
  7  8  1  0  0  0
  8  9  2  0  0  0
  9 10  1  0  0  0
  9 11  1  0  0  0
 10 30  1  0  0  0
 11 16  1  0  0  0
 11 12  2  0  0  0
 12 13  1  0  0  0
 12 18  1  0  0  0
 13 14  2  0  0  0
 13 38  1  0  0  0
 14 15  1  0  0  0
 14 39  1  0  0  0
 15 31  1  0  0  0
 15 16  1  0  0  0
 16 17  2  0  0  0
 18 19  1  0  0  0
 18 40  1  0  0  0
 19 32  1  0  0  0
 19 20  1  0  0  0
 19 27  1  0  0  0
 20 21  1  0  0  0
 20 41  1  0  0  0
 20 42  1  0  0  0
 21 26  1  0  0  0
 21 22  2  0  0  0
 22 23  1  0  0  0
 22 43  1  0  0  0
 23 24  2  0  0  0
 23 44  1  0  0  0
 24 25  1  0  0  0
 24 45  1  0  0  0
 25 26  2  0  0  0
 25 46  1  0  0  0
 26 47  1  0  0  0
 27 28  1  0  0  0
 27 48  1  0  0  0
 27 49  1  0  0  0
 28 50  1  0  0  0
M  END
> <s_m_entry_id>
36037

> <s_m_entry_name>
ligand_docking-pose.32

> <s_m_Source_Path>
/home/csk/Desktop/cluster/DUD-E-result/cp2c9

> <s_m_Source_File>
ligand_docking-pose.sdf

> <i_m_Source_File_Index>
32

> <i_lp_mmshare_version>
53161

> <r_lp_tautomer_probability>
0.999206294981429

> <s_lp_Force_Field>
OPLS_2005

> <r_lp_Energy>
35.480055

> <b_lp_Chiralities_Consistent>
1

> <s_lp_Variant>
383733-1

> <s_i_glide_gridfile>
glide-grid_1r9o

> <i_i_glide_lignum>
54

> <i_i_glide_rotatable_bonds>
7

> <r_i_docking_score>
-7.48932600931931

> <r_i_glide_ligand_efficiency>
-0.258252621011011

> <r_i_glide_ligand_efficiency_sa>
-0.793433871919023

> <r_i_glide_ligand_efficiency_ln>
-1.71486574321266

> <r_i_glide_gscore>
-7.48932600931931

> <r_i_glide_lipo>
-5.22349046326192

> <r_i_glide_hbond>
0

> <r_i_glide_metal>
0

> <r_i_glide_rewards>
-0.606776704081212

> <r_i_glide_evdw>
-36.9932441711426

> <r_i_glide_ecoul>
-1.98500144481659

> <r_i_glide_erotb>
0.488353583303432

> <r_i_glide_esite>
0

> <r_i_glide_emodel>
-43.8284870383432

> <r_i_glide_energy>
-38.9782456159592

> <r_i_glide_einternal>
8.22299385070801

> <i_i_glide_confnum>
53

> <i_i_glide_posenum>
16

> <r_i_glide_eff_state_penalty>
0

> <i_f3d_flags>
0

> <s_user_duplicate_titles>
383733

> <s_m_subgroup_title>
dock_pv

> <s_m_subgroupid>
dock_pv1

> <b_m_subgroup_collapsed>
0

$$$$
466072
                    3D
 Schrodinger Suite 2021-1.
 42 44  0  0  1  0            999 V2000
    4.9969   33.2444   -6.9966 C   0  0  0  0  0  0
    4.5840   34.6294   -6.4724 C   0  0  0  0  0  0
    4.9872   34.8925   -5.0095 C   0  0  0  0  0  0
    4.3089   33.9858   -3.9896 C   0  0  0  0  0  0
    4.8356   32.9427   -3.2918 C   0  0  0  0  0  0
    4.0051   32.2030   -2.3277 C   0  0  0  0  0  0
    4.4141   31.2894   -1.6101 O   0  0  0  0  0  0
    2.5735   32.6385   -2.2929 C   0  0  0  0  0  0
    1.6142   31.9846   -1.5074 C   0  0  0  0  0  0
    0.2761   32.3764   -1.5409 C   0  0  0  0  0  0
   -0.1059   33.4989   -2.2676 C   0  0  0  0  0  0
    0.8432   34.1900   -3.0125 C   0  0  0  0  0  0
    2.1608   33.7365   -3.0538 C   0  0  0  0  0  0
    3.0329   34.4301   -3.8560 O   0  0  0  0  0  0
    6.2103   32.4959   -3.5643 C   0  0  0  0  0  0
    6.3834   31.5570   -4.3418 O   0  0  0  0  0  0
    7.3611   33.1028   -2.8150 C   0  0  0  0  0  0
    7.2631   34.3738   -2.2399 C   0  0  0  0  0  0
    8.3360   34.9327   -1.5423 C   0  0  0  0  0  0
    9.5539   34.2632   -1.4724 C   0  0  0  0  0  0
    9.6684   32.9987   -2.0498 C   0  0  0  0  0  0
    8.5816   32.4188   -2.7094 C   0  0  0  0  0  0
   11.4793   31.9752   -1.9410 I   0  0  0  0  0  0
   10.6437   34.8851   -0.9088 O   0  0  0  0  0  0
   10.7629   34.7643    0.5023 C   0  0  0  0  0  0
    8.1436   36.7749   -0.5816 I   0  0  0  0  0  0
    4.7091   33.1218   -8.0408 H   0  0  0  0  0  0
    6.0757   33.0989   -6.9318 H   0  0  0  0  0  0
    4.5185   32.4427   -6.4322 H   0  0  0  0  0  0
    3.5051   34.7504   -6.5793 H   0  0  0  0  0  0
    5.0323   35.3952   -7.1086 H   0  0  0  0  0  0
    4.7010   35.9144   -4.7439 H   0  0  0  0  0  0
    6.0719   34.8535   -4.9170 H   0  0  0  0  0  0
    1.8945   31.1761   -0.8569 H   0  0  0  0  0  0
   -0.4572   31.8458   -0.9492 H   0  0  0  0  0  0
   -1.1315   33.8390   -2.2415 H   0  0  0  0  0  0
    0.5468   35.0777   -3.5416 H   0  0  0  0  0  0
    6.3482   34.9315   -2.3414 H   0  0  0  0  0  0
    8.6957   31.4345   -3.1414 H   0  0  0  0  0  0
   11.5009   35.4774    0.8581 H   0  0  0  0  0  0
   11.0919   33.7642    0.7836 H   0  0  0  0  0  0
    9.8479   35.0098    1.0355 H   0  0  0  0  0  0
  1  2  1  0  0  0
  1 27  1  0  0  0
  1 28  1  0  0  0
  1 29  1  0  0  0
  2  3  1  0  0  0
  2 30  1  0  0  0
  2 31  1  0  0  0
  3  4  1  0  0  0
  3 32  1  0  0  0
  3 33  1  0  0  0
  4 14  1  0  0  0
  4  5  2  0  0  0
  5  6  1  0  0  0
  5 15  1  0  0  0
  6  7  2  0  0  0
  6  8  1  0  0  0
  8 13  2  0  0  0
  8  9  1  0  0  0
  9 10  2  0  0  0
  9 34  1  0  0  0
 10 11  1  0  0  0
 10 35  1  0  0  0
 11 12  2  0  0  0
 11 36  1  0  0  0
 12 13  1  0  0  0
 12 37  1  0  0  0
 13 14  1  0  0  0
 15 16  2  0  0  0
 15 17  1  0  0  0
 17 22  1  0  0  0
 17 18  2  0  0  0
 18 19  1  0  0  0
 18 38  1  0  0  0
 19 20  2  0  0  0
 19 26  1  0  0  0
 20 21  1  0  0  0
 20 24  1  0  0  0
 21 22  2  0  0  0
 21 23  1  0  0  0
 22 39  1  0  0  0
 24 25  1  0  0  0
 25 40  1  0  0  0
 25 41  1  0  0  0
 25 42  1  0  0  0
M  END
> <s_m_entry_id>
36038

> <s_m_entry_name>
ligand_docking-pose.33

> <s_m_Source_Path>
/home/csk/Desktop/cluster/DUD-E-result/cp2c9

> <s_m_Source_File>
ligand_docking-pose.sdf

> <i_m_Source_File_Index>
33

> <i_lp_mmshare_version>
53161

> <r_lp_tautomer_probability>
1

> <s_lp_Force_Field>
OPLS_2005

> <r_lp_Energy>
27.177719

> <b_lp_Chiralities_Consistent>
1

> <s_lp_Variant>
466072-1

> <s_i_glide_gridfile>
glide-grid_1r9o

> <i_i_glide_lignum>
107

> <i_i_glide_rotatable_bonds>
5

> <r_i_docking_score>
-7.48754815052994

> <r_i_glide_ligand_efficiency>
-0.287982621174229

> <r_i_glide_ligand_efficiency_sa>
-0.853147382071756

> <r_i_glide_ligand_efficiency_ln>
-1.75842611450257

> <r_i_glide_gscore>
-7.48754815052994

> <r_i_glide_lipo>
-4.9038366510976

> <r_i_glide_hbond>
-0.127585482673277

> <r_i_glide_metal>
0

> <r_i_glide_rewards>
-0.31278835770884

> <r_i_glide_evdw>
-39.3382301330566

> <r_i_glide_ecoul>
-1.81634497642517

> <r_i_glide_erotb>
0.0960255940663815

> <r_i_glide_esite>
0

> <r_i_glide_emodel>
-53.0285027529125

> <r_i_glide_energy>
-41.1545751094818

> <r_i_glide_einternal>
1.97229933738708

> <i_i_glide_confnum>
14

> <i_i_glide_posenum>
7

> <r_i_glide_eff_state_penalty>
0

> <i_f3d_flags>
0

> <s_user_duplicate_titles>
466072

> <s_m_subgroup_title>
dock_pv

> <s_m_subgroupid>
dock_pv1

> <b_m_subgroup_collapsed>
0

$$$$
185953
                    3D
 Schrodinger Suite 2021-1.
 38 40  0  0  1  0            999 V2000
    3.0987   34.6199   -3.6861 C   0  0  0  0  0  0
    4.1902   34.5323   -4.5509 C   0  0  0  0  0  0
    4.4314   33.3502   -5.2711 C   0  0  0  0  0  0
    3.5493   32.2817   -5.1402 C   0  0  0  0  0  0
    2.4476   32.3808   -4.3016 C   0  0  0  0  0  0
    2.2162   33.5410   -3.5712 C   0  0  0  0  0  0
    1.0535   33.6042   -2.7741 N   0  0  0  0  0  0
    0.4676   32.6009   -2.0375 C   0  0  0  0  0  0
   -0.7157   33.1280   -1.5411 C   0  0  0  0  0  0
   -0.8766   34.3867   -1.8992 N   0  0  0  0  0  0
    0.1792   34.6530   -2.6292 C   0  0  0  0  0  0
    5.4833   33.1445   -6.1422 O   0  0  0  0  0  0
    6.5545   34.0795   -6.2450 C   0  0  0  0  0  0
    7.4064   34.2133   -4.9653 C   0  0  0  0  0  0
    7.8795   32.8800   -4.3436 C   0  0  0  0  0  0
    8.7150   33.0096   -3.0668 C   0  0  0  0  0  0
    9.1242   34.2504   -2.5554 C   0  0  0  0  0  0
    9.9000   34.2892   -1.3984 C   0  0  0  0  0  0
   10.3020   33.1711   -0.7485 N   0  0  0  0  0  0
    9.9001   31.9748   -1.2422 C   0  0  0  0  0  0
    9.1008   31.8526   -2.3799 C   0  0  0  0  0  0
    2.9230   35.5368   -3.1411 H   0  0  0  0  0  0
    4.8270   35.3949   -4.6578 H   0  0  0  0  0  0
    3.7163   31.3758   -5.7045 H   0  0  0  0  0  0
    1.7445   31.5751   -4.2297 H   0  0  0  0  0  0
    0.9228   31.6255   -1.9508 H   0  0  0  0  0  0
   -1.4385   32.6195   -0.9175 H   0  0  0  0  0  0
    0.3774   35.5752   -3.1412 H   0  0  0  0  0  0
    6.1760   35.0523   -6.5639 H   0  0  0  0  0  0
    7.1939   33.7351   -7.0589 H   0  0  0  0  0  0
    6.8550   34.7696   -4.2107 H   0  0  0  0  0  0
    8.2755   34.8205   -5.2160 H   0  0  0  0  0  0
    8.4607   32.3217   -5.0792 H   0  0  0  0  0  0
    7.0078   32.2668   -4.1091 H   0  0  0  0  0  0
    8.8565   35.1748   -3.0339 H   0  0  0  0  0  0
   10.2154   35.2320   -0.9756 H   0  0  0  0  0  0
   10.2284   31.0982   -0.7040 H   0  0  0  0  0  0
    8.8058   30.8754   -2.7341 H   0  0  0  0  0  0
  1  6  1  0  0  0
  1  2  2  0  0  0
  1 22  1  0  0  0
  2  3  1  0  0  0
  2 23  1  0  0  0
  3  4  2  0  0  0
  3 12  1  0  0  0
  4  5  1  0  0  0
  4 24  1  0  0  0
  5  6  2  0  0  0
  5 25  1  0  0  0
  6  7  1  0  0  0
  7 11  1  0  0  0
  7  8  1  0  0  0
  8  9  2  0  0  0
  8 26  1  0  0  0
  9 10  1  0  0  0
  9 27  1  0  0  0
 10 11  2  0  0  0
 11 28  1  0  0  0
 12 13  1  0  0  0
 13 14  1  0  0  0
 13 29  1  0  0  0
 13 30  1  0  0  0
 14 15  1  0  0  0
 14 31  1  0  0  0
 14 32  1  0  0  0
 15 16  1  0  0  0
 15 33  1  0  0  0
 15 34  1  0  0  0
 16 21  1  0  0  0
 16 17  2  0  0  0
 17 18  1  0  0  0
 17 35  1  0  0  0
 18 19  2  0  0  0
 18 36  1  0  0  0
 19 20  1  0  0  0
 20 21  2  0  0  0
 20 37  1  0  0  0
 21 38  1  0  0  0
M  END
> <s_m_entry_id>
36039

> <s_m_entry_name>
ligand_docking-pose.34

> <s_m_Source_Path>
/home/csk/Desktop/cluster/DUD-E-result/cp2c9

> <s_m_Source_File>
ligand_docking-pose.sdf

> <i_m_Source_File_Index>
34

> <i_lp_mmshare_version>
53161

> <r_lp_tautomer_probability>
1

> <s_lp_Force_Field>
OPLS_2005

> <r_lp_Energy>
16.240807

> <b_lp_Chiralities_Consistent>
1

> <s_lp_Variant>
185953-1

> <s_i_glide_gridfile>
glide-grid_1r9o

> <i_i_glide_lignum>
31

> <i_i_glide_rotatable_bonds>
6

> <r_i_docking_score>
-7.48676778133443

> <r_i_glide_ligand_efficiency>
-0.356512751492116

> <r_i_glide_ligand_efficiency_sa>
-0.983591648281564

> <r_i_glide_ligand_efficiency_ln>
-1.85108820549617

> <r_i_glide_gscore>
-7.48676778133443

> <r_i_glide_lipo>
-4.1904098045913

> <r_i_glide_hbond>
0

> <r_i_glide_metal>
0

> <r_i_glide_rewards>
-2.51839370469418

> <r_i_glide_evdw>
-36.7428131103516

> <r_i_glide_ecoul>
-0.645956754684448

> <r_i_glide_erotb>
1.1560698966713

> <r_i_glide_esite>
0

> <r_i_glide_emodel>
-53.4993585459584

> <r_i_glide_energy>
-37.388769865036

> <r_i_glide_einternal>
2.86205673217773

> <i_i_glide_confnum>
146

> <i_i_glide_posenum>
229

> <r_i_glide_eff_state_penalty>
0

> <i_f3d_flags>
0

> <s_user_duplicate_titles>
185953

> <s_m_subgroup_title>
dock_pv

> <s_m_subgroupid>
dock_pv1

> <b_m_subgroup_collapsed>
0

$$$$
185983
                    3D
 Schrodinger Suite 2021-1.
 38 40  0  0  1  0            999 V2000
    9.8920   32.0188   -1.1671 C   0  0  0  0  0  0
    9.1360   31.9176   -2.3363 C   0  0  0  0  0  0
    8.8228   33.0675   -3.0687 C   0  0  0  0  0  0
    9.2932   34.2953   -2.5766 C   0  0  0  0  0  0
   10.0175   34.4162   -1.4355 N   0  0  0  0  0  0
   10.3030   33.2832   -0.7478 C   0  0  0  0  0  0
    8.0059   32.9379   -4.3561 C   0  0  0  0  0  0
    7.4526   34.2615   -4.9258 C   0  0  0  0  0  0
    6.5708   34.1074   -6.1829 C   0  0  0  0  0  0
    5.5240   33.1486   -6.0454 O   0  0  0  0  0  0
    4.4610   33.3611   -5.1886 C   0  0  0  0  0  0
    4.2061   34.5551   -4.4961 C   0  0  0  0  0  0
    3.1016   34.6577   -3.6504 C   0  0  0  0  0  0
    2.2191   33.5784   -3.5156 C   0  0  0  0  0  0
    2.4695   32.3999   -4.2181 C   0  0  0  0  0  0
    3.5823   32.2912   -5.0432 C   0  0  0  0  0  0
    1.0496   33.6674   -2.7207 N   0  0  0  0  0  0
    0.3426   32.6496   -2.1184 C   0  0  0  0  0  0
   -0.7744   33.2335   -1.5410 C   0  0  0  0  0  0
   -0.7833   34.5393   -1.7171 N   0  0  0  0  0  0
    0.3057   34.7821   -2.4064 C   0  0  0  0  0  0
   10.1441   31.1385   -0.5954 H   0  0  0  0  0  0
    8.8025   30.9466   -2.6734 H   0  0  0  0  0  0
    9.1068   35.2229   -3.0927 H   0  0  0  0  0  0
   10.8839   33.4015    0.1556 H   0  0  0  0  0  0
    8.6230   32.4400   -5.1065 H   0  0  0  0  0  0
    7.1686   32.2687   -4.1501 H   0  0  0  0  0  0
    6.8965   34.7738   -4.1427 H   0  0  0  0  0  0
    8.2860   34.9128   -5.1886 H   0  0  0  0  0  0
    6.1665   35.0708   -6.4962 H   0  0  0  0  0  0
    7.1962   33.7716   -7.0113 H   0  0  0  0  0  0
    4.8434   35.4168   -4.6106 H   0  0  0  0  0  0
    2.9232   35.5937   -3.1406 H   0  0  0  0  0  0
    1.7864   31.5751   -4.1371 H   0  0  0  0  0  0
    3.7609   31.3739   -5.5839 H   0  0  0  0  0  0
    0.6751   31.6243   -2.1647 H   0  0  0  0  0  0
   -1.5554   32.7319   -0.9847 H   0  0  0  0  0  0
    0.6229   35.7557   -2.7415 H   0  0  0  0  0  0
  1  6  1  0  0  0
  1  2  2  0  0  0
  1 22  1  0  0  0
  2  3  1  0  0  0
  2 23  1  0  0  0
  3  4  2  0  0  0
  3  7  1  0  0  0
  4  5  1  0  0  0
  4 24  1  0  0  0
  5  6  2  0  0  0
  6 25  1  0  0  0
  7  8  1  0  0  0
  7 26  1  0  0  0
  7 27  1  0  0  0
  8  9  1  0  0  0
  8 28  1  0  0  0
  8 29  1  0  0  0
  9 10  1  0  0  0
  9 30  1  0  0  0
  9 31  1  0  0  0
 10 11  1  0  0  0
 11 16  1  0  0  0
 11 12  2  0  0  0
 12 13  1  0  0  0
 12 32  1  0  0  0
 13 14  2  0  0  0
 13 33  1  0  0  0
 14 15  1  0  0  0
 14 17  1  0  0  0
 15 16  2  0  0  0
 15 34  1  0  0  0
 16 35  1  0  0  0
 17 21  1  0  0  0
 17 18  1  0  0  0
 18 19  2  0  0  0
 18 36  1  0  0  0
 19 20  1  0  0  0
 19 37  1  0  0  0
 20 21  2  0  0  0
 21 38  1  0  0  0
M  END
> <s_m_entry_id>
36040

> <s_m_entry_name>
ligand_docking-pose.35

> <s_m_Source_Path>
/home/csk/Desktop/cluster/DUD-E-result/cp2c9

> <s_m_Source_File>
ligand_docking-pose.sdf

> <i_m_Source_File_Index>
35

> <i_lp_mmshare_version>
53161

> <r_lp_tautomer_probability>
1

> <s_lp_Force_Field>
OPLS_2005

> <r_lp_Energy>
13.969275

> <b_lp_Chiralities_Consistent>
1

> <s_lp_Variant>
185983-1

> <s_i_glide_gridfile>
glide-grid_1r9o

> <i_i_glide_lignum>
38

> <i_i_glide_rotatable_bonds>
6

> <r_i_docking_score>
-7.43504350796919

> <r_i_glide_ligand_efficiency>
-0.354049690855676

> <r_i_glide_ligand_efficiency_sa>
-0.976796250750693

> <r_i_glide_ligand_efficiency_ln>
-1.83829948342535

> <r_i_glide_gscore>
-7.43504350796919

> <r_i_glide_lipo>
-4.08915752678474

> <r_i_glide_hbond>
0

> <r_i_glide_metal>
0

> <r_i_glide_rewards>
-2.52291887314651

> <r_i_glide_evdw>
-36.2728271484375

> <r_i_glide_ecoul>
-1.10263764858246

> <r_i_glide_erotb>
1.1560698966713

> <r_i_glide_esite>
0

> <r_i_glide_emodel>
-53.8407502522721

> <r_i_glide_energy>
-37.37546479702

> <r_i_glide_einternal>
3.21009588241577

> <i_i_glide_confnum>
118

> <i_i_glide_posenum>
50

> <r_i_glide_eff_state_penalty>
0

> <i_f3d_flags>
0

> <s_user_duplicate_titles>
185983

> <s_m_subgroup_title>
dock_pv

> <s_m_subgroupid>
dock_pv1

> <b_m_subgroup_collapsed>
0

$$$$
403350
                    3D
 Schrodinger Suite 2021-1.
 46 48  0  0  1  0            999 V2000
   11.5016   38.4204   -2.7424 C   0  0  0  0  0  0
   11.4501   37.6260   -3.8794 C   0  0  0  0  0  0
   10.8413   36.3748   -3.8119 C   0  0  0  0  0  0
   10.3012   35.8888   -2.6114 C   0  0  0  0  0  0
   10.3367   36.7154   -1.4584 C   0  0  0  0  0  0
   10.9682   37.9633   -1.5416 C   0  0  0  0  0  0
    9.6608   36.3656   -0.1588 C   0  0  0  0  0  0
   10.2462   36.3990    0.9183 O   0  0  0  0  0  0
    8.3448   36.0458   -0.2829 O   0  0  0  0  0  0
    9.7454   34.5977   -2.6871 N   0  0  0  0  0  0
    9.9471   33.5627   -1.8433 C   0  0  0  0  0  0
   10.6536   33.6321   -0.8358 O   0  0  0  0  0  0
    9.3885   32.1826   -2.2194 C   0  0  0  0  0  0
    8.5316   32.0508   -3.5066 C   0  0  0  0  0  0
    7.0355   32.2093   -3.2830 C   0  0  0  0  0  0
    6.4406   33.4709   -3.3295 C   0  0  0  0  0  0
    5.0680   33.5942   -3.1428 C   0  0  0  0  0  0
    4.2736   32.4642   -2.9113 C   0  0  0  0  0  0
    4.8806   31.2039   -2.8679 C   0  0  0  0  0  0
    6.2533   31.0760   -3.0503 C   0  0  0  0  0  0
    2.8111   32.5986   -2.6491 C   0  0  0  0  0  0
    2.2774   31.9755   -1.5175 C   0  0  0  0  0  0
    0.9314   32.0908   -1.1918 C   0  0  0  0  0  0
    0.1029   32.9093   -1.9496 C   0  0  0  0  0  0
    0.6105   33.5286   -3.0934 C   0  0  0  0  0  0
    1.9415   33.3368   -3.4735 C   0  0  0  0  0  0
    2.4576   33.9759   -4.9940 Cl  0  0  0  0  0  0
   -1.2062   33.0994   -1.5842 O   0  0  0  0  0  0
   11.9481   39.4027   -2.7911 H   0  0  0  0  0  0
   11.8569   37.9846   -4.8142 H   0  0  0  0  0  0
   10.7995   35.7842   -4.7157 H   0  0  0  0  0  0
   11.0189   38.6153   -0.6824 H   0  0  0  0  0  0
    7.9817   35.8563    0.5830 H   0  0  0  0  0  0
    9.4360   34.3289   -3.6063 H   0  0  0  0  0  0
   10.2795   31.5748   -2.3457 H   0  0  0  0  0  0
    8.8567   31.7690   -1.3635 H   0  0  0  0  0  0
    8.8552   32.7200   -4.3063 H   0  0  0  0  0  0
    8.6835   31.0564   -3.9243 H   0  0  0  0  0  0
    7.0344   34.3551   -3.5084 H   0  0  0  0  0  0
    4.6199   34.5777   -3.1619 H   0  0  0  0  0  0
    4.2887   30.3196   -2.6881 H   0  0  0  0  0  0
    6.7021   30.0937   -3.0099 H   0  0  0  0  0  0
    2.9231   31.4134   -0.8639 H   0  0  0  0  0  0
    0.5452   31.5752   -0.3280 H   0  0  0  0  0  0
   -0.0452   34.1244   -3.7107 H   0  0  0  0  0  0
   -1.4280   32.7637   -0.7107 H   0  0  0  0  0  0
  1  6  1  0  0  0
  1  2  2  0  0  0
  1 29  1  0  0  0
  2  3  1  0  0  0
  2 30  1  0  0  0
  3  4  2  0  0  0
  3 31  1  0  0  0
  4  5  1  0  0  0
  4 10  1  0  0  0
  5  6  2  0  0  0
  5  7  1  0  0  0
  6 32  1  0  0  0
  7  8  2  0  0  0
  7  9  1  0  0  0
  9 33  1  0  0  0
 10 11  1  0  0  0
 10 34  1  0  0  0
 11 12  2  0  0  0
 11 13  1  0  0  0
 13 14  1  0  0  0
 13 35  1  0  0  0
 13 36  1  0  0  0
 14 15  1  0  0  0
 14 37  1  0  0  0
 14 38  1  0  0  0
 15 20  1  0  0  0
 15 16  2  0  0  0
 16 17  1  0  0  0
 16 39  1  0  0  0
 17 18  2  0  0  0
 17 40  1  0  0  0
 18 19  1  0  0  0
 18 21  1  0  0  0
 19 20  2  0  0  0
 19 41  1  0  0  0
 20 42  1  0  0  0
 21 26  1  0  0  0
 21 22  2  0  0  0
 22 23  1  0  0  0
 22 43  1  0  0  0
 23 24  2  0  0  0
 23 44  1  0  0  0
 24 25  1  0  0  0
 24 28  1  0  0  0
 25 26  2  0  0  0
 25 45  1  0  0  0
 26 27  1  0  0  0
 28 46  1  0  0  0
M  END
> <s_m_entry_id>
36041

> <s_m_entry_name>
ligand_docking-pose.36

> <s_m_Source_Path>
/home/csk/Desktop/cluster/DUD-E-result/cp2c9

> <s_m_Source_File>
ligand_docking-pose.sdf

> <i_m_Source_File_Index>
36

> <i_lp_mmshare_version>
53161

> <r_lp_tautomer_probability>
0.999999999997365

> <s_lp_Force_Field>
OPLS_2005

> <r_lp_Energy>
30.317232

> <b_lp_Chiralities_Consistent>
1

> <s_lp_Variant>
403350-1

> <s_i_glide_gridfile>
glide-grid_1r9o

> <i_i_glide_lignum>
28

> <i_i_glide_rotatable_bonds>
9

> <r_i_docking_score>
-7.40259689107951

> <r_i_glide_ligand_efficiency>
-0.264378460395697

> <r_i_glide_ligand_efficiency_sa>
-0.802808716347332

> <r_i_glide_ligand_efficiency_ln>
-1.70873671215031

> <r_i_glide_gscore>
-7.40259689107951

> <r_i_glide_lipo>
-3.82690537100863

> <r_i_glide_hbond>
-0.00886968087602256

> <r_i_glide_metal>
0

> <r_i_glide_rewards>
-1.57671411652947

> <r_i_glide_evdw>
-47.7584686279297

> <r_i_glide_ecoul>
-3.17322969436646

> <r_i_glide_erotb>
0.873800162886065

> <r_i_glide_esite>
0

> <r_i_glide_emodel>
-69.7370627092448

> <r_i_glide_energy>
-50.9316983222961

> <r_i_glide_einternal>
8.79220867156982

> <i_i_glide_confnum>
21

> <i_i_glide_posenum>
195

> <r_i_glide_eff_state_penalty>
0

> <i_f3d_flags>
0

> <s_user_duplicate_titles>
403350

> <s_m_subgroup_title>
dock_pv

> <s_m_subgroupid>
dock_pv1

> <b_m_subgroup_collapsed>
0

$$$$
590175
                    3D
 Schrodinger Suite 2021-1.
 52 54  0  0  1  0            999 V2000
   -0.4359   34.4485   -2.7421 C   0  0  0  0  0  0
   -0.9947   33.2646   -1.9361 C   0  0  0  0  0  0
    0.1638   31.7584   -1.8933 S   0  0  0  0  0  0
   -0.3697   30.6920   -2.7410 O   0  0  0  0  0  0
    0.4369   31.4628   -0.4986 O   0  0  0  0  0  0
    1.7039   32.2818   -2.5561 N   0  0  1  0  0  0
    2.5035   33.1749   -1.7105 C   0  0  0  0  0  0
    3.5557   32.2377   -1.1406 C   0  0  0  0  0  0
    3.9443   31.3606   -2.3124 C   0  0  1  0  0  0
    2.6245   31.2706   -3.1334 C   0  0  0  0  0  0
    5.0618   31.8848   -3.1054 N   0  0  0  0  0  0
    5.3777   31.1715   -4.3381 C   0  0  0  0  0  0
    6.1828   32.0595   -5.2688 C   0  0  0  0  0  0
    7.4864   31.6526   -5.5107 C   0  0  0  0  0  0
    8.3011   32.3988   -6.3205 C   0  0  0  0  0  0
    7.9009   33.6613   -6.7412 C   0  0  0  0  0  0
    6.5959   34.0857   -6.5214 C   0  0  0  0  0  0
    5.6986   33.2664   -5.8266 C   0  0  0  0  0  0
    4.2265   33.6738   -5.7473 C   0  0  0  0  0  0
    3.5010   32.6495   -6.1819 F   0  0  0  0  0  0
    3.8380   33.9933   -4.5209 F   0  0  0  0  0  0
    3.9517   34.7299   -6.5070 F   0  0  0  0  0  0
    6.1781   32.5066   -2.4960 C   0  0  0  0  0  0
    6.2164   33.8977   -2.4983 C   0  0  0  0  0  0
    7.3518   34.5785   -2.0879 C   0  0  0  0  0  0
    8.4689   33.8892   -1.6404 C   0  0  0  0  0  0
    8.4660   32.4857   -1.6560 C   0  0  0  0  0  0
    7.3195   31.8019   -2.0848 C   0  0  0  0  0  0
    9.8467   31.5752   -1.1416 Cl  0  0  0  0  0  0
    9.5744   34.6906   -1.1416 C   0  0  0  0  0  0
   10.4407   35.3416   -0.7420 N   0  0  0  0  0  0
    4.2089   30.3695   -1.9433 H   0  0  0  0  0  0
   -1.2003   35.2136   -2.8822 H   0  0  0  0  0  0
    0.4036   34.9261   -2.2390 H   0  0  0  0  0  0
   -0.1010   34.1397   -3.7332 H   0  0  0  0  0  0
   -1.9414   32.9132   -2.3407 H   0  0  0  0  0  0
   -1.1907   33.5502   -0.9022 H   0  0  0  0  0  0
    1.9014   33.7335   -0.9943 H   0  0  0  0  0  0
    2.9441   33.9476   -2.3409 H   0  0  0  0  0  0
    3.1313   31.6186   -0.3480 H   0  0  0  0  0  0
    4.3777   32.7746   -0.6748 H   0  0  0  0  0  0
    2.8231   31.5855   -4.1516 H   0  0  0  0  0  0
    2.1966   30.2692   -3.1408 H   0  0  0  0  0  0
    4.5052   30.7993   -4.8685 H   0  0  0  0  0  0
    5.9455   30.2762   -4.0799 H   0  0  0  0  0  0
    7.8856   30.7637   -5.0637 H   0  0  0  0  0  0
    9.2927   32.0295   -6.5364 H   0  0  0  0  0  0
    8.5783   34.2812   -7.3103 H   0  0  0  0  0  0
    6.2825   35.0356   -6.9312 H   0  0  0  0  0  0
    5.3645   34.4688   -2.8287 H   0  0  0  0  0  0
    7.3311   35.6572   -2.0868 H   0  0  0  0  0  0
    7.3214   30.7232   -2.1153 H   0  0  0  0  0  0
  1  2  1  0  0  0
  1 33  1  0  0  0
  1 34  1  0  0  0
  1 35  1  0  0  0
  2  3  1  0  0  0
  2 36  1  0  0  0
  2 37  1  0  0  0
  3  4  2  0  0  0
  3  5  2  0  0  0
  3  6  1  0  0  0
  6 10  1  0  0  0
  6  7  1  0  0  0
  7  8  1  0  0  0
  7 38  1  0  0  0
  7 39  1  0  0  0
  8  9  1  0  0  0
  8 40  1  0  0  0
  8 41  1  0  0  0
  9 32  1  0  0  0
  9 10  1  0  0  0
  9 11  1  0  0  0
 10 42  1  0  0  0
 10 43  1  0  0  0
 11 12  1  0  0  0
 11 23  1  0  0  0
 12 13  1  0  0  0
 12 44  1  0  0  0
 12 45  1  0  0  0
 13 18  1  0  0  0
 13 14  2  0  0  0
 14 15  1  0  0  0
 14 46  1  0  0  0
 15 16  2  0  0  0
 15 47  1  0  0  0
 16 17  1  0  0  0
 16 48  1  0  0  0
 17 18  2  0  0  0
 17 49  1  0  0  0
 18 19  1  0  0  0
 19 20  1  0  0  0
 19 21  1  0  0  0
 19 22  1  0  0  0
 23 28  1  0  0  0
 23 24  2  0  0  0
 24 25  1  0  0  0
 24 50  1  0  0  0
 25 26  2  0  0  0
 25 51  1  0  0  0
 26 27  1  0  0  0
 26 30  1  0  0  0
 27 28  2  0  0  0
 27 29  1  0  0  0
 28 52  1  0  0  0
 30 31  3  0  0  0
M  END
> <s_m_entry_id>
36042

> <s_m_entry_name>
ligand_docking-pose.37

> <s_m_Source_Path>
/home/csk/Desktop/cluster/DUD-E-result/cp2c9

> <s_m_Source_File>
ligand_docking-pose.sdf

> <i_m_Source_File_Index>
37

> <i_lp_mmshare_version>
53161

> <r_lp_tautomer_probability>
1

> <s_lp_Force_Field>
OPLS_2005

> <r_lp_Energy>
26.747864

> <b_lp_Chiralities_Consistent>
1

> <s_lp_Variant>
590175-1

> <s_i_glide_gridfile>
glide-grid_1r9o

> <i_i_glide_lignum>
164

> <i_i_glide_rotatable_bonds>
7

> <r_i_docking_score>
-7.39786779384714

> <r_i_glide_ligand_efficiency>
-0.238640896575714

> <r_i_glide_ligand_efficiency_sa>
-0.749661894514174

> <r_i_glide_ligand_efficiency_ln>
-1.66844590493268

> <r_i_glide_gscore>
-7.39786779384714

> <r_i_glide_lipo>
-4.84546454441108

> <r_i_glide_hbond>
-0.0823691689647865

> <r_i_glide_metal>
0

> <r_i_glide_rewards>
-1.06477961367129

> <r_i_glide_evdw>
-31.9593276977539

> <r_i_glide_ecoul>
-1.71640765666962

> <r_i_glide_erotb>
0.453863528056687

> <r_i_glide_esite>
-0.00369046146853282

> <r_i_glide_emodel>
-27.1501092847178

> <r_i_glide_energy>
-33.6757353544235

> <r_i_glide_einternal>
8.83642673492432

> <i_i_glide_confnum>
146

> <i_i_glide_posenum>
253

> <r_i_glide_eff_state_penalty>
0

> <i_f3d_flags>
0

> <s_user_duplicate_titles>
590175

> <s_m_subgroup_title>
dock_pv

> <s_m_subgroupid>
dock_pv1

> <b_m_subgroup_collapsed>
0

$$$$
512559
                    3D
 Schrodinger Suite 2021-1.
 49 53  0  0  1  0            999 V2000
    8.9832   37.0869    1.1698 C   0  0  0  0  0  0
    8.3010   35.9501    0.8014 C   0  0  0  0  0  0
    8.6534   35.2771   -0.3603 C   0  0  0  0  0  0
    9.6158   35.8275   -1.2563 C   0  0  0  0  0  0
   10.2501   37.0506   -0.8948 C   0  0  0  0  0  0
   10.0094   37.5750    0.3818 C   0  0  0  0  0  0
   11.0820   37.7253   -1.8176 C   0  0  0  0  0  0
   11.2634   37.2092   -3.0921 C   0  0  0  0  0  0
   10.7227   35.9750   -3.4213 C   0  0  0  0  0  0
    9.9724   35.2351   -2.4981 C   0  0  0  0  0  0
    9.7190   33.7437   -2.7037 C   0  0  0  0  0  0
    8.3464   33.2992   -2.7797 N   0  0  0  0  0  0
    7.4951   33.4952   -3.7874 C   0  0  0  0  0  0
    7.6831   34.2476   -4.7411 O   0  0  0  0  0  0
    6.2848   32.6190   -3.6913 C   0  0  0  0  0  0
    5.0202   33.2032   -3.7065 C   0  0  0  0  0  0
    3.8950   32.3951   -3.5905 C   0  0  0  0  0  0
    3.9477   31.0442   -3.5375 N   0  0  0  0  0  0
    5.1693   30.4475   -3.5529 C   0  0  0  0  0  0
    6.3899   31.1905   -3.5811 C   0  0  0  0  0  0
    7.6191   30.4632   -3.5094 C   0  0  0  0  0  0
    7.6268   29.0787   -3.4342 C   0  0  0  0  0  0
    6.4404   28.3750   -3.5410 C   0  0  0  0  0  0
    5.2185   29.0400   -3.5667 C   0  0  0  0  0  0
    2.5548   32.9937   -3.5357 C   0  0  0  0  0  0
    1.9625   33.3516   -2.3194 C   0  0  0  0  0  0
    0.7584   34.0569   -2.3148 C   0  0  0  0  0  0
    0.1743   34.3706   -3.5403 C   0  0  0  0  0  0
    0.7010   33.9750   -4.7288 N   0  0  0  0  0  0
    1.8819   33.3149   -4.7128 C   0  0  0  0  0  0
    8.7010   37.6149    2.0590 H   0  0  0  0  0  0
    7.5098   35.5751    1.4331 H   0  0  0  0  0  0
    8.1200   34.3732   -0.5968 H   0  0  0  0  0  0
   10.5888   38.4086    0.7187 H   0  0  0  0  0  0
   11.5010   38.6833   -1.5469 H   0  0  0  0  0  0
   11.8454   37.7548   -3.8216 H   0  0  0  0  0  0
   10.9442   35.5750   -4.3970 H   0  0  0  0  0  0
   10.1189   33.2508   -1.8158 H   0  0  0  0  0  0
   10.2982   33.3086   -3.5140 H   0  0  0  0  0  0
    8.0254   32.7124   -2.0240 H   0  0  0  0  0  0
    4.9082   34.2772   -3.7741 H   0  0  0  0  0  0
    8.5711   30.9670   -3.5257 H   0  0  0  0  0  0
    8.5632   28.5425   -3.3764 H   0  0  0  0  0  0
    6.4609   27.2940   -3.5410 H   0  0  0  0  0  0
    4.3010   28.4751   -3.5834 H   0  0  0  0  0  0
    2.4544   33.1244   -1.3842 H   0  0  0  0  0  0
    0.2993   34.3655   -1.3870 H   0  0  0  0  0  0
   -0.7533   34.9228   -3.5875 H   0  0  0  0  0  0
    2.3083   33.0625   -5.6712 H   0  0  0  0  0  0
  1  6  1  0  0  0
  1  2  2  0  0  0
  1 31  1  0  0  0
  2  3  1  0  0  0
  2 32  1  0  0  0
  3  4  2  0  0  0
  3 33  1  0  0  0
  4 10  1  0  0  0
  4  5  1  0  0  0
  5  6  2  0  0  0
  5  7  1  0  0  0
  6 34  1  0  0  0
  7  8  2  0  0  0
  7 35  1  0  0  0
  8  9  1  0  0  0
  8 36  1  0  0  0
  9 10  2  0  0  0
  9 37  1  0  0  0
 10 11  1  0  0  0
 11 12  1  0  0  0
 11 38  1  0  0  0
 11 39  1  0  0  0
 12 13  1  0  0  0
 12 40  1  0  0  0
 13 14  2  0  0  0
 13 15  1  0  0  0
 15 20  1  0  0  0
 15 16  2  0  0  0
 16 17  1  0  0  0
 16 41  1  0  0  0
 17 18  2  0  0  0
 17 25  1  0  0  0
 18 19  1  0  0  0
 19 24  2  0  0  0
 19 20  1  0  0  0
 20 21  2  0  0  0
 21 22  1  0  0  0
 21 42  1  0  0  0
 22 23  2  0  0  0
 22 43  1  0  0  0
 23 24  1  0  0  0
 23 44  1  0  0  0
 24 45  1  0  0  0
 25 30  1  0  0  0
 25 26  2  0  0  0
 26 27  1  0  0  0
 26 46  1  0  0  0
 27 28  2  0  0  0
 27 47  1  0  0  0
 28 29  1  0  0  0
 28 48  1  0  0  0
 29 30  2  0  0  0
 30 49  1  0  0  0
M  END
> <s_m_entry_id>
36043

> <s_m_entry_name>
ligand_docking-pose.38

> <s_m_Source_Path>
/home/csk/Desktop/cluster/DUD-E-result/cp2c9

> <s_m_Source_File>
ligand_docking-pose.sdf

> <i_m_Source_File_Index>
38

> <i_lp_mmshare_version>
53161

> <r_lp_tautomer_probability>
1

> <s_lp_Force_Field>
OPLS_2005

> <r_lp_Energy>
31.322556

> <b_lp_Chiralities_Consistent>
1

> <s_lp_Variant>
512559-1

> <s_i_glide_gridfile>
glide-grid_1r9o

> <i_i_glide_lignum>
3

> <i_i_glide_rotatable_bonds>
5

> <r_i_docking_score>
-7.37112161074614

> <r_i_glide_ligand_efficiency>
-0.245704053691538

> <r_i_glide_ligand_efficiency_sa>
-0.76345962160942

> <r_i_glide_ligand_efficiency_ln>
-1.67479914476418

> <r_i_glide_gscore>
-7.37112161074614

> <r_i_glide_lipo>
-4.86865483877804

> <r_i_glide_hbond>
0

> <r_i_glide_metal>
0

> <r_i_glide_rewards>
-1.09084081226655

> <r_i_glide_evdw>
-33.3162422180176

> <r_i_glide_ecoul>
-1.73292720317841

> <r_i_glide_erotb>
0.514125231676095

> <r_i_glide_esite>
0

> <r_i_glide_emodel>
-39.0127618629044

> <r_i_glide_energy>
-35.049169421196

> <r_i_glide_einternal>
14.327220916748

> <i_i_glide_confnum>
1

> <i_i_glide_posenum>
336

> <r_i_glide_eff_state_penalty>
0

> <i_f3d_flags>
0

> <s_user_duplicate_titles>
512559

> <s_m_subgroup_title>
dock_pv

> <s_m_subgroupid>
dock_pv1

> <b_m_subgroup_collapsed>
0

$$$$
617406
                    3D
 Schrodinger Suite 2021-1.
 61 65  0  0  1  0            999 V2000
    7.4194   31.2989   -3.6651 C   0  0  0  0  0  0
    8.4048   31.4560   -2.6952 C   0  0  0  0  0  0
    9.1916   32.6136   -2.6444 C   0  0  0  0  0  0
    8.9119   33.6627   -3.5410 C   0  0  0  0  0  0
    7.9010   33.5007   -4.4821 C   0  0  0  0  0  0
    7.1877   32.3192   -4.5820 C   0  0  0  0  0  0
    6.3439   32.0900   -5.6603 N   0  0  0  0  0  0
    5.2361   33.2700   -6.3648 S   0  0  0  0  0  0
    5.8820   34.5828   -6.4593 O   0  0  0  0  0  0
    4.6965   32.6200   -7.5582 O   0  0  0  0  0  0
    3.9214   33.3673   -5.1817 C   0  0  0  0  0  0
    3.0524   32.2909   -5.0184 C   0  0  0  0  0  0
    1.9935   32.3981   -4.1191 C   0  0  0  0  0  0
    1.8038   33.5966   -3.4198 C   0  0  0  0  0  0
    2.6975   34.6230   -3.5410 N   0  0  0  0  0  0
    3.7362   34.5039   -4.4010 C   0  0  0  0  0  0
    0.6450   33.8221   -2.6725 N   0  0  0  0  0  0
   -0.0299   32.7274   -1.9437 C   0  0  0  0  0  0
   -1.4746   33.0445   -1.4981 C   0  0  0  0  0  0
   -1.5554   34.2974   -0.8389 O   0  0  0  0  0  0
   -1.0854   35.3550   -1.6538 C   0  0  0  0  0  0
    0.3930   35.1156   -2.0155 C   0  0  0  0  0  0
    9.7086   34.9593   -3.5900 C   0  0  0  0  0  0
    9.8090   35.7579   -2.3305 C   0  0  0  0  0  0
   10.7009   35.2321   -1.3003 N   0  0  2  0  0  0
   10.3094   33.9321   -0.7460 C   0  0  0  0  0  0
   10.3446   32.7104   -1.6585 C   0  0  0  0  0  0
   11.0312   36.2122   -0.2589 C   0  0  0  0  0  0
    9.7872   36.4882    0.5284 C   0  0  0  0  0  0
    9.2422   35.9569    1.6590 C   0  0  0  0  0  0
    7.9010   36.3748    1.6588 C   0  0  0  0  0  0
    7.6268   37.1750    0.6784 N   0  0  0  0  0  0
    8.7523   37.1750   -0.0126 N   0  0  0  0  0  0
    8.8216   37.6686   -0.8893 H   0  0  0  0  0  0
    6.8734   30.3684   -3.7242 H   0  0  0  0  0  0
    8.5906   30.6464   -2.0079 H   0  0  0  0  0  0
    7.7643   34.2836   -5.2067 H   0  0  0  0  0  0
    6.0838   31.1328   -5.8298 H   0  0  0  0  0  0
    3.1791   31.3899   -5.6013 H   0  0  0  0  0  0
    1.3028   31.5777   -4.0265 H   0  0  0  0  0  0
    4.3962   35.3567   -4.4797 H   0  0  0  0  0  0
   -0.0987   31.8360   -2.5632 H   0  0  0  0  0  0
    0.5803   32.4496   -1.0834 H   0  0  0  0  0  0
   -1.8073   32.2712   -0.8081 H   0  0  0  0  0  0
   -2.1645   33.0201   -2.3409 H   0  0  0  0  0  0
   -1.1884   36.2901   -1.1025 H   0  0  0  0  0  0
   -1.6988   35.4522   -2.5519 H   0  0  0  0  0  0
    1.0323   35.1750   -1.1408 H   0  0  0  0  0  0
    0.7000   35.9269   -2.6751 H   0  0  0  0  0  0
    9.3044   35.5750   -4.3861 H   0  0  0  0  0  0
   10.7010   34.8301   -3.9410 H   0  0  0  0  0  0
    8.7900   35.8924   -1.9768 H   0  0  0  0  0  0
   10.1932   36.7383   -2.6182 H   0  0  0  0  0  0
   10.9836   33.7009    0.0815 H   0  0  0  0  0  0
    9.3039   34.0197   -0.3410 H   0  0  0  0  0  0
   11.2965   32.6274   -2.1835 H   0  0  0  0  0  0
   10.3076   31.8277   -1.0178 H   0  0  0  0  0  0
   11.4389   37.1182   -0.7111 H   0  0  0  0  0  0
   11.8212   35.8254    0.3851 H   0  0  0  0  0  0
    9.7177   35.2753    2.3505 H   0  0  0  0  0  0
    7.1217   36.1116    2.3588 H   0  0  0  0  0  0
  1  6  1  0  0  0
  1  2  2  0  0  0
  1 35  1  0  0  0
  2  3  1  0  0  0
  2 36  1  0  0  0
  3 27  1  0  0  0
  3  4  2  0  0  0
  4  5  1  0  0  0
  4 23  1  0  0  0
  5  6  2  0  0  0
  5 37  1  0  0  0
  6  7  1  0  0  0
  7  8  1  0  0  0
  7 38  1  0  0  0
  8  9  2  0  0  0
  8 10  2  0  0  0
  8 11  1  0  0  0
 11 16  1  0  0  0
 11 12  2  0  0  0
 12 13  1  0  0  0
 12 39  1  0  0  0
 13 14  2  0  0  0
 13 40  1  0  0  0
 14 15  1  0  0  0
 14 17  1  0  0  0
 15 16  2  0  0  0
 16 41  1  0  0  0
 17 22  1  0  0  0
 17 18  1  0  0  0
 18 19  1  0  0  0
 18 42  1  0  0  0
 18 43  1  0  0  0
 19 20  1  0  0  0
 19 44  1  0  0  0
 19 45  1  0  0  0
 20 21  1  0  0  0
 21 22  1  0  0  0
 21 46  1  0  0  0
 21 47  1  0  0  0
 22 48  1  0  0  0
 22 49  1  0  0  0
 23 24  1  0  0  0
 23 50  1  0  0  0
 23 51  1  0  0  0
 24 25  1  0  0  0
 24 52  1  0  0  0
 24 53  1  0  0  0
 25 26  1  0  0  0
 25 28  1  0  0  0
 26 27  1  0  0  0
 26 54  1  0  0  0
 26 55  1  0  0  0
 27 56  1  0  0  0
 27 57  1  0  0  0
 28 58  1  0  0  0
 28 59  1  0  0  0
 28 29  1  0  0  0
 29 33  1  0  0  0
 29 30  2  0  0  0
 30 31  1  0  0  0
 30 60  1  0  0  0
 31 61  1  0  0  0
 31 32  2  0  0  0
 32 33  1  0  0  0
 33 34  1  0  0  0
M  END
> <s_m_entry_id>
36044

> <s_m_entry_name>
ligand_docking-pose.39

> <s_m_Source_Path>
/home/csk/Desktop/cluster/DUD-E-result/cp2c9

> <s_m_Source_File>
ligand_docking-pose.sdf

> <i_m_Source_File_Index>
39

> <i_lp_mmshare_version>
53161

> <r_lp_tautomer_probability>
0.5

> <s_lp_Force_Field>
OPLS_2005

> <r_lp_Energy>
32.211802

> <b_lp_Chiralities_Consistent>
1

> <s_lp_Variant>
617406-2

> <s_i_glide_gridfile>
glide-grid_1r9o

> <i_i_glide_lignum>
2

> <i_i_glide_rotatable_bonds>
6

> <r_i_docking_score>
-7.37100685819044

> <r_i_glide_ligand_efficiency>
-0.223363844187589

> <r_i_glide_ligand_efficiency_sa>
-0.71644719747651

> <r_i_glide_ligand_efficiency_ln>
-1.63927376023059

> <r_i_glide_gscore>
-7.37100685819044

> <r_i_glide_lipo>
-5.48403587890799

> <r_i_glide_hbond>
-0.16

> <r_i_glide_metal>
0

> <r_i_glide_rewards>
-0.805413704478391

> <r_i_glide_evdw>
-21.3106117248535

> <r_i_glide_ecoul>
-2.71861124038696

> <r_i_glide_erotb>
0.551764997496663

> <r_i_glide_esite>
0

> <r_i_glide_emodel>
-20.6515635925863

> <r_i_glide_energy>
-24.0292229652405

> <r_i_glide_einternal>
7.31926298141479

> <i_i_glide_confnum>
20

> <i_i_glide_posenum>
215

> <r_i_glide_eff_state_penalty>
0

> <i_f3d_flags>
0

> <s_user_duplicate_titles>
617406

> <s_m_subgroup_title>
dock_pv

> <s_m_subgroupid>
dock_pv1

> <b_m_subgroup_collapsed>
0

$$$$
590160
                    3D
 Schrodinger Suite 2021-1.
 49 51  0  0  1  0            999 V2000
    0.2240   33.0016   -2.3264 C   0  0  0  0  0  0
    1.8242   32.8635   -3.2977 S   0  0  0  0  0  0
    2.5471   34.1255   -3.1408 O   0  0  0  0  0  0
    1.5010   32.3750   -4.6384 O   0  0  0  0  0  0
    2.7028   31.5948   -2.4216 N   0  0  2  0  0  0
    3.3739   31.9750   -1.1564 C   0  0  0  0  0  0
    4.7010   31.2106   -1.2116 C   0  0  0  0  0  0
    4.9293   30.6732   -2.6276 C   0  0  1  0  0  0
    3.4720   30.5263   -3.1256 C   0  0  0  0  0  0
    5.7846   31.5111   -3.4881 N   0  0  0  0  0  0
    5.1534   32.0512   -4.6917 C   0  0  0  0  0  0
    6.0999   32.7897   -5.6062 C   0  0  0  0  0  0
    7.3007   32.1849   -5.9652 C   0  0  0  0  0  0
    8.2178   32.8819   -6.7259 C   0  0  0  0  0  0
    7.9928   34.2229   -7.0364 C   0  0  0  0  0  0
    6.7718   34.8038   -6.7410 C   0  0  0  0  0  0
    5.7986   34.0830   -6.0434 C   0  0  0  0  0  0
    4.4272   34.6950   -5.8099 C   0  0  0  0  0  0
    4.2283   35.5750   -6.7410 F   0  0  0  0  0  0
    3.4305   33.8281   -5.9411 F   0  0  0  0  0  0
    4.3629   35.3101   -4.6342 F   0  0  0  0  0  0
    6.7659   32.3102   -2.8534 C   0  0  0  0  0  0
    6.5935   33.6921   -2.7195 C   0  0  0  0  0  0
    7.5657   34.4770   -2.1160 C   0  0  0  0  0  0
    8.7286   33.8959   -1.6175 C   0  0  0  0  0  0
    8.9038   32.5051   -1.7291 C   0  0  0  0  0  0
    7.9217   31.7225   -2.3408 C   0  0  0  0  0  0
   10.3010   31.7034   -1.1149 Cl  0  0  0  0  0  0
    9.7029   34.7750   -0.9833 C   0  0  0  0  0  0
   10.4696   35.4795   -0.4794 N   0  0  0  0  0  0
    5.3868   29.6840   -2.5642 H   0  0  0  0  0  0
   -0.3981   33.7644   -2.7920 H   0  0  0  0  0  0
   -0.2829   32.0380   -2.3415 H   0  0  0  0  0  0
    0.4608   33.2890   -1.3032 H   0  0  0  0  0  0
    2.8460   31.5750   -0.2949 H   0  0  0  0  0  0
    3.6342   33.0340   -1.1162 H   0  0  0  0  0  0
    4.7010   30.3751   -0.5153 H   0  0  0  0  0  0
    5.4901   31.8457   -0.8236 H   0  0  0  0  0  0
    3.2380   30.4248   -4.1823 H   0  0  0  0  0  0
    3.1295   29.5750   -2.7410 H   0  0  0  0  0  0
    4.3674   32.6971   -4.3228 H   0  0  0  0  0  0
    4.7013   31.2672   -5.2957 H   0  0  0  0  0  0
    7.5185   31.1747   -5.6542 H   0  0  0  0  0  0
    9.1132   32.3758   -7.0346 H   0  0  0  0  0  0
    8.7359   34.7821   -7.5850 H   0  0  0  0  0  0
    6.5862   35.8108   -7.0861 H   0  0  0  0  0  0
    5.6885   34.1630   -3.0641 H   0  0  0  0  0  0
    7.3956   35.5416   -2.0315 H   0  0  0  0  0  0
    8.0591   30.6546   -2.4267 H   0  0  0  0  0  0
  1  2  1  0  0  0
  1 32  1  0  0  0
  1 33  1  0  0  0
  1 34  1  0  0  0
  2  3  2  0  0  0
  2  4  2  0  0  0
  2  5  1  0  0  0
  5  9  1  0  0  0
  5  6  1  0  0  0
  6  7  1  0  0  0
  6 35  1  0  0  0
  6 36  1  0  0  0
  7  8  1  0  0  0
  7 37  1  0  0  0
  7 38  1  0  0  0
  8 31  1  0  0  0
  8  9  1  0  0  0
  8 10  1  0  0  0
  9 39  1  0  0  0
  9 40  1  0  0  0
 10 11  1  0  0  0
 10 22  1  0  0  0
 11 12  1  0  0  0
 11 41  1  0  0  0
 11 42  1  0  0  0
 12 17  1  0  0  0
 12 13  2  0  0  0
 13 14  1  0  0  0
 13 43  1  0  0  0
 14 15  2  0  0  0
 14 44  1  0  0  0
 15 16  1  0  0  0
 15 45  1  0  0  0
 16 17  2  0  0  0
 16 46  1  0  0  0
 17 18  1  0  0  0
 18 19  1  0  0  0
 18 20  1  0  0  0
 18 21  1  0  0  0
 22 27  1  0  0  0
 22 23  2  0  0  0
 23 24  1  0  0  0
 23 47  1  0  0  0
 24 25  2  0  0  0
 24 48  1  0  0  0
 25 26  1  0  0  0
 25 29  1  0  0  0
 26 27  2  0  0  0
 26 28  1  0  0  0
 27 49  1  0  0  0
 29 30  3  0  0  0
M  END
> <s_m_entry_id>
36045

> <s_m_entry_name>
ligand_docking-pose.40

> <s_m_Source_Path>
/home/csk/Desktop/cluster/DUD-E-result/cp2c9

> <s_m_Source_File>
ligand_docking-pose.sdf

> <i_m_Source_File_Index>
40

> <i_lp_mmshare_version>
53161

> <r_lp_tautomer_probability>
1

> <s_lp_Force_Field>
OPLS_2005

> <r_lp_Energy>
26.280586

> <b_lp_Chiralities_Consistent>
1

> <s_lp_Variant>
590160-1

> <s_i_glide_gridfile>
glide-grid_1r9o

> <i_i_glide_lignum>
173

> <i_i_glide_rotatable_bonds>
6

> <r_i_docking_score>
-7.32706143334129

> <r_i_glide_ligand_efficiency>
-0.244235381111376

> <r_i_glide_ligand_efficiency_sa>
-0.758896114432913

> <r_i_glide_ligand_efficiency_ln>
-1.66478819238372

> <r_i_glide_gscore>
-7.32706143334129

> <r_i_glide_lipo>
-4.55260684080016

> <r_i_glide_hbond>
-0.0403124517218436

> <r_i_glide_metal>
0

> <r_i_glide_rewards>
-1.67224930917347

> <r_i_glide_evdw>
-25.9431571960449

> <r_i_glide_ecoul>
-0.989044070243835

> <r_i_glide_erotb>
0.383621638693002

> <r_i_glide_esite>
0

> <r_i_glide_emodel>
-23.1092522611969

> <r_i_glide_energy>
-26.9322012662888

> <r_i_glide_einternal>
15.7297601699829

> <i_i_glide_confnum>
259

> <i_i_glide_posenum>
290

> <r_i_glide_eff_state_penalty>
0

> <i_f3d_flags>
0

> <s_user_duplicate_titles>
590160

> <s_m_subgroup_title>
dock_pv

> <s_m_subgroupid>
dock_pv1

> <b_m_subgroup_collapsed>
0

$$$$
440245
                    3D
 Schrodinger Suite 2021-1.
 31 33  0  0  1  0            999 V2000
    8.6443   34.3110   -1.7700 C   0  0  0  0  0  0
    7.5519   34.0420   -2.5893 C   0  0  0  0  0  0
    7.3022   32.7419   -3.0390 C   0  0  0  0  0  0
    8.1668   31.7017   -2.6577 C   0  0  0  0  0  0
    9.2581   31.9772   -1.8352 C   0  0  0  0  0  0
    9.4948   33.2754   -1.3938 C   0  0  0  0  0  0
   10.8055   33.5889   -0.3264 Cl  0  0  0  0  0  0
    7.9006   30.0639   -3.1495 Cl  0  0  0  0  0  0
    6.0528   32.4940   -3.8820 C   0  0  0  0  0  0
    4.8192   32.4834   -3.1053 N   0  0  0  0  0  0
    3.6310   33.0815   -3.4282 C   0  0  0  0  0  0
    2.7467   32.7609   -2.4111 C   0  0  0  0  0  0
    3.5184   31.9788   -1.5413 C   0  0  0  0  0  0
    4.7450   31.7861   -1.9627 N   0  0  0  0  0  0
    1.3260   33.1564   -2.2553 C   0  0  0  0  0  0
    0.8982   34.4175   -2.6779 C   0  0  0  0  0  0
   -0.4377   34.7695   -2.4883 C   0  0  0  0  0  0
   -1.3458   33.9310   -1.9290 N   0  0  0  0  0  0
   -0.9202   32.7037   -1.5410 C   0  0  0  0  0  0
    0.4019   32.2824   -1.6729 C   0  0  0  0  0  0
    8.8091   35.3153   -1.4043 H   0  0  0  0  0  0
    6.8783   34.8458   -2.8512 H   0  0  0  0  0  0
    9.9033   31.1761   -1.5050 H   0  0  0  0  0  0
    5.9780   33.2958   -4.6192 H   0  0  0  0  0  0
    6.1071   31.5713   -4.4600 H   0  0  0  0  0  0
    3.5223   33.6652   -4.3325 H   0  0  0  0  0  0
    3.1736   31.5746   -0.6036 H   0  0  0  0  0  0
    1.5892   35.1222   -3.1186 H   0  0  0  0  0  0
   -0.8013   35.7409   -2.7816 H   0  0  0  0  0  0
   -1.6652   32.0608   -1.0881 H   0  0  0  0  0  0
    0.6994   31.3043   -1.3255 H   0  0  0  0  0  0
  1  6  1  0  0  0
  1  2  2  0  0  0
  1 21  1  0  0  0
  2  3  1  0  0  0
  2 22  1  0  0  0
  3  4  2  0  0  0
  3  9  1  0  0  0
  4  5  1  0  0  0
  4  8  1  0  0  0
  5  6  2  0  0  0
  5 23  1  0  0  0
  6  7  1  0  0  0
  9 10  1  0  0  0
  9 24  1  0  0  0
  9 25  1  0  0  0
 10 14  1  0  0  0
 10 11  1  0  0  0
 11 12  2  0  0  0
 11 26  1  0  0  0
 12 13  1  0  0  0
 12 15  1  0  0  0
 13 14  2  0  0  0
 13 27  1  0  0  0
 15 20  1  0  0  0
 15 16  2  0  0  0
 16 17  1  0  0  0
 16 28  1  0  0  0
 17 18  2  0  0  0
 17 29  1  0  0  0
 18 19  1  0  0  0
 19 20  2  0  0  0
 19 30  1  0  0  0
 20 31  1  0  0  0
M  END
> <s_m_entry_id>
36046

> <s_m_entry_name>
ligand_docking-pose.41

> <s_m_Source_Path>
/home/csk/Desktop/cluster/DUD-E-result/cp2c9

> <s_m_Source_File>
ligand_docking-pose.sdf

> <i_m_Source_File_Index>
41

> <i_lp_mmshare_version>
53161

> <r_lp_tautomer_probability>
1

> <s_lp_Force_Field>
OPLS_2005

> <r_lp_Energy>
11.089757

> <b_lp_Chiralities_Consistent>
1

> <s_lp_Variant>
440245-1

> <s_i_glide_gridfile>
glide-grid_1r9o

> <i_i_glide_lignum>
18

> <i_i_glide_rotatable_bonds>
3

> <r_i_docking_score>
-7.3159853637892

> <r_i_glide_ligand_efficiency>
-0.36579926818946

> <r_i_glide_ligand_efficiency_sa>
-0.992931976719475

> <r_i_glide_ligand_efficiency_ln>
-1.83094983920983

> <r_i_glide_gscore>
-7.3159853637892

> <r_i_glide_lipo>
-4.41758940320131

> <r_i_glide_hbond>
0

> <r_i_glide_metal>
0

> <r_i_glide_rewards>
-1.65540824661018

> <r_i_glide_evdw>
-38.1153182983398

> <r_i_glide_ecoul>
0.432796895503998

> <r_i_glide_erotb>
0.59785866661369

> <r_i_glide_esite>
0

> <r_i_glide_emodel>
-52.4678071575369

> <r_i_glide_energy>
-37.6825214028358

> <r_i_glide_einternal>
3.26624798774719

> <i_i_glide_confnum>
2

> <i_i_glide_posenum>
43

> <r_i_glide_eff_state_penalty>
0

> <i_f3d_flags>
0

> <s_user_duplicate_titles>
440245

> <s_m_subgroup_title>
dock_pv

> <s_m_subgroupid>
dock_pv1

> <b_m_subgroup_collapsed>
0

$$$$
299634
                    3D
 Schrodinger Suite 2021-1.
 42 45  0  0  1  0            999 V2000
   -0.8804   34.4405   -2.0464 C   0  0  0  0  0  0
    0.3562   34.3639   -2.6892 C   0  0  0  0  0  0
    1.0402   33.1414   -2.7545 C   0  0  0  0  0  0
    0.4252   32.0273   -2.1624 C   0  0  0  0  0  0
   -0.7798   32.0769   -1.5415 N   0  0  0  0  0  0
   -1.4091   33.2767   -1.4879 C   0  0  0  0  0  0
    2.3690   33.0591   -3.4355 C   0  0  0  0  0  0
    2.9303   33.9112   -4.3779 C   0  0  0  0  0  0
    4.2213   33.5531   -4.7613 C   0  0  0  0  0  0
    4.7205   32.4262   -4.1227 C   0  0  0  0  0  0
    3.4888   31.7802   -3.0634 S   0  0  0  0  0  0
    6.0975   31.8168   -4.2823 C   0  0  0  0  0  0
    6.5347   31.0781   -3.0981 N   0  0  0  0  0  0
    7.9611   30.7778   -3.0699 C   0  0  0  0  0  0
    8.7941   31.9109   -2.4890 C   0  0  0  0  0  0
    9.6854   31.8650   -1.4178 C   0  0  0  0  0  0
   10.3007   33.0774   -1.1175 C   0  0  0  0  0  0
    9.9019   34.1043   -1.9507 C   0  0  0  0  0  0
    8.7807   33.5326   -3.1378 S   0  0  0  0  0  0
   10.3001   35.5272   -1.9335 C   0  0  0  0  0  0
   10.3037   36.2410   -0.7319 C   0  0  0  0  0  0
   10.7006   37.5752   -0.7316 C   0  0  0  0  0  0
   11.1005   38.1572   -1.9370 C   0  0  0  0  0  0
   11.1277   37.4760   -3.1092 N   0  0  0  0  0  0
   10.7086   36.1872   -3.0981 C   0  0  0  0  0  0
   -1.4105   35.3787   -1.9771 H   0  0  0  0  0  0
    0.7784   35.2567   -3.1251 H   0  0  0  0  0  0
    0.8917   31.0549   -2.1918 H   0  0  0  0  0  0
   -2.3509   33.2943   -0.9615 H   0  0  0  0  0  0
    2.4301   34.7743   -4.7818 H   0  0  0  0  0  0
    4.7957   34.1196   -5.4788 H   0  0  0  0  0  0
    6.1197   31.1546   -5.1409 H   0  0  0  0  0  0
    6.7952   32.6071   -4.5440 H   0  0  0  0  0  0
    5.9990   30.2263   -2.9939 H   0  0  0  0  0  0
    8.0949   29.8835   -2.4631 H   0  0  0  0  0  0
    8.2996   30.5144   -4.0719 H   0  0  0  0  0  0
    9.8828   30.9675   -0.8479 H   0  0  0  0  0  0
   11.0059   33.1964   -0.3087 H   0  0  0  0  0  0
    9.9886   35.7740    0.1904 H   0  0  0  0  0  0
   10.7034   38.1496    0.1827 H   0  0  0  0  0  0
   11.4027   39.1938   -1.9722 H   0  0  0  0  0  0
   10.7197   35.6785   -4.0518 H   0  0  0  0  0  0
  1  6  1  0  0  0
  1  2  2  0  0  0
  1 26  1  0  0  0
  2  3  1  0  0  0
  2 27  1  0  0  0
  3  4  2  0  0  0
  3  7  1  0  0  0
  4  5  1  0  0  0
  4 28  1  0  0  0
  5  6  2  0  0  0
  6 29  1  0  0  0
  7 11  1  0  0  0
  7  8  2  0  0  0
  8  9  1  0  0  0
  8 30  1  0  0  0
  9 10  2  0  0  0
  9 31  1  0  0  0
 10 11  1  0  0  0
 10 12  1  0  0  0
 12 13  1  0  0  0
 12 32  1  0  0  0
 12 33  1  0  0  0
 13 14  1  0  0  0
 13 34  1  0  0  0
 14 15  1  0  0  0
 14 35  1  0  0  0
 14 36  1  0  0  0
 15 19  1  0  0  0
 15 16  2  0  0  0
 16 17  1  0  0  0
 16 37  1  0  0  0
 17 18  2  0  0  0
 17 38  1  0  0  0
 18 19  1  0  0  0
 18 20  1  0  0  0
 20 25  1  0  0  0
 20 21  2  0  0  0
 21 22  1  0  0  0
 21 39  1  0  0  0
 22 23  2  0  0  0
 22 40  1  0  0  0
 23 24  1  0  0  0
 23 41  1  0  0  0
 24 25  2  0  0  0
 25 42  1  0  0  0
M  END
> <s_m_entry_id>
36047

> <s_m_entry_name>
ligand_docking-pose.42

> <s_m_Source_Path>
/home/csk/Desktop/cluster/DUD-E-result/cp2c9

> <s_m_Source_File>
ligand_docking-pose.sdf

> <i_m_Source_File_Index>
42

> <i_lp_mmshare_version>
53161

> <r_lp_tautomer_probability>
1

> <s_lp_Force_Field>
OPLS_2005

> <r_lp_Energy>
13.414133

> <b_lp_Chiralities_Consistent>
1

> <s_lp_Variant>
299634-1

> <s_i_glide_gridfile>
glide-grid_1r9o

> <i_i_glide_lignum>
37

> <i_i_glide_rotatable_bonds>
6

> <r_i_docking_score>
-7.31183480875829

> <r_i_glide_ligand_efficiency>
-0.292473392350332

> <r_i_glide_ligand_efficiency_sa>
-0.85519738627007

> <r_i_glide_ligand_efficiency_ln>
-1.7331239676832

> <r_i_glide_gscore>
-7.31183480875829

> <r_i_glide_lipo>
-4.57870503466123

> <r_i_glide_hbond>
0

> <r_i_glide_metal>
0

> <r_i_glide_rewards>
-1.13005336201952

> <r_i_glide_evdw>
-46.1011352539062

> <r_i_glide_ecoul>
-1.13673663139343

> <r_i_glide_erotb>
0.872490845326786

> <r_i_glide_esite>
0

> <r_i_glide_emodel>
-65.9700840484784

> <r_i_glide_energy>
-47.2378718852997

> <r_i_glide_einternal>
4.75329160690308

> <i_i_glide_confnum>
32

> <i_i_glide_posenum>
255

> <r_i_glide_eff_state_penalty>
0

> <i_f3d_flags>
0

> <s_user_duplicate_titles>
299634

> <s_m_subgroup_title>
dock_pv

> <s_m_subgroupid>
dock_pv1

> <b_m_subgroup_collapsed>
0

$$$$
420828
                    3D
 Schrodinger Suite 2021-1.
 36 38  0  0  1  0            999 V2000
    4.4643   34.8036   -6.3571 C   0  0  0  0  0  0
    5.0782   34.7746   -4.9499 C   0  0  0  0  0  0
    4.3396   33.8853   -3.9617 C   0  0  0  0  0  0
    4.8134   32.8152   -3.2706 C   0  0  0  0  0  0
    3.9423   32.1051   -2.3224 C   0  0  0  0  0  0
    4.3077   31.1750   -1.6053 O   0  0  0  0  0  0
    2.5310   32.6003   -2.2955 C   0  0  0  0  0  0
    1.5405   31.9895   -1.5147 C   0  0  0  0  0  0
    0.2230   32.4447   -1.5411 C   0  0  0  0  0  0
   -0.1063   33.5815   -2.2706 C   0  0  0  0  0  0
    0.8742   34.2271   -3.0152 C   0  0  0  0  0  0
    2.1709   33.7176   -3.0536 C   0  0  0  0  0  0
    3.0794   34.3788   -3.8435 O   0  0  0  0  0  0
    6.1842   32.3401   -3.5063 C   0  0  0  0  0  0
    6.3517   31.3592   -4.2319 O   0  0  0  0  0  0
    7.3385   32.9874   -2.7937 C   0  0  0  0  0  0
    7.2346   34.2694   -2.2381 C   0  0  0  0  0  0
    8.3007   34.8454   -1.5408 C   0  0  0  0  0  0
    9.5039   34.1540   -1.4269 C   0  0  0  0  0  0
    9.6448   32.9004   -2.0244 C   0  0  0  0  0  0
    8.5686   32.3202   -2.6979 C   0  0  0  0  0  0
   11.3040   31.9750   -1.9411 Br  0  0  0  0  0  0
   10.5355   34.7133   -0.7185 O   0  0  0  0  0  0
    8.1224   36.5705   -0.7410 Br  0  0  0  0  0  0
    5.0417   35.4447   -7.0245 H   0  0  0  0  0  0
    4.4385   33.8071   -6.7992 H   0  0  0  0  0  0
    3.4443   35.1878   -6.3399 H   0  0  0  0  0  0
    5.0469   35.7624   -4.4983 H   0  0  0  0  0  0
    6.1327   34.5133   -5.0290 H   0  0  0  0  0  0
    1.7817   31.1750   -0.8573 H   0  0  0  0  0  0
   -0.5341   31.9506   -0.9482 H   0  0  0  0  0  0
   -1.1152   33.9684   -2.2460 H   0  0  0  0  0  0
    0.6182   35.1277   -3.5410 H   0  0  0  0  0  0
    6.3150   34.8194   -2.3410 H   0  0  0  0  0  0
    8.6961   31.3391   -3.1357 H   0  0  0  0  0  0
   10.2317   35.1229    0.0954 H   0  0  0  0  0  0
  1  2  1  0  0  0
  1 25  1  0  0  0
  1 26  1  0  0  0
  1 27  1  0  0  0
  2  3  1  0  0  0
  2 28  1  0  0  0
  2 29  1  0  0  0
  3 13  1  0  0  0
  3  4  2  0  0  0
  4  5  1  0  0  0
  4 14  1  0  0  0
  5  6  2  0  0  0
  5  7  1  0  0  0
  7 12  2  0  0  0
  7  8  1  0  0  0
  8  9  2  0  0  0
  8 30  1  0  0  0
  9 10  1  0  0  0
  9 31  1  0  0  0
 10 11  2  0  0  0
 10 32  1  0  0  0
 11 12  1  0  0  0
 11 33  1  0  0  0
 12 13  1  0  0  0
 14 15  2  0  0  0
 14 16  1  0  0  0
 16 21  1  0  0  0
 16 17  2  0  0  0
 17 18  1  0  0  0
 17 34  1  0  0  0
 18 19  2  0  0  0
 18 24  1  0  0  0
 19 20  1  0  0  0
 19 23  1  0  0  0
 20 21  2  0  0  0
 20 22  1  0  0  0
 21 35  1  0  0  0
 23 36  1  0  0  0
M  END
> <s_m_entry_id>
36048

> <s_m_entry_name>
ligand_docking-pose.43

> <s_m_Source_Path>
/home/csk/Desktop/cluster/DUD-E-result/cp2c9

> <s_m_Source_File>
ligand_docking-pose.sdf

> <i_m_Source_File_Index>
43

> <i_lp_mmshare_version>
53161

> <r_lp_tautomer_probability>
1

> <s_lp_Force_Field>
OPLS_2005

> <r_lp_Energy>
20.2305

> <b_lp_Chiralities_Consistent>
1

> <s_lp_Variant>
420828-1

> <s_i_glide_gridfile>
glide-grid_1r9o

> <i_i_glide_lignum>
96

> <i_i_glide_rotatable_bonds>
4

> <r_i_docking_score>
-7.27561300569163

> <r_i_glide_ligand_efficiency>
-0.303150541903818

> <r_i_glide_ligand_efficiency_sa>
-0.874437476672142

> <r_i_glide_ligand_efficiency_ln>
-1.74138804838848

> <r_i_glide_gscore>
-7.27561300569163

> <r_i_glide_lipo>
-4.63958928718017

> <r_i_glide_hbond>
-0.0874185490714412

> <r_i_glide_metal>
0

> <r_i_glide_rewards>
-0.603958966289141

> <r_i_glide_evdw>
-38.5324249267578

> <r_i_glide_ecoul>
-1.42893826961517

> <r_i_glide_erotb>
0.196315783629285

> <r_i_glide_esite>
0

> <r_i_glide_emodel>
-54.2899223362477

> <r_i_glide_energy>
-39.961363196373

> <r_i_glide_einternal>
2.5128607749939

> <i_i_glide_confnum>
3

> <i_i_glide_posenum>
67

> <r_i_glide_eff_state_penalty>
0

> <i_f3d_flags>
0

> <s_user_duplicate_titles>
420828

> <s_m_subgroup_title>
dock_pv

> <s_m_subgroupid>
dock_pv1

> <b_m_subgroup_collapsed>
0

$$$$
501544
                    3D
 Schrodinger Suite 2021-1.
 49 52  0  0  1  0            999 V2000
    5.4937   33.5388   -7.7377 C   0  0  0  0  0  0
    6.2672   33.5889   -6.4362 C   0  0  0  0  0  0
    7.3899   32.7734   -6.2977 C   0  0  0  0  0  0
    8.0073   32.6394   -5.0613 C   0  0  0  0  0  0
    7.5361   33.3516   -3.9655 C   0  0  0  0  0  0
    6.4174   34.1791   -4.0883 C   0  0  0  0  0  0
    5.7809   34.3187   -5.3349 C   0  0  0  0  0  0
    4.5043   35.1581   -5.4814 C   0  0  0  0  0  0
    3.2495   34.3941   -5.5497 N   0  0  0  0  0  0
    3.0282   33.3389   -4.6635 C   0  0  0  0  0  0
    3.8586   32.2127   -4.6681 C   0  0  0  0  0  0
    3.8000   31.2749   -3.6589 C   0  0  0  0  0  0
    2.7736   31.3467   -2.7413 C   0  0  0  0  0  0
    1.8388   32.3421   -2.8227 N   0  0  0  0  0  0
    1.9575   33.3886   -3.7427 C   0  0  0  0  0  0
    0.9791   34.3090   -3.5398 N   0  0  0  0  0  0
    0.2195   33.8144   -2.5855 C   0  0  0  0  0  0
    0.6799   32.5778   -2.1249 C   0  0  0  0  0  0
    0.1374   31.5857   -1.1199 C   0  0  0  0  0  0
   -1.0032   34.5877   -2.1533 C   0  0  0  0  0  0
    4.8105   30.3146   -3.5386 N   0  0  0  0  0  0
    6.0110   30.4457   -2.8882 C   0  0  0  0  0  0
    6.7030   29.2764   -3.1426 C   0  0  0  0  0  0
    5.8392   28.5223   -3.9412 C   0  0  0  0  0  0
    4.7018   29.1384   -4.1634 N   0  0  0  0  0  0
    5.8543   34.8135   -2.8312 C   0  0  0  0  0  0
    5.8702   32.7733   -8.4099 H   0  0  0  0  0  0
    4.4533   33.2768   -7.5540 H   0  0  0  0  0  0
    5.5007   34.5125   -8.2246 H   0  0  0  0  0  0
    7.7591   32.1983   -7.1376 H   0  0  0  0  0  0
    8.8540   31.9778   -4.9569 H   0  0  0  0  0  0
    8.0231   33.2206   -3.0100 H   0  0  0  0  0  0
    4.6213   35.7057   -6.4153 H   0  0  0  0  0  0
    4.4164   35.9069   -4.6935 H   0  0  0  0  0  0
    2.4495   35.0082   -5.6075 H   0  0  0  0  0  0
    4.6231   32.0789   -5.4113 H   0  0  0  0  0  0
    2.6972   30.6644   -1.9416 H   0  0  0  0  0  0
   -0.7758   31.9389   -0.6382 H   0  0  0  0  0  0
   -0.1095   30.6342   -1.5921 H   0  0  0  0  0  0
    0.8657   31.3791   -0.3399 H   0  0  0  0  0  0
   -1.6900   33.9752   -1.5729 H   0  0  0  0  0  0
   -1.5639   34.9709   -3.0076 H   0  0  0  0  0  0
   -0.7313   35.4410   -1.5305 H   0  0  0  0  0  0
    6.2541   31.3421   -2.3377 H   0  0  0  0  0  0
    7.6890   28.9978   -2.7997 H   0  0  0  0  0  0
    6.0324   27.5336   -4.3306 H   0  0  0  0  0  0
    6.3243   34.3905   -1.9411 H   0  0  0  0  0  0
    5.9774   35.8978   -2.8408 H   0  0  0  0  0  0
    4.7881   34.6046   -2.7461 H   0  0  0  0  0  0
  1  2  1  0  0  0
  1 27  1  0  0  0
  1 28  1  0  0  0
  1 29  1  0  0  0
  2  7  1  0  0  0
  2  3  2  0  0  0
  3  4  1  0  0  0
  3 30  1  0  0  0
  4  5  2  0  0  0
  4 31  1  0  0  0
  5  6  1  0  0  0
  5 32  1  0  0  0
  6  7  2  0  0  0
  6 26  1  0  0  0
  7  8  1  0  0  0
  8  9  1  0  0  0
  8 33  1  0  0  0
  8 34  1  0  0  0
  9 10  1  0  0  0
  9 35  1  0  0  0
 10 15  1  0  0  0
 10 11  2  0  0  0
 11 12  1  0  0  0
 11 36  1  0  0  0
 12 13  2  0  0  0
 12 21  1  0  0  0
 13 14  1  0  0  0
 13 37  1  0  0  0
 14 18  1  0  0  0
 14 15  1  0  0  0
 15 16  2  0  0  0
 16 17  1  0  0  0
 17 18  2  0  0  0
 17 20  1  0  0  0
 18 19  1  0  0  0
 19 38  1  0  0  0
 19 39  1  0  0  0
 19 40  1  0  0  0
 20 41  1  0  0  0
 20 42  1  0  0  0
 20 43  1  0  0  0
 21 25  1  0  0  0
 21 22  1  0  0  0
 22 23  2  0  0  0
 22 44  1  0  0  0
 23 24  1  0  0  0
 23 45  1  0  0  0
 24 25  2  0  0  0
 24 46  1  0  0  0
 26 47  1  0  0  0
 26 48  1  0  0  0
 26 49  1  0  0  0
M  END
> <s_m_entry_id>
36049

> <s_m_entry_name>
ligand_docking-pose.44

> <s_m_Source_Path>
/home/csk/Desktop/cluster/DUD-E-result/cp2c9

> <s_m_Source_File>
ligand_docking-pose.sdf

> <i_m_Source_File_Index>
44

> <i_lp_mmshare_version>
53161

> <r_lp_tautomer_probability>
1

> <s_lp_Force_Field>
OPLS_2005

> <r_lp_Energy>
16.879708

> <b_lp_Chiralities_Consistent>
1

> <s_lp_Variant>
501544-1

> <s_i_glide_gridfile>
glide-grid_1r9o

> <i_i_glide_lignum>
61

> <i_i_glide_rotatable_bonds>
4

> <r_i_docking_score>
-7.26130853985563

> <r_i_glide_ligand_efficiency>
-0.279281097686755

> <r_i_glide_ligand_efficiency_sa>
-0.827369152978957

> <r_i_glide_ligand_efficiency_ln>
-1.70529448428842

> <r_i_glide_gscore>
-7.26130853985563

> <r_i_glide_lipo>
-4.7258937544762

> <r_i_glide_hbond>
0

> <r_i_glide_metal>
0

> <r_i_glide_rewards>
-1.41294815975262

> <r_i_glide_evdw>
-38.1545295715332

> <r_i_glide_ecoul>
0.989152133464813

> <r_i_glide_erotb>
0.636887032930129

> <r_i_glide_esite>
0

> <r_i_glide_emodel>
-48.9137981893117

> <r_i_glide_energy>
-37.1653774380684

> <r_i_glide_einternal>
1.70653653144836

> <i_i_glide_confnum>
41

> <i_i_glide_posenum>
264

> <r_i_glide_eff_state_penalty>
0

> <i_f3d_flags>
0

> <s_user_duplicate_titles>
501544

> <s_m_subgroup_title>
dock_pv

> <s_m_subgroupid>
dock_pv1

> <b_m_subgroup_collapsed>
0

$$$$
612592
                    3D
 Schrodinger Suite 2021-1.
 47 50  0  0  1  0            999 V2000
    7.8873   34.7179   -5.6993 C   0  0  0  0  0  0
    6.9971   33.8982   -4.8004 C   0  0  0  0  0  0
    7.3272   33.1399   -3.6813 C   0  0  0  0  0  0
    6.1738   32.5484   -3.1746 N   0  0  0  0  0  0
    5.0848   32.9807   -3.9193 C   0  0  0  0  0  0
    5.5920   33.7641   -4.9807 C   0  0  0  0  0  0
    4.6742   34.2477   -5.9180 C   0  0  0  0  0  0
    3.3566   33.9669   -5.8269 N   0  0  0  0  0  0
    2.8770   33.2420   -4.8095 N   0  0  0  0  0  0
    3.7006   32.7848   -3.8255 C   0  0  0  0  0  0
    3.1745   32.1980   -2.6921 O   0  0  0  0  0  0
    1.8095   31.7811   -2.6525 C   0  0  0  0  0  0
    0.7850   32.8685   -2.3247 C   0  0  0  0  0  0
    1.0466   34.2348   -2.4761 C   0  0  0  0  0  0
    0.0542   35.1698   -2.1978 C   0  0  0  0  0  0
   -1.1823   34.7526   -1.7197 C   0  0  0  0  0  0
   -1.4425   33.3971   -1.5409 C   0  0  0  0  0  0
   -0.4666   32.4569   -1.8550 C   0  0  0  0  0  0
   -2.1320   35.6703   -1.4263 F   0  0  0  0  0  0
    6.1114   31.5597   -2.0853 C   0  0  0  0  0  0
    6.0408   30.0727   -2.5638 C   0  0  1  0  0  0
    5.6014   29.6510   -3.9411 C   0  0  0  0  0  0
    7.0619   29.5264   -3.5405 C   0  0  2  0  0  0
    7.7179   28.1407   -3.3253 C   0  0  0  0  0  0
    8.6844   32.9239   -3.0354 C   0  0  0  0  0  0
    5.6182   29.4142   -1.8105 H   0  0  0  0  0  0
    7.7582   30.2284   -3.9986 H   0  0  0  0  0  0
    7.3471   35.5488   -6.1535 H   0  0  0  0  0  0
    8.7020   35.1683   -5.1424 H   0  0  0  0  0  0
    8.2999   34.1247   -6.5146 H   0  0  0  0  0  0
    4.9840   34.8591   -6.7499 H   0  0  0  0  0  0
    1.5299   31.2052   -3.5383 H   0  0  0  0  0  0
    1.7750   31.1051   -1.8079 H   0  0  0  0  0  0
    2.0061   34.5910   -2.8145 H   0  0  0  0  0  0
    0.2510   36.2209   -2.3409 H   0  0  0  0  0  0
   -2.3987   33.0738   -1.1557 H   0  0  0  0  0  0
   -0.6842   31.4065   -1.7229 H   0  0  0  0  0  0
    5.2589   31.7988   -1.4491 H   0  0  0  0  0  0
    6.9718   31.6967   -1.4332 H   0  0  0  0  0  0
    5.2764   30.4223   -4.6358 H   0  0  0  0  0  0
    5.0111   28.7407   -4.0546 H   0  0  0  0  0  0
    7.1009   27.4740   -2.7412 H   0  0  0  0  0  0
    8.6636   28.2435   -2.7936 H   0  0  0  0  0  0
    7.9214   27.5871   -4.2458 H   0  0  0  0  0  0
    9.4911   33.3909   -3.6004 H   0  0  0  0  0  0
    8.7204   33.3523   -2.0328 H   0  0  0  0  0  0
    8.9465   31.8700   -2.9409 H   0  0  0  0  0  0
  1  2  1  0  0  0
  1 28  1  0  0  0
  1 29  1  0  0  0
  1 30  1  0  0  0
  2  6  1  0  0  0
  2  3  2  0  0  0
  3  4  1  0  0  0
  3 25  1  0  0  0
  4  5  1  0  0  0
  4 20  1  0  0  0
  5 10  1  0  0  0
  5  6  2  0  0  0
  6  7  1  0  0  0
  7  8  2  0  0  0
  7 31  1  0  0  0
  8  9  1  0  0  0
  9 10  2  0  0  0
 10 11  1  0  0  0
 11 12  1  0  0  0
 12 13  1  0  0  0
 12 32  1  0  0  0
 12 33  1  0  0  0
 13 18  1  0  0  0
 13 14  2  0  0  0
 14 15  1  0  0  0
 14 34  1  0  0  0
 15 16  2  0  0  0
 15 35  1  0  0  0
 16 17  1  0  0  0
 16 19  1  0  0  0
 17 18  2  0  0  0
 17 36  1  0  0  0
 18 37  1  0  0  0
 20 21  1  0  0  0
 20 38  1  0  0  0
 20 39  1  0  0  0
 21 26  1  0  0  0
 21 23  1  0  0  0
 21 22  1  0  0  0
 22 23  1  0  0  0
 22 40  1  0  0  0
 22 41  1  0  0  0
 23 27  1  0  0  0
 23 24  1  0  0  0
 24 42  1  0  0  0
 24 43  1  0  0  0
 24 44  1  0  0  0
 25 45  1  0  0  0
 25 46  1  0  0  0
 25 47  1  0  0  0
M  END
> <s_m_entry_id>
36050

> <s_m_entry_name>
ligand_docking-pose.45

> <s_m_Source_Path>
/home/csk/Desktop/cluster/DUD-E-result/cp2c9

> <s_m_Source_File>
ligand_docking-pose.sdf

> <i_m_Source_File_Index>
45

> <i_lp_mmshare_version>
53161

> <r_lp_tautomer_probability>
1

> <s_lp_Force_Field>
OPLS_2005

> <r_lp_Energy>
29.33536

> <b_lp_Chiralities_Consistent>
1

> <s_lp_Variant>
612592-1

> <s_i_glide_gridfile>
glide-grid_1r9o

> <i_i_glide_lignum>
85

> <i_i_glide_rotatable_bonds>
5

> <r_i_docking_score>
-7.2206731762097

> <r_i_glide_ligand_efficiency>
-0.288826927048388

> <r_i_glide_ligand_efficiency_sa>
-0.844535057056849

> <r_i_glide_ligand_efficiency_ln>
-1.7115159288755

> <r_i_glide_gscore>
-7.2206731762097

> <r_i_glide_lipo>
-4.84388319434751

> <r_i_glide_hbond>
0

> <r_i_glide_metal>
0

> <r_i_glide_rewards>
-1.40328844924242

> <r_i_glide_evdw>
-33.6740608215332

> <r_i_glide_ecoul>
-0.741254806518555

> <r_i_glide_erotb>
0.821389729434679

> <r_i_glide_esite>
0

> <r_i_glide_emodel>
-42.6332642081535

> <r_i_glide_energy>
-34.4153156280518

> <r_i_glide_einternal>
3.6617259979248

> <i_i_glide_confnum>
30

> <i_i_glide_posenum>
11

> <r_i_glide_eff_state_penalty>
0

> <i_f3d_flags>
0

> <s_user_duplicate_titles>
612592

> <s_m_subgroup_title>
dock_pv

> <s_m_subgroupid>
dock_pv1

> <b_m_subgroup_collapsed>
0

$$$$
617405
                    3D
 Schrodinger Suite 2021-1.
 55 59  0  0  1  0            999 V2000
   -1.0552   33.8722   -1.5409 C   0  0  0  0  0  0
   -1.2991   32.5248   -1.2760 C   0  0  0  0  0  0
   -0.3679   31.5765   -1.6934 C   0  0  0  0  0  0
    0.7611   31.9108   -2.3637 N   0  0  0  0  0  0
    0.9898   33.2281   -2.6312 C   0  0  0  0  0  0
    0.1042   34.2353   -2.2264 C   0  0  0  0  0  0
    2.2004   33.5610   -3.4397 C   0  0  0  0  0  0
    2.8776   34.7750   -3.5410 C   0  0  0  0  0  0
    3.9291   34.7669   -4.4576 C   0  0  0  0  0  0
    4.0611   33.5426   -5.0798 C   0  0  0  0  0  0
    2.9335   32.3755   -4.4871 S   0  0  0  0  0  0
    5.2353   33.1377   -6.3678 S   0  0  0  0  0  0
    5.9858   34.3496   -6.7127 O   0  0  0  0  0  0
    4.4930   32.3758   -7.3762 O   0  0  0  0  0  0
    6.2832   31.9750   -5.5410 N   0  0  0  0  0  0
    7.2007   32.2520   -4.5280 C   0  0  0  0  0  0
    7.4846   31.2483   -3.6064 C   0  0  0  0  0  0
    8.4991   31.4297   -2.6726 C   0  0  0  0  0  0
    9.2629   32.6011   -2.6524 C   0  0  0  0  0  0
    8.9339   33.6425   -3.5410 C   0  0  0  0  0  0
    7.9010   33.4502   -4.4602 C   0  0  0  0  0  0
    9.6967   34.9635   -3.5933 C   0  0  0  0  0  0
    9.7745   35.7481   -2.3222 C   0  0  0  0  0  0
   10.7010   35.2456   -1.3100 N   0  0  2  0  0  0
   10.3704   33.9282   -0.7615 C   0  0  0  0  0  0
   10.4360   32.7252   -1.6946 C   0  0  0  0  0  0
   11.0251   36.2237   -0.2655 C   0  0  0  0  0  0
    9.7785   36.4802    0.5208 C   0  0  0  0  0  0
    9.2418   35.9537    1.6589 C   0  0  0  0  0  0
    7.9010   36.3749    1.6589 C   0  0  0  0  0  0
    7.6255   37.1749    0.6789 N   0  0  0  0  0  0
    8.7469   37.1750   -0.0140 N   0  0  0  0  0  0
    8.8156   37.6722   -0.8887 H   0  0  0  0  0  0
   -1.7583   34.6257   -1.2165 H   0  0  0  0  0  0
   -2.1870   32.2266   -0.7414 H   0  0  0  0  0  0
   -0.5238   30.5251   -1.5039 H   0  0  0  0  0  0
    0.2914   35.2745   -2.4551 H   0  0  0  0  0  0
    2.5937   35.6627   -2.9954 H   0  0  0  0  0  0
    4.5494   35.6220   -4.6790 H   0  0  0  0  0  0
    5.9383   31.0294   -5.5723 H   0  0  0  0  0  0
    6.9493   30.3099   -3.6308 H   0  0  0  0  0  0
    8.7228   30.6322   -1.9820 H   0  0  0  0  0  0
    7.7025   34.2350   -5.1685 H   0  0  0  0  0  0
    9.2668   35.5750   -4.3808 H   0  0  0  0  0  0
   10.7009   34.8789   -3.9410 H   0  0  0  0  0  0
    8.7555   35.8339   -1.9504 H   0  0  0  0  0  0
   10.1144   36.7477   -2.5984 H   0  0  0  0  0  0
   11.0648   33.7111    0.0535 H   0  0  0  0  0  0
    9.3691   33.9767   -0.3410 H   0  0  0  0  0  0
   11.3766   32.6892   -2.2436 H   0  0  0  0  0  0
   10.4521   31.8313   -1.0692 H   0  0  0  0  0  0
   11.4167   37.1357   -0.7192 H   0  0  0  0  0  0
   11.8233   35.8474    0.3747 H   0  0  0  0  0  0
    9.7215   35.2790    2.3542 H   0  0  0  0  0  0
    7.1257   36.1279    2.3729 H   0  0  0  0  0  0
  1  6  1  0  0  0
  1  2  2  0  0  0
  1 34  1  0  0  0
  2  3  1  0  0  0
  2 35  1  0  0  0
  3  4  2  0  0  0
  3 36  1  0  0  0
  4  5  1  0  0  0
  5  6  2  0  0  0
  5  7  1  0  0  0
  6 37  1  0  0  0
  7 11  1  0  0  0
  7  8  2  0  0  0
  8  9  1  0  0  0
  8 38  1  0  0  0
  9 10  2  0  0  0
  9 39  1  0  0  0
 10 11  1  0  0  0
 10 12  1  0  0  0
 12 13  2  0  0  0
 12 14  2  0  0  0
 12 15  1  0  0  0
 15 16  1  0  0  0
 15 40  1  0  0  0
 16 21  1  0  0  0
 16 17  2  0  0  0
 17 18  1  0  0  0
 17 41  1  0  0  0
 18 19  2  0  0  0
 18 42  1  0  0  0
 19 26  1  0  0  0
 19 20  1  0  0  0
 20 21  2  0  0  0
 20 22  1  0  0  0
 21 43  1  0  0  0
 22 23  1  0  0  0
 22 44  1  0  0  0
 22 45  1  0  0  0
 23 24  1  0  0  0
 23 46  1  0  0  0
 23 47  1  0  0  0
 24 25  1  0  0  0
 24 27  1  0  0  0
 25 26  1  0  0  0
 25 48  1  0  0  0
 25 49  1  0  0  0
 26 50  1  0  0  0
 26 51  1  0  0  0
 27 52  1  0  0  0
 27 53  1  0  0  0
 27 28  1  0  0  0
 28 32  1  0  0  0
 28 29  2  0  0  0
 29 30  1  0  0  0
 29 54  1  0  0  0
 30 55  1  0  0  0
 30 31  2  0  0  0
 31 32  1  0  0  0
 32 33  1  0  0  0
M  END
> <s_m_entry_id>
36051

> <s_m_entry_name>
ligand_docking-pose.46

> <s_m_Source_Path>
/home/csk/Desktop/cluster/DUD-E-result/cp2c9

> <s_m_Source_File>
ligand_docking-pose.sdf

> <i_m_Source_File_Index>
46

> <i_lp_mmshare_version>
53161

> <r_lp_tautomer_probability>
0.5

> <s_lp_Force_Field>
OPLS_2005

> <r_lp_Energy>
18.693807

> <b_lp_Chiralities_Consistent>
1

> <s_lp_Variant>
617405-2

> <s_i_glide_gridfile>
glide-grid_1r9o

> <i_i_glide_lignum>
40

> <i_i_glide_rotatable_bonds>
6

> <r_i_docking_score>
-7.21364391920245

> <r_i_glide_ligand_efficiency>
-0.225426372475076

> <r_i_glide_ligand_efficiency_sa>
-0.715684120789832

> <r_i_glide_ligand_efficiency_ln>
-1.61533151001607

> <r_i_glide_gscore>
-7.21364391920245

> <r_i_glide_lipo>
-5.74421567933244

> <r_i_glide_hbond>
-0.16

> <r_i_glide_metal>
0

> <r_i_glide_rewards>
-0.196283912111803

> <r_i_glide_evdw>
-23.6956348419189

> <r_i_glide_ecoul>
-3.24389624595642

> <r_i_glide_erotb>
0.558221851231208

> <r_i_glide_esite>
0

> <r_i_glide_emodel>
-21.9909405018677

> <r_i_glide_energy>
-26.9395310878754

> <r_i_glide_einternal>
9.7625093460083

> <i_i_glide_confnum>
28

> <i_i_glide_posenum>
282

> <r_i_glide_eff_state_penalty>
0

> <i_f3d_flags>
0

> <s_user_duplicate_titles>
617405

> <s_m_subgroup_title>
dock_pv

> <s_m_subgroupid>
dock_pv1

> <b_m_subgroup_collapsed>
0

$$$$
611747
                    3D
 Schrodinger Suite 2021-1.
 58 61  0  0  1  0            999 V2000
   -1.0749   35.1755   -3.2176 C   0  0  0  0  0  0
    0.0847   34.4467   -3.8926 C   0  0  0  0  0  0
    0.6780   33.4326   -3.0854 N   0  0  0  0  0  0
    0.0712   32.7965   -2.0192 C   0  0  0  0  0  0
    1.0370   32.0616   -1.4482 C   0  0  0  0  0  0
    2.2455   32.1600   -2.1509 C   0  0  0  0  0  0
    1.9649   32.9247   -3.2900 C   0  0  0  0  0  0
    2.9667   33.0643   -4.2669 C   0  0  0  0  0  0
    4.0831   32.2939   -4.1664 N   0  0  0  0  0  0
    4.3803   31.6366   -3.0252 C   0  0  0  0  0  0
    3.5229   31.6338   -1.9417 C   0  0  0  0  0  0
    5.5806   30.9165   -2.9586 N   0  0  0  0  0  0
    6.6898   31.5314   -2.4151 C   0  0  0  0  0  0
    7.9403   31.0308   -2.4908 C   0  0  0  0  0  0
    8.0862   29.7325   -3.1311 C   0  0  0  0  0  0
    6.9810   29.0707   -3.5378 C   0  0  0  0  0  0
    5.6475   29.6571   -3.5187 C   0  0  0  0  0  0
    4.7009   29.0331   -3.9907 O   0  0  0  0  0  0
    2.8667   33.9753   -5.3298 N   0  0  0  0  0  0
    3.9832   34.7818   -5.8592 C   0  0  0  0  0  0
    5.4039   34.2505   -5.6129 C   0  0  0  0  0  0
    6.0763   34.5312   -4.4061 C   0  0  0  0  0  0
    7.3346   33.9748   -4.1715 C   0  0  0  0  0  0
    7.9009   33.0956   -5.0844 C   0  0  0  0  0  0
    7.2450   32.8017   -6.2696 C   0  0  0  0  0  0
    6.0018   33.3731   -6.5391 C   0  0  0  0  0  0
    5.2980   32.9926   -7.8217 C   0  0  0  0  0  0
    5.4314   35.3127   -3.2684 C   0  0  0  0  0  0
    0.7987   31.1750   -0.3616 C   0  0  0  0  0  0
   -1.3863   32.8649   -1.5496 C   0  0  0  0  0  0
   -1.2989   35.9750   -3.8610 H   0  0  0  0  0  0
   -2.0236   34.6588   -3.1410 H   0  0  0  0  0  0
   -0.8043   35.5994   -2.2498 H   0  0  0  0  0  0
    0.8738   35.1750   -3.9412 H   0  0  0  0  0  0
   -0.1152   34.0669   -4.8944 H   0  0  0  0  0  0
    3.7923   31.1750   -1.0084 H   0  0  0  0  0  0
    6.4611   32.4780   -1.9439 H   0  0  0  0  0  0
    8.7863   31.5448   -2.0580 H   0  0  0  0  0  0
    9.0558   29.2605   -3.1880 H   0  0  0  0  0  0
    7.0715   28.0726   -3.9402 H   0  0  0  0  0  0
    1.9759   34.4435   -5.3757 H   0  0  0  0  0  0
    3.8246   34.8885   -6.9257 H   0  0  0  0  0  0
    3.8997   35.8002   -5.4807 H   0  0  0  0  0  0
    7.8500   34.1718   -3.2430 H   0  0  0  0  0  0
    8.8427   32.6195   -4.8565 H   0  0  0  0  0  0
    7.6978   32.1093   -6.9638 H   0  0  0  0  0  0
    5.8998   32.3752   -8.4841 H   0  0  0  0  0  0
    4.3485   32.4938   -7.6220 H   0  0  0  0  0  0
    5.1009   33.9187   -8.3410 H   0  0  0  0  0  0
    5.5723   34.7602   -2.3409 H   0  0  0  0  0  0
    5.8998   36.2809   -3.1403 H   0  0  0  0  0  0
    4.3569   35.4493   -3.3693 H   0  0  0  0  0  0
    0.3013   30.3750   -0.8875 H   0  0  0  0  0  0
    1.7607   30.9202    0.0590 H   0  0  0  0  0  0
    0.0863   31.5749    0.3381 H   0  0  0  0  0  0
   -1.6407   32.0759   -0.8444 H   0  0  0  0  0  0
   -1.6174   33.7910   -1.0239 H   0  0  0  0  0  0
   -2.1111   32.7142   -2.3412 H   0  0  0  0  0  0
  1  2  1  0  0  0
  1 31  1  0  0  0
  1 32  1  0  0  0
  1 33  1  0  0  0
  2  3  1  0  0  0
  2 34  1  0  0  0
  2 35  1  0  0  0
  3  7  1  0  0  0
  3  4  1  0  0  0
  4  5  2  0  0  0
  4 30  1  0  0  0
  5  6  1  0  0  0
  5 29  1  0  0  0
  6 11  2  0  0  0
  6  7  1  0  0  0
  7  8  2  0  0  0
  8  9  1  0  0  0
  8 19  1  0  0  0
  9 10  2  0  0  0
 10 11  1  0  0  0
 10 12  1  0  0  0
 11 36  1  0  0  0
 12 17  1  0  0  0
 12 13  1  0  0  0
 13 14  2  0  0  0
 13 37  1  0  0  0
 14 15  1  0  0  0
 14 38  1  0  0  0
 15 16  2  0  0  0
 15 39  1  0  0  0
 16 17  1  0  0  0
 16 40  1  0  0  0
 17 18  2  0  0  0
 19 20  1  0  0  0
 19 41  1  0  0  0
 20 21  1  0  0  0
 20 42  1  0  0  0
 20 43  1  0  0  0
 21 26  1  0  0  0
 21 22  2  0  0  0
 22 23  1  0  0  0
 22 28  1  0  0  0
 23 24  2  0  0  0
 23 44  1  0  0  0
 24 25  1  0  0  0
 24 45  1  0  0  0
 25 26  2  0  0  0
 25 46  1  0  0  0
 26 27  1  0  0  0
 27 47  1  0  0  0
 27 48  1  0  0  0
 27 49  1  0  0  0
 28 50  1  0  0  0
 28 51  1  0  0  0
 28 52  1  0  0  0
 29 53  1  0  0  0
 29 54  1  0  0  0
 29 55  1  0  0  0
 30 56  1  0  0  0
 30 57  1  0  0  0
 30 58  1  0  0  0
M  END
> <s_m_entry_id>
36052

> <s_m_entry_name>
ligand_docking-pose.47

> <s_m_Source_Path>
/home/csk/Desktop/cluster/DUD-E-result/cp2c9

> <s_m_Source_File>
ligand_docking-pose.sdf

> <i_m_Source_File_Index>
47

> <i_lp_mmshare_version>
53161

> <r_lp_tautomer_probability>
1

> <s_lp_Force_Field>
OPLS_2005

> <r_lp_Energy>
35.669276

> <b_lp_Chiralities_Consistent>
1

> <s_lp_Variant>
611747-1

> <s_i_glide_gridfile>
glide-grid_1r9o

> <i_i_glide_lignum>
156

> <i_i_glide_rotatable_bonds>
5

> <r_i_docking_score>
-7.20943337319829

> <r_i_glide_ligand_efficiency>
-0.240314445773276

> <r_i_glide_ligand_efficiency_sa>
-0.746712856710438

> <r_i_glide_ligand_efficiency_ln>
-1.63806181545886

> <r_i_glide_gscore>
-7.20943337319829

> <r_i_glide_lipo>
-5.76163680303966

> <r_i_glide_hbond>
0

> <r_i_glide_metal>
0

> <r_i_glide_rewards>
-1.06267461069774

> <r_i_glide_evdw>
-19.1519794464111

> <r_i_glide_ecoul>
0.557419002056122

> <r_i_glide_erotb>
0.488864162551247

> <r_i_glide_esite>
0

> <r_i_glide_emodel>
-39.8164326018118

> <r_i_glide_energy>
-18.594560444355

> <r_i_glide_einternal>
15.4399509429932

> <i_i_glide_confnum>
14

> <i_i_glide_posenum>
168

> <r_i_glide_eff_state_penalty>
0

> <i_f3d_flags>
0

> <s_user_duplicate_titles>
611747

> <s_m_subgroup_title>
dock_pv

> <s_m_subgroupid>
dock_pv1

> <b_m_subgroup_collapsed>
0

$$$$
476031
                    3D
 Schrodinger Suite 2021-1.
 44 46  0  0  1  0            999 V2000
   -0.8668   31.8289   -1.5433 C   0  0  0  0  0  0
    0.4041   31.7584   -2.0991 C   0  0  0  0  0  0
    1.1223   32.9213   -2.4313 C   0  0  0  0  0  0
    0.5001   34.1671   -2.2113 C   0  0  0  0  0  0
   -0.7865   34.2463   -1.6517 C   0  0  0  0  0  0
   -1.4557   33.0667   -1.3239 C   0  0  0  0  0  0
   -1.4843   35.5777   -1.3729 C   0  0  0  0  0  0
   -1.5341   35.8149   -0.0664 F   0  0  0  0  0  0
   -0.8915   36.6174   -1.9407 F   0  0  0  0  0  0
   -2.7265   35.5307   -1.8393 F   0  0  0  0  0  0
    2.5437   32.8493   -2.9647 C   0  0  0  0  0  0
    3.1524   33.8821   -3.2519 O   0  0  0  0  0  0
    3.0743   31.6059   -3.0675 N   0  0  0  0  0  0
    4.4174   31.2053   -3.2035 C   0  0  0  0  0  0
    4.6529   29.8605   -3.4927 C   0  0  0  0  0  0
    5.9402   29.3422   -3.5132 C   0  0  0  0  0  0
    7.0281   30.1604   -3.2354 C   0  0  0  0  0  0
    6.8284   31.5364   -3.0117 C   0  0  0  0  0  0
    5.5173   32.0439   -2.9842 C   0  0  0  0  0  0
    7.9872   32.4727   -2.8180 C   0  0  0  0  0  0
    8.9791   32.3753   -3.5367 O   0  0  0  0  0  0
    7.8219   33.4054   -1.8582 N   0  0  0  0  0  0
    8.6314   34.5252   -1.6071 C   0  0  0  0  0  0
    9.6207   34.9954   -2.4869 C   0  0  0  0  0  0
   10.3327   36.1455   -2.1775 C   0  0  0  0  0  0
   10.0362   36.8064   -0.9827 C   0  0  0  0  0  0
    9.0859   36.3793   -0.1161 N   0  0  0  0  0  0
    8.3991   35.2552   -0.4375 C   0  0  0  0  0  0
   10.7011   37.9747   -0.6539 N   0  0  0  0  0  0
   11.5046   36.7410   -3.3039 Cl  0  0  0  0  0  0
    8.5794   29.3982   -3.1431 Cl  0  0  0  0  0  0
   -1.3932   30.9250   -1.2750 H   0  0  0  0  0  0
    0.8155   30.7769   -2.2547 H   0  0  0  0  0  0
    1.0226   35.0838   -2.4517 H   0  0  0  0  0  0
   -2.4338   33.1092   -0.8679 H   0  0  0  0  0  0
    2.4302   30.8430   -2.9442 H   0  0  0  0  0  0
    3.8515   29.1751   -3.6692 H   0  0  0  0  0  0
    6.0887   28.2864   -3.6958 H   0  0  0  0  0  0
    5.3616   33.0922   -2.7767 H   0  0  0  0  0  0
    7.0018   33.3064   -1.2763 H   0  0  0  0  0  0
    9.8346   34.5219   -3.4314 H   0  0  0  0  0  0
    7.6396   34.9536    0.2688 H   0  0  0  0  0  0
   11.2933   38.4020   -1.3493 H   0  0  0  0  0  0
   10.3332   38.5506    0.0961 H   0  0  0  0  0  0
  1  6  1  0  0  0
  1  2  2  0  0  0
  1 32  1  0  0  0
  2  3  1  0  0  0
  2 33  1  0  0  0
  3  4  2  0  0  0
  3 11  1  0  0  0
  4  5  1  0  0  0
  4 34  1  0  0  0
  5  6  2  0  0  0
  5  7  1  0  0  0
  6 35  1  0  0  0
  7  8  1  0  0  0
  7  9  1  0  0  0
  7 10  1  0  0  0
 11 12  2  0  0  0
 11 13  1  0  0  0
 13 14  1  0  0  0
 13 36  1  0  0  0
 14 19  1  0  0  0
 14 15  2  0  0  0
 15 16  1  0  0  0
 15 37  1  0  0  0
 16 17  2  0  0  0
 16 38  1  0  0  0
 17 18  1  0  0  0
 17 31  1  0  0  0
 18 19  2  0  0  0
 18 20  1  0  0  0
 19 39  1  0  0  0
 20 21  2  0  0  0
 20 22  1  0  0  0
 22 23  1  0  0  0
 22 40  1  0  0  0
 23 28  1  0  0  0
 23 24  2  0  0  0
 24 25  1  0  0  0
 24 41  1  0  0  0
 25 26  2  0  0  0
 25 30  1  0  0  0
 26 27  1  0  0  0
 26 29  1  0  0  0
 27 28  2  0  0  0
 28 42  1  0  0  0
 29 43  1  0  0  0
 29 44  1  0  0  0
M  END
> <s_m_entry_id>
36053

> <s_m_entry_name>
ligand_docking-pose.48

> <s_m_Source_Path>
/home/csk/Desktop/cluster/DUD-E-result/cp2c9

> <s_m_Source_File>
ligand_docking-pose.sdf

> <i_m_Source_File_Index>
48

> <i_lp_mmshare_version>
53161

> <r_lp_tautomer_probability>
0.999999772200052

> <s_lp_Force_Field>
OPLS_2005

> <r_lp_Energy>
34.972262

> <b_lp_Chiralities_Consistent>
1

> <s_lp_Variant>
476031-1

> <s_i_glide_gridfile>
glide-grid_1r9o

> <i_i_glide_lignum>
17

> <i_i_glide_rotatable_bonds>
7

> <r_i_docking_score>
-7.18695187910663

> <r_i_glide_ligand_efficiency>
-0.231837157390536

> <r_i_glide_ligand_efficiency_sa>
-0.728288759898404

> <r_i_glide_ligand_efficiency_ln>
-1.62087790236218

> <r_i_glide_gscore>
-7.18695187910663

> <r_i_glide_lipo>
-4.51426617321921

> <r_i_glide_hbond>
-0.20101013644109

> <r_i_glide_metal>
0

> <r_i_glide_rewards>
-0.229127317035125

> <r_i_glide_evdw>
-48.6886863708496

> <r_i_glide_ecoul>
-1.96875321865082

> <r_i_glide_erotb>
0.550327365386178

> <r_i_glide_esite>
-0.0631283164572725

> <r_i_glide_emodel>
-65.6841833400579

> <r_i_glide_energy>
-50.6574395895004

> <r_i_glide_einternal>
11.4268484115601

> <i_i_glide_confnum>
68

> <i_i_glide_posenum>
202

> <r_i_glide_eff_state_penalty>
0

> <i_f3d_flags>
0

> <s_user_duplicate_titles>
476031

> <s_m_subgroup_title>
dock_pv

> <s_m_subgroupid>
dock_pv1

> <b_m_subgroup_collapsed>
0

$$$$
16088
                    3D
 Schrodinger Suite 2021-1.
 51 54  0  0  1  0            999 V2000
    3.9010   31.7685   -5.8848 C   0  0  0  0  0  0
    4.8854   31.9357   -4.7331 C   0  0  0  0  0  0
    5.9474   32.8117   -4.6040 C   0  0  0  0  0  0
    6.5569   32.5381   -3.3875 N   0  0  0  0  0  0
    5.9373   31.5521   -2.7567 N   0  0  0  0  0  0
    4.9571   31.2077   -3.5465 C   0  0  0  0  0  0
    3.9910   30.2953   -3.1410 C   0  0  0  0  0  0
    4.3010   29.1105   -3.1410 O   0  0  0  0  0  0
    2.7861   30.7750   -2.7410 N   0  0  0  0  0  0
    2.1996   32.0425   -3.0450 N   0  0  0  0  0  0
    2.9512   33.2178   -2.5614 C   0  0  0  0  0  0
    2.3010   34.4900   -3.1410 C   0  0  0  0  0  0
    0.9489   34.6810   -2.4522 C   0  0  0  0  0  0
    0.1236   33.4332   -2.7410 C   0  0  0  0  0  0
    0.8646   32.1060   -2.4169 C   0  0  0  0  0  0
    7.5981   33.1838   -2.6854 C   0  0  0  0  0  0
    7.4475   34.5300   -2.3423 C   0  0  0  0  0  0
    8.4112   35.1721   -1.5661 C   0  0  0  0  0  0
    9.5396   34.4763   -1.1410 C   0  0  0  0  0  0
    9.7072   33.1359   -1.4899 C   0  0  0  0  0  0
    8.7326   32.4793   -2.2424 C   0  0  0  0  0  0
    8.9445   30.7963   -2.5737 Cl  0  0  0  0  0  0
   10.7010   35.2676   -0.1420 Cl  0  0  0  0  0  0
    6.3422   33.8278   -5.5803 C   0  0  0  0  0  0
    5.3771   34.4836   -6.3411 C   0  0  0  0  0  0
    5.7901   35.3333   -7.3468 C   0  0  0  0  0  0
    7.1292   35.5750   -7.5410 C   0  0  0  0  0  0
    8.0942   34.9487   -6.7702 C   0  0  0  0  0  0
    7.6893   34.0535   -5.7921 C   0  0  0  0  0  0
    7.5701   36.7470   -8.7410 Cl  0  0  0  0  0  0
    4.3667   31.9551   -6.8525 H   0  0  0  0  0  0
    3.5040   30.7554   -5.9446 H   0  0  0  0  0  0
    3.0501   32.4431   -5.7961 H   0  0  0  0  0  0
    2.0618   30.0817   -2.6362 H   0  0  0  0  0  0
    4.0028   33.2716   -2.7941 H   0  0  0  0  0  0
    2.9098   33.2212   -1.4696 H   0  0  0  0  0  0
    2.1518   34.3750   -4.2168 H   0  0  0  0  0  0
    2.9338   35.3699   -3.0337 H   0  0  0  0  0  0
    1.0798   34.8033   -1.3772 H   0  0  0  0  0  0
    0.4416   35.5750   -2.8128 H   0  0  0  0  0  0
   -0.8318   33.4738   -2.2163 H   0  0  0  0  0  0
   -0.0990   33.4747   -3.8029 H   0  0  0  0  0  0
    0.2594   31.2648   -2.7591 H   0  0  0  0  0  0
    0.9668   32.0036   -1.3339 H   0  0  0  0  0  0
    6.5708   35.0782   -2.6590 H   0  0  0  0  0  0
    8.2768   36.2077   -1.2888 H   0  0  0  0  0  0
   10.5741   32.5916   -1.1435 H   0  0  0  0  0  0
    4.3212   34.3411   -6.1711 H   0  0  0  0  0  0
    5.1010   35.8944   -7.9412 H   0  0  0  0  0  0
    9.1347   35.1750   -6.9416 H   0  0  0  0  0  0
    8.3922   33.5069   -5.1897 H   0  0  0  0  0  0
  1  2  1  0  0  0
  1 31  1  0  0  0
  1 32  1  0  0  0
  1 33  1  0  0  0
  2  6  1  0  0  0
  2  3  2  0  0  0
  3  4  1  0  0  0
  3 24  1  0  0  0
  4  5  1  0  0  0
  4 16  1  0  0  0
  5  6  2  0  0  0
  6  7  1  0  0  0
  7  8  2  0  0  0
  7  9  1  0  0  0
  9 10  1  0  0  0
  9 34  1  0  0  0
 10 15  1  0  0  0
 10 11  1  0  0  0
 11 12  1  0  0  0
 11 35  1  0  0  0
 11 36  1  0  0  0
 12 13  1  0  0  0
 12 37  1  0  0  0
 12 38  1  0  0  0
 13 14  1  0  0  0
 13 39  1  0  0  0
 13 40  1  0  0  0
 14 15  1  0  0  0
 14 41  1  0  0  0
 14 42  1  0  0  0
 15 43  1  0  0  0
 15 44  1  0  0  0
 16 21  1  0  0  0
 16 17  2  0  0  0
 17 18  1  0  0  0
 17 45  1  0  0  0
 18 19  2  0  0  0
 18 46  1  0  0  0
 19 20  1  0  0  0
 19 23  1  0  0  0
 20 21  2  0  0  0
 20 47  1  0  0  0
 21 22  1  0  0  0
 24 29  1  0  0  0
 24 25  2  0  0  0
 25 26  1  0  0  0
 25 48  1  0  0  0
 26 27  2  0  0  0
 26 49  1  0  0  0
 27 28  1  0  0  0
 27 30  1  0  0  0
 28 29  2  0  0  0
 28 50  1  0  0  0
 29 51  1  0  0  0
M  END
> <s_m_entry_id>
36054

> <s_m_entry_name>
ligand_docking-pose.49

> <s_m_Source_Path>
/home/csk/Desktop/cluster/DUD-E-result/cp2c9

> <s_m_Source_File>
ligand_docking-pose.sdf

> <i_m_Source_File_Index>
49

> <i_lp_mmshare_version>
53161

> <r_lp_tautomer_probability>
1

> <s_lp_Force_Field>
OPLS_2005

> <r_lp_Energy>
33.31641

> <b_lp_Chiralities_Consistent>
1

> <s_lp_Variant>
16088-1

> <s_i_glide_gridfile>
glide-grid_1r9o

> <i_i_glide_lignum>
92

> <i_i_glide_rotatable_bonds>
5

> <r_i_docking_score>
-7.17328074223365

> <r_i_glide_ligand_efficiency>
-0.239109358074455

> <r_i_glide_ligand_efficiency_sa>
-0.74296836904438

> <r_i_glide_ligand_efficiency_ln>
-1.62984754378923

> <r_i_glide_gscore>
-7.17328074223365

> <r_i_glide_lipo>
-4.87835560827247

> <r_i_glide_hbond>
-0.0382365218631135

> <r_i_glide_metal>
0

> <r_i_glide_rewards>
-1.47442566289873

> <r_i_glide_evdw>
-23.9048671722412

> <r_i_glide_ecoul>
-0.370086163282394

> <r_i_glide_erotb>
0.468493333905076

> <r_i_glide_esite>
0

> <r_i_glide_emodel>
-15.7295988967038

> <r_i_glide_energy>
-24.2749533355236

> <r_i_glide_einternal>
24.2431659698486

> <i_i_glide_confnum>
109

> <i_i_glide_posenum>
131

> <r_i_glide_eff_state_penalty>
0

> <i_f3d_flags>
0

> <s_user_duplicate_titles>
16088

> <s_m_subgroup_title>
dock_pv

> <s_m_subgroupid>
dock_pv1

> <b_m_subgroup_collapsed>
0

$$$$
407549
                    3D
 Schrodinger Suite 2021-1.
 64 66  0  0  1  0            999 V2000
   10.6990   32.3545   -1.4679 C   0  0  0  0  0  0
    9.2728   32.0585   -1.9125 C   0  0  0  0  0  0
    8.2371   32.9126   -1.9994 C   0  0  0  0  0  0
    6.9073   32.4304   -2.6359 C   0  0  2  0  0  0
    6.8384   30.8832   -2.8286 C   0  0  0  0  0  0
    7.9634   30.1454   -2.7410 C   0  0  0  0  0  0
    9.1010   30.7750   -2.3410 N   0  0  0  0  0  0
    8.1837   28.6403   -2.9502 C   0  0  0  0  0  0
    5.5722   30.2857   -3.3151 C   0  0  0  0  0  0
    5.4072   29.0854   -3.5408 O   0  0  0  0  0  0
    4.6170   31.1904   -3.5723 O   0  0  0  0  0  0
    3.5010   30.8017   -4.3417 C   0  0  0  0  0  0
    2.8609   31.9879   -5.0885 C   0  0  0  0  0  0
    2.0383   32.9217   -4.2990 N   0  0  1  0  0  0
    1.1284   33.5744   -5.2444 C   0  0  0  0  0  0
    1.3336   32.2838   -3.1787 C   0  0  0  0  0  0
    0.3386   33.1604   -2.4281 C   0  0  0  0  0  0
   -0.7193   32.5168   -1.7938 C   0  0  0  0  0  0
   -1.6990   33.2686   -1.1696 C   0  0  0  0  0  0
   -1.6155   34.6544   -1.1410 C   0  0  0  0  0  0
   -0.5372   35.2989   -1.7302 C   0  0  0  0  0  0
    0.4711   34.5527   -2.3331 C   0  0  0  0  0  0
    6.7083   33.1034   -3.9807 C   0  0  0  0  0  0
    7.4861   32.8138   -5.1096 C   0  0  0  0  0  0
    7.1604   33.3889   -6.3387 C   0  0  0  0  0  0
    6.0566   34.2391   -6.4421 C   0  0  0  0  0  0
    5.3039   34.5279   -5.2973 C   0  0  0  0  0  0
    5.6483   33.9708   -4.0821 C   0  0  0  0  0  0
    4.1473   35.4085   -5.2996 N   0  3  0  0  0  0
    3.5317   35.5613   -6.3409 O   0  5  0  0  0  0
    3.9010   35.9750   -4.2408 O   0  0  0  0  0  0
    8.3170   34.3392   -1.5732 C   0  0  0  0  0  0
    7.5011   35.1748   -1.9409 O   0  0  0  0  0  0
    9.3389   34.6588   -0.7410 O   0  0  0  0  0  0
    9.4849   35.9789   -0.2313 C   0  0  0  0  0  0
   10.7011   32.4837   -0.3862 H   0  0  0  0  0  0
   11.4154   31.5751   -1.7220 H   0  0  0  0  0  0
   11.0655   33.2675   -1.9351 H   0  0  0  0  0  0
    6.0676   32.7381   -2.0065 H   0  0  0  0  0  0
    9.9707   30.3750   -2.6416 H   0  0  0  0  0  0
    7.3199   28.0151   -2.7416 H   0  0  0  0  0  0
    8.5232   28.4379   -3.9463 H   0  0  0  0  0  0
    8.9809   28.2297   -2.3411 H   0  0  0  0  0  0
    3.7995   30.0786   -5.1041 H   0  0  0  0  0  0
    2.8047   30.2835   -3.6818 H   0  0  0  0  0  0
    3.6471   32.5493   -5.5883 H   0  0  0  0  0  0
    2.2740   31.5751   -5.9067 H   0  0  0  0  0  0
    0.3682   34.2080   -4.7942 H   0  0  0  0  0  0
    1.7136   34.2139   -5.8846 H   0  0  0  0  0  0
    0.6204   32.8632   -5.8943 H   0  0  0  0  0  0
    0.8083   31.3932   -3.5293 H   0  0  0  0  0  0
    2.0690   31.9488   -2.4458 H   0  0  0  0  0  0
   -0.8180   31.4415   -1.8297 H   0  0  0  0  0  0
   -2.5473   32.7667   -0.7410 H   0  0  0  0  0  0
   -2.3857   35.2329   -0.6549 H   0  0  0  0  0  0
   -0.4993   36.3777   -1.7158 H   0  0  0  0  0  0
    1.3113   35.0610   -2.7852 H   0  0  0  0  0  0
    8.3200   32.1303   -5.0396 H   0  0  0  0  0  0
    7.7593   33.1632   -7.2060 H   0  0  0  0  0  0
    5.7952   34.6745   -7.3965 H   0  0  0  0  0  0
    5.0499   34.1779   -3.2049 H   0  0  0  0  0  0
   10.3584   36.0319    0.4182 H   0  0  0  0  0  0
    8.6097   36.2717    0.3509 H   0  0  0  0  0  0
    9.6164   36.7001   -1.0398 H   0  0  0  0  0  0
  1  2  1  0  0  0
  1 36  1  0  0  0
  1 37  1  0  0  0
  1 38  1  0  0  0
  2  7  1  0  0  0
  2  3  2  0  0  0
  3  4  1  0  0  0
  3 32  1  0  0  0
  4  5  1  0  0  0
  4 23  1  0  0  0
  4 39  1  0  0  0
  5  6  2  0  0  0
  5  9  1  0  0  0
  6  7  1  0  0  0
  6  8  1  0  0  0
  7 40  1  0  0  0
  8 41  1  0  0  0
  8 42  1  0  0  0
  8 43  1  0  0  0
  9 10  2  0  0  0
  9 11  1  0  0  0
 11 12  1  0  0  0
 12 13  1  0  0  0
 12 44  1  0  0  0
 12 45  1  0  0  0
 13 14  1  0  0  0
 13 46  1  0  0  0
 13 47  1  0  0  0
 14 15  1  0  0  0
 14 16  1  0  0  0
 15 48  1  0  0  0
 15 49  1  0  0  0
 15 50  1  0  0  0
 16 17  1  0  0  0
 16 51  1  0  0  0
 16 52  1  0  0  0
 17 22  1  0  0  0
 17 18  2  0  0  0
 18 19  1  0  0  0
 18 53  1  0  0  0
 19 20  2  0  0  0
 19 54  1  0  0  0
 20 21  1  0  0  0
 20 55  1  0  0  0
 21 22  2  0  0  0
 21 56  1  0  0  0
 22 57  1  0  0  0
 23 28  1  0  0  0
 23 24  2  0  0  0
 24 25  1  0  0  0
 24 58  1  0  0  0
 25 26  2  0  0  0
 25 59  1  0  0  0
 26 27  1  0  0  0
 26 60  1  0  0  0
 27 28  2  0  0  0
 27 29  1  0  0  0
 28 61  1  0  0  0
 29 30  1  0  0  0
 29 31  2  0  0  0
 32 33  2  0  0  0
 32 34  1  0  0  0
 34 35  1  0  0  0
 35 62  1  0  0  0
 35 63  1  0  0  0
 35 64  1  0  0  0
M  CHG  2  29   1  30  -1
M  END
> <s_m_entry_id>
36055

> <s_m_entry_name>
ligand_docking-pose.50

> <s_m_Source_Path>
/home/csk/Desktop/cluster/DUD-E-result/cp2c9

> <s_m_Source_File>
ligand_docking-pose.sdf

> <i_m_Source_File_Index>
50

> <i_lp_mmshare_version>
53161

> <r_lp_tautomer_probability>
1

> <s_lp_Force_Field>
OPLS_2005

> <r_lp_Energy>
30.246026

> <b_lp_Chiralities_Consistent>
1

> <s_lp_Variant>
407549-2

> <s_i_glide_gridfile>
glide-grid_1r9o

> <i_i_glide_lignum>
73

> <i_i_glide_rotatable_bonds>
11

> <r_i_docking_score>
-7.12407202028597

> <r_i_glide_ligand_efficiency>
-0.203544914865313

> <r_i_glide_ligand_efficiency_sa>
-0.66580891283707

> <r_i_glide_ligand_efficiency_ln>
-1.5638919187125

> <r_i_glide_gscore>
-7.12407202028597

> <r_i_glide_lipo>
-5.7287293219636

> <r_i_glide_hbond>
0

> <r_i_glide_metal>
0

> <r_i_glide_rewards>
-0.365700516030766

> <r_i_glide_evdw>
-38.9070014953613

> <r_i_glide_ecoul>
1.40273201465607

> <r_i_glide_erotb>
0.705298090278053

> <r_i_glide_esite>
0

> <r_i_glide_emodel>
-38.0680945815576

> <r_i_glide_energy>
-37.5042694807053

> <r_i_glide_einternal>
12.4718341827393

> <i_i_glide_confnum>
65

> <i_i_glide_posenum>
265

> <r_i_glide_eff_state_penalty>
0

> <i_f3d_flags>
0

> <s_user_duplicate_titles>
407549

> <s_m_subgroup_title>
dock_pv

> <s_m_subgroupid>
dock_pv1

> <b_m_subgroup_collapsed>
0

$$$$
480623
                    3D
 Schrodinger Suite 2021-1.
 37 39  0  0  1  0            999 V2000
    1.6915   32.0762   -2.7307 C   0  0  0  0  0  0
    3.2093   32.1125   -2.9631 C   0  0  2  0  0  0
    3.5975   32.9721   -4.1763 C   0  0  0  0  0  0
    4.0052   32.4069   -5.3959 C   0  0  0  0  0  0
    4.4137   33.2205   -6.4466 C   0  0  0  0  0  0
    4.3878   34.6030   -6.2950 C   0  0  0  0  0  0
    3.9403   35.1747   -5.1085 C   0  0  0  0  0  0
    3.5453   34.3630   -4.0531 C   0  0  0  0  0  0
    3.7604   30.7662   -3.0476 N   0  0  0  0  0  0
    5.1006   30.4479   -3.0507 C   0  0  0  0  0  0
    6.2811   31.0691   -2.7666 C   0  0  0  0  0  0
    7.1155   29.8479   -3.1409 C   0  0  0  0  0  0
    8.2995   29.5183   -3.1443 O   0  0  0  0  0  0
    5.7531   29.1752   -3.5429 C   0  0  0  0  0  0
    5.3866   28.1220   -4.0643 O   0  0  0  0  0  0
    6.6198   32.3386   -2.3267 N   0  0  0  0  0  0
    7.8706   32.9219   -2.0670 C   0  0  0  0  0  0
    7.9658   34.3133   -2.1686 C   0  0  0  0  0  0
    9.1888   34.9312   -1.9051 C   0  0  0  0  0  0
   10.3008   34.2405   -1.5491 N   0  0  0  0  0  0
   10.1985   32.8925   -1.4397 C   0  0  0  0  0  0
    9.0081   32.2035   -1.6740 C   0  0  0  0  0  0
    3.6623   32.5766   -2.0843 H   0  0  0  0  0  0
    1.2784   33.0816   -2.6386 H   0  0  0  0  0  0
    1.1703   31.5794   -3.5485 H   0  0  0  0  0  0
    1.4486   31.5436   -1.8107 H   0  0  0  0  0  0
    4.0257   31.3360   -5.5336 H   0  0  0  0  0  0
    4.7405   32.7820   -7.3787 H   0  0  0  0  0  0
    4.7017   35.2393   -7.1101 H   0  0  0  0  0  0
    3.9007   36.2482   -5.0031 H   0  0  0  0  0  0
    3.2046   34.8235   -3.1401 H   0  0  0  0  0  0
    3.0871   30.0760   -3.3491 H   0  0  0  0  0  0
    5.8769   33.0213   -2.2999 H   0  0  0  0  0  0
    7.1104   34.9094   -2.4510 H   0  0  0  0  0  0
    9.2893   36.0048   -1.9767 H   0  0  0  0  0  0
   11.0923   32.3618   -1.1433 H   0  0  0  0  0  0
    8.9805   31.1404   -1.5167 H   0  0  0  0  0  0
  1  2  1  0  0  0
  1 24  1  0  0  0
  1 25  1  0  0  0
  1 26  1  0  0  0
  2 23  1  0  0  0
  2  3  1  0  0  0
  2  9  1  0  0  0
  3  8  1  0  0  0
  3  4  2  0  0  0
  4  5  1  0  0  0
  4 27  1  0  0  0
  5  6  2  0  0  0
  5 28  1  0  0  0
  6  7  1  0  0  0
  6 29  1  0  0  0
  7  8  2  0  0  0
  7 30  1  0  0  0
  8 31  1  0  0  0
  9 10  1  0  0  0
  9 32  1  0  0  0
 10 14  1  0  0  0
 10 11  2  0  0  0
 11 12  1  0  0  0
 11 16  1  0  0  0
 12 13  2  0  0  0
 12 14  1  0  0  0
 14 15  2  0  0  0
 16 17  1  0  0  0
 16 33  1  0  0  0
 17 22  1  0  0  0
 17 18  2  0  0  0
 18 19  1  0  0  0
 18 34  1  0  0  0
 19 20  2  0  0  0
 19 35  1  0  0  0
 20 21  1  0  0  0
 21 22  2  0  0  0
 21 36  1  0  0  0
 22 37  1  0  0  0
M  END
> <s_m_entry_id>
36056

> <s_m_entry_name>
ligand_docking-pose.51

> <s_m_Source_Path>
/home/csk/Desktop/cluster/DUD-E-result/cp2c9

> <s_m_Source_File>
ligand_docking-pose.sdf

> <i_m_Source_File_Index>
51

> <i_lp_mmshare_version>
53161

> <r_lp_tautomer_probability>
1

> <s_lp_Force_Field>
OPLS_2005

> <r_lp_Energy>
49.415422

> <b_lp_Chiralities_Consistent>
1

> <s_lp_Variant>
480623-1

> <s_i_glide_gridfile>
glide-grid_1r9o

> <i_i_glide_lignum>
150

> <i_i_glide_rotatable_bonds>
5

> <r_i_docking_score>
-7.11017730317506

> <r_i_glide_ligand_efficiency>
-0.323189877417048

> <r_i_glide_ligand_efficiency_sa>
-0.905590746859189

> <r_i_glide_ligand_efficiency_ln>
-1.73798668291461

> <r_i_glide_gscore>
-7.11017730317506

> <r_i_glide_lipo>
-4.53060571401366

> <r_i_glide_hbond>
-0.0438790676354664

> <r_i_glide_metal>
0

> <r_i_glide_rewards>
-1.47407455123482

> <r_i_glide_evdw>
-41.1860198974609

> <r_i_glide_ecoul>
-0.427542984485626

> <r_i_glide_erotb>
1.06181447225479

> <r_i_glide_esite>
0

> <r_i_glide_emodel>
-59.6824811019648

> <r_i_glide_energy>
-41.6135628819466

> <r_i_glide_einternal>
3.08245444297791

> <i_i_glide_confnum>
54

> <i_i_glide_posenum>
303

> <r_i_glide_eff_state_penalty>
0

> <i_f3d_flags>
0

> <s_user_duplicate_titles>
480623

> <s_m_subgroup_title>
dock_pv

> <s_m_subgroupid>
dock_pv1

> <b_m_subgroup_collapsed>
0

$$$$
590166
                    3D
 Schrodinger Suite 2021-1.
 55 57  0  0  1  0            999 V2000
    0.3451   34.9616   -1.9410 C   0  0  0  0  0  0
    0.1384   33.6963   -2.7569 C   0  0  0  0  0  0
   -0.5228   32.5635   -1.9410 C   0  0  0  0  0  0
    1.7908   33.1435   -3.5432 S   0  0  0  0  0  0
    2.7655   34.2347   -3.4327 O   0  0  0  0  0  0
    1.5010   32.5821   -4.8661 O   0  0  0  0  0  0
    2.3400   31.8128   -2.5100 N   0  0  2  0  0  0
    2.8225   32.1197   -1.1410 C   0  0  0  0  0  0
    4.2604   31.5885   -1.1102 C   0  0  0  0  0  0
    4.6020   31.1234   -2.5204 C   0  0  1  0  0  0
    3.2227   30.7750   -3.0857 C   0  0  0  0  0  0
    5.2635   32.1803   -3.2907 N   0  0  0  0  0  0
    5.2720   31.9601   -4.7396 C   0  0  0  0  0  0
    5.8607   33.0727   -5.5698 C   0  0  0  0  0  0
    4.9576   34.0056   -6.0848 C   0  0  0  0  0  0
    5.4078   35.0468   -6.8742 C   0  0  0  0  0  0
    6.7610   35.1750   -7.1410 C   0  0  0  0  0  0
    7.6637   34.2469   -6.6425 C   0  0  0  0  0  0
    7.2382   33.1791   -5.8442 C   0  0  0  0  0  0
    8.2991   32.1966   -5.3220 C   0  0  0  0  0  0
    9.1010   31.8693   -6.3341 F   0  0  0  0  0  0
    8.9963   32.7750   -4.3410 F   0  0  0  0  0  0
    7.8539   31.0583   -4.8177 F   0  0  0  0  0  0
    6.4111   32.7640   -2.7089 C   0  0  0  0  0  0
    6.5126   34.1517   -2.7158 C   0  0  0  0  0  0
    7.5863   34.7750   -2.0925 C   0  0  0  0  0  0
    8.6136   34.0368   -1.5144 C   0  0  0  0  0  0
    8.5477   32.6344   -1.5410 C   0  0  0  0  0  0
    7.4238   32.0093   -2.0943 C   0  0  0  0  0  0
    9.8229   31.6454   -0.9045 Cl  0  0  0  0  0  0
    9.6981   34.7750   -0.8777 C   0  0  0  0  0  0
   10.5513   35.3682   -0.3693 N   0  0  0  0  0  0
    5.2174   30.2221   -2.4897 H   0  0  0  0  0  0
   -0.5856   35.3128   -1.4937 H   0  0  0  0  0  0
    1.0590   34.7780   -1.1410 H   0  0  0  0  0  0
    0.7457   35.7696   -2.5528 H   0  0  0  0  0  0
   -0.4980   33.9750   -3.5939 H   0  0  0  0  0  0
   -1.5316   32.8383   -1.6300 H   0  0  0  0  0  0
   -0.5996   31.6476   -2.5270 H   0  0  0  0  0  0
    0.0418   32.3247   -1.0420 H   0  0  0  0  0  0
    2.2581   31.5312   -0.4175 H   0  0  0  0  0  0
    2.7295   33.1750   -0.8894 H   0  0  0  0  0  0
    4.3789   30.7750   -0.3974 H   0  0  0  0  0  0
    4.9124   32.3750   -0.7410 H   0  0  0  0  0  0
    3.1010   30.6415   -4.1555 H   0  0  0  0  0  0
    2.9101   29.7989   -2.7410 H   0  0  0  0  0  0
    4.2542   31.8761   -5.1099 H   0  0  0  0  0  0
    5.7141   31.0001   -4.9517 H   0  0  0  0  0  0
    3.9002   33.9298   -5.8730 H   0  0  0  0  0  0
    4.7048   35.7673   -7.2584 H   0  0  0  0  0  0
    7.1097   35.9752   -7.7736 H   0  0  0  0  0  0
    8.7010   34.3621   -6.9061 H   0  0  0  0  0  0
    5.7271   34.7480   -3.1583 H   0  0  0  0  0  0
    7.6022   35.8535   -2.0416 H   0  0  0  0  0  0
    7.3670   30.9318   -2.0926 H   0  0  0  0  0  0
  1  2  1  0  0  0
  1 34  1  0  0  0
  1 35  1  0  0  0
  1 36  1  0  0  0
  2  3  1  0  0  0
  2  4  1  0  0  0
  2 37  1  0  0  0
  3 38  1  0  0  0
  3 39  1  0  0  0
  3 40  1  0  0  0
  4  5  2  0  0  0
  4  6  2  0  0  0
  4  7  1  0  0  0
  7 11  1  0  0  0
  7  8  1  0  0  0
  8  9  1  0  0  0
  8 41  1  0  0  0
  8 42  1  0  0  0
  9 10  1  0  0  0
  9 43  1  0  0  0
  9 44  1  0  0  0
 10 33  1  0  0  0
 10 11  1  0  0  0
 10 12  1  0  0  0
 11 45  1  0  0  0
 11 46  1  0  0  0
 12 13  1  0  0  0
 12 24  1  0  0  0
 13 14  1  0  0  0
 13 47  1  0  0  0
 13 48  1  0  0  0
 14 19  1  0  0  0
 14 15  2  0  0  0
 15 16  1  0  0  0
 15 49  1  0  0  0
 16 17  2  0  0  0
 16 50  1  0  0  0
 17 18  1  0  0  0
 17 51  1  0  0  0
 18 19  2  0  0  0
 18 52  1  0  0  0
 19 20  1  0  0  0
 20 21  1  0  0  0
 20 22  1  0  0  0
 20 23  1  0  0  0
 24 29  1  0  0  0
 24 25  2  0  0  0
 25 26  1  0  0  0
 25 53  1  0  0  0
 26 27  2  0  0  0
 26 54  1  0  0  0
 27 28  1  0  0  0
 27 31  1  0  0  0
 28 29  2  0  0  0
 28 30  1  0  0  0
 29 55  1  0  0  0
 31 32  3  0  0  0
M  END
> <s_m_entry_id>
36057

> <s_m_entry_name>
ligand_docking-pose.52

> <s_m_Source_Path>
/home/csk/Desktop/cluster/DUD-E-result/cp2c9

> <s_m_Source_File>
ligand_docking-pose.sdf

> <i_m_Source_File_Index>
52

> <i_lp_mmshare_version>
53161

> <r_lp_tautomer_probability>
1

> <s_lp_Force_Field>
OPLS_2005

> <r_lp_Energy>
30.911818

> <b_lp_Chiralities_Consistent>
1

> <s_lp_Variant>
590166-1

> <s_i_glide_gridfile>
glide-grid_1r9o

> <i_i_glide_lignum>
139

> <i_i_glide_rotatable_bonds>
7

> <r_i_docking_score>
-7.09657926757527

> <r_i_glide_ligand_efficiency>
-0.221768102111727

> <r_i_glide_ligand_efficiency_sa>
-0.70406983635692

> <r_i_glide_ligand_efficiency_ln>
-1.58911754345486

> <r_i_glide_gscore>
-7.09657926757527

> <r_i_glide_lipo>
-4.87717534472801

> <r_i_glide_hbond>
-0.0469881179404509

> <r_i_glide_metal>
0

> <r_i_glide_rewards>
-0.880373778018848

> <r_i_glide_evdw>
-31.5545787811279

> <r_i_glide_ecoul>
-0.963501036167145

> <r_i_glide_erotb>
0.430212067593505

> <r_i_glide_esite>
0

> <r_i_glide_emodel>
-35.9372640425327

> <r_i_glide_energy>
-32.5180798172951

> <r_i_glide_einternal>
11.3675518035889

> <i_i_glide_confnum>
224

> <i_i_glide_posenum>
290

> <r_i_glide_eff_state_penalty>
0

> <i_f3d_flags>
0

> <s_user_duplicate_titles>
590166

> <s_m_subgroup_title>
dock_pv

> <s_m_subgroupid>
dock_pv1

> <b_m_subgroup_collapsed>
0

$$$$
633365
                    3D
 Schrodinger Suite 2021-1.
 48 50  0  0  1  0            999 V2000
    4.0829   33.1737   -5.7198 C   0  0  0  0  0  0
    3.0361   33.9828   -5.2914 C   0  0  0  0  0  0
    2.4380   33.7716   -4.0494 C   0  0  0  0  0  0
    2.9064   32.7567   -3.2095 C   0  0  0  0  0  0
    3.9910   31.9701   -3.6237 C   0  0  0  0  0  0
    4.5591   32.1686   -4.8860 C   0  0  0  0  0  0
    4.6136   30.9481   -2.6905 C   0  0  0  0  0  0
    5.8062   31.5151   -2.0675 N   0  0  0  0  0  0
    7.0556   31.3359   -2.5331 C   0  0  0  0  0  0
    7.3783   30.3134   -3.1428 O   0  0  0  0  0  0
    7.9292   32.3279   -2.2245 N   0  0  0  0  0  0
    7.5213   33.7525   -2.3157 C   0  0  0  0  0  0
    8.2844   34.5358   -1.2245 C   0  0  0  0  0  0
    9.8083   34.3156   -1.2969 C   0  0  0  0  0  0
   10.1181   32.8102   -1.2939 C   0  0  0  0  0  0
    9.3684   32.0630   -2.4142 C   0  0  0  0  0  0
   10.3040   34.8245   -2.5319 O   0  0  0  0  0  0
   10.6986   36.1371   -2.6686 C   0  0  0  0  0  0
   10.6985   37.0913   -1.6393 C   0  0  0  0  0  0
   11.1002   38.3903   -1.9409 C   0  0  0  0  0  0
   11.5090   38.7757   -3.1738 N   0  0  0  0  0  0
   11.5072   37.8492   -4.1604 C   0  0  0  0  0  0
   11.1124   36.5305   -3.9435 C   0  0  0  0  0  0
    2.3527   32.5508   -1.9655 O   0  0  0  0  0  0
    0.9906   32.1268   -1.9337 C   0  0  0  0  0  0
    0.7312   31.1742   -2.8267 F   0  0  0  0  0  0
    0.7636   31.5891   -0.7412 F   0  0  0  0  0  0
    0.1571   33.1533   -2.1042 F   0  0  0  0  0  0
    4.5362   33.3375   -6.6874 H   0  0  0  0  0  0
    2.6922   34.7750   -5.9363 H   0  0  0  0  0  0
    1.6242   34.4063   -3.7324 H   0  0  0  0  0  0
    5.4032   31.5751   -5.2029 H   0  0  0  0  0  0
    3.9005   30.6123   -1.9414 H   0  0  0  0  0  0
    4.8559   30.0552   -3.2736 H   0  0  0  0  0  0
    5.6515   32.2380   -1.3800 H   0  0  0  0  0  0
    7.7996   34.1296   -3.3014 H   0  0  0  0  0  0
    6.4523   33.9049   -2.1572 H   0  0  0  0  0  0
    8.0564   35.5996   -1.2963 H   0  0  0  0  0  0
    7.8991   34.2262   -0.2561 H   0  0  0  0  0  0
   10.3144   34.7441   -0.4309 H   0  0  0  0  0  0
    9.8334   32.3642   -0.3416 H   0  0  0  0  0  0
   11.1934   32.6485   -1.3789 H   0  0  0  0  0  0
    9.5883   31.0002   -2.3182 H   0  0  0  0  0  0
    9.6782   32.4246   -3.3958 H   0  0  0  0  0  0
   10.3732   36.8678   -0.6356 H   0  0  0  0  0  0
   11.1012   39.1577   -1.1816 H   0  0  0  0  0  0
   11.8192   38.1864   -5.1397 H   0  0  0  0  0  0
   11.1089   35.8260   -4.7595 H   0  0  0  0  0  0
  1  6  1  0  0  0
  1  2  2  0  0  0
  1 29  1  0  0  0
  2  3  1  0  0  0
  2 30  1  0  0  0
  3  4  2  0  0  0
  3 31  1  0  0  0
  4  5  1  0  0  0
  4 24  1  0  0  0
  5  6  2  0  0  0
  5  7  1  0  0  0
  6 32  1  0  0  0
  7  8  1  0  0  0
  7 33  1  0  0  0
  7 34  1  0  0  0
  8  9  1  0  0  0
  8 35  1  0  0  0
  9 10  2  0  0  0
  9 11  1  0  0  0
 11 16  1  0  0  0
 11 12  1  0  0  0
 12 13  1  0  0  0
 12 36  1  0  0  0
 12 37  1  0  0  0
 13 14  1  0  0  0
 13 38  1  0  0  0
 13 39  1  0  0  0
 14 15  1  0  0  0
 14 17  1  0  0  0
 14 40  1  0  0  0
 15 16  1  0  0  0
 15 41  1  0  0  0
 15 42  1  0  0  0
 16 43  1  0  0  0
 16 44  1  0  0  0
 17 18  1  0  0  0
 18 23  1  0  0  0
 18 19  2  0  0  0
 19 20  1  0  0  0
 19 45  1  0  0  0
 20 21  2  0  0  0
 20 46  1  0  0  0
 21 22  1  0  0  0
 22 23  2  0  0  0
 22 47  1  0  0  0
 23 48  1  0  0  0
 24 25  1  0  0  0
 25 26  1  0  0  0
 25 27  1  0  0  0
 25 28  1  0  0  0
M  END
> <s_m_entry_id>
36058

> <s_m_entry_name>
ligand_docking-pose.53

> <s_m_Source_Path>
/home/csk/Desktop/cluster/DUD-E-result/cp2c9

> <s_m_Source_File>
ligand_docking-pose.sdf

> <i_m_Source_File_Index>
53

> <i_lp_mmshare_version>
53161

> <r_lp_tautomer_probability>
1

> <s_lp_Force_Field>
OPLS_2005

> <r_lp_Energy>
37.806759

> <b_lp_Chiralities_Consistent>
1

> <s_lp_Variant>
633365-1

> <s_i_glide_gridfile>
glide-grid_1r9o

> <i_i_glide_lignum>
23

> <i_i_glide_rotatable_bonds>
8

> <r_i_docking_score>
-7.0841489913146

> <r_i_glide_ligand_efficiency>
-0.253005321118379

> <r_i_glide_ligand_efficiency_sa>
-0.768273167080581

> <r_i_glide_ligand_efficiency_ln>
-1.63522958684794

> <r_i_glide_gscore>
-7.0841489913146

> <r_i_glide_lipo>
-3.34959103702351

> <r_i_glide_hbond>
-0.0247046120307753

> <r_i_glide_metal>
0

> <r_i_glide_rewards>
-2.19563850926635

> <r_i_glide_evdw>
-42.5540084838867

> <r_i_glide_ecoul>
-1.74761593341827

> <r_i_glide_erotb>
0.87562798121312

> <r_i_glide_esite>
0

> <r_i_glide_emodel>
-53.5513874854168

> <r_i_glide_energy>
-44.301624417305

> <r_i_glide_einternal>
14.6893644332886

> <i_i_glide_confnum>
187

> <i_i_glide_posenum>
175

> <r_i_glide_eff_state_penalty>
0

> <i_f3d_flags>
0

> <s_user_duplicate_titles>
633365

> <s_m_subgroup_title>
dock_pv

> <s_m_subgroupid>
dock_pv1

> <b_m_subgroup_collapsed>
0

$$$$
633366
                    3D
 Schrodinger Suite 2021-1.
 44 46  0  0  1  0            999 V2000
    0.1030   32.6938   -1.6483 C   0  0  0  0  0  0
    0.1451   34.0516   -1.9510 C   0  0  0  0  0  0
    1.0945   34.5288   -2.8520 C   0  0  0  0  0  0
    2.0135   33.6601   -3.4501 C   0  0  0  0  0  0
    1.9842   32.2956   -3.1313 C   0  0  0  0  0  0
    1.0206   31.8251   -2.2326 C   0  0  0  0  0  0
    2.9236   31.3032   -3.8160 C   0  0  0  0  0  0
    4.3499   31.5904   -3.7291 N   0  0  0  0  0  0
    5.1082   31.5720   -2.6198 C   0  0  0  0  0  0
    4.6825   31.1739   -1.5374 O   0  0  0  0  0  0
    6.3284   32.1445   -2.7744 N   0  0  0  0  0  0
    6.9644   32.4414   -4.0679 C   0  0  0  0  0  0
    8.4327   32.2612   -3.7272 C   0  0  0  0  0  0
    8.5941   32.7214   -2.2790 C   0  0  2  0  0  0
    7.2797   32.2216   -1.6622 C   0  0  0  0  0  0
    8.9930   34.1906   -2.0253 C   0  0  0  0  0  0
    9.7866   34.9029   -2.9392 C   0  0  0  0  0  0
   10.3216   36.1360   -2.5623 C   0  0  0  0  0  0
   10.0751   36.7171   -1.3624 N   0  0  0  0  0  0
    9.2379   36.0696   -0.5177 C   0  0  0  0  0  0
    8.6818   34.8230   -0.8101 C   0  0  0  0  0  0
    2.8894   34.1151   -4.4069 O   0  0  0  0  0  0
    3.9432   34.9674   -3.9696 C   0  0  0  0  0  0
    4.7199   35.1744   -5.0266 F   0  0  0  0  0  0
    3.5010   36.1377   -3.5411 F   0  0  0  0  0  0
    4.6954   34.4324   -3.0186 F   0  0  0  0  0  0
   -0.6438   32.3146   -0.9650 H   0  0  0  0  0  0
   -0.5644   34.7292   -1.4985 H   0  0  0  0  0  0
    1.0955   35.5755   -3.1066 H   0  0  0  0  0  0
    0.9522   30.7771   -2.0031 H   0  0  0  0  0  0
    2.7235   30.2739   -3.5122 H   0  0  0  0  0  0
    2.7173   31.3850   -4.8842 H   0  0  0  0  0  0
    4.7589   32.0087   -4.5502 H   0  0  0  0  0  0
    6.7047   31.7454   -4.8679 H   0  0  0  0  0  0
    6.8201   33.4901   -4.3317 H   0  0  0  0  0  0
    8.6859   31.2015   -3.7741 H   0  0  0  0  0  0
    9.1032   32.7038   -4.4536 H   0  0  0  0  0  0
    9.4452   32.2032   -1.8336 H   0  0  0  0  0  0
    6.9376   32.7522   -0.7757 H   0  0  0  0  0  0
    7.4636   31.1903   -1.3586 H   0  0  0  0  0  0
    9.9941   34.5384   -3.9364 H   0  0  0  0  0  0
   10.9333   36.7004   -3.2512 H   0  0  0  0  0  0
    9.0239   36.5640    0.4188 H   0  0  0  0  0  0
    8.0318   34.3749   -0.0783 H   0  0  0  0  0  0
  1  6  1  0  0  0
  1  2  2  0  0  0
  1 27  1  0  0  0
  2  3  1  0  0  0
  2 28  1  0  0  0
  3  4  2  0  0  0
  3 29  1  0  0  0
  4  5  1  0  0  0
  4 22  1  0  0  0
  5  6  2  0  0  0
  5  7  1  0  0  0
  6 30  1  0  0  0
  7  8  1  0  0  0
  7 31  1  0  0  0
  7 32  1  0  0  0
  8  9  1  0  0  0
  8 33  1  0  0  0
  9 10  2  0  0  0
  9 11  1  0  0  0
 11 15  1  0  0  0
 11 12  1  0  0  0
 12 13  1  0  0  0
 12 34  1  0  0  0
 12 35  1  0  0  0
 13 14  1  0  0  0
 13 36  1  0  0  0
 13 37  1  0  0  0
 14 15  1  0  0  0
 14 16  1  0  0  0
 14 38  1  0  0  0
 15 39  1  0  0  0
 15 40  1  0  0  0
 16 21  1  0  0  0
 16 17  2  0  0  0
 17 18  1  0  0  0
 17 41  1  0  0  0
 18 19  2  0  0  0
 18 42  1  0  0  0
 19 20  1  0  0  0
 20 21  2  0  0  0
 20 43  1  0  0  0
 21 44  1  0  0  0
 22 23  1  0  0  0
 23 24  1  0  0  0
 23 25  1  0  0  0
 23 26  1  0  0  0
M  END
> <s_m_entry_id>
36059

> <s_m_entry_name>
ligand_docking-pose.54

> <s_m_Source_Path>
/home/csk/Desktop/cluster/DUD-E-result/cp2c9

> <s_m_Source_File>
ligand_docking-pose.sdf

> <i_m_Source_File_Index>
54

> <i_lp_mmshare_version>
53161

> <r_lp_tautomer_probability>
1

> <s_lp_Force_Field>
OPLS_2005

> <r_lp_Energy>
40.787448

> <b_lp_Chiralities_Consistent>
1

> <s_lp_Variant>
633366-2

> <s_i_glide_gridfile>
glide-grid_1r9o

> <i_i_glide_lignum>
22

> <i_i_glide_rotatable_bonds>
7

> <r_i_docking_score>
-7.0662922758617

> <r_i_glide_ligand_efficiency>
-0.271780472148527

> <r_i_glide_ligand_efficiency_sa>
-0.805148579335493

> <r_i_glide_ligand_efficiency_ln>
-1.65949555459

> <r_i_glide_gscore>
-7.0662922758617

> <r_i_glide_lipo>
-3.99048485951072

> <r_i_glide_hbond>
0

> <r_i_glide_metal>
0

> <r_i_glide_rewards>
-2.39481315747313

> <r_i_glide_evdw>
-31.35666847229

> <r_i_glide_ecoul>
0.148074477910995

> <r_i_glide_erotb>
0.864627993050007

> <r_i_glide_esite>
0

> <r_i_glide_emodel>
-37.8799284092935

> <r_i_glide_energy>
-31.208593994379

> <r_i_glide_einternal>
10.4214820861816

> <i_i_glide_confnum>
93

> <i_i_glide_posenum>
332

> <r_i_glide_eff_state_penalty>
0

> <i_f3d_flags>
0

> <s_user_duplicate_titles>
633366

> <s_m_subgroup_title>
dock_pv

> <s_m_subgroupid>
dock_pv1

> <b_m_subgroup_collapsed>
0

$$$$
422712
                    3D
 Schrodinger Suite 2021-1.
 58 61  0  0  1  0            999 V2000
    4.3043   35.6965   -3.5405 C   0  0  0  0  0  0
    3.7624   34.3933   -4.1479 C   0  0  0  0  0  0
    3.6152   34.6175   -5.6780 C   0  0  0  0  0  0
    4.6956   33.2044   -3.9161 C   0  0  0  0  0  0
    4.2516   31.9608   -4.3112 C   0  0  0  0  0  0
    4.9984   30.8269   -4.0193 C   0  0  0  0  0  0
    4.4729   29.5716   -4.3339 C   0  0  0  0  0  0
    5.2296   28.4296   -4.0915 C   0  0  0  0  0  0
    6.4940   28.5838   -3.5419 C   0  0  0  0  0  0
    7.0153   29.7878   -3.2228 N   0  0  0  0  0  0
    6.2958   30.9282   -3.4287 C   0  0  0  0  0  0
    6.8069   32.2313   -3.0704 C   0  0  0  0  0  0
    5.9441   33.3151   -3.3030 C   0  0  0  0  0  0
    8.1475   32.5094   -2.4166 C   0  0  0  0  0  0
    8.9676   31.5133   -1.8687 C   0  0  0  0  0  0
   10.1137   31.8025   -1.1441 C   0  0  0  0  0  0
   10.5136   33.1118   -0.9683 C   0  0  0  0  0  0
    9.7932   34.1251   -1.5813 C   0  0  0  0  0  0
    8.6418   33.8209   -2.3040 C   0  0  0  0  0  0
   10.2654   35.5046   -1.5270 C   0  0  0  0  0  0
   10.2452   36.2311   -0.3340 C   0  0  0  0  0  0
   10.6488   37.5618   -0.3345 C   0  0  0  0  0  0
   11.1010   38.1440   -1.5150 C   0  0  0  0  0  0
   11.2055   37.3955   -2.6791 C   0  0  0  0  0  0
   10.7331   36.0903   -2.7020 C   0  0  0  0  0  0
   11.7689   38.2339   -4.1292 S   0  0  0  0  0  0
   10.7009   39.1749   -4.3399 O   0  0  0  0  0  0
   13.1010   38.7728   -3.8783 O   0  0  0  0  0  0
   11.7818   37.0066   -5.5576 C   0  0  0  0  0  0
    2.0404   34.0158   -3.3332 S   0  0  0  0  0  0
    1.2352   33.2727   -4.3064 O   0  0  0  0  0  0
    1.4991   35.2409   -2.7411 O   0  0  0  0  0  0
    2.3658   32.8456   -1.8850 C   0  0  0  0  0  0
    5.2330   35.9747   -4.0322 H   0  0  0  0  0  0
    3.5968   36.5192   -3.6408 H   0  0  0  0  0  0
    4.5531   35.5751   -2.4919 H   0  0  0  0  0  0
    4.5955   34.6893   -6.1519 H   0  0  0  0  0  0
    3.1008   33.7913   -6.1655 H   0  0  0  0  0  0
    3.1012   35.5391   -5.9405 H   0  0  0  0  0  0
    3.2912   31.8429   -4.7934 H   0  0  0  0  0  0
    3.5046   29.5237   -4.8042 H   0  0  0  0  0  0
    4.8553   27.4453   -4.3359 H   0  0  0  0  0  0
    7.1086   27.7195   -3.3316 H   0  0  0  0  0  0
    6.2369   34.2917   -2.9767 H   0  0  0  0  0  0
    8.7573   30.4691   -1.9416 H   0  0  0  0  0  0
   10.6983   30.9923   -0.7406 H   0  0  0  0  0  0
   11.4048   33.3229   -0.3961 H   0  0  0  0  0  0
    8.1505   34.6574   -2.7707 H   0  0  0  0  0  0
    9.8833   35.7787    0.5788 H   0  0  0  0  0  0
   10.5977   38.1507    0.5688 H   0  0  0  0  0  0
   11.3811   39.1878   -1.5334 H   0  0  0  0  0  0
   10.7270   35.5193   -3.6170 H   0  0  0  0  0  0
   11.9013   37.5733   -6.4796 H   0  0  0  0  0  0
   12.5966   36.2963   -5.4293 H   0  0  0  0  0  0
   10.8204   36.5001   -5.6052 H   0  0  0  0  0  0
    1.4906   32.8614   -1.2367 H   0  0  0  0  0  0
    3.2431   33.1790   -1.3344 H   0  0  0  0  0  0
    2.5202   31.8376   -2.2631 H   0  0  0  0  0  0
  1  2  1  0  0  0
  1 34  1  0  0  0
  1 35  1  0  0  0
  1 36  1  0  0  0
  2  3  1  0  0  0
  2  4  1  0  0  0
  2 30  1  0  0  0
  3 37  1  0  0  0
  3 38  1  0  0  0
  3 39  1  0  0  0
  4 13  1  0  0  0
  4  5  2  0  0  0
  5  6  1  0  0  0
  5 40  1  0  0  0
  6 11  2  0  0  0
  6  7  1  0  0  0
  7  8  2  0  0  0
  7 41  1  0  0  0
  8  9  1  0  0  0
  8 42  1  0  0  0
  9 10  2  0  0  0
  9 43  1  0  0  0
 10 11  1  0  0  0
 11 12  1  0  0  0
 12 13  2  0  0  0
 12 14  1  0  0  0
 13 44  1  0  0  0
 14 19  1  0  0  0
 14 15  2  0  0  0
 15 16  1  0  0  0
 15 45  1  0  0  0
 16 17  2  0  0  0
 16 46  1  0  0  0
 17 18  1  0  0  0
 17 47  1  0  0  0
 18 19  2  0  0  0
 18 20  1  0  0  0
 19 48  1  0  0  0
 20 25  1  0  0  0
 20 21  2  0  0  0
 21 22  1  0  0  0
 21 49  1  0  0  0
 22 23  2  0  0  0
 22 50  1  0  0  0
 23 24  1  0  0  0
 23 51  1  0  0  0
 24 25  2  0  0  0
 24 26  1  0  0  0
 25 52  1  0  0  0
 26 27  2  0  0  0
 26 28  2  0  0  0
 26 29  1  0  0  0
 29 53  1  0  0  0
 29 54  1  0  0  0
 29 55  1  0  0  0
 30 31  2  0  0  0
 30 32  2  0  0  0
 30 33  1  0  0  0
 33 56  1  0  0  0
 33 57  1  0  0  0
 33 58  1  0  0  0
M  END
> <s_m_entry_id>
36060

> <s_m_entry_name>
ligand_docking-pose.55

> <s_m_Source_Path>
/home/csk/Desktop/cluster/DUD-E-result/cp2c9

> <s_m_Source_File>
ligand_docking-pose.sdf

> <i_m_Source_File_Index>
55

> <i_lp_mmshare_version>
53161

> <r_lp_tautomer_probability>
1

> <s_lp_Force_Field>
OPLS_2005

> <r_lp_Energy>
24.397728

> <b_lp_Chiralities_Consistent>
1

> <s_lp_Variant>
422712-1

> <s_i_glide_gridfile>
glide-grid_1r9o

> <i_i_glide_lignum>
99

> <i_i_glide_rotatable_bonds>
5

> <r_i_docking_score>
-7.04274589528727

> <r_i_glide_ligand_efficiency>
-0.213416542281432

> <r_i_glide_ligand_efficiency_sa>
-0.684540885158866

> <r_i_glide_ligand_efficiency_ln>
-1.56627022172523

> <r_i_glide_gscore>
-7.04274589528727

> <r_i_glide_lipo>
-4.59506580485694

> <r_i_glide_hbond>
0

> <r_i_glide_metal>
0

> <r_i_glide_rewards>
-0.436289284293809

> <r_i_glide_evdw>
-35.7755584716797

> <r_i_glide_ecoul>
-2.79299831390381

> <r_i_glide_erotb>
0.264398066725208

> <r_i_glide_esite>
-0.068061202192178

> <r_i_glide_emodel>
-33.9196303286693

> <r_i_glide_energy>
-38.5685567855835

> <r_i_glide_einternal>
25.2761745452881

> <i_i_glide_confnum>
3

> <i_i_glide_posenum>
385

> <r_i_glide_eff_state_penalty>
0

> <i_f3d_flags>
0

> <s_user_duplicate_titles>
422712

> <s_m_subgroup_title>
dock_pv

> <s_m_subgroupid>
dock_pv1

> <b_m_subgroup_collapsed>
0

$$$$
465846
                    3D
 Schrodinger Suite 2021-1.
 39 41  0  0  1  0            999 V2000
    4.9895   32.7753   -7.0982 C   0  0  0  0  0  0
    4.6024   34.1945   -6.6561 C   0  0  0  0  0  0
    5.0331   34.5403   -5.2228 C   0  0  0  0  0  0
    4.3293   33.7397   -4.1345 C   0  0  0  0  0  0
    4.8536   32.7829   -3.3259 C   0  0  0  0  0  0
    4.0158   32.1114   -2.3237 C   0  0  0  0  0  0
    4.4166   31.2496   -1.5417 O   0  0  0  0  0  0
    2.5868   32.5494   -2.3334 C   0  0  0  0  0  0
    1.6286   31.9650   -1.4958 C   0  0  0  0  0  0
    0.2966   32.3706   -1.5411 C   0  0  0  0  0  0
   -0.0886   33.4218   -2.3611 C   0  0  0  0  0  0
    0.8461   33.9987   -3.2174 C   0  0  0  0  0  0
    2.1707   33.5627   -3.2026 C   0  0  0  0  0  0
    3.0414   34.1719   -4.0757 O   0  0  0  0  0  0
    6.2365   32.3504   -3.5346 C   0  0  0  0  0  0
    6.4420   31.3804   -4.2658 O   0  0  0  0  0  0
    7.3582   33.0245   -2.7989 C   0  0  0  0  0  0
    7.2329   34.3049   -2.2384 C   0  0  0  0  0  0
    8.2948   34.8919   -1.5351 C   0  0  0  0  0  0
    9.5052   34.2155   -1.4262 C   0  0  0  0  0  0
    9.6574   32.9665   -2.0238 C   0  0  0  0  0  0
    8.5916   32.3717   -2.6952 C   0  0  0  0  0  0
   11.4853   31.9752   -1.9410 I   0  0  0  0  0  0
   10.5353   34.7828   -0.7217 O   0  0  0  0  0  0
    8.1113   36.7747   -0.6212 I   0  0  0  0  0  0
    4.7104   32.6001   -8.1378 H   0  0  0  0  0  0
    6.0652   32.6182   -7.0148 H   0  0  0  0  0  0
    4.4923   32.0176   -6.4916 H   0  0  0  0  0  0
    3.5231   34.3264   -6.7412 H   0  0  0  0  0  0
    5.0574   34.9127   -7.3403 H   0  0  0  0  0  0
    4.7827   35.5750   -5.0212 H   0  0  0  0  0  0
    6.1178   34.4820   -5.1399 H   0  0  0  0  0  0
    1.8994   31.1797   -0.8052 H   0  0  0  0  0  0
   -0.4330   31.8985   -0.8976 H   0  0  0  0  0  0
   -1.1125   33.7662   -2.3413 H   0  0  0  0  0  0
    0.5352   34.7750   -3.8932 H   0  0  0  0  0  0
    6.3022   34.8371   -2.3415 H   0  0  0  0  0  0
    8.7238   31.3899   -3.1280 H   0  0  0  0  0  0
   10.2417   35.1302    0.1246 H   0  0  0  0  0  0
  1  2  1  0  0  0
  1 26  1  0  0  0
  1 27  1  0  0  0
  1 28  1  0  0  0
  2  3  1  0  0  0
  2 29  1  0  0  0
  2 30  1  0  0  0
  3  4  1  0  0  0
  3 31  1  0  0  0
  3 32  1  0  0  0
  4 14  1  0  0  0
  4  5  2  0  0  0
  5  6  1  0  0  0
  5 15  1  0  0  0
  6  7  2  0  0  0
  6  8  1  0  0  0
  8 13  2  0  0  0
  8  9  1  0  0  0
  9 10  2  0  0  0
  9 33  1  0  0  0
 10 11  1  0  0  0
 10 34  1  0  0  0
 11 12  2  0  0  0
 11 35  1  0  0  0
 12 13  1  0  0  0
 12 36  1  0  0  0
 13 14  1  0  0  0
 15 16  2  0  0  0
 15 17  1  0  0  0
 17 22  1  0  0  0
 17 18  2  0  0  0
 18 19  1  0  0  0
 18 37  1  0  0  0
 19 20  2  0  0  0
 19 25  1  0  0  0
 20 21  1  0  0  0
 20 24  1  0  0  0
 21 22  2  0  0  0
 21 23  1  0  0  0
 22 38  1  0  0  0
 24 39  1  0  0  0
M  END
> <s_m_entry_id>
36062

> <s_m_entry_name>
ligand_docking-pose.57

> <s_m_Source_Path>
/home/csk/Desktop/cluster/DUD-E-result/cp2c9

> <s_m_Source_File>
ligand_docking-pose.sdf

> <i_m_Source_File_Index>
57

> <i_lp_mmshare_version>
53161

> <r_lp_tautomer_probability>
1

> <s_lp_Force_Field>
OPLS_2005

> <r_lp_Energy>
21.068994

> <b_lp_Chiralities_Consistent>
1

> <s_lp_Variant>
465846-1

> <s_i_glide_gridfile>
glide-grid_1r9o

> <i_i_glide_lignum>
108

> <i_i_glide_rotatable_bonds>
5

> <r_i_docking_score>
-7.00141570963618

> <r_i_glide_ligand_efficiency>
-0.280056628385447

> <r_i_glide_ligand_efficiency_sa>
-0.8188905482245

> <r_i_glide_ligand_efficiency_ln>
-1.65954533868152

> <r_i_glide_gscore>
-7.00141570963618

> <r_i_glide_lipo>
-4.71619554647155

> <r_i_glide_hbond>
-0.0930626241397985

> <r_i_glide_metal>
0

> <r_i_glide_rewards>
-0.212153791049874

> <r_i_glide_evdw>
-38.2950706481934

> <r_i_glide_ecoul>
-1.22906935214996

> <r_i_glide_erotb>
0.11911018725721

> <r_i_glide_esite>
0

> <r_i_glide_emodel>
-49.6395739502699

> <r_i_glide_energy>
-39.5241400003433

> <r_i_glide_einternal>
3.68416738510132

> <i_i_glide_confnum>
5

> <i_i_glide_posenum>
207

> <r_i_glide_eff_state_penalty>
0

> <i_f3d_flags>
0

> <s_user_duplicate_titles>
465846

> <s_m_subgroup_title>
dock_pv

> <s_m_subgroupid>
dock_pv1

> <b_m_subgroup_collapsed>
0

$$$$
422717
                    3D
 Schrodinger Suite 2021-1.
 51 54  0  0  1  0            999 V2000
    4.2084   35.6138   -3.7803 C   0  0  0  0  0  0
    3.6631   34.2352   -4.2116 C   0  0  0  0  0  0
    3.4011   34.3294   -5.7271 C   0  0  0  0  0  0
    4.6472   33.0869   -3.9481 C   0  0  0  0  0  0
    4.2517   31.7800   -4.2044 C   0  0  0  0  0  0
    5.1174   30.7050   -3.9410 C   0  0  0  0  0  0
    4.7021   29.3751   -4.1532 C   0  0  0  0  0  0
    5.5975   28.3363   -3.9503 C   0  0  0  0  0  0
    6.8866   28.6383   -3.5402 C   0  0  0  0  0  0
    7.3126   29.9017   -3.3017 N   0  0  0  0  0  0
    6.4490   30.9468   -3.4790 C   0  0  0  0  0  0
    6.8610   32.2984   -3.2209 C   0  0  0  0  0  0
    5.9327   33.3145   -3.4585 C   0  0  0  0  0  0
    8.1767   32.6957   -2.6229 C   0  0  0  0  0  0
    8.8021   31.8935   -1.6650 C   0  0  0  0  0  0
    9.8932   32.3477   -0.9437 C   0  0  0  0  0  0
   10.3416   33.6438   -1.1352 C   0  0  0  0  0  0
    9.8152   34.4517   -2.1422 C   0  0  0  0  0  0
    8.7565   33.9484   -2.9029 C   0  0  0  0  0  0
   10.3595   35.8155   -2.3649 C   0  0  0  0  0  0
   10.4811   36.7192   -1.3021 C   0  0  0  0  0  0
   11.0353   37.9750   -1.5415 C   0  0  0  0  0  0
   11.5010   38.3627   -2.7562 N   0  0  0  0  0  0
   11.3832   37.4880   -3.7836 C   0  0  0  0  0  0
   10.8007   36.2267   -3.6307 C   0  0  0  0  0  0
    1.9828   33.9370   -3.2892 S   0  0  0  0  0  0
    1.1020   33.1751   -4.1788 O   0  0  0  0  0  0
    1.5010   35.2052   -2.7409 O   0  0  0  0  0  0
    2.3586   32.8270   -1.8098 C   0  0  0  0  0  0
    5.1081   35.8692   -4.3357 H   0  0  0  0  0  0
    3.5009   36.4244   -3.9419 H   0  0  0  0  0  0
    4.4746   35.6175   -2.7335 H   0  0  0  0  0  0
    4.3170   34.5383   -6.2840 H   0  0  0  0  0  0
    2.9985   33.3997   -6.1203 H   0  0  0  0  0  0
    2.7009   35.1293   -5.9447 H   0  0  0  0  0  0
    3.2624   31.5702   -4.5879 H   0  0  0  0  0  0
    3.7265   29.1902   -4.5583 H   0  0  0  0  0  0
    5.3067   27.3107   -4.1307 H   0  0  0  0  0  0
    7.6048   27.8478   -3.3723 H   0  0  0  0  0  0
    6.2297   34.3218   -3.2190 H   0  0  0  0  0  0
    8.3918   30.9371   -1.3886 H   0  0  0  0  0  0
   10.3009   31.7253   -0.1635 H   0  0  0  0  0  0
   11.1104   34.0150   -0.4808 H   0  0  0  0  0  0
    8.3350   34.5765   -3.6720 H   0  0  0  0  0  0
   10.1360   36.4595   -0.3104 H   0  0  0  0  0  0
   11.1006   38.7048   -0.7471 H   0  0  0  0  0  0
   11.7401   37.8226   -4.7480 H   0  0  0  0  0  0
   10.7126   35.5752   -4.4843 H   0  0  0  0  0  0
    1.5061   32.8702   -1.1313 H   0  0  0  0  0  0
    3.2547   33.1806   -1.3053 H   0  0  0  0  0  0
    2.4980   31.8034   -2.1520 H   0  0  0  0  0  0
  1  2  1  0  0  0
  1 30  1  0  0  0
  1 31  1  0  0  0
  1 32  1  0  0  0
  2  3  1  0  0  0
  2  4  1  0  0  0
  2 26  1  0  0  0
  3 33  1  0  0  0
  3 34  1  0  0  0
  3 35  1  0  0  0
  4 13  1  0  0  0
  4  5  2  0  0  0
  5  6  1  0  0  0
  5 36  1  0  0  0
  6 11  2  0  0  0
  6  7  1  0  0  0
  7  8  2  0  0  0
  7 37  1  0  0  0
  8  9  1  0  0  0
  8 38  1  0  0  0
  9 10  2  0  0  0
  9 39  1  0  0  0
 10 11  1  0  0  0
 11 12  1  0  0  0
 12 13  2  0  0  0
 12 14  1  0  0  0
 13 40  1  0  0  0
 14 19  1  0  0  0
 14 15  2  0  0  0
 15 16  1  0  0  0
 15 41  1  0  0  0
 16 17  2  0  0  0
 16 42  1  0  0  0
 17 18  1  0  0  0
 17 43  1  0  0  0
 18 19  2  0  0  0
 18 20  1  0  0  0
 19 44  1  0  0  0
 20 25  1  0  0  0
 20 21  2  0  0  0
 21 22  1  0  0  0
 21 45  1  0  0  0
 22 23  2  0  0  0
 22 46  1  0  0  0
 23 24  1  0  0  0
 24 25  2  0  0  0
 24 47  1  0  0  0
 25 48  1  0  0  0
 26 27  2  0  0  0
 26 28  2  0  0  0
 26 29  1  0  0  0
 29 49  1  0  0  0
 29 50  1  0  0  0
 29 51  1  0  0  0
M  END
> <s_m_entry_id>
36063

> <s_m_entry_name>
ligand_docking-pose.58

> <s_m_Source_Path>
/home/csk/Desktop/cluster/DUD-E-result/cp2c9

> <s_m_Source_File>
ligand_docking-pose.sdf

> <i_m_Source_File_Index>
58

> <i_lp_mmshare_version>
53161

> <r_lp_tautomer_probability>
1

> <s_lp_Force_Field>
OPLS_2005

> <r_lp_Energy>
24.230938

> <b_lp_Chiralities_Consistent>
1

> <s_lp_Variant>
422717-1

> <s_i_glide_gridfile>
glide-grid_1r9o

> <i_i_glide_lignum>
101

> <i_i_glide_rotatable_bonds>
4

> <r_i_docking_score>
-6.93650240813788

> <r_i_glide_ligand_efficiency>
-0.239189738211651

> <r_i_glide_ligand_efficiency_sa>
-0.734866656414211

> <r_i_glide_ligand_efficiency_ln>
-1.5882831569391

> <r_i_glide_gscore>
-6.93650240813788

> <r_i_glide_lipo>
-4.15617382316476

> <r_i_glide_hbond>
0

> <r_i_glide_metal>
0

> <r_i_glide_rewards>
-0.933067398156441

> <r_i_glide_evdw>
-39.0769081115723

> <r_i_glide_ecoul>
-1.71200287342072

> <r_i_glide_erotb>
0.363384649775045

> <r_i_glide_esite>
0

> <r_i_glide_emodel>
-50.7796614150856

> <r_i_glide_energy>
-40.788910984993

> <r_i_glide_einternal>
9.84164810180664

> <i_i_glide_confnum>
2

> <i_i_glide_posenum>
400

> <r_i_glide_eff_state_penalty>
0

> <i_f3d_flags>
0

> <s_user_duplicate_titles>
422717

> <s_m_subgroup_title>
dock_pv

> <s_m_subgroupid>
dock_pv1

> <b_m_subgroup_collapsed>
0

$$$$
617182
                    3D
 Schrodinger Suite 2021-1.
 61 64  0  0  1  0            999 V2000
    7.7313   37.1285    1.4386 C   0  0  0  0  0  0
    8.5828   36.6994    0.2556 C   0  0  0  0  0  0
    9.8893   36.0620    0.7366 C   0  0  0  0  0  0
   10.8075   35.6204   -0.3999 C   0  0  0  0  0  0
   10.2110   34.5145   -1.2588 C   0  0  0  0  0  0
    9.5273   34.8340   -2.4328 C   0  0  0  0  0  0
    8.8585   33.8379   -3.1390 C   0  0  0  0  0  0
    8.8921   32.5208   -2.6764 C   0  0  0  0  0  0
    9.6307   32.1905   -1.5356 C   0  0  0  0  0  0
   10.3003   33.1893   -0.8386 C   0  0  0  0  0  0
    7.9006   31.2655   -3.4767 S   0  0  0  0  0  0
    7.6748   31.6664   -4.8696 O   0  0  0  0  0  0
    8.4665   29.9558   -3.1412 O   0  0  0  0  0  0
    6.3714   31.3204   -2.6069 N   0  0  0  0  0  0
    5.2150   32.0035   -2.9974 C   0  0  0  0  0  0
    5.1680   33.0491   -3.9225 C   0  0  0  0  0  0
    3.9377   33.5850   -4.3021 C   0  0  0  0  0  0
    2.7353   33.1014   -3.7627 C   0  0  0  0  0  0
    2.7956   32.0938   -2.7802 C   0  0  0  0  0  0
    4.0353   31.5670   -2.4167 C   0  0  0  0  0  0
    1.5453   31.5572   -2.1111 C   0  0  0  0  0  0
    0.6923   32.5740   -1.3764 C   0  0  0  0  0  0
   -0.1954   33.3568   -2.2110 N   0  0  2  0  0  0
    0.3888   34.2110   -3.2476 C   0  0  0  0  0  0
    1.3903   33.6151   -4.2705 C   0  0  0  0  0  0
   -1.4976   33.6955   -1.6084 C   0  0  0  0  0  0
   -1.6812   35.1482   -1.2135 C   0  0  0  0  0  0
   -1.6004   36.3192   -1.9338 C   0  0  0  0  0  0
   -1.9715   37.3545   -1.0744 C   0  0  0  0  0  0
   -2.2693   36.9028    0.1191 N   0  0  0  0  0  0
   -2.1120   35.5768    0.0153 N   0  0  0  0  0  0
   -2.2133   34.9688    0.8259 H   0  0  0  0  0  0
    6.7953   37.5755    1.1055 H   0  0  0  0  0  0
    8.2955   37.8436    2.0455 H   0  0  0  0  0  0
    7.4745   36.2702    2.0585 H   0  0  0  0  0  0
    8.0119   35.9986   -0.3540 H   0  0  0  0  0  0
    8.8065   37.5660   -0.3707 H   0  0  0  0  0  0
   10.4291   36.7732    1.3574 H   0  0  0  0  0  0
    9.6752   35.2115    1.3848 H   0  0  0  0  0  0
   11.0952   36.4701   -1.0182 H   0  0  0  0  0  0
   11.7175   35.2731    0.0780 H   0  0  0  0  0  0
    9.4792   35.8618   -2.7636 H   0  0  0  0  0  0
    8.2968   34.0991   -4.0248 H   0  0  0  0  0  0
    9.6531   31.1751   -1.1611 H   0  0  0  0  0  0
   10.8060   32.9461    0.0828 H   0  0  0  0  0  0
    6.2761   30.6322   -1.8761 H   0  0  0  0  0  0
    6.0678   33.4380   -4.3722 H   0  0  0  0  0  0
    3.9226   34.3607   -5.0528 H   0  0  0  0  0  0
    4.0842   30.7762   -1.6821 H   0  0  0  0  0  0
    0.9556   30.9711   -2.8178 H   0  0  0  0  0  0
    1.8540   30.8418   -1.3524 H   0  0  0  0  0  0
    1.2906   33.2212   -0.7410 H   0  0  0  0  0  0
    0.0736   31.9736   -0.7092 H   0  0  0  0  0  0
    0.7996   35.1164   -2.7960 H   0  0  0  0  0  0
   -0.4604   34.5553   -3.8406 H   0  0  0  0  0  0
    1.5872   34.3749   -5.0211 H   0  0  0  0  0  0
    0.9478   32.8160   -4.8562 H   0  0  0  0  0  0
   -2.2547   33.4405   -2.3438 H   0  0  0  0  0  0
   -1.7228   33.0400   -0.7675 H   0  0  0  0  0  0
   -1.2989   36.3766   -2.9583 H   0  0  0  0  0  0
   -2.0070   38.4060   -1.3138 H   0  0  0  0  0  0
  1  2  1  0  0  0
  1 33  1  0  0  0
  1 34  1  0  0  0
  1 35  1  0  0  0
  2  3  1  0  0  0
  2 36  1  0  0  0
  2 37  1  0  0  0
  3  4  1  0  0  0
  3 38  1  0  0  0
  3 39  1  0  0  0
  4  5  1  0  0  0
  4 40  1  0  0  0
  4 41  1  0  0  0
  5 10  1  0  0  0
  5  6  2  0  0  0
  6  7  1  0  0  0
  6 42  1  0  0  0
  7  8  2  0  0  0
  7 43  1  0  0  0
  8  9  1  0  0  0
  8 11  1  0  0  0
  9 10  2  0  0  0
  9 44  1  0  0  0
 10 45  1  0  0  0
 11 12  2  0  0  0
 11 13  2  0  0  0
 11 14  1  0  0  0
 14 15  1  0  0  0
 14 46  1  0  0  0
 15 20  1  0  0  0
 15 16  2  0  0  0
 16 17  1  0  0  0
 16 47  1  0  0  0
 17 18  2  0  0  0
 17 48  1  0  0  0
 18 25  1  0  0  0
 18 19  1  0  0  0
 19 20  2  0  0  0
 19 21  1  0  0  0
 20 49  1  0  0  0
 21 22  1  0  0  0
 21 50  1  0  0  0
 21 51  1  0  0  0
 22 23  1  0  0  0
 22 52  1  0  0  0
 22 53  1  0  0  0
 23 24  1  0  0  0
 23 26  1  0  0  0
 24 25  1  0  0  0
 24 54  1  0  0  0
 24 55  1  0  0  0
 25 56  1  0  0  0
 25 57  1  0  0  0
 26 58  1  0  0  0
 26 59  1  0  0  0
 26 27  1  0  0  0
 27 31  1  0  0  0
 27 28  2  0  0  0
 28 29  1  0  0  0
 28 60  1  0  0  0
 29 61  1  0  0  0
 29 30  2  0  0  0
 30 31  1  0  0  0
 31 32  1  0  0  0
M  END
> <s_m_entry_id>
36064

> <s_m_entry_name>
ligand_docking-pose.59

> <s_m_Source_Path>
/home/csk/Desktop/cluster/DUD-E-result/cp2c9

> <s_m_Source_File>
ligand_docking-pose.sdf

> <i_m_Source_File_Index>
59

> <i_lp_mmshare_version>
53161

> <r_lp_tautomer_probability>
0.5

> <s_lp_Force_Field>
OPLS_2005

> <r_lp_Energy>
23.938749

> <b_lp_Chiralities_Consistent>
1

> <s_lp_Variant>
617182-2

> <s_i_glide_gridfile>
glide-grid_1r9o

> <i_i_glide_lignum>
115

> <i_i_glide_rotatable_bonds>
8

> <r_i_docking_score>
-6.93369534974438

> <r_i_glide_ligand_efficiency>
-0.223667591927238

> <r_i_glide_ligand_efficiency_sa>
-0.702625045042931

> <r_i_glide_ligand_efficiency_ln>
-1.56376079361047

> <r_i_glide_gscore>
-6.93369534974438

> <r_i_glide_lipo>
-5.19697281381985

> <r_i_glide_hbond>
-0.144324408387033

> <r_i_glide_metal>
0

> <r_i_glide_rewards>
-0.987563810456928

> <r_i_glide_evdw>
-40.4594612121582

> <r_i_glide_ecoul>
4.61407327651978

> <r_i_glide_erotb>
0.726027752049371

> <r_i_glide_esite>
0

> <r_i_glide_emodel>
-30.5867306206956

> <r_i_glide_energy>
-35.8453879356384

> <r_i_glide_einternal>
20.0474472045898

> <i_i_glide_confnum>
57

> <i_i_glide_posenum>
129

> <r_i_glide_eff_state_penalty>
0

> <i_f3d_flags>
0

> <s_user_duplicate_titles>
617182

> <s_m_subgroup_title>
dock_pv

> <s_m_subgroupid>
dock_pv1

> <b_m_subgroup_collapsed>
0

$$$$
590200
                    3D
 Schrodinger Suite 2021-1.
 49 51  0  0  1  0            999 V2000
    8.3031   31.8353   -5.4608 C   0  0  0  0  0  0
    7.1227   32.7117   -5.8524 C   0  0  0  0  0  0
    7.4147   33.9085   -6.5142 C   0  0  0  0  0  0
    6.4005   34.7745   -6.9044 C   0  0  0  0  0  0
    5.0766   34.4238   -6.6854 C   0  0  0  0  0  0
    4.7664   33.2291   -6.0446 C   0  0  0  0  0  0
    5.7775   32.3861   -5.5666 C   0  0  0  0  0  0
    5.3721   31.1882   -4.6843 C   0  0  0  0  0  0
    5.1787   31.5545   -3.2738 N   0  0  0  0  0  0
    6.2131   32.3394   -2.7323 C   0  0  0  0  0  0
    6.1213   33.7312   -2.7387 C   0  0  0  0  0  0
    7.2020   34.5005   -2.3318 C   0  0  0  0  0  0
    8.3748   33.8989   -1.8756 C   0  0  0  0  0  0
    8.4730   32.4974   -1.8591 C   0  0  0  0  0  0
    7.3943   31.7290   -2.3030 C   0  0  0  0  0  0
    9.8887   31.6779   -1.2859 Cl  0  0  0  0  0  0
    9.4514   34.7672   -1.4224 C   0  0  0  0  0  0
   10.3010   35.4632   -1.0627 N   0  0  0  0  0  0
    3.8070   31.5910   -2.7415 C   0  0  1  0  0  0
    3.6459   31.9744   -1.2691 C   0  0  0  0  0  0
    2.1819   32.3947   -1.1409 C   0  0  0  0  0  0
    1.8432   32.8798   -2.4759 N   0  0  0  0  0  0
    2.8387   32.5204   -3.4773 C   0  0  0  0  0  0
    0.7008   33.6084   -2.8031 C   0  0  0  0  0  0
    0.4215   33.9863   -3.9414 O   0  0  0  0  0  0
   -0.0646   33.8483   -1.7115 O   0  0  0  0  0  0
   -1.2734   34.5857   -1.8127 C   0  0  0  0  0  0
    3.3944   30.5816   -2.8066 H   0  0  0  0  0  0
    8.9451   32.3749   -4.7639 H   0  0  0  0  0  0
    8.0432   30.8849   -5.0046 H   0  0  0  0  0  0
    8.9073   31.6144   -6.3405 H   0  0  0  0  0  0
    8.4342   34.1776   -6.7425 H   0  0  0  0  0  0
    6.6395   35.6996   -7.4082 H   0  0  0  0  0  0
    4.2918   35.0876   -7.0082 H   0  0  0  0  0  0
    3.7278   32.9862   -5.8930 H   0  0  0  0  0  0
    4.4401   30.7767   -5.0784 H   0  0  0  0  0  0
    6.0907   30.3736   -4.7251 H   0  0  0  0  0  0
    5.2278   34.2218   -3.0915 H   0  0  0  0  0  0
    7.1016   35.5749   -2.3415 H   0  0  0  0  0  0
    7.4703   30.6517   -2.3137 H   0  0  0  0  0  0
    3.9142   31.1758   -0.5783 H   0  0  0  0  0  0
    4.2724   32.8238   -1.0053 H   0  0  0  0  0  0
    1.5415   31.5497   -0.8839 H   0  0  0  0  0  0
    2.0449   33.1765   -0.3934 H   0  0  0  0  0  0
    3.3360   33.4465   -3.7612 H   0  0  0  0  0  0
    2.4325   32.0714   -4.3843 H   0  0  0  0  0  0
   -1.6701   34.7769   -0.8153 H   0  0  0  0  0  0
   -1.1147   35.5472   -2.3040 H   0  0  0  0  0  0
   -2.0235   34.0259   -2.3716 H   0  0  0  0  0  0
  1  2  1  0  0  0
  1 29  1  0  0  0
  1 30  1  0  0  0
  1 31  1  0  0  0
  2  7  1  0  0  0
  2  3  2  0  0  0
  3  4  1  0  0  0
  3 32  1  0  0  0
  4  5  2  0  0  0
  4 33  1  0  0  0
  5  6  1  0  0  0
  5 34  1  0  0  0
  6  7  2  0  0  0
  6 35  1  0  0  0
  7  8  1  0  0  0
  8  9  1  0  0  0
  8 36  1  0  0  0
  8 37  1  0  0  0
  9 10  1  0  0  0
  9 19  1  0  0  0
 10 15  1  0  0  0
 10 11  2  0  0  0
 11 12  1  0  0  0
 11 38  1  0  0  0
 12 13  2  0  0  0
 12 39  1  0  0  0
 13 14  1  0  0  0
 13 17  1  0  0  0
 14 15  2  0  0  0
 14 16  1  0  0  0
 15 40  1  0  0  0
 17 18  3  0  0  0
 19 28  1  0  0  0
 19 23  1  0  0  0
 19 20  1  0  0  0
 20 21  1  0  0  0
 20 41  1  0  0  0
 20 42  1  0  0  0
 21 22  1  0  0  0
 21 43  1  0  0  0
 21 44  1  0  0  0
 22 23  1  0  0  0
 22 24  1  0  0  0
 23 45  1  0  0  0
 23 46  1  0  0  0
 24 25  2  0  0  0
 24 26  1  0  0  0
 26 27  1  0  0  0
 27 47  1  0  0  0
 27 48  1  0  0  0
 27 49  1  0  0  0
M  END
> <s_m_entry_id>
36065

> <s_m_entry_name>
ligand_docking-pose.60

> <s_m_Source_Path>
/home/csk/Desktop/cluster/DUD-E-result/cp2c9

> <s_m_Source_File>
ligand_docking-pose.sdf

> <i_m_Source_File_Index>
60

> <i_lp_mmshare_version>
53161

> <r_lp_tautomer_probability>
1

> <s_lp_Force_Field>
OPLS_2005

> <r_lp_Energy>
42.718103

> <b_lp_Chiralities_Consistent>
1

> <s_lp_Variant>
590200-1

> <s_i_glide_gridfile>
glide-grid_1r9o

> <i_i_glide_lignum>
59

> <i_i_glide_rotatable_bonds>
6

> <r_i_docking_score>
-6.92223793097524

> <r_i_glide_ligand_efficiency>
-0.256379182628713

> <r_i_glide_ligand_efficiency_sa>
-0.769137547041154

> <r_i_glide_ligand_efficiency_ln>
-1.61138286831962

> <r_i_glide_gscore>
-6.92223793097524

> <r_i_glide_lipo>
-4.59796741168699

> <r_i_glide_hbond>
-0.0680491603696679

> <r_i_glide_metal>
0

> <r_i_glide_rewards>
-0.753085320190544

> <r_i_glide_evdw>
-41.2760429382324

> <r_i_glide_ecoul>
-0.658957719802856

> <r_i_glide_erotb>
0.659509766154011

> <r_i_glide_esite>
0

> <r_i_glide_emodel>
-49.1231294258243

> <r_i_glide_energy>
-41.9350006580353

> <r_i_glide_einternal>
9.77612018585205

> <i_i_glide_confnum>
113

> <i_i_glide_posenum>
67

> <r_i_glide_eff_state_penalty>
0

> <i_f3d_flags>
0

> <s_user_duplicate_titles>
590200

> <s_m_subgroup_title>
dock_pv

> <s_m_subgroupid>
dock_pv1

> <b_m_subgroup_collapsed>
0

$$$$
465834
                    3D
 Schrodinger Suite 2021-1.
 33 35  0  0  1  0            999 V2000
    3.5366   30.2482   -3.5652 C   0  0  0  0  0  0
    2.9861   31.6177   -3.2359 C   0  0  0  0  0  0
    3.4572   32.8260   -3.6370 C   0  0  0  0  0  0
    2.7211   34.0385   -3.3061 C   0  0  0  0  0  0
    3.1300   35.1751   -3.5409 O   0  0  0  0  0  0
    1.4023   33.8017   -2.6509 C   0  0  0  0  0  0
    0.5292   34.8481   -2.3417 C   0  0  0  0  0  0
   -0.7341   34.5919   -1.8076 C   0  0  0  0  0  0
   -1.1322   33.2826   -1.5419 C   0  0  0  0  0  0
   -0.2459   32.2316   -1.7879 C   0  0  0  0  0  0
    1.0064   32.5018   -2.3366 C   0  0  0  0  0  0
    1.8234   31.4289   -2.5665 O   0  0  0  0  0  0
    4.6948   32.8874   -4.4108 C   0  0  0  0  0  0
    4.6610   33.0184   -5.6348 O   0  0  0  0  0  0
    5.9650   32.6432   -3.6888 C   0  0  0  0  0  0
    6.5436   31.3803   -3.7612 C   0  0  0  0  0  0
    7.6774   31.0673   -3.0295 C   0  0  0  0  0  0
    8.3005   32.0576   -2.2543 C   0  0  0  0  0  0
    7.7432   33.3458   -2.2022 C   0  0  0  0  0  0
    6.5697   33.6291   -2.9046 C   0  0  0  0  0  0
    8.6281   34.8750   -1.0755 I   0  0  0  0  0  0
    9.4365   31.7641   -1.5467 O   0  0  0  0  0  0
    8.3013   29.0749   -3.1413 I   0  0  0  0  0  0
    3.9460   30.1980   -4.5737 H   0  0  0  0  0  0
    4.2670   29.9175   -2.8278 H   0  0  0  0  0  0
    2.7021   29.5750   -3.5410 H   0  0  0  0  0  0
    0.8287   35.8689   -2.5177 H   0  0  0  0  0  0
   -1.4061   35.4096   -1.5947 H   0  0  0  0  0  0
   -2.1098   33.0853   -1.1386 H   0  0  0  0  0  0
   -0.5292   31.2153   -1.5612 H   0  0  0  0  0  0
    6.0945   30.5952   -4.3404 H   0  0  0  0  0  0
    6.1358   34.6203   -2.8404 H   0  0  0  0  0  0
    9.5084   30.8267   -1.3418 H   0  0  0  0  0  0
  1  2  1  0  0  0
  1 24  1  0  0  0
  1 25  1  0  0  0
  1 26  1  0  0  0
  2 12  1  0  0  0
  2  3  2  0  0  0
  3  4  1  0  0  0
  3 13  1  0  0  0
  4  5  2  0  0  0
  4  6  1  0  0  0
  6 11  2  0  0  0
  6  7  1  0  0  0
  7  8  2  0  0  0
  7 27  1  0  0  0
  8  9  1  0  0  0
  8 28  1  0  0  0
  9 10  2  0  0  0
  9 29  1  0  0  0
 10 11  1  0  0  0
 10 30  1  0  0  0
 11 12  1  0  0  0
 13 14  2  0  0  0
 13 15  1  0  0  0
 15 20  1  0  0  0
 15 16  2  0  0  0
 16 17  1  0  0  0
 16 31  1  0  0  0
 17 18  2  0  0  0
 17 23  1  0  0  0
 18 19  1  0  0  0
 18 22  1  0  0  0
 19 20  2  0  0  0
 19 21  1  0  0  0
 20 32  1  0  0  0
 22 33  1  0  0  0
M  END
> <s_m_entry_id>
36066

> <s_m_entry_name>
ligand_docking-pose.61

> <s_m_Source_Path>
/home/csk/Desktop/cluster/DUD-E-result/cp2c9

> <s_m_Source_File>
ligand_docking-pose.sdf

> <i_m_Source_File_Index>
61

> <i_lp_mmshare_version>
53161

> <r_lp_tautomer_probability>
1

> <s_lp_Force_Field>
OPLS_2005

> <r_lp_Energy>
20.544645

> <b_lp_Chiralities_Consistent>
1

> <s_lp_Variant>
465834-1

> <s_i_glide_gridfile>
glide-grid_1r9o

> <i_i_glide_lignum>
83

> <i_i_glide_rotatable_bonds>
3

> <r_i_docking_score>
-6.91979630493984

> <r_i_glide_ligand_efficiency>
-0.300860708910428

> <r_i_glide_ligand_efficiency_sa>
-0.855607834710848

> <r_i_glide_ligand_efficiency_ln>
-1.67326949177829

> <r_i_glide_gscore>
-6.91979630493984

> <r_i_glide_lipo>
-4.5735141233016

> <r_i_glide_hbond>
0

> <r_i_glide_metal>
0

> <r_i_glide_rewards>
-0.372413382904374

> <r_i_glide_evdw>
-41.7906608581543

> <r_i_glide_ecoul>
-0.200251400470734

> <r_i_glide_erotb>
0.145701954244464

> <r_i_glide_esite>
0

> <r_i_glide_emodel>
-56.401090922764

> <r_i_glide_energy>
-41.990912258625

> <r_i_glide_einternal>
5.7017183303833

> <i_i_glide_confnum>
1

> <i_i_glide_posenum>
368

> <r_i_glide_eff_state_penalty>
0

> <i_f3d_flags>
0

> <s_user_duplicate_titles>
465834

> <s_m_subgroup_title>
dock_pv

> <s_m_subgroupid>
dock_pv1

> <b_m_subgroup_collapsed>
0

$$$$
684372
                    3D
 Schrodinger Suite 2021-1.
 35 36  0  0  1  0            999 V2000
   11.0249   36.3100   -3.7110 C   0  0  0  0  0  0
   10.7012   36.5049   -2.2479 C   0  0  0  0  0  0
   10.3008   35.5497   -1.2899 C   0  0  0  0  0  0
   10.0768   36.2928   -0.1333 C   0  0  0  0  0  0
   10.3949   37.5749   -0.4736 N   0  0  0  0  0  0
   10.7890   37.7098   -1.7354 N   0  0  0  0  0  0
    9.5747   35.9195    1.2404 C   0  0  0  0  0  0
   10.1463   34.0443   -1.4685 C   0  0  0  0  0  0
    8.6986   33.5897   -1.6698 C   0  0  0  0  0  0
    7.7639   34.2900   -1.2875 O   0  0  0  0  0  0
    8.5250   32.3935   -2.2583 N   0  0  0  0  0  0
    7.2202   31.8028   -2.5690 C   0  0  0  0  0  0
    6.3855   32.6287   -3.5498 C   0  0  0  0  0  0
    5.2259   33.2627   -3.0879 C   0  0  0  0  0  0
    4.4591   34.0484   -3.9467 C   0  0  0  0  0  0
    4.8374   34.1937   -5.2789 C   0  0  0  0  0  0
    5.9742   33.5450   -5.7567 C   0  0  0  0  0  0
    6.7491   32.7596   -4.9018 C   0  0  0  0  0  0
    8.1512   31.9747   -5.5458 Cl  0  0  0  0  0  0
    3.8967   35.1730   -6.3383 Cl  0  0  0  0  0  0
   10.3208   38.3812    0.1375 H   0  0  0  0  0  0
   10.8981   37.2239   -4.2922 H   0  0  0  0  0  0
   12.0503   35.9767   -3.8669 H   0  0  0  0  0  0
   10.3668   35.5725   -4.1677 H   0  0  0  0  0  0
   10.2116   35.1751    1.7206 H   0  0  0  0  0  0
    8.5705   35.5015    1.1800 H   0  0  0  0  0  0
    9.5035   36.7736    1.9094 H   0  0  0  0  0  0
   10.7232   33.7054   -2.3273 H   0  0  0  0  0  0
   10.5389   33.5106   -0.6012 H   0  0  0  0  0  0
    9.3376   31.8714   -2.5483 H   0  0  0  0  0  0
    7.3733   30.8075   -2.9890 H   0  0  0  0  0  0
    6.6735   31.6401   -1.6376 H   0  0  0  0  0  0
    4.9309   33.1745   -2.0521 H   0  0  0  0  0  0
    3.5756   34.5513   -3.5777 H   0  0  0  0  0  0
    6.2600   33.6569   -6.7927 H   0  0  0  0  0  0
  1 22  1  0  0  0
  1 23  1  0  0  0
  1 24  1  0  0  0
  1  2  1  0  0  0
  2  6  2  0  0  0
  2  3  1  0  0  0
  3  4  2  0  0  0
  3  8  1  0  0  0
  4  5  1  0  0  0
  4  7  1  0  0  0
  5  6  1  0  0  0
  5 21  1  0  0  0
  7 25  1  0  0  0
  7 26  1  0  0  0
  7 27  1  0  0  0
  8  9  1  0  0  0
  8 28  1  0  0  0
  8 29  1  0  0  0
  9 10  2  0  0  0
  9 11  1  0  0  0
 11 12  1  0  0  0
 11 30  1  0  0  0
 12 13  1  0  0  0
 12 31  1  0  0  0
 12 32  1  0  0  0
 13 18  1  0  0  0
 13 14  2  0  0  0
 14 15  1  0  0  0
 14 33  1  0  0  0
 15 16  2  0  0  0
 15 34  1  0  0  0
 16 17  1  0  0  0
 16 20  1  0  0  0
 17 18  2  0  0  0
 17 35  1  0  0  0
 18 19  1  0  0  0
M  END
> <s_m_entry_id>
36067

> <s_m_entry_name>
ligand_docking-pose.62

> <s_m_Source_Path>
/home/csk/Desktop/cluster/DUD-E-result/cp2c9

> <s_m_Source_File>
ligand_docking-pose.sdf

> <i_m_Source_File_Index>
62

> <i_lp_mmshare_version>
53161

> <r_lp_tautomer_probability>
0.5

> <s_lp_Force_Field>
OPLS_2005

> <r_lp_Energy>
1.873772

> <b_lp_Chiralities_Consistent>
1

> <s_lp_Variant>
684372-1

> <s_i_glide_gridfile>
glide-grid_1r9o

> <i_i_glide_lignum>
82

> <i_i_glide_rotatable_bonds>
5

> <r_i_docking_score>
-6.89232257425235

> <r_i_glide_ligand_efficiency>
-0.344616128712618

> <r_i_glide_ligand_efficiency_sa>
-0.935432089806166

> <r_i_glide_ligand_efficiency_ln>
-1.72492101632275

> <r_i_glide_gscore>
-6.89232257425235

> <r_i_glide_lipo>
-2.64958642258676

> <r_i_glide_hbond>
-0.279833930212676

> <r_i_glide_metal>
0

> <r_i_glide_rewards>
-2.49592740596489

> <r_i_glide_evdw>
-37.174674987793

> <r_i_glide_ecoul>
-2.46529626846313

> <r_i_glide_erotb>
0.761553374171095

> <r_i_glide_esite>
0

> <r_i_glide_emodel>
-56.1791690202569

> <r_i_glide_energy>
-39.6399712562561

> <r_i_glide_einternal>
0.749675154685974

> <i_i_glide_confnum>
15

> <i_i_glide_posenum>
176

> <r_i_glide_eff_state_penalty>
0

> <i_f3d_flags>
0

> <s_user_duplicate_titles>
684372

> <s_m_subgroup_title>
dock_pv

> <s_m_subgroupid>
dock_pv1

> <b_m_subgroup_collapsed>
0

$$$$
