CHEMBL3526_lig42
                    3D
 Schrodinger Suite 2021-1.
 48 51  0  0  1  0            999 V2000
   39.1224   41.0894   27.3563 C   0  0  0  0  0  0
   39.7156   41.0504   26.0565 C   0  0  0  0  0  0
   37.9100   36.2310   31.6886 C   0  0  0  0  0  0
   38.7187   36.5051   30.6362 N   0  0  0  0  0  0
   38.7575   35.9047   29.3607 C   0  0  0  0  0  0
   39.3829   36.6111   28.3223 C   0  0  0  0  0  0
   38.3091   42.2282   27.9459 C   0  0  0  0  0  0
   39.5586   42.1073   24.9947 C   0  0  0  0  0  0
   38.2501   34.6220   29.1210 C   0  0  0  0  0  0
   39.3644   36.0875   27.0219 C   0  0  0  0  0  0
   40.0635   37.7755   28.6316 O   0  0  0  0  0  0
   40.5337   39.9625   25.7162 C   0  0  0  0  0  0
   39.2568   39.9533   28.1711 C   0  0  0  0  0  0
   38.2112   36.9785   32.9724 C   0  0  0  0  0  0
   38.3092   34.0493   27.8345 C   0  0  0  0  0  0
   38.8271   34.8160   26.7534 C   0  0  0  0  0  0
   39.1477   37.9734   32.9441 N   0  0  0  0  0  0
   40.0123   38.8558   27.7873 C   0  0  0  0  0  0
   36.9952   35.4044   31.6621 O   0  0  0  0  0  0
   37.5088   42.0312   28.8601 O   0  0  0  0  0  0
   39.8459   43.2848   25.1993 O   0  0  0  0  0  0
   40.7153   38.8970   26.5873 C   0  0  0  0  0  0
   38.5557   43.4753   27.4612 O   0  0  0  0  0  0
   39.1091   41.6351   23.7961 O   0  0  0  0  0  0
   39.4922   38.5783   34.1087 C   0  0  0  0  0  0
   37.8771   32.7297   27.5908 C   0  0  0  0  0  0
   38.8241   34.2694   25.4458 C   0  0  0  0  0  0
   37.5810   36.6049   34.1716 C   0  0  0  0  0  0
   38.9312   38.2285   35.3362 C   0  0  0  0  0  0
   38.3460   32.9812   25.2316 C   0  0  0  0  0  0
   37.8877   32.2202   26.2992 C   0  0  0  0  0  0
   37.9571   37.2306   35.3615 C   0  0  0  0  0  0
   39.3892   37.2477   30.7705 H   0  0  0  0  0  0
   37.8343   34.0253   29.9170 H   0  0  0  0  0  0
   39.7902   36.6154   26.1878 H   0  0  0  0  0  0
   41.0400   39.9280   24.7607 H   0  0  0  0  0  0
   38.7772   39.9005   29.1390 H   0  0  0  0  0  0
   41.3649   38.0810   26.3092 H   0  0  0  0  0  0
   39.1836   43.4574   26.7261 H   0  0  0  0  0  0
   38.6025   40.8095   23.8512 H   0  0  0  0  0  0
   40.2391   39.3559   34.0447 H   0  0  0  0  0  0
   37.5107   32.1260   28.4084 H   0  0  0  0  0  0
   39.2026   34.8542   24.6203 H   0  0  0  0  0  0
   36.8454   35.8136   34.1924 H   0  0  0  0  0  0
   39.2378   38.7238   36.2459 H   0  0  0  0  0  0
   38.3390   32.5646   24.2354 H   0  0  0  0  0  0
   37.5084   31.2299   26.1245 H   0  0  0  0  0  0
   37.5072   36.9371   36.2985 H   0  0  0  0  0  0
  1  2  1  0  0  0
  1  7  1  0  0  0
  1 13  2  0  0  0
  2  8  1  0  0  0
  2 12  2  0  0  0
  3  4  1  0  0  0
  3 14  1  0  0  0
  3 19  2  0  0  0
  4  5  1  0  0  0
  4 33  1  0  0  0
  5  6  2  0  0  0
  5  9  1  0  0  0
  6 11  1  0  0  0
  6 10  1  0  0  0
  7 20  2  0  0  0
  7 23  1  0  0  0
  8 21  2  0  0  0
  8 24  1  0  0  0
  9 15  2  0  0  0
  9 34  1  0  0  0
 10 16  2  0  0  0
 10 35  1  0  0  0
 11 18  1  0  0  0
 12 22  1  0  0  0
 12 36  1  0  0  0
 13 18  1  0  0  0
 13 37  1  0  0  0
 14 17  2  0  0  0
 14 28  1  0  0  0
 15 16  1  0  0  0
 15 26  1  0  0  0
 16 27  1  0  0  0
 17 25  1  0  0  0
 18 22  2  0  0  0
 22 38  1  0  0  0
 23 39  1  0  0  0
 24 40  1  0  0  0
 25 29  2  0  0  0
 25 41  1  0  0  0
 26 31  2  0  0  0
 26 42  1  0  0  0
 27 30  2  0  0  0
 27 43  1  0  0  0
 28 32  2  0  0  0
 28 44  1  0  0  0
 29 32  1  0  0  0
 29 45  1  0  0  0
 30 31  1  0  0  0
 30 46  1  0  0  0
 31 47  1  0  0  0
 32 48  1  0  0  0
M  END
> <s_m_entry_id>
25129

> <s_m_entry_name>
dock_pv.2

> <s_m_Source_Path>
/home/csk/Desktop/cluster/DUD-E-result/pygm

> <s_m_Source_File>
dock_pv.maegz

> <i_m_Source_File_Index>
2

> <chembl_id>
CHEMBL133109

> <chembl_pref_name>
None

> <i_lp_mmshare_version>
53161

> <r_lp_tautomer_probability>
1

> <s_lp_Force_Field>
OPLS_2005

> <r_lp_Energy>
37.749799

> <b_lp_Chiralities_Consistent>
1

> <s_lp_Variant>
CHEMBL3526_lig42-1

> <s_i_glide_gridfile>
glide-grid_1c8k

> <i_i_glide_lignum>
63

> <i_i_glide_rotatable_bonds>
9

> <r_i_docking_score>
-7.72132008883452

> <r_i_glide_ligand_efficiency>
-0.241291252776079

> <r_i_glide_ligand_efficiency_sa>
-0.766051976089966

> <r_i_glide_ligand_efficiency_ln>
-1.72901404312641

> <r_i_glide_gscore>
-7.72132008883452

> <r_i_glide_lipo>
-3.78570627091504

> <r_i_glide_hbond>
-0.238867089340303

> <r_i_glide_metal>
0

> <r_i_glide_rewards>
-1.05337536153451

> <r_i_glide_evdw>
-47.3926734924316

> <r_i_glide_ecoul>
-6.53249073028564

> <r_i_glide_erotb>
0.75764110389523

> <r_i_glide_esite>
-0.0515051867754661

> <r_i_glide_emodel>
-73.3029684090752

> <r_i_glide_energy>
-53.9251642227173

> <r_i_glide_einternal>
13.2157745361328

> <i_i_glide_confnum>
19

> <i_i_glide_posenum>
303

> <r_i_glide_eff_state_penalty>
0

> <s_user_duplicate_titles>
CHEMBL3526_lig42,219787

> <i_f3d_flags>
0

> <s_m_subgroup_title>
dock_pv

> <s_m_subgroupid>
dock_pv

> <b_m_subgroup_collapsed>
0

$$$$
CHEMBL3526_lig33
                    3D
 Schrodinger Suite 2021-1.
 50 53  0  0  1  0            999 V2000
   38.3109   37.5140   36.1927 N   0  3  0  0  0  0
   40.5009   40.4162   24.9369 C   0  0  0  0  0  0
   38.3089   36.7152   31.2320 C   0  0  0  0  0  0
   41.5556   39.7188   24.2882 C   0  0  0  0  0  0
   38.9794   36.9092   30.0684 N   0  0  0  0  0  0
   38.8672   36.1677   28.8703 C   0  0  0  0  0  0
   39.2435   36.7849   27.6639 C   0  0  0  0  0  0
   38.7222   37.9155   34.8262 C   0  0  0  0  0  0
   38.7150   37.5581   32.4206 C   0  0  0  0  0  0
   40.0343   41.7860   24.5028 C   0  0  0  0  0  0
   38.2823   37.1989   33.7062 C   0  0  0  0  0  0
   42.1243   40.1338   22.9446 C   0  0  0  0  0  0
   38.4341   34.8316   28.8667 C   0  0  0  0  0  0
   39.1091   36.0714   26.4625 C   0  0  0  0  0  0
   39.7050   38.0962   27.6915 O   0  0  0  0  0  0
   42.0741   38.5660   24.8968 C   0  0  0  0  0  0
   37.4432   36.6515   36.3126 O   0  5  0  0  0  0
   39.5377   38.6264   32.2228 N   0  0  0  0  0  0
   39.9099   39.8522   26.0794 C   0  0  0  0  0  0
   38.8407   38.0711   37.1491 O   0  0  0  0  0  0
   38.3278   34.0985   27.6693 C   0  0  0  0  0  0
   38.6708   34.7313   26.4416 C   0  0  0  0  0  0
   40.3679   38.6482   26.6125 C   0  0  0  0  0  0
   37.4133   35.8800   31.3763 O   0  0  0  0  0  0
   40.8092   42.7351   24.3985 O   0  0  0  0  0  0
   43.3096   40.0144   22.6496 O   0  0  0  0  0  0
   41.4934   38.0399   26.0494 C   0  0  0  0  0  0
   39.5697   39.0127   34.6105 C   0  0  0  0  0  0
   38.7090   41.8709   24.2236 O   0  0  0  0  0  0
   41.1732   40.5454   22.0600 O   0  0  0  0  0  0
   39.9437   39.3371   33.3053 C   0  0  0  0  0  0
   37.9095   32.7480   27.6593 C   0  0  0  0  0  0
   38.5700   33.9994   25.2368 C   0  0  0  0  0  0
   38.1636   32.6695   25.2571 C   0  0  0  0  0  0
   37.8374   32.0496   26.4598 C   0  0  0  0  0  0
   39.6211   37.6862   30.0287 H   0  0  0  0  0  0
   37.6409   36.3376   33.8391 H   0  0  0  0  0  0
   38.1900   34.3157   29.7825 H   0  0  0  0  0  0
   39.3344   36.5404   25.5167 H   0  0  0  0  0  0
   42.9128   38.0423   24.4595 H   0  0  0  0  0  0
   39.0756   40.3377   26.5662 H   0  0  0  0  0  0
   41.8841   37.1293   26.4804 H   0  0  0  0  0  0
   39.9326   39.6053   35.4382 H   0  0  0  0  0  0
   38.2738   41.0138   24.0842 H   0  0  0  0  0  0
   41.5040   40.7766   21.1832 H   0  0  0  0  0  0
   40.5960   40.1757   33.1113 H   0  0  0  0  0  0
   37.6579   32.2563   28.5882 H   0  0  0  0  0  0
   38.8190   34.4784   24.3025 H   0  0  0  0  0  0
   38.0982   32.1133   24.3337 H   0  0  0  0  0  0
   37.5088   31.0206   26.4619 H   0  0  0  0  0  0
  1  8  1  0  0  0
  1 17  1  0  0  0
  1 20  2  0  0  0
  2 19  2  0  0  0
  2 10  1  0  0  0
  2  4  1  0  0  0
  3  9  1  0  0  0
  3  5  1  0  0  0
  3 24  2  0  0  0
  4 16  2  0  0  0
  4 12  1  0  0  0
  5  6  1  0  0  0
  5 36  1  0  0  0
  6  7  2  0  0  0
  6 13  1  0  0  0
  7 14  1  0  0  0
  7 15  1  0  0  0
  8 11  2  0  0  0
  8 28  1  0  0  0
  9 11  1  0  0  0
  9 18  2  0  0  0
 10 25  2  0  0  0
 10 29  1  0  0  0
 11 37  1  0  0  0
 12 26  2  0  0  0
 12 30  1  0  0  0
 13 21  2  0  0  0
 13 38  1  0  0  0
 14 22  2  0  0  0
 14 39  1  0  0  0
 15 23  1  0  0  0
 16 27  1  0  0  0
 16 40  1  0  0  0
 18 31  1  0  0  0
 19 23  1  0  0  0
 19 41  1  0  0  0
 21 22  1  0  0  0
 21 32  1  0  0  0
 22 33  1  0  0  0
 23 27  2  0  0  0
 27 42  1  0  0  0
 28 31  2  0  0  0
 28 43  1  0  0  0
 29 44  1  0  0  0
 30 45  1  0  0  0
 31 46  1  0  0  0
 32 35  2  0  0  0
 32 47  1  0  0  0
 33 34  2  0  0  0
 33 48  1  0  0  0
 34 35  1  0  0  0
 34 49  1  0  0  0
 35 50  1  0  0  0
M  CHG  2   1   1  17  -1
M  END
> <s_m_entry_id>
25130

> <s_m_entry_name>
dock_pv.3

> <s_m_Source_Path>
/home/csk/Desktop/cluster/DUD-E-result/pygm

> <s_m_Source_File>
dock_pv.maegz

> <i_m_Source_File_Index>
3

> <chembl_id>
CHEMBL134802

> <chembl_pref_name>
None

> <i_lp_mmshare_version>
53161

> <r_lp_tautomer_probability>
1

> <s_lp_Force_Field>
OPLS_2005

> <r_lp_Energy>
39.860652

> <b_lp_Chiralities_Consistent>
1

> <s_lp_Variant>
CHEMBL3526_lig33-1

> <s_i_glide_gridfile>
glide-grid_1c8k

> <i_i_glide_lignum>
54

> <i_i_glide_rotatable_bonds>
10

> <r_i_docking_score>
-7.48914857606342

> <r_i_glide_ligand_efficiency>
-0.213975673601812

> <r_i_glide_ligand_efficiency_sa>
-0.6999286162893

> <r_i_glide_ligand_efficiency_ln>
-1.64403432514326

> <r_i_glide_gscore>
-7.48914857606342

> <r_i_glide_lipo>
-3.41874385206016

> <r_i_glide_hbond>
0

> <r_i_glide_metal>
0

> <r_i_glide_rewards>
-0.878036691770235

> <r_i_glide_evdw>
-48.1833763122559

> <r_i_glide_ecoul>
-9.23612022399902

> <r_i_glide_erotb>
0.631819347242641

> <r_i_glide_esite>
-0.0296005302630156

> <r_i_glide_emodel>
-79.6664348662539

> <r_i_glide_energy>
-57.4194965362549

> <r_i_glide_einternal>
7.09030771255493

> <i_i_glide_confnum>
19

> <i_i_glide_posenum>
325

> <r_i_glide_eff_state_penalty>
0

> <s_user_duplicate_titles>
CHEMBL3526_lig33,220668

> <i_f3d_flags>
0

> <s_m_subgroup_title>
dock_pv

> <s_m_subgroupid>
dock_pv

> <b_m_subgroup_collapsed>
0

$$$$
CHEMBL3526_lig37
                    3D
 Schrodinger Suite 2021-1.
 48 51  0  0  1  0            999 V2000
   39.0980   41.3333   27.1084 C   0  0  0  0  0  0
   38.5064   37.6321   31.3970 C   0  0  0  0  0  0
   39.6993   41.1582   25.8244 C   0  0  0  0  0  0
   38.7174   36.4300   30.8241 N   0  0  0  0  0  0
   38.7152   36.0454   29.4690 C   0  0  0  0  0  0
   39.1865   36.8158   28.3833 C   0  0  0  0  0  0
   38.3883   42.5875   27.6001 C   0  0  0  0  0  0
   38.5161   37.6224   32.9047 C   0  0  0  0  0  0
   39.6248   42.1456   24.6893 C   0  0  0  0  0  0
   38.2677   34.7404   29.2620 C   0  0  0  0  0  0
   39.1109   36.2645   27.0912 C   0  0  0  0  0  0
   39.7943   38.0396   28.6264 O   0  0  0  0  0  0
   39.1115   38.6704   33.6199 C   0  0  0  0  0  0
   40.4369   39.9928   25.5712 C   0  0  0  0  0  0
   37.9069   36.5783   33.5367 N   0  0  0  0  0  0
   39.1295   40.2434   27.9963 C   0  0  0  0  0  0
   38.2809   34.1518   27.9834 C   0  0  0  0  0  0
   38.6874   34.9356   26.8698 C   0  0  0  0  0  0
   39.8048   39.0615   27.7013 C   0  0  0  0  0  0
   38.3094   38.6870   30.7975 O   0  0  0  0  0  0
   37.5092   42.5395   28.4613 O   0  0  0  0  0  0
   40.0311   43.3001   24.8024 O   0  0  0  0  0  0
   39.1091   38.6216   35.0163 C   0  0  0  0  0  0
   40.5295   38.9795   26.5157 C   0  0  0  0  0  0
   38.8281   43.7698   27.0898 O   0  0  0  0  0  0
   39.1090   41.6314   23.5362 O   0  0  0  0  0  0
   37.9041   36.5549   34.8938 C   0  0  0  0  0  0
   38.5032   37.5472   35.6688 C   0  0  0  0  0  0
   39.8387   39.8897   35.9301 Cl  0  0  0  0  0  0
   37.9089   32.8032   27.7809 C   0  0  0  0  0  0
   38.6696   34.3573   25.5743 C   0  0  0  0  0  0
   38.2804   33.0307   25.4041 C   0  0  0  0  0  0
   37.9076   32.2607   26.5009 C   0  0  0  0  0  0
   38.8356   35.6656   31.4730 H   0  0  0  0  0  0
   37.9327   34.1391   30.0961 H   0  0  0  0  0  0
   39.4044   36.8159   26.2170 H   0  0  0  0  0  0
   39.5723   39.5036   33.1080 H   0  0  0  0  0  0
   40.9513   39.8568   24.6288 H   0  0  0  0  0  0
   38.6381   40.3069   28.9560 H   0  0  0  0  0  0
   41.1286   38.1068   26.3052 H   0  0  0  0  0  0
   39.4708   43.6399   26.3803 H   0  0  0  0  0  0
   38.5565   40.8420   23.6587 H   0  0  0  0  0  0
   37.4356   35.6992   35.3552 H   0  0  0  0  0  0
   38.4956   37.4869   36.7479 H   0  0  0  0  0  0
   37.6167   32.1936   28.6240 H   0  0  0  0  0  0
   38.9671   34.9503   24.7215 H   0  0  0  0  0  0
   38.2714   32.5940   24.4163 H   0  0  0  0  0  0
   37.6009   31.2342   26.3664 H   0  0  0  0  0  0
  1  3  1  0  0  0
  1  7  1  0  0  0
  1 16  2  0  0  0
  2  4  1  0  0  0
  2  8  1  0  0  0
  2 20  2  0  0  0
  3  9  1  0  0  0
  3 14  2  0  0  0
  4  5  1  0  0  0
  4 34  1  0  0  0
  5  6  2  0  0  0
  5 10  1  0  0  0
  6 12  1  0  0  0
  6 11  1  0  0  0
  7 21  2  0  0  0
  7 25  1  0  0  0
  8 13  1  0  0  0
  8 15  2  0  0  0
  9 22  2  0  0  0
  9 26  1  0  0  0
 10 17  2  0  0  0
 10 35  1  0  0  0
 11 18  2  0  0  0
 11 36  1  0  0  0
 12 19  1  0  0  0
 13 23  2  0  0  0
 13 37  1  0  0  0
 14 24  1  0  0  0
 14 38  1  0  0  0
 15 27  1  0  0  0
 16 19  1  0  0  0
 16 39  1  0  0  0
 17 18  1  0  0  0
 17 30  1  0  0  0
 18 31  1  0  0  0
 19 24  2  0  0  0
 23 29  1  0  0  0
 23 28  1  0  0  0
 24 40  1  0  0  0
 25 41  1  0  0  0
 26 42  1  0  0  0
 27 28  2  0  0  0
 27 43  1  0  0  0
 28 44  1  0  0  0
 30 33  2  0  0  0
 30 45  1  0  0  0
 31 32  2  0  0  0
 31 46  1  0  0  0
 32 33  1  0  0  0
 32 47  1  0  0  0
 33 48  1  0  0  0
M  END
> <s_m_entry_id>
25131

> <s_m_entry_name>
dock_pv.4

> <s_m_Source_Path>
/home/csk/Desktop/cluster/DUD-E-result/pygm

> <s_m_Source_File>
dock_pv.maegz

> <i_m_Source_File_Index>
4

> <chembl_id>
CHEMBL133832

> <chembl_pref_name>
None

> <i_lp_mmshare_version>
53161

> <r_lp_tautomer_probability>
1

> <s_lp_Force_Field>
OPLS_2005

> <r_lp_Energy>
34.604398

> <b_lp_Chiralities_Consistent>
1

> <s_lp_Variant>
CHEMBL3526_lig37-1

> <s_i_glide_gridfile>
glide-grid_1c8k

> <i_i_glide_lignum>
58

> <i_i_glide_rotatable_bonds>
9

> <r_i_docking_score>
-7.43725487618448

> <r_i_glide_ligand_efficiency>
-0.225371359884378

> <r_i_glide_ligand_efficiency_sa>
-0.722886372984461

> <r_i_glide_ligand_efficiency_ln>
-1.65400697641858

> <r_i_glide_gscore>
-7.43725487618448

> <r_i_glide_lipo>
-3.63896863347845

> <r_i_glide_hbond>
-0.0866462073949678

> <r_i_glide_metal>
0

> <r_i_glide_rewards>
-0.710812712695831

> <r_i_glide_evdw>
-45.5298233032227

> <r_i_glide_ecoul>
-8.93032741546631

> <r_i_glide_erotb>
0.658341179152715

> <r_i_glide_esite>
-0.0431282242868698

> <r_i_glide_emodel>
-71.491030020963

> <r_i_glide_energy>
-54.460150718689

> <r_i_glide_einternal>
13.8876113891602

> <i_i_glide_confnum>
64

> <i_i_glide_posenum>
60

> <r_i_glide_eff_state_penalty>
0

> <s_user_duplicate_titles>
CHEMBL3526_lig37,220639

> <i_f3d_flags>
0

> <s_m_subgroup_title>
dock_pv

> <s_m_subgroupid>
dock_pv

> <b_m_subgroup_collapsed>
0

$$$$
CHEMBL3526_lig39
                    3D
 Schrodinger Suite 2021-1.
 51 54  0  0  1  0            999 V2000
   39.3490   40.6293   28.4902 C   0  0  0  0  0  0
   38.0441   32.9585   25.3930 C   0  0  0  0  0  0
   40.0334   40.1460   27.3338 C   0  0  0  0  0  0
   38.3081   35.7086   29.6590 C   0  0  0  0  0  0
   38.8175   36.8309   30.2119 N   0  0  0  0  0  0
   38.8579   37.2349   31.5593 C   0  0  0  0  0  0
   39.9140   38.0810   31.9566 C   0  0  0  0  0  0
   38.2982   41.7109   28.4807 C   0  0  0  0  0  0
   38.6082   35.5135   28.1876 C   0  0  0  0  0  0
   39.6816   40.4837   25.8887 C   0  0  0  0  0  0
   38.4611   34.2008   26.1606 C   0  0  0  0  0  0
   37.9138   36.8028   32.5041 C   0  0  0  0  0  0
   40.0563   38.4298   33.2976 C   0  0  0  0  0  0
   38.2072   34.3403   27.5307 C   0  0  0  0  0  0
   40.9198   38.5161   31.1089 O   0  0  0  0  0  0
   41.0937   39.2439   27.5307 C   0  0  0  0  0  0
   39.2586   36.5116   27.5205 N   0  0  0  0  0  0
   39.6492   40.0722   29.7440 C   0  0  0  0  0  0
   38.0800   37.1063   33.8775 C   0  0  0  0  0  0
   39.1759   37.9256   34.2809 C   0  0  0  0  0  0
   40.6451   39.1079   29.8952 C   0  0  0  0  0  0
   37.6412   34.8729   30.2734 O   0  0  0  0  0  0
   37.2724   41.6308   29.1575 O   0  0  0  0  0  0
   40.4898   40.3501   24.9734 O   0  0  0  0  0  0
   37.1483   33.3035   24.4681 F   0  0  0  0  0  0
   37.5091   32.0307   26.1866 F   0  0  0  0  0  0
   39.1072   32.4310   24.7878 F   0  0  0  0  0  0
   41.3977   38.7351   28.7894 C   0  0  0  0  0  0
   38.6217   42.8029   27.7348 O   0  0  0  0  0  0
   38.3848   40.8310   25.6602 O   0  0  0  0  0  0
   39.5088   36.3625   26.1974 C   0  0  0  0  0  0
   39.1121   35.2357   25.4835 C   0  0  0  0  0  0
   39.3799   38.1807   35.6589 C   0  0  0  0  0  0
   37.2152   36.5780   34.8690 C   0  0  0  0  0  0
   37.4572   36.8306   36.2183 C   0  0  0  0  0  0
   38.5345   37.6178   36.6100 C   0  0  0  0  0  0
   39.3621   37.4046   29.5846 H   0  0  0  0  0  0
   37.0917   36.1682   32.2165 H   0  0  0  0  0  0
   40.8913   39.0443   33.5996 H   0  0  0  0  0  0
   37.6906   33.5580   28.0695 H   0  0  0  0  0  0
   41.6703   38.8787   26.6924 H   0  0  0  0  0  0
   39.1109   40.3859   30.6277 H   0  0  0  0  0  0
   42.1884   38.0075   28.8991 H   0  0  0  0  0  0
   39.4592   42.6589   27.2902 H   0  0  0  0  0  0
   38.1419   40.6701   24.7363 H   0  0  0  0  0  0
   39.9962   37.1880   25.7009 H   0  0  0  0  0  0
   39.3106   35.1628   24.4250 H   0  0  0  0  0  0
   40.2149   38.7916   35.9689 H   0  0  0  0  0  0
   36.3866   35.9532   34.5719 H   0  0  0  0  0  0
   36.8126   36.4130   36.9758 H   0  0  0  0  0  0
   38.7111   37.7942   37.6623 H   0  0  0  0  0  0
  1  3  1  0  0  0
  1  8  1  0  0  0
  1 18  2  0  0  0
  2 11  1  0  0  0
  2 25  1  0  0  0
  2 26  1  0  0  0
  2 27  1  0  0  0
  3 10  1  0  0  0
  3 16  2  0  0  0
  4  5  1  0  0  0
  4  9  1  0  0  0
  4 22  2  0  0  0
  5  6  1  0  0  0
  5 37  1  0  0  0
  6  7  2  0  0  0
  6 12  1  0  0  0
  7 15  1  0  0  0
  7 13  1  0  0  0
  8 23  2  0  0  0
  8 29  1  0  0  0
  9 14  1  0  0  0
  9 17  2  0  0  0
 10 24  2  0  0  0
 10 30  1  0  0  0
 11 14  2  0  0  0
 11 32  1  0  0  0
 12 19  2  0  0  0
 12 38  1  0  0  0
 13 20  2  0  0  0
 13 39  1  0  0  0
 14 40  1  0  0  0
 15 21  1  0  0  0
 16 28  1  0  0  0
 16 41  1  0  0  0
 17 31  1  0  0  0
 18 21  1  0  0  0
 18 42  1  0  0  0
 19 20  1  0  0  0
 19 34  1  0  0  0
 20 33  1  0  0  0
 21 28  2  0  0  0
 28 43  1  0  0  0
 29 44  1  0  0  0
 30 45  1  0  0  0
 31 32  2  0  0  0
 31 46  1  0  0  0
 32 47  1  0  0  0
 33 36  2  0  0  0
 33 48  1  0  0  0
 34 35  2  0  0  0
 34 49  1  0  0  0
 35 36  1  0  0  0
 35 50  1  0  0  0
 36 51  1  0  0  0
M  END
> <s_m_entry_id>
25132

> <s_m_entry_name>
dock_pv.5

> <s_m_Source_Path>
/home/csk/Desktop/cluster/DUD-E-result/pygm

> <s_m_Source_File>
dock_pv.maegz

> <i_m_Source_File_Index>
5

> <chembl_id>
CHEMBL337224

> <chembl_pref_name>
None

> <i_lp_mmshare_version>
53161

> <r_lp_tautomer_probability>
1

> <s_lp_Force_Field>
OPLS_2005

> <r_lp_Energy>
42.218337

> <b_lp_Chiralities_Consistent>
1

> <s_lp_Variant>
CHEMBL3526_lig39-1

> <s_i_glide_gridfile>
glide-grid_1c8k

> <i_i_glide_lignum>
60

> <i_i_glide_rotatable_bonds>
10

> <r_i_docking_score>
-7.37276283027418

> <r_i_glide_ligand_efficiency>
-0.204798967507616

> <r_i_glide_ligand_efficiency_sa>
-0.67623129055112

> <r_i_glide_ligand_efficiency_ln>
-1.60853766053328

> <r_i_glide_gscore>
-7.37276283027418

> <r_i_glide_lipo>
-2.94590176382944

> <r_i_glide_hbond>
-0.304

> <r_i_glide_metal>
0

> <r_i_glide_rewards>
-1.20885017031997

> <r_i_glide_evdw>
-46.8314971923828

> <r_i_glide_ecoul>
-7.14452171325684

> <r_i_glide_erotb>
0.57930618904931

> <r_i_glide_esite>
-0.0800639685664135

> <r_i_glide_emodel>
-73.3380459106311

> <r_i_glide_energy>
-53.9760189056396

> <r_i_glide_einternal>
9.31300163269043

> <i_i_glide_confnum>
35

> <i_i_glide_posenum>
330

> <r_i_glide_eff_state_penalty>
0

> <s_user_duplicate_titles>
CHEMBL3526_lig39,219975

> <i_f3d_flags>
0

> <s_m_subgroup_title>
dock_pv

> <s_m_subgroupid>
dock_pv

> <b_m_subgroup_collapsed>
0

$$$$
CHEMBL3526_lig81
                    3D
 Schrodinger Suite 2021-1.
 46 49  0  0  1  0            999 V2000
   38.7504   36.4341   29.3409 C   0  0  0  0  0  0
   39.2656   37.1166   28.1183 C   0  0  0  0  0  0
   39.2477   36.3126   27.0019 N   0  0  0  0  0  0
   38.3121   35.2275   29.3944 N   0  0  0  0  0  0
   38.7666   34.9673   26.9858 C   0  0  0  0  0  0
   38.3279   34.4439   28.2217 C   0  0  0  0  0  0
   38.8077   37.2265   30.4854 N   0  0  0  0  0  0
   37.3030   36.8286   35.9919 C   0  0  0  0  0  0
   38.2159   37.2311   36.8933 N   0  0  0  0  0  0
   35.7166   38.1946   39.6604 S   0  0  0  0  0  0
   37.2571   38.4123   38.8724 C   0  0  0  0  0  0
   39.6755   38.2856   28.1207 O   0  0  0  0  0  0
   37.7252   36.8933   34.5428 C   0  0  0  0  0  0
   35.5149   39.8985   39.8824 C   0  0  0  0  0  0
   36.1789   36.4310   36.3052 O   0  0  0  0  0  0
   37.5840   39.7692   38.8599 C   0  0  0  0  0  0
   36.6109   40.6026   39.4179 C   0  0  0  0  0  0
   38.4365   37.0426   31.8282 C   0  0  0  0  0  0
   38.0449   37.2281   38.3490 C   0  0  0  0  0  0
   38.6730   37.8298   34.1046 C   0  0  0  0  0  0
   37.1405   36.0311   33.6061 C   0  0  0  0  0  0
   39.7806   36.8665   25.7453 C   0  0  0  0  0  0
   39.0109   37.9094   32.7578 C   0  0  0  0  0  0
   37.5089   36.0909   32.2624 C   0  0  0  0  0  0
   38.7409   34.1454   25.8468 C   0  0  0  0  0  0
   37.9090   33.1179   28.3134 C   0  0  0  0  0  0
   38.3101   32.8221   25.9475 C   0  0  0  0  0  0
   37.9091   32.3066   27.1788 C   0  0  0  0  0  0
   39.2918   38.0991   30.3317 H   0  0  0  0  0  0
   39.1455   37.4257   36.5574 H   0  0  0  0  0  0
   34.6187   40.2923   40.3382 H   0  0  0  0  0  0
   38.5058   40.1440   38.4386 H   0  0  0  0  0  0
   36.7001   41.6773   39.4703 H   0  0  0  0  0  0
   39.0391   37.2333   38.7896 H   0  0  0  0  0  0
   37.5855   36.2873   38.6624 H   0  0  0  0  0  0
   39.1320   38.5300   34.7894 H   0  0  0  0  0  0
   36.4072   35.2988   33.9128 H   0  0  0  0  0  0
   39.1015   36.7000   24.9103 H   0  0  0  0  0  0
   39.9736   37.9416   25.7812 H   0  0  0  0  0  0
   40.7155   36.3652   25.5123 H   0  0  0  0  0  0
   39.7248   38.6553   32.4415 H   0  0  0  0  0  0
   37.0361   35.4168   31.5638 H   0  0  0  0  0  0
   39.0645   34.5087   24.8841 H   0  0  0  0  0  0
   37.5790   32.7155   29.2585 H   0  0  0  0  0  0
   38.3044   32.1908   25.0707 H   0  0  0  0  0  0
   37.5860   31.2779   27.2557 H   0  0  0  0  0  0
  1  2  1  0  0  0
  1  4  2  0  0  0
  1  7  1  0  0  0
  2  3  1  0  0  0
  2 12  2  0  0  0
  3 22  1  0  0  0
  3  5  1  0  0  0
  4  6  1  0  0  0
  5  6  1  0  0  0
  5 25  2  0  0  0
  6 26  2  0  0  0
  7 18  1  0  0  0
  7 29  1  0  0  0
  8 13  1  0  0  0
  8  9  1  0  0  0
  8 15  2  0  0  0
  9 19  1  0  0  0
  9 30  1  0  0  0
 10 11  1  0  0  0
 10 14  1  0  0  0
 11 19  1  0  0  0
 11 16  2  0  0  0
 13 21  1  0  0  0
 13 20  2  0  0  0
 14 17  2  0  0  0
 14 31  1  0  0  0
 16 17  1  0  0  0
 16 32  1  0  0  0
 17 33  1  0  0  0
 18 23  2  0  0  0
 18 24  1  0  0  0
 19 34  1  0  0  0
 19 35  1  0  0  0
 20 23  1  0  0  0
 20 36  1  0  0  0
 21 24  2  0  0  0
 21 37  1  0  0  0
 22 38  1  0  0  0
 22 39  1  0  0  0
 22 40  1  0  0  0
 23 41  1  0  0  0
 24 42  1  0  0  0
 25 27  1  0  0  0
 25 43  1  0  0  0
 26 28  1  0  0  0
 26 44  1  0  0  0
 27 28  2  0  0  0
 27 45  1  0  0  0
 28 46  1  0  0  0
M  END
> <s_m_entry_id>
25133

> <s_m_entry_name>
dock_pv.6

> <s_m_Source_Path>
/home/csk/Desktop/cluster/DUD-E-result/pygm

> <s_m_Source_File>
dock_pv.maegz

> <i_m_Source_File_Index>
6

> <chembl_id>
CHEMBL194356

> <chembl_pref_name>
None

> <i_lp_mmshare_version>
53161

> <r_lp_tautomer_probability>
1

> <s_lp_Force_Field>
OPLS_2005

> <r_lp_Energy>
30.324962

> <b_lp_Chiralities_Consistent>
1

> <s_lp_Variant>
CHEMBL3526_lig81-1

> <s_i_glide_gridfile>
glide-grid_1c8k

> <i_i_glide_lignum>
122

> <i_i_glide_rotatable_bonds>
6

> <r_i_docking_score>
-7.34231010681582

> <r_i_glide_ligand_efficiency>
-0.262225360957708

> <r_i_glide_ligand_efficiency_sa>
-0.796270638345845

> <r_i_glide_ligand_efficiency_ln>
-1.69482075224535

> <r_i_glide_gscore>
-7.34231010681582

> <r_i_glide_lipo>
-3.45644022632263

> <r_i_glide_hbond>
-0.180763852985974

> <r_i_glide_metal>
0

> <r_i_glide_rewards>
-1.25696685982804

> <r_i_glide_evdw>
-46.533317565918

> <r_i_glide_ecoul>
-4.93596792221069

> <r_i_glide_erotb>
0.63967223889437

> <r_i_glide_esite>
-0.0207503399460365

> <r_i_glide_emodel>
-72.8816018308875

> <r_i_glide_energy>
-51.4692854881287

> <r_i_glide_einternal>
2.8866662979126

> <i_i_glide_confnum>
1

> <i_i_glide_posenum>
152

> <r_i_glide_eff_state_penalty>
0

> <s_user_duplicate_titles>
CHEMBL3526_lig81,327151

> <i_f3d_flags>
0

> <s_m_subgroup_title>
dock_pv

> <s_m_subgroupid>
dock_pv

> <b_m_subgroup_collapsed>
0

$$$$
CHEMBL3526_lig85
                    3D
 Schrodinger Suite 2021-1.
 46 49  0  0  1  0            999 V2000
   38.7946   36.5160   29.3222 C   0  0  0  0  0  0
   39.3643   36.4826   26.9959 N   0  0  0  0  0  0
   39.3614   37.2384   28.1440 C   0  0  0  0  0  0
   38.3358   35.3150   29.3181 N   0  0  0  0  0  0
   38.3734   34.5820   28.1122 C   0  0  0  0  0  0
   38.8810   35.1416   26.9173 C   0  0  0  0  0  0
   38.8256   37.2727   30.4895 N   0  0  0  0  0  0
   37.2940   36.8308   35.9785 C   0  0  0  0  0  0
   37.9086   33.2668   28.1262 C   0  0  0  0  0  0
   38.2166   37.2312   36.8716 N   0  0  0  0  0  0
   35.7395   38.1465   39.6593 S   0  0  0  0  0  0
   38.8979   34.3657   25.7473 C   0  0  0  0  0  0
   37.2704   38.3970   38.8645 C   0  0  0  0  0  0
   39.7875   38.3999   28.2045 O   0  0  0  0  0  0
   37.7122   36.8977   34.5288 C   0  0  0  0  0  0
   35.5135   39.8455   39.9053 C   0  0  0  0  0  0
   36.1727   36.4310   36.2996 O   0  0  0  0  0  0
   37.5734   39.7607   38.8633 C   0  0  0  0  0  0
   36.5928   40.5727   39.4391 C   0  0  0  0  0  0
   38.4350   37.0663   31.8214 C   0  0  0  0  0  0
   38.0746   37.2303   38.3285 C   0  0  0  0  0  0
   37.9426   32.5068   26.9580 C   0  0  0  0  0  0
   38.6510   37.8470   34.0989 C   0  0  0  0  0  0
   37.1386   36.0311   33.5857 C   0  0  0  0  0  0
   39.9041   37.0928   25.7686 C   0  0  0  0  0  0
   38.4287   33.0536   25.7729 C   0  0  0  0  0  0
   38.9956   37.9346   32.7570 C   0  0  0  0  0  0
   37.5091   36.1029   32.2420 C   0  0  0  0  0  0
   37.5088   31.2307   26.9696 F   0  0  0  0  0  0
   39.3193   38.1454   30.3667 H   0  0  0  0  0  0
   37.5283   32.8302   29.0367 H   0  0  0  0  0  0
   39.1405   37.4278   36.5202 H   0  0  0  0  0  0
   39.2858   34.7527   24.8177 H   0  0  0  0  0  0
   34.6156   40.2214   40.3717 H   0  0  0  0  0  0
   38.4844   40.1550   38.4384 H   0  0  0  0  0  0
   36.6671   41.6492   39.5027 H   0  0  0  0  0  0
   39.0802   37.2484   38.7477 H   0  0  0  0  0  0
   37.6403   36.2804   38.6484 H   0  0  0  0  0  0
   39.0994   38.5496   34.7884 H   0  0  0  0  0  0
   36.4146   35.2897   33.8877 H   0  0  0  0  0  0
   39.2344   36.9182   24.9250 H   0  0  0  0  0  0
   40.0426   38.1746   25.8383 H   0  0  0  0  0  0
   40.8735   36.6470   25.5444 H   0  0  0  0  0  0
   38.4570   32.4519   24.8770 H   0  0  0  0  0  0
   39.7064   38.6880   32.4516 H   0  0  0  0  0  0
   37.0537   35.4293   31.5330 H   0  0  0  0  0  0
  1  3  1  0  0  0
  1  4  2  0  0  0
  1  7  1  0  0  0
  2  3  1  0  0  0
  2 25  1  0  0  0
  2  6  1  0  0  0
  3 14  2  0  0  0
  4  5  1  0  0  0
  5  6  1  0  0  0
  5  9  2  0  0  0
  6 12  2  0  0  0
  7 20  1  0  0  0
  7 30  1  0  0  0
  8 15  1  0  0  0
  8 10  1  0  0  0
  8 17  2  0  0  0
  9 22  1  0  0  0
  9 31  1  0  0  0
 10 21  1  0  0  0
 10 32  1  0  0  0
 11 13  1  0  0  0
 11 16  1  0  0  0
 12 26  1  0  0  0
 12 33  1  0  0  0
 13 21  1  0  0  0
 13 18  2  0  0  0
 15 24  2  0  0  0
 15 23  1  0  0  0
 16 19  2  0  0  0
 16 34  1  0  0  0
 18 19  1  0  0  0
 18 35  1  0  0  0
 19 36  1  0  0  0
 20 27  1  0  0  0
 20 28  2  0  0  0
 21 37  1  0  0  0
 21 38  1  0  0  0
 22 26  2  0  0  0
 22 29  1  0  0  0
 23 27  2  0  0  0
 23 39  1  0  0  0
 24 28  1  0  0  0
 24 40  1  0  0  0
 25 41  1  0  0  0
 25 42  1  0  0  0
 25 43  1  0  0  0
 26 44  1  0  0  0
 27 45  1  0  0  0
 28 46  1  0  0  0
M  END
> <s_m_entry_id>
25134

> <s_m_entry_name>
dock_pv.7

> <s_m_Source_Path>
/home/csk/Desktop/cluster/DUD-E-result/pygm

> <s_m_Source_File>
dock_pv.maegz

> <i_m_Source_File_Index>
7

> <chembl_id>
CHEMBL193734

> <chembl_pref_name>
None

> <i_lp_mmshare_version>
53161

> <r_lp_tautomer_probability>
1

> <s_lp_Force_Field>
OPLS_2005

> <r_lp_Energy>
30.123855

> <b_lp_Chiralities_Consistent>
1

> <s_lp_Variant>
CHEMBL3526_lig85-1

> <s_i_glide_gridfile>
glide-grid_1c8k

> <i_i_glide_lignum>
126

> <i_i_glide_rotatable_bonds>
6

> <r_i_docking_score>
-7.22042338628151

> <r_i_glide_ligand_efficiency>
-0.248980116768328

> <r_i_glide_ligand_efficiency_sa>
-0.764945801149961

> <r_i_glide_ligand_efficiency_ln>
-1.65329386131918

> <r_i_glide_gscore>
-7.22042338628151

> <r_i_glide_lipo>
-3.36862651565389

> <r_i_glide_hbond>
-0.181624273135168

> <r_i_glide_metal>
0

> <r_i_glide_rewards>
-1.2384183220428

> <r_i_glide_evdw>
-46.7480010986328

> <r_i_glide_ecoul>
-4.43558216094971

> <r_i_glide_erotb>
0.589860812170471

> <r_i_glide_esite>
-0.0188777085460212

> <r_i_glide_emodel>
-71.870924061126

> <r_i_glide_energy>
-51.1835832595825

> <r_i_glide_einternal>
2.8658390045166

> <i_i_glide_confnum>
5

> <i_i_glide_posenum>
176

> <r_i_glide_eff_state_penalty>
0

> <s_user_duplicate_titles>
CHEMBL3526_lig85,327167

> <i_f3d_flags>
0

> <s_m_subgroup_title>
dock_pv

> <s_m_subgroupid>
dock_pv

> <b_m_subgroup_collapsed>
0

$$$$
CHEMBL3526_lig83
                    3D
 Schrodinger Suite 2021-1.
 49 52  0  0  1  0            999 V2000
   38.9344   36.4306   29.2304 C   0  0  0  0  0  0
   39.4851   37.1177   28.0252 C   0  0  0  0  0  0
   39.3890   36.3594   26.8810 N   0  0  0  0  0  0
   38.4363   35.2465   29.2529 N   0  0  0  0  0  0
   38.8806   35.0232   26.8421 C   0  0  0  0  0  0
   38.4044   34.4942   28.0611 C   0  0  0  0  0  0
   39.0158   37.1904   30.3966 N   0  0  0  0  0  0
   37.1035   36.7966   35.7715 C   0  0  0  0  0  0
   35.9196   39.6248   39.6610 S   0  0  0  0  0  0
   37.5523   39.4316   39.0666 C   0  0  0  0  0  0
   39.9726   38.2561   28.0587 O   0  0  0  0  0  0
   37.6549   36.8528   34.3693 C   0  0  0  0  0  0
   35.9236   41.3191   39.3099 C   0  0  0  0  0  0
   38.0336   40.6654   38.6274 C   0  0  0  0  0  0
   35.9410   36.4311   35.9673 O   0  0  0  0  0  0
   37.1283   41.7209   38.7625 C   0  0  0  0  0  0
   37.9288   37.1486   36.7723 N   0  0  0  0  0  0
   38.5478   37.0124   31.7105 C   0  0  0  0  0  0
   37.1090   36.0228   33.3830 C   0  0  0  0  0  0
   38.6690   37.7534   34.0139 C   0  0  0  0  0  0
   39.8652   36.9456   25.6187 C   0  0  0  0  0  0
   38.2507   38.0855   39.0889 C   0  0  0  0  0  0
   39.1021   37.8344   32.6940 C   0  0  0  0  0  0
   37.5479   36.1013   32.0656 C   0  0  0  0  0  0
   37.5919   37.0206   38.1906 C   0  0  0  0  0  0
   38.8419   34.2235   25.6876 C   0  0  0  0  0  0
   37.9095   33.1922   28.1179 C   0  0  0  0  0  0
   38.3633   32.9147   25.7580 C   0  0  0  0  0  0
   37.9089   32.3986   26.9704 C   0  0  0  0  0  0
   39.5648   38.0307   30.2856 H   0  0  0  0  0  0
   35.0526   41.9243   39.5187 H   0  0  0  0  0  0
   39.0241   40.7939   38.2174 H   0  0  0  0  0  0
   37.3445   42.7391   38.4701 H   0  0  0  0  0  0
   38.8970   37.3249   36.5515 H   0  0  0  0  0  0
   36.3246   35.3206   33.6237 H   0  0  0  0  0  0
   39.1030   38.4233   34.7417 H   0  0  0  0  0  0
   39.1087   36.8307   24.8404 H   0  0  0  0  0  0
   40.0866   38.0128   25.6795 H   0  0  0  0  0  0
   40.7668   36.4345   25.2962 H   0  0  0  0  0  0
   39.3042   38.1843   38.8216 H   0  0  0  0  0  0
   38.2655   37.7086   40.1122 H   0  0  0  0  0  0
   39.8718   38.5477   32.4409 H   0  0  0  0  0  0
   37.0858   35.4645   31.3288 H   0  0  0  0  0  0
   37.9087   36.0315   38.5049 H   0  0  0  0  0  0
   36.5130   37.0234   38.3604 H   0  0  0  0  0  0
   39.1975   34.5911   24.7368 H   0  0  0  0  0  0
   37.5499   32.7852   29.0519 H   0  0  0  0  0  0
   38.3550   32.2979   24.8710 H   0  0  0  0  0  0
   37.5425   31.3822   27.0213 H   0  0  0  0  0  0
  1  2  1  0  0  0
  1  4  2  0  0  0
  1  7  1  0  0  0
  2  3  1  0  0  0
  2 11  2  0  0  0
  3 21  1  0  0  0
  3  5  1  0  0  0
  4  6  1  0  0  0
  5  6  1  0  0  0
  5 26  2  0  0  0
  6 27  2  0  0  0
  7 18  1  0  0  0
  7 30  1  0  0  0
  8 12  1  0  0  0
  8 15  2  0  0  0
  8 17  1  0  0  0
  9 10  1  0  0  0
  9 13  1  0  0  0
 10 22  1  0  0  0
 10 14  2  0  0  0
 12 19  2  0  0  0
 12 20  1  0  0  0
 13 16  2  0  0  0
 13 31  1  0  0  0
 14 16  1  0  0  0
 14 32  1  0  0  0
 16 33  1  0  0  0
 17 25  1  0  0  0
 17 34  1  0  0  0
 18 23  1  0  0  0
 18 24  2  0  0  0
 19 24  1  0  0  0
 19 35  1  0  0  0
 20 23  2  0  0  0
 20 36  1  0  0  0
 21 37  1  0  0  0
 21 38  1  0  0  0
 21 39  1  0  0  0
 22 25  1  0  0  0
 22 40  1  0  0  0
 22 41  1  0  0  0
 23 42  1  0  0  0
 24 43  1  0  0  0
 25 44  1  0  0  0
 25 45  1  0  0  0
 26 28  1  0  0  0
 26 46  1  0  0  0
 27 29  1  0  0  0
 27 47  1  0  0  0
 28 29  2  0  0  0
 28 48  1  0  0  0
 29 49  1  0  0  0
M  END
> <s_m_entry_id>
25135

> <s_m_entry_name>
dock_pv.8

> <s_m_Source_Path>
/home/csk/Desktop/cluster/DUD-E-result/pygm

> <s_m_Source_File>
dock_pv.maegz

> <i_m_Source_File_Index>
8

> <chembl_id>
CHEMBL370907

> <chembl_pref_name>
None

> <i_lp_mmshare_version>
53161

> <r_lp_tautomer_probability>
1

> <s_lp_Force_Field>
OPLS_2005

> <r_lp_Energy>
27.748431

> <b_lp_Chiralities_Consistent>
1

> <s_lp_Variant>
CHEMBL3526_lig83-1

> <s_i_glide_gridfile>
glide-grid_1c8k

> <i_i_glide_lignum>
124

> <i_i_glide_rotatable_bonds>
7

> <r_i_docking_score>
-7.07300764729007

> <r_i_glide_ligand_efficiency>
-0.243896815423796

> <r_i_glide_ligand_efficiency_sa>
-0.749328288916653

> <r_i_glide_ligand_efficiency_ln>
-1.61953939523075

> <r_i_glide_gscore>
-7.07300764729007

> <r_i_glide_lipo>
-3.38220219205803

> <r_i_glide_hbond>
-0.175274760606674

> <r_i_glide_metal>
0

> <r_i_glide_rewards>
-1.09403637563752

> <r_i_glide_evdw>
-46.1119232177734

> <r_i_glide_ecoul>
-5.47496700286865

> <r_i_glide_erotb>
0.720385741918878

> <r_i_glide_esite>
-0.0150388495877544

> <r_i_glide_emodel>
-71.1698137409446

> <r_i_glide_energy>
-51.5868902206421

> <r_i_glide_einternal>
5.02409839630127

> <i_i_glide_confnum>
4

> <i_i_glide_posenum>
253

> <r_i_glide_eff_state_penalty>
0

> <s_user_duplicate_titles>
CHEMBL3526_lig83

> <i_f3d_flags>
0

> <s_m_subgroup_title>
dock_pv

> <s_m_subgroupid>
dock_pv

> <b_m_subgroup_collapsed>
0

$$$$
CHEMBL3526_lig76
                    3D
 Schrodinger Suite 2021-1.
 42 45  0  0  1  0            999 V2000
   38.8468   37.1164   30.3120 C   0  0  0  0  0  0
   39.4993   37.8617   29.1916 C   0  0  0  0  0  0
   39.4991   37.1637   28.0022 N   0  0  0  0  0  0
   38.2985   35.9596   30.2163 N   0  0  0  0  0  0
   36.4050   36.7907   38.8948 C   0  0  0  0  0  0
   36.3917   36.6086   37.4695 C   0  0  0  0  0  0
   38.9145   35.8726   27.8318 C   0  0  0  0  0  0
   38.3123   35.2969   28.9702 C   0  0  0  0  0  0
   38.9151   37.7718   31.5407 N   0  0  0  0  0  0
   35.5090   36.8310   40.9457 N   0  0  0  0  0  0
   35.2759   36.5228   39.6036 O   0  0  0  0  0  0
   37.6074   36.7268   36.8913 N   0  0  0  0  0  0
   37.3418   37.3365   39.7591 C   0  0  0  0  0  0
   39.9907   38.9886   29.3257 O   0  0  0  0  0  0
   35.3339   36.4279   36.8597 O   0  0  0  0  0  0
   36.7383   37.2845   41.0061 C   0  0  0  0  0  0
   38.5500   37.4162   32.8520 C   0  0  0  0  0  0
   37.8871   36.9073   35.5256 C   0  0  0  0  0  0
   40.1450   37.7786   26.8293 C   0  0  0  0  0  0
   38.9420   37.7643   35.2154 C   0  0  0  0  0  0
   39.2577   38.0310   33.8867 C   0  0  0  0  0  0
   37.1694   36.2880   34.4932 C   0  0  0  0  0  0
   37.5090   36.5299   33.1626 C   0  0  0  0  0  0
   38.9092   35.1611   26.6199 C   0  0  0  0  0  0
   37.7332   34.0306   28.8937 C   0  0  0  0  0  0
   38.3346   33.8917   26.5553 C   0  0  0  0  0  0
   37.7599   33.3238   27.6908 C   0  0  0  0  0  0
   39.4772   38.6075   31.5088 H   0  0  0  0  0  0
   38.3869   36.8559   37.5179 H   0  0  0  0  0  0
   38.3401   37.6815   39.5325 H   0  0  0  0  0  0
   37.1867   37.5847   41.9433 H   0  0  0  0  0  0
   39.4173   37.9089   26.0288 H   0  0  0  0  0  0
   40.5857   38.7580   27.0266 H   0  0  0  0  0  0
   40.9444   37.1325   26.4657 H   0  0  0  0  0  0
   39.5043   38.2570   35.9964 H   0  0  0  0  0  0
   40.0603   38.7188   33.6664 H   0  0  0  0  0  0
   36.3525   35.6189   34.7085 H   0  0  0  0  0  0
   36.9465   36.0449   32.3807 H   0  0  0  0  0  0
   39.3478   35.5727   25.7222 H   0  0  0  0  0  0
   37.2688   33.5975   29.7653 H   0  0  0  0  0  0
   38.3438   33.3415   25.6255 H   0  0  0  0  0  0
   37.3240   32.3365   27.6338 H   0  0  0  0  0  0
  1  2  1  0  0  0
  1  4  2  0  0  0
  1  9  1  0  0  0
  2  3  1  0  0  0
  2 14  2  0  0  0
  3 19  1  0  0  0
  3  7  1  0  0  0
  4  8  1  0  0  0
  5  6  1  0  0  0
  5 11  1  0  0  0
  5 13  2  0  0  0
  6 12  1  0  0  0
  6 15  2  0  0  0
  7  8  1  0  0  0
  7 24  2  0  0  0
  8 25  2  0  0  0
  9 17  1  0  0  0
  9 28  1  0  0  0
 10 11  1  0  0  0
 10 16  2  0  0  0
 12 18  1  0  0  0
 12 29  1  0  0  0
 13 16  1  0  0  0
 13 30  1  0  0  0
 16 31  1  0  0  0
 17 21  2  0  0  0
 17 23  1  0  0  0
 18 22  1  0  0  0
 18 20  2  0  0  0
 19 32  1  0  0  0
 19 33  1  0  0  0
 19 34  1  0  0  0
 20 21  1  0  0  0
 20 35  1  0  0  0
 21 36  1  0  0  0
 22 23  2  0  0  0
 22 37  1  0  0  0
 23 38  1  0  0  0
 24 26  1  0  0  0
 24 39  1  0  0  0
 25 27  1  0  0  0
 25 40  1  0  0  0
 26 27  2  0  0  0
 26 41  1  0  0  0
 27 42  1  0  0  0
M  END
> <s_m_entry_id>
25136

> <s_m_entry_name>
dock_pv.9

> <s_m_Source_Path>
/home/csk/Desktop/cluster/DUD-E-result/pygm

> <s_m_Source_File>
dock_pv.maegz

> <i_m_Source_File_Index>
9

> <chembl_id>
CHEMBL371986

> <chembl_pref_name>
None

> <i_lp_mmshare_version>
53161

> <r_lp_tautomer_probability>
1

> <s_lp_Force_Field>
OPLS_2005

> <r_lp_Energy>
39.082229

> <b_lp_Chiralities_Consistent>
1

> <s_lp_Variant>
CHEMBL3526_lig76-1

> <s_i_glide_gridfile>
glide-grid_1c8k

> <i_i_glide_lignum>
116

> <i_i_glide_rotatable_bonds>
5

> <r_i_docking_score>
-7.05132001363286

> <r_i_glide_ligand_efficiency>
-0.261160000504921

> <r_i_glide_ligand_efficiency_sa>
-0.783480000654022

> <r_i_glide_ligand_efficiency_ln>
-1.64143104907787

> <r_i_glide_gscore>
-7.05132001363286

> <r_i_glide_lipo>
-3.28883630156001

> <r_i_glide_hbond>
-0.344907886231566

> <r_i_glide_metal>
0

> <r_i_glide_rewards>
-1.02461327346066

> <r_i_glide_evdw>
-44.2464294433594

> <r_i_glide_ecoul>
-5.40236902236938

> <r_i_glide_erotb>
0.734799272295661

> <r_i_glide_esite>
-0.105084999152904

> <r_i_glide_emodel>
-69.2115191248414

> <r_i_glide_energy>
-49.6487984657288

> <r_i_glide_einternal>
3.49602317810059

> <i_i_glide_confnum>
1

> <i_i_glide_posenum>
27

> <r_i_glide_eff_state_penalty>
0

> <s_user_duplicate_titles>
CHEMBL3526_lig76,327015

> <i_f3d_flags>
0

> <s_m_subgroup_title>
dock_pv

> <s_m_subgroupid>
dock_pv

> <b_m_subgroup_collapsed>
0

$$$$
CHEMBL3526_lig34
                    3D
 Schrodinger Suite 2021-1.
 44 46  0  0  1  0            999 V2000
   37.9065   33.4512   24.7664 N   0  3  0  0  0  0
   38.0590   36.9984   34.2706 C   0  0  0  0  0  0
   39.3923   37.2318   27.7161 C   0  0  0  0  0  0
   38.8654   37.4030   35.3804 C   0  0  0  0  0  0
   39.2237   37.7289   28.9581 N   0  0  0  0  0  0
   39.1754   39.0697   29.3738 C   0  0  0  0  0  0
   38.1899   34.0048   26.0873 C   0  0  0  0  0  0
   38.9291   35.8022   27.5220 C   0  0  0  0  0  0
   36.7939   36.1851   34.3884 C   0  0  0  0  0  0
   38.7095   35.2972   26.2317 C   0  0  0  0  0  0
   38.6280   36.9854   36.8306 C   0  0  0  0  0  0
   39.4983   39.3374   30.7115 C   0  0  0  0  0  0
   38.7090   40.1056   28.5486 C   0  0  0  0  0  0
   39.9988   38.1961   35.1123 C   0  0  0  0  0  0
   37.0913   34.0310   24.0601 O   0  5  0  0  0  0
   40.0510   38.3321   31.4712 O   0  0  0  0  0  0
   38.6610   35.0505   28.6320 N   0  0  0  0  0  0
   38.4460   37.3707   32.9719 C   0  0  0  0  0  0
   38.4857   32.4196   24.4600 O   0  0  0  0  0  0
   39.6074   38.1022   32.7456 C   0  0  0  0  0  0
   39.8500   37.8868   26.7787 O   0  0  0  0  0  0
   35.9089   36.4577   35.1876 O   0  0  0  0  0  0
   37.6159   36.4320   37.2469 O   0  0  0  0  0  0
   39.3299   40.6319   31.2190 C   0  0  0  0  0  0
   38.5308   41.3873   29.0690 C   0  0  0  0  0  0
   40.3748   38.5264   33.8181 C   0  0  0  0  0  0
   37.9186   33.2392   27.2206 C   0  0  0  0  0  0
   36.7095   35.1440   33.5133 O   0  0  0  0  0  0
   39.6755   37.2322   37.6601 O   0  0  0  0  0  0
   38.1655   33.7994   28.4667 C   0  0  0  0  0  0
   38.8391   41.6490   30.4023 C   0  0  0  0  0  0
   38.0377   42.3741   28.2887 F   0  0  0  0  0  0
   39.0270   37.0546   29.6815 H   0  0  0  0  0  0
   38.8999   35.9068   25.3581 H   0  0  0  0  0  0
   38.4407   39.9219   27.5181 H   0  0  0  0  0  0
   40.6459   38.5419   35.9067 H   0  0  0  0  0  0
   37.8689   37.0703   32.1083 H   0  0  0  0  0  0
   39.5886   40.8520   32.2444 H   0  0  0  0  0  0
   41.2788   39.0904   33.6450 H   0  0  0  0  0  0
   37.5154   32.2398   27.1347 H   0  0  0  0  0  0
   37.5485   35.0260   33.0602 H   0  0  0  0  0  0
   39.5093   36.8486   38.5330 H   0  0  0  0  0  0
   37.9490   33.2324   29.3524 H   0  0  0  0  0  0
   38.7103   42.6447   30.8000 H   0  0  0  0  0  0
  1  7  1  0  0  0
  1 15  1  0  0  0
  1 19  2  0  0  0
  2 18  2  0  0  0
  2  9  1  0  0  0
  2  4  1  0  0  0
  3  8  1  0  0  0
  3  5  1  0  0  0
  3 21  2  0  0  0
  4 14  2  0  0  0
  4 11  1  0  0  0
  5  6  1  0  0  0
  5 33  1  0  0  0
  6 12  2  0  0  0
  6 13  1  0  0  0
  7 10  2  0  0  0
  7 27  1  0  0  0
  8 10  1  0  0  0
  8 17  2  0  0  0
  9 22  2  0  0  0
  9 28  1  0  0  0
 10 34  1  0  0  0
 11 23  2  0  0  0
 11 29  1  0  0  0
 12 16  1  0  0  0
 12 24  1  0  0  0
 13 25  2  0  0  0
 13 35  1  0  0  0
 14 26  1  0  0  0
 14 36  1  0  0  0
 16 20  1  0  0  0
 17 30  1  0  0  0
 18 20  1  0  0  0
 18 37  1  0  0  0
 20 26  2  0  0  0
 24 31  2  0  0  0
 24 38  1  0  0  0
 25 31  1  0  0  0
 25 32  1  0  0  0
 26 39  1  0  0  0
 27 30  2  0  0  0
 27 40  1  0  0  0
 28 41  1  0  0  0
 29 42  1  0  0  0
 30 43  1  0  0  0
 31 44  1  0  0  0
M  CHG  2   1   1  15  -1
M  END
> <s_m_entry_id>
25137

> <s_m_entry_name>
dock_pv.10

> <s_m_Source_Path>
/home/csk/Desktop/cluster/DUD-E-result/pygm

> <s_m_Source_File>
dock_pv.maegz

> <i_m_Source_File_Index>
10

> <chembl_id>
CHEMBL133114

> <chembl_pref_name>
None

> <i_lp_mmshare_version>
53161

> <r_lp_tautomer_probability>
1

> <s_lp_Force_Field>
OPLS_2005

> <r_lp_Energy>
32.852726

> <b_lp_Chiralities_Consistent>
1

> <s_lp_Variant>
CHEMBL3526_lig34-1

> <s_i_glide_gridfile>
glide-grid_1c8k

> <i_i_glide_lignum>
55

> <i_i_glide_rotatable_bonds>
10

> <r_i_docking_score>
-7.02613689119873

> <r_i_glide_ligand_efficiency>
-0.21956677784996

> <r_i_glide_ligand_efficiency_sa>
-0.69708106746729

> <r_i_glide_ligand_efficiency_ln>
-1.57334357519749

> <r_i_glide_gscore>
-7.02613689119873

> <r_i_glide_lipo>
-2.53699286548785

> <r_i_glide_hbond>
-0.0548103900002066

> <r_i_glide_metal>
0

> <r_i_glide_rewards>
-1.2272509938094

> <r_i_glide_evdw>
-48.0474815368652

> <r_i_glide_ecoul>
-9.6942310333252

> <r_i_glide_erotb>
0.7178787749212

> <r_i_glide_esite>
-0.068452684980429

> <r_i_glide_emodel>
-76.5550636176091

> <r_i_glide_energy>
-57.7417125701904

> <r_i_glide_einternal>
12.051344871521

> <i_i_glide_confnum>
57

> <i_i_glide_posenum>
248

> <r_i_glide_eff_state_penalty>
0

> <s_user_duplicate_titles>
CHEMBL3526_lig34,219201

> <i_f3d_flags>
0

> <s_m_subgroup_title>
dock_pv

> <s_m_subgroupid>
dock_pv

> <b_m_subgroup_collapsed>
0

$$$$
CHEMBL3526_lig101
                    3D
 Schrodinger Suite 2021-1.
 44 45  0  0  1  0            999 V2000
   38.8371   38.1505   35.3303 C   0  0  2  0  0  0
   38.0195   36.8293   35.3981 C   0  0  2  0  0  0
   37.2872   36.5624   34.0613 C   0  0  1  0  0  0
   38.2077   36.8111   32.8371 C   0  0  2  0  0  0
   38.9562   38.1547   32.9697 C   0  0  1  0  0  0
   39.6778   38.1666   34.1694 O   0  0  0  0  0  0
   39.7137   38.4382   36.5699 C   0  0  0  0  0  0
   40.8693   37.4496   36.7848 C   0  0  0  0  0  0
   37.1265   36.8076   36.5043 O   0  0  0  0  0  0
   36.7092   35.2654   34.0099 O   0  0  0  0  0  0
   37.5092   36.6651   31.6177 O   0  0  0  0  0  0
   39.7906   38.3355   31.8033 N   0  0  0  0  0  0
   39.4733   39.1539   30.7519 C   0  0  0  0  0  0
   39.4457   38.5949   29.5074 N   0  0  0  0  0  0
   39.2561   37.2756   29.2851 N   0  0  0  0  0  0
   39.1095   36.9920   28.0519 C   0  0  0  0  0  0
   38.7474   35.6547   27.5646 C   0  0  0  0  0  0
   38.3087   34.6390   28.4298 C   0  0  0  0  0  0
   37.9091   33.4042   27.9252 C   0  0  0  0  0  0
   37.9481   33.1791   26.5539 C   0  0  0  0  0  0
   38.3953   34.1644   25.6836 C   0  0  0  0  0  0
   38.7922   35.3990   26.1872 C   0  0  0  0  0  0
   39.0733   40.7645   30.9063 S   0  0  0  0  0  0
   37.5412   31.9921   26.0604 F   0  0  0  0  0  0
   38.1422   38.9870   35.2593 H   0  0  0  0  0  0
   38.7083   36.0076   35.5692 H   0  0  0  0  0  0
   36.4349   37.2376   34.0122 H   0  0  0  0  0  0
   38.9655   36.0319   32.8128 H   0  0  0  0  0  0
   38.3087   39.0294   32.9887 H   0  0  0  0  0  0
   40.1295   39.4428   36.4758 H   0  0  0  0  0  0
   39.0908   38.4673   37.4642 H   0  0  0  0  0  0
   41.4342   37.6996   37.6834 H   0  0  0  0  0  0
   40.4986   36.4320   36.9048 H   0  0  0  0  0  0
   41.5633   37.4559   35.9419 H   0  0  0  0  0  0
   37.6313   36.6242   37.3042 H   0  0  0  0  0  0
   37.4219   34.6306   33.8958 H   0  0  0  0  0  0
   38.1258   36.7952   30.8873 H   0  0  0  0  0  0
   40.5666   37.7005   31.6865 H   0  0  0  0  0  0
   39.4869   39.1872   28.6878 H   0  0  0  0  0  0
   39.2185   37.7370   27.2629 H   0  0  0  0  0  0
   38.2550   34.8005   29.4968 H   0  0  0  0  0  0
   37.5631   32.6263   28.5906 H   0  0  0  0  0  0
   38.4178   33.9754   24.6216 H   0  0  0  0  0  0
   39.1091   36.1652   25.4943 H   0  0  0  0  0  0
  1  7  1  0  0  0
  1  2  1  0  0  0
  1  6  1  0  0  0
  1 25  1  0  0  0
  2  9  1  0  0  0
  2  3  1  0  0  0
  2 26  1  0  0  0
  3 10  1  0  0  0
  3  4  1  0  0  0
  3 27  1  0  0  0
  4 11  1  0  0  0
  4  5  1  0  0  0
  4 28  1  0  0  0
  5 12  1  0  0  0
  5  6  1  0  0  0
  5 29  1  0  0  0
  7  8  1  0  0  0
  7 30  1  0  0  0
  7 31  1  0  0  0
  8 32  1  0  0  0
  8 33  1  0  0  0
  8 34  1  0  0  0
  9 35  1  0  0  0
 10 36  1  0  0  0
 11 37  1  0  0  0
 12 13  1  0  0  0
 12 38  1  0  0  0
 13 14  1  0  0  0
 13 23  2  0  0  0
 14 15  1  0  0  0
 14 39  1  0  0  0
 15 16  2  0  0  0
 16 17  1  0  0  0
 16 40  1  0  0  0
 17 18  2  0  0  0
 17 22  1  0  0  0
 18 19  1  0  0  0
 18 41  1  0  0  0
 19 20  2  0  0  0
 19 42  1  0  0  0
 20 21  1  0  0  0
 20 24  1  0  0  0
 21 22  2  0  0  0
 21 43  1  0  0  0
 22 44  1  0  0  0
M  END
> <s_m_entry_id>
25138

> <s_m_entry_name>
dock_pv.11

> <s_m_Source_Path>
/home/csk/Desktop/cluster/DUD-E-result/pygm

> <s_m_Source_File>
dock_pv.maegz

> <i_m_Source_File_Index>
11

> <chembl_id>
CHEMBL1277321

> <chembl_pref_name>
None

> <i_lp_mmshare_version>
53161

> <r_lp_tautomer_probability>
1

> <s_lp_Force_Field>
OPLS_2005

> <r_lp_Energy>
24.485964

> <b_lp_Chiralities_Consistent>
1

> <s_lp_Variant>
CHEMBL3526_lig101-1

> <s_i_glide_gridfile>
glide-grid_1c8k

> <i_i_glide_lignum>
142

> <i_i_glide_rotatable_bonds>
9

> <r_i_docking_score>
-7.01129583390507

> <r_i_glide_ligand_efficiency>
-0.292137326412711

> <r_i_glide_ligand_efficiency_sa>
-0.842669866086292

> <r_i_glide_ligand_efficiency_ln>
-1.67812482045526

> <r_i_glide_gscore>
-7.01129583390507

> <r_i_glide_lipo>
-2.69794851892499

> <r_i_glide_hbond>
0

> <r_i_glide_metal>
0

> <r_i_glide_rewards>
-2.06631270567088

> <r_i_glide_evdw>
-36.9126663208008

> <r_i_glide_ecoul>
-6.67252016067505

> <r_i_glide_erotb>
0.599476730832103

> <r_i_glide_esite>
0

> <r_i_glide_emodel>
-48.6874056317545

> <r_i_glide_energy>
-43.5851864814758

> <r_i_glide_einternal>
25.4334201812744

> <i_i_glide_confnum>
2

> <i_i_glide_posenum>
165

> <r_i_glide_eff_state_penalty>
0

> <s_user_duplicate_titles>
CHEMBL3526_lig101

> <i_f3d_flags>
0

> <s_m_subgroup_title>
dock_pv

> <s_m_subgroupid>
dock_pv

> <b_m_subgroup_collapsed>
0

$$$$
CHEMBL3526_lig38
                    3D
 Schrodinger Suite 2021-1.
 46 48  0  0  1  0            999 V2000
   39.1229   40.3443   29.3912 C   0  0  0  0  0  0
   38.9281   40.8245   28.0668 C   0  0  0  0  0  0
   37.4547   35.6328   31.6059 C   0  0  0  0  0  0
   38.2312   35.9013   30.5323 N   0  0  0  0  0  0
   38.9554   41.2036   30.6142 C   0  0  0  0  0  0
   37.7620   36.4320   32.8591 C   0  0  0  0  0  0
   38.4899   42.2405   27.7469 C   0  0  0  0  0  0
   38.3085   35.2890   29.2656 C   0  0  0  0  0  0
   39.2713   35.8092   28.3831 C   0  0  0  0  0  0
   39.1034   39.9253   27.0019 C   0  0  0  0  0  0
   37.1099   36.1415   34.0688 C   0  0  0  0  0  0
   40.0916   36.8476   28.7698 O   0  0  0  0  0  0
   38.7235   37.3977   32.7919 N   0  0  0  0  0  0
   39.5174   39.0142   29.5920 C   0  0  0  0  0  0
   39.6849   38.1379   28.5220 C   0  0  0  0  0  0
   36.5524   34.7924   31.6236 O   0  0  0  0  0  0
   37.9096   41.2313   31.2584 O   0  0  0  0  0  0
   37.7167   42.8770   28.4598 O   0  0  0  0  0  0
   37.5034   36.7876   35.2447 C   0  0  0  0  0  0
   39.4754   38.6034   27.2261 C   0  0  0  0  0  0
   40.0650   41.9350   30.9062 O   0  0  0  0  0  0
   39.0283   42.7457   26.6019 O   0  0  0  0  0  0
   39.0916   38.0326   33.9302 C   0  0  0  0  0  0
   38.5271   37.7441   35.1709 C   0  0  0  0  0  0
   36.8543   36.4310   36.4102 O   0  0  0  0  0  0
   37.5249   34.1939   28.8594 C   0  0  0  0  0  0
   39.4415   35.2361   27.1200 C   0  0  0  0  0  0
   37.4209   36.8240   37.6577 C   0  0  0  0  0  0
   37.7020   33.6352   27.5928 C   0  0  0  0  0  0
   38.6538   34.1589   26.7208 C   0  0  0  0  0  0
   38.9234   36.6218   30.6723 H   0  0  0  0  0  0
   38.9148   40.2158   25.9760 H   0  0  0  0  0  0
   36.3436   35.3826   34.1136 H   0  0  0  0  0  0
   39.6975   38.6425   30.5903 H   0  0  0  0  0  0
   39.5860   37.9409   26.3810 H   0  0  0  0  0  0
   40.7540   41.7654   30.2618 H   0  0  0  0  0  0
   39.6187   42.1124   26.1911 H   0  0  0  0  0  0
   39.8625   38.7836   33.8354 H   0  0  0  0  0  0
   38.8698   38.2792   36.0427 H   0  0  0  0  0  0
   36.7792   33.7551   29.5022 H   0  0  0  0  0  0
   40.2016   35.6181   26.4557 H   0  0  0  0  0  0
   36.8523   36.3745   38.4717 H   0  0  0  0  0  0
   38.4507   36.4757   37.7509 H   0  0  0  0  0  0
   37.3986   37.9050   37.7974 H   0  0  0  0  0  0
   37.1028   32.7914   27.2850 H   0  0  0  0  0  0
   38.7944   33.7191   25.7444 H   0  0  0  0  0  0
  1  2  1  0  0  0
  1  5  1  0  0  0
  1 14  2  0  0  0
  2  7  1  0  0  0
  2 10  2  0  0  0
  3  4  1  0  0  0
  3  6  1  0  0  0
  3 16  2  0  0  0
  4  8  1  0  0  0
  4 31  1  0  0  0
  5 17  2  0  0  0
  5 21  1  0  0  0
  6 11  1  0  0  0
  6 13  2  0  0  0
  7 18  2  0  0  0
  7 22  1  0  0  0
  8  9  2  0  0  0
  8 26  1  0  0  0
  9 12  1  0  0  0
  9 27  1  0  0  0
 10 20  1  0  0  0
 10 32  1  0  0  0
 11 19  2  0  0  0
 11 33  1  0  0  0
 12 15  1  0  0  0
 13 23  1  0  0  0
 14 15  1  0  0  0
 14 34  1  0  0  0
 15 20  2  0  0  0
 19 25  1  0  0  0
 19 24  1  0  0  0
 20 35  1  0  0  0
 21 36  1  0  0  0
 22 37  1  0  0  0
 23 24  2  0  0  0
 23 38  1  0  0  0
 24 39  1  0  0  0
 25 28  1  0  0  0
 26 29  2  0  0  0
 26 40  1  0  0  0
 27 30  2  0  0  0
 27 41  1  0  0  0
 28 42  1  0  0  0
 28 43  1  0  0  0
 28 44  1  0  0  0
 29 30  1  0  0  0
 29 45  1  0  0  0
 30 46  1  0  0  0
M  END
> <s_m_entry_id>
25139

> <s_m_entry_name>
dock_pv.12

> <s_m_Source_Path>
/home/csk/Desktop/cluster/DUD-E-result/pygm

> <s_m_Source_File>
dock_pv.maegz

> <i_m_Source_File_Index>
12

> <chembl_id>
CHEMBL131644

> <chembl_pref_name>
None

> <i_lp_mmshare_version>
53161

> <r_lp_tautomer_probability>
1

> <s_lp_Force_Field>
OPLS_2005

> <r_lp_Energy>
34.195324

> <b_lp_Chiralities_Consistent>
1

> <s_lp_Variant>
CHEMBL3526_lig38-1

> <s_i_glide_gridfile>
glide-grid_1c8k

> <i_i_glide_lignum>
59

> <i_i_glide_rotatable_bonds>
10

> <r_i_docking_score>
-7.00790793585369

> <r_i_glide_ligand_efficiency>
-0.233596931195123

> <r_i_glide_ligand_efficiency_sa>
-0.725839977077644

> <r_i_glide_ligand_efficiency_ln>
-1.59227304029866

> <r_i_glide_gscore>
-7.00790793585369

> <r_i_glide_lipo>
-2.8505466115965

> <r_i_glide_hbond>
-0.463634758442671

> <r_i_glide_metal>
0

> <r_i_glide_rewards>
-0.933395460143385

> <r_i_glide_evdw>
-44.1350975036621

> <r_i_glide_ecoul>
-8.98030281066895

> <r_i_glide_erotb>
0.826128786548906

> <r_i_glide_esite>
-0.0326595954365924

> <r_i_glide_emodel>
-71.1589918632769

> <r_i_glide_energy>
-53.1154003143311

> <r_i_glide_einternal>
10.6586055755615

> <i_i_glide_confnum>
14

> <i_i_glide_posenum>
395

> <r_i_glide_eff_state_penalty>
0

> <s_user_duplicate_titles>
CHEMBL3526_lig38,219757

> <i_f3d_flags>
0

> <s_m_subgroup_title>
dock_pv

> <s_m_subgroupid>
dock_pv

> <b_m_subgroup_collapsed>
0

$$$$
CHEMBL3526_lig75
                    3D
 Schrodinger Suite 2021-1.
 42 45  0  0  1  0            999 V2000
   38.8181   37.2155   30.5688 C   0  0  0  0  0  0
   39.3798   38.0181   29.4405 C   0  0  0  0  0  0
   39.3508   37.3533   28.2352 N   0  0  0  0  0  0
   38.3094   36.0395   30.4653 N   0  0  0  0  0  0
   36.2646   36.7304   39.1041 C   0  0  0  0  0  0
   36.3029   36.5700   37.6636 C   0  0  0  0  0  0
   38.8472   36.0267   28.0598 C   0  0  0  0  0  0
   38.3163   35.3990   29.2079 C   0  0  0  0  0  0
   35.1861   36.5039   39.8346 N   0  0  0  0  0  0
   38.9227   37.8364   31.8134 N   0  0  0  0  0  0
   37.5357   36.6676   37.1182 N   0  0  0  0  0  0
   37.2963   37.2325   39.9170 C   0  0  0  0  0  0
   35.5092   36.8310   41.1554 O   0  0  0  0  0  0
   39.8229   39.1671   29.5852 O   0  0  0  0  0  0
   36.7919   37.2543   41.1919 C   0  0  0  0  0  0
   35.2633   36.4288   37.0143 O   0  0  0  0  0  0
   38.5562   37.4540   33.1166 C   0  0  0  0  0  0
   37.8487   36.8816   35.7652 C   0  0  0  0  0  0
   39.8892   38.0399   27.0490 C   0  0  0  0  0  0
   38.9195   37.7327   35.4938 C   0  0  0  0  0  0
   39.2572   38.0319   34.1762 C   0  0  0  0  0  0
   37.1437   36.2949   34.7076 C   0  0  0  0  0  0
   37.5093   36.5701   33.3913 C   0  0  0  0  0  0
   38.8447   35.3347   26.8361 C   0  0  0  0  0  0
   37.7987   34.1071   29.1247 C   0  0  0  0  0  0
   38.3332   34.0380   26.7667 C   0  0  0  0  0  0
   37.8230   33.4234   27.9088 C   0  0  0  0  0  0
   39.4778   38.6812   31.7938 H   0  0  0  0  0  0
   38.3073   36.7552   37.7665 H   0  0  0  0  0  0
   38.2986   37.5113   39.6279 H   0  0  0  0  0  0
   37.1976   37.5336   42.1553 H   0  0  0  0  0  0
   40.6943   37.4563   26.6017 H   0  0  0  0  0  0
   39.1087   38.1625   26.3008 H   0  0  0  0  0  0
   40.2909   39.0348   27.2540 H   0  0  0  0  0  0
   39.4731   38.1977   36.2984 H   0  0  0  0  0  0
   40.0711   38.7174   33.9873 H   0  0  0  0  0  0
   36.3151   35.6295   34.8883 H   0  0  0  0  0  0
   36.9473   36.1105   32.5933 H   0  0  0  0  0  0
   39.2305   35.7859   25.9336 H   0  0  0  0  0  0
   37.3899   33.6318   30.0040 H   0  0  0  0  0  0
   38.3379   33.5080   25.8273 H   0  0  0  0  0  0
   37.4411   32.4153   27.8470 H   0  0  0  0  0  0
  1  2  1  0  0  0
  1  4  2  0  0  0
  1 10  1  0  0  0
  2  3  1  0  0  0
  2 14  2  0  0  0
  3 19  1  0  0  0
  3  7  1  0  0  0
  4  8  1  0  0  0
  5  6  1  0  0  0
  5  9  2  0  0  0
  5 12  1  0  0  0
  6 11  1  0  0  0
  6 16  2  0  0  0
  7  8  1  0  0  0
  7 24  2  0  0  0
  8 25  2  0  0  0
  9 13  1  0  0  0
 10 17  1  0  0  0
 10 28  1  0  0  0
 11 18  1  0  0  0
 11 29  1  0  0  0
 12 15  2  0  0  0
 12 30  1  0  0  0
 13 15  1  0  0  0
 15 31  1  0  0  0
 17 21  2  0  0  0
 17 23  1  0  0  0
 18 22  1  0  0  0
 18 20  2  0  0  0
 19 32  1  0  0  0
 19 33  1  0  0  0
 19 34  1  0  0  0
 20 21  1  0  0  0
 20 35  1  0  0  0
 21 36  1  0  0  0
 22 23  2  0  0  0
 22 37  1  0  0  0
 23 38  1  0  0  0
 24 26  1  0  0  0
 24 39  1  0  0  0
 25 27  1  0  0  0
 25 40  1  0  0  0
 26 27  2  0  0  0
 26 41  1  0  0  0
 27 42  1  0  0  0
M  END
> <s_m_entry_id>
25140

> <s_m_entry_name>
dock_pv.13

> <s_m_Source_Path>
/home/csk/Desktop/cluster/DUD-E-result/pygm

> <s_m_Source_File>
dock_pv.maegz

> <i_m_Source_File_Index>
13

> <chembl_id>
CHEMBL425918

> <chembl_pref_name>
None

> <i_lp_mmshare_version>
53161

> <r_lp_tautomer_probability>
1

> <s_lp_Force_Field>
OPLS_2005

> <r_lp_Energy>
37.555417

> <b_lp_Chiralities_Consistent>
1

> <s_lp_Variant>
CHEMBL3526_lig75-1

> <s_i_glide_gridfile>
glide-grid_1c8k

> <i_i_glide_lignum>
115

> <i_i_glide_rotatable_bonds>
5

> <r_i_docking_score>
-6.99434944842332

> <r_i_glide_ligand_efficiency>
-0.259049979571234

> <r_i_glide_ligand_efficiency_sa>
-0.777149937859916

> <r_i_glide_ligand_efficiency_ln>
-1.62816924073026

> <r_i_glide_gscore>
-6.99434944842332

> <r_i_glide_lipo>
-3.22999024666315

> <r_i_glide_hbond>
-0.33159657776974

> <r_i_glide_metal>
0

> <r_i_glide_rewards>
-0.90069400809268

> <r_i_glide_evdw>
-45.0379943847656

> <r_i_glide_ecoul>
-5.91207981109619

> <r_i_glide_erotb>
0.734799272295661

> <r_i_glide_esite>
-0.128156197290702

> <r_i_glide_emodel>
-69.0678987606403

> <r_i_glide_energy>
-50.9500741958618

> <r_i_glide_einternal>
6.10085773468018

> <i_i_glide_confnum>
36

> <i_i_glide_posenum>
273

> <r_i_glide_eff_state_penalty>
0

> <s_user_duplicate_titles>
CHEMBL3526_lig75,327014

> <i_f3d_flags>
0

> <s_m_subgroup_title>
dock_pv

> <s_m_subgroupid>
dock_pv

> <b_m_subgroup_collapsed>
0

$$$$
CHEMBL3526_lig87
                    3D
 Schrodinger Suite 2021-1.
 45 48  0  0  1  0            999 V2000
   39.1090   36.0865   26.8404 N   0  0  0  0  0  0
   38.7121   36.2863   29.1949 C   0  0  0  0  0  0
   39.1680   36.9304   27.9253 C   0  0  0  0  0  0
   38.3103   35.0718   29.3157 N   0  0  0  0  0  0
   38.6953   34.7234   26.9109 C   0  0  0  0  0  0
   38.3076   34.2450   28.1764 C   0  0  0  0  0  0
   38.7922   37.1199   30.3064 N   0  0  0  0  0  0
   37.3379   36.8308   35.8291 C   0  0  0  0  0  0
   38.6977   33.9342   25.7983 N   0  0  0  0  0  0
   38.2888   37.2314   36.6877 N   0  0  0  0  0  0
   35.8728   37.7645   39.5838 S   0  0  0  0  0  0
   37.3742   38.1942   38.8075 C   0  0  0  0  0  0
   39.5567   38.1052   27.8656 O   0  0  0  0  0  0
   37.7272   36.8887   34.3723 C   0  0  0  0  0  0
   35.5256   39.4155   39.9710 C   0  0  0  0  0  0
   36.2258   36.4310   36.1812 O   0  0  0  0  0  0
   37.5835   39.5672   38.9288 C   0  0  0  0  0  0
   36.5492   40.2543   39.5714 C   0  0  0  0  0  0
   38.4278   36.9770   31.6551 C   0  0  0  0  0  0
   38.2447   37.1436   38.1433 C   0  0  0  0  0  0
   37.1481   35.9976   33.4634 C   0  0  0  0  0  0
   38.6575   37.8284   33.9042 C   0  0  0  0  0  0
   39.5073   36.6098   25.5263 C   0  0  0  0  0  0
   37.5089   36.0302   32.1186 C   0  0  0  0  0  0
   38.9936   37.8753   32.5566 C   0  0  0  0  0  0
   37.9090   32.9148   28.2989 C   0  0  0  0  0  0
   38.3087   32.6411   25.9438 C   0  0  0  0  0  0
   37.9093   32.0955   27.1676 C   0  0  0  0  0  0
   39.2771   37.9855   30.1217 H   0  0  0  0  0  0
   39.1869   37.4593   36.2902 H   0  0  0  0  0  0
   34.6026   39.6848   40.4598 H   0  0  0  0  0  0
   38.4599   40.0598   38.5365 H   0  0  0  0  0  0
   36.5469   41.3227   39.7258 H   0  0  0  0  0  0
   39.2814   37.2311   38.4610 H   0  0  0  0  0  0
   37.9089   36.1453   38.4307 H   0  0  0  0  0  0
   36.4276   35.2638   33.7930 H   0  0  0  0  0  0
   39.1083   38.5500   34.5704 H   0  0  0  0  0  0
   38.7096   36.4298   24.8021 H   0  0  0  0  0  0
   39.7147   37.6822   25.5155 H   0  0  0  0  0  0
   40.3976   36.0855   25.1965 H   0  0  0  0  0  0
   37.0369   35.3369   31.4414 H   0  0  0  0  0  0
   39.7035   38.6171   32.2196 H   0  0  0  0  0  0
   37.6038   32.5195   29.2563 H   0  0  0  0  0  0
   38.3264   32.0306   25.0510 H   0  0  0  0  0  0
   37.6142   31.0605   27.2452 H   0  0  0  0  0  0
  1  3  1  0  0  0
  1  5  1  0  0  0
  1 23  1  0  0  0
  2  3  1  0  0  0
  2  7  1  0  0  0
  2  4  2  0  0  0
  3 13  2  0  0  0
  4  6  1  0  0  0
  5  6  1  0  0  0
  5  9  2  0  0  0
  6 26  2  0  0  0
  7 19  1  0  0  0
  7 29  1  0  0  0
  8 14  1  0  0  0
  8 10  1  0  0  0
  8 16  2  0  0  0
  9 27  1  0  0  0
 10 20  1  0  0  0
 10 30  1  0  0  0
 11 12  1  0  0  0
 11 15  1  0  0  0
 12 20  1  0  0  0
 12 17  2  0  0  0
 14 22  2  0  0  0
 14 21  1  0  0  0
 15 18  2  0  0  0
 15 31  1  0  0  0
 17 18  1  0  0  0
 17 32  1  0  0  0
 18 33  1  0  0  0
 19 24  1  0  0  0
 19 25  2  0  0  0
 20 34  1  0  0  0
 20 35  1  0  0  0
 21 24  2  0  0  0
 21 36  1  0  0  0
 22 25  1  0  0  0
 22 37  1  0  0  0
 23 38  1  0  0  0
 23 39  1  0  0  0
 23 40  1  0  0  0
 24 41  1  0  0  0
 25 42  1  0  0  0
 26 28  1  0  0  0
 26 43  1  0  0  0
 27 28  2  0  0  0
 27 44  1  0  0  0
 28 45  1  0  0  0
M  END
> <s_m_entry_id>
25141

> <s_m_entry_name>
dock_pv.14

> <s_m_Source_Path>
/home/csk/Desktop/cluster/DUD-E-result/pygm

> <s_m_Source_File>
dock_pv.maegz

> <i_m_Source_File_Index>
14

> <chembl_id>
CHEMBL372862

> <chembl_pref_name>
None

> <i_lp_mmshare_version>
53161

> <r_lp_tautomer_probability>
1

> <s_lp_Force_Field>
OPLS_2005

> <r_lp_Energy>
26.101497

> <b_lp_Chiralities_Consistent>
1

> <s_lp_Variant>
CHEMBL3526_lig87-1

> <s_i_glide_gridfile>
glide-grid_1c8k

> <i_i_glide_lignum>
128

> <i_i_glide_rotatable_bonds>
6

> <r_i_docking_score>
-6.98567513599921

> <r_i_glide_ligand_efficiency>
-0.249488397714258

> <r_i_glide_ligand_efficiency_sa>
-0.757593716268558

> <r_i_glide_ligand_efficiency_ln>
-1.61249892972313

> <r_i_glide_gscore>
-6.98567513599921

> <r_i_glide_lipo>
-2.83052274000393

> <r_i_glide_hbond>
-0.129950704154262

> <r_i_glide_metal>
0

> <r_i_glide_rewards>
-1.6697067886671

> <r_i_glide_evdw>
-47.5875473022461

> <r_i_glide_ecoul>
-4.07048940658569

> <r_i_glide_erotb>
0.636774807581585

> <r_i_glide_esite>
-0.00231893465534928

> <r_i_glide_emodel>
-71.5459701528711

> <r_i_glide_energy>
-51.6580367088318

> <r_i_glide_einternal>
4.02182006835938

> <i_i_glide_confnum>
3

> <i_i_glide_posenum>
198

> <r_i_glide_eff_state_penalty>
0

> <s_user_duplicate_titles>
CHEMBL3526_lig87,327175

> <i_f3d_flags>
0

> <s_m_subgroup_title>
dock_pv

> <s_m_subgroupid>
dock_pv

> <b_m_subgroup_collapsed>
0

$$$$
CHEMBL3526_lig73
                    3D
 Schrodinger Suite 2021-1.
 44 47  0  0  1  0            999 V2000
   38.9659   37.1889   30.1457 C   0  0  0  0  0  0
   39.5842   37.9237   29.0015 C   0  0  0  0  0  0
   39.5915   37.1996   27.8306 N   0  0  0  0  0  0
   38.4367   36.0185   30.0789 N   0  0  0  0  0  0
   39.0303   35.8920   27.6937 C   0  0  0  0  0  0
   36.5455   36.6438   37.2875 C   0  0  0  0  0  0
   38.4550   35.3255   28.8512 C   0  0  0  0  0  0
   36.4856   36.8016   38.7182 C   0  0  0  0  0  0
   39.0380   37.8704   31.3603 N   0  0  0  0  0  0
   37.7598   36.8316   36.7274 N   0  0  0  0  0  0
   37.5069   37.2318   39.5415 N   0  0  0  0  0  0
   40.0500   39.0655   29.1051 O   0  0  0  0  0  0
   35.3815   36.6010   39.5469 C   0  0  0  0  0  0
   35.5092   36.4309   36.6549 O   0  0  0  0  0  0
   37.0754   37.2892   40.8419 C   0  0  0  0  0  0
   35.7481   36.9039   40.8597 C   0  0  0  0  0  0
   38.6823   37.5336   32.6790 C   0  0  0  0  0  0
   38.0352   37.0237   35.3616 C   0  0  0  0  0  0
   40.2226   37.8004   26.6403 C   0  0  0  0  0  0
   37.3359   36.3799   34.3319 C   0  0  0  0  0  0
   37.6629   36.6304   33.0002 C   0  0  0  0  0  0
   39.0674   37.9083   35.0419 C   0  0  0  0  0  0
   39.3766   38.1703   33.7106 C   0  0  0  0  0  0
   39.0206   35.1556   26.4980 C   0  0  0  0  0  0
   37.8968   34.0469   28.8114 C   0  0  0  0  0  0
   38.4615   33.8779   26.4644 C   0  0  0  0  0  0
   37.9088   33.3217   27.6188 C   0  0  0  0  0  0
   39.5905   38.7120   31.3117 H   0  0  0  0  0  0
   38.5328   36.9966   37.3501 H   0  0  0  0  0  0
   38.4589   37.4113   39.2499 H   0  0  0  0  0  0
   34.4074   36.2657   39.2254 H   0  0  0  0  0  0
   37.7560   37.5740   41.6295 H   0  0  0  0  0  0
   35.1103   36.8313   41.7240 H   0  0  0  0  0  0
   39.5079   37.8612   25.8184 H   0  0  0  0  0  0
   40.6066   38.8108   26.8037 H   0  0  0  0  0  0
   41.0625   37.1842   26.3159 H   0  0  0  0  0  0
   36.5507   35.6739   34.5449 H   0  0  0  0  0  0
   37.1082   36.1259   32.2242 H   0  0  0  0  0  0
   39.6222   38.4137   35.8198 H   0  0  0  0  0  0
   40.1644   38.8742   33.4873 H   0  0  0  0  0  0
   39.4455   35.5564   25.5912 H   0  0  0  0  0  0
   37.4545   33.6226   29.6991 H   0  0  0  0  0  0
   38.4630   33.3119   25.5435 H   0  0  0  0  0  0
   37.4891   32.3276   27.5891 H   0  0  0  0  0  0
  1  2  1  0  0  0
  1  4  2  0  0  0
  1  9  1  0  0  0
  2  3  1  0  0  0
  2 12  2  0  0  0
  3 19  1  0  0  0
  3  5  1  0  0  0
  4  7  1  0  0  0
  5  7  1  0  0  0
  5 24  2  0  0  0
  6 10  1  0  0  0
  6  8  1  0  0  0
  6 14  2  0  0  0
  7 25  2  0  0  0
  8 11  1  0  0  0
  8 13  2  0  0  0
  9 17  1  0  0  0
  9 28  1  0  0  0
 10 18  1  0  0  0
 10 29  1  0  0  0
 11 15  1  0  0  0
 11 30  1  0  0  0
 13 16  1  0  0  0
 13 31  1  0  0  0
 15 16  2  0  0  0
 15 32  1  0  0  0
 16 33  1  0  0  0
 17 21  2  0  0  0
 17 23  1  0  0  0
 18 22  1  0  0  0
 18 20  2  0  0  0
 19 34  1  0  0  0
 19 35  1  0  0  0
 19 36  1  0  0  0
 20 21  1  0  0  0
 20 37  1  0  0  0
 21 38  1  0  0  0
 22 23  2  0  0  0
 22 39  1  0  0  0
 23 40  1  0  0  0
 24 26  1  0  0  0
 24 41  1  0  0  0
 25 27  1  0  0  0
 25 42  1  0  0  0
 26 27  2  0  0  0
 26 43  1  0  0  0
 27 44  1  0  0  0
M  END
> <s_m_entry_id>
25142

> <s_m_entry_name>
dock_pv.15

> <s_m_Source_Path>
/home/csk/Desktop/cluster/DUD-E-result/pygm

> <s_m_Source_File>
dock_pv.maegz

> <i_m_Source_File_Index>
15

> <chembl_id>
CHEMBL370504

> <chembl_pref_name>
None

> <i_lp_mmshare_version>
53161

> <r_lp_tautomer_probability>
1

> <s_lp_Force_Field>
OPLS_2005

> <r_lp_Energy>
36.675724

> <b_lp_Chiralities_Consistent>
1

> <s_lp_Variant>
CHEMBL3526_lig73-1

> <s_i_glide_gridfile>
glide-grid_1c8k

> <i_i_glide_lignum>
113

> <i_i_glide_rotatable_bonds>
5

> <r_i_docking_score>
-6.97096317037912

> <r_i_glide_ligand_efficiency>
-0.258183821125153

> <r_i_glide_ligand_efficiency_sa>
-0.774551462524526

> <r_i_glide_ligand_efficiency_ln>
-1.62272530075449

> <r_i_glide_gscore>
-6.97096317037912

> <r_i_glide_lipo>
-3.28287324941369

> <r_i_glide_hbond>
-0.366547987378222

> <r_i_glide_metal>
0

> <r_i_glide_rewards>
-1.04463294645006

> <r_i_glide_evdw>
-44.4021835327148

> <r_i_glide_ecoul>
-4.77963972091675

> <r_i_glide_erotb>
0.742005875163067

> <r_i_glide_esite>
-0.0818597275269594

> <r_i_glide_emodel>
-67.4358527368905

> <r_i_glide_energy>
-49.1818232536316

> <r_i_glide_einternal>
5.39559745788574

> <i_i_glide_confnum>
15

> <i_i_glide_posenum>
261

> <r_i_glide_eff_state_penalty>
0

> <s_user_duplicate_titles>
CHEMBL3526_lig73

> <i_f3d_flags>
0

> <s_m_subgroup_title>
dock_pv

> <s_m_subgroupid>
dock_pv

> <b_m_subgroup_collapsed>
0

$$$$
CHEMBL3526_lig88
                    3D
 Schrodinger Suite 2021-1.
 43 46  0  0  1  0            999 V2000
   38.8794   36.3421   28.6606 C   0  0  0  0  0  0
   38.4969   35.0492   28.8469 N   0  0  0  0  0  0
   39.1822   36.8419   27.3731 C   0  0  0  0  0  0
   39.1091   36.0308   26.2848 N   0  0  0  0  0  0
   38.3946   34.2464   27.7551 C   0  0  0  0  0  0
   37.5061   36.8311   35.2904 C   0  0  0  0  0  0
   38.9733   37.1922   29.7816 N   0  0  0  0  0  0
   38.7092   34.7447   26.4576 C   0  0  0  0  0  0
   38.4669   37.1587   36.1700 N   0  0  0  0  0  0
   35.9823   36.9859   38.9898 S   0  0  0  0  0  0
   37.5087   37.6320   38.4393 C   0  0  0  0  0  0
   37.8866   36.9417   33.8375 C   0  0  0  0  0  0
   39.5021   38.1700   27.2444 O   0  0  0  0  0  0
   35.6140   38.4399   39.8541 C   0  0  0  0  0  0
   36.3869   36.4311   35.6209 O   0  0  0  0  0  0
   37.6740   38.9245   38.9325 C   0  0  0  0  0  0
   36.6142   39.3840   39.7188 C   0  0  0  0  0  0
   38.4612   36.8165   37.5919 C   0  0  0  0  0  0
   38.5919   37.0658   31.1279 C   0  0  0  0  0  0
   38.7622   37.9336   33.3797 C   0  0  0  0  0  0
   37.3533   36.0271   32.9243 C   0  0  0  0  0  0
   39.1097   37.9941   32.0335 C   0  0  0  0  0  0
   37.7012   36.0905   31.5822 C   0  0  0  0  0  0
   37.9903   32.8977   27.9028 C   0  0  0  0  0  0
   38.6045   33.8915   25.3378 C   0  0  0  0  0  0
   37.9088   32.0756   26.7812 C   0  0  0  0  0  0
   38.2065   32.5690   25.5123 C   0  0  0  0  0  0
   39.3697   38.0878   29.5400 H   0  0  0  0  0  0
   39.3599   37.4295   35.7891 H   0  0  0  0  0  0
   39.4306   38.4221   26.3182 H   0  0  0  0  0  0
   34.6937   38.5229   40.4070 H   0  0  0  0  0  0
   38.5502   39.5211   38.7241 H   0  0  0  0  0  0
   36.5847   40.3632   40.1742 H   0  0  0  0  0  0
   39.4815   36.8997   37.9656 H   0  0  0  0  0  0
   38.2127   35.7556   37.6599 H   0  0  0  0  0  0
   39.1742   38.6698   34.0564 H   0  0  0  0  0  0
   36.6676   35.2562   33.2473 H   0  0  0  0  0  0
   39.7874   38.7637   31.6987 H   0  0  0  0  0  0
   37.2492   35.3806   30.9095 H   0  0  0  0  0  0
   37.7593   32.5116   28.8842 H   0  0  0  0  0  0
   38.8330   34.2805   24.3575 H   0  0  0  0  0  0
   37.6007   31.0461   26.8978 H   0  0  0  0  0  0
   38.1248   31.9224   24.6511 H   0  0  0  0  0  0
  1  2  2  0  0  0
  1  3  1  0  0  0
  1  7  1  0  0  0
  2  5  1  0  0  0
  3  4  2  0  0  0
  3 13  1  0  0  0
  4  8  1  0  0  0
  5 24  2  0  0  0
  5  8  1  0  0  0
  6 12  1  0  0  0
  6  9  1  0  0  0
  6 15  2  0  0  0
  7 19  1  0  0  0
  7 28  1  0  0  0
  8 25  2  0  0  0
  9 18  1  0  0  0
  9 29  1  0  0  0
 10 11  1  0  0  0
 10 14  1  0  0  0
 11 18  1  0  0  0
 11 16  2  0  0  0
 12 21  2  0  0  0
 12 20  1  0  0  0
 13 30  1  0  0  0
 14 17  2  0  0  0
 14 31  1  0  0  0
 16 17  1  0  0  0
 16 32  1  0  0  0
 17 33  1  0  0  0
 18 34  1  0  0  0
 18 35  1  0  0  0
 19 22  1  0  0  0
 19 23  2  0  0  0
 20 22  2  0  0  0
 20 36  1  0  0  0
 21 23  1  0  0  0
 21 37  1  0  0  0
 22 38  1  0  0  0
 23 39  1  0  0  0
 24 26  1  0  0  0
 24 40  1  0  0  0
 25 27  1  0  0  0
 25 41  1  0  0  0
 26 27  2  0  0  0
 26 42  1  0  0  0
 27 43  1  0  0  0
M  END
> <s_m_entry_id>
25143

> <s_m_entry_name>
dock_pv.16

> <s_m_Source_Path>
/home/csk/Desktop/cluster/DUD-E-result/pygm

> <s_m_Source_File>
dock_pv.maegz

> <i_m_Source_File_Index>
16

> <chembl_id>
CHEMBL196637

> <chembl_pref_name>
None

> <i_lp_mmshare_version>
53161

> <r_lp_tautomer_probability>
1

> <s_lp_Force_Field>
OPLS_2005

> <r_lp_Energy>
22.141739

> <b_lp_Chiralities_Consistent>
1

> <s_lp_Variant>
CHEMBL3526_lig88-1

> <s_i_glide_gridfile>
glide-grid_1c8k

> <i_i_glide_lignum>
129

> <i_i_glide_rotatable_bonds>
7

> <r_i_docking_score>
-6.9411863097585

> <r_i_glide_ligand_efficiency>
-0.2570809744355

> <r_i_glide_ligand_efficiency_sa>
-0.771242922459204

> <r_i_glide_ligand_efficiency_ln>
-1.61579373851193

> <r_i_glide_gscore>
-6.9411863097585

> <r_i_glide_lipo>
-3.50169982043713

> <r_i_glide_hbond>
-0.00238043846925976

> <r_i_glide_metal>
0

> <r_i_glide_rewards>
-1.26933832994688

> <r_i_glide_evdw>
-47.4873275756836

> <r_i_glide_ecoul>
-3.17628788948059

> <r_i_glide_erotb>
0.683041841301029

> <r_i_glide_esite>
0

> <r_i_glide_emodel>
-69.6654051608784

> <r_i_glide_energy>
-50.6636154651642

> <r_i_glide_einternal>
5.40838289260864

> <i_i_glide_confnum>
9

> <i_i_glide_posenum>
276

> <r_i_glide_eff_state_penalty>
0

> <s_user_duplicate_titles>
CHEMBL3526_lig88,327180

> <i_f3d_flags>
0

> <s_m_subgroup_title>
dock_pv

> <s_m_subgroupid>
dock_pv

> <b_m_subgroup_collapsed>
0

$$$$
CHEMBL3526_lig40
                    3D
 Schrodinger Suite 2021-1.
 44 46  0  0  1  0            999 V2000
   37.1416   36.8308   36.1180 N   0  3  0  0  0  0
   39.5434   40.0310   26.2730 C   0  0  0  0  0  0
   37.5712   35.6311   31.2392 C   0  0  0  0  0  0
   40.5199   39.8211   25.2611 C   0  0  0  0  0  0
   38.3074   35.8457   30.1235 N   0  0  0  0  0  0
   37.7371   37.0468   34.7844 C   0  0  0  0  0  0
   37.9133   36.5146   32.4236 C   0  0  0  0  0  0
   38.7119   41.2863   26.3898 C   0  0  0  0  0  0
   37.3284   36.2859   33.6794 C   0  0  0  0  0  0
   40.7871   40.7952   24.1436 C   0  0  0  0  0  0
   38.3110   35.1928   28.8759 C   0  0  0  0  0  0
   39.0938   35.7780   27.8631 C   0  0  0  0  0  0
   41.3071   38.6623   25.3015 C   0  0  0  0  0  0
   35.9808   36.4310   36.1744 O   0  5  0  0  0  0
   39.8528   36.8956   28.1789 O   0  0  0  0  0  0
   38.8413   37.5010   32.2465 N   0  0  0  0  0  0
   39.3679   39.0445   27.2560 C   0  0  0  0  0  0
   37.8209   37.0880   37.1066 O   0  0  0  0  0  0
   40.1061   37.8636   27.2368 C   0  0  0  0  0  0
   36.6915   34.7764   31.3457 O   0  0  0  0  0  0
   38.6251   41.9110   27.4463 O   0  0  0  0  0  0
   41.7363   41.5740   24.1673 O   0  0  0  0  0  0
   41.1097   37.6966   26.2852 C   0  0  0  0  0  0
   38.7159   38.0308   34.5951 C   0  0  0  0  0  0
   38.0309   41.6309   25.2611 O   0  0  0  0  0  0
   39.9093   40.6905   23.1067 O   0  0  0  0  0  0
   39.2285   38.2349   33.3166 C   0  0  0  0  0  0
   37.5997   34.0109   28.6100 C   0  0  0  0  0  0
   39.1125   35.1846   26.5888 C   0  0  0  0  0  0
   38.3941   34.0203   26.3320 C   0  0  0  0  0  0
   37.6513   33.4281   27.3462 C   0  0  0  0  0  0
   38.9809   36.5953   30.1835 H   0  0  0  0  0  0
   36.5918   35.5046   33.8051 H   0  0  0  0  0  0
   42.0838   38.5000   24.5671 H   0  0  0  0  0  0
   38.6279   39.1695   28.0330 H   0  0  0  0  0  0
   41.7177   36.8036   26.3029 H   0  0  0  0  0  0
   39.0575   38.6413   35.4194 H   0  0  0  0  0  0
   37.9092   40.8960   24.6437 H   0  0  0  0  0  0
   39.2234   40.0325   23.2604 H   0  0  0  0  0  0
   39.9725   38.9963   33.1330 H   0  0  0  0  0  0
   37.0065   33.5187   29.3631 H   0  0  0  0  0  0
   39.6941   35.6035   25.7849 H   0  0  0  0  0  0
   38.4263   33.5673   25.3518 H   0  0  0  0  0  0
   37.1094   32.5151   27.1504 H   0  0  0  0  0  0
  1  6  1  0  0  0
  1 14  1  0  0  0
  1 18  2  0  0  0
  2 17  2  0  0  0
  2  8  1  0  0  0
  2  4  1  0  0  0
  3  7  1  0  0  0
  3  5  1  0  0  0
  3 20  2  0  0  0
  4 13  2  0  0  0
  4 10  1  0  0  0
  5 11  1  0  0  0
  5 32  1  0  0  0
  6  9  2  0  0  0
  6 24  1  0  0  0
  7  9  1  0  0  0
  7 16  2  0  0  0
  8 21  2  0  0  0
  8 25  1  0  0  0
  9 33  1  0  0  0
 10 22  2  0  0  0
 10 26  1  0  0  0
 11 12  2  0  0  0
 11 28  1  0  0  0
 12 15  1  0  0  0
 12 29  1  0  0  0
 13 23  1  0  0  0
 13 34  1  0  0  0
 15 19  1  0  0  0
 16 27  1  0  0  0
 17 19  1  0  0  0
 17 35  1  0  0  0
 19 23  2  0  0  0
 23 36  1  0  0  0
 24 27  2  0  0  0
 24 37  1  0  0  0
 25 38  1  0  0  0
 26 39  1  0  0  0
 27 40  1  0  0  0
 28 31  2  0  0  0
 28 41  1  0  0  0
 29 30  2  0  0  0
 29 42  1  0  0  0
 30 31  1  0  0  0
 30 43  1  0  0  0
 31 44  1  0  0  0
M  CHG  2   1   1  14  -1
M  END
> <s_m_entry_id>
25144

> <s_m_entry_name>
dock_pv.17

> <s_m_Source_Path>
/home/csk/Desktop/cluster/DUD-E-result/pygm

> <s_m_Source_File>
dock_pv.maegz

> <i_m_Source_File_Index>
17

> <chembl_id>
CHEMBL132191

> <chembl_pref_name>
None

> <i_lp_mmshare_version>
53161

> <r_lp_tautomer_probability>
1

> <s_lp_Force_Field>
OPLS_2005

> <r_lp_Energy>
33.00335

> <b_lp_Chiralities_Consistent>
1

> <s_lp_Variant>
CHEMBL3526_lig40-1

> <s_i_glide_gridfile>
glide-grid_1c8k

> <i_i_glide_lignum>
61

> <i_i_glide_rotatable_bonds>
10

> <r_i_docking_score>
-6.91999386240434

> <r_i_glide_ligand_efficiency>
-0.223225608464656

> <r_i_glide_ligand_efficiency_sa>
-0.701236606746488

> <r_i_glide_ligand_efficiency_ln>
-1.56067068831514

> <r_i_glide_gscore>
-6.91999386240434

> <r_i_glide_lipo>
-2.86067934676842

> <r_i_glide_hbond>
0

> <r_i_glide_metal>
0

> <r_i_glide_rewards>
-1.01048683312894

> <r_i_glide_evdw>
-44.6050262451172

> <r_i_glide_ecoul>
-9.55104064941406

> <r_i_glide_erotb>
0.774113729020456

> <r_i_glide_esite>
-0.160034001859463

> <r_i_glide_emodel>
-74.3653142403618

> <r_i_glide_energy>
-54.1560668945312

> <r_i_glide_einternal>
9.96427822113037

> <i_i_glide_confnum>
5

> <i_i_glide_posenum>
100

> <r_i_glide_eff_state_penalty>
0

> <s_user_duplicate_titles>
CHEMBL3526_lig40,219945

> <i_f3d_flags>
0

> <s_m_subgroup_title>
dock_pv

> <s_m_subgroupid>
dock_pv

> <b_m_subgroup_collapsed>
0

$$$$
CHEMBL3526_lig79
                    3D
 Schrodinger Suite 2021-1.
 43 46  0  0  1  0            999 V2000
   38.9105   36.4216   29.2269 C   0  0  0  0  0  0
   39.4449   37.1157   28.0193 C   0  0  0  0  0  0
   39.3631   36.3527   26.8768 N   0  0  0  0  0  0
   38.4247   35.2320   29.2527 N   0  0  0  0  0  0
   38.8608   35.0153   26.8370 C   0  0  0  0  0  0
   37.5079   37.3248   38.0995 C   0  0  0  0  0  0
   37.9092   37.2243   36.7774 N   0  0  0  0  0  0
   38.3936   34.4827   28.0587 C   0  0  0  0  0  0
   37.0981   36.8244   35.7739 C   0  0  0  0  0  0
   38.9955   37.1766   30.3942 N   0  0  0  0  0  0
   37.6310   38.1140   40.2235 N   0  0  0  0  0  0
   36.4271   36.8292   38.8198 C   0  0  0  0  0  0
   38.1873   38.0941   39.0058 N   0  0  0  0  0  0
   37.6670   36.8413   34.3764 C   0  0  0  0  0  0
   39.9130   38.2625   28.0503 O   0  0  0  0  0  0
   36.5746   37.3446   40.1104 C   0  0  0  0  0  0
   35.9377   36.4310   35.9427 O   0  0  0  0  0  0
   38.5422   36.9910   31.7121 C   0  0  0  0  0  0
   37.1089   36.0128   33.3951 C   0  0  0  0  0  0
   38.6905   37.7287   34.0132 C   0  0  0  0  0  0
   39.8493   36.9414   25.6188 C   0  0  0  0  0  0
   37.5401   36.0838   32.0745 C   0  0  0  0  0  0
   39.1103   37.8073   32.6897 C   0  0  0  0  0  0
   38.8208   34.2166   25.6834 C   0  0  0  0  0  0
   37.9092   33.1756   28.1182 C   0  0  0  0  0  0
   38.3483   32.9049   25.7538 C   0  0  0  0  0  0
   37.9088   32.3831   26.9694 C   0  0  0  0  0  0
   38.8612   37.4689   36.5585 H   0  0  0  0  0  0
   39.5308   38.0241   30.2804 H   0  0  0  0  0  0
   39.0392   38.5966   38.8055 H   0  0  0  0  0  0
   35.6478   36.1723   38.4647 H   0  0  0  0  0  0
   35.9219   37.1498   40.9484 H   0  0  0  0  0  0
   36.3158   35.3209   33.6390 H   0  0  0  0  0  0
   39.1374   38.3984   34.7337 H   0  0  0  0  0  0
   39.1099   36.8297   24.8268 H   0  0  0  0  0  0
   40.0703   38.0077   25.6844 H   0  0  0  0  0  0
   40.7546   36.4314   25.3073 H   0  0  0  0  0  0
   37.0654   35.4538   31.3402 H   0  0  0  0  0  0
   39.8824   38.5153   32.4277 H   0  0  0  0  0  0
   39.1671   34.5880   24.7303 H   0  0  0  0  0  0
   37.5575   32.7662   29.0532 H   0  0  0  0  0  0
   38.3330   32.2892   24.8678 H   0  0  0  0  0  0
   37.5471   31.3654   27.0231 H   0  0  0  0  0  0
  1  2  1  0  0  0
  1  4  2  0  0  0
  1 10  1  0  0  0
  2  3  1  0  0  0
  2 15  2  0  0  0
  3 21  1  0  0  0
  3  5  1  0  0  0
  4  8  1  0  0  0
  5  8  2  0  0  0
  5 24  1  0  0  0
  6 13  1  0  0  0
  6  7  1  0  0  0
  6 12  2  0  0  0
  7  9  1  0  0  0
  7 28  1  0  0  0
  8 25  1  0  0  0
  9 14  1  0  0  0
  9 17  2  0  0  0
 10 18  1  0  0  0
 10 29  1  0  0  0
 11 16  2  0  0  0
 11 13  1  0  0  0
 12 16  1  0  0  0
 12 31  1  0  0  0
 13 30  1  0  0  0
 14 20  2  0  0  0
 14 19  1  0  0  0
 16 32  1  0  0  0
 18 22  1  0  0  0
 18 23  2  0  0  0
 19 22  2  0  0  0
 19 33  1  0  0  0
 20 23  1  0  0  0
 20 34  1  0  0  0
 21 35  1  0  0  0
 21 36  1  0  0  0
 21 37  1  0  0  0
 22 38  1  0  0  0
 23 39  1  0  0  0
 24 26  2  0  0  0
 24 40  1  0  0  0
 25 27  2  0  0  0
 25 41  1  0  0  0
 26 27  1  0  0  0
 26 42  1  0  0  0
 27 43  1  0  0  0
M  END
> <s_m_entry_id>
25145

> <s_m_entry_name>
dock_pv.18

> <s_m_Source_Path>
/home/csk/Desktop/cluster/DUD-E-result/pygm

> <s_m_Source_File>
dock_pv.maegz

> <i_m_Source_File_Index>
18

> <chembl_id>
CHEMBL196001

> <chembl_pref_name>
None

> <i_lp_mmshare_version>
53161

> <r_lp_tautomer_probability>
0.5

> <s_lp_Force_Field>
OPLS_2005

> <r_lp_Energy>
39.529025

> <b_lp_Chiralities_Consistent>
1

> <s_lp_Variant>
CHEMBL3526_lig79-2

> <s_i_glide_gridfile>
glide-grid_1c8k

> <i_i_glide_lignum>
120

> <i_i_glide_rotatable_bonds>
5

> <r_i_docking_score>
-6.9069460837579

> <r_i_glide_ligand_efficiency>
-0.255812817916959

> <r_i_glide_ligand_efficiency_sa>
-0.76743845290776

> <r_i_glide_ligand_efficiency_ln>
-1.60782317839323

> <r_i_glide_gscore>
-6.9069460837579

> <r_i_glide_lipo>
-3.31089836115031

> <r_i_glide_hbond>
-0.168877122376244

> <r_i_glide_metal>
0

> <r_i_glide_rewards>
-1.38690164994185

> <r_i_glide_evdw>
-45.6184425354004

> <r_i_glide_ecoul>
-3.0004289150238

> <r_i_glide_erotb>
0.738383293462763

> <r_i_glide_esite>
-0.0476657797286653

> <r_i_glide_emodel>
-66.1335220239735

> <r_i_glide_energy>
-48.6188714504242

> <r_i_glide_einternal>
3.62249684333801

> <i_i_glide_confnum>
2

> <i_i_glide_posenum>
380

> <r_i_glide_eff_state_penalty>
0

> <s_user_duplicate_titles>
CHEMBL3526_lig79,327006

> <i_f3d_flags>
0

> <s_m_subgroup_title>
dock_pv

> <s_m_subgroupid>
dock_pv

> <b_m_subgroup_collapsed>
0

$$$$
CHEMBL3526_lig4
                    3D
 Schrodinger Suite 2021-1.
 54 57  0  0  1  0            999 V2000
   41.1033   45.5582   24.4576 Cl  0  0  0  0  0  0
   40.5820   43.9954   24.9698 C   0  0  0  0  0  0
   39.5858   43.3384   24.2512 C   0  0  0  0  0  0
   39.1161   42.0794   24.6248 C   0  0  0  0  0  0
   39.6901   41.4965   25.7592 C   0  0  0  0  0  0
   39.4500   40.2879   26.3793 N   0  0  0  0  0  0
   40.7143   42.1441   26.5091 C   0  0  0  0  0  0
   41.1581   43.4107   26.0977 C   0  0  0  0  0  0
   41.0592   41.2600   27.5816 C   0  0  0  0  0  0
   40.2528   40.1323   27.4977 C   0  0  0  0  0  0
   40.2439   38.9897   28.3866 C   0  0  0  0  0  0
   41.2210   38.7075   29.0805 O   0  0  0  0  0  0
   39.1086   38.2719   28.3561 N   0  0  0  0  0  0
   38.7754   37.0437   29.0982 C   0  0  2  0  0  0
   38.5030   37.2211   30.6336 C   0  0  0  0  0  0
   38.8713   38.2703   31.1688 O   0  0  0  0  0  0
   37.8317   36.2481   31.3278 N   0  0  0  0  0  0
   37.3749   35.0290   30.6180 C   0  0  0  0  0  0
   36.2097   34.3308   31.3180 C   0  0  0  0  0  0
   36.4500   34.1596   32.7798 C   0  0  0  0  0  0
   35.5134   33.2335   33.2563 O   0  0  0  0  0  0
   36.6974   35.4826   33.5059 C   0  0  0  0  0  0
   37.7570   36.3892   32.8134 C   0  0  0  0  0  0
   39.6889   35.8456   28.6870 C   0  0  0  0  0  0
   39.1188   35.1776   27.4360 C   0  0  0  0  0  0
   38.3213   34.0296   27.5332 C   0  0  0  0  0  0
   37.7242   33.4972   26.3933 C   0  0  0  0  0  0
   37.9188   34.1144   25.1614 C   0  0  0  0  0  0
   37.2980   33.6337   24.0623 F   0  0  0  0  0  0
   38.7423   35.2320   25.0543 C   0  0  0  0  0  0
   39.3453   35.7620   26.1893 C   0  0  0  0  0  0
   39.1573   43.8192   23.3835 H   0  0  0  0  0  0
   38.3349   41.5912   24.0610 H   0  0  0  0  0  0
   38.8001   39.5800   26.0592 H   0  0  0  0  0  0
   41.9318   43.9283   26.6451 H   0  0  0  0  0  0
   41.8031   41.4230   28.3483 H   0  0  0  0  0  0
   38.3640   38.6078   27.7680 H   0  0  0  0  0  0
   37.7880   36.8344   28.7013 H   0  0  0  0  0  0
   36.9640   35.2599   29.6374 H   0  0  0  0  0  0
   38.2129   34.3403   30.5448 H   0  0  0  0  0  0
   35.2639   34.8403   31.2586 H   0  0  0  0  0  0
   36.0458   33.3732   30.8194 H   0  0  0  0  0  0
   37.3792   33.6640   32.8606 H   0  0  0  0  0  0
   35.0898   32.8351   32.4902 H   0  0  0  0  0  0
   37.0417   35.2766   34.5191 H   0  0  0  0  0  0
   35.7753   36.0324   33.6595 H   0  0  0  0  0  0
   38.7412   36.2134   33.2402 H   0  0  0  0  0  0
   37.4609   37.4118   33.0555 H   0  0  0  0  0  0
   39.8020   35.1049   29.4733 H   0  0  0  0  0  0
   40.7094   36.1731   28.4818 H   0  0  0  0  0  0
   38.1529   33.5444   28.4812 H   0  0  0  0  0  0
   37.0912   32.6237   26.4666 H   0  0  0  0  0  0
   38.8930   35.7110   24.0998 H   0  0  0  0  0  0
   39.9558   36.6490   26.1052 H   0  0  0  0  0  0
  1  2  1  0  0  0
  2  3  1  0  0  0
  2  8  2  0  0  0
  3  4  2  0  0  0
  3 32  1  0  0  0
  4  5  1  0  0  0
  4 33  1  0  0  0
  5  6  1  0  0  0
  5  7  2  0  0  0
  6 10  1  0  0  0
  6 34  1  0  0  0
  7  8  1  0  0  0
  7  9  1  0  0  0
  8 35  1  0  0  0
  9 10  2  0  0  0
  9 36  1  0  0  0
 10 11  1  0  0  0
 11 12  2  0  0  0
 11 13  1  0  0  0
 13 14  1  0  0  0
 13 37  1  0  0  0
 14 15  1  0  0  0
 14 24  1  0  0  0
 14 38  1  0  0  0
 15 16  2  0  0  0
 15 17  1  0  0  0
 17 18  1  0  0  0
 17 23  1  0  0  0
 18 19  1  0  0  0
 18 39  1  0  0  0
 18 40  1  0  0  0
 19 20  1  0  0  0
 19 41  1  0  0  0
 19 42  1  0  0  0
 20 21  1  0  0  0
 20 22  1  0  0  0
 20 43  1  0  0  0
 21 44  1  0  0  0
 22 23  1  0  0  0
 22 45  1  0  0  0
 22 46  1  0  0  0
 23 47  1  0  0  0
 23 48  1  0  0  0
 24 25  1  0  0  0
 24 49  1  0  0  0
 24 50  1  0  0  0
 25 26  2  0  0  0
 25 31  1  0  0  0
 26 27  1  0  0  0
 26 51  1  0  0  0
 27 28  2  0  0  0
 27 52  1  0  0  0
 28 29  1  0  0  0
 28 30  1  0  0  0
 30 31  2  0  0  0
 30 53  1  0  0  0
 31 54  1  0  0  0
M  END
> <s_m_entry_id>
25146

> <s_m_entry_name>
dock_pv.19

> <s_m_Source_Path>
/home/csk/Desktop/cluster/DUD-E-result/pygm

> <s_m_Source_File>
dock_pv.maegz

> <i_m_Source_File_Index>
19

> <chembl_id>
CHEMBL99889

> <chembl_pref_name>
None

> <i_lp_mmshare_version>
53161

> <r_lp_tautomer_probability>
1

> <s_lp_Force_Field>
OPLS_2005

> <r_lp_Energy>
27.412128

> <b_lp_Chiralities_Consistent>
1

> <s_lp_Variant>
CHEMBL3526_lig4-1

> <s_i_glide_gridfile>
glide-grid_1c8k

> <i_i_glide_lignum>
4

> <i_i_glide_rotatable_bonds>
8

> <r_i_docking_score>
-6.8682044465935

> <r_i_glide_ligand_efficiency>
-0.221554982148177

> <r_i_glide_ligand_efficiency_sa>
-0.695988533564533

> <r_i_glide_ligand_efficiency_ln>
-1.54899058789481

> <r_i_glide_gscore>
-6.8682044465935

> <r_i_glide_lipo>
-3.06019102494922

> <r_i_glide_hbond>
-0.18393968471775

> <r_i_glide_metal>
0

> <r_i_glide_rewards>
-1.75389508563547

> <r_i_glide_evdw>
-27.9627685546875

> <r_i_glide_ecoul>
-6.14534425735474

> <r_i_glide_erotb>
0.507382191567895

> <r_i_glide_esite>
-0.0576207765213671

> <r_i_glide_emodel>
-30.683956328193

> <r_i_glide_energy>
-34.1081128120422

> <r_i_glide_einternal>
8.73291492462158

> <i_i_glide_confnum>
15

> <i_i_glide_posenum>
239

> <r_i_glide_eff_state_penalty>
0

> <s_user_duplicate_titles>
CHEMBL3526_lig4,162867

> <i_f3d_flags>
0

> <s_m_subgroup_title>
dock_pv

> <s_m_subgroupid>
dock_pv

> <b_m_subgroup_collapsed>
0

$$$$
CHEMBL3526_lig74
                    3D
 Schrodinger Suite 2021-1.
 43 46  0  0  1  0            999 V2000
   38.8447   37.0682   30.2833 C   0  0  0  0  0  0
   39.5102   37.8025   29.1661 C   0  0  0  0  0  0
   39.5189   37.1021   27.9807 N   0  0  0  0  0  0
   38.2837   35.9160   30.1873 N   0  0  0  0  0  0
   38.9292   35.8143   27.8068 C   0  0  0  0  0  0
   36.3885   36.6416   37.4645 C   0  0  0  0  0  0
   38.3105   35.2466   28.9433 C   0  0  0  0  0  0
   36.3891   36.7804   38.8946 C   0  0  0  0  0  0
   38.9157   37.7308   31.5085 N   0  0  0  0  0  0
   37.5935   36.8245   36.8836 N   0  0  0  0  0  0
   37.5059   37.2339   39.5333 O   0  0  0  0  0  0
   40.0146   38.9273   29.3021 O   0  0  0  0  0  0
   35.3801   36.5686   39.8273 C   0  0  0  0  0  0
   35.3344   36.4303   36.8600 O   0  0  0  0  0  0
   37.2169   37.2858   40.8575 C   0  0  0  0  0  0
   35.9090   36.8932   41.0750 C   0  0  0  0  0  0
   38.5482   37.3972   32.8252 C   0  0  0  0  0  0
   37.8788   36.9558   35.5106 C   0  0  0  0  0  0
   40.1938   37.7030   26.8185 C   0  0  0  0  0  0
   38.9379   37.8012   35.1825 C   0  0  0  0  0  0
   39.2560   38.0321   33.8496 C   0  0  0  0  0  0
   37.1658   36.3063   34.4929 C   0  0  0  0  0  0
   37.5098   36.5183   33.1554 C   0  0  0  0  0  0
   38.9402   35.0972   26.5980 C   0  0  0  0  0  0
   37.7235   33.9861   28.8611 C   0  0  0  0  0  0
   38.3557   33.8330   26.5302 C   0  0  0  0  0  0
   37.7638   33.2741   27.6607 C   0  0  0  0  0  0
   39.4857   38.5636   31.4672 H   0  0  0  0  0  0
   38.3581   37.0019   37.5187 H   0  0  0  0  0  0
   34.3788   36.2177   39.6201 H   0  0  0  0  0  0
   38.0233   37.6024   41.5030 H   0  0  0  0  0  0
   35.4023   36.8331   42.0217 H   0  0  0  0  0  0
   39.4987   37.8234   25.9871 H   0  0  0  0  0  0
   40.6261   38.6857   27.0149 H   0  0  0  0  0  0
   41.0039   37.0536   26.4831 H   0  0  0  0  0  0
   39.4991   38.3102   35.9555 H   0  0  0  0  0  0
   40.0602   38.7152   33.6184 H   0  0  0  0  0  0
   36.3556   35.6337   34.7246 H   0  0  0  0  0  0
   36.9486   36.0163   32.3829 H   0  0  0  0  0  0
   39.3930   35.5025   25.7067 H   0  0  0  0  0  0
   37.2422   33.5528   29.7245 H   0  0  0  0  0  0
   38.3739   33.2788   25.6014 H   0  0  0  0  0  0
   37.3236   32.2884   27.5977 H   0  0  0  0  0  0
  1  2  1  0  0  0
  1  4  2  0  0  0
  1  9  1  0  0  0
  2  3  1  0  0  0
  2 12  2  0  0  0
  3 19  1  0  0  0
  3  5  1  0  0  0
  4  7  1  0  0  0
  5  7  1  0  0  0
  5 24  2  0  0  0
  6 10  1  0  0  0
  6  8  1  0  0  0
  6 14  2  0  0  0
  7 25  2  0  0  0
  8 11  1  0  0  0
  8 13  2  0  0  0
  9 17  1  0  0  0
  9 28  1  0  0  0
 10 18  1  0  0  0
 10 29  1  0  0  0
 11 15  1  0  0  0
 13 16  1  0  0  0
 13 30  1  0  0  0
 15 16  2  0  0  0
 15 31  1  0  0  0
 16 32  1  0  0  0
 17 21  2  0  0  0
 17 23  1  0  0  0
 18 22  1  0  0  0
 18 20  2  0  0  0
 19 33  1  0  0  0
 19 34  1  0  0  0
 19 35  1  0  0  0
 20 21  1  0  0  0
 20 36  1  0  0  0
 21 37  1  0  0  0
 22 23  2  0  0  0
 22 38  1  0  0  0
 23 39  1  0  0  0
 24 26  1  0  0  0
 24 40  1  0  0  0
 25 27  1  0  0  0
 25 41  1  0  0  0
 26 27  2  0  0  0
 26 42  1  0  0  0
 27 43  1  0  0  0
M  END
> <s_m_entry_id>
25147

> <s_m_entry_name>
dock_pv.20

> <s_m_Source_Path>
/home/csk/Desktop/cluster/DUD-E-result/pygm

> <s_m_Source_File>
dock_pv.maegz

> <i_m_Source_File_Index>
20

> <chembl_id>
CHEMBL365817

> <chembl_pref_name>
None

> <i_lp_mmshare_version>
53161

> <r_lp_tautomer_probability>
1

> <s_lp_Force_Field>
OPLS_2005

> <r_lp_Energy>
36.407393

> <b_lp_Chiralities_Consistent>
1

> <s_lp_Variant>
CHEMBL3526_lig74-1

> <s_i_glide_gridfile>
glide-grid_1c8k

> <i_i_glide_lignum>
114

> <i_i_glide_rotatable_bonds>
5

> <r_i_docking_score>
-6.84838373712633

> <r_i_glide_ligand_efficiency>
-0.25364384211579

> <r_i_glide_ligand_efficiency_sa>
-0.760931525511402

> <r_i_glide_ligand_efficiency_ln>
-1.59419082957314

> <r_i_glide_gscore>
-6.84838373712633

> <r_i_glide_lipo>
-3.29980870169429

> <r_i_glide_hbond>
-0.344269944218879

> <r_i_glide_metal>
0

> <r_i_glide_rewards>
-1.12180824103839

> <r_i_glide_evdw>
-44.5662078857422

> <r_i_glide_ecoul>
-3.27733850479126

> <r_i_glide_erotb>
0.738395348035456

> <r_i_glide_esite>
-0.100981028204426

> <r_i_glide_emodel>
-66.5249334030534

> <r_i_glide_energy>
-47.8435463905334

> <r_i_glide_einternal>
2.29085445404053

> <i_i_glide_confnum>
10

> <i_i_glide_posenum>
347

> <r_i_glide_eff_state_penalty>
0

> <s_user_duplicate_titles>
CHEMBL3526_lig74

> <i_f3d_flags>
0

> <s_m_subgroup_title>
dock_pv

> <s_m_subgroupid>
dock_pv

> <b_m_subgroup_collapsed>
0

$$$$
