CHEMBL213_lig1195
                    3D
 Schrodinger Suite 2021-1.
 45 47  0  0  1  0            999 V2000
   24.4134    5.0500    4.7236 C   0  0  0  0  0  0
   25.3805    5.9023    5.2394 C   0  0  0  0  0  0
   25.7974    4.6090    2.7595 C   0  0  0  0  0  0
   24.6080    4.4380    3.4859 C   0  0  0  0  0  0
   26.8305    5.3565    3.3628 C   0  0  0  0  0  0
   26.6094    6.0272    4.5855 C   0  0  0  0  0  0
   27.6695    6.7410    5.1850 N   0  0  0  0  0  0
   28.9631    6.7000    4.8120 C   0  0  0  0  0  0
   29.1774    6.0964    3.5123 C   0  0  0  0  0  0
   28.2087    5.4500    2.8246 C   0  0  0  0  0  0
   29.8447    7.0515    5.5850 O   0  0  0  0  0  0
   25.0846    6.5921    6.3850 O   0  0  0  0  0  0
   25.9713    3.9775    1.3582 C   0  0  2  0  0  0
   26.1451    5.0500    0.3850 N   0  0  2  0  0  0
   24.8247    3.0049    0.9315 C   0  0  0  0  0  0
   25.0080    2.3633   -0.3158 O   0  0  0  0  0  0
   26.9932    4.7070   -0.7452 C   0  0  0  0  0  0
   27.1226    5.9339   -1.6608 C   0  0  0  0  0  0
   28.2000    5.8406   -2.7340 C   0  0  0  0  0  0
   28.9902    4.6971   -2.9100 C   0  0  0  0  0  0
   30.0203    4.6926   -3.8437 C   0  0  0  0  0  0
   30.2742    5.8400   -4.5841 C   0  0  0  0  0  0
   29.4904    6.9781   -4.4150 C   0  0  0  0  0  0
   28.4251    6.9643   -3.5269 C   0  0  0  0  0  0
   31.3024    5.8500   -5.4837 O   0  0  0  0  0  0
   23.4717    4.9267    5.2403 H   0  0  0  0  0  0
   23.7895    3.8500    3.1002 H   0  0  0  0  0  0
   27.5412    7.1712    6.0884 H   0  0  0  0  0  0
   30.1779    6.1523    3.1087 H   0  0  0  0  0  0
   28.4616    5.0141    1.8699 H   0  0  0  0  0  0
   25.6630    7.3372    6.5854 H   0  0  0  0  0  0
   26.9019    3.4264    1.4125 H   0  0  0  0  0  0
   26.5126    5.8720    0.8417 H   0  0  0  0  0  0
   24.7289    2.2120    1.6742 H   0  0  0  0  0  0
   23.8662    3.5254    0.8950 H   0  0  0  0  0  0
   24.4905    2.8554   -0.9750 H   0  0  0  0  0  0
   27.9782    4.4045   -0.3876 H   0  0  0  0  0  0
   26.6080    3.8738   -1.3319 H   0  0  0  0  0  0
   26.1627    6.1414   -2.1357 H   0  0  0  0  0  0
   27.3591    6.8118   -1.0559 H   0  0  0  0  0  0
   28.8302    3.8103   -2.3219 H   0  0  0  0  0  0
   30.6295    3.8108   -3.9772 H   0  0  0  0  0  0
   29.6905    7.8781   -4.9743 H   0  0  0  0  0  0
   27.8166    7.8500   -3.4113 H   0  0  0  0  0  0
   31.4080    6.7345   -5.8775 H   0  0  0  0  0  0
  1  2  2  0  0  0
  1  4  1  0  0  0
  1 26  1  0  0  0
  2  6  1  0  0  0
  2 12  1  0  0  0
  3  5  1  0  0  0
  3  4  2  0  0  0
  3 13  1  0  0  0
  4 27  1  0  0  0
  5  6  2  0  0  0
  5 10  1  0  0  0
  6  7  1  0  0  0
  7  8  1  0  0  0
  7 28  1  0  0  0
  8  9  1  0  0  0
  8 11  2  0  0  0
  9 10  2  0  0  0
  9 29  1  0  0  0
 10 30  1  0  0  0
 12 31  1  0  0  0
 13 14  1  0  0  0
 13 15  1  0  0  0
 13 32  1  0  0  0
 14 17  1  0  0  0
 14 33  1  0  0  0
 15 16  1  0  0  0
 15 34  1  0  0  0
 15 35  1  0  0  0
 16 36  1  0  0  0
 17 18  1  0  0  0
 17 37  1  0  0  0
 17 38  1  0  0  0
 18 19  1  0  0  0
 18 39  1  0  0  0
 18 40  1  0  0  0
 19 20  2  0  0  0
 19 24  1  0  0  0
 20 21  1  0  0  0
 20 41  1  0  0  0
 21 22  2  0  0  0
 21 42  1  0  0  0
 22 23  1  0  0  0
 22 25  1  0  0  0
 23 24  2  0  0  0
 23 43  1  0  0  0
 24 44  1  0  0  0
 25 45  1  0  0  0
M  END
> <s_m_entry_id>
2910

> <s_m_entry_name>
dock_pv.2

> <s_m_Source_Path>
/home/csk/Desktop/cluster/DUD-E-result/adrb1

> <s_m_Source_File>
dock_pv.maegz

> <i_m_Source_File_Index>
2

> <chembl_id>
CHEMBL4283676

> <chembl_pref_name>
None

> <i_lp_mmshare_version>
53161

> <i_f3d_flags>
0

> <r_lp_tautomer_probability>
0.999999999997365

> <s_lp_Force_Field>
OPLS_2005

> <r_lp_Energy>
29.603409

> <b_lp_Chiralities_Consistent>
1

> <s_lp_Variant>
CHEMBL213_lig1195-1

> <s_i_glide_gridfile>
glide-grid_2vt4

> <i_i_glide_lignum>
1402

> <i_i_glide_rotatable_bonds>
9

> <r_i_docking_score>
-10.2010961277612

> <r_i_glide_ligand_efficiency>
-0.408043845110447

> <r_i_glide_ligand_efficiency_sa>
-1.19312743979135

> <r_i_glide_ligand_efficiency_ln>
-2.41796548446169

> <r_i_glide_gscore>
-10.2010961277612

> <r_i_glide_lipo>
-2.65486826777707

> <r_i_glide_hbond>
-1.49917798097954

> <r_i_glide_metal>
0

> <r_i_glide_rewards>
-2.50003189393939

> <r_i_glide_evdw>
-29.5990352630615

> <r_i_glide_ecoul>
-18.3570957183838

> <r_i_glide_erotb>
0.686498135845479

> <r_i_glide_esite>
0

> <r_i_glide_emodel>
-71.4286990132463

> <r_i_glide_energy>
-47.9561309814453

> <r_i_glide_einternal>
11.6616134643555

> <i_i_glide_confnum>
132

> <i_i_glide_posenum>
284

> <r_i_glide_eff_state_penalty>
0

> <s_user_duplicate_titles>
CHEMBL213_lig1195

> <s_m_subgroup_title>
dock_pv

> <s_m_subgroupid>
dock_pv

> <b_m_subgroup_collapsed>
1

$$$$
CHEMBL213_lig941
                    3D
 Schrodinger Suite 2021-1.
 59 61  0  0  1  0            999 V2000
   26.1809    3.8304    0.3859 C   0  0  0  0  0  0
   25.0272    3.0818    0.5782 C   0  0  0  0  0  0
   24.3047    3.1715    1.7645 C   0  0  0  0  0  0
   24.7527    4.0069    2.7796 C   0  0  0  0  0  0
   25.9341    4.7265    2.6233 C   0  0  0  0  0  0
   26.6399    4.6497    1.4098 C   0  0  0  0  0  0
   24.6080    2.2500   -0.4150 O   0  0  0  0  0  0
   26.3182    5.4952    3.6991 O   0  0  0  0  0  0
   27.6813    5.8844    3.7945 C   0  0  0  0  0  0
   27.8652    6.8821    4.9485 C   0  0  2  0  0  0
   29.2374    7.5891    4.9011 C   0  0  0  0  0  0
   30.3586    6.6563    4.7856 N   0  0  2  0  0  0
   31.6101    7.3778    4.6381 C   0  0  0  0  0  0
   32.8092    6.4990    4.2326 C   0  0  0  0  0  0
   32.9798    6.1906    2.7420 C   0  0  0  0  0  0
   34.2712    6.1720    2.2036 C   0  0  0  0  0  0
   34.4805    5.8069    0.8753 C   0  0  0  0  0  0
   33.3998    5.4503    0.0668 C   0  0  0  0  0  0
   32.1022    5.4594    0.6023 C   0  0  0  0  0  0
   31.8939    5.8503    1.9262 C   0  0  0  0  0  0
   33.6965    5.0191   -1.2388 N   0  0  0  0  0  0
   32.9098    5.0516   -2.3348 C   0  0  0  0  0  0
   33.4669    4.3345   -3.5774 C   0  0  0  0  0  0
   31.8366    5.6528   -2.4035 O   0  0  0  0  0  0
   32.4180    3.6333   -4.4510 C   0  0  0  0  0  0
   31.4288    2.8136   -3.8872 C   0  0  0  0  0  0
   30.5165    2.1520   -4.7063 C   0  0  0  0  0  0
   30.6018    2.2878   -6.0902 C   0  0  0  0  0  0
   31.5956    3.0804   -6.6605 C   0  0  0  0  0  0
   32.5014    3.7527   -5.8431 C   0  0  0  0  0  0
   27.6735    6.2499    6.2023 O   0  0  0  0  0  0
   29.4727    1.4662   -7.1058 Cl  0  0  0  0  0  0
   26.7256    3.7606   -0.5454 H   0  0  0  0  0  0
   23.4082    2.5942    1.9104 H   0  0  0  0  0  0
   24.1969    4.0837    3.7014 H   0  0  0  0  0  0
   27.5457    5.2047    1.2311 H   0  0  0  0  0  0
   24.0053    2.7024   -1.0393 H   0  0  0  0  0  0
   28.0098    6.3815    2.8836 H   0  0  0  0  0  0
   28.3144    5.0044    3.9280 H   0  0  0  0  0  0
   27.0890    7.6444    4.8625 H   0  0  0  0  0  0
   29.3523    8.2275    5.7779 H   0  0  0  0  0  0
   29.2493    8.2491    4.0326 H   0  0  0  0  0  0
   30.2480    5.9610    4.0586 H   0  0  0  0  0  0
   31.8441    7.8534    5.5857 H   0  0  0  0  0  0
   31.4828    8.1551    3.8818 H   0  0  0  0  0  0
   32.8231    5.5694    4.8015 H   0  0  0  0  0  0
   33.6982    7.0415    4.5571 H   0  0  0  0  0  0
   35.1227    6.4245    2.8182 H   0  0  0  0  0  0
   35.4882    5.7885    0.4857 H   0  0  0  0  0  0
   31.2526    5.1620    0.0063 H   0  0  0  0  0  0
   30.8895    5.8365    2.3154 H   0  0  0  0  0  0
   34.6311    4.6602   -1.3637 H   0  0  0  0  0  0
   34.2091    3.5899   -3.2858 H   0  0  0  0  0  0
   34.0076    5.0773   -4.1671 H   0  0  0  0  0  0
   31.3564    2.6935   -2.8163 H   0  0  0  0  0  0
   29.7455    1.5366   -4.2669 H   0  0  0  0  0  0
   31.6632    3.1789   -7.7338 H   0  0  0  0  0  0
   33.2698    4.3645   -6.2957 H   0  0  0  0  0  0
   27.4066    6.9324    6.8288 H   0  0  0  0  0  0
  1  6  1  0  0  0
  1  2  2  0  0  0
  1 33  1  0  0  0
  2  3  1  0  0  0
  2  7  1  0  0  0
  3  4  2  0  0  0
  3 34  1  0  0  0
  4  5  1  0  0  0
  4 35  1  0  0  0
  5  8  1  0  0  0
  5  6  2  0  0  0
  6 36  1  0  0  0
  7 37  1  0  0  0
  8  9  1  0  0  0
  9 10  1  0  0  0
  9 38  1  0  0  0
  9 39  1  0  0  0
 10 11  1  0  0  0
 10 31  1  0  0  0
 10 40  1  0  0  0
 11 12  1  0  0  0
 11 41  1  0  0  0
 11 42  1  0  0  0
 12 13  1  0  0  0
 12 43  1  0  0  0
 13 14  1  0  0  0
 13 44  1  0  0  0
 13 45  1  0  0  0
 14 15  1  0  0  0
 14 46  1  0  0  0
 14 47  1  0  0  0
 15 16  2  0  0  0
 15 20  1  0  0  0
 16 17  1  0  0  0
 16 48  1  0  0  0
 17 18  2  0  0  0
 17 49  1  0  0  0
 18 19  1  0  0  0
 18 21  1  0  0  0
 19 20  2  0  0  0
 19 50  1  0  0  0
 20 51  1  0  0  0
 21 22  1  0  0  0
 21 52  1  0  0  0
 22 23  1  0  0  0
 22 24  2  0  0  0
 23 25  1  0  0  0
 23 53  1  0  0  0
 23 54  1  0  0  0
 25 26  2  0  0  0
 25 30  1  0  0  0
 26 27  1  0  0  0
 26 55  1  0  0  0
 27 28  2  0  0  0
 27 56  1  0  0  0
 28 29  1  0  0  0
 28 32  1  0  0  0
 29 30  2  0  0  0
 29 57  1  0  0  0
 30 58  1  0  0  0
 31 59  1  0  0  0
M  END
> <s_m_entry_id>
2911

> <s_m_entry_name>
dock_pv.3

> <s_m_Source_Path>
/home/csk/Desktop/cluster/DUD-E-result/adrb1

> <s_m_Source_File>
dock_pv.maegz

> <i_m_Source_File_Index>
3

> <chembl_id>
CHEMBL563810

> <chembl_pref_name>
None

> <i_lp_mmshare_version>
53161

> <i_f3d_flags>
0

> <r_lp_tautomer_probability>
0.999999999999998

> <s_lp_Force_Field>
OPLS_2005

> <r_lp_Energy>
26.86038

> <b_lp_Chiralities_Consistent>
1

> <s_lp_Variant>
CHEMBL213_lig941-1

> <s_i_glide_gridfile>
glide-grid_2vt4

> <i_i_glide_lignum>
1052

> <i_i_glide_rotatable_bonds>
14

> <r_i_docking_score>
-9.98244534993618

> <r_i_glide_ligand_efficiency>
-0.311951417185506

> <r_i_glide_ligand_efficiency_sa>
-0.990384014462348

> <r_i_glide_ligand_efficiency_ln>
-2.23534162503381

> <r_i_glide_gscore>
-9.98244534993618

> <r_i_glide_lipo>
-4.08813234071522

> <r_i_glide_hbond>
-0.900177089100649

> <r_i_glide_metal>
0

> <r_i_glide_rewards>
-1.33133895649209

> <r_i_glide_evdw>
-45.9175605773926

> <r_i_glide_ecoul>
-16.2291488647461

> <r_i_glide_erotb>
1.06745339495333

> <r_i_glide_esite>
0

> <r_i_glide_emodel>
-87.5926153232684

> <r_i_glide_energy>
-62.1467094421387

> <r_i_glide_einternal>
17.6509819030762

> <i_i_glide_confnum>
9

> <i_i_glide_posenum>
136

> <r_i_glide_eff_state_penalty>
0

> <s_user_duplicate_titles>
CHEMBL213_lig941,557692

> <s_m_subgroup_title>
dock_pv

> <s_m_subgroupid>
dock_pv

> <b_m_subgroup_collapsed>
1

$$$$
CHEMBL213_lig1194
                    3D
 Schrodinger Suite 2021-1.
 45 47  0  0  1  0            999 V2000
   24.6080    5.0500    4.3851 C   0  0  0  0  0  0
   25.5522    5.8500    5.0193 C   0  0  0  0  0  0
   26.0895    4.6713    2.4912 C   0  0  0  0  0  0
   24.8578    4.4898    3.1375 C   0  0  0  0  0  0
   27.1015    5.3501    3.2085 C   0  0  0  0  0  0
   26.8169    5.9803    4.4421 C   0  0  0  0  0  0
   27.8397    6.6802    5.1170 N   0  0  0  0  0  0
   29.1440    6.6998    4.7850 C   0  0  0  0  0  0
   29.4289    6.1097    3.4936 C   0  0  0  0  0  0
   28.5072    5.4500    2.7577 C   0  0  0  0  0  0
   29.9863    7.0833    5.5850 O   0  0  0  0  0  0
   25.2154    6.4409    6.2144 O   0  0  0  0  0  0
   26.3011    4.1944    1.0313 C   0  0  2  0  0  0
   26.6078    5.3938    0.2391 N   0  0  2  0  0  0
   25.1202    3.3501    0.4513 C   0  0  0  0  0  0
   25.4080    2.6511   -0.7444 O   0  0  0  0  0  0
   27.1474    5.2556   -1.1121 C   0  0  0  0  0  0
   28.5224    4.5440   -1.1915 C   0  0  0  0  0  0
   29.3507    4.7444   -2.4777 C   0  0  0  0  0  0
   30.3977    3.8571   -2.7985 C   0  0  0  0  0  0
   31.2281    4.1002   -3.8930 C   0  0  0  0  0  0
   31.0189    5.2157   -4.6998 C   0  0  0  0  0  0
   29.9706    6.0850   -4.4150 C   0  0  0  0  0  0
   29.1415    5.8501   -3.3188 C   0  0  0  0  0  0
   30.6080    2.7108   -2.0799 O   0  0  0  0  0  0
   23.6374    4.9131    4.8411 H   0  0  0  0  0  0
   24.0416    3.9592    2.6719 H   0  0  0  0  0  0
   27.6627    7.0915    6.0200 H   0  0  0  0  0  0
   30.4516    6.1647    3.1495 H   0  0  0  0  0  0
   28.8198    4.9954    1.8313 H   0  0  0  0  0  0
   25.7338    7.2175    6.4532 H   0  0  0  0  0  0
   27.1560    3.5372    1.0550 H   0  0  0  0  0  0
   27.2008    6.0132    0.7712 H   0  0  0  0  0  0
   24.8588    2.5629    1.1595 H   0  0  0  0  0  0
   24.2266    3.9619    0.3139 H   0  0  0  0  0  0
   24.8633    3.0500   -1.4430 H   0  0  0  0  0  0
   26.4320    4.7872   -1.7812 H   0  0  0  0  0  0
   27.2294    6.2761   -1.4789 H   0  0  0  0  0  0
   29.1625    4.8869   -0.3797 H   0  0  0  0  0  0
   28.3566    3.4826   -1.0078 H   0  0  0  0  0  0
   32.0296    3.4141   -4.1249 H   0  0  0  0  0  0
   31.6619    5.4041   -5.5477 H   0  0  0  0  0  0
   29.8079    6.9516   -5.0398 H   0  0  0  0  0  0
   28.3595    6.5685   -3.1354 H   0  0  0  0  0  0
   29.7529    2.2573   -1.9760 H   0  0  0  0  0  0
  1  2  2  0  0  0
  1  4  1  0  0  0
  1 26  1  0  0  0
  2  6  1  0  0  0
  2 12  1  0  0  0
  3  5  1  0  0  0
  3  4  2  0  0  0
  3 13  1  0  0  0
  4 27  1  0  0  0
  5  6  2  0  0  0
  5 10  1  0  0  0
  6  7  1  0  0  0
  7  8  1  0  0  0
  7 28  1  0  0  0
  8  9  1  0  0  0
  8 11  2  0  0  0
  9 10  2  0  0  0
  9 29  1  0  0  0
 10 30  1  0  0  0
 12 31  1  0  0  0
 13 14  1  0  0  0
 13 15  1  0  0  0
 13 32  1  0  0  0
 14 17  1  0  0  0
 14 33  1  0  0  0
 15 16  1  0  0  0
 15 34  1  0  0  0
 15 35  1  0  0  0
 16 36  1  0  0  0
 17 18  1  0  0  0
 17 37  1  0  0  0
 17 38  1  0  0  0
 18 19  1  0  0  0
 18 39  1  0  0  0
 18 40  1  0  0  0
 19 20  2  0  0  0
 19 24  1  0  0  0
 20 21  1  0  0  0
 20 25  1  0  0  0
 21 22  2  0  0  0
 21 41  1  0  0  0
 22 23  1  0  0  0
 22 42  1  0  0  0
 23 24  2  0  0  0
 23 43  1  0  0  0
 24 44  1  0  0  0
 25 45  1  0  0  0
M  END
> <s_m_entry_id>
2912

> <s_m_entry_name>
dock_pv.4

> <s_m_Source_Path>
/home/csk/Desktop/cluster/DUD-E-result/adrb1

> <s_m_Source_File>
dock_pv.maegz

> <i_m_Source_File_Index>
4

> <chembl_id>
CHEMBL4280227

> <chembl_pref_name>
None

> <i_lp_mmshare_version>
53161

> <i_f3d_flags>
0

> <r_lp_tautomer_probability>
0.999999999997365

> <s_lp_Force_Field>
OPLS_2005

> <r_lp_Energy>
22.654601

> <b_lp_Chiralities_Consistent>
1

> <s_lp_Variant>
CHEMBL213_lig1194-1

> <s_i_glide_gridfile>
glide-grid_2vt4

> <i_i_glide_lignum>
1400

> <i_i_glide_rotatable_bonds>
9

> <r_i_docking_score>
-9.78670616668758

> <r_i_glide_ligand_efficiency>
-0.391468246667503

> <r_i_glide_ligand_efficiency_sa>
-1.1446600959747

> <r_i_glide_ligand_efficiency_ln>
-2.31974264542221

> <r_i_glide_gscore>
-9.78670616668758

> <r_i_glide_lipo>
-2.46000662864352

> <r_i_glide_hbond>
-1.51809998934988

> <r_i_glide_metal>
0

> <r_i_glide_rewards>
-2.40774607626329

> <r_i_glide_evdw>
-31.098669052124

> <r_i_glide_ecoul>
-16.8827877044678

> <r_i_glide_erotb>
0.686498135845479

> <r_i_glide_esite>
0

> <r_i_glide_emodel>
-71.4683673149536

> <r_i_glide_energy>
-47.9814567565918

> <r_i_glide_einternal>
12.6192226409912

> <i_i_glide_confnum>
208

> <i_i_glide_posenum>
391

> <r_i_glide_eff_state_penalty>
0

> <s_user_duplicate_titles>
CHEMBL213_lig1194

> <s_m_subgroup_title>
dock_pv

> <s_m_subgroupid>
dock_pv

> <b_m_subgroup_collapsed>
1

$$$$
CHEMBL213_lig947
                    3D
 Schrodinger Suite 2021-1.
 63 66  0  0  1  0            999 V2000
   26.1840    3.8350    0.4033 C   0  0  0  0  0  0
   25.0285    3.0817    0.5818 C   0  0  0  0  0  0
   24.3021    3.1651    1.7655 C   0  0  0  0  0  0
   24.7417    3.9984    2.7854 C   0  0  0  0  0  0
   25.9233    4.7211    2.6449 C   0  0  0  0  0  0
   26.6382    4.6500    1.4367 C   0  0  0  0  0  0
   24.6080    2.2502   -0.4150 O   0  0  0  0  0  0
   26.2949    5.4833    3.7314 O   0  0  0  0  0  0
   27.6500    5.9022    3.8480 C   0  0  0  0  0  0
   27.7900    6.8947    5.0181 C   0  0  2  0  0  0
   29.1448    7.6399    5.0190 C   0  0  0  0  0  0
   30.2923    6.7349    5.0014 N   0  0  2  0  0  0
   31.5493    7.4333    4.7812 C   0  0  0  0  0  0
   32.6816    6.5412    4.2301 C   0  0  0  0  0  0
   32.6270    6.2064    2.7358 C   0  0  0  0  0  0
   31.4260    5.8420    2.1194 C   0  0  0  0  0  0
   31.4069    5.4502    0.7870 C   0  0  0  0  0  0
   32.5807    5.4502    0.0345 C   0  0  0  0  0  0
   33.7910    5.8294    0.6351 C   0  0  0  0  0  0
   33.8101    6.1935    1.9847 C   0  0  0  0  0  0
   32.4485    5.0099   -1.2907 N   0  0  0  0  0  0
   33.2564    5.1927   -2.3506 C   0  0  0  0  0  0
   32.8862    4.3801   -3.6044 C   0  0  0  0  0  0
   34.2296    5.9405   -2.3683 O   0  0  0  0  0  0
   31.6915    4.8942   -4.4680 C   0  0  2  0  0  0
   27.5817    6.2500    6.2630 O   0  0  0  0  0  0
   29.3914    4.5105   -4.0152 N   0  0  0  0  0  0
   30.3927    5.2397   -3.7326 C   0  0  0  0  0  0
   29.8080    3.6271   -4.9980 C   0  0  0  0  0  0
   31.1283    3.8218   -5.3619 C   0  0  0  0  0  0
   31.6952    3.0543   -6.3827 C   0  0  0  0  0  0
   30.9182    2.0819   -7.0205 C   0  0  0  0  0  0
   29.5893    1.8757   -6.6340 C   0  0  0  0  0  0
   29.0267    2.6493   -5.6153 C   0  0  0  0  0  0
   26.7355    3.7700   -0.5247 H   0  0  0  0  0  0
   23.4090    2.5817    1.9071 H   0  0  0  0  0  0
   24.1788    4.0680    3.7031 H   0  0  0  0  0  0
   27.5451    5.2082    1.2734 H   0  0  0  0  0  0
   24.0037    2.7028   -1.0376 H   0  0  0  0  0  0
   27.9777    6.4110    2.9434 H   0  0  0  0  0  0
   28.3011    5.0358    3.9851 H   0  0  0  0  0  0
   26.9985    7.6396    4.9191 H   0  0  0  0  0  0
   29.1968    8.3152    5.8736 H   0  0  0  0  0  0
   29.1832    8.2592    4.1234 H   0  0  0  0  0  0
   30.1927    5.9416    4.3834 H   0  0  0  0  0  0
   31.8721    7.8509    5.7291 H   0  0  0  0  0  0
   31.3991    8.2485    4.0707 H   0  0  0  0  0  0
   32.7649    5.6215    4.8086 H   0  0  0  0  0  0
   33.6123    7.0802    4.4131 H   0  0  0  0  0  0
   30.4982    5.8124    2.6623 H   0  0  0  0  0  0
   30.4682    5.1484    0.3445 H   0  0  0  0  0  0
   34.7170    5.8189    0.0801 H   0  0  0  0  0  0
   34.7511    6.4612    2.4413 H   0  0  0  0  0  0
   31.6164    4.4680   -1.4678 H   0  0  0  0  0  0
   32.6874    3.3584   -3.2745 H   0  0  0  0  0  0
   33.7737    4.3001   -4.2347 H   0  0  0  0  0  0
   32.0060    5.7591   -5.0550 H   0  0  0  0  0  0
   27.3448    6.9323    6.9016 H   0  0  0  0  0  0
   30.3125    6.0468   -3.0096 H   0  0  0  0  0  0
   32.7244    3.1967   -6.6794 H   0  0  0  0  0  0
   31.3499    1.4851   -7.8106 H   0  0  0  0  0  0
   28.9909    1.1238   -7.1260 H   0  0  0  0  0  0
   27.9963    2.4969   -5.3246 H   0  0  0  0  0  0
  1  6  1  0  0  0
  1  2  2  0  0  0
  1 35  1  0  0  0
  2  3  1  0  0  0
  2  7  1  0  0  0
  3  4  2  0  0  0
  3 36  1  0  0  0
  4  5  1  0  0  0
  4 37  1  0  0  0
  5  6  2  0  0  0
  5  8  1  0  0  0
  6 38  1  0  0  0
  7 39  1  0  0  0
  8  9  1  0  0  0
  9 10  1  0  0  0
  9 40  1  0  0  0
  9 41  1  0  0  0
 10 11  1  0  0  0
 10 26  1  0  0  0
 10 42  1  0  0  0
 11 12  1  0  0  0
 11 43  1  0  0  0
 11 44  1  0  0  0
 12 13  1  0  0  0
 12 45  1  0  0  0
 13 14  1  0  0  0
 13 46  1  0  0  0
 13 47  1  0  0  0
 14 15  1  0  0  0
 14 48  1  0  0  0
 14 49  1  0  0  0
 15 20  1  0  0  0
 15 16  2  0  0  0
 16 17  1  0  0  0
 16 50  1  0  0  0
 17 18  2  0  0  0
 17 51  1  0  0  0
 18 19  1  0  0  0
 18 21  1  0  0  0
 19 20  2  0  0  0
 19 52  1  0  0  0
 20 53  1  0  0  0
 21 22  1  0  0  0
 21 54  1  0  0  0
 22 23  1  0  0  0
 22 24  2  0  0  0
 23 25  1  0  0  0
 23 55  1  0  0  0
 23 56  1  0  0  0
 25 30  1  0  0  0
 25 28  1  0  0  0
 25 57  1  0  0  0
 26 58  1  0  0  0
 27 29  1  0  0  0
 27 28  2  0  0  0
 28 59  1  0  0  0
 29 30  2  0  0  0
 29 34  1  0  0  0
 30 31  1  0  0  0
 31 32  2  0  0  0
 31 60  1  0  0  0
 32 33  1  0  0  0
 32 61  1  0  0  0
 33 34  2  0  0  0
 33 62  1  0  0  0
 34 63  1  0  0  0
M  END
> <s_m_entry_id>
2913

> <s_m_entry_name>
dock_pv.5

> <s_m_Source_Path>
/home/csk/Desktop/cluster/DUD-E-result/adrb1

> <s_m_Source_File>
dock_pv.maegz

> <i_m_Source_File_Index>
5

> <chembl_id>
CHEMBL552434

> <chembl_pref_name>
None

> <i_lp_mmshare_version>
53161

> <i_f3d_flags>
0

> <r_lp_tautomer_probability>
0.999601159137503

> <s_lp_Force_Field>
OPLS_2005

> <r_lp_Energy>
42.943176

> <b_lp_Chiralities_Consistent>
1

> <s_lp_Variant>
CHEMBL213_lig947-2

> <s_i_glide_gridfile>
glide-grid_2vt4

> <i_i_glide_lignum>
1059

> <i_i_glide_rotatable_bonds>
14

> <r_i_docking_score>
-9.67426570206968

> <r_i_glide_ligand_efficiency>
-0.284537226531461

> <r_i_glide_ligand_efficiency_sa>
-0.921790155890565

> <r_i_glide_ligand_efficiency_ln>
-2.13731664754876

> <r_i_glide_gscore>
-9.67426570206968

> <r_i_glide_lipo>
-4.08903723919368

> <r_i_glide_hbond>
-0.638152364644995

> <r_i_glide_metal>
0

> <r_i_glide_rewards>
-1.63634974796778

> <r_i_glide_evdw>
-45.8505783081055

> <r_i_glide_ecoul>
-13.7754287719727

> <r_i_glide_erotb>
1.04811688093795

> <r_i_glide_esite>
0

> <r_i_glide_emodel>
-89.3903583875823

> <r_i_glide_energy>
-59.6260070800781

> <r_i_glide_einternal>
12.3068332672119

> <i_i_glide_confnum>
22

> <i_i_glide_posenum>
30

> <r_i_glide_eff_state_penalty>
0

> <s_user_duplicate_titles>
CHEMBL213_lig947,561272

> <s_m_subgroup_title>
dock_pv

> <s_m_subgroupid>
dock_pv

> <b_m_subgroup_collapsed>
1

$$$$
CHEMBL213_lig323
                    3D
 Schrodinger Suite 2021-1.
 73 76  0  0  1  0            999 V2000
   36.8062    6.2486    1.5356 S   0  0  0  0  0  0
   32.6511    5.0370   -3.6780 C   0  0  0  0  0  0
   33.9082    4.5744   -3.4098 N   0  0  0  0  0  0
   32.2840    4.4242   -4.8258 N   0  0  0  0  0  0
   35.8079    5.4499    2.7470 N   0  0  0  0  0  0
   29.8311    1.8401   -6.6169 C   0  0  0  0  0  0
   36.0500    5.7577    0.0025 C   0  0  0  0  0  0
   34.3584    3.5865   -4.3814 C   0  0  0  0  0  0
   34.6605    4.9607   -2.2779 C   0  0  0  0  0  0
   38.1206    5.5992    1.5850 O   0  0  0  0  0  0
   36.6615    7.6976    1.7228 O   0  0  0  0  0  0
   31.9851    5.8494   -3.0293 O   0  0  0  0  0  0
   33.3393    3.6929   -5.4828 C   0  0  0  0  0  0
   26.0120    5.3506    3.2785 C   0  0  0  0  0  0
   24.2355    3.8011    2.7127 N   0  0  0  0  0  0
   35.3459    6.6979   -0.7308 C   0  0  0  0  0  0
   36.1271    4.4273   -0.4293 C   0  0  0  0  0  0
   35.4328    4.0293   -1.5718 C   0  0  0  0  0  0
   34.6596    6.2960   -1.8607 C   0  0  0  0  0  0
   34.6467    5.9624    3.3210 C   0  0  0  0  0  0
   30.8358    2.2831   -7.3729 F   0  0  0  0  0  0
   28.6953    2.2993   -7.1411 F   0  0  0  0  0  0
   29.8080    0.5174   -6.7344 F   0  0  0  0  0  0
   26.6126    6.3805    4.2326 C   0  0  1  0  0  0
   30.9685    4.6427   -5.4294 C   0  0  0  0  0  0
   28.6483    6.6500    5.6688 N   0  0  1  0  0  0
   32.2842    6.7590    4.5710 C   0  0  0  0  0  0
   24.8395    4.6500    3.5823 C   0  0  0  0  0  0
   29.9904    2.2366   -5.1359 C   0  0  0  0  0  0
   33.5987    6.4793    2.5610 C   0  0  0  0  0  0
   34.5235    5.8568    4.7024 C   0  0  0  0  0  0
   32.4217    6.8899    3.1852 C   0  0  0  0  0  0
   33.3469    6.2491    5.3217 C   0  0  0  0  0  0
   25.6411    7.1744    4.8958 O   0  0  0  0  0  0
   29.8619    3.7458   -4.8360 C   0  0  0  0  0  0
   27.5588    5.7511    5.2786 C   0  0  0  0  0  0
   26.6081    5.1163    2.0294 C   0  0  0  0  0  0
   24.8143    3.6137    1.4987 C   0  0  0  0  0  0
   29.6999    6.6989    4.6507 C   0  0  0  0  0  0
   31.0105    7.1959    5.2900 C   0  0  0  0  0  0
   25.9979    4.2480    1.1208 C   0  0  0  0  0  0
   35.8926    4.4447    2.7573 H   0  0  0  0  0  0
   35.3581    3.8350   -4.7393 H   0  0  0  0  0  0
   34.3684    2.5896   -3.9400 H   0  0  0  0  0  0
   32.9902    2.7204   -5.8222 H   0  0  0  0  0  0
   33.7207    4.2586   -6.3356 H   0  0  0  0  0  0
   35.3024    7.7320   -0.4193 H   0  0  0  0  0  0
   36.7066    3.7007    0.1240 H   0  0  0  0  0  0
   35.4812    2.9963   -1.8843 H   0  0  0  0  0  0
   34.1356    7.0492   -2.4167 H   0  0  0  0  0  0
   27.1692    7.0499    3.5897 H   0  0  0  0  0  0
   31.0525    4.4756   -6.5011 H   0  0  0  0  0  0
   30.6825    5.6905   -5.3132 H   0  0  0  0  0  0
   28.2881    7.5795    5.8468 H   0  0  0  0  0  0
   24.3346    4.8007    4.5257 H   0  0  0  0  0  0
   29.2270    1.7110   -4.5594 H   0  0  0  0  0  0
   30.9450    1.8645   -4.7597 H   0  0  0  0  0  0
   33.6867    6.5600    1.4885 H   0  0  0  0  0  0
   35.3241    5.4505    5.3010 H   0  0  0  0  0  0
   31.6210    7.3036    2.5875 H   0  0  0  0  0  0
   33.2579    6.1331    6.3867 H   0  0  0  0  0  0
   26.0383    7.5801    5.6745 H   0  0  0  0  0  0
   28.8975    4.0846   -5.2149 H   0  0  0  0  0  0
   29.8090    3.9027   -3.7567 H   0  0  0  0  0  0
   27.9850    4.8171    4.9011 H   0  0  0  0  0  0
   26.9903    5.4645    6.1667 H   0  0  0  0  0  0
   27.5146    5.6292    1.7438 H   0  0  0  0  0  0
   24.3056    2.9439    0.8188 H   0  0  0  0  0  0
   29.4091    7.3640    3.8378 H   0  0  0  0  0  0
   29.8554    5.7153    4.2045 H   0  0  0  0  0  0
   31.0697    6.8259    6.3153 H   0  0  0  0  0  0
   31.0071    8.2814    5.3644 H   0  0  0  0  0  0
   26.4278    4.0759    0.1444 H   0  0  0  0  0  0
  1  5  1  0  0  0
  1  7  1  0  0  0
  1 10  2  0  0  0
  1 11  2  0  0  0
  2  3  1  0  0  0
  2  4  1  0  0  0
  2 12  2  0  0  0
  3  9  1  0  0  0
  3  8  1  0  0  0
  4 25  1  0  0  0
  4 13  1  0  0  0
  5 20  1  0  0  0
  5 42  1  0  0  0
  6 29  1  0  0  0
  6 21  1  0  0  0
  6 22  1  0  0  0
  6 23  1  0  0  0
  7 16  1  0  0  0
  7 17  2  0  0  0
  8 13  1  0  0  0
  8 43  1  0  0  0
  8 44  1  0  0  0
  9 18  2  0  0  0
  9 19  1  0  0  0
 13 45  1  0  0  0
 13 46  1  0  0  0
 14 24  1  0  0  0
 14 28  1  0  0  0
 14 37  2  0  0  0
 15 28  2  0  0  0
 15 38  1  0  0  0
 16 19  2  0  0  0
 16 47  1  0  0  0
 17 18  1  0  0  0
 17 48  1  0  0  0
 18 49  1  0  0  0
 19 50  1  0  0  0
 20 30  2  0  0  0
 20 31  1  0  0  0
 24 36  1  0  0  0
 24 34  1  0  0  0
 24 51  1  0  0  0
 25 35  1  0  0  0
 25 52  1  0  0  0
 25 53  1  0  0  0
 26 39  1  0  0  0
 26 36  1  0  0  0
 26 54  1  0  0  0
 27 33  1  0  0  0
 27 40  1  0  0  0
 27 32  2  0  0  0
 28 55  1  0  0  0
 29 35  1  0  0  0
 29 56  1  0  0  0
 29 57  1  0  0  0
 30 32  1  0  0  0
 30 58  1  0  0  0
 31 33  2  0  0  0
 31 59  1  0  0  0
 32 60  1  0  0  0
 33 61  1  0  0  0
 34 62  1  0  0  0
 35 63  1  0  0  0
 35 64  1  0  0  0
 36 65  1  0  0  0
 36 66  1  0  0  0
 37 41  1  0  0  0
 37 67  1  0  0  0
 38 41  2  0  0  0
 38 68  1  0  0  0
 39 40  1  0  0  0
 39 69  1  0  0  0
 39 70  1  0  0  0
 40 71  1  0  0  0
 40 72  1  0  0  0
 41 73  1  0  0  0
M  END
> <s_m_entry_id>
2914

> <s_m_entry_name>
dock_pv.6

> <s_m_Source_Path>
/home/csk/Desktop/cluster/DUD-E-result/adrb1

> <s_m_Source_File>
dock_pv.maegz

> <i_m_Source_File_Index>
6

> <chembl_id>
CHEMBL79675

> <chembl_pref_name>
None

> <i_lp_mmshare_version>
53161

> <i_f3d_flags>
0

> <r_lp_tautomer_probability>
1

> <s_lp_Force_Field>
OPLS_2005

> <r_lp_Energy>
64.120448

> <b_lp_Chiralities_Consistent>
1

> <s_lp_Variant>
CHEMBL213_lig323-1

> <s_i_glide_gridfile>
glide-grid_2vt4

> <i_i_glide_lignum>
384

> <i_i_glide_rotatable_bonds>
15

> <r_i_docking_score>
-9.62444512863807

> <r_i_glide_ligand_efficiency>
-0.234742564113124

> <r_i_glide_ligand_efficiency_sa>
-0.809443355624546

> <r_i_glide_ligand_efficiency_ln>
-2.04185806272554

> <r_i_glide_gscore>
-9.62444512863807

> <r_i_glide_lipo>
-3.39888542930109

> <r_i_glide_hbond>
-0.722094257708695

> <r_i_glide_metal>
0

> <r_i_glide_rewards>
-1.59616575770723

> <r_i_glide_evdw>
-56.7296371459961

> <r_i_glide_ecoul>
-10.4748907089233

> <r_i_glide_erotb>
0.60871856497587

> <r_i_glide_esite>
-0.108302785258616

> <r_i_glide_emodel>
-96.9317286752182

> <r_i_glide_energy>
-67.2045278549194

> <r_i_glide_einternal>
14.7146663665771

> <i_i_glide_confnum>
26

> <i_i_glide_posenum>
156

> <r_i_glide_eff_state_penalty>
0

> <s_user_duplicate_titles>
CHEMBL213_lig323

> <s_m_subgroup_title>
dock_pv

> <s_m_subgroupid>
dock_pv

> <b_m_subgroup_collapsed>
1

$$$$
CHEMBL213_lig168
                    3D
 Schrodinger Suite 2021-1.
 70 74  0  0  1  0            999 V2000
   35.4535    6.7613    3.4939 S   0  0  0  0  0  0
   29.5343    6.6503    4.5112 N   0  0  0  0  0  0
   28.6510    6.2483    3.5823 N   0  0  0  0  0  0
   28.9895    6.9406    5.7034 N   0  0  0  0  0  0
   25.9404    5.0326    2.5430 C   0  0  0  0  0  0
   27.4910    6.3299    4.1882 C   0  0  0  0  0  0
   35.8078    5.4479    2.3543 N   0  0  0  0  0  0
   24.9257    4.1170    2.8464 C   0  0  0  0  0  0
   26.6063    4.9242    1.3130 C   0  0  0  0  0  0
   27.7263    6.6549    5.5210 C   0  0  0  0  0  0
   33.6975    6.6752    3.8184 C   0  0  0  0  0  0
   30.9361    6.6751    4.2788 C   0  0  0  0  0  0
   24.6103    3.0887    1.9605 C   0  0  0  0  0  0
   26.2862    3.9000    0.4256 C   0  0  0  0  0  0
   26.1681    6.2388    3.4531 C   0  0  0  0  0  0
   36.1413    6.3860    4.7354 O   0  0  0  0  0  0
   35.7373    8.0463    2.8450 O   0  0  0  0  0  0
   25.2969    2.9804    0.7542 C   0  0  0  0  0  0
   30.0807    2.9516   -5.3023 C   0  0  0  0  0  0
   28.2086    1.8657   -6.4068 N   0  0  0  0  0  0
   32.8057    6.6498    2.7530 C   0  0  0  0  0  0
   33.2157    6.6604    5.1264 C   0  0  0  0  0  0
   31.8409    6.6658    5.3510 C   0  0  0  0  0  0
   31.4371    6.6493    2.9748 C   0  0  0  0  0  0
   35.6576    5.4359    0.9609 C   0  0  0  0  0  0
   24.2083    4.2503    3.9834 F   0  0  0  0  0  0
   27.5150    5.8478    0.9396 F   0  0  0  0  0  0
   30.7112    3.6291   -4.0811 C   0  0  1  0  0  0
   25.0079    1.9798   -0.0994 F   0  0  0  0  0  0
   32.9533    3.6482   -2.8557 N   0  0  2  0  0  0
   35.2871    5.1640   -1.7919 C   0  0  0  0  0  0
   28.7713    2.4450   -5.3134 C   0  0  0  0  0  0
   35.9476    4.2282    0.3260 C   0  0  0  0  0  0
   35.2334    6.5271    0.1994 C   0  0  0  0  0  0
   35.7740    4.0913   -1.0453 C   0  0  0  0  0  0
   35.0314    6.3872   -1.1711 C   0  0  0  0  0  0
   29.8074    3.8563   -3.0111 O   0  0  0  0  0  0
   31.9592    2.8514   -3.5761 C   0  0  0  0  0  0
   30.8260    2.8416   -6.4843 C   0  0  0  0  0  0
   28.9517    1.7835   -7.5380 C   0  0  0  0  0  0
   33.5252    4.7512   -3.6299 C   0  0  0  0  0  0
   35.0108    4.9798   -3.2779 C   0  0  0  0  0  0
   30.2638    2.2500   -7.6152 C   0  0  0  0  0  0
   35.9896    4.5455    2.7619 H   0  0  0  0  0  0
   26.9796    6.7985    6.2884 H   0  0  0  0  0  0
   23.8276    2.3853    2.2007 H   0  0  0  0  0  0
   26.7956    3.8252   -0.5243 H   0  0  0  0  0  0
   25.3533    6.3228    4.1724 H   0  0  0  0  0  0
   26.0542    7.1233    2.8277 H   0  0  0  0  0  0
   33.1560    6.6492    1.7345 H   0  0  0  0  0  0
   33.8950    6.6672    5.9669 H   0  0  0  0  0  0
   31.4823    6.6517    6.3684 H   0  0  0  0  0  0
   30.7836    6.6182    2.1201 H   0  0  0  0  0  0
   31.0037    4.6150   -4.4435 H   0  0  0  0  0  0
   33.6880    3.0741   -2.4648 H   0  0  0  0  0  0
   28.1319    2.5047   -4.4431 H   0  0  0  0  0  0
   36.2972    3.3753    0.8907 H   0  0  0  0  0  0
   35.0084    7.4761    0.6530 H   0  0  0  0  0  0
   35.9950    3.1433   -1.5140 H   0  0  0  0  0  0
   34.6567    7.2248   -1.7395 H   0  0  0  0  0  0
   29.5033    3.0052   -2.6717 H   0  0  0  0  0  0
   31.6452    2.0125   -2.9530 H   0  0  0  0  0  0
   32.4858    2.3986   -4.4145 H   0  0  0  0  0  0
   31.8351    3.2265   -6.5343 H   0  0  0  0  0  0
   28.4704    1.3424   -8.3984 H   0  0  0  0  0  0
   33.4475    4.5565   -4.7013 H   0  0  0  0  0  0
   32.9413    5.6447   -3.4061 H   0  0  0  0  0  0
   35.6053    4.1446   -3.6520 H   0  0  0  0  0  0
   35.3877    5.8499   -3.8169 H   0  0  0  0  0  0
   30.8278    2.1775   -8.5328 H   0  0  0  0  0  0
  1  7  1  0  0  0
  1 11  1  0  0  0
  1 16  2  0  0  0
  1 17  2  0  0  0
  2 12  1  0  0  0
  2  3  1  0  0  0
  2  4  1  0  0  0
  3  6  2  0  0  0
  4 10  2  0  0  0
  5 15  1  0  0  0
  5  8  2  0  0  0
  5  9  1  0  0  0
  6 15  1  0  0  0
  6 10  1  0  0  0
  7 25  1  0  0  0
  7 44  1  0  0  0
  8 13  1  0  0  0
  8 26  1  0  0  0
  9 14  2  0  0  0
  9 27  1  0  0  0
 10 45  1  0  0  0
 11 21  2  0  0  0
 11 22  1  0  0  0
 12 23  1  0  0  0
 12 24  2  0  0  0
 13 18  2  0  0  0
 13 46  1  0  0  0
 14 18  1  0  0  0
 14 47  1  0  0  0
 15 48  1  0  0  0
 15 49  1  0  0  0
 18 29  1  0  0  0
 19 28  1  0  0  0
 19 32  1  0  0  0
 19 39  2  0  0  0
 20 32  2  0  0  0
 20 40  1  0  0  0
 21 24  1  0  0  0
 21 50  1  0  0  0
 22 23  2  0  0  0
 22 51  1  0  0  0
 23 52  1  0  0  0
 24 53  1  0  0  0
 25 33  1  0  0  0
 25 34  2  0  0  0
 28 38  1  0  0  0
 28 37  1  0  0  0
 28 54  1  0  0  0
 30 41  1  0  0  0
 30 38  1  0  0  0
 30 55  1  0  0  0
 31 36  2  0  0  0
 31 42  1  0  0  0
 31 35  1  0  0  0
 32 56  1  0  0  0
 33 35  2  0  0  0
 33 57  1  0  0  0
 34 36  1  0  0  0
 34 58  1  0  0  0
 35 59  1  0  0  0
 36 60  1  0  0  0
 37 61  1  0  0  0
 38 62  1  0  0  0
 38 63  1  0  0  0
 39 43  1  0  0  0
 39 64  1  0  0  0
 40 43  2  0  0  0
 40 65  1  0  0  0
 41 42  1  0  0  0
 41 66  1  0  0  0
 41 67  1  0  0  0
 42 68  1  0  0  0
 42 69  1  0  0  0
 43 70  1  0  0  0
M  END
> <s_m_entry_id>
2915

> <s_m_entry_name>
dock_pv.7

> <s_m_Source_Path>
/home/csk/Desktop/cluster/DUD-E-result/adrb1

> <s_m_Source_File>
dock_pv.maegz

> <i_m_Source_File_Index>
7

> <chembl_id>
CHEMBL67404

> <chembl_pref_name>
None

> <i_lp_mmshare_version>
53161

> <i_f3d_flags>
0

> <r_lp_tautomer_probability>
1

> <s_lp_Force_Field>
OPLS_2005

> <r_lp_Energy>
22.044862

> <b_lp_Chiralities_Consistent>
1

> <s_lp_Variant>
CHEMBL213_lig168-1

> <s_i_glide_gridfile>
glide-grid_2vt4

> <i_i_glide_lignum>
203

> <i_i_glide_rotatable_bonds>
13

> <r_i_docking_score>
-9.58108341894638

> <r_i_glide_ligand_efficiency>
-0.222815893463869

> <r_i_glide_ligand_efficiency_sa>
-0.780612768005975

> <r_i_glide_ligand_efficiency_ln>
-2.01232529323139

> <r_i_glide_gscore>
-9.58108341894638

> <r_i_glide_lipo>
-4.56374108148687

> <r_i_glide_hbond>
-0.608

> <r_i_glide_metal>
0

> <r_i_glide_rewards>
-0.990790466042113

> <r_i_glide_evdw>
-60.9581680297852

> <r_i_glide_ecoul>
-5.14624691009521

> <r_i_glide_erotb>
0.501434803970694

> <r_i_glide_esite>
-0.10014123738455

> <r_i_glide_emodel>
-87.7662601472883

> <r_i_glide_energy>
-66.1044149398804

> <r_i_glide_einternal>
11.6063137054443

> <i_i_glide_confnum>
6

> <i_i_glide_posenum>
217

> <r_i_glide_eff_state_penalty>
0

> <s_user_duplicate_titles>
CHEMBL213_lig168

> <s_m_subgroup_title>
dock_pv

> <s_m_subgroupid>
dock_pv

> <b_m_subgroup_collapsed>
1

$$$$
CHEMBL213_lig351
                    3D
 Schrodinger Suite 2021-1.
 67 71  0  0  1  0            999 V2000
   35.4693    6.5750    3.0525 S   0  0  0  0  0  0
   28.6751    5.7707    3.1807 N   0  0  0  0  0  0
   27.3913    5.8048    3.4995 C   0  0  0  0  0  0
   29.4470    6.5251    3.9276 C   0  0  0  0  0  0
   26.4019    5.0223    2.6681 C   0  0  0  0  0  0
   28.6058    7.3504    5.1851 S   0  0  0  0  0  0
   27.1347    6.6071    4.6197 C   0  0  0  0  0  0
   35.8081    5.2197    1.9404 N   0  0  0  0  0  0
   25.1339    4.6509    3.1514 C   0  0  0  0  0  0
   33.6977    6.6162    3.3101 C   0  0  0  0  0  0
   36.0683    6.1837    4.3338 O   0  0  0  0  0  0
   35.8636    7.8331    2.4111 O   0  0  0  0  0  0
   30.9273    6.6498    3.7210 C   0  0  0  0  0  0
   24.2505    3.9196    2.3476 C   0  0  0  0  0  0
   29.9424    2.8456   -5.1784 C   0  0  0  0  0  0
   28.2095    1.9084   -6.6046 N   0  0  0  0  0  0
   32.8304    6.2493    2.2861 C   0  0  0  0  0  0
   33.1816    7.0147    4.5418 C   0  0  0  0  0  0
   31.8010    7.0497    4.7409 C   0  0  0  0  0  0
   31.4612    6.2511    2.4925 C   0  0  0  0  0  0
   35.6158    5.1979    0.5483 C   0  0  0  0  0  0
   24.7292    5.0257    4.3864 F   0  0  0  0  0  0
   30.3309    3.4709   -3.8347 C   0  0  1  0  0  0
   23.0210    3.5958    2.8043 F   0  0  0  0  0  0
   26.7384    4.6501    1.3529 C   0  0  0  0  0  0
   32.3656    5.0421   -3.3703 N   0  0  2  0  0  0
   35.1194    4.9711   -2.1981 C   0  0  0  0  0  0
   28.6265    2.4175   -5.4145 C   0  0  0  0  0  0
   35.8094    3.9798   -0.1085 C   0  0  0  0  0  0
   35.2079    6.3123   -0.1896 C   0  0  0  0  0  0
   35.5646    3.8626   -1.4764 C   0  0  0  0  0  0
   34.9517    6.1929   -1.5492 C   0  0  0  0  0  0
   31.0079    2.5496   -2.9958 O   0  0  0  0  0  0
   25.8532    3.9298    0.5509 C   0  0  0  0  0  0
   31.0350    4.8670   -3.9658 C   0  0  0  0  0  0
   24.6082    3.5612    1.0508 C   0  0  0  0  0  0
   30.8681    2.6980   -6.2202 C   0  0  0  0  0  0
   29.1178    1.8180   -7.6072 C   0  0  0  0  0  0
   33.4300    4.3276   -4.0737 C   0  0  0  0  0  0
   34.8301    4.8668   -3.6931 C   0  0  0  0  0  0
   30.4559    2.1846   -7.4519 C   0  0  0  0  0  0
   26.1950    6.8235    5.1071 H   0  0  0  0  0  0
   36.0159    4.3364    2.3761 H   0  0  0  0  0  0
   33.1910    5.9300    1.3239 H   0  0  0  0  0  0
   33.8445    7.3075    5.3430 H   0  0  0  0  0  0
   31.4245    7.3559    5.7046 H   0  0  0  0  0  0
   30.8268    5.9148    1.6870 H   0  0  0  0  0  0
   29.3953    3.6732   -3.3093 H   0  0  0  0  0  0
   27.6934    4.9268    0.9315 H   0  0  0  0  0  0
   32.3263    4.6509   -2.4374 H   0  0  0  0  0  0
   27.8682    2.4952   -4.6467 H   0  0  0  0  0  0
   36.1351    3.1051    0.4385 H   0  0  0  0  0  0
   35.0378    7.2721    0.2700 H   0  0  0  0  0  0
   35.7137    2.9116   -1.9655 H   0  0  0  0  0  0
   34.6058    7.0516   -2.0942 H   0  0  0  0  0  0
   30.3597    1.8976   -2.7120 H   0  0  0  0  0  0
   26.1267    3.6681   -0.4610 H   0  0  0  0  0  0
   31.0529    5.2059   -5.0041 H   0  0  0  0  0  0
   30.4033    5.5939   -3.4511 H   0  0  0  0  0  0
   23.9112    3.0240    0.4225 H   0  0  0  0  0  0
   31.8959    2.9973   -6.0872 H   0  0  0  0  0  0
   28.7523    1.4417   -8.5518 H   0  0  0  0  0  0
   33.3637    3.2660   -3.8367 H   0  0  0  0  0  0
   33.2964    4.4535   -5.1484 H   0  0  0  0  0  0
   35.5978    4.2425   -4.1547 H   0  0  0  0  0  0
   34.9725    5.8496   -4.1441 H   0  0  0  0  0  0
   31.1540    2.0890   -8.2709 H   0  0  0  0  0  0
  1  8  1  0  0  0
  1 10  1  0  0  0
  1 11  2  0  0  0
  1 12  2  0  0  0
  2  4  2  0  0  0
  2  3  1  0  0  0
  3  5  1  0  0  0
  3  7  2  0  0  0
  4 13  1  0  0  0
  4  6  1  0  0  0
  5  9  2  0  0  0
  5 25  1  0  0  0
  6  7  1  0  0  0
  7 42  1  0  0  0
  8 21  1  0  0  0
  8 43  1  0  0  0
  9 14  1  0  0  0
  9 22  1  0  0  0
 10 17  2  0  0  0
 10 18  1  0  0  0
 13 19  1  0  0  0
 13 20  2  0  0  0
 14 24  1  0  0  0
 14 36  2  0  0  0
 15 23  1  0  0  0
 15 28  1  0  0  0
 15 37  2  0  0  0
 16 28  2  0  0  0
 16 38  1  0  0  0
 17 20  1  0  0  0
 17 44  1  0  0  0
 18 19  2  0  0  0
 18 45  1  0  0  0
 19 46  1  0  0  0
 20 47  1  0  0  0
 21 29  1  0  0  0
 21 30  2  0  0  0
 23 35  1  0  0  0
 23 33  1  0  0  0
 23 48  1  0  0  0
 25 34  2  0  0  0
 25 49  1  0  0  0
 26 39  1  0  0  0
 26 35  1  0  0  0
 26 50  1  0  0  0
 27 32  2  0  0  0
 27 40  1  0  0  0
 27 31  1  0  0  0
 28 51  1  0  0  0
 29 31  2  0  0  0
 29 52  1  0  0  0
 30 32  1  0  0  0
 30 53  1  0  0  0
 31 54  1  0  0  0
 32 55  1  0  0  0
 33 56  1  0  0  0
 34 36  1  0  0  0
 34 57  1  0  0  0
 35 58  1  0  0  0
 35 59  1  0  0  0
 36 60  1  0  0  0
 37 41  1  0  0  0
 37 61  1  0  0  0
 38 41  2  0  0  0
 38 62  1  0  0  0
 39 40  1  0  0  0
 39 63  1  0  0  0
 39 64  1  0  0  0
 40 65  1  0  0  0
 40 66  1  0  0  0
 41 67  1  0  0  0
M  END
> <s_m_entry_id>
2916

> <s_m_entry_name>
dock_pv.8

> <s_m_Source_Path>
/home/csk/Desktop/cluster/DUD-E-result/adrb1

> <s_m_Source_File>
dock_pv.maegz

> <i_m_Source_File_Index>
8

> <chembl_id>
CHEMBL125963

> <chembl_pref_name>
None

> <i_lp_mmshare_version>
53161

> <i_f3d_flags>
0

> <r_lp_tautomer_probability>
1

> <s_lp_Force_Field>
OPLS_2005

> <r_lp_Energy>
25.411185

> <b_lp_Chiralities_Consistent>
1

> <s_lp_Variant>
CHEMBL213_lig351-1

> <s_i_glide_gridfile>
glide-grid_2vt4

> <i_i_glide_lignum>
412

> <i_i_glide_rotatable_bonds>
12

> <r_i_docking_score>
-9.31712756810017

> <r_i_glide_ligand_efficiency>
-0.227247013856102

> <r_i_glide_ligand_efficiency_sa>
-0.783597070034122

> <r_i_glide_ligand_efficiency_ln>
-1.97665961955147

> <r_i_glide_gscore>
-9.31712756810017

> <r_i_glide_lipo>
-4.26064894609413

> <r_i_glide_hbond>
-0.211137789257063

> <r_i_glide_metal>
0

> <r_i_glide_rewards>
-0.861828195597607

> <r_i_glide_evdw>
-65.9385299682617

> <r_i_glide_ecoul>
-7.63669109344482

> <r_i_glide_erotb>
0.486156248314149

> <r_i_glide_esite>
-0.0272387230357097

> <r_i_glide_emodel>
-105.055487317696

> <r_i_glide_energy>
-73.5752210617065

> <r_i_glide_einternal>
13.7357168197632

> <i_i_glide_confnum>
10

> <i_i_glide_posenum>
394

> <r_i_glide_eff_state_penalty>
0

> <s_user_duplicate_titles>
CHEMBL213_lig351

> <s_m_subgroup_title>
dock_pv

> <s_m_subgroupid>
dock_pv

> <b_m_subgroup_collapsed>
1

$$$$
CHEMBL213_lig1159
                    3D
 Schrodinger Suite 2021-1.
 75 79  0  0  1  0            999 V2000
   29.5166    2.3914   -5.6365 C   0  0  0  0  0  0
   30.1864    1.9534   -6.7770 C   0  0  0  0  0  0
   31.3437    3.9217   -5.0882 C   0  0  0  0  0  0
   30.0902    3.3518   -4.8008 C   0  0  0  0  0  0
   29.5638    1.0518   -7.6135 O   0  0  0  0  0  0
   31.9125    5.0586   -4.2098 C   0  0  2  0  0  0
   33.1588    4.6569   -3.3643 C   0  0  0  0  0  0
   33.7337    5.8499   -2.7352 N   0  0  2  0  0  0
   34.9993    5.6550   -2.0362 C   0  0  0  0  0  0
   34.8812    4.8442   -0.7264 C   0  0  0  0  0  0
   33.9815    5.4463    0.3568 C   0  0  0  0  0  0
   34.5065    5.8713    1.5808 C   0  0  0  0  0  0
   33.6498    6.2691    2.6100 C   0  0  0  0  0  0
   32.2626    6.2497    2.4341 C   0  0  0  0  0  0
   31.7533    5.8500    1.1929 C   0  0  0  0  0  0
   32.5997    5.4500    0.1698 C   0  0  0  0  0  0
   30.9460    5.6446   -3.3437 O   0  0  0  0  0  0
   32.0318    3.4595   -6.2297 C   0  0  0  0  0  0
   31.4665    2.4566   -7.0504 C   0  0  0  0  0  0
   32.2278    1.9338   -8.1198 N   0  0  0  0  0  0
   33.4909    2.2678   -8.4548 C   0  0  0  0  0  0
   34.0104    3.3973   -7.7040 C   0  0  0  0  0  0
   33.3645    3.9544   -6.6543 C   0  0  0  0  0  0
   34.1143    1.6241   -9.2890 O   0  0  0  0  0  0
   31.4554    6.6521    3.5199 N   0  0  0  0  0  0
   30.0789    6.5409    3.8091 C   0  0  0  0  0  0
   29.2137    5.6903    3.1182 C   0  0  0  0  0  0
   27.8246    5.7054    3.3108 C   0  0  0  0  0  0
   27.3065    6.4524    4.3836 C   0  0  0  0  0  0
   28.1917    7.2145    5.1660 C   0  0  0  0  0  0
   29.5513    7.2863    4.8591 C   0  0  0  0  0  0
   26.9555    4.9880    2.3222 C   0  0  0  0  0  0
   25.9370    6.4349    4.5697 O   0  0  0  0  0  0
   25.3477    7.0825    5.6820 C   0  0  0  0  0  0
   27.3348    4.9711    0.9729 C   0  0  0  0  0  0
   26.6046    4.2748    0.0126 C   0  0  0  0  0  0
   25.4288    3.6221    0.3839 C   0  0  0  0  0  0
   25.0045    3.6586    1.7098 C   0  0  0  0  0  0
   25.7641    4.3296    2.6705 C   0  0  0  0  0  0
   27.1307    4.2168   -1.4080 C   0  0  0  0  0  0
   27.0184    5.5111   -2.0510 N   0  0  0  0  0  0
   28.5362    2.0013   -5.3994 H   0  0  0  0  0  0
   29.5284    3.6596   -3.9286 H   0  0  0  0  0  0
   29.8100    1.1604   -8.5361 H   0  0  0  0  0  0
   32.2037    5.8504   -4.9013 H   0  0  0  0  0  0
   32.8735    3.9132   -2.6179 H   0  0  0  0  0  0
   33.9139    4.1946   -4.0002 H   0  0  0  0  0  0
   33.0688    6.1674   -2.0432 H   0  0  0  0  0  0
   35.7641    5.2486   -2.6990 H   0  0  0  0  0  0
   35.3330    6.6590   -1.7699 H   0  0  0  0  0  0
   34.5154    3.8407   -0.9465 H   0  0  0  0  0  0
   35.8822    4.6877   -0.3220 H   0  0  0  0  0  0
   35.5743    5.8641    1.7450 H   0  0  0  0  0  0
   34.0713    6.5820    3.5542 H   0  0  0  0  0  0
   30.7025    5.8557    0.9685 H   0  0  0  0  0  0
   32.1568    5.1020   -0.7490 H   0  0  0  0  0  0
   30.2288    5.9889   -3.8840 H   0  0  0  0  0  0
   31.8870    1.1497   -8.6492 H   0  0  0  0  0  0
   34.9690    3.7903   -8.0106 H   0  0  0  0  0  0
   33.8256    4.8022   -6.1638 H   0  0  0  0  0  0
   31.9741    7.1519    4.2266 H   0  0  0  0  0  0
   29.6081    5.0048    2.3906 H   0  0  0  0  0  0
   27.8324    7.8191    5.9762 H   0  0  0  0  0  0
   30.1917    7.9341    5.4374 H   0  0  0  0  0  0
   24.2817    6.8504    5.7064 H   0  0  0  0  0  0
   25.7783    6.7375    6.6242 H   0  0  0  0  0  0
   25.4423    8.1666    5.5850 H   0  0  0  0  0  0
   28.2349    5.4751    0.6532 H   0  0  0  0  0  0
   24.8414    3.0936   -0.3555 H   0  0  0  0  0  0
   24.0942    3.1520    1.9953 H   0  0  0  0  0  0
   25.4256    4.2989    3.6954 H   0  0  0  0  0  0
   28.1771    3.9097   -1.3883 H   0  0  0  0  0  0
   26.6089    3.4558   -1.9900 H   0  0  0  0  0  0
   26.2209    5.4223   -2.6789 H   0  0  0  0  0  0
   26.7398    6.1908   -1.3578 H   0  0  0  0  0  0
  1  2  2  0  0  0
  1  4  1  0  0  0
  1 42  1  0  0  0
  2 19  1  0  0  0
  2  5  1  0  0  0
  3 18  1  0  0  0
  3  4  2  0  0  0
  3  6  1  0  0  0
  4 43  1  0  0  0
  5 44  1  0  0  0
  6  7  1  0  0  0
  6 17  1  0  0  0
  6 45  1  0  0  0
  7  8  1  0  0  0
  7 46  1  0  0  0
  7 47  1  0  0  0
  8  9  1  0  0  0
  8 48  1  0  0  0
  9 10  1  0  0  0
  9 49  1  0  0  0
  9 50  1  0  0  0
 10 11  1  0  0  0
 10 51  1  0  0  0
 10 52  1  0  0  0
 11 12  2  0  0  0
 11 16  1  0  0  0
 12 13  1  0  0  0
 12 53  1  0  0  0
 13 14  2  0  0  0
 13 54  1  0  0  0
 14 15  1  0  0  0
 14 25  1  0  0  0
 15 16  2  0  0  0
 15 55  1  0  0  0
 16 56  1  0  0  0
 17 57  1  0  0  0
 18 19  2  0  0  0
 18 23  1  0  0  0
 19 20  1  0  0  0
 20 21  1  0  0  0
 20 58  1  0  0  0
 21 22  1  0  0  0
 21 24  2  0  0  0
 22 23  2  0  0  0
 22 59  1  0  0  0
 23 60  1  0  0  0
 25 26  1  0  0  0
 25 61  1  0  0  0
 26 27  2  0  0  0
 26 31  1  0  0  0
 27 28  1  0  0  0
 27 62  1  0  0  0
 28 29  2  0  0  0
 28 32  1  0  0  0
 29 30  1  0  0  0
 29 33  1  0  0  0
 30 31  2  0  0  0
 30 63  1  0  0  0
 31 64  1  0  0  0
 32 35  2  0  0  0
 32 39  1  0  0  0
 33 34  1  0  0  0
 34 65  1  0  0  0
 34 66  1  0  0  0
 34 67  1  0  0  0
 35 36  1  0  0  0
 35 68  1  0  0  0
 36 37  2  0  0  0
 36 40  1  0  0  0
 37 38  1  0  0  0
 37 69  1  0  0  0
 38 39  2  0  0  0
 38 70  1  0  0  0
 39 71  1  0  0  0
 40 41  1  0  0  0
 40 72  1  0  0  0
 40 73  1  0  0  0
 41 74  1  0  0  0
 41 75  1  0  0  0
M  END
> <s_m_entry_id>
2917

> <s_m_entry_name>
dock_pv.9

> <s_m_Source_Path>
/home/csk/Desktop/cluster/DUD-E-result/adrb1

> <s_m_Source_File>
dock_pv.maegz

> <i_m_Source_File_Index>
9

> <chembl_id>
CHEMBL3298325

> <chembl_pref_name>
None

> <i_lp_mmshare_version>
53161

> <i_f3d_flags>
0

> <r_lp_tautomer_probability>
1

> <s_lp_Force_Field>
OPLS_2005

> <r_lp_Energy>
45.941535

> <b_lp_Chiralities_Consistent>
1

> <s_lp_Variant>
CHEMBL213_lig1159-1

> <s_i_glide_gridfile>
glide-grid_2vt4

> <i_i_glide_lignum>
1355

> <i_i_glide_rotatable_bonds>
13

> <r_i_docking_score>
-9.30986593845028

> <r_i_glide_ligand_efficiency>
-0.227069900937812

> <r_i_glide_ligand_efficiency_sa>
-0.782986346216535

> <r_i_glide_ligand_efficiency_ln>
-1.97511904065565

> <r_i_glide_gscore>
-9.30986593845028

> <r_i_glide_lipo>
-4.69381090789773

> <r_i_glide_hbond>
-0.533648166585275

> <r_i_glide_metal>
0

> <r_i_glide_rewards>
-0.816666666666667

> <r_i_glide_evdw>
-59.0527648925781

> <r_i_glide_ecoul>
-5.72852420806885

> <r_i_glide_erotb>
0.546176678538633

> <r_i_glide_esite>
0

> <r_i_glide_emodel>
-98.887043617153

> <r_i_glide_energy>
-64.781289100647

> <r_i_glide_einternal>
7.74948787689209

> <i_i_glide_confnum>
30

> <i_i_glide_posenum>
123

> <r_i_glide_eff_state_penalty>
0

> <s_user_duplicate_titles>
CHEMBL213_lig1159

> <s_m_subgroup_title>
dock_pv

> <s_m_subgroupid>
dock_pv

> <b_m_subgroup_collapsed>
1

$$$$
CHEMBL213_lig957
                    3D
 Schrodinger Suite 2021-1.
 61 63  0  0  1  0            999 V2000
   33.1044    4.4864   -6.9228 C   0  0  0  0  0  0
   31.9805    4.4613   -6.0480 O   0  0  0  0  0  0
   31.0487    3.4437   -6.1556 C   0  0  0  0  0  0
   30.9470    2.6093   -7.2800 C   0  0  0  0  0  0
   29.9270    1.6635   -7.3736 C   0  0  0  0  0  0
   29.0009    1.5185   -6.3476 C   0  0  0  0  0  0
   29.1017    2.3167   -5.2150 C   0  0  0  0  0  0
   30.1311    3.2554   -5.1036 C   0  0  0  0  0  0
   30.1778    3.9806   -3.9043 N   0  0  0  0  0  0
   31.1620    4.0603   -2.9586 C   0  0  0  0  0  0
   32.6936    3.3857   -3.1164 S   0  0  0  0  0  0
   30.6922    4.6994   -1.8470 N   0  0  0  0  0  0
   31.2739    5.0500   -0.6186 C   0  0  0  0  0  0
   32.6080    5.4500   -0.4529 C   0  0  0  0  0  0
   33.0661    5.8500    0.8042 C   0  0  0  0  0  0
   32.2049    5.8500    1.9077 C   0  0  0  0  0  0
   32.7392    6.2385    3.2910 C   0  0  0  0  0  0
   31.8858    7.2418    4.0963 C   0  0  0  0  0  0
   30.6899    6.6500    4.6851 N   0  0  1  0  0  0
   29.4988    7.4712    4.4841 C   0  0  0  0  0  0
   28.1776    6.8311    4.9823 C   0  0  2  0  0  0
   28.2080    6.6500    6.3850 O   0  0  0  0  0  0
   27.7716    5.5069    4.3044 C   0  0  0  0  0  0
   27.4499    5.7670    2.9363 O   0  0  0  0  0  0
   26.5159    4.9980    2.2671 C   0  0  0  0  0  0
   25.4901    4.2504    2.8769 C   0  0  0  0  0  0
   24.6080    3.5010    2.1010 C   0  0  0  0  0  0
   24.7425    3.4969    0.7172 C   0  0  0  0  0  0
   25.7365    4.2500    0.0987 C   0  0  0  0  0  0
   26.6080    5.0090    0.8744 C   0  0  0  0  0  0
   30.8847    5.4272    1.7362 C   0  0  0  0  0  0
   30.4191    5.0500    0.4815 C   0  0  0  0  0  0
   33.7637    5.3052   -6.6326 H   0  0  0  0  0  0
   33.6787    3.5613   -6.8541 H   0  0  0  0  0  0
   32.8204    4.6500   -7.9618 H   0  0  0  0  0  0
   31.6311    2.7050   -8.1083 H   0  0  0  0  0  0
   29.8404    1.0500   -8.2516 H   0  0  0  0  0  0
   28.2080    0.7891   -6.4235 H   0  0  0  0  0  0
   28.3841    2.1896   -4.4151 H   0  0  0  0  0  0
   29.2814    4.3537   -3.6300 H   0  0  0  0  0  0
   29.6953    4.8530   -1.8448 H   0  0  0  0  0  0
   33.2897    5.4995   -1.2873 H   0  0  0  0  0  0
   34.0932    6.1665    0.9116 H   0  0  0  0  0  0
   33.7183    6.7000    3.1560 H   0  0  0  0  0  0
   32.9295    5.3391    3.8759 H   0  0  0  0  0  0
   31.6149    8.0575    3.4242 H   0  0  0  0  0  0
   32.4824    7.6764    4.8953 H   0  0  0  0  0  0
   30.5938    5.6826    4.3850 H   0  0  0  0  0  0
   29.4080    7.6685    3.4180 H   0  0  0  0  0  0
   29.6391    8.4351    4.9763 H   0  0  0  0  0  0
   27.3778    7.5474    4.7867 H   0  0  0  0  0  0
   27.6812    7.3572    6.7850 H   0  0  0  0  0  0
   26.9426    5.0905    4.8714 H   0  0  0  0  0  0
   28.5751    4.7711    4.3589 H   0  0  0  0  0  0
   25.3425    4.2362    3.9433 H   0  0  0  0  0  0
   23.8211    2.9272    2.5678 H   0  0  0  0  0  0
   24.0570    2.9230    0.1091 H   0  0  0  0  0  0
   25.8163    4.2562   -0.9793 H   0  0  0  0  0  0
   27.3609    5.6120    0.3906 H   0  0  0  0  0  0
   30.1983    5.3722    2.5633 H   0  0  0  0  0  0
   29.3946    4.7292    0.3769 H   0  0  0  0  0  0
  1  2  1  0  0  0
  1 33  1  0  0  0
  1 34  1  0  0  0
  1 35  1  0  0  0
  2  3  1  0  0  0
  3  4  2  0  0  0
  3  8  1  0  0  0
  4  5  1  0  0  0
  4 36  1  0  0  0
  5  6  2  0  0  0
  5 37  1  0  0  0
  6  7  1  0  0  0
  6 38  1  0  0  0
  7  8  2  0  0  0
  7 39  1  0  0  0
  8  9  1  0  0  0
  9 10  1  0  0  0
  9 40  1  0  0  0
 10 11  2  0  0  0
 10 12  1  0  0  0
 12 13  1  0  0  0
 12 41  1  0  0  0
 13 14  2  0  0  0
 13 32  1  0  0  0
 14 15  1  0  0  0
 14 42  1  0  0  0
 15 16  2  0  0  0
 15 43  1  0  0  0
 16 17  1  0  0  0
 16 31  1  0  0  0
 17 18  1  0  0  0
 17 44  1  0  0  0
 17 45  1  0  0  0
 18 19  1  0  0  0
 18 46  1  0  0  0
 18 47  1  0  0  0
 19 20  1  0  0  0
 19 48  1  0  0  0
 20 21  1  0  0  0
 20 49  1  0  0  0
 20 50  1  0  0  0
 21 22  1  0  0  0
 21 23  1  0  0  0
 21 51  1  0  0  0
 22 52  1  0  0  0
 23 24  1  0  0  0
 23 53  1  0  0  0
 23 54  1  0  0  0
 24 25  1  0  0  0
 25 26  2  0  0  0
 25 30  1  0  0  0
 26 27  1  0  0  0
 26 55  1  0  0  0
 27 28  2  0  0  0
 27 56  1  0  0  0
 28 29  1  0  0  0
 28 57  1  0  0  0
 29 30  2  0  0  0
 29 58  1  0  0  0
 30 59  1  0  0  0
 31 32  2  0  0  0
 31 60  1  0  0  0
 32 61  1  0  0  0
M  END
> <s_m_entry_id>
2918

> <s_m_entry_name>
dock_pv.10

> <s_m_Source_Path>
/home/csk/Desktop/cluster/DUD-E-result/adrb1

> <s_m_Source_File>
dock_pv.maegz

> <i_m_Source_File_Index>
10

> <chembl_id>
CHEMBL1203995

> <chembl_pref_name>
None

> <i_lp_mmshare_version>
53161

> <i_f3d_flags>
0

> <r_lp_tautomer_probability>
1

> <s_lp_Force_Field>
OPLS_2005

> <r_lp_Energy>
49.724463

> <b_lp_Chiralities_Consistent>
1

> <s_lp_Variant>
CHEMBL213_lig957-1

> <s_i_glide_gridfile>
glide-grid_2vt4

> <i_i_glide_lignum>
1069

> <i_i_glide_rotatable_bonds>
14

> <r_i_docking_score>
-9.30289887168756

> <r_i_glide_ligand_efficiency>
-0.290715589740236

> <r_i_glide_ligand_efficiency_sa>
-0.922964464888163

> <r_i_glide_ligand_efficiency_ln>
-2.08317264481656

> <r_i_glide_gscore>
-9.30289887168756

> <r_i_glide_lipo>
-3.52513698365488

> <r_i_glide_hbond>
-0.795308297504427

> <r_i_glide_metal>
0

> <r_i_glide_rewards>
-2.06485009969204

> <r_i_glide_evdw>
-42.636775970459

> <r_i_glide_ecoul>
-12.4515104293823

> <r_i_glide_erotb>
1.08196187209409

> <r_i_glide_esite>
0

> <r_i_glide_emodel>
-80.3391466596874

> <r_i_glide_energy>
-55.0882863998413

> <r_i_glide_einternal>
9.32787036895752

> <i_i_glide_confnum>
40

> <i_i_glide_posenum>
319

> <r_i_glide_eff_state_penalty>
0

> <s_user_duplicate_titles>
CHEMBL213_lig957,677946

> <s_m_subgroup_title>
dock_pv

> <s_m_subgroupid>
dock_pv

> <b_m_subgroup_collapsed>
1

$$$$
CHEMBL213_lig161
                    3D
 Schrodinger Suite 2021-1.
 70 74  0  0  1  0            999 V2000
   35.5517    6.4024    3.0785 S   0  0  0  0  0  0
   29.7016    6.6897    4.2763 N   0  0  0  0  0  0
   28.8377    5.7952    3.7717 N   0  0  0  0  0  0
   29.1645    7.6000    5.0985 N   0  0  0  0  0  0
   27.6735    6.1899    4.2307 C   0  0  0  0  0  0
   35.8081    5.0753    1.9190 N   0  0  0  0  0  0
   27.8944    7.2891    5.0570 C   0  0  0  0  0  0
   33.7990    6.4719    3.4172 C   0  0  0  0  0  0
   31.0785    6.6501    3.9797 C   0  0  0  0  0  0
   36.1978    5.9655    4.3219 O   0  0  0  0  0  0
   35.9454    7.6702    2.4549 O   0  0  0  0  0  0
   26.9073    4.7890    0.1446 C   0  0  0  0  0  0
   26.0504    3.7044   -0.0376 C   0  0  0  0  0  0
   30.3681    3.3634   -4.9777 C   0  0  0  0  0  0
   26.9822    5.4081    1.3897 C   0  0  0  0  0  0
   26.2244    4.9285    2.4688 C   0  0  0  0  0  0
   30.2081    1.0744   -5.7989 N   0  0  0  0  0  0
   26.3647    5.4966    3.8818 C   0  0  0  0  0  0
   32.8624    6.2494    2.4072 C   0  0  0  0  0  0
   33.3766    6.7701    4.7120 C   0  0  0  0  0  0
   32.0182    6.8782    4.9878 C   0  0  0  0  0  0
   31.5054    6.3239    2.6898 C   0  0  0  0  0  0
   35.6040    5.1169    0.5325 C   0  0  0  0  0  0
   25.2253    3.2772    0.9998 C   0  0  0  0  0  0
   30.0346    4.3976   -3.8860 C   0  0  1  0  0  0
   27.6823    5.2300   -0.8723 F   0  0  0  0  0  0
   25.3114    3.8893    2.2490 C   0  0  0  0  0  0
   26.0314    3.0500   -1.2148 F   0  0  0  0  0  0
   32.2812    5.5054   -3.2216 N   0  0  2  0  0  0
   35.0436    4.9899   -2.1977 C   0  0  0  0  0  0
   29.9643    2.0245   -4.8631 C   0  0  0  0  0  0
   35.8079    3.9290   -0.1736 C   0  0  0  0  0  0
   35.1786    6.2595   -0.1503 C   0  0  0  0  0  0
   35.5227    3.8603   -1.5345 C   0  0  0  0  0  0
   34.8965    6.1933   -1.5079 C   0  0  0  0  0  0
   29.9468    3.8500   -2.5772 O   0  0  0  0  0  0
   30.9439    5.6663   -3.8089 C   0  0  0  0  0  0
   31.0289    3.7206   -6.1621 C   0  0  0  0  0  0
   30.8911    1.4501   -6.9055 C   0  0  0  0  0  0
   33.1965    4.6715   -4.0011 C   0  0  0  0  0  0
   34.6861    4.9232   -3.6761 C   0  0  0  0  0  0
   31.3201    2.7552   -7.1260 C   0  0  0  0  0  0
   36.0158    4.1692    2.3093 H   0  0  0  0  0  0
   27.1400    7.8498    5.5847 H   0  0  0  0  0  0
   27.6514    6.2458    1.5078 H   0  0  0  0  0  0
   26.2152    4.6760    4.5837 H   0  0  0  0  0  0
   25.5252    6.1745    4.0423 H   0  0  0  0  0  0
   33.1607    6.0095    1.4010 H   0  0  0  0  0  0
   34.0947    6.9468    5.4991 H   0  0  0  0  0  0
   31.6993    7.1272    5.9852 H   0  0  0  0  0  0
   30.7950    6.1221    1.9033 H   0  0  0  0  0  0
   24.5459    2.4530    0.8405 H   0  0  0  0  0  0
   29.0327    4.7513   -4.1341 H   0  0  0  0  0  0
   24.6933    3.5241    3.0562 H   0  0  0  0  0  0
   32.1453    5.0464   -2.3285 H   0  0  0  0  0  0
   29.4080    1.6760   -4.0149 H   0  0  0  0  0  0
   36.1521    3.0392    0.3334 H   0  0  0  0  0  0
   35.0114    7.1985    0.3499 H   0  0  0  0  0  0
   35.6592    2.9271   -2.0623 H   0  0  0  0  0  0
   34.5351    7.0738   -2.0142 H   0  0  0  0  0  0
   29.1989    3.2399   -2.5306 H   0  0  0  0  0  0
   31.0182    6.1658   -4.7753 H   0  0  0  0  0  0
   30.4275    6.3886   -3.1764 H   0  0  0  0  0  0
   31.3295    4.7391   -6.3527 H   0  0  0  0  0  0
   31.1066    0.6684   -7.6150 H   0  0  0  0  0  0
   32.9436    3.6201   -3.8538 H   0  0  0  0  0  0
   33.0708    4.9226   -5.0531 H   0  0  0  0  0  0
   35.2957    4.1570   -4.1575 H   0  0  0  0  0  0
   35.0057    5.8499   -4.1472 H   0  0  0  0  0  0
   31.8577    3.0202   -8.0232 H   0  0  0  0  0  0
  1  6  1  0  0  0
  1  8  1  0  0  0
  1 10  2  0  0  0
  1 11  2  0  0  0
  2  9  1  0  0  0
  2  3  1  0  0  0
  2  4  1  0  0  0
  3  5  2  0  0  0
  4  7  2  0  0  0
  5 18  1  0  0  0
  5  7  1  0  0  0
  6 23  1  0  0  0
  6 43  1  0  0  0
  7 44  1  0  0  0
  8 19  2  0  0  0
  8 20  1  0  0  0
  9 21  1  0  0  0
  9 22  2  0  0  0
 12 15  1  0  0  0
 12 26  1  0  0  0
 12 13  2  0  0  0
 13 24  1  0  0  0
 13 28  1  0  0  0
 14 25  1  0  0  0
 14 31  1  0  0  0
 14 38  2  0  0  0
 15 16  2  0  0  0
 15 45  1  0  0  0
 16 18  1  0  0  0
 16 27  1  0  0  0
 17 31  2  0  0  0
 17 39  1  0  0  0
 18 46  1  0  0  0
 18 47  1  0  0  0
 19 22  1  0  0  0
 19 48  1  0  0  0
 20 21  2  0  0  0
 20 49  1  0  0  0
 21 50  1  0  0  0
 22 51  1  0  0  0
 23 32  2  0  0  0
 23 33  1  0  0  0
 24 27  2  0  0  0
 24 52  1  0  0  0
 25 37  1  0  0  0
 25 36  1  0  0  0
 25 53  1  0  0  0
 27 54  1  0  0  0
 29 40  1  0  0  0
 29 37  1  0  0  0
 29 55  1  0  0  0
 30 35  1  0  0  0
 30 41  1  0  0  0
 30 34  2  0  0  0
 31 56  1  0  0  0
 32 34  1  0  0  0
 32 57  1  0  0  0
 33 35  2  0  0  0
 33 58  1  0  0  0
 34 59  1  0  0  0
 35 60  1  0  0  0
 36 61  1  0  0  0
 37 62  1  0  0  0
 37 63  1  0  0  0
 38 42  1  0  0  0
 38 64  1  0  0  0
 39 42  2  0  0  0
 39 65  1  0  0  0
 40 41  1  0  0  0
 40 66  1  0  0  0
 40 67  1  0  0  0
 41 68  1  0  0  0
 41 69  1  0  0  0
 42 70  1  0  0  0
M  END
> <s_m_entry_id>
2919

> <s_m_entry_name>
dock_pv.11

> <s_m_Source_Path>
/home/csk/Desktop/cluster/DUD-E-result/adrb1

> <s_m_Source_File>
dock_pv.maegz

> <i_m_Source_File_Index>
11

> <chembl_id>
CHEMBL65513

> <chembl_pref_name>
None

> <i_lp_mmshare_version>
53161

> <i_f3d_flags>
0

> <r_lp_tautomer_probability>
1

> <s_lp_Force_Field>
OPLS_2005

> <r_lp_Energy>
29.909654

> <b_lp_Chiralities_Consistent>
1

> <s_lp_Variant>
CHEMBL213_lig161-1

> <s_i_glide_gridfile>
glide-grid_2vt4

> <i_i_glide_lignum>
196

> <i_i_glide_rotatable_bonds>
13

> <r_i_docking_score>
-9.29515120351343

> <r_i_glide_ligand_efficiency>
-0.221313123893177

> <r_i_glide_ligand_efficiency_sa>
-0.769290314557288

> <r_i_glide_ligand_efficiency_ln>
-1.96196694840055

> <r_i_glide_gscore>
-9.29515120351343

> <r_i_glide_lipo>
-4.16111967035312

> <r_i_glide_hbond>
-0.525425559072359

> <r_i_glide_metal>
0

> <r_i_glide_rewards>
-0.516710073515544

> <r_i_glide_evdw>
-60.0212478637695

> <r_i_glide_ecoul>
-10.1929979324341

> <r_i_glide_erotb>
0.551777794329488

> <r_i_glide_esite>
-0.113661611848312

> <r_i_glide_emodel>
-102.198810857253

> <r_i_glide_energy>
-70.2142457962036

> <r_i_glide_einternal>
9.85254764556885

> <i_i_glide_confnum>
17

> <i_i_glide_posenum>
167

> <r_i_glide_eff_state_penalty>
0

> <s_user_duplicate_titles>
CHEMBL213_lig161

> <s_m_subgroup_title>
dock_pv

> <s_m_subgroupid>
dock_pv

> <b_m_subgroup_collapsed>
1

$$$$
CHEMBL213_lig1201
                    3D
 Schrodinger Suite 2021-1.
 44 46  0  0  1  0            999 V2000
   24.6080    5.0537    4.5128 C   0  0  0  0  0  0
   25.6149    5.8438    5.0628 C   0  0  0  0  0  0
   25.9382    4.6098    2.5148 C   0  0  0  0  0  0
   24.7456    4.4985    3.2473 C   0  0  0  0  0  0
   27.0225    5.2573    3.1560 C   0  0  0  0  0  0
   26.8357    5.9361    4.3860 C   0  0  0  0  0  0
   27.9137    6.6469    4.9585 N   0  0  0  0  0  0
   29.1928    6.6506    4.5347 C   0  0  0  0  0  0
   29.4079    5.8844    3.3215 C   0  0  0  0  0  0
   28.4195    5.2387    2.6650 C   0  0  0  0  0  0
   30.0615    7.2232    5.1813 O   0  0  0  0  0  0
   25.3911    6.4305    6.2896 O   0  0  0  0  0  0
   26.0377    3.9596    1.0978 C   0  0  2  0  0  0
   25.9378    4.9242   -0.0084 N   0  0  1  0  0  0
   24.9264    2.8917    0.8404 C   0  0  0  0  0  0
   25.0078    2.2517   -0.4151 O   0  0  0  0  0  0
   27.0073    5.9070   -0.0857 C   0  0  0  0  0  0
   27.0472    6.6176   -1.4466 C   0  0  0  0  0  0
   27.9582    6.0111   -2.5164 C   0  0  0  0  0  0
   28.3526    4.6674   -2.4894 C   0  0  0  0  0  0
   29.2824    4.1965   -3.4133 C   0  0  0  0  0  0
   29.8190    5.0576   -4.3647 C   0  0  0  0  0  0
   29.4095    6.3843   -4.4145 C   0  0  0  0  0  0
   28.4554    6.8521   -3.5170 C   0  0  0  0  0  0
   30.9933    4.4776   -5.4894 Cl  0  0  0  0  0  0
   23.6732    4.9398    5.0439 H   0  0  0  0  0  0
   23.8799    3.9818    2.8668 H   0  0  0  0  0  0
   27.7887    7.1580    5.8172 H   0  0  0  0  0  0
   30.4242    5.8206    2.9604 H   0  0  0  0  0  0
   28.6917    4.6557    1.8028 H   0  0  0  0  0  0
   25.9217    7.2107    6.4931 H   0  0  0  0  0  0
   26.9922    3.4372    1.0238 H   0  0  0  0  0  0
   25.8137    4.4476   -0.8972 H   0  0  0  0  0  0
   24.9746    2.1163    1.6066 H   0  0  0  0  0  0
   23.9286    3.3296    0.8834 H   0  0  0  0  0  0
   24.3735    2.6810   -1.0145 H   0  0  0  0  0  0
   26.9278    6.6408    0.7176 H   0  0  0  0  0  0
   27.9668    5.4119    0.0371 H   0  0  0  0  0  0
   26.0491    6.8095   -1.8447 H   0  0  0  0  0  0
   27.4873    7.5821   -1.2114 H   0  0  0  0  0  0
   27.9616    3.9814   -1.7520 H   0  0  0  0  0  0
   29.5919    3.1616   -3.3821 H   0  0  0  0  0  0
   29.8162    7.0491   -5.1610 H   0  0  0  0  0  0
   28.1477    7.8876   -3.5663 H   0  0  0  0  0  0
  1  2  2  0  0  0
  1  4  1  0  0  0
  1 26  1  0  0  0
  2  6  1  0  0  0
  2 12  1  0  0  0
  3  5  1  0  0  0
  3  4  2  0  0  0
  3 13  1  0  0  0
  4 27  1  0  0  0
  5  6  2  0  0  0
  5 10  1  0  0  0
  6  7  1  0  0  0
  7  8  1  0  0  0
  7 28  1  0  0  0
  8  9  1  0  0  0
  8 11  2  0  0  0
  9 10  2  0  0  0
  9 29  1  0  0  0
 10 30  1  0  0  0
 12 31  1  0  0  0
 13 14  1  0  0  0
 13 15  1  0  0  0
 13 32  1  0  0  0
 14 17  1  0  0  0
 14 33  1  0  0  0
 15 16  1  0  0  0
 15 34  1  0  0  0
 15 35  1  0  0  0
 16 36  1  0  0  0
 17 18  1  0  0  0
 17 37  1  0  0  0
 17 38  1  0  0  0
 18 19  1  0  0  0
 18 39  1  0  0  0
 18 40  1  0  0  0
 19 20  2  0  0  0
 19 24  1  0  0  0
 20 21  1  0  0  0
 20 41  1  0  0  0
 21 22  2  0  0  0
 21 42  1  0  0  0
 22 23  1  0  0  0
 22 25  1  0  0  0
 23 24  2  0  0  0
 23 43  1  0  0  0
 24 44  1  0  0  0
M  END
> <s_m_entry_id>
2920

> <s_m_entry_name>
dock_pv.12

> <s_m_Source_Path>
/home/csk/Desktop/cluster/DUD-E-result/adrb1

> <s_m_Source_File>
dock_pv.maegz

> <i_m_Source_File_Index>
12

> <chembl_id>
CHEMBL4282047

> <chembl_pref_name>
None

> <i_lp_mmshare_version>
53161

> <i_f3d_flags>
0

> <r_lp_tautomer_probability>
1

> <s_lp_Force_Field>
OPLS_2005

> <r_lp_Energy>
29.715734

> <b_lp_Chiralities_Consistent>
1

> <s_lp_Variant>
CHEMBL213_lig1201-1

> <s_i_glide_gridfile>
glide-grid_2vt4

> <i_i_glide_lignum>
1414

> <i_i_glide_rotatable_bonds>
8

> <r_i_docking_score>
-9.12732402897589

> <r_i_glide_ligand_efficiency>
-0.365092961159036

> <r_i_glide_ligand_efficiency_sa>
-1.06753829338026

> <r_i_glide_ligand_efficiency_ln>
-2.16344931869642

> <r_i_glide_gscore>
-9.12732402897589

> <r_i_glide_lipo>
-3.18508242228176

> <r_i_glide_hbond>
-0.800097023692084

> <r_i_glide_metal>
0

> <r_i_glide_rewards>
-2.35784974985774

> <r_i_glide_evdw>
-34.982120513916

> <r_i_glide_ecoul>
-11.8618011474609

> <r_i_glide_erotb>
0.74408136467063

> <r_i_glide_esite>
0

> <r_i_glide_emodel>
-67.1960533023853

> <r_i_glide_energy>
-46.843921661377

> <r_i_glide_einternal>
7.4733715057373

> <i_i_glide_confnum>
5

> <i_i_glide_posenum>
131

> <r_i_glide_eff_state_penalty>
0

> <s_user_duplicate_titles>
CHEMBL213_lig1201

> <s_m_subgroup_title>
dock_pv

> <s_m_subgroupid>
dock_pv

> <b_m_subgroup_collapsed>
1

$$$$
CHEMBL213_lig76
                    3D
 Schrodinger Suite 2021-1.
 72 75  0  0  1  0            999 V2000
   38.6599    5.9395   -1.3295 S   0  0  0  0  0  0
   33.9026    3.2805   -5.5486 N   0  0  0  0  0  0
   33.8877    4.3027   -4.7131 C   0  0  0  0  0  0
   32.8012    5.0499   -4.7390 N   0  0  0  0  0  0
   38.5209    5.0632    0.1936 N   0  0  0  0  0  0
   32.7499    3.3970   -6.1470 C   0  0  0  0  0  0
   32.0328    4.4702   -5.7406 O   0  0  0  0  0  0
   37.2451    5.3919   -2.2785 C   0  0  0  0  0  0
   39.8676    5.4509   -1.9975 O   0  0  0  0  0  0
   38.4884    7.3650   -1.0306 O   0  0  0  0  0  0
   35.0463    4.6202   -3.8181 C   0  0  0  0  0  0
   29.2629    6.4770    4.1109 C   0  0  0  0  0  0
   27.1972    5.9856    5.2995 N   0  0  0  0  0  0
   35.9713    5.8546   -1.9520 C   0  0  0  0  0  0
   37.4175    4.5057   -3.3410 C   0  0  0  0  0  0
   36.3238    4.1251   -4.1097 C   0  0  0  0  0  0
   34.8743    5.4577   -2.7094 C   0  0  0  0  0  0
   37.5748    5.5066    1.1195 C   0  0  0  0  0  0
   30.4777    7.3944    3.9570 C   0  0  1  0  0  0
   32.4250    5.8503    3.3254 N   0  0  1  0  0  0
   35.6510    6.4661    2.9025 C   0  0  0  0  0  0
   28.3746    6.6509    5.1843 C   0  0  0  0  0  0
   37.8671    6.5971    1.9391 C   0  0  0  0  0  0
   36.3262    4.8924    1.1851 C   0  0  0  0  0  0
   36.9075    7.0745    2.8283 C   0  0  0  0  0  0
   35.3667    5.3816    2.0669 C   0  0  0  0  0  0
   31.0078    7.8495    5.1848 O   0  0  0  0  0  0
   32.1542    2.4794   -7.1985 C   0  0  0  0  0  0
   28.2098    1.0713   -5.4840 O   0  0  0  0  0  0
   30.8330    1.7905   -6.7775 C   0  0  0  0  0  0
   31.6096    7.0035    2.9640 C   0  0  0  0  0  0
   28.8982    5.5627    3.1151 C   0  0  0  0  0  0
   26.8542    5.1394    4.2984 C   0  0  0  0  0  0
   28.3068    2.2486   -6.2534 C   0  0  1  0  0  0
   33.4592    6.0946    4.3310 C   0  0  0  0  0  0
   34.6191    7.0278    3.8887 C   0  0  0  0  0  0
   29.7564    2.7610   -6.2499 C   0  0  0  0  0  0
   27.6703    4.9091    3.1917 C   0  0  0  0  0  0
   27.7456    1.9774   -7.6546 C   0  0  0  0  0  0
   38.6410    4.0649    0.0646 H   0  0  0  0  0  0
   35.8320    6.5409   -1.1298 H   0  0  0  0  0  0
   38.4014    4.1355   -3.5946 H   0  0  0  0  0  0
   36.4834    3.4782   -4.9585 H   0  0  0  0  0  0
   33.8975    5.8460   -2.4588 H   0  0  0  0  0  0
   30.0034    8.2500    3.5008 H   0  0  0  0  0  0
   31.8124    5.1343    3.7229 H   0  0  0  0  0  0
   28.5752    7.3726    5.9641 H   0  0  0  0  0  0
   38.8300    7.0804    1.8706 H   0  0  0  0  0  0
   36.0869    4.0572    0.5415 H   0  0  0  0  0  0
   37.1440    7.9244    3.4519 H   0  0  0  0  0  0
   34.4014    4.9050    2.0833 H   0  0  0  0  0  0
   31.6929    8.5107    4.9947 H   0  0  0  0  0  0
   32.8796    1.7155   -7.4804 H   0  0  0  0  0  0
   31.9770    3.0505   -8.1061 H   0  0  0  0  0  0
   27.3029    1.0137   -5.1634 H   0  0  0  0  0  0
   31.0124    1.0326   -6.0156 H   0  0  0  0  0  0
   30.4528    1.2484   -7.6412 H   0  0  0  0  0  0
   32.2524    7.8586    2.7850 H   0  0  0  0  0  0
   31.1641    6.7924    1.9910 H   0  0  0  0  0  0
   29.5228    5.3933    2.2508 H   0  0  0  0  0  0
   25.8955    4.6510    4.3848 H   0  0  0  0  0  0
   27.6906    3.0093   -5.7717 H   0  0  0  0  0  0
   33.8915    5.1125    4.5315 H   0  0  0  0  0  0
   33.0418    6.3925    5.2931 H   0  0  0  0  0  0
   35.1540    7.3051    4.7972 H   0  0  0  0  0  0
   34.2379    7.9670    3.4923 H   0  0  0  0  0  0
   29.8068    3.6907   -6.8139 H   0  0  0  0  0  0
   30.0121    3.0361   -5.2245 H   0  0  0  0  0  0
   27.3535    4.2498    2.3989 H   0  0  0  0  0  0
   27.9514    2.8120   -8.3241 H   0  0  0  0  0  0
   26.6643    1.8500   -7.6158 H   0  0  0  0  0  0
   28.1727    1.0825   -8.1081 H   0  0  0  0  0  0
  1  5  1  0  0  0
  1  8  1  0  0  0
  1  9  2  0  0  0
  1 10  2  0  0  0
  2  3  1  0  0  0
  2  6  2  0  0  0
  3 11  1  0  0  0
  3  4  2  0  0  0
  4  7  1  0  0  0
  5 18  1  0  0  0
  5 40  1  0  0  0
  6 28  1  0  0  0
  6  7  1  0  0  0
  8 14  2  0  0  0
  8 15  1  0  0  0
 11 16  1  0  0  0
 11 17  2  0  0  0
 12 19  1  0  0  0
 12 22  1  0  0  0
 12 32  2  0  0  0
 13 22  2  0  0  0
 13 33  1  0  0  0
 14 17  1  0  0  0
 14 41  1  0  0  0
 15 16  2  0  0  0
 15 42  1  0  0  0
 16 43  1  0  0  0
 17 44  1  0  0  0
 18 23  2  0  0  0
 18 24  1  0  0  0
 19 31  1  0  0  0
 19 27  1  0  0  0
 19 45  1  0  0  0
 20 35  1  0  0  0
 20 31  1  0  0  0
 20 46  1  0  0  0
 21 26  1  0  0  0
 21 36  1  0  0  0
 21 25  2  0  0  0
 22 47  1  0  0  0
 23 25  1  0  0  0
 23 48  1  0  0  0
 24 26  2  0  0  0
 24 49  1  0  0  0
 25 50  1  0  0  0
 26 51  1  0  0  0
 27 52  1  0  0  0
 28 30  1  0  0  0
 28 53  1  0  0  0
 28 54  1  0  0  0
 29 34  1  0  0  0
 29 55  1  0  0  0
 30 37  1  0  0  0
 30 56  1  0  0  0
 30 57  1  0  0  0
 31 58  1  0  0  0
 31 59  1  0  0  0
 32 38  1  0  0  0
 32 60  1  0  0  0
 33 38  2  0  0  0
 33 61  1  0  0  0
 34 37  1  0  0  0
 34 39  1  0  0  0
 34 62  1  0  0  0
 35 36  1  0  0  0
 35 63  1  0  0  0
 35 64  1  0  0  0
 36 65  1  0  0  0
 36 66  1  0  0  0
 37 67  1  0  0  0
 37 68  1  0  0  0
 38 69  1  0  0  0
 39 70  1  0  0  0
 39 71  1  0  0  0
 39 72  1  0  0  0
M  END
> <s_m_entry_id>
2921

> <s_m_entry_name>
dock_pv.13

> <s_m_Source_Path>
/home/csk/Desktop/cluster/DUD-E-result/adrb1

> <s_m_Source_File>
dock_pv.maegz

> <i_m_Source_File_Index>
13

> <chembl_id>
CHEMBL418411

> <chembl_pref_name>
None

> <i_lp_mmshare_version>
53161

> <i_f3d_flags>
0

> <r_lp_tautomer_probability>
1

> <s_lp_Force_Field>
OPLS_2005

> <r_lp_Energy>
19.172888

> <b_lp_Chiralities_Consistent>
1

> <s_lp_Variant>
CHEMBL213_lig76-2

> <s_i_glide_gridfile>
glide-grid_2vt4

> <i_i_glide_lignum>
99

> <i_i_glide_rotatable_bonds>
16

> <r_i_docking_score>
-9.0479832518464

> <r_i_glide_ligand_efficiency>
-0.231999570560164

> <r_i_glide_ligand_efficiency_sa>
-0.78675959749722

> <r_i_glide_ligand_efficiency_ln>
-1.94014445147422

> <r_i_glide_gscore>
-9.0479832518464

> <r_i_glide_lipo>
-2.79129959744457

> <r_i_glide_hbond>
-0.753496721198135

> <r_i_glide_metal>
0

> <r_i_glide_rewards>
-0.101423138493006

> <r_i_glide_evdw>
-49.976863861084

> <r_i_glide_ecoul>
-24.789867401123

> <r_i_glide_erotb>
0.815559508511966

> <r_i_glide_esite>
0

> <r_i_glide_emodel>
-102.99622178333

> <r_i_glide_energy>
-74.766731262207

> <r_i_glide_einternal>
11.9617185592651

> <i_i_glide_confnum>
31

> <i_i_glide_posenum>
295

> <r_i_glide_eff_state_penalty>
0

> <s_user_duplicate_titles>
CHEMBL213_lig76

> <s_m_subgroup_title>
dock_pv

> <s_m_subgroupid>
dock_pv

> <b_m_subgroup_collapsed>
1

$$$$
CHEMBL213_lig1014
                    3D
 Schrodinger Suite 2021-1.
 83 85  0  0  1  0            999 V2000
   36.8108    2.2681   -5.5015 C   0  0  0  0  0  0
   36.4197    3.4295   -4.5483 C   0  0  0  0  0  0
   37.4591    4.5670   -4.6701 C   0  0  0  0  0  0
   30.1264    2.3447   -5.6033 C   0  0  0  0  0  0
   30.8572    2.2434   -6.7905 C   0  0  0  0  0  0
   31.9256    3.1112   -7.0425 C   0  0  0  0  0  0
   32.2786    4.1006   -6.1162 C   0  0  0  0  0  0
   29.0782    1.4820   -5.3909 O   0  0  0  0  0  0
   33.4632    5.0404   -6.3686 C   0  0  1  0  0  0
   34.8280    4.3461   -6.2702 C   0  0  0  0  0  0
   33.4080    5.7059   -7.6125 O   0  0  0  0  0  0
   35.0648    3.8592   -4.9095 N   0  0  1  0  0  0
   36.3850    2.9481   -3.0581 C   0  0  0  0  0  0
   35.9425    3.8996   -1.9227 C   0  0  0  0  0  0
   35.2870    5.1229   -2.1295 C   0  0  0  0  0  0
   34.8766    5.9048   -1.0548 C   0  0  0  0  0  0
   35.1214    5.4906    0.2559 C   0  0  0  0  0  0
   35.8061    4.2884    0.4761 C   0  0  0  0  0  0
   36.2073    3.5059   -0.6059 C   0  0  0  0  0  0
   34.6075    6.3260    1.2655 N   0  0  0  0  0  0
   34.7123    6.2500    2.6086 C   0  0  0  0  0  0
   30.4729    3.3234   -4.6621 C   0  0  0  0  0  0
   31.5358    4.1909   -4.9331 C   0  0  0  0  0  0
   31.9082    5.1086   -3.9704 O   0  0  0  0  0  0
   30.8109    5.6490   -3.2124 C   0  0  0  0  0  0
   29.8844    4.5526   -2.6213 C   0  0  0  0  0  0
   29.8082    3.4777   -3.4355 N   0  0  0  0  0  0
   29.3154    4.6368   -1.5355 O   0  0  0  0  0  0
   33.9150    7.3058    3.3975 C   0  0  0  0  0  0
   35.4071    5.4400    3.2265 O   0  0  0  0  0  0
   32.5678    6.8011    3.9828 C   0  0  0  0  0  0
   31.3936    6.8269    2.9790 C   0  0  0  0  0  0
   30.1375    6.2521    3.4713 N   0  0  0  0  0  0
   29.3189    6.8099    4.3843 C   0  0  0  0  0  0
   27.9860    6.0640    4.7244 C   0  0  1  0  0  0
   29.6128    7.8371    4.9976 O   0  0  0  0  0  0
   26.9292    7.0466    5.0568 N   0  0  0  0  0  0
   27.4878    5.0153    3.6875 C   0  0  0  0  0  0
   26.9387    5.5961    2.3592 C   0  0  0  0  0  0
   26.2913    4.5674    1.4120 C   0  0  0  0  0  0
   25.1335    3.9258    2.0119 N   0  0  0  0  0  0
   37.8758    2.0498   -5.4684 H   0  0  0  0  0  0
   36.2404    1.3622   -5.2909 H   0  0  0  0  0  0
   36.6488    2.5048   -6.5499 H   0  0  0  0  0  0
   38.4517    4.2250   -4.3745 H   0  0  0  0  0  0
   37.5492    4.9558   -5.6823 H   0  0  0  0  0  0
   37.2160    5.4029   -4.0148 H   0  0  0  0  0  0
   30.5931    1.4944   -7.5182 H   0  0  0  0  0  0
   32.4781    3.0198   -7.9657 H   0  0  0  0  0  0
   28.5149    1.7388   -4.6566 H   0  0  0  0  0  0
   33.4503    5.8458   -5.6405 H   0  0  0  0  0  0
   34.8560    3.5223   -6.9854 H   0  0  0  0  0  0
   35.6080    5.0532   -6.5509 H   0  0  0  0  0  0
   34.1238    6.3543   -7.6128 H   0  0  0  0  0  0
   34.3850    3.1609   -4.6443 H   0  0  0  0  0  0
   35.7787    2.0452   -2.9772 H   0  0  0  0  0  0
   37.4020    2.6501   -2.8147 H   0  0  0  0  0  0
   35.0801    5.4977   -3.1178 H   0  0  0  0  0  0
   34.3616    6.8320   -1.2569 H   0  0  0  0  0  0
   36.0135    3.9222    1.4695 H   0  0  0  0  0  0
   36.7215    2.5717   -0.4151 H   0  0  0  0  0  0
   34.0485    7.1010    0.9212 H   0  0  0  0  0  0
   30.1873    6.2682   -3.8592 H   0  0  0  0  0  0
   31.1999    6.2542   -2.4042 H   0  0  0  0  0  0
   29.1769    2.7627   -3.0863 H   0  0  0  0  0  0
   34.5592    7.6176    4.2219 H   0  0  0  0  0  0
   33.7556    8.2044    2.8000 H   0  0  0  0  0  0
   32.6869    5.8021    4.4048 H   0  0  0  0  0  0
   32.3021    7.4487    4.8217 H   0  0  0  0  0  0
   31.2266    7.8477    2.6278 H   0  0  0  0  0  0
   31.6774    6.2704    2.0847 H   0  0  0  0  0  0
   29.8649    5.3658    3.0723 H   0  0  0  0  0  0
   28.2078    5.4872    5.6235 H   0  0  0  0  0  0
   26.0825    6.5890    5.3636 H   0  0  0  0  0  0
   27.2043    7.6678    5.8139 H   0  0  0  0  0  0
   28.2734    4.2855    3.4787 H   0  0  0  0  0  0
   26.6991    4.4292    4.1645 H   0  0  0  0  0  0
   26.2079    6.3802    2.5722 H   0  0  0  0  0  0
   27.7477    6.0906    1.8236 H   0  0  0  0  0  0
   25.9767    5.0621    0.4921 H   0  0  0  0  0  0
   27.0093    3.8020    1.1239 H   0  0  0  0  0  0
   24.4310    4.6235    2.2164 H   0  0  0  0  0  0
   24.7107    3.2993    1.3374 H   0  0  0  0  0  0
  1  2  1  0  0  0
  1 42  1  0  0  0
  1 43  1  0  0  0
  1 44  1  0  0  0
  2 12  1  0  0  0
  2 13  1  0  0  0
  2  3  1  0  0  0
  3 45  1  0  0  0
  3 46  1  0  0  0
  3 47  1  0  0  0
  4 22  2  0  0  0
  4  8  1  0  0  0
  4  5  1  0  0  0
  5  6  2  0  0  0
  5 48  1  0  0  0
  6  7  1  0  0  0
  6 49  1  0  0  0
  7 23  2  0  0  0
  7  9  1  0  0  0
  8 50  1  0  0  0
  9 11  1  0  0  0
  9 10  1  0  0  0
  9 51  1  0  0  0
 10 12  1  0  0  0
 10 52  1  0  0  0
 10 53  1  0  0  0
 11 54  1  0  0  0
 12 55  1  0  0  0
 13 14  1  0  0  0
 13 56  1  0  0  0
 13 57  1  0  0  0
 14 15  2  0  0  0
 14 19  1  0  0  0
 15 16  1  0  0  0
 15 58  1  0  0  0
 16 17  2  0  0  0
 16 59  1  0  0  0
 17 18  1  0  0  0
 17 20  1  0  0  0
 18 19  2  0  0  0
 18 60  1  0  0  0
 19 61  1  0  0  0
 20 21  1  0  0  0
 20 62  1  0  0  0
 21 29  1  0  0  0
 21 30  2  0  0  0
 22 27  1  0  0  0
 22 23  1  0  0  0
 23 24  1  0  0  0
 24 25  1  0  0  0
 25 26  1  0  0  0
 25 63  1  0  0  0
 25 64  1  0  0  0
 26 27  1  0  0  0
 26 28  2  0  0  0
 27 65  1  0  0  0
 29 31  1  0  0  0
 29 66  1  0  0  0
 29 67  1  0  0  0
 31 32  1  0  0  0
 31 68  1  0  0  0
 31 69  1  0  0  0
 32 33  1  0  0  0
 32 70  1  0  0  0
 32 71  1  0  0  0
 33 34  1  0  0  0
 33 72  1  0  0  0
 34 35  1  0  0  0
 34 36  2  0  0  0
 35 37  1  0  0  0
 35 38  1  0  0  0
 35 73  1  0  0  0
 37 74  1  0  0  0
 37 75  1  0  0  0
 38 39  1  0  0  0
 38 76  1  0  0  0
 38 77  1  0  0  0
 39 40  1  0  0  0
 39 78  1  0  0  0
 39 79  1  0  0  0
 40 41  1  0  0  0
 40 80  1  0  0  0
 40 81  1  0  0  0
 41 82  1  0  0  0
 41 83  1  0  0  0
M  END
> <s_m_entry_id>
2922

> <s_m_entry_name>
dock_pv.14

> <s_m_Source_Path>
/home/csk/Desktop/cluster/DUD-E-result/adrb1

> <s_m_Source_File>
dock_pv.maegz

> <i_m_Source_File_Index>
14

> <chembl_id>
CHEMBL565747

> <chembl_pref_name>
None

> <i_lp_mmshare_version>
53161

> <i_f3d_flags>
0

> <r_lp_tautomer_probability>
0.9999999999415

> <s_lp_Force_Field>
OPLS_2005

> <r_lp_Energy>
39.026928

> <b_lp_Chiralities_Consistent>
1

> <s_lp_Variant>
CHEMBL213_lig1014-4

> <s_i_glide_gridfile>
glide-grid_2vt4

> <i_i_glide_lignum>
1150

> <i_i_glide_rotatable_bonds>
19

> <r_i_docking_score>
-9.03090187818322

> <r_i_glide_ligand_efficiency>
-0.220265899467884

> <r_i_glide_ligand_efficiency_sa>
-0.759524671073382

> <r_i_glide_ligand_efficiency_ln>
-1.91593588692016

> <r_i_glide_gscore>
-9.03090187818322

> <r_i_glide_lipo>
-2.87067785067988

> <r_i_glide_hbond>
-1.37693849041229

> <r_i_glide_metal>
0

> <r_i_glide_rewards>
-0.263018609564317

> <r_i_glide_evdw>
-58.7716522216797

> <r_i_glide_ecoul>
-16.3378601074219

> <r_i_glide_erotb>
0.933695860877153

> <r_i_glide_esite>
-0.0647011612066311

> <r_i_glide_emodel>
-104.395772228296

> <r_i_glide_energy>
-75.1095123291016

> <r_i_glide_einternal>
12.6970596313477

> <i_i_glide_confnum>
4

> <i_i_glide_posenum>
376

> <r_i_glide_eff_state_penalty>
0

> <s_user_duplicate_titles>
CHEMBL213_lig1014,576077

> <s_m_subgroup_title>
dock_pv

> <s_m_subgroupid>
dock_pv

> <b_m_subgroup_collapsed>
1

$$$$
CHEMBL213_lig1190
                    3D
 Schrodinger Suite 2021-1.
 44 46  0  0  1  0            999 V2000
   24.6082    5.1702    4.6746 C   0  0  0  0  0  0
   25.5910    5.9749    5.2319 C   0  0  0  0  0  0
   26.0254    4.7077    2.7328 C   0  0  0  0  0  0
   24.8108    4.5787    3.4308 C   0  0  0  0  0  0
   27.0773    5.3846    3.3945 C   0  0  0  0  0  0
   26.8364    6.0703    4.6058 C   0  0  0  0  0  0
   27.8727    6.8307    5.1903 N   0  0  0  0  0  0
   29.1547    6.8879    4.7842 C   0  0  0  0  0  0
   29.4116    6.1641    3.5559 C   0  0  0  0  0  0
   28.4713    5.4486    2.8971 C   0  0  0  0  0  0
   30.0064    7.4501    5.4575 O   0  0  0  0  0  0
   25.2866    6.6499    6.3850 O   0  0  0  0  0  0
   26.1683    4.1714    1.2799 C   0  0  2  0  0  0
   26.6046    5.2989    0.4346 N   0  0  2  0  0  0
   24.8850    3.4072    0.7773 C   0  0  0  0  0  0
   25.0094    2.6500   -0.4147 O   0  0  0  0  0  0
   26.4239    5.1610   -1.0027 C   0  0  0  0  0  0
   27.1732    6.2501   -1.7969 C   0  0  0  0  0  0
   28.5437    5.8420   -2.3438 C   0  0  0  0  0  0
   29.4164    5.0454   -1.5937 C   0  0  0  0  0  0
   30.6596    4.6914   -2.1133 C   0  0  0  0  0  0
   31.0347    5.1395   -3.3777 C   0  0  0  0  0  0
   30.1743    5.9322   -4.1316 C   0  0  0  0  0  0
   28.9293    6.2824   -3.6149 C   0  0  0  0  0  0
   23.6488    5.0693    5.1658 H   0  0  0  0  0  0
   23.9628    4.0569    3.0167 H   0  0  0  0  0  0
   27.7152    7.3308    6.0519 H   0  0  0  0  0  0
   30.4250    6.1757    3.1862 H   0  0  0  0  0  0
   28.7664    4.8984    2.0176 H   0  0  0  0  0  0
   25.8795    7.3735    6.6239 H   0  0  0  0  0  0
   26.9790    3.4496    1.2874 H   0  0  0  0  0  0
   27.5683    5.5300    0.6132 H   0  0  0  0  0  0
   24.6073    2.6531    1.5149 H   0  0  0  0  0  0
   24.0374    4.0876    0.6800 H   0  0  0  0  0  0
   24.3889    3.0138   -1.0707 H   0  0  0  0  0  0
   26.7622    4.1784   -1.3384 H   0  0  0  0  0  0
   25.3589    5.2250   -1.2153 H   0  0  0  0  0  0
   26.5418    6.5091   -2.6475 H   0  0  0  0  0  0
   27.2746    7.1661   -1.2150 H   0  0  0  0  0  0
   29.1370    4.6885   -0.6149 H   0  0  0  0  0  0
   31.3304    4.0675   -1.5412 H   0  0  0  0  0  0
   31.9967    4.8616   -3.7820 H   0  0  0  0  0  0
   30.4683    6.2731   -5.1136 H   0  0  0  0  0  0
   28.2670    6.9008   -4.2039 H   0  0  0  0  0  0
  1  2  2  0  0  0
  1  4  1  0  0  0
  1 25  1  0  0  0
  2  6  1  0  0  0
  2 12  1  0  0  0
  3  5  1  0  0  0
  3  4  2  0  0  0
  3 13  1  0  0  0
  4 26  1  0  0  0
  5  6  2  0  0  0
  5 10  1  0  0  0
  6  7  1  0  0  0
  7  8  1  0  0  0
  7 27  1  0  0  0
  8  9  1  0  0  0
  8 11  2  0  0  0
  9 10  2  0  0  0
  9 28  1  0  0  0
 10 29  1  0  0  0
 12 30  1  0  0  0
 13 14  1  0  0  0
 13 15  1  0  0  0
 13 31  1  0  0  0
 14 17  1  0  0  0
 14 32  1  0  0  0
 15 16  1  0  0  0
 15 33  1  0  0  0
 15 34  1  0  0  0
 16 35  1  0  0  0
 17 18  1  0  0  0
 17 36  1  0  0  0
 17 37  1  0  0  0
 18 19  1  0  0  0
 18 38  1  0  0  0
 18 39  1  0  0  0
 19 20  2  0  0  0
 19 24  1  0  0  0
 20 21  1  0  0  0
 20 40  1  0  0  0
 21 22  2  0  0  0
 21 41  1  0  0  0
 22 23  1  0  0  0
 22 42  1  0  0  0
 23 24  2  0  0  0
 23 43  1  0  0  0
 24 44  1  0  0  0
M  END
> <s_m_entry_id>
2923

> <s_m_entry_name>
dock_pv.15

> <s_m_Source_Path>
/home/csk/Desktop/cluster/DUD-E-result/adrb1

> <s_m_Source_File>
dock_pv.maegz

> <i_m_Source_File_Index>
15

> <chembl_id>
CHEMBL4289813

> <chembl_pref_name>
None

> <i_lp_mmshare_version>
53161

> <i_f3d_flags>
0

> <r_lp_tautomer_probability>
1

> <s_lp_Force_Field>
OPLS_2005

> <r_lp_Energy>
29.601474

> <b_lp_Chiralities_Consistent>
1

> <s_lp_Variant>
CHEMBL213_lig1190-1

> <s_i_glide_gridfile>
glide-grid_2vt4

> <i_i_glide_lignum>
1392

> <i_i_glide_rotatable_bonds>
8

> <r_i_docking_score>
-9.02490298341481

> <r_i_glide_ligand_efficiency>
-0.376037624308951

> <r_i_glide_ligand_efficiency_sa>
-1.08468020300895

> <r_i_glide_ligand_efficiency_ln>
-2.16007340974427

> <r_i_glide_gscore>
-9.02490298341481

> <r_i_glide_lipo>
-2.85182843222984

> <r_i_glide_hbond>
-1.00621554619318

> <r_i_glide_metal>
0

> <r_i_glide_rewards>
-2.46423785963806

> <r_i_glide_evdw>
-33.9210014343262

> <r_i_glide_ecoul>
-10.8633480072021

> <r_i_glide_erotb>
0.6229311274429

> <r_i_glide_esite>
0

> <r_i_glide_emodel>
-64.1384399238792

> <r_i_glide_energy>
-44.7843494415283

> <r_i_glide_einternal>
7.93144655227661

> <i_i_glide_confnum>
5

> <i_i_glide_posenum>
343

> <r_i_glide_eff_state_penalty>
0

> <s_user_duplicate_titles>
CHEMBL213_lig1190

> <s_m_subgroup_title>
dock_pv

> <s_m_subgroupid>
dock_pv

> <b_m_subgroup_collapsed>
1

$$$$
CHEMBL213_lig1197
                    3D
 Schrodinger Suite 2021-1.
 48 50  0  0  1  0            999 V2000
   24.6080    5.0511    4.6447 C   0  0  0  0  0  0
   25.5820    5.8501    5.2229 C   0  0  0  0  0  0
   26.0268    4.6523    2.7038 C   0  0  0  0  0  0
   24.8140    4.4930    3.3958 C   0  0  0  0  0  0
   27.0732    5.3307    3.3725 C   0  0  0  0  0  0
   26.8286    5.9767    4.6032 C   0  0  0  0  0  0
   27.8541    6.7371    5.2044 N   0  0  0  0  0  0
   29.1266    6.8535    4.7820 C   0  0  0  0  0  0
   29.3943    6.1645    3.5363 C   0  0  0  0  0  0
   28.4611    5.4497    2.8627 C   0  0  0  0  0  0
   29.9614    7.4480    5.4471 O   0  0  0  0  0  0
   25.2679    6.5041    6.3850 O   0  0  0  0  0  0
   26.1544    4.1587    1.2431 C   0  0  2  0  0  0
   26.5466    5.3210    0.4251 N   0  0  2  0  0  0
   24.8726    3.3837    0.7718 C   0  0  0  0  0  0
   25.0096    2.6463   -0.4151 O   0  0  0  0  0  0
   26.1157    5.3557   -0.9652 C   0  0  0  0  0  0
   26.7635    6.5300   -1.7189 C   0  0  0  0  0  0
   28.0807    6.2210   -2.4301 C   0  0  0  0  0  0
   28.9976    5.2877   -1.9272 C   0  0  0  0  0  0
   30.2044    5.0304   -2.5814 C   0  0  0  0  0  0
   30.4924    5.7233   -3.7678 C   0  0  0  0  0  0
   29.5848    6.6494   -4.2796 C   0  0  0  0  0  0
   28.3854    6.8979   -3.6146 C   0  0  0  0  0  0
   31.0416    4.0999   -1.9967 O   0  0  0  0  0  0
   32.2847    3.7957   -2.6159 C   0  0  0  0  0  0
   23.6486    4.9414    5.1315 H   0  0  0  0  0  0
   23.9619    3.9802    2.9815 H   0  0  0  0  0  0
   27.6876    7.2193    6.0753 H   0  0  0  0  0  0
   30.4055    6.2174    3.1585 H   0  0  0  0  0  0
   28.7595    4.9399    1.9594 H   0  0  0  0  0  0
   25.8162    7.2696    6.5975 H   0  0  0  0  0  0
   26.9772    3.4495    1.2066 H   0  0  0  0  0  0
   27.5483    5.4403    0.4402 H   0  0  0  0  0  0
   24.6237    2.6102    1.5004 H   0  0  0  0  0  0
   24.0086    4.0467    0.6904 H   0  0  0  0  0  0
   24.3873    3.0122   -1.0694 H   0  0  0  0  0  0
   26.3935    4.4257   -1.4628 H   0  0  0  0  0  0
   25.0309    5.4472   -1.0248 H   0  0  0  0  0  0
   26.0466    6.8462   -2.4788 H   0  0  0  0  0  0
   26.8992    7.3873   -1.0579 H   0  0  0  0  0  0
   28.7842    4.7443   -1.0216 H   0  0  0  0  0  0
   31.4102    5.5553   -4.3100 H   0  0  0  0  0  0
   29.8083    7.1752   -5.1960 H   0  0  0  0  0  0
   27.6969    7.6256   -4.0234 H   0  0  0  0  0  0
   32.8064    3.0501   -2.0183 H   0  0  0  0  0  0
   32.1454    3.3806   -3.6147 H   0  0  0  0  0  0
   32.9260    4.6770   -2.6816 H   0  0  0  0  0  0
  1  2  2  0  0  0
  1  4  1  0  0  0
  1 27  1  0  0  0
  2  6  1  0  0  0
  2 12  1  0  0  0
  3  5  1  0  0  0
  3  4  2  0  0  0
  3 13  1  0  0  0
  4 28  1  0  0  0
  5  6  2  0  0  0
  5 10  1  0  0  0
  6  7  1  0  0  0
  7  8  1  0  0  0
  7 29  1  0  0  0
  8  9  1  0  0  0
  8 11  2  0  0  0
  9 10  2  0  0  0
  9 30  1  0  0  0
 10 31  1  0  0  0
 12 32  1  0  0  0
 13 14  1  0  0  0
 13 15  1  0  0  0
 13 33  1  0  0  0
 14 17  1  0  0  0
 14 34  1  0  0  0
 15 16  1  0  0  0
 15 35  1  0  0  0
 15 36  1  0  0  0
 16 37  1  0  0  0
 17 18  1  0  0  0
 17 38  1  0  0  0
 17 39  1  0  0  0
 18 19  1  0  0  0
 18 40  1  0  0  0
 18 41  1  0  0  0
 19 20  2  0  0  0
 19 24  1  0  0  0
 20 21  1  0  0  0
 20 42  1  0  0  0
 21 22  2  0  0  0
 21 25  1  0  0  0
 22 23  1  0  0  0
 22 43  1  0  0  0
 23 24  2  0  0  0
 23 44  1  0  0  0
 24 45  1  0  0  0
 25 26  1  0  0  0
 26 46  1  0  0  0
 26 47  1  0  0  0
 26 48  1  0  0  0
M  END
> <s_m_entry_id>
2924

> <s_m_entry_name>
dock_pv.16

> <s_m_Source_Path>
/home/csk/Desktop/cluster/DUD-E-result/adrb1

> <s_m_Source_File>
dock_pv.maegz

> <i_m_Source_File_Index>
16

> <chembl_id>
CHEMBL4291941

> <chembl_pref_name>
None

> <i_lp_mmshare_version>
53161

> <i_f3d_flags>
0

> <r_lp_tautomer_probability>
1

> <s_lp_Force_Field>
OPLS_2005

> <r_lp_Energy>
34.601176

> <b_lp_Chiralities_Consistent>
1

> <s_lp_Variant>
CHEMBL213_lig1197-1

> <s_i_glide_gridfile>
glide-grid_2vt4

> <i_i_glide_lignum>
1406

> <i_i_glide_rotatable_bonds>
9

> <r_i_docking_score>
-9.02329580745423

> <r_i_glide_ligand_efficiency>
-0.34704983874824

> <r_i_glide_ligand_efficiency_sa>
-1.02813378171649

> <r_i_glide_ligand_efficiency_ln>
-2.11909141253216

> <r_i_glide_gscore>
-9.02329580745423

> <r_i_glide_lipo>
-3.07766129925865

> <r_i_glide_hbond>
-0.96390913034829

> <r_i_glide_metal>
0

> <r_i_glide_rewards>
-2.22256553835252

> <r_i_glide_evdw>
-36.0693283081055

> <r_i_glide_ecoul>
-10.63112449646

> <r_i_glide_erotb>
0.63897525037949

> <r_i_glide_esite>
0

> <r_i_glide_emodel>
-67.0268576265399

> <r_i_glide_energy>
-46.7004528045654

> <r_i_glide_einternal>
10.547513961792

> <i_i_glide_confnum>
89

> <i_i_glide_posenum>
374

> <r_i_glide_eff_state_penalty>
0

> <s_user_duplicate_titles>
CHEMBL213_lig1197

> <s_m_subgroup_title>
dock_pv

> <s_m_subgroupid>
dock_pv

> <b_m_subgroup_collapsed>
1

$$$$
CHEMBL213_lig349
                    3D
 Schrodinger Suite 2021-1.
 70 74  0  0  1  0            999 V2000
   36.1733    6.1950    1.8698 S   0  0  0  0  0  0
   29.3873    5.8615    3.1957 N   0  0  0  0  0  0
   28.1942    6.1208    3.7289 C   0  0  0  0  0  0
   30.3709    6.5723    3.7040 C   0  0  0  0  0  0
   25.3839    5.8493    5.1854 C   0  0  0  0  0  0
   29.8879    7.5781    5.0222 S   0  0  0  0  0  0
   26.9597    5.4444    3.1496 C   0  0  0  0  0  0
   25.7218    5.2332    3.8149 C   0  0  0  0  0  0
   28.2694    7.0425    4.7849 C   0  0  0  0  0  0
   36.3886    7.0484    0.3428 N   0  0  0  0  0  0
   34.4668    6.3890    2.3756 C   0  0  0  0  0  0
   36.3590    4.7692    1.5844 O   0  0  0  0  0  0
   37.0139    6.8846    2.8565 O   0  0  0  0  0  0
   31.8000    6.5230    3.2306 C   0  0  0  0  0  0
   29.9375    2.6272   -5.4704 C   0  0  0  0  0  0
   28.1454    1.8514   -6.9114 N   0  0  0  0  0  0
   33.4478    5.8393    1.5998 C   0  0  0  0  0  0
   34.1581    7.0073    3.5835 C   0  0  0  0  0  0
   26.2986    5.5350    6.1072 F   0  0  0  0  0  0
   25.3012    7.1743    5.0614 F   0  0  0  0  0  0
   24.2043    5.4494    5.6591 F   0  0  0  0  0  0
   32.8368    7.0496    4.0139 C   0  0  0  0  0  0
   32.1210    5.9060    2.0188 C   0  0  0  0  0  0
   36.0611    6.4210   -0.8581 C   0  0  0  0  0  0
   30.3799    3.0541   -4.0678 C   0  0  1  0  0  0
   32.4468    4.5011   -4.7086 N   0  0  2  0  0  0
   35.3140    5.0242   -3.1498 C   0  0  0  0  0  0
   28.6089    2.2422   -5.6961 C   0  0  0  0  0  0
   34.7527    6.4941   -1.3220 C   0  0  0  0  0  0
   37.0136    5.6815   -1.5567 C   0  0  0  0  0  0
   34.3788    5.7934   -2.4544 C   0  0  0  0  0  0
   36.6406    4.9842   -2.7039 C   0  0  0  0  0  0
   31.0085    2.0042   -3.3580 O   0  0  0  0  0  0
   24.7342    4.4506    3.1851 C   0  0  0  0  0  0
   27.0759    4.9787    1.8245 C   0  0  0  0  0  0
   31.1786    4.3901   -3.9771 C   0  0  0  0  0  0
   30.8169    2.5887   -6.5603 C   0  0  0  0  0  0
   29.0119    1.8522   -7.9526 C   0  0  0  0  0  0
   33.4921    3.5762   -4.2787 C   0  0  0  0  0  0
   34.8975    4.2088   -4.3741 C   0  0  0  0  0  0
   30.3541    2.2128   -7.8190 C   0  0  0  0  0  0
   26.0701    4.2482    1.2033 C   0  0  0  0  0  0
   24.9097    3.9462    1.9011 C   0  0  0  0  0  0
   27.5069    7.4659    5.4176 H   0  0  0  0  0  0
   36.7488    7.9893    0.3447 H   0  0  0  0  0  0
   33.6823    5.3015    0.6938 H   0  0  0  0  0  0
   34.9358    7.4126    4.2152 H   0  0  0  0  0  0
   32.6334    7.4651    4.9875 H   0  0  0  0  0  0
   31.3520    5.4580    1.4075 H   0  0  0  0  0  0
   29.4665    3.2526   -3.5035 H   0  0  0  0  0  0
   32.7840    5.4513   -4.7897 H   0  0  0  0  0  0
   27.8797    2.2400   -4.8972 H   0  0  0  0  0  0
   34.0054    7.0505   -0.7861 H   0  0  0  0  0  0
   38.0321    5.6206   -1.2021 H   0  0  0  0  0  0
   33.3503    5.8504   -2.7683 H   0  0  0  0  0  0
   37.3832    4.4047   -3.2329 H   0  0  0  0  0  0
   30.3144    1.4505   -2.9870 H   0  0  0  0  0  0
   23.7919    4.2512    3.6748 H   0  0  0  0  0  0
   27.9719    5.1622    1.2489 H   0  0  0  0  0  0
   30.5322    5.1843   -4.3573 H   0  0  0  0  0  0
   31.3461    4.6382   -2.9292 H   0  0  0  0  0  0
   31.8575    2.8450   -6.4544 H   0  0  0  0  0  0
   28.6068    1.5416   -8.8987 H   0  0  0  0  0  0
   33.3213    3.2880   -3.2400 H   0  0  0  0  0  0
   33.4476    2.6499   -4.8458 H   0  0  0  0  0  0
   35.6091    3.3899   -4.4880 H   0  0  0  0  0  0
   35.0040    4.8214   -5.2724 H   0  0  0  0  0  0
   31.0187    2.1991   -8.6699 H   0  0  0  0  0  0
   26.1976    3.8990    0.1876 H   0  0  0  0  0  0
   24.1290    3.3675    1.4276 H   0  0  0  0  0  0
  1 10  1  0  0  0
  1 11  1  0  0  0
  1 12  2  0  0  0
  1 13  2  0  0  0
  2  4  2  0  0  0
  2  3  1  0  0  0
  3  7  1  0  0  0
  3  9  2  0  0  0
  4 14  1  0  0  0
  4  6  1  0  0  0
  5  8  1  0  0  0
  5 19  1  0  0  0
  5 20  1  0  0  0
  5 21  1  0  0  0
  6  9  1  0  0  0
  7  8  2  0  0  0
  7 35  1  0  0  0
  8 34  1  0  0  0
  9 44  1  0  0  0
 10 24  1  0  0  0
 10 45  1  0  0  0
 11 17  1  0  0  0
 11 18  2  0  0  0
 14 22  2  0  0  0
 14 23  1  0  0  0
 15 25  1  0  0  0
 15 28  1  0  0  0
 15 37  2  0  0  0
 16 28  2  0  0  0
 16 38  1  0  0  0
 17 23  2  0  0  0
 17 46  1  0  0  0
 18 22  1  0  0  0
 18 47  1  0  0  0
 22 48  1  0  0  0
 23 49  1  0  0  0
 24 29  1  0  0  0
 24 30  2  0  0  0
 25 36  1  0  0  0
 25 33  1  0  0  0
 25 50  1  0  0  0
 26 39  1  0  0  0
 26 36  1  0  0  0
 26 51  1  0  0  0
 27 32  2  0  0  0
 27 40  1  0  0  0
 27 31  1  0  0  0
 28 52  1  0  0  0
 29 31  2  0  0  0
 29 53  1  0  0  0
 30 32  1  0  0  0
 30 54  1  0  0  0
 31 55  1  0  0  0
 32 56  1  0  0  0
 33 57  1  0  0  0
 34 43  2  0  0  0
 34 58  1  0  0  0
 35 42  2  0  0  0
 35 59  1  0  0  0
 36 60  1  0  0  0
 36 61  1  0  0  0
 37 41  1  0  0  0
 37 62  1  0  0  0
 38 41  2  0  0  0
 38 63  1  0  0  0
 39 40  1  0  0  0
 39 64  1  0  0  0
 39 65  1  0  0  0
 40 66  1  0  0  0
 40 67  1  0  0  0
 41 68  1  0  0  0
 42 43  1  0  0  0
 42 69  1  0  0  0
 43 70  1  0  0  0
M  END
> <s_m_entry_id>
2925

> <s_m_entry_name>
dock_pv.17

> <s_m_Source_Path>
/home/csk/Desktop/cluster/DUD-E-result/adrb1

> <s_m_Source_File>
dock_pv.maegz

> <i_m_Source_File_Index>
17

> <chembl_id>
CHEMBL333417

> <chembl_pref_name>
None

> <i_lp_mmshare_version>
53161

> <i_f3d_flags>
0

> <r_lp_tautomer_probability>
1

> <s_lp_Force_Field>
OPLS_2005

> <r_lp_Energy>
30.481407

> <b_lp_Chiralities_Consistent>
1

> <s_lp_Variant>
CHEMBL213_lig349-1

> <s_i_glide_gridfile>
glide-grid_2vt4

> <i_i_glide_lignum>
410

> <i_i_glide_rotatable_bonds>
13

> <r_i_docking_score>
-8.84600355112952

> <r_i_glide_ligand_efficiency>
-0.205721012816966

> <r_i_glide_ligand_efficiency_sa>
-0.720722596380155

> <r_i_glide_ligand_efficiency_ln>
-1.85793567507736

> <r_i_glide_gscore>
-8.84600355112952

> <r_i_glide_lipo>
-4.11183413568787

> <r_i_glide_hbond>
-0.18712220102987

> <r_i_glide_metal>
0

> <r_i_glide_rewards>
-1.00288715635375

> <r_i_glide_evdw>
-62.6472206115723

> <r_i_glide_ecoul>
-5.4533839225769

> <r_i_glide_erotb>
0.40620856090712

> <r_i_glide_esite>
0

> <r_i_glide_emodel>
-97.7697287085517

> <r_i_glide_energy>
-68.1006045341492

> <r_i_glide_einternal>
12.5613489151001

> <i_i_glide_confnum>
18

> <i_i_glide_posenum>
152

> <r_i_glide_eff_state_penalty>
0

> <s_user_duplicate_titles>
CHEMBL213_lig349

> <s_m_subgroup_title>
dock_pv

> <s_m_subgroupid>
dock_pv

> <b_m_subgroup_collapsed>
1

$$$$
CHEMBL213_lig1160
                    3D
 Schrodinger Suite 2021-1.
 75 79  0  0  1  0            999 V2000
   31.0082    1.8500   -6.7936 C   0  0  0  0  0  0
   29.9415    2.1761   -5.9604 C   0  0  0  0  0  0
   32.2414    3.8275   -6.0807 C   0  0  0  0  0  0
   32.1484    2.6532   -6.8399 C   0  0  0  0  0  0
   28.8658    1.3202   -5.9182 O   0  0  0  0  0  0
   33.5607    4.6317   -6.1258 C   0  0  2  0  0  0
   34.2203    4.9333   -4.7466 C   0  0  0  0  0  0
   34.5015    3.7503   -3.9244 N   0  0  2  0  0  0
   34.0335    3.8897   -2.5432 C   0  0  0  0  0  0
   34.7062    5.0355   -1.7321 C   0  0  0  0  0  0
   34.0102    5.3837   -0.4118 C   0  0  0  0  0  0
   34.7573    5.6426    0.7427 C   0  0  0  0  0  0
   34.1173    6.0003    1.9339 C   0  0  0  0  0  0
   32.7231    6.1124    1.9882 C   0  0  0  0  0  0
   31.9887    5.8498    0.8290 C   0  0  0  0  0  0
   32.6202    5.4774   -0.3553 C   0  0  0  0  0  0
   33.4081    5.8493   -6.8336 O   0  0  0  0  0  0
   31.1209    4.2090   -5.3154 C   0  0  0  0  0  0
   29.9984    3.3561   -5.2048 C   0  0  0  0  0  0
   28.9835    3.6792   -4.2698 N   0  0  0  0  0  0
   28.9736    4.7295   -3.4198 C   0  0  0  0  0  0
   30.0047    5.7052   -3.7103 C   0  0  0  0  0  0
   31.0299    5.4743   -4.5575 C   0  0  0  0  0  0
   28.2094    4.8040   -2.4659 O   0  0  0  0  0  0
   32.1291    6.5526    3.1889 N   0  0  0  0  0  0
   30.8001    6.6266    3.6517 C   0  0  0  0  0  0
   29.7573    5.8501    3.1277 C   0  0  0  0  0  0
   28.4353    5.9581    3.5829 C   0  0  0  0  0  0
   28.1838    6.8159    4.6681 C   0  0  0  0  0  0
   29.2241    7.5423    5.2426 C   0  0  0  0  0  0
   30.5198    7.4500    4.7394 C   0  0  0  0  0  0
   27.3372    5.2192    2.8829 C   0  0  0  0  0  0
   26.9250    6.9812    5.1850 O   0  0  0  0  0  0
   26.0981    7.9031    4.4956 C   0  0  0  0  0  0
   26.2296    4.7293    3.5849 C   0  0  0  0  0  0
   25.1946    4.0806    2.9282 C   0  0  0  0  0  0
   25.2749    3.8468    1.5595 C   0  0  0  0  0  0
   26.3488    4.3704    0.8303 C   0  0  0  0  0  0
   27.3670    5.0499    1.4912 C   0  0  0  0  0  0
   24.1783    3.0106    0.9188 C   0  0  0  0  0  0
   24.6417    2.2500   -0.2240 N   0  0  0  0  0  0
   30.9687    0.9491   -7.3890 H   0  0  0  0  0  0
   32.9730    2.3451   -7.4679 H   0  0  0  0  0  0
   28.0725    1.6862   -5.5198 H   0  0  0  0  0  0
   34.2859    4.0521   -6.6989 H   0  0  0  0  0  0
   35.1684    5.4501   -4.9005 H   0  0  0  0  0  0
   33.6025    5.6256   -4.1822 H   0  0  0  0  0  0
   35.4983    3.5780   -3.9109 H   0  0  0  0  0  0
   32.9484    3.9754   -2.5584 H   0  0  0  0  0  0
   34.2188    2.9525   -2.0180 H   0  0  0  0  0  0
   35.7487    4.7720   -1.5459 H   0  0  0  0  0  0
   34.7390    5.9606   -2.3073 H   0  0  0  0  0  0
   35.8363    5.5795    0.7162 H   0  0  0  0  0  0
   34.7113    6.2100    2.8095 H   0  0  0  0  0  0
   30.9227    5.9785    0.7920 H   0  0  0  0  0  0
   32.0113    5.3194   -1.2310 H   0  0  0  0  0  0
   34.2466    6.3443   -6.8146 H   0  0  0  0  0  0
   28.2662    3.0120   -4.0365 H   0  0  0  0  0  0
   29.9230    6.6546   -3.2143 H   0  0  0  0  0  0
   31.7167    6.2777   -4.7680 H   0  0  0  0  0  0
   32.7941    6.9564    3.8295 H   0  0  0  0  0  0
   29.9695    5.1214    2.3629 H   0  0  0  0  0  0
   29.0057    8.2068    6.0645 H   0  0  0  0  0  0
   31.3045    8.0334    5.1975 H   0  0  0  0  0  0
   25.1847    8.0699    5.0693 H   0  0  0  0  0  0
   26.6029    8.8601    4.3831 H   0  0  0  0  0  0
   25.8086    7.5408    3.5084 H   0  0  0  0  0  0
   26.1646    4.8350    4.6565 H   0  0  0  0  0  0
   24.3544    3.7156    3.4970 H   0  0  0  0  0  0
   26.4147    4.2477   -0.2412 H   0  0  0  0  0  0
   28.1845    5.4446    0.9036 H   0  0  0  0  0  0
   23.8081    2.2922    1.6506 H   0  0  0  0  0  0
   23.3428    3.6471    0.6246 H   0  0  0  0  0  0
   24.0890    2.6018   -1.0156 H   0  0  0  0  0  0
   25.5877    2.5510   -0.4151 H   0  0  0  0  0  0
  1  2  2  0  0  0
  1  4  1  0  0  0
  1 42  1  0  0  0
  2 19  1  0  0  0
  2  5  1  0  0  0
  3 18  1  0  0  0
  3  4  2  0  0  0
  3  6  1  0  0  0
  4 43  1  0  0  0
  5 44  1  0  0  0
  6  7  1  0  0  0
  6 17  1  0  0  0
  6 45  1  0  0  0
  7  8  1  0  0  0
  7 46  1  0  0  0
  7 47  1  0  0  0
  8  9  1  0  0  0
  8 48  1  0  0  0
  9 10  1  0  0  0
  9 49  1  0  0  0
  9 50  1  0  0  0
 10 11  1  0  0  0
 10 51  1  0  0  0
 10 52  1  0  0  0
 11 12  2  0  0  0
 11 16  1  0  0  0
 12 13  1  0  0  0
 12 53  1  0  0  0
 13 14  2  0  0  0
 13 54  1  0  0  0
 14 15  1  0  0  0
 14 25  1  0  0  0
 15 16  2  0  0  0
 15 55  1  0  0  0
 16 56  1  0  0  0
 17 57  1  0  0  0
 18 19  2  0  0  0
 18 23  1  0  0  0
 19 20  1  0  0  0
 20 21  1  0  0  0
 20 58  1  0  0  0
 21 22  1  0  0  0
 21 24  2  0  0  0
 22 23  2  0  0  0
 22 59  1  0  0  0
 23 60  1  0  0  0
 25 26  1  0  0  0
 25 61  1  0  0  0
 26 27  2  0  0  0
 26 31  1  0  0  0
 27 28  1  0  0  0
 27 62  1  0  0  0
 28 29  2  0  0  0
 28 32  1  0  0  0
 29 30  1  0  0  0
 29 33  1  0  0  0
 30 31  2  0  0  0
 30 63  1  0  0  0
 31 64  1  0  0  0
 32 35  2  0  0  0
 32 39  1  0  0  0
 33 34  1  0  0  0
 34 65  1  0  0  0
 34 66  1  0  0  0
 34 67  1  0  0  0
 35 36  1  0  0  0
 35 68  1  0  0  0
 36 37  2  0  0  0
 36 69  1  0  0  0
 37 38  1  0  0  0
 37 40  1  0  0  0
 38 39  2  0  0  0
 38 70  1  0  0  0
 39 71  1  0  0  0
 40 41  1  0  0  0
 40 72  1  0  0  0
 40 73  1  0  0  0
 41 74  1  0  0  0
 41 75  1  0  0  0
M  END
> <s_m_entry_id>
2926

> <s_m_entry_name>
dock_pv.18

> <s_m_Source_Path>
/home/csk/Desktop/cluster/DUD-E-result/adrb1

> <s_m_Source_File>
dock_pv.maegz

> <i_m_Source_File_Index>
18

> <chembl_id>
CHEMBL3298326

> <chembl_pref_name>
None

> <i_lp_mmshare_version>
53161

> <i_f3d_flags>
0

> <r_lp_tautomer_probability>
1

> <s_lp_Force_Field>
OPLS_2005

> <r_lp_Energy>
53.176469

> <b_lp_Chiralities_Consistent>
1

> <s_lp_Variant>
CHEMBL213_lig1160-1

> <s_i_glide_gridfile>
glide-grid_2vt4

> <i_i_glide_lignum>
1356

> <i_i_glide_rotatable_bonds>
13

> <r_i_docking_score>
-8.84468712174023

> <r_i_glide_ligand_efficiency>
-0.215724076140006

> <r_i_glide_ligand_efficiency_sa>
-0.743863477590807

> <r_i_glide_ligand_efficiency_ln>
-1.87642980664648

> <r_i_glide_gscore>
-8.84468712174023

> <r_i_glide_lipo>
-4.61504844216959

> <r_i_glide_hbond>
-0.432045465768164

> <r_i_glide_metal>
0

> <r_i_glide_rewards>
-0.6807800761792

> <r_i_glide_evdw>
-54.8021049499512

> <r_i_glide_ecoul>
-5.93308591842651

> <r_i_glide_erotb>
0.546176678538633

> <r_i_glide_esite>
-0.0329216809003703

> <r_i_glide_emodel>
-80.6063734889408

> <r_i_glide_energy>
-60.7351908683777

> <r_i_glide_einternal>
23.4199199676514

> <i_i_glide_confnum>
2

> <i_i_glide_posenum>
329

> <r_i_glide_eff_state_penalty>
0

> <s_user_duplicate_titles>
CHEMBL213_lig1160

> <s_m_subgroup_title>
dock_pv

> <s_m_subgroupid>
dock_pv

> <b_m_subgroup_collapsed>
1

$$$$
CHEMBL213_lig784
                    3D
 Schrodinger Suite 2021-1.
 83 85  0  0  1  0            999 V2000
   26.3477    4.3334    0.5315 C   0  0  0  0  0  0
   25.3294    3.3787    0.6339 C   0  0  0  0  0  0
   24.5999    3.2506    1.8131 C   0  0  0  0  0  0
   24.8634    4.0905    2.8932 C   0  0  0  0  0  0
   25.8770    5.0500    2.8177 C   0  0  0  0  0  0
   26.6185    5.1559    1.6303 C   0  0  0  0  0  0
   25.0076    2.5670   -0.4151 O   0  0  0  0  0  0
   27.1590    4.5061   -0.7478 C   0  0  0  0  0  0
   26.6084    5.4768   -1.6148 O   0  0  0  0  0  0
   26.1237    6.0501    3.9548 C   0  0  2  0  0  0
   27.5975    6.0909    4.4206 C   0  0  0  0  0  0
   25.3079    5.8530    5.1014 O   0  0  0  0  0  0
   27.9948    7.4500    4.7851 N   0  0  2  0  0  0
   29.2386    7.5667    5.5395 C   0  0  0  0  0  0
   30.4351    6.7349    5.0358 C   0  0  0  0  0  0
   31.2121    7.1934    3.7973 C   0  0  0  0  0  0
   32.5447    6.4176    3.6682 C   0  0  0  0  0  0
   33.3840    6.7884    2.4449 C   0  0  0  0  0  0
   34.6871    5.9916    2.2817 C   0  0  0  0  0  0
   35.0550    6.0329    0.9095 O   0  0  0  0  0  0
   36.3533    5.5337    0.6179 C   0  0  0  0  0  0
   36.3554    4.9056   -0.7866 C   0  0  0  0  0  0
   35.5036    3.6227   -0.8550 C   0  0  0  0  0  0
   35.6147    2.8424   -2.1797 C   0  0  0  0  0  0
   34.8899    3.4787   -3.3577 C   0  0  0  0  0  0
   35.6156    4.0686   -4.3966 C   0  0  0  0  0  0
   34.9508    4.6074   -5.4971 C   0  0  0  0  0  0
   33.5580    4.5791   -5.5607 C   0  0  0  0  0  0
   32.8224    3.9986   -4.5254 C   0  0  0  0  0  0
   33.4897    3.4452   -3.4280 C   0  0  0  0  0  0
   31.0349    3.9273   -4.6296 S   0  0  0  0  0  0
   30.7189    2.4331   -5.5395 N   0  0  0  0  0  0
   30.5456    3.7572   -3.2563 O   0  0  0  0  0  0
   30.6090    5.0587   -5.4609 O   0  0  0  0  0  0
   30.7673    2.4357   -7.0193 C   0  0  0  0  0  0
   29.3541    2.2128   -7.5988 C   0  0  0  0  0  0
   28.7746    1.0486   -7.0134 O   0  0  0  0  0  0
   28.6107    1.1313   -5.5912 C   0  0  0  0  0  0
   29.9946    1.2958   -4.9295 C   0  0  0  0  0  0
   23.8091    2.5173    1.8812 H   0  0  0  0  0  0
   24.2569    4.0004    3.7808 H   0  0  0  0  0  0
   27.3809    5.9141    1.5404 H   0  0  0  0  0  0
   24.3889    2.9964   -1.0303 H   0  0  0  0  0  0
   28.1757    4.8102   -0.4948 H   0  0  0  0  0  0
   27.2564    3.5595   -1.2806 H   0  0  0  0  0  0
   25.9456    5.0492   -2.1818 H   0  0  0  0  0  0
   25.8380    7.0109    3.5189 H   0  0  0  0  0  0
   27.7586    5.3807    5.2355 H   0  0  0  0  0  0
   28.2479    5.7793    3.6036 H   0  0  0  0  0  0
   25.5598    6.4941    5.7690 H   0  0  0  0  0  0
   27.2670    7.8943    5.3377 H   0  0  0  0  0  0
   29.5107    8.6226    5.5836 H   0  0  0  0  0  0
   29.0083    7.2720    6.5663 H   0  0  0  0  0  0
   31.1386    6.6497    5.8645 H   0  0  0  0  0  0
   30.0798    5.7521    4.7850 H   0  0  0  0  0  0
   30.6030    7.0582    2.9029 H   0  0  0  0  0  0
   31.4090    8.2501    3.8705 H   0  0  0  0  0  0
   33.1421    6.5393    4.5734 H   0  0  0  0  0  0
   32.3122    5.3617    3.5850 H   0  0  0  0  0  0
   32.7609    6.6455    1.5649 H   0  0  0  0  0  0
   33.6374    7.8453    2.4928 H   0  0  0  0  0  0
   35.4652    6.4222    2.9146 H   0  0  0  0  0  0
   34.5539    4.9517    2.5820 H   0  0  0  0  0  0
   37.0651    6.3579    0.6735 H   0  0  0  0  0  0
   36.6788    4.7861    1.3446 H   0  0  0  0  0  0
   36.0021    5.6325   -1.5199 H   0  0  0  0  0  0
   37.3850    4.6652   -1.0604 H   0  0  0  0  0  0
   35.8183    2.9581   -0.0474 H   0  0  0  0  0  0
   34.4590    3.8593   -0.6520 H   0  0  0  0  0  0
   36.6637    2.6603   -2.4228 H   0  0  0  0  0  0
   35.1852    1.8499   -2.0400 H   0  0  0  0  0  0
   36.6953    4.1037   -4.3594 H   0  0  0  0  0  0
   35.5211    5.0530   -6.2998 H   0  0  0  0  0  0
   33.0586    5.0094   -6.4181 H   0  0  0  0  0  0
   32.9258    2.9849   -2.6293 H   0  0  0  0  0  0
   31.1693    3.3897   -7.3597 H   0  0  0  0  0  0
   31.4661    1.6637   -7.3393 H   0  0  0  0  0  0
   29.3906    2.1043   -8.6836 H   0  0  0  0  0  0
   28.6952    3.0503   -7.3907 H   0  0  0  0  0  0
   28.1208    0.2273   -5.2273 H   0  0  0  0  0  0
   27.9560    1.9703   -5.3410 H   0  0  0  0  0  0
   30.6051    0.4011   -5.0409 H   0  0  0  0  0  0
   29.8800    1.4740   -3.8616 H   0  0  0  0  0  0
  1  2  2  0  0  0
  1  8  1  0  0  0
  1  6  1  0  0  0
  2  7  1  0  0  0
  2  3  1  0  0  0
  3  4  2  0  0  0
  3 40  1  0  0  0
  4  5  1  0  0  0
  4 41  1  0  0  0
  5 10  1  0  0  0
  5  6  2  0  0  0
  6 42  1  0  0  0
  7 43  1  0  0  0
  8  9  1  0  0  0
  8 44  1  0  0  0
  8 45  1  0  0  0
  9 46  1  0  0  0
 10 11  1  0  0  0
 10 12  1  0  0  0
 10 47  1  0  0  0
 11 13  1  0  0  0
 11 48  1  0  0  0
 11 49  1  0  0  0
 12 50  1  0  0  0
 13 14  1  0  0  0
 13 51  1  0  0  0
 14 15  1  0  0  0
 14 52  1  0  0  0
 14 53  1  0  0  0
 15 16  1  0  0  0
 15 54  1  0  0  0
 15 55  1  0  0  0
 16 17  1  0  0  0
 16 56  1  0  0  0
 16 57  1  0  0  0
 17 18  1  0  0  0
 17 58  1  0  0  0
 17 59  1  0  0  0
 18 19  1  0  0  0
 18 60  1  0  0  0
 18 61  1  0  0  0
 19 20  1  0  0  0
 19 62  1  0  0  0
 19 63  1  0  0  0
 20 21  1  0  0  0
 21 22  1  0  0  0
 21 64  1  0  0  0
 21 65  1  0  0  0
 22 23  1  0  0  0
 22 66  1  0  0  0
 22 67  1  0  0  0
 23 24  1  0  0  0
 23 68  1  0  0  0
 23 69  1  0  0  0
 24 25  1  0  0  0
 24 70  1  0  0  0
 24 71  1  0  0  0
 25 26  2  0  0  0
 25 30  1  0  0  0
 26 27  1  0  0  0
 26 72  1  0  0  0
 27 28  2  0  0  0
 27 73  1  0  0  0
 28 29  1  0  0  0
 28 74  1  0  0  0
 29 30  2  0  0  0
 29 31  1  0  0  0
 30 75  1  0  0  0
 31 32  1  0  0  0
 31 33  2  0  0  0
 31 34  2  0  0  0
 32 35  1  0  0  0
 32 39  1  0  0  0
 35 36  1  0  0  0
 35 76  1  0  0  0
 35 77  1  0  0  0
 36 37  1  0  0  0
 36 78  1  0  0  0
 36 79  1  0  0  0
 37 38  1  0  0  0
 38 39  1  0  0  0
 38 80  1  0  0  0
 38 81  1  0  0  0
 39 82  1  0  0  0
 39 83  1  0  0  0
M  END
> <s_m_entry_id>
2927

> <s_m_entry_name>
dock_pv.19

> <s_m_Source_Path>
/home/csk/Desktop/cluster/DUD-E-result/adrb1

> <s_m_Source_File>
dock_pv.maegz

> <i_m_Source_File_Index>
19

> <chembl_id>
CHEMBL456485

> <chembl_pref_name>
None

> <i_lp_mmshare_version>
53161

> <i_f3d_flags>
0

> <r_lp_tautomer_probability>
0.999999999997365

> <s_lp_Force_Field>
OPLS_2005

> <r_lp_Energy>
14.597124

> <b_lp_Chiralities_Consistent>
1

> <s_lp_Variant>
CHEMBL213_lig784-1

> <s_i_glide_gridfile>
glide-grid_2vt4

> <i_i_glide_lignum>
892

> <i_i_glide_rotatable_bonds>
21

> <r_i_docking_score>
-8.7960594459147

> <r_i_glide_ligand_efficiency>
-0.225539985792684

> <r_i_glide_ligand_efficiency_sa>
-0.764853779743375

> <r_i_glide_ligand_efficiency_ln>
-1.88612483619996

> <r_i_glide_gscore>
-8.7960594459147

> <r_i_glide_lipo>
-3.84830028001771

> <r_i_glide_hbond>
-0.614492676002249

> <r_i_glide_metal>
0

> <r_i_glide_rewards>
-1.01030030855575

> <r_i_glide_evdw>
-54.8306083679199

> <r_i_glide_ecoul>
-11.1204490661621

> <r_i_glide_erotb>
1.09025323771506

> <r_i_glide_esite>
-0.00362164073373377

> <r_i_glide_emodel>
-91.3442000781669

> <r_i_glide_energy>
-65.951057434082

> <r_i_glide_einternal>
19.685375213623

> <i_i_glide_confnum>
171

> <i_i_glide_posenum>
271

> <r_i_glide_eff_state_penalty>
0

> <s_user_duplicate_titles>
CHEMBL213_lig784,476138

> <s_m_subgroup_title>
dock_pv

> <s_m_subgroupid>
dock_pv

> <b_m_subgroup_collapsed>
1

$$$$
CHEMBL213_lig1205 
                    3D
 Schrodinger Suite 2021-1.
 63 66  0  0  1  0            999 V2000
   27.6735    4.8599   -3.9429 C   0  0  0  0  0  0
   28.3624    5.4218   -2.6900 C   0  0  0  0  0  0
   27.8820    6.8850   -2.4729 C   0  0  0  0  0  0
   23.8212    4.0193    2.9121 C   0  0  0  0  0  0
   24.6081    4.6550    3.8733 C   0  0  0  0  0  0
   25.6764    4.0142    1.3350 C   0  0  0  0  0  0
   24.3498    3.6984    1.6651 C   0  0  0  0  0  0
   26.4686    4.6738    2.3032 C   0  0  0  0  0  0
   25.9303    4.9900    3.5677 C   0  0  0  0  0  0
   26.7323    5.6587    4.5200 N   0  0  0  0  0  0
   28.0252    6.0214    4.3876 C   0  0  0  0  0  0
   28.5983    5.6424    3.1093 C   0  0  0  0  0  0
   27.8924    5.0501    2.1176 C   0  0  0  0  0  0
   28.6225    6.6304    5.2702 O   0  0  0  0  0  0
   24.0489    5.0500    5.0742 O   0  0  0  0  0  0
   26.2455    3.6038   -0.0359 C   0  0  2  0  0  0
   26.6989    4.8065   -0.9057 C   0  0  0  0  0  0
   25.4081    2.7289   -0.7864 O   0  0  0  0  0  0
   27.9973    4.5626   -1.5527 N   0  0  1  0  0  0
   29.9239    5.4213   -2.8270 C   0  0  0  0  0  0
   30.7344    4.0984   -3.0995 C   0  0  0  0  0  0
   32.2439    4.1697   -2.7306 C   0  0  0  0  0  0
   32.8493    5.3134   -2.1825 C   0  0  0  0  0  0
   34.2212    5.3505   -1.9466 C   0  0  0  0  0  0
   35.0087    4.2480   -2.2641 C   0  0  0  0  0  0
   34.4332    3.1032   -2.8046 C   0  0  0  0  0  0
   33.0580    3.0607   -3.0163 C   0  0  0  0  0  0
   30.5898    3.5481   -4.5375 C   0  0  0  0  0  0
   31.3638    4.0831   -5.5757 C   0  0  0  0  0  0
   31.4088    3.4501   -6.8146 C   0  0  0  0  0  0
   30.6226    2.3257   -7.0528 C   0  0  0  0  0  0
   29.8081    1.8142   -6.0494 C   0  0  0  0  0  0
   29.8073    2.4170   -4.7957 C   0  0  0  0  0  0
   28.2434    5.1561   -4.8149 H   0  0  0  0  0  0
   27.6109    3.7717   -3.9507 H   0  0  0  0  0  0
   26.6618    5.2443   -4.0761 H   0  0  0  0  0  0
   28.2453    7.5533   -3.2535 H   0  0  0  0  0  0
   26.7951    6.9698   -2.4852 H   0  0  0  0  0  0
   28.2079    7.2798   -1.5116 H   0  0  0  0  0  0
   22.7890    3.7813    3.1250 H   0  0  0  0  0  0
   23.7086    3.2020    0.9499 H   0  0  0  0  0  0
   26.3179    5.9204    5.4003 H   0  0  0  0  0  0
   29.6413    5.8775    2.9558 H   0  0  0  0  0  0
   28.4028    4.8220    1.1930 H   0  0  0  0  0  0
   23.0876    5.0351    5.0716 H   0  0  0  0  0  0
   27.1073    2.9929    0.2034 H   0  0  0  0  0  0
   26.8159    5.6914   -0.2803 H   0  0  0  0  0  0
   25.9215    5.0676   -1.6149 H   0  0  0  0  0  0
   24.8403    3.2493   -1.3773 H   0  0  0  0  0  0
   28.0117    3.5977   -1.8737 H   0  0  0  0  0  0
   30.2577    5.8374   -1.8791 H   0  0  0  0  0  0
   30.2175    6.1546   -3.5800 H   0  0  0  0  0  0
   30.3346    3.3462   -2.4173 H   0  0  0  0  0  0
   32.2893    6.1996   -1.9407 H   0  0  0  0  0  0
   34.6774    6.2368   -1.5293 H   0  0  0  0  0  0
   36.0753    4.2815   -2.0918 H   0  0  0  0  0  0
   35.0498    2.2502   -3.0484 H   0  0  0  0  0  0
   32.6269    2.1636   -3.4380 H   0  0  0  0  0  0
   31.9884    4.9474   -5.4011 H   0  0  0  0  0  0
   32.0428    3.8426   -7.5961 H   0  0  0  0  0  0
   30.6460    1.8516   -8.0229 H   0  0  0  0  0  0
   29.1991    0.9405   -6.2297 H   0  0  0  0  0  0
   29.2133    1.9773   -4.0159 H   0  0  0  0  0  0
  1  2  1  0  0  0
  1 34  1  0  0  0
  1 35  1  0  0  0
  1 36  1  0  0  0
  2  3  1  0  0  0
  2 19  1  0  0  0
  2 20  1  0  0  0
  3 37  1  0  0  0
  3 38  1  0  0  0
  3 39  1  0  0  0
  4  5  2  0  0  0
  4  7  1  0  0  0
  4 40  1  0  0  0
  5  9  1  0  0  0
  5 15  1  0  0  0
  6  8  1  0  0  0
  6  7  2  0  0  0
  6 16  1  0  0  0
  7 41  1  0  0  0
  8  9  2  0  0  0
  8 13  1  0  0  0
  9 10  1  0  0  0
 10 11  1  0  0  0
 10 42  1  0  0  0
 11 12  1  0  0  0
 11 14  2  0  0  0
 12 13  2  0  0  0
 12 43  1  0  0  0
 13 44  1  0  0  0
 15 45  1  0  0  0
 16 17  1  0  0  0
 16 18  1  0  0  0
 16 46  1  0  0  0
 17 19  1  0  0  0
 17 47  1  0  0  0
 17 48  1  0  0  0
 18 49  1  0  0  0
 19 50  1  0  0  0
 20 21  1  0  0  0
 20 51  1  0  0  0
 20 52  1  0  0  0
 21 22  1  0  0  0
 21 28  1  0  0  0
 21 53  1  0  0  0
 22 23  2  0  0  0
 22 27  1  0  0  0
 23 24  1  0  0  0
 23 54  1  0  0  0
 24 25  2  0  0  0
 24 55  1  0  0  0
 25 26  1  0  0  0
 25 56  1  0  0  0
 26 27  2  0  0  0
 26 57  1  0  0  0
 27 58  1  0  0  0
 28 29  2  0  0  0
 28 33  1  0  0  0
 29 30  1  0  0  0
 29 59  1  0  0  0
 30 31  2  0  0  0
 30 60  1  0  0  0
 31 32  1  0  0  0
 31 61  1  0  0  0
 32 33  2  0  0  0
 32 62  1  0  0  0
 33 63  1  0  0  0
M  END
> <s_m_entry_id>
2928

> <s_m_entry_name>
dock_pv.20

> <s_m_Source_Path>
/home/csk/Desktop/cluster/DUD-E-result/adrb1

> <s_m_Source_File>
dock_pv.maegz

> <i_m_Source_File_Index>
20

> <chembl_id>
CHEMBL4575759

> <chembl_pref_name>
None

> <i_lp_mmshare_version>
53161

> <i_f3d_flags>
0

> <r_lp_tautomer_probability>
1

> <s_lp_Force_Field>
OPLS_2005

> <r_lp_Energy>
42.587833

> <b_lp_Chiralities_Consistent>
1

> <s_lp_Variant>
CHEMBL213_lig1205 -1

> <s_i_glide_gridfile>
glide-grid_2vt4

> <i_i_glide_lignum>
1420

> <i_i_glide_rotatable_bonds>
10

> <r_i_docking_score>
-8.71086078116103

> <r_i_glide_ligand_efficiency>
-0.263965478217001

> <r_i_glide_ligand_efficiency_sa>
-0.84667833232799

> <r_i_glide_ligand_efficiency_ln>
-1.93725033530692

> <r_i_glide_gscore>
-8.71086078116103

> <r_i_glide_lipo>
-3.87497436241369

> <r_i_glide_hbond>
-1.04795080575548

> <r_i_glide_metal>
0

> <r_i_glide_rewards>
-1.11262023170094

> <r_i_glide_evdw>
-41.6276817321777

> <r_i_glide_ecoul>
-9.40160751342773

> <r_i_glide_erotb>
0.816309832332124

> <r_i_glide_esite>
0

> <r_i_glide_emodel>
-68.6394360930914

> <r_i_glide_energy>
-51.0292892456055

> <r_i_glide_einternal>
15.7794847488403

> <i_i_glide_confnum>
128

> <i_i_glide_posenum>
63

> <r_i_glide_eff_state_penalty>
0

> <s_user_duplicate_titles>
CHEMBL213_lig1205 

> <s_m_subgroup_title>
dock_pv

> <s_m_subgroupid>
dock_pv

> <b_m_subgroup_collapsed>
1

$$$$
CHEMBL213_lig173
                    3D
 Schrodinger Suite 2021-1.
 60 62  0  0  1  0            999 V2000
   31.8422    5.0000   -2.3541 S   0  0  0  0  0  0
   33.0506    5.3698   -1.0939 N   0  0  0  0  0  0
   30.4921    5.0500   -1.7889 O   0  0  0  0  0  0
   32.2080    5.8500   -3.4863 O   0  0  0  0  0  0
   32.2580    3.2218   -2.8160 C   0  0  0  0  0  0
   32.8658    5.5305    0.2923 C   0  0  0  0  0  0
   26.2085    5.4826    3.7549 O   0  0  0  0  0  0
   25.8714    4.7131    2.6641 C   0  0  0  0  0  0
   27.6574    6.8974    5.0773 C   0  0  1  0  0  0
   25.0225    3.0725    0.5891 C   0  0  0  0  0  0
   27.5557    5.9087    3.9014 C   0  0  0  0  0  0
   30.1540    6.7337    5.0918 N   0  0  2  0  0  0
   32.6681    6.2012    3.0196 C   0  0  0  0  0  0
   31.6637    2.8284   -4.1602 C   0  0  0  0  0  0
   34.0077    5.8500    1.0335 C   0  0  0  0  0  0
   31.6288    5.4859    0.9479 C   0  0  0  0  0  0
   26.6080    4.6500    1.4682 C   0  0  0  0  0  0
   24.6992    3.9754    2.7889 C   0  0  0  0  0  0
   26.1732    3.8368    0.4252 C   0  0  0  0  0  0
   24.2871    3.1358    1.7663 C   0  0  0  0  0  0
   33.9127    6.1808    2.3850 C   0  0  0  0  0  0
   31.5299    5.8489    2.2881 C   0  0  0  0  0  0
   27.4154    6.2500    6.3143 O   0  0  0  0  0  0
   24.6080    2.2500   -0.4150 O   0  0  0  0  0  0
   29.0095    7.6419    5.1163 C   0  0  0  0  0  0
   31.4080    7.4500    4.9307 C   0  0  0  0  0  0
   32.5881    6.5524    4.5096 C   0  0  0  0  0  0
   32.1740    3.3815   -5.3395 C   0  0  0  0  0  0
   30.6080    1.9182   -4.2182 C   0  0  0  0  0  0
   30.0532    1.5676   -5.4468 C   0  0  0  0  0  0
   31.6195    3.0336   -6.5689 C   0  0  0  0  0  0
   30.5608    2.1283   -6.6174 C   0  0  0  0  0  0
   33.9609    5.6231   -1.4457 H   0  0  0  0  0  0
   33.3435    3.1323   -2.8399 H   0  0  0  0  0  0
   31.8744    2.5960   -2.0150 H   0  0  0  0  0  0
   26.8686    7.6423    4.9586 H   0  0  0  0  0  0
   28.2075    5.0456    4.0519 H   0  0  0  0  0  0
   27.9016    6.4219    3.0058 H   0  0  0  0  0  0
   30.0702    6.0135    4.3850 H   0  0  0  0  0  0
   34.9758    5.8844    0.5551 H   0  0  0  0  0  0
   30.7135    5.2246    0.4510 H   0  0  0  0  0  0
   27.5105    5.2198    1.3184 H   0  0  0  0  0  0
   24.1239    4.0370    3.6995 H   0  0  0  0  0  0
   26.7338    3.7836   -0.4979 H   0  0  0  0  0  0
   23.4080    2.5334    1.9020 H   0  0  0  0  0  0
   34.8089    6.4372    2.9298 H   0  0  0  0  0  0
   30.5556    5.8183    2.7431 H   0  0  0  0  0  0
   27.1659    6.9353    6.9459 H   0  0  0  0  0  0
   24.0079    2.7068   -1.0386 H   0  0  0  0  0  0
   29.0596    8.2773    4.2330 H   0  0  0  0  0  0
   29.0475    8.3005    5.9850 H   0  0  0  0  0  0
   31.2802    8.2001    4.1473 H   0  0  0  0  0  0
   31.6519    7.9850    5.8468 H   0  0  0  0  0  0
   33.4974    7.0934    4.7743 H   0  0  0  0  0  0
   32.6130    5.6423    5.1076 H   0  0  0  0  0  0
   32.9920    4.0871   -5.3055 H   0  0  0  0  0  0
   30.2080    1.4880   -3.3120 H   0  0  0  0  0  0
   29.2279    0.8715   -5.4871 H   0  0  0  0  0  0
   32.0073    3.4666   -7.4796 H   0  0  0  0  0  0
   30.1279    1.8634   -7.5708 H   0  0  0  0  0  0
  1  2  1  0  0  0
  1  3  2  0  0  0
  1  4  2  0  0  0
  1  5  1  0  0  0
  2  6  1  0  0  0
  2 33  1  0  0  0
  5 14  1  0  0  0
  5 34  1  0  0  0
  5 35  1  0  0  0
  6 15  2  0  0  0
  6 16  1  0  0  0
  7 11  1  0  0  0
  7  8  1  0  0  0
  8 17  1  0  0  0
  8 18  2  0  0  0
  9 25  1  0  0  0
  9 11  1  0  0  0
  9 23  1  0  0  0
  9 36  1  0  0  0
 10 20  2  0  0  0
 10 24  1  0  0  0
 10 19  1  0  0  0
 11 37  1  0  0  0
 11 38  1  0  0  0
 12 26  1  0  0  0
 12 25  1  0  0  0
 12 39  1  0  0  0
 13 22  1  0  0  0
 13 27  1  0  0  0
 13 21  2  0  0  0
 14 28  2  0  0  0
 14 29  1  0  0  0
 15 21  1  0  0  0
 15 40  1  0  0  0
 16 22  2  0  0  0
 16 41  1  0  0  0
 17 19  2  0  0  0
 17 42  1  0  0  0
 18 20  1  0  0  0
 18 43  1  0  0  0
 19 44  1  0  0  0
 20 45  1  0  0  0
 21 46  1  0  0  0
 22 47  1  0  0  0
 23 48  1  0  0  0
 24 49  1  0  0  0
 25 50  1  0  0  0
 25 51  1  0  0  0
 26 27  1  0  0  0
 26 52  1  0  0  0
 26 53  1  0  0  0
 27 54  1  0  0  0
 27 55  1  0  0  0
 28 31  1  0  0  0
 28 56  1  0  0  0
 29 30  2  0  0  0
 29 57  1  0  0  0
 30 32  1  0  0  0
 30 58  1  0  0  0
 31 32  2  0  0  0
 31 59  1  0  0  0
 32 60  1  0  0  0
M  END
> <s_m_entry_id>
2929

> <s_m_entry_name>
dock_pv.21

> <s_m_Source_Path>
/home/csk/Desktop/cluster/DUD-E-result/adrb1

> <s_m_Source_File>
dock_pv.maegz

> <i_m_Source_File_Index>
21

> <chembl_id>
CHEMBL13079

> <chembl_pref_name>
None

> <i_lp_mmshare_version>
53161

> <i_f3d_flags>
0

> <r_lp_tautomer_probability>
1

> <s_lp_Force_Field>
OPLS_2005

> <r_lp_Energy>
24.663651

> <b_lp_Chiralities_Consistent>
1

> <s_lp_Variant>
CHEMBL213_lig173-1

> <s_i_glide_gridfile>
glide-grid_2vt4

> <i_i_glide_lignum>
208

> <i_i_glide_rotatable_bonds>
14

> <r_i_docking_score>
-8.70829052427386

> <r_i_glide_ligand_efficiency>
-0.272134078883558

> <r_i_glide_ligand_efficiency_sa>
-0.863971845194215

> <r_i_glide_ligand_efficiency_ln>
-1.95002362741924

> <r_i_glide_gscore>
-8.70829052427386

> <r_i_glide_lipo>
-3.89662183903304

> <r_i_glide_hbond>
-0.646040790177641

> <r_i_glide_metal>
0

> <r_i_glide_rewards>
-0.590748401026511

> <r_i_glide_evdw>
-42.214282989502

> <r_i_glide_ecoul>
-16.7584362030029

> <r_i_glide_erotb>
1.06061234312733

> <r_i_glide_esite>
-0.0110122572384605

> <r_i_glide_emodel>
-83.5664467310091

> <r_i_glide_energy>
-58.9727191925049

> <r_i_glide_einternal>
12.0031614303589

> <i_i_glide_confnum>
157

> <i_i_glide_posenum>
251

> <r_i_glide_eff_state_penalty>
0

> <s_user_duplicate_titles>
CHEMBL213_lig173,11497

> <s_m_subgroup_title>
dock_pv

> <s_m_subgroupid>
dock_pv

> <b_m_subgroup_collapsed>
1

$$$$
CHEMBL213_lig1011
                    3D
 Schrodinger Suite 2021-1.
 51 52  0  0  1  0            999 V2000
   27.7911    6.1546    4.9643 C   0  0  0  0  0  0
   28.7534    5.8976    3.9886 C   0  0  0  0  0  0
   28.3776    5.4031    2.7436 C   0  0  0  0  0  0
   27.0313    5.1689    2.4461 C   0  0  0  0  0  0
   28.2079    6.6499    6.1739 O   0  0  0  0  0  0
   26.6615    4.6174    1.0688 C   0  0  2  0  0  0
   26.7572    5.6729   -0.0530 C   0  0  0  0  0  0
   25.3982    3.9756    1.0170 O   0  0  0  0  0  0
   26.9550    4.9924   -1.3366 N   0  0  2  0  0  0
   28.0742    5.3732   -2.2019 C   0  0  0  0  0  0
   27.8619    4.5265   -3.4990 C   0  0  0  0  0  0
   29.0593    4.2322   -4.4122 C   0  0  0  0  0  0
   30.0997    5.1447   -4.6427 C   0  0  0  0  0  0
   31.1524    4.8155   -5.4933 C   0  0  0  0  0  0
   31.1732    3.5808   -6.1366 C   0  0  0  0  0  0
   30.1284    2.6685   -5.9431 C   0  0  0  0  0  0
   29.0842    3.0028   -5.0775 C   0  0  0  0  0  0
   27.9556    6.8853   -2.5063 C   0  0  0  0  0  0
   29.3797    5.0000   -1.4492 C   0  0  0  0  0  0
   26.4370    5.9104    4.6882 C   0  0  0  0  0  0
   26.0685    5.4237    3.4290 C   0  0  0  0  0  0
   25.3486    6.1654    5.7156 C   0  0  0  0  0  0
   24.8105    7.4574    5.5851 O   0  0  0  0  0  0
   30.1046    1.3241   -6.6570 C   0  0  0  0  0  0
   29.8079    0.3456   -5.8006 F   0  0  0  0  0  0
   29.1766    1.3493   -7.6146 F   0  0  0  0  0  0
   31.2802    1.0500   -7.2195 F   0  0  0  0  0  0
   29.7994    6.0747    4.1946 H   0  0  0  0  0  0
   29.1422    5.2014    2.0078 H   0  0  0  0  0  0
   27.5436    7.1951    6.6144 H   0  0  0  0  0  0
   27.4044    3.8500    0.8691 H   0  0  0  0  0  0
   27.5855    6.3466    0.1564 H   0  0  0  0  0  0
   25.8704    6.3067   -0.0882 H   0  0  0  0  0  0
   25.1939    3.8156    0.0895 H   0  0  0  0  0  0
   26.1039    4.9534   -1.8993 H   0  0  0  0  0  0
   27.0756    4.9707   -4.1135 H   0  0  0  0  0  0
   27.4604    3.5498   -3.2148 H   0  0  0  0  0  0
   30.1244    6.1116   -4.1729 H   0  0  0  0  0  0
   31.9483    5.5266   -5.6620 H   0  0  0  0  0  0
   31.9966    3.3494   -6.7967 H   0  0  0  0  0  0
   28.2785    2.2973   -4.9227 H   0  0  0  0  0  0
   28.6014    7.2162   -3.3139 H   0  0  0  0  0  0
   26.9406    7.1397   -2.8154 H   0  0  0  0  0  0
   28.2030    7.4892   -1.6348 H   0  0  0  0  0  0
   30.2757    5.2599   -2.0086 H   0  0  0  0  0  0
   29.4699    5.5074   -0.4905 H   0  0  0  0  0  0
   29.4191    3.9287   -1.2434 H   0  0  0  0  0  0
   25.0253    5.2415    3.2135 H   0  0  0  0  0  0
   24.5371    5.4497    5.5791 H   0  0  0  0  0  0
   25.7111    6.0190    6.7351 H   0  0  0  0  0  0
   25.4756    8.0931    5.8742 H   0  0  0  0  0  0
  1  2  1  0  0  0
  1  5  1  0  0  0
  1 20  2  0  0  0
  2  3  2  0  0  0
  2 28  1  0  0  0
  3  4  1  0  0  0
  3 29  1  0  0  0
  4  6  1  0  0  0
  4 21  2  0  0  0
  5 30  1  0  0  0
  6  7  1  0  0  0
  6  8  1  0  0  0
  6 31  1  0  0  0
  7  9  1  0  0  0
  7 32  1  0  0  0
  7 33  1  0  0  0
  8 34  1  0  0  0
  9 10  1  0  0  0
  9 35  1  0  0  0
 10 18  1  0  0  0
 10 19  1  0  0  0
 10 11  1  0  0  0
 11 12  1  0  0  0
 11 36  1  0  0  0
 11 37  1  0  0  0
 12 13  2  0  0  0
 12 17  1  0  0  0
 13 14  1  0  0  0
 13 38  1  0  0  0
 14 15  2  0  0  0
 14 39  1  0  0  0
 15 16  1  0  0  0
 15 40  1  0  0  0
 16 17  2  0  0  0
 16 24  1  0  0  0
 17 41  1  0  0  0
 18 42  1  0  0  0
 18 43  1  0  0  0
 18 44  1  0  0  0
 19 45  1  0  0  0
 19 46  1  0  0  0
 19 47  1  0  0  0
 20 21  1  0  0  0
 20 22  1  0  0  0
 21 48  1  0  0  0
 22 23  1  0  0  0
 22 49  1  0  0  0
 22 50  1  0  0  0
 23 51  1  0  0  0
 24 25  1  0  0  0
 24 26  1  0  0  0
 24 27  1  0  0  0
M  END
> <s_m_entry_id>
2930

> <s_m_entry_name>
dock_pv.22

> <s_m_Source_Path>
/home/csk/Desktop/cluster/DUD-E-result/adrb1

> <s_m_Source_File>
dock_pv.maegz

> <i_m_Source_File_Index>
22

> <chembl_id>
CHEMBL566352

> <chembl_pref_name>
None

> <i_lp_mmshare_version>
53161

> <i_f3d_flags>
0

> <r_lp_tautomer_probability>
0.999999999997365

> <s_lp_Force_Field>
OPLS_2005

> <r_lp_Energy>
28.187

> <b_lp_Chiralities_Consistent>
1

> <s_lp_Variant>
CHEMBL213_lig1011-1

> <s_i_glide_gridfile>
glide-grid_2vt4

> <i_i_glide_lignum>
1141

> <i_i_glide_rotatable_bonds>
11

> <r_i_docking_score>
-8.70756069731747

> <r_i_glide_ligand_efficiency>
-0.322502248048795

> <r_i_glide_ligand_efficiency_sa>
-0.967506743083471

> <r_i_glide_ligand_efficiency_ln>
-2.02697657497795

> <r_i_glide_gscore>
-8.70756069731747

> <r_i_glide_lipo>
-2.98620495090859

> <r_i_glide_hbond>
-0.770044189399577

> <r_i_glide_metal>
0

> <r_i_glide_rewards>
-2.30497356191038

> <r_i_glide_evdw>
-40.4985198974609

> <r_i_glide_ecoul>
-10.3116025924683

> <r_i_glide_erotb>
0.925328388644359

> <r_i_glide_esite>
0

> <r_i_glide_emodel>
-69.7233814313292

> <r_i_glide_energy>
-50.8101224899292

> <r_i_glide_einternal>
12.8032188415527

> <i_i_glide_confnum>
222

> <i_i_glide_posenum>
261

> <r_i_glide_eff_state_penalty>
0

> <s_user_duplicate_titles>
CHEMBL213_lig1011

> <s_m_subgroup_title>
dock_pv

> <s_m_subgroupid>
dock_pv

> <b_m_subgroup_collapsed>
1

$$$$
CHEMBL213_lig350
                    3D
 Schrodinger Suite 2021-1.
 67 71  0  0  1  0            999 V2000
   35.8302    6.5918    2.8572 S   0  0  0  0  0  0
   29.0010    5.8509    3.2800 N   0  0  0  0  0  0
   27.7390    5.9522    3.6692 C   0  0  0  0  0  0
   29.8379    6.5871    3.9753 C   0  0  0  0  0  0
   26.6610    5.2290    2.9105 C   0  0  0  0  0  0
   29.0880    7.4509    5.2705 S   0  0  0  0  0  0
   27.5687    6.7794    4.7851 C   0  0  0  0  0  0
   36.1831    5.2620    1.7190 N   0  0  0  0  0  0
   25.4081    4.9492    3.4825 C   0  0  0  0  0  0
   34.0679    6.5786    3.1914 C   0  0  0  0  0  0
   36.4941    6.2485    4.1189 O   0  0  0  0  0  0
   36.1642    7.8502    2.1930 O   0  0  0  0  0  0
   24.4559    4.2164    2.7728 C   0  0  0  0  0  0
   31.3132    6.6497    3.7121 C   0  0  0  0  0  0
   26.9001    4.8134    1.5874 C   0  0  0  0  0  0
   29.8128    3.1011   -5.2219 C   0  0  0  0  0  0
   28.3323    1.6831   -6.5294 N   0  0  0  0  0  0
   33.6055    6.9286    4.4608 C   0  0  0  0  0  0
   33.1530    6.2494    2.1934 C   0  0  0  0  0  0
   31.7911    6.2792    2.4511 C   0  0  0  0  0  0
   32.2357    6.9642    4.7180 C   0  0  0  0  0  0
   35.8566    5.2251    0.3552 C   0  0  0  0  0  0
   24.7252    3.7845    1.4765 C   0  0  0  0  0  0
   25.0832    5.3908    4.7208 F   0  0  0  0  0  0
   30.0612    3.9757   -3.9820 C   0  0  1  0  0  0
   25.9393    4.0975    0.8764 C   0  0  0  0  0  0
   32.5091    3.4083   -3.4467 N   0  0  2  0  0  0
   23.8082    3.0673    0.7973 F   0  0  0  0  0  0
   35.0521    4.9502   -2.3063 C   0  0  0  0  0  0
   28.6078    2.4083   -5.4155 C   0  0  0  0  0  0
   35.9662    3.9916   -0.2926 C   0  0  0  0  0  0
   35.3917    6.3346   -0.3568 C   0  0  0  0  0  0
   35.5691    3.8523   -1.6193 C   0  0  0  0  0  0
   34.9722    6.1910   -1.6719 C   0  0  0  0  0  0
   28.8901    4.2460   -3.2297 O   0  0  0  0  0  0
   31.1166    3.4113   -2.9890 C   0  0  0  0  0  0
   30.7793    3.0031   -6.2343 C   0  0  0  0  0  0
   29.2787    1.6196   -7.4955 C   0  0  0  0  0  0
   33.0064    4.7328   -3.8195 C   0  0  0  0  0  0
   34.5447    4.7983   -3.7346 C   0  0  0  0  0  0
   30.5169    2.2502   -7.3817 C   0  0  0  0  0  0
   26.6663    7.0506    5.3136 H   0  0  0  0  0  0
   36.4352    4.3769    2.1298 H   0  0  0  0  0  0
   23.4998    3.9943    3.2190 H   0  0  0  0  0  0
   27.8365    5.0373    1.0993 H   0  0  0  0  0  0
   34.3016    7.1869    5.2453 H   0  0  0  0  0  0
   33.4652    5.9666    1.2046 H   0  0  0  0  0  0
   31.1086    6.0124    1.6576 H   0  0  0  0  0  0
   31.8978    7.2333    5.7067 H   0  0  0  0  0  0
   30.3707    4.9604   -4.3341 H   0  0  0  0  0  0
   26.1360    3.7762   -0.1367 H   0  0  0  0  0  0
   32.6178    2.7628   -4.2167 H   0  0  0  0  0  0
   27.8098    2.4453   -4.6877 H   0  0  0  0  0  0
   36.3385    3.1227    0.2321 H   0  0  0  0  0  0
   35.2855    7.3070    0.0949 H   0  0  0  0  0  0
   35.6395    2.8870   -2.1016 H   0  0  0  0  0  0
   34.5618    7.0463   -2.1864 H   0  0  0  0  0  0
   28.6075    3.4189   -2.8151 H   0  0  0  0  0  0
   31.0938    3.9800   -2.0574 H   0  0  0  0  0  0
   30.8473    2.3899   -2.7176 H   0  0  0  0  0  0
   31.7188    3.5263   -6.1544 H   0  0  0  0  0  0
   29.0152    1.0553   -8.3790 H   0  0  0  0  0  0
   32.6587    5.0505   -4.8037 H   0  0  0  0  0  0
   32.6008    5.4598   -3.1148 H   0  0  0  0  0  0
   35.0032    3.9337   -4.2172 H   0  0  0  0  0  0
   34.9034    5.6535   -4.3124 H   0  0  0  0  0  0
   31.2468    2.1831   -8.1758 H   0  0  0  0  0  0
  1  8  1  0  0  0
  1 10  1  0  0  0
  1 11  2  0  0  0
  1 12  2  0  0  0
  2  4  2  0  0  0
  2  3  1  0  0  0
  3  5  1  0  0  0
  3  7  2  0  0  0
  4 14  1  0  0  0
  4  6  1  0  0  0
  5  9  2  0  0  0
  5 15  1  0  0  0
  6  7  1  0  0  0
  7 42  1  0  0  0
  8 22  1  0  0  0
  8 43  1  0  0  0
  9 13  1  0  0  0
  9 24  1  0  0  0
 10 18  1  0  0  0
 10 19  2  0  0  0
 13 23  2  0  0  0
 13 44  1  0  0  0
 14 20  2  0  0  0
 14 21  1  0  0  0
 15 26  2  0  0  0
 15 45  1  0  0  0
 16 25  1  0  0  0
 16 30  1  0  0  0
 16 37  2  0  0  0
 17 30  2  0  0  0
 17 38  1  0  0  0
 18 21  2  0  0  0
 18 46  1  0  0  0
 19 20  1  0  0  0
 19 47  1  0  0  0
 20 48  1  0  0  0
 21 49  1  0  0  0
 22 31  1  0  0  0
 22 32  2  0  0  0
 23 26  1  0  0  0
 23 28  1  0  0  0
 25 36  1  0  0  0
 25 35  1  0  0  0
 25 50  1  0  0  0
 26 51  1  0  0  0
 27 39  1  0  0  0
 27 36  1  0  0  0
 27 52  1  0  0  0
 29 34  2  0  0  0
 29 40  1  0  0  0
 29 33  1  0  0  0
 30 53  1  0  0  0
 31 33  2  0  0  0
 31 54  1  0  0  0
 32 34  1  0  0  0
 32 55  1  0  0  0
 33 56  1  0  0  0
 34 57  1  0  0  0
 35 58  1  0  0  0
 36 59  1  0  0  0
 36 60  1  0  0  0
 37 41  1  0  0  0
 37 61  1  0  0  0
 38 41  2  0  0  0
 38 62  1  0  0  0
 39 40  1  0  0  0
 39 63  1  0  0  0
 39 64  1  0  0  0
 40 65  1  0  0  0
 40 66  1  0  0  0
 41 67  1  0  0  0
M  END
> <s_m_entry_id>
2931

> <s_m_entry_name>
dock_pv.23

> <s_m_Source_Path>
/home/csk/Desktop/cluster/DUD-E-result/adrb1

> <s_m_Source_File>
dock_pv.maegz

> <i_m_Source_File_Index>
23

> <chembl_id>
CHEMBL338976

> <chembl_pref_name>
None

> <i_lp_mmshare_version>
53161

> <i_f3d_flags>
0

> <r_lp_tautomer_probability>
1

> <s_lp_Force_Field>
OPLS_2005

> <r_lp_Energy>
24.583601

> <b_lp_Chiralities_Consistent>
1

> <s_lp_Variant>
CHEMBL213_lig350-1

> <s_i_glide_gridfile>
glide-grid_2vt4

> <i_i_glide_lignum>
411

> <i_i_glide_rotatable_bonds>
12

> <r_i_docking_score>
-8.70250776693594

> <r_i_glide_ligand_efficiency>
-0.212256286998437

> <r_i_glide_ligand_efficiency_sa>
-0.731905787301642

> <r_i_glide_ligand_efficiency_ln>
-1.84626598337355

> <r_i_glide_gscore>
-8.70250776693594

> <r_i_glide_lipo>
-4.1815860454695

> <r_i_glide_hbond>
-0.32

> <r_i_glide_metal>
0

> <r_i_glide_rewards>
-0.730923233793112

> <r_i_glide_evdw>
-63.2388687133789

> <r_i_glide_ecoul>
-5.18379735946655

> <r_i_glide_erotb>
0.486156248314149

> <r_i_glide_esite>
-0.0166416963985422

> <r_i_glide_emodel>
-98.5038445231661

> <r_i_glide_energy>
-68.4226660728455

> <r_i_glide_einternal>
8.72634983062744

> <i_i_glide_confnum>
12

> <i_i_glide_posenum>
99

> <r_i_glide_eff_state_penalty>
0

> <s_user_duplicate_titles>
CHEMBL213_lig350

> <s_m_subgroup_title>
dock_pv

> <s_m_subgroupid>
dock_pv

> <b_m_subgroup_collapsed>
1

$$$$
CHEMBL213_lig1184
                    3D
 Schrodinger Suite 2021-1.
 68 70  0  0  1  0            999 V2000
   32.7153    6.1720    2.5607 C   0  0  0  0  0  0
   33.8831    6.1468    1.7823 C   0  0  0  0  0  0
   33.8255    5.8101    0.4218 C   0  0  0  0  0  0
   32.6064    5.4501   -0.1676 C   0  0  0  0  0  0
   31.4593    5.4500    0.6346 C   0  0  0  0  0  0
   31.5042    5.8239    1.9662 C   0  0  0  0  0  0
   32.5871    5.0515   -1.5338 N   0  0  0  0  0  0
   32.7746    6.5189    4.0526 C   0  0  0  0  0  0
   31.6106    7.3795    4.6088 C   0  0  0  0  0  0
   30.3715    6.6502    4.8528 N   0  0  1  0  0  0
   29.2232    7.5564    4.9132 C   0  0  0  0  0  0
   27.8637    6.8406    5.1055 C   0  0  1  0  0  0
   27.5466    5.7870    4.0353 C   0  0  0  0  0  0
   26.1900    5.3579    4.1769 O   0  0  0  0  0  0
   27.7957    6.2500    6.3854 O   0  0  0  0  0  0
   25.6021    4.6502    3.1493 C   0  0  0  0  0  0
   24.2789    4.2500    3.3101 C   0  0  0  0  0  0
   23.6244    3.5408    2.3074 C   0  0  0  0  0  0
   24.2729    3.2536    1.1099 C   0  0  0  0  0  0
   25.5964    3.6487    0.9274 C   0  0  0  0  0  0
   26.2547    4.3139    1.9595 C   0  0  0  0  0  0
   26.3438    3.2978   -0.3476 C   0  0  0  0  0  0
   26.6080    4.4359   -1.2149 N   0  0  0  0  0  0
   27.5177    5.3987   -1.0500 C   0  0  0  0  0  0
   27.6055    6.4617   -2.1369 C   0  0  0  0  0  0
   28.2633    5.4506   -0.0824 O   0  0  0  0  0  0
   31.6313    4.3398   -2.1955 C   0  0  0  0  0  0
   30.6084    3.8976   -1.6732 O   0  0  0  0  0  0
   31.8816    4.0623   -3.6925 C   0  0  0  0  0  0
   30.8777    3.0931   -4.3470 C   0  0  0  0  0  0
   29.8075    3.5790   -5.1042 C   0  0  0  0  0  0
   28.9094    2.6904   -5.7041 C   0  0  0  0  0  0
   29.0851    1.3225   -5.5749 C   0  0  0  0  0  0
   30.1339    0.8310   -4.8149 C   0  0  0  0  0  0
   31.0080    1.7123   -4.1728 C   0  0  0  0  0  0
   34.8358    6.4015    2.2218 H   0  0  0  0  0  0
   34.7361    5.8063   -0.1591 H   0  0  0  0  0  0
   30.5064    5.1673    0.2446 H   0  0  0  0  0  0
   30.5793    5.7976    2.5139 H   0  0  0  0  0  0
   33.4312    5.2549   -2.0459 H   0  0  0  0  0  0
   32.8897    5.6013    4.6300 H   0  0  0  0  0  0
   33.6901    7.0869    4.2227 H   0  0  0  0  0  0
   31.9250    7.8500    5.5391 H   0  0  0  0  0  0
   31.4098    8.1724    3.8847 H   0  0  0  0  0  0
   30.2650    5.8745    4.2098 H   0  0  0  0  0  0
   29.3620    8.2853    5.7124 H   0  0  0  0  0  0
   29.1820    8.1256    3.9849 H   0  0  0  0  0  0
   27.0775    7.5968    5.0676 H   0  0  0  0  0  0
   27.7076    6.2507    3.0603 H   0  0  0  0  0  0
   28.2233    4.9328    4.1069 H   0  0  0  0  0  0
   27.5138    6.9360    7.0017 H   0  0  0  0  0  0
   23.7579    4.4896    4.2250 H   0  0  0  0  0  0
   22.6081    3.2269    2.4535 H   0  0  0  0  0  0
   23.7524    2.7230    0.3254 H   0  0  0  0  0  0
   27.2960    4.5460    1.8355 H   0  0  0  0  0  0
   27.2806    2.7955   -0.1083 H   0  0  0  0  0  0
   25.7509    2.5889   -0.9218 H   0  0  0  0  0  0
   26.0107    4.4864   -2.0415 H   0  0  0  0  0  0
   26.6786    6.5278   -2.7076 H   0  0  0  0  0  0
   27.8081    7.4365   -1.6923 H   0  0  0  0  0  0
   28.4182    6.2207   -2.8220 H   0  0  0  0  0  0
   32.8881    3.6619   -3.8147 H   0  0  0  0  0  0
   31.8547    5.0177   -4.2179 H   0  0  0  0  0  0
   29.6642    4.6441   -5.2149 H   0  0  0  0  0  0
   28.0630    3.0499   -6.2675 H   0  0  0  0  0  0
   28.3858    0.6403   -6.0362 H   0  0  0  0  0  0
   30.2094   -0.2376   -4.6950 H   0  0  0  0  0  0
   31.8049    1.3223   -3.5574 H   0  0  0  0  0  0
  1  2  2  0  0  0
  1  6  1  0  0  0
  1  8  1  0  0  0
  2  3  1  0  0  0
  2 36  1  0  0  0
  3  4  2  0  0  0
  3 37  1  0  0  0
  4  5  1  0  0  0
  4  7  1  0  0  0
  5  6  2  0  0  0
  5 38  1  0  0  0
  6 39  1  0  0  0
  7 27  1  0  0  0
  7 40  1  0  0  0
  8  9  1  0  0  0
  8 41  1  0  0  0
  8 42  1  0  0  0
  9 10  1  0  0  0
  9 43  1  0  0  0
  9 44  1  0  0  0
 10 11  1  0  0  0
 10 45  1  0  0  0
 11 12  1  0  0  0
 11 46  1  0  0  0
 11 47  1  0  0  0
 12 13  1  0  0  0
 12 15  1  0  0  0
 12 48  1  0  0  0
 13 14  1  0  0  0
 13 49  1  0  0  0
 13 50  1  0  0  0
 14 16  1  0  0  0
 15 51  1  0  0  0
 16 17  2  0  0  0
 16 21  1  0  0  0
 17 18  1  0  0  0
 17 52  1  0  0  0
 18 19  2  0  0  0
 18 53  1  0  0  0
 19 20  1  0  0  0
 19 54  1  0  0  0
 20 21  2  0  0  0
 20 22  1  0  0  0
 21 55  1  0  0  0
 22 23  1  0  0  0
 22 56  1  0  0  0
 22 57  1  0  0  0
 23 24  1  0  0  0
 23 58  1  0  0  0
 24 25  1  0  0  0
 24 26  2  0  0  0
 25 59  1  0  0  0
 25 60  1  0  0  0
 25 61  1  0  0  0
 27 28  2  0  0  0
 27 29  1  0  0  0
 29 30  1  0  0  0
 29 62  1  0  0  0
 29 63  1  0  0  0
 30 31  2  0  0  0
 30 35  1  0  0  0
 31 32  1  0  0  0
 31 64  1  0  0  0
 32 33  2  0  0  0
 32 65  1  0  0  0
 33 34  1  0  0  0
 33 66  1  0  0  0
 34 35  2  0  0  0
 34 67  1  0  0  0
 35 68  1  0  0  0
M  END
> <s_m_entry_id>
2932

> <s_m_entry_name>
dock_pv.24

> <s_m_Source_Path>
/home/csk/Desktop/cluster/DUD-E-result/adrb1

> <s_m_Source_File>
dock_pv.maegz

> <i_m_Source_File_Index>
24

> <chembl_id>
CHEMBL4244929

> <chembl_pref_name>
None

> <i_lp_mmshare_version>
53161

> <i_f3d_flags>
0

> <r_lp_tautomer_probability>
1

> <s_lp_Force_Field>
OPLS_2005

> <r_lp_Energy>
30.055849

> <b_lp_Chiralities_Consistent>
1

> <s_lp_Variant>
CHEMBL213_lig1184-1

> <s_i_glide_gridfile>
glide-grid_2vt4

> <i_i_glide_lignum>
1386

> <i_i_glide_rotatable_bonds>
16

> <r_i_docking_score>
-8.67296690771591

> <r_i_glide_ligand_efficiency>
-0.247799054506169

> <r_i_glide_ligand_efficiency_sa>
-0.810567137931099

> <r_i_glide_ligand_efficiency_ln>
-1.90390872237328

> <r_i_glide_gscore>
-8.67296690771591

> <r_i_glide_lipo>
-4.02481593386848

> <r_i_glide_hbond>
-0.387583710998094

> <r_i_glide_metal>
0

> <r_i_glide_rewards>
-1.83107922695024

> <r_i_glide_evdw>
-44.5302200317383

> <r_i_glide_ecoul>
-8.56330680847168

> <r_i_glide_erotb>
1.16353993391373

> <r_i_glide_esite>
-0.0820209469551538

> <r_i_glide_emodel>
-80.4914262826092

> <r_i_glide_energy>
-53.09352684021

> <r_i_glide_einternal>
9.86527919769287

> <i_i_glide_confnum>
24

> <i_i_glide_posenum>
42

> <r_i_glide_eff_state_penalty>
0

> <s_user_duplicate_titles>
CHEMBL213_lig1184

> <s_m_subgroup_title>
dock_pv

> <s_m_subgroupid>
dock_pv

> <b_m_subgroup_collapsed>
1

$$$$
CHEMBL213_lig1053
                    3D
 Schrodinger Suite 2021-1.
 70 71  0  0  1  0            999 V2000
   26.2219    4.2731    0.6653 C   0  0  0  0  0  0
   25.1232    3.4425    0.9279 C   0  0  0  0  0  0
   24.5290    3.4452    2.1863 C   0  0  0  0  0  0
   25.0204    4.2699    3.1932 C   0  0  0  0  0  0
   26.1207    5.1043    2.9624 C   0  0  0  0  0  0
   26.7087    5.0966    1.6886 C   0  0  0  0  0  0
   26.9175    4.2948   -0.6929 C   0  0  0  0  0  0
   26.6080    5.4485   -1.4483 O   0  0  0  0  0  0
   24.6085    2.5980   -0.0149 O   0  0  0  0  0  0
   26.6600    6.0686    4.0313 C   0  0  2  0  0  0
   28.1444    5.8092    4.4005 C   0  0  0  0  0  0
   25.8910    6.1153    5.2247 O   0  0  0  0  0  0
   28.8186    7.0665    4.7525 N   0  0  2  0  0  0
   30.2825    7.0378    4.7102 C   0  0  0  0  0  0
   30.8315    6.9041    3.2757 C   0  0  0  0  0  0
   32.3328    6.5690    3.1848 C   0  0  0  0  0  0
   32.7443    6.0763    1.7779 C   0  0  0  0  0  0
   34.2628    6.1716    1.5185 C   0  0  0  0  0  0
   34.6560    6.0572    0.0340 C   0  0  0  0  0  0
   34.2153    4.8092   -0.4799 O   0  0  0  0  0  0
   34.5938    4.5214   -1.8234 C   0  0  0  0  0  0
   33.8430    5.3570   -2.8791 C   0  0  0  0  0  0
   32.4353    5.1946   -2.7161 O   0  0  0  0  0  0
   31.6118    5.5993   -3.8066 C   0  0  0  0  0  0
   31.6763    4.6080   -4.9619 C   0  0  0  0  0  0
   32.5886    4.7597   -6.0130 C   0  0  0  0  0  0
   32.6137    3.8341   -7.0587 C   0  0  0  0  0  0
   31.7015    2.7766   -7.0851 C   0  0  0  0  0  0
   30.7804    2.6338   -6.0460 C   0  0  0  0  0  0
   30.7887    3.5325   -4.9778 C   0  0  0  0  0  0
   29.5869    1.3110   -6.0514 S   0  0  0  0  0  0
   29.2009    1.0527   -7.4431 O   0  0  0  0  0  0
   30.1445    0.2527   -5.2121 O   0  0  0  0  0  0
   28.2085    1.9639   -5.2127 N   0  0  0  0  0  0
   23.6838    2.8019    2.3843 H   0  0  0  0  0  0
   24.5338    4.2522    4.1576 H   0  0  0  0  0  0
   27.5448    5.7509    1.4808 H   0  0  0  0  0  0
   27.9977    4.2582   -0.5436 H   0  0  0  0  0  0
   26.6695    3.4134   -1.2845 H   0  0  0  0  0  0
   25.9800    5.1824   -2.1392 H   0  0  0  0  0  0
   24.1044    3.0449   -0.7163 H   0  0  0  0  0  0
   26.5771    7.0496    3.5628 H   0  0  0  0  0  0
   28.2133    5.0869    5.2175 H   0  0  0  0  0  0
   28.6373    5.3349    3.5545 H   0  0  0  0  0  0
   25.0856    6.6068    5.0478 H   0  0  0  0  0  0
   28.4641    7.4267    5.6305 H   0  0  0  0  0  0
   30.6622    7.9650    5.1437 H   0  0  0  0  0  0
   30.6699    6.2495    5.3438 H   0  0  0  0  0  0
   30.2982    6.1371    2.7179 H   0  0  0  0  0  0
   30.6430    7.8480    2.7662 H   0  0  0  0  0  0
   32.9020    7.4601    3.4539 H   0  0  0  0  0  0
   32.6028    5.8083    3.9175 H   0  0  0  0  0  0
   32.4050    5.0510    1.6117 H   0  0  0  0  0  0
   32.2072    6.6494    1.0240 H   0  0  0  0  0  0
   34.6333    7.1293    1.8874 H   0  0  0  0  0  0
   34.7781    5.4042    2.0958 H   0  0  0  0  0  0
   34.2230    6.8818   -0.5316 H   0  0  0  0  0  0
   35.7408    6.1355   -0.0604 H   0  0  0  0  0  0
   35.6745    4.6233   -1.9437 H   0  0  0  0  0  0
   34.3740    3.4668   -1.9965 H   0  0  0  0  0  0
   34.1025    6.4103   -2.7939 H   0  0  0  0  0  0
   34.1801    5.0280   -3.8604 H   0  0  0  0  0  0
   30.5850    5.6265   -3.4376 H   0  0  0  0  0  0
   31.8080    6.6146   -4.1406 H   0  0  0  0  0  0
   33.2806    5.5911   -6.0244 H   0  0  0  0  0  0
   33.3247    3.9555   -7.8634 H   0  0  0  0  0  0
   31.7097    2.0766   -7.9093 H   0  0  0  0  0  0
   30.0920    3.4128   -4.1607 H   0  0  0  0  0  0
   27.2951    1.8957   -5.6749 H   0  0  0  0  0  0
   28.1811    1.8075   -4.2006 H   0  0  0  0  0  0
  1  6  1  0  0  0
  1  2  2  0  0  0
  1  7  1  0  0  0
  2  9  1  0  0  0
  2  3  1  0  0  0
  3  4  2  0  0  0
  3 35  1  0  0  0
  4  5  1  0  0  0
  4 36  1  0  0  0
  5 10  1  0  0  0
  5  6  2  0  0  0
  6 37  1  0  0  0
  7  8  1  0  0  0
  7 38  1  0  0  0
  7 39  1  0  0  0
  8 40  1  0  0  0
  9 41  1  0  0  0
 10 11  1  0  0  0
 10 12  1  0  0  0
 10 42  1  0  0  0
 11 13  1  0  0  0
 11 43  1  0  0  0
 11 44  1  0  0  0
 12 45  1  0  0  0
 13 14  1  0  0  0
 13 46  1  0  0  0
 14 15  1  0  0  0
 14 47  1  0  0  0
 14 48  1  0  0  0
 15 16  1  0  0  0
 15 49  1  0  0  0
 15 50  1  0  0  0
 16 17  1  0  0  0
 16 51  1  0  0  0
 16 52  1  0  0  0
 17 18  1  0  0  0
 17 53  1  0  0  0
 17 54  1  0  0  0
 18 19  1  0  0  0
 18 55  1  0  0  0
 18 56  1  0  0  0
 19 20  1  0  0  0
 19 57  1  0  0  0
 19 58  1  0  0  0
 20 21  1  0  0  0
 21 22  1  0  0  0
 21 59  1  0  0  0
 21 60  1  0  0  0
 22 23  1  0  0  0
 22 61  1  0  0  0
 22 62  1  0  0  0
 23 24  1  0  0  0
 24 25  1  0  0  0
 24 63  1  0  0  0
 24 64  1  0  0  0
 25 26  2  0  0  0
 25 30  1  0  0  0
 26 27  1  0  0  0
 26 65  1  0  0  0
 27 28  2  0  0  0
 27 66  1  0  0  0
 28 29  1  0  0  0
 28 67  1  0  0  0
 29 30  2  0  0  0
 29 31  1  0  0  0
 30 68  1  0  0  0
 31 32  2  0  0  0
 31 33  2  0  0  0
 31 34  1  0  0  0
 34 69  1  0  0  0
 34 70  1  0  0  0
M  END
> <s_m_entry_id>
2933

> <s_m_entry_name>
dock_pv.25

> <s_m_Source_Path>
/home/csk/Desktop/cluster/DUD-E-result/adrb1

> <s_m_Source_File>
dock_pv.maegz

> <i_m_Source_File_Index>
25

> <chembl_id>
CHEMBL1084656

> <chembl_pref_name>
None

> <i_lp_mmshare_version>
53161

> <i_f3d_flags>
0

> <r_lp_tautomer_probability>
0.999999999997365

> <s_lp_Force_Field>
OPLS_2005

> <r_lp_Energy>
29.989626

> <b_lp_Chiralities_Consistent>
1

> <s_lp_Variant>
CHEMBL213_lig1053-1

> <s_i_glide_gridfile>
glide-grid_2vt4

> <i_i_glide_lignum>
1221

> <i_i_glide_rotatable_bonds>
20

> <r_i_docking_score>
-8.6388340134542

> <r_i_glide_ligand_efficiency>
-0.254083353336888

> <r_i_glide_ligand_efficiency_sa>
-0.823131429010787

> <r_i_glide_ligand_efficiency_ln>
-1.90856074465849

> <r_i_glide_gscore>
-8.6388340134542

> <r_i_glide_lipo>
-3.8146030307361

> <r_i_glide_hbond>
-0.857551602974294

> <r_i_glide_metal>
0

> <r_i_glide_rewards>
-0.343452733780075

> <r_i_glide_evdw>
-54.9848785400391

> <r_i_glide_ecoul>
-14.2308549880981

> <r_i_glide_erotb>
1.32302336770688

> <r_i_glide_esite>
-0.0623778384539393

> <r_i_glide_emodel>
-95.5602933902821

> <r_i_glide_energy>
-69.2157335281372

> <r_i_glide_einternal>
16.7796497344971

> <i_i_glide_confnum>
41

> <i_i_glide_posenum>
338

> <r_i_glide_eff_state_penalty>
0

> <s_user_duplicate_titles>
CHEMBL213_lig1053,631657

> <s_m_subgroup_title>
dock_pv

> <s_m_subgroupid>
dock_pv

> <b_m_subgroup_collapsed>
1

$$$$
CHEMBL213_lig830
                    3D
 Schrodinger Suite 2021-1.
 68 71  0  0  1  0            999 V2000
   26.2362    4.6502    1.0941 C   0  0  0  0  0  0
   25.1249    3.8432    1.3171 C   0  0  0  0  0  0
   24.5133    3.8387    2.5663 C   0  0  0  0  0  0
   25.0066    4.6501    3.5865 C   0  0  0  0  0  0
   26.1089    5.4925    3.3780 C   0  0  0  0  0  0
   26.7337    5.4595    2.1201 C   0  0  0  0  0  0
   26.5970    6.4782    4.4663 C   0  0  2  0  0  0
   27.9013    6.0603    5.1856 C   0  0  0  0  0  0
   25.6387    6.7314    5.4832 O   0  0  0  0  0  0
   29.0140    5.8495    4.2689 N   0  0  1  0  0  0
   29.9358    6.9518    4.0094 C   0  0  0  0  0  0
   31.1100    6.4627    3.1179 C   0  0  0  0  0  0
   26.9500    4.6866   -0.4727 Cl  0  0  0  0  0  0
   30.6086    5.6235    2.0766 O   0  0  0  0  0  0
   31.3089    5.4522    0.9055 C   0  0  0  0  0  0
   30.5507    5.0500   -0.1847 C   0  0  0  0  0  0
   31.1370    4.8504   -1.4269 C   0  0  0  0  0  0
   32.5218    4.9988   -1.6015 C   0  0  0  0  0  0
   33.2773    5.4499   -0.5012 C   0  0  0  0  0  0
   32.6781    5.6766    0.7401 C   0  0  0  0  0  0
   33.1570    4.6545   -2.9189 C   0  0  0  0  0  0
   34.4187    5.1327   -3.2846 C   0  0  0  0  0  0
   34.9775    4.8174   -4.5208 C   0  0  0  0  0  0
   34.2568    4.0847   -5.4731 C   0  0  0  0  0  0
   32.9712    3.6107   -5.1393 C   0  0  0  0  0  0
   32.4933    3.8313   -3.8401 C   0  0  0  0  0  0
   34.8989    3.7451   -6.8004 C   0  0  0  0  0  0
   34.6335    2.7157   -7.4176 O   0  0  0  0  0  0
   35.8164    4.6510   -7.2512 O   0  0  0  0  0  0
   32.2231    2.9685   -6.1145 O   0  0  0  0  0  0
   30.8896    2.4908   -5.8967 C   0  0  0  0  0  0
   29.8355    3.5909   -5.5965 C   0  0  0  0  0  0
   28.4252    2.9770   -5.4690 C   0  0  0  0  0  0
   28.0331    2.2701   -6.7799 C   0  0  0  0  0  0
   29.0577    1.1782   -7.1444 C   0  0  0  0  0  0
   30.4977    1.7416   -7.1940 C   0  0  0  0  0  0
   24.7327    3.2297    0.5183 H   0  0  0  0  0  0
   23.6463    3.2171    2.7355 H   0  0  0  0  0  0
   24.4955    4.6523    4.5383 H   0  0  0  0  0  0
   27.5859    6.0939    1.9249 H   0  0  0  0  0  0
   26.7470    7.4432    3.9850 H   0  0  0  0  0  0
   27.7168    5.1079    5.6869 H   0  0  0  0  0  0
   28.1821    6.7772    5.9578 H   0  0  0  0  0  0
   26.0152    7.3530    6.1190 H   0  0  0  0  0  0
   29.5131    4.9710    4.3851 H   0  0  0  0  0  0
   30.3306    7.3467    4.9466 H   0  0  0  0  0  0
   29.4085    7.7646    3.5179 H   0  0  0  0  0  0
   31.8340    5.8997    3.7059 H   0  0  0  0  0  0
   31.6281    7.3342    2.7137 H   0  0  0  0  0  0
   29.4952    4.8949   -0.0599 H   0  0  0  0  0  0
   30.4879    4.5537   -2.2349 H   0  0  0  0  0  0
   34.3438    5.5862   -0.5791 H   0  0  0  0  0  0
   33.2855    6.0000    1.5708 H   0  0  0  0  0  0
   34.9953    5.7537   -2.6160 H   0  0  0  0  0  0
   35.9790    5.1701   -4.7273 H   0  0  0  0  0  0
   31.5731    3.3624   -3.5453 H   0  0  0  0  0  0
   35.7903    5.5136   -6.8155 H   0  0  0  0  0  0
   30.9132    1.7682   -5.0785 H   0  0  0  0  0  0
   29.8272    4.3053   -6.4154 H   0  0  0  0  0  0
   30.0347    4.1564   -4.6902 H   0  0  0  0  0  0
   27.6872    3.7392   -5.2151 H   0  0  0  0  0  0
   28.4024    2.2617   -4.6452 H   0  0  0  0  0  0
   27.9916    3.0131   -7.5826 H   0  0  0  0  0  0
   27.0229    1.8630   -6.7092 H   0  0  0  0  0  0
   28.7960    0.7449   -8.1102 H   0  0  0  0  0  0
   29.0014    0.3704   -6.4123 H   0  0  0  0  0  0
   31.1921    0.9212   -7.3714 H   0  0  0  0  0  0
   30.5567    2.4285   -8.0405 H   0  0  0  0  0  0
  1  6  1  0  0  0
  1 13  1  0  0  0
  1  2  2  0  0  0
  2  3  1  0  0  0
  2 37  1  0  0  0
  3  4  2  0  0  0
  3 38  1  0  0  0
  4  5  1  0  0  0
  4 39  1  0  0  0
  5  6  2  0  0  0
  5  7  1  0  0  0
  6 40  1  0  0  0
  7  9  1  0  0  0
  7  8  1  0  0  0
  7 41  1  0  0  0
  8 10  1  0  0  0
  8 42  1  0  0  0
  8 43  1  0  0  0
  9 44  1  0  0  0
 10 11  1  0  0  0
 10 45  1  0  0  0
 11 12  1  0  0  0
 11 46  1  0  0  0
 11 47  1  0  0  0
 12 14  1  0  0  0
 12 48  1  0  0  0
 12 49  1  0  0  0
 14 15  1  0  0  0
 15 20  1  0  0  0
 15 16  2  0  0  0
 16 17  1  0  0  0
 16 50  1  0  0  0
 17 18  2  0  0  0
 17 51  1  0  0  0
 18 19  1  0  0  0
 18 21  1  0  0  0
 19 20  2  0  0  0
 19 52  1  0  0  0
 20 53  1  0  0  0
 21 22  2  0  0  0
 21 26  1  0  0  0
 22 23  1  0  0  0
 22 54  1  0  0  0
 23 24  2  0  0  0
 23 55  1  0  0  0
 24 25  1  0  0  0
 24 27  1  0  0  0
 25 26  2  0  0  0
 25 30  1  0  0  0
 26 56  1  0  0  0
 27 28  2  0  0  0
 27 29  1  0  0  0
 29 57  1  0  0  0
 30 31  1  0  0  0
 31 32  1  0  0  0
 31 36  1  0  0  0
 31 58  1  0  0  0
 32 33  1  0  0  0
 32 59  1  0  0  0
 32 60  1  0  0  0
 33 34  1  0  0  0
 33 61  1  0  0  0
 33 62  1  0  0  0
 34 35  1  0  0  0
 34 63  1  0  0  0
 34 64  1  0  0  0
 35 36  1  0  0  0
 35 65  1  0  0  0
 35 66  1  0  0  0
 36 67  1  0  0  0
 36 68  1  0  0  0
M  END
> <s_m_entry_id>
2934

> <s_m_entry_name>
dock_pv.26

> <s_m_Source_Path>
/home/csk/Desktop/cluster/DUD-E-result/adrb1

> <s_m_Source_File>
dock_pv.maegz

> <i_m_Source_File_Index>
26

> <chembl_id>
CHEMBL461301

> <chembl_pref_name>
None

> <i_lp_mmshare_version>
53161

> <i_f3d_flags>
0

> <r_lp_tautomer_probability>
1

> <s_lp_Force_Field>
OPLS_2005

> <r_lp_Energy>
49.129994

> <b_lp_Chiralities_Consistent>
1

> <s_lp_Variant>
CHEMBL213_lig830-1

> <s_i_glide_gridfile>
glide-grid_2vt4

> <i_i_glide_lignum>
938

> <i_i_glide_rotatable_bonds>
13

> <r_i_docking_score>
-8.63868487009148

> <r_i_glide_ligand_efficiency>
-0.239963468613652

> <r_i_glide_ligand_efficiency_sa>
-0.792341914808232

> <r_i_glide_ligand_efficiency_ln>
-1.88472764836034

> <r_i_glide_gscore>
-8.63868487009148

> <r_i_glide_lipo>
-4.32268035458752

> <r_i_glide_hbond>
-0.586138331448789

> <r_i_glide_metal>
0

> <r_i_glide_rewards>
-0.804724966072822

> <r_i_glide_evdw>
-46.2756843566895

> <r_i_glide_ecoul>
-9.12646770477295

> <r_i_glide_erotb>
0.787469213810574

> <r_i_glide_esite>
-0.0298560582425133

> <r_i_glide_emodel>
-78.3624054541089

> <r_i_glide_energy>
-55.4021520614624

> <r_i_glide_einternal>
14.9747171401978

> <i_i_glide_confnum>
28

> <i_i_glide_posenum>
209

> <r_i_glide_eff_state_penalty>
0

> <s_user_duplicate_titles>
CHEMBL213_lig830

> <s_m_subgroup_title>
dock_pv

> <s_m_subgroupid>
dock_pv

> <b_m_subgroup_collapsed>
1

$$$$
CHEMBL213_lig940
                    3D
 Schrodinger Suite 2021-1.
 59 61  0  0  1  0            999 V2000
   26.2104    3.8161    0.3821 C   0  0  0  0  0  0
   25.0414    3.0885    0.5723 C   0  0  0  0  0  0
   24.3149    3.2111    1.7537 C   0  0  0  0  0  0
   24.7684    4.0573    2.7597 C   0  0  0  0  0  0
   25.9599    4.7614    2.6003 C   0  0  0  0  0  0
   26.6717    4.6516    1.3949 C   0  0  0  0  0  0
   24.6081    2.2501   -0.4149 O   0  0  0  0  0  0
   26.3444    5.5589    3.6561 O   0  0  0  0  0  0
   27.7296    5.8536    3.8156 C   0  0  0  0  0  0
   27.9220    6.8379    4.9878 C   0  0  2  0  0  0
   29.3589    7.4009    5.1491 C   0  0  0  0  0  0
   30.4270    6.6501    4.4867 N   0  0  1  0  0  0
   31.6871    7.3739    4.5769 C   0  0  0  0  0  0
   32.9354    6.5152    4.2851 C   0  0  0  0  0  0
   33.2641    6.2244    2.8201 C   0  0  0  0  0  0
   32.2704    5.8840    1.8960 C   0  0  0  0  0  0
   32.6135    5.5720    0.5812 C   0  0  0  0  0  0
   33.9585    5.5844    0.1822 C   0  0  0  0  0  0
   34.9500    5.9047    1.1093 C   0  0  0  0  0  0
   34.6034    6.2320    2.4172 C   0  0  0  0  0  0
   34.3897    5.2248   -1.1061 N   0  0  0  0  0  0
   33.7106    5.3107   -2.2681 C   0  0  0  0  0  0
   34.4397    4.7362   -3.4954 C   0  0  0  0  0  0
   32.6092    5.8499   -2.3930 O   0  0  0  0  0  0
   33.5331    4.2909   -4.6474 C   0  0  0  0  0  0
   32.4126    3.4747   -4.4268 C   0  0  0  0  0  0
   31.6241    3.0502   -5.4977 C   0  0  0  0  0  0
   31.9654    3.4161   -6.7990 C   0  0  0  0  0  0
   33.0875    4.2119   -7.0297 C   0  0  0  0  0  0
   33.8677    4.6456   -5.9587 C   0  0  0  0  0  0
   27.5165    6.2479    6.2133 O   0  0  0  0  0  0
   30.2406    2.0542   -5.2188 Cl  0  0  0  0  0  0
   26.7623    3.7224   -0.5430 H   0  0  0  0  0  0
   23.4078    2.6508    1.8996 H   0  0  0  0  0  0
   24.2056    4.1596    3.6751 H   0  0  0  0  0  0
   27.5826    5.2004    1.2186 H   0  0  0  0  0  0
   24.0020    2.7004   -1.0375 H   0  0  0  0  0  0
   28.1373    6.3195    2.9196 H   0  0  0  0  0  0
   28.2903    4.9320    3.9852 H   0  0  0  0  0  0
   27.2460    7.6795    4.8238 H   0  0  0  0  0  0
   29.5914    7.4501    6.2111 H   0  0  0  0  0  0
   29.3715    8.4249    4.7718 H   0  0  0  0  0  0
   30.5395    5.6817    4.7837 H   0  0  0  0  0  0
   31.8105    7.8495    5.5524 H   0  0  0  0  0  0
   31.6324    8.1687    3.8312 H   0  0  0  0  0  0
   32.9011    5.5765    4.8371 H   0  0  0  0  0  0
   33.7791    7.0607    4.7103 H   0  0  0  0  0  0
   31.2321    5.8458    2.1861 H   0  0  0  0  0  0
   31.8280    5.2996   -0.1076 H   0  0  0  0  0  0
   35.9918    5.9047    0.8223 H   0  0  0  0  0  0
   35.3841    6.4786    3.1210 H   0  0  0  0  0  0
   35.3444    4.9024   -1.1635 H   0  0  0  0  0  0
   35.0545    3.8840   -3.2020 H   0  0  0  0  0  0
   35.1337    5.5006   -3.8497 H   0  0  0  0  0  0
   32.1462    3.1738   -3.4240 H   0  0  0  0  0  0
   31.3614    3.0821   -7.6292 H   0  0  0  0  0  0
   33.3540    4.4954   -8.0373 H   0  0  0  0  0  0
   34.7378    5.2564   -6.1545 H   0  0  0  0  0  0
   27.1532    6.9427    6.7796 H   0  0  0  0  0  0
  1  6  1  0  0  0
  1  2  2  0  0  0
  1 33  1  0  0  0
  2  3  1  0  0  0
  2  7  1  0  0  0
  3  4  2  0  0  0
  3 34  1  0  0  0
  4  5  1  0  0  0
  4 35  1  0  0  0
  5  8  1  0  0  0
  5  6  2  0  0  0
  6 36  1  0  0  0
  7 37  1  0  0  0
  8  9  1  0  0  0
  9 10  1  0  0  0
  9 38  1  0  0  0
  9 39  1  0  0  0
 10 11  1  0  0  0
 10 31  1  0  0  0
 10 40  1  0  0  0
 11 12  1  0  0  0
 11 41  1  0  0  0
 11 42  1  0  0  0
 12 13  1  0  0  0
 12 43  1  0  0  0
 13 14  1  0  0  0
 13 44  1  0  0  0
 13 45  1  0  0  0
 14 15  1  0  0  0
 14 46  1  0  0  0
 14 47  1  0  0  0
 15 16  2  0  0  0
 15 20  1  0  0  0
 16 17  1  0  0  0
 16 48  1  0  0  0
 17 18  2  0  0  0
 17 49  1  0  0  0
 18 19  1  0  0  0
 18 21  1  0  0  0
 19 20  2  0  0  0
 19 50  1  0  0  0
 20 51  1  0  0  0
 21 22  1  0  0  0
 21 52  1  0  0  0
 22 23  1  0  0  0
 22 24  2  0  0  0
 23 25  1  0  0  0
 23 53  1  0  0  0
 23 54  1  0  0  0
 25 26  2  0  0  0
 25 30  1  0  0  0
 26 27  1  0  0  0
 26 55  1  0  0  0
 27 28  2  0  0  0
 27 32  1  0  0  0
 28 29  1  0  0  0
 28 56  1  0  0  0
 29 30  2  0  0  0
 29 57  1  0  0  0
 30 58  1  0  0  0
 31 59  1  0  0  0
M  END
> <s_m_entry_id>
2935

> <s_m_entry_name>
dock_pv.27

> <s_m_Source_Path>
/home/csk/Desktop/cluster/DUD-E-result/adrb1

> <s_m_Source_File>
dock_pv.maegz

> <i_m_Source_File_Index>
27

> <chembl_id>
CHEMBL561348

> <chembl_pref_name>
None

> <i_lp_mmshare_version>
53161

> <i_f3d_flags>
0

> <r_lp_tautomer_probability>
0.999999999999998

> <s_lp_Force_Field>
OPLS_2005

> <r_lp_Energy>
28.035575

> <b_lp_Chiralities_Consistent>
1

> <s_lp_Variant>
CHEMBL213_lig940-1

> <s_i_glide_gridfile>
glide-grid_2vt4

> <i_i_glide_lignum>
1051

> <i_i_glide_rotatable_bonds>
14

> <r_i_docking_score>
-8.61934574657628

> <r_i_glide_ligand_efficiency>
-0.269354554580509

> <r_i_glide_ligand_efficiency_sa>
-0.855147405599146

> <r_i_glide_ligand_efficiency_ln>
-1.93010646714968

> <r_i_glide_gscore>
-8.61934574657628

> <r_i_glide_lipo>
-3.65954023958551

> <r_i_glide_hbond>
-1.06247489395528

> <r_i_glide_metal>
0

> <r_i_glide_rewards>
-0.483806472741008

> <r_i_glide_evdw>
-44.6637763977051

> <r_i_glide_ecoul>
-14.985258102417

> <r_i_glide_erotb>
1.06745339495333

> <r_i_glide_esite>
0

> <r_i_glide_emodel>
-82.7169762174663

> <r_i_glide_energy>
-59.6490345001221

> <r_i_glide_einternal>
21.3766098022461

> <i_i_glide_confnum>
51

> <i_i_glide_posenum>
101

> <r_i_glide_eff_state_penalty>
0

> <s_user_duplicate_titles>
CHEMBL213_lig940,557691

> <s_m_subgroup_title>
dock_pv

> <s_m_subgroupid>
dock_pv

> <b_m_subgroup_collapsed>
1

$$$$
CHEMBL213_lig672
                    3D
 Schrodinger Suite 2021-1.
 55 57  0  0  1  0            999 V2000
   34.1825    4.6580   -4.7154 C   0  0  0  0  0  0
   34.3578    5.1059   -3.4067 C   0  0  0  0  0  0
   33.3627    4.8825   -2.4558 C   0  0  0  0  0  0
   32.1977    4.2002   -2.8107 C   0  0  0  0  0  0
   32.0098    3.7499   -4.1239 C   0  0  0  0  0  0
   33.0121    3.9896   -5.0736 C   0  0  0  0  0  0
   33.5718    5.4528   -0.8423 Cl  0  0  0  0  0  0
   30.7463    2.9833   -4.5219 C   0  0  2  0  0  0
   29.4365    3.8252   -4.5061 C   0  0  0  0  0  0
   30.6090    1.7699   -3.8035 O   0  0  0  0  0  0
   29.0000    4.2489   -3.1748 N   0  0  1  0  0  0
   27.9286    5.2392   -3.2493 C   0  0  0  0  0  0
   27.4654    5.5894   -1.8239 C   0  0  0  0  0  0
   26.6133    4.5641   -1.2147 N   0  0  0  0  0  0
   26.3191    4.5734    0.1599 C   0  0  0  0  0  0
   27.1134    5.2472    1.0917 C   0  0  0  0  0  0
   26.9003    5.1433    2.4732 C   0  0  0  0  0  0
   25.7961    4.3999    2.9096 C   0  0  0  0  0  0
   24.9599    3.7597    1.9911 C   0  0  0  0  0  0
   25.2320    3.8329    0.6242 C   0  0  0  0  0  0
   27.8768    5.8029    3.3987 C   0  0  0  0  0  0
   27.5141    6.6044    4.5017 C   0  0  0  0  0  0
   28.5016    7.3322    5.1776 C   0  0  0  0  0  0
   29.8346    7.3043    4.7735 C   0  0  0  0  0  0
   30.2204    6.4985    3.6981 C   0  0  0  0  0  0
   29.2386    5.7223    3.0705 C   0  0  0  0  0  0
   31.6431    6.4420    3.1838 C   0  0  0  0  0  0
   32.5791    7.0499    3.9625 O   0  0  0  0  0  0
   31.9330    5.8514    2.1451 O   0  0  0  0  0  0
   26.0646    6.7917    4.9358 C   0  0  0  0  0  0
   34.9515    4.8426   -5.4523 H   0  0  0  0  0  0
   35.2635    5.6315   -3.1380 H   0  0  0  0  0  0
   31.4385    4.0223   -2.0633 H   0  0  0  0  0  0
   32.8946    3.6526   -6.0934 H   0  0  0  0  0  0
   30.8756    2.6653   -5.5577 H   0  0  0  0  0  0
   28.6337    3.2510   -4.9731 H   0  0  0  0  0  0
   29.5951    4.7064   -5.1306 H   0  0  0  0  0  0
   29.8547    1.8508   -3.2078 H   0  0  0  0  0  0
   28.6252    3.4455   -2.6664 H   0  0  0  0  0  0
   27.0880    4.8692   -3.8395 H   0  0  0  0  0  0
   28.3051    6.1408   -3.7356 H   0  0  0  0  0  0
   26.9110    6.5286   -1.8240 H   0  0  0  0  0  0
   28.3532    5.7860   -1.2253 H   0  0  0  0  0  0
   25.8570    4.2502   -1.8287 H   0  0  0  0  0  0
   27.9457    5.8402    0.7537 H   0  0  0  0  0  0
   25.5982    4.2805    3.9628 H   0  0  0  0  0  0
   24.1173    3.1803    2.3387 H   0  0  0  0  0  0
   24.5977    3.3064   -0.0754 H   0  0  0  0  0  0
   28.2241    7.9836    5.9852 H   0  0  0  0  0  0
   30.5420    7.9301    5.2972 H   0  0  0  0  0  0
   29.5295    5.0871    2.2442 H   0  0  0  0  0  0
   32.2046    7.6915    4.5674 H   0  0  0  0  0  0
   25.9318    7.6704    5.5671 H   0  0  0  0  0  0
   25.4140    6.9346    4.0720 H   0  0  0  0  0  0
   25.7145    5.9233    5.4923 H   0  0  0  0  0  0
  1  6  1  0  0  0
  1  2  2  0  0  0
  1 31  1  0  0  0
  2  3  1  0  0  0
  2 32  1  0  0  0
  3  4  2  0  0  0
  3  7  1  0  0  0
  4  5  1  0  0  0
  4 33  1  0  0  0
  5  8  1  0  0  0
  5  6  2  0  0  0
  6 34  1  0  0  0
  8  9  1  0  0  0
  8 10  1  0  0  0
  8 35  1  0  0  0
  9 11  1  0  0  0
  9 36  1  0  0  0
  9 37  1  0  0  0
 10 38  1  0  0  0
 11 12  1  0  0  0
 11 39  1  0  0  0
 12 13  1  0  0  0
 12 40  1  0  0  0
 12 41  1  0  0  0
 13 14  1  0  0  0
 13 42  1  0  0  0
 13 43  1  0  0  0
 14 15  1  0  0  0
 14 44  1  0  0  0
 15 16  2  0  0  0
 15 20  1  0  0  0
 16 17  1  0  0  0
 16 45  1  0  0  0
 17 18  2  0  0  0
 17 21  1  0  0  0
 18 19  1  0  0  0
 18 46  1  0  0  0
 19 20  2  0  0  0
 19 47  1  0  0  0
 20 48  1  0  0  0
 21 22  2  0  0  0
 21 26  1  0  0  0
 22 23  1  0  0  0
 22 30  1  0  0  0
 23 24  2  0  0  0
 23 49  1  0  0  0
 24 25  1  0  0  0
 24 50  1  0  0  0
 25 26  2  0  0  0
 25 27  1  0  0  0
 26 51  1  0  0  0
 27 28  1  0  0  0
 27 29  2  0  0  0
 28 52  1  0  0  0
 30 53  1  0  0  0
 30 54  1  0  0  0
 30 55  1  0  0  0
M  END
> <s_m_entry_id>
2936

> <s_m_entry_name>
dock_pv.28

> <s_m_Source_Path>
/home/csk/Desktop/cluster/DUD-E-result/adrb1

> <s_m_Source_File>
dock_pv.maegz

> <i_m_Source_File_Index>
28

> <chembl_id>
CHEMBL204827

> <chembl_pref_name>
None

> <i_lp_mmshare_version>
53161

> <i_f3d_flags>
0

> <r_lp_tautomer_probability>
1

> <s_lp_Force_Field>
OPLS_2005

> <r_lp_Energy>
29.301538

> <b_lp_Chiralities_Consistent>
1

> <s_lp_Variant>
CHEMBL213_lig672-1

> <s_i_glide_gridfile>
glide-grid_2vt4

> <i_i_glide_lignum>
774

> <i_i_glide_rotatable_bonds>
11

> <r_i_docking_score>
-8.61538466341682

> <r_i_glide_ligand_efficiency>
-0.287179488780561

> <r_i_glide_ligand_efficiency_sa>
-0.892333441570503

> <r_i_glide_ligand_efficiency_ln>
-1.95750926766278

> <r_i_glide_gscore>
-8.61538466341682

> <r_i_glide_lipo>
-3.24375524980037

> <r_i_glide_hbond>
-0.574118657839995

> <r_i_glide_metal>
0

> <r_i_glide_rewards>
-1.5799122086709

> <r_i_glide_evdw>
-45.6096038818359

> <r_i_glide_ecoul>
-11.6229724884033

> <r_i_glide_erotb>
0.878732154091492

> <r_i_glide_esite>
-0.0724046338447625

> <r_i_glide_emodel>
-79.5668686184006

> <r_i_glide_energy>
-57.2325763702393

> <r_i_glide_einternal>
12.4763145446777

> <i_i_glide_confnum>
66

> <i_i_glide_posenum>
349

> <r_i_glide_eff_state_penalty>
0

> <s_user_duplicate_titles>
CHEMBL213_lig672

> <s_m_subgroup_title>
dock_pv

> <s_m_subgroupid>
dock_pv

> <b_m_subgroup_collapsed>
1

$$$$
CHEMBL213_lig452
                    3D
 Schrodinger Suite 2021-1.
 62 65  0  0  1  0            999 V2000
   24.2080    5.0500    4.7851 C   0  0  0  0  0  0
   25.1950    5.8830    5.2946 C   0  0  0  0  0  0
   25.6334    4.4594    2.9302 C   0  0  0  0  0  0
   24.4098    4.3711    3.5890 C   0  0  0  0  0  0
   26.6661    5.2250    3.5078 C   0  0  0  0  0  0
   26.4415    5.9440    4.6783 C   0  0  0  0  0  0
   27.5458    6.6625    5.1094 N   0  0  0  0  0  0
   28.7084    6.5388    4.3850 C   0  0  0  0  0  0
   28.3255    5.4498    2.9639 S   0  0  0  0  0  0
   29.7957    7.0540    4.6270 O   0  0  0  0  0  0
   24.9174    6.6500    6.3850 O   0  0  0  0  0  0
   25.7859    3.7181    1.6149 C   0  0  2  0  0  0
   25.4080    4.5909    0.4116 C   0  0  0  0  0  0
   25.8929    3.9895   -0.8150 N   0  0  2  0  0  0
   27.3114    3.7216   -0.9588 C   0  0  0  0  0  0
   28.2590    4.8953   -0.6663 C   0  0  0  0  0  0
   28.6757    5.5870   -1.9416 C   0  0  0  0  0  0
   27.8425    6.5230   -2.5550 C   0  0  0  0  0  0
   28.2482    7.1259   -3.7428 C   0  0  0  0  0  0
   29.4818    6.7992   -4.3124 C   0  0  0  0  0  0
   30.3076    5.8455   -3.7185 C   0  0  0  0  0  0
   29.8883    5.2359   -2.5328 C   0  0  0  0  0  0
   25.0080    2.5334    1.5203 O   0  0  0  0  0  0
   31.6219    5.4500   -4.3784 C   0  0  0  0  0  0
   32.6705    5.2529   -3.3854 N   0  0  2  0  0  0
   33.8185    4.5299   -3.9098 C   0  0  0  0  0  0
   34.6019    3.9063   -2.7360 C   0  0  0  0  0  0
   35.5087    4.8895   -1.9895 C   0  0  0  0  0  0
   35.0400    5.6096   -0.8714 C   0  0  0  0  0  0
   35.8901    6.4863   -0.1972 C   0  0  0  0  0  0
   37.2081    6.6500   -0.6144 C   0  0  0  0  0  0
   37.6777    5.9503   -1.7219 C   0  0  0  0  0  0
   36.8383    5.0773   -2.4127 C   0  0  0  0  0  0
   37.4876    4.2500   -3.7892 Cl  0  0  0  0  0  0
   33.4213    5.4500   -0.2754 Cl  0  0  0  0  0  0
   23.2467    4.9924    5.2756 H   0  0  0  0  0  0
   23.5975    3.7875    3.1796 H   0  0  0  0  0  0
   27.5255    7.2634    5.9217 H   0  0  0  0  0  0
   25.6054    7.2800    6.6242 H   0  0  0  0  0  0
   26.8347    3.4500    1.5607 H   0  0  0  0  0  0
   24.3234    4.6956    0.3471 H   0  0  0  0  0  0
   25.8122    5.5967    0.4966 H   0  0  0  0  0  0
   25.4236    4.2500   -1.6991 H   0  0  0  0  0  0
   27.5927    2.8232   -0.4150 H   0  0  0  0  0  0
   27.4137    3.4500   -2.0082 H   0  0  0  0  0  0
   27.8644    5.6223    0.0395 H   0  0  0  0  0  0
   29.1549    4.5082   -0.1790 H   0  0  0  0  0  0
   26.8862    6.7745   -2.1195 H   0  0  0  0  0  0
   27.6082    7.8500   -4.2231 H   0  0  0  0  0  0
   29.8079    7.2902   -5.2150 H   0  0  0  0  0  0
   30.4976    4.4751   -2.0682 H   0  0  0  0  0  0
   24.9075    2.3606    0.5779 H   0  0  0  0  0  0
   31.4282    4.5200   -4.9160 H   0  0  0  0  0  0
   31.9022    6.1847   -5.1347 H   0  0  0  0  0  0
   32.3073    4.7489   -2.5896 H   0  0  0  0  0  0
   33.5453    3.7497   -4.6229 H   0  0  0  0  0  0
   34.4507    5.2383   -4.4494 H   0  0  0  0  0  0
   33.9302    3.4084   -2.0357 H   0  0  0  0  0  0
   35.2070    3.0825   -3.1141 H   0  0  0  0  0  0
   35.5242    7.0394    0.6557 H   0  0  0  0  0  0
   37.8641    7.3269   -0.0878 H   0  0  0  0  0  0
   38.6974    6.0850   -2.0530 H   0  0  0  0  0  0
  1  4  1  0  0  0
  1  2  2  0  0  0
  1 36  1  0  0  0
  2 11  1  0  0  0
  2  6  1  0  0  0
  3 12  1  0  0  0
  3  5  1  0  0  0
  3  4  2  0  0  0
  4 37  1  0  0  0
  5  9  1  0  0  0
  5  6  2  0  0  0
  6  7  1  0  0  0
  7  8  1  0  0  0
  7 38  1  0  0  0
  8  9  1  0  0  0
  8 10  2  0  0  0
 11 39  1  0  0  0
 12 23  1  0  0  0
 12 13  1  0  0  0
 12 40  1  0  0  0
 13 14  1  0  0  0
 13 41  1  0  0  0
 13 42  1  0  0  0
 14 15  1  0  0  0
 14 43  1  0  0  0
 15 16  1  0  0  0
 15 44  1  0  0  0
 15 45  1  0  0  0
 16 17  1  0  0  0
 16 46  1  0  0  0
 16 47  1  0  0  0
 17 18  2  0  0  0
 17 22  1  0  0  0
 18 19  1  0  0  0
 18 48  1  0  0  0
 19 20  2  0  0  0
 19 49  1  0  0  0
 20 21  1  0  0  0
 20 50  1  0  0  0
 21 22  2  0  0  0
 21 24  1  0  0  0
 22 51  1  0  0  0
 23 52  1  0  0  0
 24 25  1  0  0  0
 24 53  1  0  0  0
 24 54  1  0  0  0
 25 26  1  0  0  0
 25 55  1  0  0  0
 26 27  1  0  0  0
 26 56  1  0  0  0
 26 57  1  0  0  0
 27 28  1  0  0  0
 27 58  1  0  0  0
 27 59  1  0  0  0
 28 29  2  0  0  0
 28 33  1  0  0  0
 29 30  1  0  0  0
 29 35  1  0  0  0
 30 31  2  0  0  0
 30 60  1  0  0  0
 31 32  1  0  0  0
 31 61  1  0  0  0
 32 33  2  0  0  0
 32 62  1  0  0  0
 33 34  1  0  0  0
M  END
> <s_m_entry_id>
2937

> <s_m_entry_name>
dock_pv.29

> <s_m_Source_Path>
/home/csk/Desktop/cluster/DUD-E-result/adrb1

> <s_m_Source_File>
dock_pv.maegz

> <i_m_Source_File_Index>
29

> <chembl_id>
CHEMBL1947157

> <chembl_pref_name>
None

> <i_lp_mmshare_version>
53161

> <i_f3d_flags>
0

> <r_lp_tautomer_probability>
1

> <s_lp_Force_Field>
OPLS_2005

> <r_lp_Energy>
34.180713

> <b_lp_Chiralities_Consistent>
1

> <s_lp_Variant>
CHEMBL213_lig452-1

> <s_i_glide_gridfile>
glide-grid_2vt4

> <i_i_glide_lignum>
540

> <i_i_glide_rotatable_bonds>
13

> <r_i_docking_score>
-8.61481209694948

> <r_i_glide_ligand_efficiency>
-0.246137488484271

> <r_i_glide_ligand_efficiency_sa>
-0.805132045301155

> <r_i_glide_ligand_efficiency_ln>
-1.89114245073356

> <r_i_glide_gscore>
-8.61481209694948

> <r_i_glide_lipo>
-3.59001980056533

> <r_i_glide_hbond>
-0.612003098625385

> <r_i_glide_metal>
0

> <r_i_glide_rewards>
-1.27473549619909

> <r_i_glide_evdw>
-41.2787971496582

> <r_i_glide_ecoul>
-10.5555992126465

> <r_i_glide_erotb>
0.509226037820211

> <r_i_glide_esite>
0

> <r_i_glide_emodel>
-73.2669549830234

> <r_i_glide_energy>
-51.8343963623047

> <r_i_glide_einternal>
7.2602686882019

> <i_i_glide_confnum>
138

> <i_i_glide_posenum>
351

> <r_i_glide_eff_state_penalty>
0

> <s_user_duplicate_titles>
CHEMBL213_lig452

> <s_m_subgroup_title>
dock_pv

> <s_m_subgroupid>
dock_pv

> <b_m_subgroup_collapsed>
1

$$$$
CHEMBL213_lig109
                    3D
 Schrodinger Suite 2021-1.
 67 71  0  0  1  0            999 V2000
   35.0428    6.7957    3.9543 S   0  0  0  0  0  0
   27.1125    5.6027    3.3596 C   0  0  0  0  0  0
   26.8299    6.1726    4.5106 N   0  0  0  0  0  0
   28.4111    5.7296    2.9877 O   0  0  0  0  0  0
   28.9920    6.4248    3.9933 C   0  0  0  0  0  0
   27.9804    6.6909    4.9062 C   0  0  0  0  0  0
   35.6095    7.2466    2.3331 N   0  0  0  0  0  0
   33.2534    6.7196    3.9188 C   0  0  0  0  0  0
   35.5328    5.4501    4.2542 O   0  0  0  0  0  0
   35.4073    7.9148    4.8316 O   0  0  0  0  0  0
   30.4639    6.6410    3.9303 C   0  0  0  0  0  0
   26.2081    4.8217    2.4665 C   0  0  0  0  0  0
   31.3594    4.0477   -5.5579 C   0  0  0  0  0  0
   29.4658    2.5659   -5.2158 N   0  0  0  0  0  0
   32.5644    6.3261    2.7730 C   0  0  0  0  0  0
   32.5468    7.0497    5.0735 C   0  0  0  0  0  0
   31.1557    7.0499    5.0702 C   0  0  0  0  0  0
   31.1761    6.2718    2.7850 C   0  0  0  0  0  0
   35.6612    6.4243    1.1927 C   0  0  0  0  0  0
   32.1645    5.2867   -5.1526 C   0  0  1  0  0  0
   33.3501    4.1648   -3.2277 N   0  0  2  0  0  0
   35.7252    4.9712   -1.2067 C   0  0  0  0  0  0
   30.2030    3.6518   -4.8691 C   0  0  0  0  0  0
   35.4017    5.0507    1.1923 C   0  0  0  0  0  0
   35.9845    7.0498   -0.0072 C   0  0  0  0  0  0
   36.0226    6.3332   -1.1982 C   0  0  0  0  0  0
   35.4245    4.3306   -0.0029 C   0  0  0  0  0  0
   31.4077    6.2370   -4.4139 O   0  0  0  0  0  0
   33.5135    4.9433   -4.4562 C   0  0  0  0  0  0
   31.7673    3.2656   -6.6468 C   0  0  0  0  0  0
   29.8754    1.8350   -6.2817 C   0  0  0  0  0  0
   25.0274    4.2510    2.9599 C   0  0  0  0  0  0
   26.5536    4.6462    1.1211 C   0  0  0  0  0  0
   34.5292    3.3714   -2.8837 C   0  0  0  0  0  0
   35.7948    4.1862   -2.5179 C   0  0  0  0  0  0
   31.0162    2.1488   -7.0220 C   0  0  0  0  0  0
   25.7312    3.9023    0.2811 C   0  0  0  0  0  0
   24.2058    3.5036    2.1188 C   0  0  0  0  0  0
   24.5641    3.3334    0.7847 C   0  0  0  0  0  0
   28.0700    7.2228    5.8434 H   0  0  0  0  0  0
   35.7749    8.2287    2.1935 H   0  0  0  0  0  0
   33.0788    6.0588    1.8656 H   0  0  0  0  0  0
   33.0787    7.3412    5.9651 H   0  0  0  0  0  0
   30.6262    7.3142    5.9710 H   0  0  0  0  0  0
   30.6635    5.9173    1.9031 H   0  0  0  0  0  0
   32.4142    5.8082   -6.0788 H   0  0  0  0  0  0
   32.5238    3.5855   -3.2934 H   0  0  0  0  0  0
   29.8420    4.2116   -4.0181 H   0  0  0  0  0  0
   35.1598    4.5181    2.0957 H   0  0  0  0  0  0
   36.2085    8.1027   -0.0154 H   0  0  0  0  0  0
   36.3003    6.8354   -2.1101 H   0  0  0  0  0  0
   35.2332    3.2684    0.0153 H   0  0  0  0  0  0
   31.1359    6.9307   -5.0307 H   0  0  0  0  0  0
   34.1210    4.3775   -5.1661 H   0  0  0  0  0  0
   34.0775    5.8492   -4.2307 H   0  0  0  0  0  0
   32.6541    3.5265   -7.2081 H   0  0  0  0  0  0
   29.2614    0.9841   -6.5363 H   0  0  0  0  0  0
   24.7465    4.3804    3.9952 H   0  0  0  0  0  0
   27.4550    5.0855    0.7211 H   0  0  0  0  0  0
   34.2322    2.7893   -2.0148 H   0  0  0  0  0  0
   34.7507    2.6305   -3.6529 H   0  0  0  0  0  0
   36.6408    3.5008   -2.4368 H   0  0  0  0  0  0
   36.0593    4.8536   -3.3398 H   0  0  0  0  0  0
   31.3150    1.5419   -7.8633 H   0  0  0  0  0  0
   25.9889    3.7723   -0.7613 H   0  0  0  0  0  0
   23.2932    3.0648    2.4946 H   0  0  0  0  0  0
   23.9214    2.7690    0.1236 H   0  0  0  0  0  0
  1  7  1  0  0  0
  1  8  1  0  0  0
  1  9  2  0  0  0
  1 10  2  0  0  0
  2  4  1  0  0  0
  2 12  1  0  0  0
  2  3  2  0  0  0
  3  6  1  0  0  0
  4  5  1  0  0  0
  5 11  1  0  0  0
  5  6  2  0  0  0
  6 40  1  0  0  0
  7 19  1  0  0  0
  7 41  1  0  0  0
  8 15  2  0  0  0
  8 16  1  0  0  0
 11 17  1  0  0  0
 11 18  2  0  0  0
 12 32  2  0  0  0
 12 33  1  0  0  0
 13 20  1  0  0  0
 13 23  2  0  0  0
 13 30  1  0  0  0
 14 23  1  0  0  0
 14 31  2  0  0  0
 15 18  1  0  0  0
 15 42  1  0  0  0
 16 17  2  0  0  0
 16 43  1  0  0  0
 17 44  1  0  0  0
 18 45  1  0  0  0
 19 24  1  0  0  0
 19 25  2  0  0  0
 20 29  1  0  0  0
 20 28  1  0  0  0
 20 46  1  0  0  0
 21 34  1  0  0  0
 21 29  1  0  0  0
 21 47  1  0  0  0
 22 26  2  0  0  0
 22 35  1  0  0  0
 22 27  1  0  0  0
 23 48  1  0  0  0
 24 27  2  0  0  0
 24 49  1  0  0  0
 25 26  1  0  0  0
 25 50  1  0  0  0
 26 51  1  0  0  0
 27 52  1  0  0  0
 28 53  1  0  0  0
 29 54  1  0  0  0
 29 55  1  0  0  0
 30 36  2  0  0  0
 30 56  1  0  0  0
 31 36  1  0  0  0
 31 57  1  0  0  0
 32 38  1  0  0  0
 32 58  1  0  0  0
 33 37  2  0  0  0
 33 59  1  0  0  0
 34 35  1  0  0  0
 34 60  1  0  0  0
 34 61  1  0  0  0
 35 62  1  0  0  0
 35 63  1  0  0  0
 36 64  1  0  0  0
 37 39  1  0  0  0
 37 65  1  0  0  0
 38 39  2  0  0  0
 38 66  1  0  0  0
 39 67  1  0  0  0
M  END
> <s_m_entry_id>
2938

> <s_m_entry_name>
dock_pv.30

> <s_m_Source_Path>
/home/csk/Desktop/cluster/DUD-E-result/adrb1

> <s_m_Source_File>
dock_pv.maegz

> <i_m_Source_File_Index>
30

> <chembl_id>
CHEMBL39269

> <chembl_pref_name>
None

> <i_lp_mmshare_version>
53161

> <i_f3d_flags>
0

> <r_lp_tautomer_probability>
1

> <s_lp_Force_Field>
OPLS_2005

> <r_lp_Energy>
22.895951

> <b_lp_Chiralities_Consistent>
1

> <s_lp_Variant>
CHEMBL213_lig109-1

> <s_i_glide_gridfile>
glide-grid_2vt4

> <i_i_glide_lignum>
132

> <i_i_glide_rotatable_bonds>
12

> <r_i_docking_score>
-8.60296053596292

> <r_i_glide_ligand_efficiency>
-0.220588731691357

> <r_i_glide_ligand_efficiency_sa>
-0.748063030198186

> <r_i_glide_ligand_efficiency_ln>
-1.84471894846777

> <r_i_glide_gscore>
-8.60296053596292

> <r_i_glide_lipo>
-4.22152847981966

> <r_i_glide_hbond>
-0.385985591872371

> <r_i_glide_metal>
0

> <r_i_glide_rewards>
-0.570351975519369

> <r_i_glide_evdw>
-59.7389106750488

> <r_i_glide_ecoul>
-6.97019720077515

> <r_i_glide_erotb>
0.707380625117194

> <r_i_glide_esite>
-0.1

> <r_i_glide_emodel>
-96.5118168866001

> <r_i_glide_energy>
-66.709107875824

> <r_i_glide_einternal>
9.39665126800537

> <i_i_glide_confnum>
30

> <i_i_glide_posenum>
193

> <r_i_glide_eff_state_penalty>
0

> <s_user_duplicate_titles>
CHEMBL213_lig109

> <s_m_subgroup_title>
dock_pv

> <s_m_subgroupid>
dock_pv

> <b_m_subgroup_collapsed>
1

$$$$
CHEMBL213_lig1516
                    3D
 Schrodinger Suite 2021-1.
 44 46  0  0  1  0            999 V2000
   26.4778    3.8377   -0.4150 C   0  0  0  0  0  0
   25.5244    3.3171    0.4566 C   0  0  0  0  0  0
   25.4078    3.8292    1.7477 C   0  0  0  0  0  0
   26.2462    4.8634    2.1823 C   0  0  0  0  0  0
   27.1715    5.4108    1.2844 C   0  0  0  0  0  0
   27.3005    4.9000   -0.0150 C   0  0  0  0  0  0
   28.1727    5.5151   -0.9514 N   0  0  0  0  0  0
   27.5446    6.2519   -1.9358 C   0  0  0  0  0  0
   28.2962    6.5512   -3.0264 N   0  0  0  0  0  0
   29.5705    5.8923   -3.4029 C   0  0  1  0  0  0
   30.2560    5.4269   -2.1224 C   0  0  0  0  0  0
   29.5211    5.1533   -1.0138 C   0  0  0  0  0  0
   30.1928    4.6942    0.2885 C   0  0  0  0  0  0
   26.3792    6.6500   -1.9106 O   0  0  0  0  0  0
   26.1462    5.4112    3.6049 C   0  0  0  0  0  0
   27.1630    4.9383    4.3255 F   0  0  0  0  0  0
   26.2079    6.7425    3.6047 F   0  0  0  0  0  0
   25.0080    5.0500    4.1996 F   0  0  0  0  0  0
   31.6609    5.0276   -2.2826 C   0  0  0  0  0  0
   32.5632    5.8500   -2.4150 O   0  0  0  0  0  0
   31.9817    3.5416   -2.4150 C   0  0  0  0  0  0
   29.4401    4.7347   -4.3818 C   0  0  0  0  0  0
   28.3589    3.8500   -4.3154 C   0  0  0  0  0  0
   28.2080    2.8140   -5.1684 N   0  0  0  0  0  0
   29.1443    2.6500   -6.1273 C   0  0  0  0  0  0
   30.2869    3.4435   -6.2403 C   0  0  0  0  0  0
   30.4229    4.5134   -5.3578 C   0  0  0  0  0  0
   28.7454    1.7520   -7.1734 C   0  0  0  0  0  0
   28.4087    1.0500   -8.0150 N   0  0  0  0  0  0
   26.5396    3.4500   -1.4226 H   0  0  0  0  0  0
   24.8678    2.5256    0.1252 H   0  0  0  0  0  0
   24.6673    3.4047    2.4103 H   0  0  0  0  0  0
   27.7812    6.2458    1.5966 H   0  0  0  0  0  0
   27.7719    6.9833   -3.7732 H   0  0  0  0  0  0
   30.1871    6.6144   -3.9448 H   0  0  0  0  0  0
   30.2080    3.6090    0.3165 H   0  0  0  0  0  0
   31.2219    5.0500    0.3573 H   0  0  0  0  0  0
   29.7151    5.0579    1.1937 H   0  0  0  0  0  0
   31.6149    3.1527   -3.3632 H   0  0  0  0  0  0
   33.0584    3.3779   -2.3680 H   0  0  0  0  0  0
   31.5093    2.9741   -1.6150 H   0  0  0  0  0  0
   27.5784    3.9519   -3.5755 H   0  0  0  0  0  0
   31.0050    3.2984   -7.0355 H   0  0  0  0  0  0
   31.2763    5.1723   -5.4424 H   0  0  0  0  0  0
  1  2  2  0  0  0
  1  6  1  0  0  0
  1 30  1  0  0  0
  2  3  1  0  0  0
  2 31  1  0  0  0
  3  4  2  0  0  0
  3 32  1  0  0  0
  4  5  1  0  0  0
  4 15  1  0  0  0
  5  6  2  0  0  0
  5 33  1  0  0  0
  6  7  1  0  0  0
  7  8  1  0  0  0
  7 12  1  0  0  0
  8  9  1  0  0  0
  8 14  2  0  0  0
  9 10  1  0  0  0
  9 34  1  0  0  0
 10 11  1  0  0  0
 10 22  1  0  0  0
 10 35  1  0  0  0
 11 12  2  0  0  0
 11 19  1  0  0  0
 12 13  1  0  0  0
 13 36  1  0  0  0
 13 37  1  0  0  0
 13 38  1  0  0  0
 15 16  1  0  0  0
 15 17  1  0  0  0
 15 18  1  0  0  0
 19 20  2  0  0  0
 19 21  1  0  0  0
 21 39  1  0  0  0
 21 40  1  0  0  0
 21 41  1  0  0  0
 22 23  2  0  0  0
 22 27  1  0  0  0
 23 24  1  0  0  0
 23 42  1  0  0  0
 24 25  2  0  0  0
 25 26  1  0  0  0
 25 28  1  0  0  0
 26 27  2  0  0  0
 26 43  1  0  0  0
 27 44  1  0  0  0
 28 29  3  0  0  0
M  END
> <s_m_entry_id>
2939

> <s_m_entry_name>
dock_pv.31

> <s_m_Source_Path>
/home/csk/Desktop/cluster/DUD-E-result/adrb1

> <s_m_Source_File>
dock_pv.maegz

> <i_m_Source_File_Index>
31

> <chembl_id>
CHEMBL3617968

> <chembl_pref_name>
None

> <i_lp_mmshare_version>
53161

> <i_f3d_flags>
0

> <r_lp_tautomer_probability>
1

> <s_lp_Force_Field>
OPLS_2005

> <r_lp_Energy>
59.666871

> <b_lp_Chiralities_Consistent>
1

> <s_lp_Variant>
CHEMBL213_lig1516-1

> <s_i_glide_gridfile>
glide-grid_2vt4

> <i_i_glide_lignum>
1870

> <i_i_glide_rotatable_bonds>
4

> <r_i_docking_score>
-8.59665020847725

> <r_i_glide_ligand_efficiency>
-0.296436214085423

> <r_i_glide_ligand_efficiency_sa>
-0.910745967255005

> <r_i_glide_ligand_efficiency_ln>
-1.96841490550089

> <r_i_glide_gscore>
-8.59665020847725

> <r_i_glide_lipo>
-2.03596921939185

> <r_i_glide_hbond>
-0.469400929888179

> <r_i_glide_metal>
0

> <r_i_glide_rewards>
-3.37940516590909

> <r_i_glide_evdw>
-41.7292823791504

> <r_i_glide_ecoul>
-5.80014038085938

> <r_i_glide_erotb>
0.244610282798291

> <r_i_glide_esite>
0

> <r_i_glide_emodel>
-65.2538990485807

> <r_i_glide_energy>
-47.5294227600098

> <r_i_glide_einternal>
4.41864109039307

> <i_i_glide_confnum>
5

> <i_i_glide_posenum>
18

> <r_i_glide_eff_state_penalty>
0

> <s_user_duplicate_titles>
CHEMBL213_lig1516

> <s_m_subgroup_title>
dock_pv

> <s_m_subgroupid>
dock_pv

> <b_m_subgroup_collapsed>
1

$$$$
CHEMBL213_lig919
                    3D
 Schrodinger Suite 2021-1.
 60 62  0  0  1  0            999 V2000
   29.8790    2.4943   -6.2169 C   0  0  0  0  0  0
   30.6079    3.5510   -5.6321 C   0  0  0  0  0  0
   31.8798    3.8459   -6.0268 N   0  0  0  0  0  0
   32.4580    3.0935   -6.9938 C   0  0  0  0  0  0
   31.8025    2.0331   -7.6141 C   0  0  0  0  0  0
   30.5002    1.7355   -7.2140 C   0  0  0  0  0  0
   29.9720    4.4912   -4.5932 C   0  0  0  0  0  0
   30.9088    5.0442   -3.5017 C   0  0  0  0  0  0
   30.6487    4.6327   -2.2465 N   0  0  0  0  0  0
   31.7936    5.8502   -3.7928 O   0  0  0  0  0  0
   31.2724    5.0521   -1.0629 C   0  0  0  0  0  0
   32.6158    5.4471   -0.9684 C   0  0  0  0  0  0
   33.1399    5.8336    0.2672 C   0  0  0  0  0  0
   32.3336    5.8464    1.4143 C   0  0  0  0  0  0
   31.0079    5.4200    1.3048 C   0  0  0  0  0  0
   30.4741    5.0493    0.0773 C   0  0  0  0  0  0
   32.9393    6.2327    2.7743 C   0  0  0  0  0  0
   32.1465    7.2106    3.6788 C   0  0  0  0  0  0
   30.8734    6.6501    4.1021 N   0  0  2  0  0  0
   30.0637    7.4831    4.9885 C   0  0  0  0  0  0
   28.5527    7.0777    5.0274 C   0  0  1  0  0  0
   28.1178    6.0235    3.9743 C   0  0  0  0  0  0
   28.2162    6.6499    6.3352 O   0  0  0  0  0  0
   26.7109    5.7798    3.9823 O   0  0  0  0  0  0
   26.1466    5.0500    2.9493 C   0  0  0  0  0  0
   24.8867    4.5026    3.1940 C   0  0  0  0  0  0
   24.2179    3.7760    2.2112 C   0  0  0  0  0  0
   24.8117    3.5978    0.9650 C   0  0  0  0  0  0
   26.0675    4.1365    0.6987 C   0  0  0  0  0  0
   26.7358    4.8569    1.6876 C   0  0  0  0  0  0
   28.4466    2.1589   -5.8191 C   0  0  0  0  0  0
   33.4660    3.3647   -7.2724 H   0  0  0  0  0  0
   32.2902    1.4593   -8.3886 H   0  0  0  0  0  0
   29.9731    0.9225   -7.6888 H   0  0  0  0  0  0
   29.5557    5.3456   -5.1272 H   0  0  0  0  0  0
   29.1244    4.0020   -4.1134 H   0  0  0  0  0  0
   29.8436    4.0368   -2.1233 H   0  0  0  0  0  0
   33.2634    5.4427   -1.8326 H   0  0  0  0  0  0
   34.1694    6.1498    0.3240 H   0  0  0  0  0  0
   30.3635    5.3384    2.1613 H   0  0  0  0  0  0
   29.4446    4.7282    0.0237 H   0  0  0  0  0  0
   33.1438    5.3221    3.3346 H   0  0  0  0  0  0
   33.9148    6.6868    2.5968 H   0  0  0  0  0  0
   32.7510    7.4495    4.5543 H   0  0  0  0  0  0
   31.9450    8.1260    3.1241 H   0  0  0  0  0  0
   31.0074    5.6928    4.4313 H   0  0  0  0  0  0
   30.5073    7.4493    5.9833 H   0  0  0  0  0  0
   30.1305    8.5255    4.6836 H   0  0  0  0  0  0
   27.9604    7.9748    4.8473 H   0  0  0  0  0  0
   28.4325    6.4129    3.0082 H   0  0  0  0  0  0
   28.6422    5.0790    4.1327 H   0  0  0  0  0  0
   27.5440    7.2502    6.6862 H   0  0  0  0  0  0
   24.4201    4.6496    4.1566 H   0  0  0  0  0  0
   23.2397    3.3624    2.4086 H   0  0  0  0  0  0
   24.2889    3.0502    0.1924 H   0  0  0  0  0  0
   26.5155    4.0006   -0.2755 H   0  0  0  0  0  0
   27.6991    5.2686    1.4401 H   0  0  0  0  0  0
   27.8199    3.0500   -5.8182 H   0  0  0  0  0  0
   27.9840    1.4503   -6.5069 H   0  0  0  0  0  0
   28.4178    1.7360   -4.8152 H   0  0  0  0  0  0
  1  6  1  0  0  0
  1  2  2  0  0  0
  1 31  1  0  0  0
  2  3  1  0  0  0
  2  7  1  0  0  0
  3  4  2  0  0  0
  4  5  1  0  0  0
  4 32  1  0  0  0
  5  6  2  0  0  0
  5 33  1  0  0  0
  6 34  1  0  0  0
  7  8  1  0  0  0
  7 35  1  0  0  0
  7 36  1  0  0  0
  8  9  1  0  0  0
  8 10  2  0  0  0
  9 11  1  0  0  0
  9 37  1  0  0  0
 11 16  1  0  0  0
 11 12  2  0  0  0
 12 13  1  0  0  0
 12 38  1  0  0  0
 13 14  2  0  0  0
 13 39  1  0  0  0
 14 17  1  0  0  0
 14 15  1  0  0  0
 15 16  2  0  0  0
 15 40  1  0  0  0
 16 41  1  0  0  0
 17 18  1  0  0  0
 17 42  1  0  0  0
 17 43  1  0  0  0
 18 19  1  0  0  0
 18 44  1  0  0  0
 18 45  1  0  0  0
 19 20  1  0  0  0
 19 46  1  0  0  0
 20 21  1  0  0  0
 20 47  1  0  0  0
 20 48  1  0  0  0
 21 22  1  0  0  0
 21 23  1  0  0  0
 21 49  1  0  0  0
 22 24  1  0  0  0
 22 50  1  0  0  0
 22 51  1  0  0  0
 23 52  1  0  0  0
 24 25  1  0  0  0
 25 26  2  0  0  0
 25 30  1  0  0  0
 26 27  1  0  0  0
 26 53  1  0  0  0
 27 28  2  0  0  0
 27 54  1  0  0  0
 28 29  1  0  0  0
 28 55  1  0  0  0
 29 30  2  0  0  0
 29 56  1  0  0  0
 30 57  1  0  0  0
 31 58  1  0  0  0
 31 59  1  0  0  0
 31 60  1  0  0  0
M  END
> <s_m_entry_id>
2940

> <s_m_entry_name>
dock_pv.32

> <s_m_Source_Path>
/home/csk/Desktop/cluster/DUD-E-result/adrb1

> <s_m_Source_File>
dock_pv.maegz

> <i_m_Source_File_Index>
32

> <chembl_id>
CHEMBL466924

> <chembl_pref_name>
None

> <i_lp_mmshare_version>
53161

> <i_f3d_flags>
0

> <r_lp_tautomer_probability>
1

> <s_lp_Force_Field>
OPLS_2005

> <r_lp_Energy>
32.792587

> <b_lp_Chiralities_Consistent>
1

> <s_lp_Variant>
CHEMBL213_lig919-1

> <s_i_glide_gridfile>
glide-grid_2vt4

> <i_i_glide_lignum>
1027

> <i_i_glide_rotatable_bonds>
13

> <r_i_docking_score>
-8.5865073483839

> <r_i_glide_ligand_efficiency>
-0.276984108012384

> <r_i_glide_ligand_efficiency_sa>
-0.870112516934006

> <r_i_glide_ligand_efficiency_ln>
-1.9365205519083

> <r_i_glide_gscore>
-8.5865073483839

> <r_i_glide_lipo>
-3.93219104146464

> <r_i_glide_hbond>
-0.519040987521691

> <r_i_glide_metal>
0

> <r_i_glide_rewards>
-1.23882395718407

> <r_i_glide_evdw>
-45.5967407226562

> <r_i_glide_ecoul>
-12.354419708252

> <r_i_glide_erotb>
1.2365486301571

> <r_i_glide_esite>
0

> <r_i_glide_emodel>
-81.5007436717469

> <r_i_glide_energy>
-57.9511604309082

> <r_i_glide_einternal>
11.7947988510132

> <i_i_glide_confnum>
127

> <i_i_glide_posenum>
374

> <r_i_glide_eff_state_penalty>
0

> <s_user_duplicate_titles>
CHEMBL213_lig919,480390

> <s_m_subgroup_title>
dock_pv

> <s_m_subgroupid>
dock_pv

> <b_m_subgroup_collapsed>
1

$$$$
CHEMBL213_lig609
                    3D
 Schrodinger Suite 2021-1.
 76 79  0  0  1  0            999 V2000
   33.8637    3.6912   -3.7390 C   0  0  0  0  0  0
   35.2215    3.6028   -3.6664 N   0  0  0  0  0  0
   33.3925    4.6502   -4.5618 N   0  0  0  0  0  0
   36.1248    4.7401   -3.9592 C   0  0  0  0  0  0
   35.8463    2.5739   -2.8091 C   0  0  0  0  0  0
   33.1082    2.8785   -3.2019 O   0  0  0  0  0  0
   37.3082    5.1593   -0.3155 N   0  0  0  0  0  0
   36.1783    3.2108   -1.4363 C   0  0  0  0  0  0
   36.3943    5.4840   -2.6309 C   0  0  0  0  0  0
   37.0080    4.5135   -1.5978 C   0  0  0  0  0  0
   28.2102    5.8500    2.7683 O   0  0  0  0  0  0
   36.3861    5.7045    0.5946 C   0  0  0  0  0  0
   31.9806    4.8992   -4.8689 C   0  0  0  0  0  0
   27.1160    5.1773    2.2493 C   0  0  0  0  0  0
   30.0172    1.6888   -6.9592 C   0  0  0  0  0  0
   29.1253    7.0589    4.7092 C   0  0  1  0  0  0
   31.2803    3.7645   -5.6116 C   0  0  0  0  0  0
   24.9994    3.8500    0.9863 C   0  0  0  0  0  0
   28.6078    5.7142    4.1354 C   0  0  0  0  0  0
   31.6199    6.6500    4.8922 N   0  0  2  0  0  0
   29.4080    0.6781   -7.6150 F   0  0  0  0  0  0
   34.6497    6.7861    2.5061 C   0  0  0  0  0  0
   36.8894    6.2584    1.7767 C   0  0  0  0  0  0
   35.0085    5.7102    0.3733 C   0  0  0  0  0  0
   27.0801    5.0530    0.8573 C   0  0  0  0  0  0
   26.0549    4.6500    3.0049 C   0  0  0  0  0  0
   29.4837    2.1559   -5.7606 C   0  0  0  0  0  0
   31.1760    2.2497   -7.4898 C   0  0  0  0  0  0
   25.0081    3.9785    2.3732 C   0  0  0  0  0  0
   26.0310    4.3892    0.2228 C   0  0  0  0  0  0
   30.1166    3.1952   -5.0842 C   0  0  0  0  0  0
   31.8098    3.2883   -6.8150 C   0  0  0  0  0  0
   36.0273    6.8021    2.7315 C   0  0  0  0  0  0
   34.1547    6.2377    1.3255 C   0  0  0  0  0  0
   29.0080    7.0500    6.1218 O   0  0  0  0  0  0
   23.9525    3.2069    0.3850 O   0  0  0  0  0  0
   30.5677    7.4612    4.2783 C   0  0  0  0  0  0
   32.6848    6.2458    3.9879 C   0  0  0  0  0  0
   33.6586    7.3429    3.5231 C   0  0  0  0  0  0
   34.0649    5.2055   -5.0700 H   0  0  0  0  0  0
   37.0553    4.3153   -4.3399 H   0  0  0  0  0  0
   35.7919    5.3707   -4.7841 H   0  0  0  0  0  0
   36.7651    2.2834   -3.3095 H   0  0  0  0  0  0
   35.2668    1.6503   -2.7630 H   0  0  0  0  0  0
   38.2254    4.9409    0.0465 H   0  0  0  0  0  0
   36.7371    2.4905   -0.8388 H   0  0  0  0  0  0
   35.2526    3.3606   -0.8868 H   0  0  0  0  0  0
   35.4855    5.9738   -2.2900 H   0  0  0  0  0  0
   37.1007    6.2936   -2.8150 H   0  0  0  0  0  0
   37.9921    4.2500   -1.9867 H   0  0  0  0  0  0
   31.4517    5.1409   -3.9447 H   0  0  0  0  0  0
   31.9205    5.7948   -5.4904 H   0  0  0  0  0  0
   28.4516    7.8497    4.3850 H   0  0  0  0  0  0
   27.8219    5.3333    4.7826 H   0  0  0  0  0  0
   29.4017    4.9731    4.1712 H   0  0  0  0  0  0
   31.2248    5.7621    5.1850 H   0  0  0  0  0  0
   37.9540    6.2709    1.9589 H   0  0  0  0  0  0
   34.5638    5.3062   -0.5185 H   0  0  0  0  0  0
   27.8812    5.4672    0.2637 H   0  0  0  0  0  0
   26.0039    4.7466    4.0755 H   0  0  0  0  0  0
   28.5849    1.7139   -5.3542 H   0  0  0  0  0  0
   31.5807    1.8789   -8.4199 H   0  0  0  0  0  0
   24.1950    3.5715    2.9550 H   0  0  0  0  0  0
   26.0200    4.2962   -0.8545 H   0  0  0  0  0  0
   29.7034    3.5473   -4.1495 H   0  0  0  0  0  0
   32.7099    3.7223   -7.2263 H   0  0  0  0  0  0
   36.4297    7.2256    3.6403 H   0  0  0  0  0  0
   33.0923    6.2374    1.1280 H   0  0  0  0  0  0
   28.1120    7.3129    6.3649 H   0  0  0  0  0  0
   23.7820    3.4251   -0.5496 H   0  0  0  0  0  0
   30.6351    7.4511    3.1882 H   0  0  0  0  0  0
   30.7529    8.4868    4.5897 H   0  0  0  0  0  0
   33.2723    5.4782    4.4937 H   0  0  0  0  0  0
   32.2472    5.7113    3.1437 H   0  0  0  0  0  0
   33.1121    8.1652    3.0601 H   0  0  0  0  0  0
   34.1818    7.7673    4.3806 H   0  0  0  0  0  0
  1  2  1  0  0  0
  1  3  1  0  0  0
  1  6  2  0  0  0
  2  4  1  0  0  0
  2  5  1  0  0  0
  3 13  1  0  0  0
  3 40  1  0  0  0
  4  9  1  0  0  0
  4 41  1  0  0  0
  4 42  1  0  0  0
  5  8  1  0  0  0
  5 43  1  0  0  0
  5 44  1  0  0  0
  7 10  1  0  0  0
  7 12  1  0  0  0
  7 45  1  0  0  0
  8 10  1  0  0  0
  8 46  1  0  0  0
  8 47  1  0  0  0
  9 10  1  0  0  0
  9 48  1  0  0  0
  9 49  1  0  0  0
 10 50  1  0  0  0
 11 19  1  0  0  0
 11 14  1  0  0  0
 12 23  1  0  0  0
 12 24  2  0  0  0
 13 17  1  0  0  0
 13 51  1  0  0  0
 13 52  1  0  0  0
 14 25  1  0  0  0
 14 26  2  0  0  0
 15 28  2  0  0  0
 15 21  1  0  0  0
 15 27  1  0  0  0
 16 37  1  0  0  0
 16 19  1  0  0  0
 16 35  1  0  0  0
 16 53  1  0  0  0
 17 31  1  0  0  0
 17 32  2  0  0  0
 18 29  2  0  0  0
 18 36  1  0  0  0
 18 30  1  0  0  0
 19 54  1  0  0  0
 19 55  1  0  0  0
 20 38  1  0  0  0
 20 37  1  0  0  0
 20 56  1  0  0  0
 22 34  2  0  0  0
 22 39  1  0  0  0
 22 33  1  0  0  0
 23 33  2  0  0  0
 23 57  1  0  0  0
 24 34  1  0  0  0
 24 58  1  0  0  0
 25 30  2  0  0  0
 25 59  1  0  0  0
 26 29  1  0  0  0
 26 60  1  0  0  0
 27 31  2  0  0  0
 27 61  1  0  0  0
 28 32  1  0  0  0
 28 62  1  0  0  0
 29 63  1  0  0  0
 30 64  1  0  0  0
 31 65  1  0  0  0
 32 66  1  0  0  0
 33 67  1  0  0  0
 34 68  1  0  0  0
 35 69  1  0  0  0
 36 70  1  0  0  0
 37 71  1  0  0  0
 37 72  1  0  0  0
 38 39  1  0  0  0
 38 73  1  0  0  0
 38 74  1  0  0  0
 39 75  1  0  0  0
 39 76  1  0  0  0
M  END
> <s_m_entry_id>
2941

> <s_m_entry_name>
dock_pv.33

> <s_m_Source_Path>
/home/csk/Desktop/cluster/DUD-E-result/adrb1

> <s_m_Source_File>
dock_pv.maegz

> <i_m_Source_File_Index>
33

> <chembl_id>
CHEMBL322973

> <chembl_pref_name>
None

> <i_lp_mmshare_version>
53161

> <i_f3d_flags>
0

> <r_lp_tautomer_probability>
1

> <s_lp_Force_Field>
OPLS_2005

> <r_lp_Energy>
51.261298

> <b_lp_Chiralities_Consistent>
1

> <s_lp_Variant>
CHEMBL213_lig609-1

> <s_i_glide_gridfile>
glide-grid_2vt4

> <i_i_glide_lignum>
709

> <i_i_glide_rotatable_bonds>
16

> <r_i_docking_score>
-8.57962884410891

> <r_i_glide_ligand_efficiency>
-0.21999048318228

> <r_i_glide_ligand_efficiency_sa>
-0.746034243010915

> <r_i_glide_ligand_efficiency_ln>
-1.83971597142481

> <r_i_glide_gscore>
-8.57962884410891

> <r_i_glide_lipo>
-3.44356170384285

> <r_i_glide_hbond>
-0.819757617280588

> <r_i_glide_metal>
0

> <r_i_glide_rewards>
-0.397550338290997

> <r_i_glide_evdw>
-52.7146148681641

> <r_i_glide_ecoul>
-14.4734315872192

> <r_i_glide_erotb>
0.932257913965417

> <r_i_glide_esite>
-0.0442716171687977

> <r_i_glide_emodel>
-95.4543822738211

> <r_i_glide_energy>
-67.1880464553833

> <r_i_glide_einternal>
16.2091388702393

> <i_i_glide_confnum>
22

> <i_i_glide_posenum>
56

> <r_i_glide_eff_state_penalty>
0

> <s_user_duplicate_titles>
CHEMBL213_lig609,174188

> <s_m_subgroup_title>
dock_pv

> <s_m_subgroupid>
dock_pv

> <b_m_subgroup_collapsed>
1

$$$$
CHEMBL213_lig1204 
                    3D
 Schrodinger Suite 2021-1.
 63 66  0  0  1  0            999 V2000
   28.3091    4.4726   -4.4150 C   0  0  0  0  0  0
   28.5249    5.1804   -3.0715 C   0  0  0  0  0  0
   27.8183    6.5601   -3.1715 C   0  0  0  0  0  0
   24.3362    4.2502    3.0182 C   0  0  0  0  0  0
   25.1226    5.0044    3.8918 C   0  0  0  0  0  0
   26.1445    4.1859    1.3735 C   0  0  0  0  0  0
   24.8343    3.8630    1.7750 C   0  0  0  0  0  0
   26.9728    4.8479    2.3138 C   0  0  0  0  0  0
   26.4448    5.2876    3.5464 C   0  0  0  0  0  0
   27.2726    5.9639    4.4673 N   0  0  0  0  0  0
   28.6049    6.1410    4.3830 C   0  0  0  0  0  0
   29.1675    5.6386    3.1437 C   0  0  0  0  0  0
   28.4350    5.0501    2.1665 C   0  0  0  0  0  0
   29.2460    6.6602    5.2895 O   0  0  0  0  0  0
   24.6079    5.4500    5.0885 O   0  0  0  0  0  0
   26.6427    3.7423   -0.0274 C   0  0  2  0  0  0
   27.2323    4.8702   -0.9042 C   0  0  0  0  0  0
   25.6770    3.0498   -0.7988 O   0  0  0  0  0  0
   27.8479    4.3067   -2.1102 N   0  0  2  0  0  0
   30.0307    5.4081   -2.7007 C   0  0  0  0  0  0
   31.0800    4.2401   -2.6777 C   0  0  0  0  0  0
   32.4596    4.7342   -2.1618 C   0  0  0  0  0  0
   33.6482    4.5748   -2.8948 C   0  0  0  0  0  0
   34.8582    5.0705   -2.4145 C   0  0  0  0  0  0
   34.9043    5.7105   -1.1819 C   0  0  0  0  0  0
   33.7503    5.8442   -0.4226 C   0  0  0  0  0  0
   32.5384    5.3586   -0.9080 C   0  0  0  0  0  0
   31.1274    3.4586   -4.0038 C   0  0  0  0  0  0
   30.7068    2.1237   -4.0421 C   0  0  0  0  0  0
   30.6077    1.4545   -5.2594 C   0  0  0  0  0  0
   30.9894    2.0977   -6.4338 C   0  0  0  0  0  0
   31.4572    3.4066   -6.4033 C   0  0  0  0  0  0
   31.5059    4.0946   -5.1945 C   0  0  0  0  0  0
   36.0742    6.1997   -0.7150 F   0  0  0  0  0  0
   30.9023    1.4489   -7.6144 F   0  0  0  0  0  0
   29.0078    4.8596   -5.1576 H   0  0  0  0  0  0
   28.4435    3.3928   -4.3668 H   0  0  0  0  0  0
   27.2925    4.6046   -4.7891 H   0  0  0  0  0  0
   28.2343    7.1656   -3.9770 H   0  0  0  0  0  0
   26.7503    6.4565   -3.3690 H   0  0  0  0  0  0
   27.9149    7.1367   -2.2509 H   0  0  0  0  0  0
   23.3164    4.0013    3.2769 H   0  0  0  0  0  0
   24.1747    3.3204    1.1106 H   0  0  0  0  0  0
   26.8650    6.2969    5.3272 H   0  0  0  0  0  0
   30.2362    5.7392    3.0269 H   0  0  0  0  0  0
   28.9597    4.6806    1.2986 H   0  0  0  0  0  0
   23.6486    5.4009    5.1336 H   0  0  0  0  0  0
   27.4080    2.9964    0.1095 H   0  0  0  0  0  0
   27.9750    5.4622   -0.3765 H   0  0  0  0  0  0
   26.4208    5.5484   -1.1717 H   0  0  0  0  0  0
   25.5880    3.4909   -1.6595 H   0  0  0  0  0  0
   28.1389    3.3269   -2.0841 H   0  0  0  0  0  0
   30.0138    5.8501   -1.7087 H   0  0  0  0  0  0
   30.4238    6.1873   -3.3562 H   0  0  0  0  0  0
   30.7374    3.5385   -1.9144 H   0  0  0  0  0  0
   33.6663    4.0709   -3.8474 H   0  0  0  0  0  0
   35.7614    4.9574   -2.9953 H   0  0  0  0  0  0
   33.7984    6.3210    0.5450 H   0  0  0  0  0  0
   31.6593    5.4507   -0.2887 H   0  0  0  0  0  0
   30.4023    1.6181   -3.1387 H   0  0  0  0  0  0
   30.2476    0.4356   -5.2898 H   0  0  0  0  0  0
   31.7620    3.8863   -7.3206 H   0  0  0  0  0  0
   31.8271    5.1259   -5.1849 H   0  0  0  0  0  0
  1  2  1  0  0  0
  1 36  1  0  0  0
  1 37  1  0  0  0
  1 38  1  0  0  0
  2  3  1  0  0  0
  2 19  1  0  0  0
  2 20  1  0  0  0
  3 39  1  0  0  0
  3 40  1  0  0  0
  3 41  1  0  0  0
  4  5  2  0  0  0
  4  7  1  0  0  0
  4 42  1  0  0  0
  5  9  1  0  0  0
  5 15  1  0  0  0
  6  8  1  0  0  0
  6  7  2  0  0  0
  6 16  1  0  0  0
  7 43  1  0  0  0
  8  9  2  0  0  0
  8 13  1  0  0  0
  9 10  1  0  0  0
 10 11  1  0  0  0
 10 44  1  0  0  0
 11 12  1  0  0  0
 11 14  2  0  0  0
 12 13  2  0  0  0
 12 45  1  0  0  0
 13 46  1  0  0  0
 15 47  1  0  0  0
 16 17  1  0  0  0
 16 18  1  0  0  0
 16 48  1  0  0  0
 17 19  1  0  0  0
 17 49  1  0  0  0
 17 50  1  0  0  0
 18 51  1  0  0  0
 19 52  1  0  0  0
 20 21  1  0  0  0
 20 53  1  0  0  0
 20 54  1  0  0  0
 21 22  1  0  0  0
 21 28  1  0  0  0
 21 55  1  0  0  0
 22 23  2  0  0  0
 22 27  1  0  0  0
 23 24  1  0  0  0
 23 56  1  0  0  0
 24 25  2  0  0  0
 24 57  1  0  0  0
 25 26  1  0  0  0
 25 34  1  0  0  0
 26 27  2  0  0  0
 26 58  1  0  0  0
 27 59  1  0  0  0
 28 29  2  0  0  0
 28 33  1  0  0  0
 29 30  1  0  0  0
 29 60  1  0  0  0
 30 31  2  0  0  0
 30 61  1  0  0  0
 31 32  1  0  0  0
 31 35  1  0  0  0
 32 33  2  0  0  0
 32 62  1  0  0  0
 33 63  1  0  0  0
M  END
> <s_m_entry_id>
2942

> <s_m_entry_name>
dock_pv.34

> <s_m_Source_Path>
/home/csk/Desktop/cluster/DUD-E-result/adrb1

> <s_m_Source_File>
dock_pv.maegz

> <i_m_Source_File_Index>
34

> <chembl_id>
CHEMBL4438531

> <chembl_pref_name>
None

> <i_lp_mmshare_version>
53161

> <i_f3d_flags>
0

> <r_lp_tautomer_probability>
1

> <s_lp_Force_Field>
OPLS_2005

> <r_lp_Energy>
43.74599

> <b_lp_Chiralities_Consistent>
1

> <s_lp_Variant>
CHEMBL213_lig1204 -1

> <s_i_glide_gridfile>
glide-grid_2vt4

> <i_i_glide_lignum>
1419

> <i_i_glide_rotatable_bonds>
10

> <r_i_docking_score>
-8.57596569117802

> <r_i_glide_ligand_efficiency>
-0.245027591176515

> <r_i_glide_ligand_efficiency_sa>
-0.801501497614289

> <r_i_glide_ligand_efficiency_ln>
-1.8826148025172

> <r_i_glide_gscore>
-8.57596569117802

> <r_i_glide_lipo>
-3.56237645208339

> <r_i_glide_hbond>
-0.99337564261028

> <r_i_glide_metal>
0

> <r_i_glide_rewards>
-0.971320058957829

> <r_i_glide_evdw>
-41.1660308837891

> <r_i_glide_ecoul>
-11.3238077163696

> <r_i_glide_erotb>
0.707979164118368

> <r_i_glide_esite>
0

> <r_i_glide_emodel>
-70.7949254634735

> <r_i_glide_energy>
-52.4898386001587

> <r_i_glide_einternal>
12.0071859359741

> <i_i_glide_confnum>
105

> <i_i_glide_posenum>
120

> <r_i_glide_eff_state_penalty>
0

> <s_user_duplicate_titles>
CHEMBL213_lig1204 

> <s_m_subgroup_title>
dock_pv

> <s_m_subgroupid>
dock_pv

> <b_m_subgroup_collapsed>
1

$$$$
CHEMBL213_lig681
                    3D
 Schrodinger Suite 2021-1.
 51 53  0  0  1  0            999 V2000
   34.1360    4.9588   -4.3764 C   0  0  0  0  0  0
   34.6824    5.4147   -3.1777 C   0  0  0  0  0  0
   33.9527    5.3093   -1.9948 C   0  0  0  0  0  0
   32.6811    4.7366   -2.0097 C   0  0  0  0  0  0
   32.1322    4.2495   -3.2040 C   0  0  0  0  0  0
   32.8643    4.3844   -4.3910 C   0  0  0  0  0  0
   34.6288    5.8682   -0.5103 Cl  0  0  0  0  0  0
   30.7758    3.5394   -3.2214 C   0  0  2  0  0  0
   29.5495    4.4822   -3.3509 C   0  0  0  0  0  0
   30.6080    2.6604   -2.1188 O   0  0  0  0  0  0
   29.3684    5.3464   -2.1802 N   0  0  1  0  0  0
   27.9719    5.4791   -1.7575 C   0  0  0  0  0  0
   27.4503    4.1480   -1.1723 C   0  0  0  0  0  0
   26.2071    4.2280   -0.4151 N   0  0  0  0  0  0
   26.1918    4.4299    0.9701 C   0  0  0  0  0  0
   27.2498    5.0502    1.6397 C   0  0  0  0  0  0
   27.2169    5.2783    3.0211 C   0  0  0  0  0  0
   26.0723    4.8781    3.7233 C   0  0  0  0  0  0
   25.0102    4.2504    3.0681 C   0  0  0  0  0  0
   25.0720    4.0237    1.6948 C   0  0  0  0  0  0
   28.3608    5.9645    3.6919 C   0  0  0  0  0  0
   28.1809    6.7967    4.8042 C   0  0  0  0  0  0
   29.1809    7.5150    5.3709 N   0  0  0  0  0  0
   30.4141    7.4500    4.8112 C   0  0  0  0  0  0
   30.7101    6.6501    3.7013 C   0  0  0  0  0  0
   29.6662    5.8685    3.1848 C   0  0  0  0  0  0
   32.0808    6.6024    3.0663 C   0  0  0  0  0  0
   33.0163    7.4500    3.5851 O   0  0  0  0  0  0
   32.3265    5.8500    2.1264 O   0  0  0  0  0  0
   34.7018    5.0527   -5.2931 H   0  0  0  0  0  0
   35.6724    5.8496   -3.1730 H   0  0  0  0  0  0
   32.1338    4.6501   -1.0829 H   0  0  0  0  0  0
   32.4612    4.0250   -5.3268 H   0  0  0  0  0  0
   30.7750    2.8846   -4.0947 H   0  0  0  0  0  0
   28.6649    3.8760   -3.5504 H   0  0  0  0  0  0
   29.6636    5.1200   -4.2288 H   0  0  0  0  0  0
   29.7048    2.2968   -2.1409 H   0  0  0  0  0  0
   29.9198    4.9623   -1.4235 H   0  0  0  0  0  0
   27.3430    5.8240   -2.5804 H   0  0  0  0  0  0
   27.9317    6.2569   -0.9947 H   0  0  0  0  0  0
   28.2145    3.6801   -0.5507 H   0  0  0  0  0  0
   27.2600    3.4500   -1.9834 H   0  0  0  0  0  0
   25.3403    4.2455   -0.9436 H   0  0  0  0  0  0
   28.1000    5.3866    1.0698 H   0  0  0  0  0  0
   25.9988    5.0500    4.7865 H   0  0  0  0  0  0
   24.1322    3.9498    3.6183 H   0  0  0  0  0  0
   24.2424    3.5469    1.1922 H   0  0  0  0  0  0
   27.2062    6.9393    5.2487 H   0  0  0  0  0  0
   31.1593    8.0657    5.2913 H   0  0  0  0  0  0
   29.8668    5.2171    2.3456 H   0  0  0  0  0  0
   32.6571    8.1695    4.1168 H   0  0  0  0  0  0
  1  6  1  0  0  0
  1  2  2  0  0  0
  1 30  1  0  0  0
  2  3  1  0  0  0
  2 31  1  0  0  0
  3  7  1  0  0  0
  3  4  2  0  0  0
  4  5  1  0  0  0
  4 32  1  0  0  0
  5  8  1  0  0  0
  5  6  2  0  0  0
  6 33  1  0  0  0
  8  9  1  0  0  0
  8 10  1  0  0  0
  8 34  1  0  0  0
  9 11  1  0  0  0
  9 35  1  0  0  0
  9 36  1  0  0  0
 10 37  1  0  0  0
 11 12  1  0  0  0
 11 38  1  0  0  0
 12 13  1  0  0  0
 12 39  1  0  0  0
 12 40  1  0  0  0
 13 14  1  0  0  0
 13 41  1  0  0  0
 13 42  1  0  0  0
 14 15  1  0  0  0
 14 43  1  0  0  0
 15 16  2  0  0  0
 15 20  1  0  0  0
 16 17  1  0  0  0
 16 44  1  0  0  0
 17 18  2  0  0  0
 17 21  1  0  0  0
 18 19  1  0  0  0
 18 45  1  0  0  0
 19 20  2  0  0  0
 19 46  1  0  0  0
 20 47  1  0  0  0
 21 22  2  0  0  0
 21 26  1  0  0  0
 22 23  1  0  0  0
 22 48  1  0  0  0
 23 24  2  0  0  0
 24 25  1  0  0  0
 24 49  1  0  0  0
 25 26  2  0  0  0
 25 27  1  0  0  0
 26 50  1  0  0  0
 27 28  1  0  0  0
 27 29  2  0  0  0
 28 51  1  0  0  0
M  END
> <s_m_entry_id>
2943

> <s_m_entry_name>
dock_pv.35

> <s_m_Source_Path>
/home/csk/Desktop/cluster/DUD-E-result/adrb1

> <s_m_Source_File>
dock_pv.maegz

> <i_m_Source_File_Index>
35

> <chembl_id>
CHEMBL205389

> <chembl_pref_name>
None

> <i_lp_mmshare_version>
53161

> <i_f3d_flags>
0

> <r_lp_tautomer_probability>
1

> <s_lp_Force_Field>
OPLS_2005

> <r_lp_Energy>
28.475626

> <b_lp_Chiralities_Consistent>
1

> <s_lp_Variant>
CHEMBL213_lig681-1

> <s_i_glide_gridfile>
glide-grid_2vt4

> <i_i_glide_lignum>
783

> <i_i_glide_rotatable_bonds>
11

> <r_i_docking_score>
-8.55660235980332

> <r_i_glide_ligand_efficiency>
-0.295055253786321

> <r_i_glide_ligand_efficiency_sa>
-0.906503219697235

> <r_i_glide_ligand_efficiency_ln>
-1.95924496368038

> <r_i_glide_gscore>
-8.55660235980332

> <r_i_glide_lipo>
-2.89396077661121

> <r_i_glide_hbond>
-0.322846994499504

> <r_i_glide_metal>
0

> <r_i_glide_rewards>
-1.96141053853769

> <r_i_glide_evdw>
-43.3453521728516

> <r_i_glide_ecoul>
-13.9600057601929

> <r_i_glide_erotb>
0.92964074689004

> <r_i_glide_esite>
-0.0467563243734482

> <r_i_glide_emodel>
-80.3024395382175

> <r_i_glide_energy>
-57.3053579330444

> <r_i_glide_einternal>
11.1134471893311

> <i_i_glide_confnum>
38

> <i_i_glide_posenum>
241

> <r_i_glide_eff_state_penalty>
0

> <s_user_duplicate_titles>
CHEMBL213_lig681

> <s_m_subgroup_title>
dock_pv

> <s_m_subgroupid>
dock_pv

> <b_m_subgroup_collapsed>
1

$$$$
CHEMBL213_lig897
                    3D
 Schrodinger Suite 2021-1.
 53 56  0  0  1  0            999 V2000
   26.5494    4.9625    1.8563 C   0  0  0  0  0  0
   25.4520    4.3797    2.4841 C   0  0  0  0  0  0
   25.1887    4.6804    3.8168 C   0  0  0  0  0  0
   26.0436    5.5247    4.5350 C   0  0  0  0  0  0
   27.1788    6.0889    3.9338 C   0  0  0  0  0  0
   27.3850    5.8152    2.5731 C   0  0  0  0  0  0
   26.8614    4.6514    0.1878 Cl  0  0  0  0  0  0
   28.1277    7.0140    4.7466 C   0  0  2  0  0  0
   29.5804    7.2740    4.2036 C   0  0  0  0  0  0
   28.2223    6.6499    6.1135 O   0  0  0  0  0  0
   30.1895    6.1035    3.5830 N   0  0  1  0  0  0
   31.2415    6.3289    2.5965 C   0  0  1  0  0  0
   32.6737    6.1044    3.1267 C   0  0  0  0  0  0
   33.7708    6.2886    2.0401 C   0  0  0  0  0  0
   30.9907    5.3600    1.4294 C   0  0  0  0  0  0
   32.0437    5.4500    0.3373 C   0  0  0  0  0  0
   33.3668    5.8340    0.6275 C   0  0  0  0  0  0
   34.3032    5.7983   -0.4148 C   0  0  0  0  0  0
   33.9588    5.3573   -1.6957 C   0  0  0  0  0  0
   32.6525    4.9464   -1.9870 C   0  0  0  0  0  0
   31.7077    5.0501   -0.9604 C   0  0  0  0  0  0
   32.2732    4.3450   -3.3078 C   0  0  0  0  0  0
   32.9324    4.6341   -4.5100 C   0  0  0  0  0  0
   32.5077    4.0084   -5.6873 C   0  0  0  0  0  0
   31.4287    3.1109   -5.6613 C   0  0  0  0  0  0
   30.8268    2.8677   -4.4207 C   0  0  0  0  0  0
   31.2326    3.4645   -3.2755 N   0  0  0  0  0  0
   30.9823    2.3964   -6.9120 C   0  0  0  0  0  0
   29.6911    1.9517   -6.8929 O   0  0  0  0  0  0
   31.7254    2.2468   -7.8794 O   0  0  0  0  0  0
   24.7935    3.7250    1.9314 H   0  0  0  0  0  0
   24.3204    4.2568    4.2992 H   0  0  0  0  0  0
   25.8199    5.7351    5.5707 H   0  0  0  0  0  0
   28.2079    6.2498    2.0442 H   0  0  0  0  0  0
   27.6297    7.9833    4.7764 H   0  0  0  0  0  0
   30.2309    7.6687    4.9862 H   0  0  0  0  0  0
   29.5423    8.0662    3.4613 H   0  0  0  0  0  0
   27.6142    7.2145    6.6095 H   0  0  0  0  0  0
   30.5144    5.4082    4.2583 H   0  0  0  0  0  0
   31.1817    7.3461    2.2056 H   0  0  0  0  0  0
   32.7592    5.0990    3.5425 H   0  0  0  0  0  0
   32.8677    6.7770    3.9634 H   0  0  0  0  0  0
   34.6723    5.7568    2.3462 H   0  0  0  0  0  0
   34.0615    7.3375    1.9962 H   0  0  0  0  0  0
   29.9835    5.4499    1.0261 H   0  0  0  0  0  0
   31.0094    4.3405    1.8182 H   0  0  0  0  0  0
   35.3246    6.0925   -0.2227 H   0  0  0  0  0  0
   34.7321    5.3012   -2.4481 H   0  0  0  0  0  0
   30.6884    4.7406   -1.1438 H   0  0  0  0  0  0
   33.7599    5.3270   -4.5435 H   0  0  0  0  0  0
   33.0210    4.2260   -6.6141 H   0  0  0  0  0  0
   30.0126    2.1677   -4.2954 H   0  0  0  0  0  0
   29.2053    2.2510   -6.1230 H   0  0  0  0  0  0
  1  6  1  0  0  0
  1  2  2  0  0  0
  1  7  1  0  0  0
  2  3  1  0  0  0
  2 31  1  0  0  0
  3  4  2  0  0  0
  3 32  1  0  0  0
  4  5  1  0  0  0
  4 33  1  0  0  0
  5  8  1  0  0  0
  5  6  2  0  0  0
  6 34  1  0  0  0
  8  9  1  0  0  0
  8 10  1  0  0  0
  8 35  1  0  0  0
  9 11  1  0  0  0
  9 36  1  0  0  0
  9 37  1  0  0  0
 10 38  1  0  0  0
 11 12  1  0  0  0
 11 39  1  0  0  0
 12 13  1  0  0  0
 12 15  1  0  0  0
 12 40  1  0  0  0
 13 14  1  0  0  0
 13 41  1  0  0  0
 13 42  1  0  0  0
 14 17  1  0  0  0
 14 43  1  0  0  0
 14 44  1  0  0  0
 15 16  1  0  0  0
 15 45  1  0  0  0
 15 46  1  0  0  0
 16 17  2  0  0  0
 16 21  1  0  0  0
 17 18  1  0  0  0
 18 19  2  0  0  0
 18 47  1  0  0  0
 19 20  1  0  0  0
 19 48  1  0  0  0
 20 21  2  0  0  0
 20 22  1  0  0  0
 21 49  1  0  0  0
 22 23  2  0  0  0
 22 27  1  0  0  0
 23 24  1  0  0  0
 23 50  1  0  0  0
 24 25  2  0  0  0
 24 51  1  0  0  0
 25 26  1  0  0  0
 25 28  1  0  0  0
 26 27  2  0  0  0
 26 52  1  0  0  0
 28 29  1  0  0  0
 28 30  2  0  0  0
 29 53  1  0  0  0
M  END
> <s_m_entry_id>
2944

> <s_m_entry_name>
dock_pv.36

> <s_m_Source_Path>
/home/csk/Desktop/cluster/DUD-E-result/adrb1

> <s_m_Source_File>
dock_pv.maegz

> <i_m_Source_File_Index>
36

> <chembl_id>
CHEMBL498304

> <chembl_pref_name>
None

> <i_lp_mmshare_version>
53161

> <i_f3d_flags>
0

> <r_lp_tautomer_probability>
1

> <s_lp_Force_Field>
OPLS_2005

> <r_lp_Energy>
33.112516

> <b_lp_Chiralities_Consistent>
1

> <s_lp_Variant>
CHEMBL213_lig897-1

> <s_i_glide_gridfile>
glide-grid_2vt4

> <i_i_glide_lignum>
1005

> <i_i_glide_rotatable_bonds>
8

> <r_i_docking_score>
-8.54021687201689

> <r_i_glide_ligand_efficiency>
-0.284673895733896

> <r_i_glide_ligand_efficiency_sa>
-0.884547981418042

> <r_i_glide_ligand_efficiency_ln>
-1.94043032643803

> <r_i_glide_gscore>
-8.54021687201689

> <r_i_glide_lipo>
-3.82164329444432

> <r_i_glide_hbond>
-0.720076438145543

> <r_i_glide_metal>
0

> <r_i_glide_rewards>
-1.42152382663762

> <r_i_glide_evdw>
-36.1160507202148

> <r_i_glide_ecoul>
-8.83415794372559

> <r_i_glide_erotb>
0.553952914780172

> <r_i_glide_esite>
0

> <r_i_glide_emodel>
-56.2487091566691

> <r_i_glide_energy>
-44.9502086639404

> <r_i_glide_einternal>
13.3902826309204

> <i_i_glide_confnum>
21

> <i_i_glide_posenum>
193

> <r_i_glide_eff_state_penalty>
0

> <s_user_duplicate_titles>
CHEMBL213_lig897,511655

> <s_m_subgroup_title>
dock_pv

> <s_m_subgroupid>
dock_pv

> <b_m_subgroup_collapsed>
1

$$$$
CHEMBL213_lig256
                    3D
 Schrodinger Suite 2021-1.
 76 79  0  0  1  0            999 V2000
   29.1358    5.9303    3.1851 N   0  0  0  0  0  0
   35.1087    6.7700    3.3241 S   0  0  0  0  0  0
   28.2312    6.0174    4.2012 C   0  0  0  0  0  0
   28.4417    5.4500    2.1351 C   0  0  0  0  0  0
   27.2218    5.4026    2.3138 N   0  0  0  0  0  0
   27.0601    5.7818    3.5627 N   0  0  0  0  0  0
   35.7083    7.0395    1.6678 N   0  0  0  0  0  0
   30.5381    6.2314    3.1854 C   0  0  0  0  0  0
   33.3313    6.5844    3.2410 C   0  0  0  0  0  0
   35.3723    8.0240    4.0404 O   0  0  0  0  0  0
   35.6485    5.5017    3.8253 O   0  0  0  0  0  0
   28.4050    6.2804    5.3931 O   0  0  0  0  0  0
   31.5263    3.3043   -5.7061 C   0  0  0  0  0  0
   30.3386    1.5084   -6.8313 N   0  0  0  0  0  0
   32.5442    7.0203    4.3040 C   0  0  0  0  0  0
   32.7330    5.9683    2.1496 C   0  0  0  0  0  0
   31.3569    5.8026    2.1197 C   0  0  0  0  0  0
   31.1578    6.8868    4.2624 C   0  0  0  0  0  0
   35.7381    6.0838    0.6404 C   0  0  0  0  0  0
   32.3286    4.6044   -5.8017 C   0  0  1  0  0  0
   34.1878    3.9146   -4.2449 N   0  0  1  0  0  0
   35.8486    4.2915   -1.5154 C   0  0  0  0  0  0
   25.7333    5.6980    4.1888 C   0  0  0  0  0  0
   31.0800    2.6466   -6.8607 C   0  0  0  0  0  0
   36.0735    4.7430    0.8522 C   0  0  0  0  0  0
   35.4515    6.5202   -0.6536 C   0  0  0  0  0  0
   36.1299    3.8550   -0.2182 C   0  0  0  0  0  0
   35.5021    5.6327   -1.7260 C   0  0  0  0  0  0
   31.8052    5.6234   -4.9670 O   0  0  0  0  0  0
   33.8540    4.4386   -5.5680 C   0  0  0  0  0  0
   31.1991    2.7398   -4.4666 C   0  0  0  0  0  0
   30.0296    0.9899   -5.6151 C   0  0  0  0  0  0
   35.6284    3.7474   -4.0882 C   0  0  0  0  0  0
   35.9711    3.2753   -2.6567 C   0  0  0  0  0  0
   24.9869    4.3692    3.8872 C   0  0  0  0  0  0
   24.2834    2.7393    0.4451 C   0  0  0  0  0  0
   30.4537    1.5630   -4.4157 C   0  0  0  0  0  0
   24.2270    2.7781    1.9883 C   0  0  0  0  0  0
   24.3704    4.2219    2.4861 C   0  0  0  0  0  0
   25.7117    2.7865   -0.1246 C   0  0  0  0  0  0
   28.8844    5.1559    1.1874 H   0  0  0  0  0  0
   35.6168    7.9951    1.3607 H   0  0  0  0  0  0
   33.0113    7.4501    5.1764 H   0  0  0  0  0  0
   33.3155    5.5956    1.3227 H   0  0  0  0  0  0
   30.9643    5.2828    1.2613 H   0  0  0  0  0  0
   30.5949    7.2480    5.1064 H   0  0  0  0  0  0
   32.2082    4.9839   -6.8149 H   0  0  0  0  0  0
   33.8176    4.5222   -3.5284 H   0  0  0  0  0  0
   25.1427    6.5411    3.8280 H   0  0  0  0  0  0
   25.8056    5.8417    5.2693 H   0  0  0  0  0  0
   31.3044    3.0338   -7.8431 H   0  0  0  0  0  0
   36.3070    4.3708    1.8338 H   0  0  0  0  0  0
   35.1990    7.5535   -0.8411 H   0  0  0  0  0  0
   36.4088    2.8247   -0.0396 H   0  0  0  0  0  0
   35.2879    6.0066   -2.7160 H   0  0  0  0  0  0
   31.7684    6.4461   -5.4695 H   0  0  0  0  0  0
   34.3469    5.4018   -5.7186 H   0  0  0  0  0  0
   34.2490    3.7633   -6.3281 H   0  0  0  0  0  0
   31.5260    3.2101   -3.5492 H   0  0  0  0  0  0
   29.4389    0.0858   -5.6122 H   0  0  0  0  0  0
   36.1215    4.7020   -4.2836 H   0  0  0  0  0  0
   36.0263    3.0366   -4.8149 H   0  0  0  0  0  0
   37.0073    2.9318   -2.6571 H   0  0  0  0  0  0
   35.3703    2.3981   -2.4103 H   0  0  0  0  0  0
   24.1902    4.2499    4.6226 H   0  0  0  0  0  0
   25.6998    3.5526    3.9852 H   0  0  0  0  0  0
   23.7021    3.5658    0.0364 H   0  0  0  0  0  0
   23.8075    1.8501    0.0651 H   0  0  0  0  0  0
   30.2080    1.1151   -3.4651 H   0  0  0  0  0  0
   23.2997    2.3684    2.3842 H   0  0  0  0  0  0
   25.0091    2.1300    2.3865 H   0  0  0  0  0  0
   25.0000    4.7102    1.7586 H   0  0  0  0  0  0
   23.4081    4.7212    2.4224 H   0  0  0  0  0  0
   25.6914    2.7836   -1.2152 H   0  0  0  0  0  0
   26.2947    1.9250    0.2015 H   0  0  0  0  0  0
   26.2495    3.6845    0.1793 H   0  0  0  0  0  0
  1  3  1  0  0  0
  1  4  1  0  0  0
  1  8  1  0  0  0
  2  9  1  0  0  0
  2  7  1  0  0  0
  2 10  2  0  0  0
  2 11  2  0  0  0
  3  6  1  0  0  0
  3 12  2  0  0  0
  4  5  2  0  0  0
  4 41  1  0  0  0
  5  6  1  0  0  0
  6 23  1  0  0  0
  7 19  1  0  0  0
  7 42  1  0  0  0
  8 17  1  0  0  0
  8 18  2  0  0  0
  9 15  2  0  0  0
  9 16  1  0  0  0
 13 20  1  0  0  0
 13 24  1  0  0  0
 13 31  2  0  0  0
 14 24  2  0  0  0
 14 32  1  0  0  0
 15 18  1  0  0  0
 15 43  1  0  0  0
 16 17  2  0  0  0
 16 44  1  0  0  0
 17 45  1  0  0  0
 18 46  1  0  0  0
 19 25  1  0  0  0
 19 26  2  0  0  0
 20 30  1  0  0  0
 20 29  1  0  0  0
 20 47  1  0  0  0
 21 33  1  0  0  0
 21 30  1  0  0  0
 21 48  1  0  0  0
 22 28  2  0  0  0
 22 34  1  0  0  0
 22 27  1  0  0  0
 23 35  1  0  0  0
 23 49  1  0  0  0
 23 50  1  0  0  0
 24 51  1  0  0  0
 25 27  2  0  0  0
 25 52  1  0  0  0
 26 28  1  0  0  0
 26 53  1  0  0  0
 27 54  1  0  0  0
 28 55  1  0  0  0
 29 56  1  0  0  0
 30 57  1  0  0  0
 30 58  1  0  0  0
 31 37  1  0  0  0
 31 59  1  0  0  0
 32 37  2  0  0  0
 32 60  1  0  0  0
 33 34  1  0  0  0
 33 61  1  0  0  0
 33 62  1  0  0  0
 34 63  1  0  0  0
 34 64  1  0  0  0
 35 39  1  0  0  0
 35 65  1  0  0  0
 35 66  1  0  0  0
 36 38  1  0  0  0
 36 40  1  0  0  0
 36 67  1  0  0  0
 36 68  1  0  0  0
 37 69  1  0  0  0
 38 39  1  0  0  0
 38 70  1  0  0  0
 38 71  1  0  0  0
 39 72  1  0  0  0
 39 73  1  0  0  0
 40 74  1  0  0  0
 40 75  1  0  0  0
 40 76  1  0  0  0
M  END
> <s_m_entry_id>
2945

> <s_m_entry_name>
dock_pv.37

> <s_m_Source_Path>
/home/csk/Desktop/cluster/DUD-E-result/adrb1

> <s_m_Source_File>
dock_pv.maegz

> <i_m_Source_File_Index>
37

> <chembl_id>
CHEMBL314893

> <chembl_pref_name>
None

> <i_lp_mmshare_version>
53161

> <i_f3d_flags>
0

> <r_lp_tautomer_probability>
1

> <s_lp_Force_Field>
OPLS_2005

> <r_lp_Energy>
51.041387

> <b_lp_Chiralities_Consistent>
1

> <s_lp_Variant>
CHEMBL213_lig256-1

> <s_i_glide_gridfile>
glide-grid_2vt4

> <i_i_glide_lignum>
291

> <i_i_glide_rotatable_bonds>
16

> <r_i_docking_score>
-8.50954319561525

> <r_i_glide_ligand_efficiency>
-0.212738579890381

> <r_i_glide_ligand_efficiency_sa>
-0.7275557081908

> <r_i_glide_ligand_efficiency_ln>
-1.81483513894756

> <r_i_glide_gscore>
-8.50954319561525

> <r_i_glide_lipo>
-2.8689773987173

> <r_i_glide_hbond>
-0.491603170991535

> <r_i_glide_metal>
0

> <r_i_glide_rewards>
-1.80316005169006

> <r_i_glide_evdw>
-56.7488861083984

> <r_i_glide_ecoul>
-7.81616640090942

> <r_i_glide_erotb>
0.764066691339984

> <r_i_glide_esite>
-0.1

> <r_i_glide_emodel>
-90.4323751529557

> <r_i_glide_energy>
-64.5650525093079

> <r_i_glide_einternal>
9.09358787536621

> <i_i_glide_confnum>
7

> <i_i_glide_posenum>
117

> <r_i_glide_eff_state_penalty>
0

> <s_user_duplicate_titles>
CHEMBL213_lig256

> <s_m_subgroup_title>
dock_pv

> <s_m_subgroupid>
dock_pv

> <b_m_subgroup_collapsed>
1

$$$$
CHEMBL213_lig457
                    3D
 Schrodinger Suite 2021-1.
 66 69  0  0  1  0            999 V2000
   24.1575    5.0500    4.7850 C   0  0  0  0  0  0
   25.1214    5.8881    5.3126 C   0  0  0  0  0  0
   25.6273    4.4769    2.9489 C   0  0  0  0  0  0
   24.3911    4.3777    3.5870 C   0  0  0  0  0  0
   26.6439    5.2348    3.5659 C   0  0  0  0  0  0
   26.3807    5.9538    4.7284 C   0  0  0  0  0  0
   27.4552    6.6947    5.1847 N   0  0  0  0  0  0
   28.6406    6.5863    4.4955 C   0  0  0  0  0  0
   28.3248    5.4500    3.0929 S   0  0  0  0  0  0
   29.7106    7.1280    4.7576 O   0  0  0  0  0  0
   24.8107    6.6617    6.3850 O   0  0  0  0  0  0
   25.8093    3.7536    1.6200 C   0  0  2  0  0  0
   25.5357    4.6498    0.4036 C   0  0  0  0  0  0
   26.0069    4.0124   -0.8150 N   0  0  2  0  0  0
   27.3979    3.6103   -0.8980 C   0  0  0  0  0  0
   28.4571    4.6662   -0.5518 C   0  0  0  0  0  0
   28.6842    5.5657   -1.7370 C   0  0  0  0  0  0
   27.6681    6.4309   -2.1425 C   0  0  0  0  0  0
   27.8240    7.1821   -3.2951 C   0  0  0  0  0  0
   29.0088    7.0992   -4.0150 C   0  0  0  0  0  0
   30.0181    6.2074   -3.6490 C   0  0  0  0  0  0
   29.8568    5.4500   -2.4872 C   0  0  0  0  0  0
   25.0079    2.5924    1.4731 O   0  0  0  0  0  0
   31.2386    6.1071   -4.5499 C   0  0  0  0  0  0
   32.1913    5.0501   -4.2208 N   0  0  2  0  0  0
   33.1504    4.8469   -5.3077 C   0  0  0  0  0  0
   33.1867    3.3596   -5.7372 C   0  0  0  0  0  0
   31.8076    2.7515   -6.0285 C   0  0  0  0  0  0
   31.3395    2.6964   -7.3419 C   0  0  0  0  0  0
   30.0515    2.2399   -7.6152 C   0  0  0  0  0  0
   29.2304    1.8090   -6.5770 C   0  0  0  0  0  0
   29.7066    1.8146   -5.2675 C   0  0  0  0  0  0
   31.0078    2.2658   -4.9804 C   0  0  0  0  0  0
   31.5808    2.2555   -3.7199 O   0  0  0  0  0  0
   30.8113    1.8365   -2.6099 C   0  0  0  0  0  0
   23.1825    4.9784    5.2467 H   0  0  0  0  0  0
   23.5903    3.7937    3.1561 H   0  0  0  0  0  0
   27.3777    7.3022    5.9925 H   0  0  0  0  0  0
   23.8834    6.6261    6.6325 H   0  0  0  0  0  0
   26.8491    3.4501    1.5849 H   0  0  0  0  0  0
   24.4686    4.8527    0.3015 H   0  0  0  0  0  0
   26.0357    5.6124    0.5108 H   0  0  0  0  0  0
   25.5511    4.2500   -1.7096 H   0  0  0  0  0  0
   27.5788    2.6508   -0.4150 H   0  0  0  0  0  0
   27.4924    3.4500   -1.9697 H   0  0  0  0  0  0
   28.1981    5.2587    0.3203 H   0  0  0  0  0  0
   29.3936    4.1696   -0.2973 H   0  0  0  0  0  0
   26.7477    6.5067   -1.5837 H   0  0  0  0  0  0
   27.0397    7.8498   -3.6151 H   0  0  0  0  0  0
   29.1521    7.7650   -4.8433 H   0  0  0  0  0  0
   30.6353    4.7746   -2.1699 H   0  0  0  0  0  0
   24.9247    2.4512    0.5235 H   0  0  0  0  0  0
   30.8971    6.0424   -5.5854 H   0  0  0  0  0  0
   31.7526    7.0501   -4.4153 H   0  0  0  0  0  0
   31.6993    4.1712   -4.0886 H   0  0  0  0  0  0
   32.9229    5.4690   -6.1767 H   0  0  0  0  0  0
   34.1308    5.1552   -4.9410 H   0  0  0  0  0  0
   33.8158    3.2649   -6.6231 H   0  0  0  0  0  0
   33.6912    2.7638   -4.9747 H   0  0  0  0  0  0
   31.9618    3.0502   -8.1495 H   0  0  0  0  0  0
   29.6825    2.2486   -8.6306 H   0  0  0  0  0  0
   28.2243    1.4724   -6.7813 H   0  0  0  0  0  0
   29.0403    1.4725   -4.4912 H   0  0  0  0  0  0
   31.4080    1.6321   -1.7311 H   0  0  0  0  0  0
   30.1578    2.6504   -2.3246 H   0  0  0  0  0  0
   30.2458    0.9296   -2.8151 H   0  0  0  0  0  0
  1  4  1  0  0  0
  1  2  2  0  0  0
  1 36  1  0  0  0
  2 11  1  0  0  0
  2  6  1  0  0  0
  3 12  1  0  0  0
  3  5  1  0  0  0
  3  4  2  0  0  0
  4 37  1  0  0  0
  5  9  1  0  0  0
  5  6  2  0  0  0
  6  7  1  0  0  0
  7  8  1  0  0  0
  7 38  1  0  0  0
  8  9  1  0  0  0
  8 10  2  0  0  0
 11 39  1  0  0  0
 12 23  1  0  0  0
 12 13  1  0  0  0
 12 40  1  0  0  0
 13 14  1  0  0  0
 13 41  1  0  0  0
 13 42  1  0  0  0
 14 15  1  0  0  0
 14 43  1  0  0  0
 15 16  1  0  0  0
 15 44  1  0  0  0
 15 45  1  0  0  0
 16 17  1  0  0  0
 16 46  1  0  0  0
 16 47  1  0  0  0
 17 18  2  0  0  0
 17 22  1  0  0  0
 18 19  1  0  0  0
 18 48  1  0  0  0
 19 20  2  0  0  0
 19 49  1  0  0  0
 20 21  1  0  0  0
 20 50  1  0  0  0
 21 22  2  0  0  0
 21 24  1  0  0  0
 22 51  1  0  0  0
 23 52  1  0  0  0
 24 25  1  0  0  0
 24 53  1  0  0  0
 24 54  1  0  0  0
 25 26  1  0  0  0
 25 55  1  0  0  0
 26 27  1  0  0  0
 26 56  1  0  0  0
 26 57  1  0  0  0
 27 28  1  0  0  0
 27 58  1  0  0  0
 27 59  1  0  0  0
 28 29  2  0  0  0
 28 33  1  0  0  0
 29 30  1  0  0  0
 29 60  1  0  0  0
 30 31  2  0  0  0
 30 61  1  0  0  0
 31 32  1  0  0  0
 31 62  1  0  0  0
 32 33  2  0  0  0
 32 63  1  0  0  0
 33 34  1  0  0  0
 34 35  1  0  0  0
 35 64  1  0  0  0
 35 65  1  0  0  0
 35 66  1  0  0  0
M  END
> <s_m_entry_id>
2946

> <s_m_entry_name>
dock_pv.38

> <s_m_Source_Path>
/home/csk/Desktop/cluster/DUD-E-result/adrb1

> <s_m_Source_File>
dock_pv.maegz

> <i_m_Source_File_Index>
38

> <chembl_id>
CHEMBL1944693

> <chembl_pref_name>
None

> <i_lp_mmshare_version>
53161

> <i_f3d_flags>
0

> <r_lp_tautomer_probability>
1

> <s_lp_Force_Field>
OPLS_2005

> <r_lp_Energy>
41.523725

> <b_lp_Chiralities_Consistent>
1

> <s_lp_Variant>
CHEMBL213_lig457-1

> <s_i_glide_gridfile>
glide-grid_2vt4

> <i_i_glide_lignum>
545

> <i_i_glide_rotatable_bonds>
14

> <r_i_docking_score>
-8.50752273819481

> <r_i_glide_ligand_efficiency>
-0.243072078234138

> <r_i_glide_ligand_efficiency_sa>
-0.795104885116921

> <r_i_glide_ligand_efficiency_ln>
-1.86759005532789

> <r_i_glide_gscore>
-8.50752273819481

> <r_i_glide_lipo>
-3.92407159813109

> <r_i_glide_hbond>
-0.446809297201497

> <r_i_glide_metal>
0

> <r_i_glide_rewards>
-1.6038829209543

> <r_i_glide_evdw>
-36.8663711547852

> <r_i_glide_ecoul>
-8.88833427429199

> <r_i_glide_erotb>
0.643809776975127

> <r_i_glide_esite>
0

> <r_i_glide_emodel>
-66.3271326190817

> <r_i_glide_energy>
-45.7547054290771

> <r_i_glide_einternal>
13.1379165649414

> <i_i_glide_confnum>
179

> <i_i_glide_posenum>
18

> <r_i_glide_eff_state_penalty>
0

> <s_user_duplicate_titles>
CHEMBL213_lig457

> <s_m_subgroup_title>
dock_pv

> <s_m_subgroupid>
dock_pv

> <b_m_subgroup_collapsed>
1

$$$$
CHEMBL213_lig1056
                    3D
 Schrodinger Suite 2021-1.
 71 73  0  0  1  0            999 V2000
   26.3400    4.6152    0.9194 C   0  0  0  0  0  0
   25.3250    3.6487    1.0231 C   0  0  0  0  0  0
   24.6091    3.5212    2.2105 C   0  0  0  0  0  0
   24.8841    4.3588    3.2895 C   0  0  0  0  0  0
   25.8802    5.3401    3.2078 C   0  0  0  0  0  0
   26.6087    5.4499    2.0155 C   0  0  0  0  0  0
   27.1664    4.7690   -0.3536 C   0  0  0  0  0  0
   26.6072    5.6949   -1.2627 O   0  0  0  0  0  0
   25.0084    2.8096   -0.0147 O   0  0  0  0  0  0
   26.1482    6.3025    4.3791 C   0  0  2  0  0  0
   27.2481    5.8090    5.3446 C   0  0  0  0  0  0
   25.0084    6.5495    5.1858 O   0  0  0  0  0  0
   28.5947    5.8505    4.7853 N   0  0  2  0  0  0
   29.2640    7.1392    4.8957 C   0  0  0  0  0  0
   30.7516    6.9667    4.5290 C   0  0  0  0  0  0
   31.0118    6.5322    3.0772 C   0  0  0  0  0  0
   32.5023    6.3485    2.7608 C   0  0  0  0  0  0
   32.7412    5.8499    1.3260 C   0  0  0  0  0  0
   34.2410    5.7838    0.9727 C   0  0  0  0  0  0
   34.5113    5.1712   -0.2847 O   0  0  0  0  0  0
   34.0104    5.8484   -1.4323 C   0  0  0  0  0  0
   32.8586    5.0354   -2.0419 C   0  0  0  0  0  0
   32.1196    5.8500   -2.9463 O   0  0  0  0  0  0
   31.1116    5.1520   -3.6801 C   0  0  0  0  0  0
   31.6728    4.4177   -4.9069 C   0  0  0  0  0  0
   32.6992    3.1601   -7.2138 C   0  0  0  0  0  0
   33.4610    4.0902   -6.5186 C   0  0  0  0  0  0
   32.9519    4.7139   -5.3876 C   0  0  0  0  0  0
   31.3945    2.8310   -6.7796 C   0  0  0  0  0  0
   30.8624    3.4571   -5.6033 C   0  0  0  0  0  0
   29.5467    3.0941   -5.1922 C   0  0  0  0  0  0
   28.7991    2.1726   -5.9181 C   0  0  0  0  0  0
   29.3166    1.5918   -7.0697 C   0  0  0  0  0  0
   30.6010    1.9034   -7.4978 C   0  0  0  0  0  0
   23.8344    2.7729    2.2912 H   0  0  0  0  0  0
   24.3024    4.2499    4.1928 H   0  0  0  0  0  0
   27.3783    6.2043    1.9275 H   0  0  0  0  0  0
   28.1703    5.1128   -0.0954 H   0  0  0  0  0  0
   27.2989    3.8090   -0.8536 H   0  0  0  0  0  0
   25.9700    5.2393   -1.8301 H   0  0  0  0  0  0
   24.6353    3.2627   -0.7834 H   0  0  0  0  0  0
   26.4123    7.2794    3.9758 H   0  0  0  0  0  0
   27.2424    6.3732    6.2769 H   0  0  0  0  0  0
   27.0328    4.7772    5.6187 H   0  0  0  0  0  0
   25.2646    7.1123    5.9215 H   0  0  0  0  0  0
   28.6177    5.5014    3.8348 H   0  0  0  0  0  0
   28.7912    7.8654    4.2360 H   0  0  0  0  0  0
   29.1916    7.5163    5.9180 H   0  0  0  0  0  0
   31.2656    7.9081    4.7117 H   0  0  0  0  0  0
   31.2168    6.2505    5.2054 H   0  0  0  0  0  0
   30.4807    5.6017    2.8595 H   0  0  0  0  0  0
   30.6082    7.2905    2.4100 H   0  0  0  0  0  0
   33.0160    7.2987    2.9065 H   0  0  0  0  0  0
   32.9423    5.6405    3.4668 H   0  0  0  0  0  0
   32.2867    4.8730    1.1908 H   0  0  0  0  0  0
   32.2084    6.4919    0.6266 H   0  0  0  0  0  0
   34.6897    6.7787    0.9991 H   0  0  0  0  0  0
   34.7642    5.1932    1.7253 H   0  0  0  0  0  0
   33.7102    6.8778   -1.2186 H   0  0  0  0  0  0
   34.8218    5.9224   -2.1590 H   0  0  0  0  0  0
   33.2726    4.1652   -2.5566 H   0  0  0  0  0  0
   32.1961    4.6665   -1.2591 H   0  0  0  0  0  0
   30.5802    4.4718   -3.0132 H   0  0  0  0  0  0
   30.3950    5.8884   -4.0435 H   0  0  0  0  0  0
   33.0990    2.6933   -8.1038 H   0  0  0  0  0  0
   34.4515    4.3496   -6.8680 H   0  0  0  0  0  0
   33.5687    5.4487   -4.8896 H   0  0  0  0  0  0
   29.1011    3.5343   -4.3122 H   0  0  0  0  0  0
   27.8051    1.9141   -5.5841 H   0  0  0  0  0  0
   28.7118    0.8994   -7.6330 H   0  0  0  0  0  0
   31.0021    1.4504   -8.3945 H   0  0  0  0  0  0
  1  6  1  0  0  0
  1  2  2  0  0  0
  1  7  1  0  0  0
  2  9  1  0  0  0
  2  3  1  0  0  0
  3  4  2  0  0  0
  3 35  1  0  0  0
  4  5  1  0  0  0
  4 36  1  0  0  0
  5 10  1  0  0  0
  5  6  2  0  0  0
  6 37  1  0  0  0
  7  8  1  0  0  0
  7 38  1  0  0  0
  7 39  1  0  0  0
  8 40  1  0  0  0
  9 41  1  0  0  0
 10 11  1  0  0  0
 10 12  1  0  0  0
 10 42  1  0  0  0
 11 13  1  0  0  0
 11 43  1  0  0  0
 11 44  1  0  0  0
 12 45  1  0  0  0
 13 14  1  0  0  0
 13 46  1  0  0  0
 14 15  1  0  0  0
 14 47  1  0  0  0
 14 48  1  0  0  0
 15 16  1  0  0  0
 15 49  1  0  0  0
 15 50  1  0  0  0
 16 17  1  0  0  0
 16 51  1  0  0  0
 16 52  1  0  0  0
 17 18  1  0  0  0
 17 53  1  0  0  0
 17 54  1  0  0  0
 18 19  1  0  0  0
 18 55  1  0  0  0
 18 56  1  0  0  0
 19 20  1  0  0  0
 19 57  1  0  0  0
 19 58  1  0  0  0
 20 21  1  0  0  0
 21 22  1  0  0  0
 21 59  1  0  0  0
 21 60  1  0  0  0
 22 23  1  0  0  0
 22 61  1  0  0  0
 22 62  1  0  0  0
 23 24  1  0  0  0
 24 25  1  0  0  0
 24 63  1  0  0  0
 24 64  1  0  0  0
 25 30  2  0  0  0
 25 28  1  0  0  0
 26 29  2  0  0  0
 26 27  1  0  0  0
 26 65  1  0  0  0
 27 28  2  0  0  0
 27 66  1  0  0  0
 28 67  1  0  0  0
 29 30  1  0  0  0
 29 34  1  0  0  0
 30 31  1  0  0  0
 31 32  2  0  0  0
 31 68  1  0  0  0
 32 33  1  0  0  0
 32 69  1  0  0  0
 33 34  2  0  0  0
 33 70  1  0  0  0
 34 71  1  0  0  0
M  END
> <s_m_entry_id>
2947

> <s_m_entry_name>
dock_pv.39

> <s_m_Source_Path>
/home/csk/Desktop/cluster/DUD-E-result/adrb1

> <s_m_Source_File>
dock_pv.maegz

> <i_m_Source_File_Index>
39

> <chembl_id>
CHEMBL1085837

> <chembl_pref_name>
None

> <i_lp_mmshare_version>
53161

> <i_f3d_flags>
0

> <r_lp_tautomer_probability>
0.999999999997365

> <s_lp_Force_Field>
OPLS_2005

> <r_lp_Energy>
32.834148

> <b_lp_Chiralities_Consistent>
1

> <s_lp_Variant>
CHEMBL213_lig1056-1

> <s_i_glide_gridfile>
glide-grid_2vt4

> <i_i_glide_lignum>
1224

> <i_i_glide_rotatable_bonds>
19

> <r_i_docking_score>
-8.47927379879514

> <r_i_glide_ligand_efficiency>
-0.249390405846916

> <r_i_glide_ligand_efficiency_sa>
-0.807928100957368

> <r_i_glide_ligand_efficiency_ln>
-1.87330941772787

> <r_i_glide_gscore>
-8.47927379879514

> <r_i_glide_lipo>
-4.52930988558029

> <r_i_glide_hbond>
-0.60997876066829

> <r_i_glide_metal>
0

> <r_i_glide_rewards>
-0.848472023611271

> <r_i_glide_evdw>
-52.157642364502

> <r_i_glide_ecoul>
-8.45532131195068

> <r_i_glide_erotb>
1.38466718608241

> <r_i_glide_esite>
0

> <r_i_glide_emodel>
-86.1776774250161

> <r_i_glide_energy>
-60.6129636764526

> <r_i_glide_einternal>
13.8770694732666

> <i_i_glide_confnum>
36

> <i_i_glide_posenum>
369

> <r_i_glide_eff_state_penalty>
0

> <s_user_duplicate_titles>
CHEMBL213_lig1056,631738

> <s_m_subgroup_title>
dock_pv

> <s_m_subgroupid>
dock_pv

> <b_m_subgroup_collapsed>
1

$$$$
CHEMBL213_lig1192
                    3D
 Schrodinger Suite 2021-1.
 50 52  0  0  1  0            999 V2000
   24.6080    5.0502    4.4616 C   0  0  0  0  0  0
   25.6255    5.8427    4.9899 C   0  0  0  0  0  0
   25.9244    4.5839    2.4651 C   0  0  0  0  0  0
   24.7359    4.4769    3.2048 C   0  0  0  0  0  0
   27.0160    5.2355    3.0821 C   0  0  0  0  0  0
   26.8450    5.9202    4.3074 C   0  0  0  0  0  0
   27.9340    6.6347    4.8582 N   0  0  0  0  0  0
   29.2057    6.6448    4.4081 C   0  0  0  0  0  0
   29.4055    5.8508    3.2059 C   0  0  0  0  0  0
   28.4028    5.2113    2.5666 C   0  0  0  0  0  0
   30.0763    7.2427    5.0275 O   0  0  0  0  0  0
   25.4058    6.4620    6.1984 O   0  0  0  0  0  0
   26.0084    3.9445    1.0538 C   0  0  2  0  0  0
   25.9205    4.9469   -0.0161 N   0  0  1  0  0  0
   24.8763    2.9088    0.7907 C   0  0  0  0  0  0
   25.0080    2.2500   -0.4446 O   0  0  0  0  0  0
   27.1884    5.5716   -0.3656 C   0  0  0  0  0  0
   27.0657    6.4052   -1.6544 C   0  0  0  0  0  0
   28.2121    6.1746   -2.6605 C   0  0  0  0  0  0
   28.1389    4.8166   -3.3995 C   0  0  0  0  0  0
   29.3147    4.4718   -4.3209 C   0  0  0  0  0  0
   29.4042    3.1664   -4.8169 C   0  0  0  0  0  0
   30.4511    2.8001   -5.6573 C   0  0  0  0  0  0
   31.4106    3.7445   -6.0129 C   0  0  0  0  0  0
   31.3286    5.0501   -5.5349 C   0  0  0  0  0  0
   30.2820    5.4164   -4.6921 C   0  0  0  0  0  0
   23.6757    4.9508    5.0013 H   0  0  0  0  0  0
   23.8687    3.9572    2.8342 H   0  0  0  0  0  0
   27.8203    7.1597    5.7099 H   0  0  0  0  0  0
   30.4135    5.7937    2.8229 H   0  0  0  0  0  0
   28.6508    4.6503    1.6826 H   0  0  0  0  0  0
   25.9580    7.2276    6.4010 H   0  0  0  0  0  0
   26.9416    3.3907    0.9744 H   0  0  0  0  0  0
   25.5339    4.5173   -0.8517 H   0  0  0  0  0  0
   24.8871    2.1402    1.5654 H   0  0  0  0  0  0
   23.8870    3.3700    0.8010 H   0  0  0  0  0  0
   24.3722    2.6500   -1.0627 H   0  0  0  0  0  0
   27.9521    4.8025   -0.4896 H   0  0  0  0  0  0
   27.4891    6.2408    0.4374 H   0  0  0  0  0  0
   27.0699    7.4500   -1.3487 H   0  0  0  0  0  0
   26.1085    6.2518   -2.1570 H   0  0  0  0  0  0
   29.1653    6.2498   -2.1352 H   0  0  0  0  0  0
   28.1981    6.9826   -3.3936 H   0  0  0  0  0  0
   27.2244    4.7780   -3.9940 H   0  0  0  0  0  0
   28.0516    4.0144   -2.6657 H   0  0  0  0  0  0
   28.6623    2.4302   -4.5376 H   0  0  0  0  0  0
   30.5195    1.7888   -6.0295 H   0  0  0  0  0  0
   32.2236    3.4649   -6.6655 H   0  0  0  0  0  0
   32.0695    5.7823   -5.8234 H   0  0  0  0  0  0
   30.2334    6.4377   -4.3466 H   0  0  0  0  0  0
  1  2  2  0  0  0
  1  4  1  0  0  0
  1 27  1  0  0  0
  2  6  1  0  0  0
  2 12  1  0  0  0
  3  5  1  0  0  0
  3  4  2  0  0  0
  3 13  1  0  0  0
  4 28  1  0  0  0
  5  6  2  0  0  0
  5 10  1  0  0  0
  6  7  1  0  0  0
  7  8  1  0  0  0
  7 29  1  0  0  0
  8  9  1  0  0  0
  8 11  2  0  0  0
  9 10  2  0  0  0
  9 30  1  0  0  0
 10 31  1  0  0  0
 12 32  1  0  0  0
 13 14  1  0  0  0
 13 15  1  0  0  0
 13 33  1  0  0  0
 14 17  1  0  0  0
 14 34  1  0  0  0
 15 16  1  0  0  0
 15 35  1  0  0  0
 15 36  1  0  0  0
 16 37  1  0  0  0
 17 18  1  0  0  0
 17 38  1  0  0  0
 17 39  1  0  0  0
 18 19  1  0  0  0
 18 40  1  0  0  0
 18 41  1  0  0  0
 19 20  1  0  0  0
 19 42  1  0  0  0
 19 43  1  0  0  0
 20 21  1  0  0  0
 20 44  1  0  0  0
 20 45  1  0  0  0
 21 22  2  0  0  0
 21 26  1  0  0  0
 22 23  1  0  0  0
 22 46  1  0  0  0
 23 24  2  0  0  0
 23 47  1  0  0  0
 24 25  1  0  0  0
 24 48  1  0  0  0
 25 26  2  0  0  0
 25 49  1  0  0  0
 26 50  1  0  0  0
M  END
> <s_m_entry_id>
2948

> <s_m_entry_name>
dock_pv.40

> <s_m_Source_Path>
/home/csk/Desktop/cluster/DUD-E-result/adrb1

> <s_m_Source_File>
dock_pv.maegz

> <i_m_Source_File_Index>
40

> <chembl_id>
CHEMBL4287029

> <chembl_pref_name>
None

> <i_lp_mmshare_version>
53161

> <i_f3d_flags>
0

> <r_lp_tautomer_probability>
1

> <s_lp_Force_Field>
OPLS_2005

> <r_lp_Energy>
27.981529

> <b_lp_Chiralities_Consistent>
1

> <s_lp_Variant>
CHEMBL213_lig1192-1

> <s_i_glide_gridfile>
glide-grid_2vt4

> <i_i_glide_lignum>
1396

> <i_i_glide_rotatable_bonds>
10

> <r_i_docking_score>
-8.47589156366927

> <r_i_glide_ligand_efficiency>
-0.325995829371895

> <r_i_glide_ligand_efficiency_sa>
-0.965761361782592

> <r_i_glide_ligand_efficiency_ln>
-1.99053532205909

> <r_i_glide_gscore>
-8.47589156366927

> <r_i_glide_lipo>
-3.1505740026795

> <r_i_glide_hbond>
-0.740264937200893

> <r_i_glide_metal>
0

> <r_i_glide_rewards>
-2.32440244435048

> <r_i_glide_evdw>
-36.4609909057617

> <r_i_glide_ecoul>
-10.0879373550415

> <r_i_glide_erotb>
1.07558996910591

> <r_i_glide_esite>
0

> <r_i_glide_emodel>
-66.2812154818166

> <r_i_glide_energy>
-46.5489282608032

> <r_i_glide_einternal>
9.75821781158447

> <i_i_glide_confnum>
68

> <i_i_glide_posenum>
72

> <r_i_glide_eff_state_penalty>
0

> <s_user_duplicate_titles>
CHEMBL213_lig1192

> <s_m_subgroup_title>
dock_pv

> <s_m_subgroupid>
dock_pv

> <b_m_subgroup_collapsed>
1

$$$$
CHEMBL213_lig266
                    3D
 Schrodinger Suite 2021-1.
 69 73  0  0  1  0            999 V2000
   35.3329    6.7733    3.2979 S   0  0  0  0  0  0
   28.5077    5.8259    3.6441 N   0  0  0  0  0  0
   29.3900    6.5947    4.2162 C   0  0  0  0  0  0
   27.3894    6.2048    4.2278 C   0  0  0  0  0  0
   27.5135    7.0896    5.1850 N   0  0  0  0  0  0
   28.8726    7.3838    5.1882 O   0  0  0  0  0  0
   35.7109    7.0638    1.5891 N   0  0  0  0  0  0
   33.5775    6.6969    3.5047 C   0  0  0  0  0  0
   35.8080    5.4500    3.6870 O   0  0  0  0  0  0
   35.7942    7.9701    4.0113 O   0  0  0  0  0  0
   30.8443    6.6500    3.9447 C   0  0  0  0  0  0
   31.0214    3.6382   -5.6845 C   0  0  0  0  0  0
   30.4933    1.6479   -6.9778 N   0  0  0  0  0  0
   33.0722    7.0500    4.7512 C   0  0  0  0  0  0
   32.7330    6.2523    2.4884 C   0  0  0  0  0  0
   26.0150    5.6582    3.8793 C   0  0  0  0  0  0
   31.3606    6.2407    2.7105 C   0  0  0  0  0  0
   31.7030    7.0500    4.9657 C   0  0  0  0  0  0
   35.6330    6.1455    0.5338 C   0  0  0  0  0  0
   31.9673    4.8242   -5.4447 C   0  0  1  0  0  0
   25.8762    4.8563    2.5863 C   0  0  0  0  0  0
   25.5404    3.3838    0.2595 C   0  0  0  0  0  0
   33.2878    3.7022   -3.6278 N   0  0  2  0  0  0
   25.4080    2.6500   -0.8565 F   0  0  0  0  0  0
   35.6531    4.5184   -1.7328 C   0  0  0  0  0  0
   31.2967    2.7075   -6.6964 C   0  0  0  0  0  0
   35.2646    6.6598   -0.7088 C   0  0  0  0  0  0
   35.9893    4.7971    0.6461 C   0  0  0  0  0  0
   24.7721    3.0806    1.3774 C   0  0  0  0  0  0
   26.4463    4.4357    0.2730 C   0  0  0  0  0  0
   24.9356    3.8259    2.5390 C   0  0  0  0  0  0
   26.6080    5.1794    1.4342 C   0  0  0  0  0  0
   35.2603    5.8485   -1.8350 C   0  0  0  0  0  0
   36.0055    3.9857   -0.4896 C   0  0  0  0  0  0
   31.4080    5.8501   -4.6437 O   0  0  0  0  0  0
   33.3633    4.4193   -4.9023 C   0  0  0  0  0  0
   29.8501    3.4499   -4.9342 C   0  0  0  0  0  0
   29.3659    1.4956   -6.2376 C   0  0  0  0  0  0
   34.4724    2.8939   -3.3503 C   0  0  0  0  0  0
   35.7471    3.6848   -3.0019 C   0  0  0  0  0  0
   29.0080    2.3728   -5.2150 C   0  0  0  0  0  0
   35.6375    8.0311    1.3221 H   0  0  0  0  0  0
   33.7343    7.3661    5.5441 H   0  0  0  0  0  0
   33.1220    5.9412    1.5307 H   0  0  0  0  0  0
   25.6644    5.0500    4.7131 H   0  0  0  0  0  0
   25.3035    6.4822    3.8169 H   0  0  0  0  0  0
   30.7028    5.8927    1.9275 H   0  0  0  0  0  0
   31.3214    7.3524    5.9291 H   0  0  0  0  0  0
   32.1259    5.2933   -6.4150 H   0  0  0  0  0  0
   32.4349    3.1599   -3.5748 H   0  0  0  0  0  0
   32.1789    2.8057   -7.3122 H   0  0  0  0  0  0
   35.0079    7.7032   -0.8175 H   0  0  0  0  0  0
   36.3010    4.3723    1.5850 H   0  0  0  0  0  0
   24.0607    2.2697    1.3396 H   0  0  0  0  0  0
   27.0133    4.6683   -0.6167 H   0  0  0  0  0  0
   24.3339    3.5952    3.4036 H   0  0  0  0  0  0
   27.2957    6.0113    1.4202 H   0  0  0  0  0  0
   34.9862    6.2500   -2.7981 H   0  0  0  0  0  0
   36.3226    2.9556   -0.4065 H   0  0  0  0  0  0
   31.4035    6.6692   -5.1572 H   0  0  0  0  0  0
   33.8458    3.7900   -5.6526 H   0  0  0  0  0  0
   33.9939    5.3032   -4.7933 H   0  0  0  0  0  0
   29.5835    4.1337   -4.1409 H   0  0  0  0  0  0
   28.7365    0.6506   -6.4741 H   0  0  0  0  0  0
   34.2211    2.2564   -2.5023 H   0  0  0  0  0  0
   34.6729    2.2499   -4.2010 H   0  0  0  0  0  0
   36.5843    2.9923   -2.8982 H   0  0  0  0  0  0
   36.0309    4.3300   -3.8354 H   0  0  0  0  0  0
   28.0994    2.2240   -4.6472 H   0  0  0  0  0  0
  1  7  1  0  0  0
  1  8  1  0  0  0
  1  9  2  0  0  0
  1 10  2  0  0  0
  2  3  2  0  0  0
  2  4  1  0  0  0
  3 11  1  0  0  0
  3  6  1  0  0  0
  4 16  1  0  0  0
  4  5  2  0  0  0
  5  6  1  0  0  0
  7 19  1  0  0  0
  7 42  1  0  0  0
  8 14  1  0  0  0
  8 15  2  0  0  0
 11 17  2  0  0  0
 11 18  1  0  0  0
 12 20  1  0  0  0
 12 26  1  0  0  0
 12 37  2  0  0  0
 13 26  2  0  0  0
 13 38  1  0  0  0
 14 18  2  0  0  0
 14 43  1  0  0  0
 15 17  1  0  0  0
 15 44  1  0  0  0
 16 21  1  0  0  0
 16 45  1  0  0  0
 16 46  1  0  0  0
 17 47  1  0  0  0
 18 48  1  0  0  0
 19 27  1  0  0  0
 19 28  2  0  0  0
 20 36  1  0  0  0
 20 35  1  0  0  0
 20 49  1  0  0  0
 21 31  1  0  0  0
 21 32  2  0  0  0
 22 30  2  0  0  0
 22 24  1  0  0  0
 22 29  1  0  0  0
 23 39  1  0  0  0
 23 36  1  0  0  0
 23 50  1  0  0  0
 25 34  2  0  0  0
 25 40  1  0  0  0
 25 33  1  0  0  0
 26 51  1  0  0  0
 27 33  2  0  0  0
 27 52  1  0  0  0
 28 34  1  0  0  0
 28 53  1  0  0  0
 29 31  2  0  0  0
 29 54  1  0  0  0
 30 32  1  0  0  0
 30 55  1  0  0  0
 31 56  1  0  0  0
 32 57  1  0  0  0
 33 58  1  0  0  0
 34 59  1  0  0  0
 35 60  1  0  0  0
 36 61  1  0  0  0
 36 62  1  0  0  0
 37 41  1  0  0  0
 37 63  1  0  0  0
 38 41  2  0  0  0
 38 64  1  0  0  0
 39 40  1  0  0  0
 39 65  1  0  0  0
 39 66  1  0  0  0
 40 67  1  0  0  0
 40 68  1  0  0  0
 41 69  1  0  0  0
M  END
> <s_m_entry_id>
2949

> <s_m_entry_name>
dock_pv.41

> <s_m_Source_Path>
/home/csk/Desktop/cluster/DUD-E-result/adrb1

> <s_m_Source_File>
dock_pv.maegz

> <i_m_Source_File_Index>
41

> <chembl_id>
CHEMBL285240

> <chembl_pref_name>
None

> <i_lp_mmshare_version>
53161

> <i_f3d_flags>
0

> <r_lp_tautomer_probability>
1

> <s_lp_Force_Field>
OPLS_2005

> <r_lp_Energy>
29.04793

> <b_lp_Chiralities_Consistent>
1

> <s_lp_Variant>
CHEMBL213_lig266-1

> <s_i_glide_gridfile>
glide-grid_2vt4

> <i_i_glide_lignum>
301

> <i_i_glide_rotatable_bonds>
13

> <r_i_docking_score>
-8.44246718402206

> <r_i_glide_ligand_efficiency>
-0.205913833756636

> <r_i_glide_ligand_efficiency_sa>
-0.710035630714011

> <r_i_glide_ligand_efficiency_ln>
-1.79109750833299

> <r_i_glide_gscore>
-8.44246718402206

> <r_i_glide_lipo>
-3.45151707434344

> <r_i_glide_hbond>
-0.32

> <r_i_glide_metal>
0

> <r_i_glide_rewards>
-0.813639190875179

> <r_i_glide_evdw>
-61.6024322509766

> <r_i_glide_ecoul>
-7.8748722076416

> <r_i_glide_erotb>
0.604041524891635

> <r_i_glide_esite>
-0.2

> <r_i_glide_emodel>
-96.7506736738327

> <r_i_glide_energy>
-69.4773044586182

> <r_i_glide_einternal>
7.93420314788818

> <i_i_glide_confnum>
48

> <i_i_glide_posenum>
40

> <r_i_glide_eff_state_penalty>
0

> <s_user_duplicate_titles>
CHEMBL213_lig266

> <s_m_subgroup_title>
dock_pv

> <s_m_subgroupid>
dock_pv

> <b_m_subgroup_collapsed>
1

$$$$
CHEMBL213_lig951
                    3D
 Schrodinger Suite 2021-1.
 58 60  0  0  1  0            999 V2000
   26.1876    3.8332    0.4119 C   0  0  0  0  0  0
   25.0301    3.0801    0.5835 C   0  0  0  0  0  0
   24.2993    3.1631    1.7642 C   0  0  0  0  0  0
   24.7304    3.9992    2.7850 C   0  0  0  0  0  0
   25.9107    4.7243    2.6506 C   0  0  0  0  0  0
   26.6347    4.6499    1.4479 C   0  0  0  0  0  0
   24.6080    2.2500   -0.4150 O   0  0  0  0  0  0
   26.2694    5.4930    3.7370 O   0  0  0  0  0  0
   27.6186    5.9274    3.8578 C   0  0  0  0  0  0
   27.7486    6.9049    5.0420 C   0  0  2  0  0  0
   29.1039    7.6469    5.0634 C   0  0  0  0  0  0
   30.2515    6.7411    5.0375 N   0  0  2  0  0  0
   31.5021    7.4500    4.8136 C   0  0  0  0  0  0
   32.6539    6.5708    4.2759 C   0  0  0  0  0  0
   32.5995    6.2168    2.7851 C   0  0  0  0  0  0
   33.7728    6.1980    2.0202 C   0  0  0  0  0  0
   33.7342    5.8252    0.6721 C   0  0  0  0  0  0
   32.5240    5.4500    0.0750 C   0  0  0  0  0  0
   31.3582    5.4500    0.8541 C   0  0  0  0  0  0
   31.3976    5.8433    2.1830 C   0  0  0  0  0  0
   32.5545    5.0500   -1.2810 N   0  0  0  0  0  0
   31.5170    4.7941   -2.1159 C   0  0  0  0  0  0
   31.8838    4.1943   -3.4843 C   0  0  0  0  0  0
   30.3403    5.0499   -1.8624 O   0  0  0  0  0  0
   27.5297    6.2499    6.2790 O   0  0  0  0  0  0
   30.8082    3.2845   -4.0917 C   0  0  0  0  0  0
   31.0080    1.9009   -4.1546 C   0  0  0  0  0  0
   30.0696    1.1045   -4.8150 C   0  0  0  0  0  0
   28.9252    1.6011   -5.3431 N   0  0  0  0  0  0
   28.7047    2.9333   -5.2150 C   0  0  0  0  0  0
   29.6207    3.8076   -4.6209 C   0  0  0  0  0  0
   26.7452    3.7682   -0.5123 H   0  0  0  0  0  0
   23.4080    2.5779    1.9027 H   0  0  0  0  0  0
   24.1613    4.0705    3.6990 H   0  0  0  0  0  0
   27.5428    5.2091    1.2907 H   0  0  0  0  0  0
   24.0079    2.7050   -1.0399 H   0  0  0  0  0  0
   27.9369    6.4544    2.9594 H   0  0  0  0  0  0
   28.2801    5.0674    3.9813 H   0  0  0  0  0  0
   26.9591    7.6522    4.9440 H   0  0  0  0  0  0
   29.1518    8.3098    5.9285 H   0  0  0  0  0  0
   29.1447    8.2782    4.1763 H   0  0  0  0  0  0
   30.1508    5.9735    4.3850 H   0  0  0  0  0  0
   31.8079    7.9288    5.7408 H   0  0  0  0  0  0
   31.3341    8.2370    4.0750 H   0  0  0  0  0  0
   32.7456    5.6590    4.8650 H   0  0  0  0  0  0
   33.5770    7.1242    4.4525 H   0  0  0  0  0  0
   34.7176    6.4725    2.4646 H   0  0  0  0  0  0
   34.6511    5.8223    0.1008 H   0  0  0  0  0  0
   30.4038    5.1354    0.4656 H   0  0  0  0  0  0
   30.4747    5.8061    2.7317 H   0  0  0  0  0  0
   33.4799    4.9037   -1.6543 H   0  0  0  0  0  0
   32.8426    3.6759   -3.4385 H   0  0  0  0  0  0
   32.0154    5.0428   -4.1564 H   0  0  0  0  0  0
   27.2957    6.9294    6.9221 H   0  0  0  0  0  0
   31.8857    1.4520   -3.7153 H   0  0  0  0  0  0
   30.2080    0.0365   -4.8947 H   0  0  0  0  0  0
   27.7607    3.2925   -5.5979 H   0  0  0  0  0  0
   29.4083    4.8654   -4.5635 H   0  0  0  0  0  0
  1  6  1  0  0  0
  1  2  2  0  0  0
  1 32  1  0  0  0
  2  3  1  0  0  0
  2  7  1  0  0  0
  3  4  2  0  0  0
  3 33  1  0  0  0
  4  5  1  0  0  0
  4 34  1  0  0  0
  5  8  1  0  0  0
  5  6  2  0  0  0
  6 35  1  0  0  0
  7 36  1  0  0  0
  8  9  1  0  0  0
  9 10  1  0  0  0
  9 37  1  0  0  0
  9 38  1  0  0  0
 10 11  1  0  0  0
 10 25  1  0  0  0
 10 39  1  0  0  0
 11 12  1  0  0  0
 11 40  1  0  0  0
 11 41  1  0  0  0
 12 13  1  0  0  0
 12 42  1  0  0  0
 13 14  1  0  0  0
 13 43  1  0  0  0
 13 44  1  0  0  0
 14 15  1  0  0  0
 14 45  1  0  0  0
 14 46  1  0  0  0
 15 16  2  0  0  0
 15 20  1  0  0  0
 16 17  1  0  0  0
 16 47  1  0  0  0
 17 18  2  0  0  0
 17 48  1  0  0  0
 18 19  1  0  0  0
 18 21  1  0  0  0
 19 20  2  0  0  0
 19 49  1  0  0  0
 20 50  1  0  0  0
 21 22  1  0  0  0
 21 51  1  0  0  0
 22 23  1  0  0  0
 22 24  2  0  0  0
 23 26  1  0  0  0
 23 52  1  0  0  0
 23 53  1  0  0  0
 25 54  1  0  0  0
 26 27  2  0  0  0
 26 31  1  0  0  0
 27 28  1  0  0  0
 27 55  1  0  0  0
 28 29  2  0  0  0
 28 56  1  0  0  0
 29 30  1  0  0  0
 30 31  2  0  0  0
 30 57  1  0  0  0
 31 58  1  0  0  0
M  END
> <s_m_entry_id>
2950

> <s_m_entry_name>
dock_pv.42

> <s_m_Source_Path>
/home/csk/Desktop/cluster/DUD-E-result/adrb1

> <s_m_Source_File>
dock_pv.maegz

> <i_m_Source_File_Index>
42

> <chembl_id>
CHEMBL561693

> <chembl_pref_name>
None

> <i_lp_mmshare_version>
53161

> <i_f3d_flags>
0

> <r_lp_tautomer_probability>
0.999999999999998

> <s_lp_Force_Field>
OPLS_2005

> <r_lp_Energy>
30.492643

> <b_lp_Chiralities_Consistent>
1

> <s_lp_Variant>
CHEMBL213_lig951-1

> <s_i_glide_gridfile>
glide-grid_2vt4

> <i_i_glide_lignum>
1063

> <i_i_glide_rotatable_bonds>
14

> <r_i_docking_score>
-8.43996212770614

> <r_i_glide_ligand_efficiency>
-0.27225684282923

> <r_i_glide_ligand_efficiency_sa>
-0.855262377565922

> <r_i_glide_ligand_efficiency_ln>
-1.90347011357381

> <r_i_glide_gscore>
-8.43996212770614

> <r_i_glide_lipo>
-3.44186258380747

> <r_i_glide_hbond>
-0.646039391720902

> <r_i_glide_metal>
0

> <r_i_glide_rewards>
-1.6159265071665

> <r_i_glide_evdw>
-39.5253791809082

> <r_i_glide_ecoul>
-13.2397966384888

> <r_i_glide_erotb>
1.22610480980746

> <r_i_glide_esite>
0

> <r_i_glide_emodel>
-76.5283155907563

> <r_i_glide_energy>
-52.765175819397

> <r_i_glide_einternal>
12.5515079498291

> <i_i_glide_confnum>
16

> <i_i_glide_posenum>
201

> <r_i_glide_eff_state_penalty>
0

> <s_user_duplicate_titles>
CHEMBL213_lig951,556002

> <s_m_subgroup_title>
dock_pv

> <s_m_subgroupid>
dock_pv

> <b_m_subgroup_collapsed>
1

$$$$
CHEMBL213_lig281
                    3D
 Schrodinger Suite 2021-1.
 71 75  0  0  1  0            999 V2000
   35.4600    6.4549    2.3589 S   0  0  0  0  0  0
   28.7235    5.9726    3.5849 N   0  0  0  0  0  0
   27.6507    6.3717    4.2134 C   0  0  0  0  0  0
   29.6737    6.6882    4.1556 C   0  0  0  0  0  0
   29.2936    7.4538    5.1580 N   0  0  0  0  0  0
   27.9161    7.2796    5.1849 O   0  0  0  0  0  0
   35.6284    6.8292    0.6335 N   0  0  0  0  0  0
   33.7478    6.5607    2.8314 C   0  0  0  0  0  0
   26.1837    6.1295    3.8683 C   0  0  1  0  0  0
   35.8080    5.0500    2.5552 O   0  0  0  0  0  0
   36.1722    7.5191    3.0762 O   0  0  0  0  0  0
   31.0925    6.6498    3.6803 C   0  0  0  0  0  0
   25.8953    5.0495    2.7976 C   0  0  0  0  0  0
   30.5490    3.1736   -5.6881 C   0  0  0  0  0  0
   30.7838    1.4501   -7.3748 N   0  0  0  0  0  0
   32.7362    6.1099    1.9851 C   0  0  0  0  0  0
   33.4431    7.0145    4.1112 C   0  0  0  0  0  0
   32.1221    7.0499    4.5353 C   0  0  0  0  0  0
   31.4118    6.1695    2.4043 C   0  0  0  0  0  0
   35.3427    5.9157   -0.3882 C   0  0  0  0  0  0
   24.8576    4.1205    2.9605 C   0  0  0  0  0  0
   26.6079    5.0501    1.5854 C   0  0  0  0  0  0
   29.8727    3.6839   -4.4195 C   0  0  1  0  0  0
   25.4076    5.9758    5.0940 N   0  0  0  0  0  0
   25.3063    3.1815    0.7910 C   0  0  0  0  0  0
   24.5744    3.1819    1.9726 C   0  0  0  0  0  0
   26.3101    4.1232    0.5860 C   0  0  0  0  0  0
   31.8830    3.5327   -2.9274 N   0  0  2  0  0  0
   25.0425    2.2529   -0.1548 F   0  0  0  0  0  0
   34.7008    4.1814   -2.4750 C   0  0  0  0  0  0
   30.1419    1.9857   -6.3076 C   0  0  0  0  0  0
   34.5722    6.3625   -1.4570 C   0  0  0  0  0  0
   35.8407    4.6084   -0.3929 C   0  0  0  0  0  0
   34.2498    5.5004   -2.4967 C   0  0  0  0  0  0
   35.5185    3.7403   -1.4329 C   0  0  0  0  0  0
   28.4755    3.4496   -4.4151 O   0  0  0  0  0  0
   30.4985    3.0995   -3.1249 C   0  0  0  0  0  0
   31.6598    3.8442   -6.2175 C   0  0  0  0  0  0
   31.8759    2.1013   -7.8500 C   0  0  0  0  0  0
   32.8851    2.5917   -3.4322 C   0  0  0  0  0  0
   34.2830    3.2364   -3.5951 C   0  0  0  0  0  0
   32.3480    3.2934   -7.2978 C   0  0  0  0  0  0
   35.4932    7.8018    0.4115 H   0  0  0  0  0  0
   25.8040    7.0476    3.4168 H   0  0  0  0  0  0
   32.9675    5.7219    1.0044 H   0  0  0  0  0  0
   34.2246    7.3365    4.7840 H   0  0  0  0  0  0
   31.9072    7.4104    5.5315 H   0  0  0  0  0  0
   30.6358    5.8260    1.7373 H   0  0  0  0  0  0
   24.2566    4.1164    3.8565 H   0  0  0  0  0  0
   27.3762    5.7840    1.3929 H   0  0  0  0  0  0
   29.9717    4.7700   -4.3927 H   0  0  0  0  0  0
   25.8475    5.2862    5.6896 H   0  0  0  0  0  0
   25.3966    6.8502    5.6083 H   0  0  0  0  0  0
   23.7863    2.4583    2.1172 H   0  0  0  0  0  0
   26.8572    4.1248   -0.3454 H   0  0  0  0  0  0
   32.0644    3.7391   -1.9552 H   0  0  0  0  0  0
   29.2949    1.4297   -5.9303 H   0  0  0  0  0  0
   34.2096    7.3779   -1.4797 H   0  0  0  0  0  0
   36.4879    4.2511    0.3934 H   0  0  0  0  0  0
   33.6325    5.8473   -3.3135 H   0  0  0  0  0  0
   35.8969    2.7284   -1.4211 H   0  0  0  0  0  0
   28.2386    2.9388   -3.6316 H   0  0  0  0  0  0
   29.9246    3.4711   -2.2733 H   0  0  0  0  0  0
   30.4278    2.0097   -3.1066 H   0  0  0  0  0  0
   32.0127    4.7613   -5.7660 H   0  0  0  0  0  0
   32.3734    1.6503   -8.6954 H   0  0  0  0  0  0
   32.9287    1.7002   -2.8151 H   0  0  0  0  0  0
   32.5709    2.2507   -4.4135 H   0  0  0  0  0  0
   35.0379    2.4573   -3.7148 H   0  0  0  0  0  0
   34.3109    3.7950   -4.5317 H   0  0  0  0  0  0
   33.2201    3.7840   -7.7049 H   0  0  0  0  0  0
  1  7  1  0  0  0
  1  8  1  0  0  0
  1 10  2  0  0  0
  1 11  2  0  0  0
  2  4  1  0  0  0
  2  3  2  0  0  0
  3  9  1  0  0  0
  3  6  1  0  0  0
  4 12  1  0  0  0
  4  5  2  0  0  0
  5  6  1  0  0  0
  7 20  1  0  0  0
  7 43  1  0  0  0
  8 16  2  0  0  0
  8 17  1  0  0  0
  9 13  1  0  0  0
  9 24  1  0  0  0
  9 44  1  0  0  0
 12 18  1  0  0  0
 12 19  2  0  0  0
 13 21  1  0  0  0
 13 22  2  0  0  0
 14 23  1  0  0  0
 14 31  1  0  0  0
 14 38  2  0  0  0
 15 31  2  0  0  0
 15 39  1  0  0  0
 16 19  1  0  0  0
 16 45  1  0  0  0
 17 18  2  0  0  0
 17 46  1  0  0  0
 18 47  1  0  0  0
 19 48  1  0  0  0
 20 32  2  0  0  0
 20 33  1  0  0  0
 21 26  2  0  0  0
 21 49  1  0  0  0
 22 27  1  0  0  0
 22 50  1  0  0  0
 23 37  1  0  0  0
 23 36  1  0  0  0
 23 51  1  0  0  0
 24 52  1  0  0  0
 24 53  1  0  0  0
 25 27  2  0  0  0
 25 29  1  0  0  0
 25 26  1  0  0  0
 26 54  1  0  0  0
 27 55  1  0  0  0
 28 40  1  0  0  0
 28 37  1  0  0  0
 28 56  1  0  0  0
 30 35  1  0  0  0
 30 41  1  0  0  0
 30 34  2  0  0  0
 31 57  1  0  0  0
 32 34  1  0  0  0
 32 58  1  0  0  0
 33 35  2  0  0  0
 33 59  1  0  0  0
 34 60  1  0  0  0
 35 61  1  0  0  0
 36 62  1  0  0  0
 37 63  1  0  0  0
 37 64  1  0  0  0
 38 42  1  0  0  0
 38 65  1  0  0  0
 39 42  2  0  0  0
 39 66  1  0  0  0
 40 41  1  0  0  0
 40 67  1  0  0  0
 40 68  1  0  0  0
 41 69  1  0  0  0
 41 70  1  0  0  0
 42 71  1  0  0  0
M  END
> <s_m_entry_id>
2951

> <s_m_entry_name>
dock_pv.43

> <s_m_Source_Path>
/home/csk/Desktop/cluster/DUD-E-result/adrb1

> <s_m_Source_File>
dock_pv.maegz

> <i_m_Source_File_Index>
43

> <chembl_id>
CHEMBL32891

> <chembl_pref_name>
None

> <i_lp_mmshare_version>
53161

> <i_f3d_flags>
0

> <r_lp_tautomer_probability>
1

> <s_lp_Force_Field>
OPLS_2005

> <r_lp_Energy>
23.182996

> <b_lp_Chiralities_Consistent>
1

> <s_lp_Variant>
CHEMBL213_lig281-2

> <s_i_glide_gridfile>
glide-grid_2vt4

> <i_i_glide_lignum>
319

> <i_i_glide_rotatable_bonds>
13

> <r_i_docking_score>
-8.42865779800947

> <r_i_glide_ligand_efficiency>
-0.200682328524035

> <r_i_glide_ligand_efficiency_sa>
-0.697577120238297

> <r_i_glide_ligand_efficiency_ln>
-1.7790725139385

> <r_i_glide_gscore>
-8.42865779800947

> <r_i_glide_lipo>
-3.98314108607746

> <r_i_glide_hbond>
-0.32

> <r_i_glide_metal>
0

> <r_i_glide_rewards>
-0.657177577981516

> <r_i_glide_evdw>
-61.7533874511719

> <r_i_glide_ecoul>
-5.46372985839844

> <r_i_glide_erotb>
0.557651540187669

> <r_i_glide_esite>
-0.118761822819799

> <r_i_glide_emodel>
-90.7966376941303

> <r_i_glide_energy>
-67.2171173095703

> <r_i_glide_einternal>
12.8447933197021

> <i_i_glide_confnum>
20

> <i_i_glide_posenum>
183

> <r_i_glide_eff_state_penalty>
0

> <s_user_duplicate_titles>
CHEMBL213_lig281

> <s_m_subgroup_title>
dock_pv

> <s_m_subgroupid>
dock_pv

> <b_m_subgroup_collapsed>
1

$$$$
CHEMBL213_lig777
                    3D
 Schrodinger Suite 2021-1.
 72 73  0  0  1  0            999 V2000
   26.1133    4.2502    0.9334 C   0  0  0  0  0  0
   24.9382    3.5644    1.2677 C   0  0  0  0  0  0
   24.3939    3.7160    2.5389 C   0  0  0  0  0  0
   25.0063    4.5403    3.4842 C   0  0  0  0  0  0
   26.1777    5.2386    3.1740 C   0  0  0  0  0  0
   26.7162    5.0839    1.8856 C   0  0  0  0  0  0
   26.7555    4.1132   -0.4414 C   0  0  0  0  0  0
   26.6083    5.2810   -1.2153 O   0  0  0  0  0  0
   24.2880    2.7387    0.3850 O   0  0  0  0  0  0
   26.8200    6.2157    4.1811 C   0  0  2  0  0  0
   28.3404    5.9737    4.3754 C   0  0  0  0  0  0
   26.1937    6.2489    5.4581 O   0  0  0  0  0  0
   29.0529    7.1729    4.8345 N   0  0  2  0  0  0
   30.5164    7.0508    4.8459 C   0  0  0  0  0  0
   31.1107    6.7208    3.4606 C   0  0  0  0  0  0
   32.6454    6.7914    3.3745 C   0  0  0  0  0  0
   33.1633    6.2494    2.0247 C   0  0  0  0  0  0
   34.6506    6.5569    1.7575 C   0  0  0  0  0  0
   35.0995    6.2408    0.3176 C   0  0  0  0  0  0
   34.9008    4.8569    0.0521 O   0  0  0  0  0  0
   35.2929    4.4026   -1.2421 C   0  0  0  0  0  0
   34.3978    4.9232   -2.3885 C   0  0  0  0  0  0
   32.8925    4.6789   -2.1524 C   0  0  0  0  0  0
   31.9694    5.2255   -3.2618 C   0  0  0  0  0  0
   31.9299    4.3840   -4.5327 C   0  0  0  0  0  0
   31.7473    2.9060   -6.9020 C   0  0  0  0  0  0
   32.7176    3.8991   -6.7707 C   0  0  0  0  0  0
   32.8050    4.6439   -5.5935 C   0  0  0  0  0  0
   30.8707    2.6432   -5.8487 C   0  0  0  0  0  0
   30.9759    3.3709   -4.6599 C   0  0  0  0  0  0
   29.5883    1.4069   -6.0092 S   0  0  0  0  0  0
   28.2082    2.1033   -5.2144 N   0  0  0  0  0  0
   29.2639    1.2719   -7.4332 O   0  0  0  0  0  0
   30.0029    0.2501   -5.2147 O   0  0  0  0  0  0
   23.4809    3.1955    2.7861 H   0  0  0  0  0  0
   24.5381    4.6493    4.4513 H   0  0  0  0  0  0
   27.6014    5.6352    1.6020 H   0  0  0  0  0  0
   27.8190    3.9069   -0.3327 H   0  0  0  0  0  0
   26.3443    3.2688   -0.9976 H   0  0  0  0  0  0
   26.0436    5.0606   -1.9742 H   0  0  0  0  0  0
   24.1753    3.0903   -0.5105 H   0  0  0  0  0  0
   26.6379    7.1909    3.7339 H   0  0  0  0  0  0
   28.5082    5.1277    5.0415 H   0  0  0  0  0  0
   28.7494    5.6855    3.4126 H   0  0  0  0  0  0
   26.5262    7.0045    5.9532 H   0  0  0  0  0  0
   28.7162    7.4699    5.7410 H   0  0  0  0  0  0
   30.9211    8.0043    5.1841 H   0  0  0  0  0  0
   30.8516    6.3227    5.5842 H   0  0  0  0  0  0
   30.8149    5.7172    3.1583 H   0  0  0  0  0  0
   30.6916    7.4118    2.7348 H   0  0  0  0  0  0
   32.9596    7.8262    3.5052 H   0  0  0  0  0  0
   33.0954    6.2245    4.1881 H   0  0  0  0  0  0
   33.0035    5.1757    1.9694 H   0  0  0  0  0  0
   32.5485    6.6490    1.2205 H   0  0  0  0  0  0
   34.8430    7.6115    1.9540 H   0  0  0  0  0  0
   35.2688    6.0015    2.4628 H   0  0  0  0  0  0
   34.5372    6.8551   -0.3847 H   0  0  0  0  0  0
   36.1546    6.4939    0.1992 H   0  0  0  0  0  0
   36.3375    4.6465   -1.4287 H   0  0  0  0  0  0
   35.2448    3.3136   -1.2255 H   0  0  0  0  0  0
   34.5818    5.9861   -2.5435 H   0  0  0  0  0  0
   34.7047    4.4364   -3.3146 H   0  0  0  0  0  0
   32.7069    3.6127   -2.0128 H   0  0  0  0  0  0
   32.6090    5.1544   -1.2101 H   0  0  0  0  0  0
   30.9493    5.2926   -2.8737 H   0  0  0  0  0  0
   32.2287    6.2501   -3.5191 H   0  0  0  0  0  0
   31.6761    2.3493   -7.8255 H   0  0  0  0  0  0
   33.3941    4.1085   -7.5860 H   0  0  0  0  0  0
   33.5427    5.4305   -5.5142 H   0  0  0  0  0  0
   30.2996    3.1687   -3.8425 H   0  0  0  0  0  0
   27.3018    1.9461   -5.6688 H   0  0  0  0  0  0
   28.1625    1.8740   -4.2141 H   0  0  0  0  0  0
  1  6  1  0  0  0
  1  2  2  0  0  0
  1  7  1  0  0  0
  2  9  1  0  0  0
  2  3  1  0  0  0
  3  4  2  0  0  0
  3 35  1  0  0  0
  4  5  1  0  0  0
  4 36  1  0  0  0
  5 10  1  0  0  0
  5  6  2  0  0  0
  6 37  1  0  0  0
  7  8  1  0  0  0
  7 38  1  0  0  0
  7 39  1  0  0  0
  8 40  1  0  0  0
  9 41  1  0  0  0
 10 11  1  0  0  0
 10 12  1  0  0  0
 10 42  1  0  0  0
 11 13  1  0  0  0
 11 43  1  0  0  0
 11 44  1  0  0  0
 12 45  1  0  0  0
 13 14  1  0  0  0
 13 46  1  0  0  0
 14 15  1  0  0  0
 14 47  1  0  0  0
 14 48  1  0  0  0
 15 16  1  0  0  0
 15 49  1  0  0  0
 15 50  1  0  0  0
 16 17  1  0  0  0
 16 51  1  0  0  0
 16 52  1  0  0  0
 17 18  1  0  0  0
 17 53  1  0  0  0
 17 54  1  0  0  0
 18 19  1  0  0  0
 18 55  1  0  0  0
 18 56  1  0  0  0
 19 20  1  0  0  0
 19 57  1  0  0  0
 19 58  1  0  0  0
 20 21  1  0  0  0
 21 22  1  0  0  0
 21 59  1  0  0  0
 21 60  1  0  0  0
 22 23  1  0  0  0
 22 61  1  0  0  0
 22 62  1  0  0  0
 23 24  1  0  0  0
 23 63  1  0  0  0
 23 64  1  0  0  0
 24 25  1  0  0  0
 24 65  1  0  0  0
 24 66  1  0  0  0
 25 30  2  0  0  0
 25 28  1  0  0  0
 26 29  2  0  0  0
 26 27  1  0  0  0
 26 67  1  0  0  0
 27 28  2  0  0  0
 27 68  1  0  0  0
 28 69  1  0  0  0
 29 30  1  0  0  0
 29 31  1  0  0  0
 30 70  1  0  0  0
 31 32  1  0  0  0
 31 33  2  0  0  0
 31 34  2  0  0  0
 32 71  1  0  0  0
 32 72  1  0  0  0
M  END
> <s_m_entry_id>
2952

> <s_m_entry_name>
dock_pv.44

> <s_m_Source_Path>
/home/csk/Desktop/cluster/DUD-E-result/adrb1

> <s_m_Source_File>
dock_pv.maegz

> <i_m_Source_File_Index>
44

> <chembl_id>
CHEMBL446840

> <chembl_pref_name>
None

> <i_lp_mmshare_version>
53161

> <i_f3d_flags>
1

> <r_lp_tautomer_probability>
0.999999999997365

> <s_lp_Force_Field>
OPLS_2005

> <r_lp_Energy>
26.506343

> <b_lp_Chiralities_Consistent>
1

> <s_lp_Variant>
CHEMBL213_lig777-1

> <s_i_glide_gridfile>
glide-grid_2vt4

> <i_i_glide_lignum>
885

> <i_i_glide_rotatable_bonds>
20

> <r_i_docking_score>
-8.42367695225954

> <r_i_glide_ligand_efficiency>
-0.247755204478222

> <r_i_glide_ligand_efficiency_sa>
-0.802630683312108

> <r_i_glide_ligand_efficiency_ln>
-1.86102651488944

> <r_i_glide_gscore>
-8.42367695225954

> <r_i_glide_lipo>
-3.70330279945616

> <r_i_glide_hbond>
-0.95605145099236

> <r_i_glide_metal>
0

> <r_i_glide_rewards>
-0.39352807231671

> <r_i_glide_evdw>
-55.1056327819824

> <r_i_glide_ecoul>
-12.5726928710938

> <r_i_glide_erotb>
1.33270688036291

> <r_i_glide_esite>
-0.062315940094038

> <r_i_glide_emodel>
-97.6341653976115

> <r_i_glide_energy>
-67.6783256530762

> <r_i_glide_einternal>
10.5806741714478

> <i_i_glide_confnum>
60

> <i_i_glide_posenum>
76

> <r_i_glide_eff_state_penalty>
0

> <s_user_duplicate_titles>
CHEMBL213_lig777,476261

> <s_m_subgroup_title>
dock_pv

> <s_m_subgroupid>
dock_pv

> <b_m_subgroup_collapsed>
1

$$$$
CHEMBL213_lig695
                    3D
 Schrodinger Suite 2021-1.
 51 53  0  0  1  0            999 V2000
   27.1535    5.6680    3.4285 C   0  0  0  0  0  0
   34.2063    4.5810   -4.9301 C   0  0  0  0  0  0
   34.4506    5.0502   -3.6409 C   0  0  0  0  0  0
   33.5345    4.8004   -2.6203 C   0  0  0  0  0  0
   32.3900    4.0458   -2.8833 C   0  0  0  0  0  0
   32.1347    3.5635   -4.1747 C   0  0  0  0  0  0
   33.0501    3.8451   -5.1966 C   0  0  0  0  0  0
   33.8031    5.4496   -1.0447 Cl  0  0  0  0  0  0
   30.8564    2.7762   -4.4828 C   0  0  2  0  0  0
   29.5847    3.6618   -4.5379 C   0  0  0  0  0  0
   30.6578    1.6730   -3.6155 O   0  0  0  0  0  0
   29.2599    4.2474   -3.2364 N   0  0  1  0  0  0
   28.4170    5.4367   -3.2788 C   0  0  1  0  0  0
   27.8870    5.6440   -1.8390 C   0  0  0  0  0  0
   29.2609    6.6251   -3.7674 C   0  0  0  0  0  0
   27.0080    4.5568   -1.4138 N   0  0  0  0  0  0
   26.4906    4.4609   -0.1142 C   0  0  0  0  0  0
   27.0083    5.1542    0.9866 C   0  0  0  0  0  0
   26.4883    4.9607    2.2778 C   0  0  0  0  0  0
   25.4088    4.0782    2.4337 C   0  0  0  0  0  0
   24.8701    3.4053    1.3393 C   0  0  0  0  0  0
   25.4184    3.5907    0.0750 C   0  0  0  0  0  0
   28.4847    5.8878    3.2707 O   0  0  0  0  0  0
   28.8620    6.5496    4.3851 C   0  0  0  0  0  0
   27.8942    6.7498    5.2392 N   0  0  0  0  0  0
   26.8113    6.2141    4.6863 C   0  0  0  0  0  0
   25.5167    6.1895    5.3283 C   0  0  0  0  0  0
   25.3879    7.0463    6.3745 O   0  0  0  0  0  0
   24.6079    5.4501    4.9869 O   0  0  0  0  0  0
   34.9079    4.7990   -5.7226 H   0  0  0  0  0  0
   35.3422    5.6296   -3.4450 H   0  0  0  0  0  0
   31.6835    3.8548   -2.0883 H   0  0  0  0  0  0
   32.8702    3.4979   -6.2034 H   0  0  0  0  0  0
   30.9718    2.3278   -5.4710 H   0  0  0  0  0  0
   28.7318    3.0794   -4.8925 H   0  0  0  0  0  0
   29.7538    4.4391   -5.2828 H   0  0  0  0  0  0
   29.8789    1.8499   -3.0731 H   0  0  0  0  0  0
   28.7554    3.5793   -2.6567 H   0  0  0  0  0  0
   27.5699    5.2744   -3.9504 H   0  0  0  0  0  0
   27.3325    6.5811   -1.7668 H   0  0  0  0  0  0
   28.7197    5.7504   -1.1428 H   0  0  0  0  0  0
   28.7446    7.5731   -3.6147 H   0  0  0  0  0  0
   30.2162    6.6509   -3.2425 H   0  0  0  0  0  0
   29.4828    6.5580   -4.8307 H   0  0  0  0  0  0
   26.3476    4.2522   -2.1309 H   0  0  0  0  0  0
   27.8386    5.8280    0.8496 H   0  0  0  0  0  0
   25.0085    3.8391    3.4022 H   0  0  0  0  0  0
   24.0470    2.7182    1.4744 H   0  0  0  0  0  0
   25.0068    3.0508   -0.7663 H   0  0  0  0  0  0
   29.9045    6.8313    4.4403 H   0  0  0  0  0  0
   26.1406    7.6300    6.5786 H   0  0  0  0  0  0
  1 19  1  0  0  0
  1 23  1  0  0  0
  1 26  2  0  0  0
  2  7  1  0  0  0
  2  3  2  0  0  0
  2 30  1  0  0  0
  3  4  1  0  0  0
  3 31  1  0  0  0
  4  8  1  0  0  0
  4  5  2  0  0  0
  5  6  1  0  0  0
  5 32  1  0  0  0
  6  9  1  0  0  0
  6  7  2  0  0  0
  7 33  1  0  0  0
  9 10  1  0  0  0
  9 11  1  0  0  0
  9 34  1  0  0  0
 10 12  1  0  0  0
 10 35  1  0  0  0
 10 36  1  0  0  0
 11 37  1  0  0  0
 12 13  1  0  0  0
 12 38  1  0  0  0
 13 15  1  0  0  0
 13 14  1  0  0  0
 13 39  1  0  0  0
 14 16  1  0  0  0
 14 40  1  0  0  0
 14 41  1  0  0  0
 15 42  1  0  0  0
 15 43  1  0  0  0
 15 44  1  0  0  0
 16 17  1  0  0  0
 16 45  1  0  0  0
 17 18  2  0  0  0
 17 22  1  0  0  0
 18 19  1  0  0  0
 18 46  1  0  0  0
 19 20  2  0  0  0
 20 21  1  0  0  0
 20 47  1  0  0  0
 21 22  2  0  0  0
 21 48  1  0  0  0
 22 49  1  0  0  0
 23 24  1  0  0  0
 24 25  2  0  0  0
 24 50  1  0  0  0
 25 26  1  0  0  0
 26 27  1  0  0  0
 27 28  1  0  0  0
 27 29  2  0  0  0
 28 51  1  0  0  0
M  END
> <s_m_entry_id>
2953

> <s_m_entry_name>
dock_pv.45

> <s_m_Source_Path>
/home/csk/Desktop/cluster/DUD-E-result/adrb1

> <s_m_Source_File>
dock_pv.maegz

> <i_m_Source_File_Index>
45

> <chembl_id>
CHEMBL393471

> <chembl_pref_name>
None

> <i_lp_mmshare_version>
53161

> <i_f3d_flags>
0

> <r_lp_tautomer_probability>
1

> <s_lp_Force_Field>
OPLS_2005

> <r_lp_Energy>
29.662326

> <b_lp_Chiralities_Consistent>
1

> <s_lp_Variant>
CHEMBL213_lig695-1

> <s_i_glide_gridfile>
glide-grid_2vt4

> <i_i_glide_lignum>
797

> <i_i_glide_rotatable_bonds>
11

> <r_i_docking_score>
-8.41352029008474

> <r_i_glide_ligand_efficiency>
-0.290121389313267

> <r_i_glide_ligand_efficiency_sa>
-0.89134482487803

> <r_i_glide_ligand_efficiency_ln>
-1.92648279796306

> <r_i_glide_gscore>
-8.41352029008474

> <r_i_glide_lipo>
-2.5738091949532

> <r_i_glide_hbond>
-0.750246855239088

> <r_i_glide_metal>
0

> <r_i_glide_rewards>
-1.53199077013871

> <r_i_glide_evdw>
-40.9068412780762

> <r_i_glide_ecoul>
-15.6913900375366

> <r_i_glide_erotb>
0.913605323188546

> <r_i_glide_esite>
-0.0720282234079881

> <r_i_glide_emodel>
-82.9096399562084

> <r_i_glide_energy>
-56.5982313156128

> <r_i_glide_einternal>
5.6036319732666

> <i_i_glide_confnum>
69

> <i_i_glide_posenum>
349

> <r_i_glide_eff_state_penalty>
0

> <s_user_duplicate_titles>
CHEMBL213_lig695

> <s_m_subgroup_title>
dock_pv

> <s_m_subgroupid>
dock_pv

> <b_m_subgroup_collapsed>
1

$$$$
CHEMBL213_lig932
                    3D
 Schrodinger Suite 2021-1.
 71 74  0  0  1  0            999 V2000
   33.3068    3.6572   -3.2263 C   0  0  0  0  0  0
   33.4414    4.7432   -2.1388 C   0  0  0  0  0  0
   34.4064    4.6390   -1.1734 N   0  0  0  0  0  0
   32.6070    5.6531   -2.1619 O   0  0  0  0  0  0
   34.2998    5.3062    0.0889 C   0  0  0  0  0  0
   33.0482    5.4500    0.7160 C   0  0  0  0  0  0
   32.9320    6.0271    1.9751 C   0  0  0  0  0  0
   34.0651    6.5208    2.6164 C   0  0  0  0  0  0
   35.3189    6.3752    2.0190 C   0  0  0  0  0  0
   35.4371    5.7666    0.7712 C   0  0  0  0  0  0
   33.9109    7.3942    3.8507 C   0  0  0  0  0  0
   33.1892    6.8143    5.0867 C   0  0  0  0  0  0
   31.7423    6.6500    4.9792 N   0  0  1  0  0  0
   30.8582    7.7797    4.7033 C   0  0  0  0  0  0
   29.3612    7.3748    4.7452 C   0  0  1  0  0  0
   28.9237    6.2447    3.7871 C   0  0  0  0  0  0
   29.0049    7.0500    6.0745 O   0  0  0  0  0  0
   27.5064    6.0795    3.8935 O   0  0  0  0  0  0
   26.8160    5.3342    2.9566 C   0  0  0  0  0  0
   25.5598    4.8656    3.3474 C   0  0  0  0  0  0
   24.7762    4.1154    2.4731 C   0  0  0  0  0  0
   25.2420    3.8500    1.1879 C   0  0  0  0  0  0
   26.4883    4.3166    0.7783 C   0  0  0  0  0  0
   27.2791    5.0504    1.6617 C   0  0  0  0  0  0
   33.6907    4.1508   -4.6088 C   0  0  0  0  0  0
   32.7933    4.6809   -5.5142 N   0  0  0  0  0  0
   34.9244    4.1505   -5.0604 N   0  0  0  0  0  0
   31.3509    4.8398   -5.3695 C   0  0  0  0  0  0
   30.5453    3.5842   -5.6938 C   0  0  0  0  0  0
   30.8786    2.7772   -6.7887 C   0  0  0  0  0  0
   30.1074    1.6603   -7.0944 C   0  0  0  0  0  0
   29.4364    3.2616   -4.9068 C   0  0  0  0  0  0
   34.8460    4.6499   -6.2782 C   0  0  0  0  0  0
   33.5495    5.0017   -6.6106 C   0  0  0  0  0  0
   28.6659    2.1445   -5.2151 C   0  0  0  0  0  0
   29.0048    1.3467   -6.3035 C   0  0  0  0  0  0
   35.6278    3.8702   -1.4844 C   0  0  0  0  0  0
   32.2737    3.3087   -3.2072 H   0  0  0  0  0  0
   33.8717    2.7625   -2.9708 H   0  0  0  0  0  0
   32.1453    5.0932    0.2446 H   0  0  0  0  0  0
   31.9509    6.1553    2.4049 H   0  0  0  0  0  0
   36.2013    6.7794    2.4924 H   0  0  0  0  0  0
   36.4210    5.7091    0.3331 H   0  0  0  0  0  0
   34.8851    7.7724    4.1631 H   0  0  0  0  0  0
   33.3686    8.2500    3.4825 H   0  0  0  0  0  0
   33.5816    5.8113    5.2604 H   0  0  0  0  0  0
   33.4512    7.3738    5.9847 H   0  0  0  0  0  0
   31.4118    5.7040    4.7816 H   0  0  0  0  0  0
   31.0079    8.5471    5.4627 H   0  0  0  0  0  0
   31.0988    8.2395    3.7427 H   0  0  0  0  0  0
   28.7757    8.2500    4.4842 H   0  0  0  0  0  0
   29.2383    6.5193    2.7850 H   0  0  0  0  0  0
   29.4081    5.2994    4.0275 H   0  0  0  0  0  0
   28.0437    7.0097    6.1252 H   0  0  0  0  0  0
   25.1920    5.0859    4.3382 H   0  0  0  0  0  0
   23.8057    3.7562    2.7827 H   0  0  0  0  0  0
   24.6305    3.2848    0.4981 H   0  0  0  0  0  0
   26.8389    4.1086   -0.2230 H   0  0  0  0  0  0
   28.2363    5.3980    1.3099 H   0  0  0  0  0  0
   31.0270    5.6567   -6.0150 H   0  0  0  0  0  0
   31.1555    5.1723   -4.3496 H   0  0  0  0  0  0
   31.7249    3.0189   -7.4149 H   0  0  0  0  0  0
   30.3632    1.0499   -7.9460 H   0  0  0  0  0  0
   29.1612    3.8754   -4.0608 H   0  0  0  0  0  0
   35.7258    4.7991   -6.8889 H   0  0  0  0  0  0
   33.1170    5.4575   -7.4883 H   0  0  0  0  0  0
   27.8072    1.8982   -4.6072 H   0  0  0  0  0  0
   28.3978    0.4830   -6.5314 H   0  0  0  0  0  0
   36.4625    4.0594   -0.8139 H   0  0  0  0  0  0
   35.4256    2.8007   -1.4146 H   0  0  0  0  0  0
   35.9841    4.0812   -2.4939 H   0  0  0  0  0  0
  1  2  1  0  0  0
  1 25  1  0  0  0
  1 38  1  0  0  0
  1 39  1  0  0  0
  2  3  1  0  0  0
  2  4  2  0  0  0
  3  5  1  0  0  0
  3 37  1  0  0  0
  5 10  1  0  0  0
  5  6  2  0  0  0
  6  7  1  0  0  0
  6 40  1  0  0  0
  7  8  2  0  0  0
  7 41  1  0  0  0
  8  9  1  0  0  0
  8 11  1  0  0  0
  9 10  2  0  0  0
  9 42  1  0  0  0
 10 43  1  0  0  0
 11 12  1  0  0  0
 11 44  1  0  0  0
 11 45  1  0  0  0
 12 13  1  0  0  0
 12 46  1  0  0  0
 12 47  1  0  0  0
 13 14  1  0  0  0
 13 48  1  0  0  0
 14 15  1  0  0  0
 14 49  1  0  0  0
 14 50  1  0  0  0
 15 16  1  0  0  0
 15 17  1  0  0  0
 15 51  1  0  0  0
 16 18  1  0  0  0
 16 52  1  0  0  0
 16 53  1  0  0  0
 17 54  1  0  0  0
 18 19  1  0  0  0
 19 20  2  0  0  0
 19 24  1  0  0  0
 20 21  1  0  0  0
 20 55  1  0  0  0
 21 22  2  0  0  0
 21 56  1  0  0  0
 22 23  1  0  0  0
 22 57  1  0  0  0
 23 24  2  0  0  0
 23 58  1  0  0  0
 24 59  1  0  0  0
 25 26  1  0  0  0
 25 27  2  0  0  0
 26 34  1  0  0  0
 26 28  1  0  0  0
 27 33  1  0  0  0
 28 29  1  0  0  0
 28 60  1  0  0  0
 28 61  1  0  0  0
 29 30  2  0  0  0
 29 32  1  0  0  0
 30 31  1  0  0  0
 30 62  1  0  0  0
 31 36  2  0  0  0
 31 63  1  0  0  0
 32 35  2  0  0  0
 32 64  1  0  0  0
 33 34  2  0  0  0
 33 65  1  0  0  0
 34 66  1  0  0  0
 35 36  1  0  0  0
 35 67  1  0  0  0
 36 68  1  0  0  0
 37 69  1  0  0  0
 37 70  1  0  0  0
 37 71  1  0  0  0
M  END
> <s_m_entry_id>
2954

> <s_m_entry_name>
dock_pv.46

> <s_m_Source_Path>
/home/csk/Desktop/cluster/DUD-E-result/adrb1

> <s_m_Source_File>
dock_pv.maegz

> <i_m_Source_File_Index>
46

> <chembl_id>
CHEMBL467116

> <chembl_pref_name>
None

> <i_lp_mmshare_version>
53161

> <i_f3d_flags>
0

> <r_lp_tautomer_probability>
1

> <s_lp_Force_Field>
OPLS_2005

> <r_lp_Energy>
47.123

> <b_lp_Chiralities_Consistent>
1

> <s_lp_Variant>
CHEMBL213_lig932-1

> <s_i_glide_gridfile>
glide-grid_2vt4

> <i_i_glide_lignum>
1041

> <i_i_glide_rotatable_bonds>
15

> <r_i_docking_score>
-8.3918370963921

> <r_i_glide_ligand_efficiency>
-0.226806408010597

> <r_i_glide_ligand_efficiency_sa>
-0.755769267956566

> <r_i_glide_ligand_efficiency_ln>
-1.8199927336333

> <r_i_glide_gscore>
-8.3918370963921

> <r_i_glide_lipo>
-3.64488890585092

> <r_i_glide_hbond>
-0.553428071807155

> <r_i_glide_metal>
0

> <r_i_glide_rewards>
-1.02912425997534

> <r_i_glide_evdw>
-51.7150001525879

> <r_i_glide_ecoul>
-10.9714727401733

> <r_i_glide_erotb>
1.06707505989672

> <r_i_glide_esite>
0

> <r_i_glide_emodel>
-82.9833115166575

> <r_i_glide_energy>
-62.6864728927612

> <r_i_glide_einternal>
17.6388416290283

> <i_i_glide_confnum>
69

> <i_i_glide_posenum>
39

> <r_i_glide_eff_state_penalty>
0

> <s_user_duplicate_titles>
CHEMBL213_lig932,480749

> <s_m_subgroup_title>
dock_pv

> <s_m_subgroupid>
dock_pv

> <b_m_subgroup_collapsed>
1

$$$$
CHEMBL213_lig1301
                    3D
 Schrodinger Suite 2021-1.
 70 72  0  0  1  0            999 V2000
   30.2131    5.4907   -2.8398 N   0  0  1  0  0  0
   31.1553    5.2754   -3.9427 C   0  0  1  0  0  0
   32.5844    5.2523   -3.3477 C   0  0  0  0  0  0
   32.8497    4.2556   -2.2006 C   0  0  0  0  0  0
   25.8237    4.6286    2.2674 C   0  0  0  0  0  0
   24.9798    3.6677    1.6838 C   0  0  0  0  0  0
   25.1405    3.2997    0.3585 C   0  0  0  0  0  0
   26.1237    3.8981   -0.4143 C   0  0  0  0  0  0
   26.9321    4.9132    0.1071 C   0  0  0  0  0  0
   26.7810    5.2648    1.4588 C   0  0  0  0  0  0
   23.9786    3.0496    2.3851 O   0  0  0  0  0  0
   25.6981    4.8300    3.6528 N   0  0  0  0  0  0
   26.4215    6.1019    4.6458 S   0  0  0  0  0  0
   28.2562    5.7037    4.5971 C   0  0  0  0  0  0
   25.9443    5.8522    6.0079 O   0  0  0  0  0  0
   26.1861    7.3866    3.9851 O   0  0  0  0  0  0
   27.9922    5.6077   -0.7622 C   0  0  0  0  0  0
   27.7785    5.5373   -2.3092 C   0  0  2  0  0  0
   28.9179    6.0544   -3.2229 C   0  0  0  0  0  0
   26.6080    6.2504   -2.6487 O   0  0  0  0  0  0
   30.8321    4.0512   -4.8255 C   0  0  0  0  0  0
   31.6509    3.7615   -5.9244 C   0  0  0  0  0  0
   31.3298    2.7318   -6.8290 C   0  0  0  0  0  0
   30.1398    2.0151   -6.6449 C   0  0  0  0  0  0
   29.3619    2.2455   -5.5044 C   0  0  0  0  0  0
   29.7131    3.2393   -4.6047 C   0  0  0  0  0  0
   34.1237    4.6192   -1.4467 C   0  0  0  0  0  0
   34.0698    5.6504   -0.5009 C   0  0  0  0  0  0
   35.2133    6.0353    0.1964 C   0  0  0  0  0  0
   36.4218    5.3853   -0.0441 C   0  0  0  0  0  0
   36.4783    4.3531   -0.9776 C   0  0  0  0  0  0
   35.3414    3.9618   -1.6818 C   0  0  0  0  0  0
   35.4792    2.6646   -2.8215 Cl  0  0  0  0  0  0
   32.1038    2.4049   -7.9297 O   0  0  0  0  0  0
   33.3591    3.0505   -8.1181 C   0  0  0  0  0  0
   29.7581    1.1055   -7.6079 O   0  0  0  0  0  0
   28.3680    1.0626   -7.9112 C   0  0  0  0  0  0
   30.1067    4.6365   -2.3123 H   0  0  0  0  0  0
   31.0896    6.1499   -4.5969 H   0  0  0  0  0  0
   33.3292    5.1115   -4.1325 H   0  0  0  0  0  0
   32.7846    6.2500   -2.9682 H   0  0  0  0  0  0
   32.0366    4.2730   -1.4770 H   0  0  0  0  0  0
   32.8710    3.2291   -2.5672 H   0  0  0  0  0  0
   24.5007    2.5555   -0.0928 H   0  0  0  0  0  0
   26.2079    3.5628   -1.4344 H   0  0  0  0  0  0
   27.4094    6.0379    1.8664 H   0  0  0  0  0  0
   23.4556    2.4687    1.8295 H   0  0  0  0  0  0
   25.1364    4.1483    4.1404 H   0  0  0  0  0  0
   28.7414    6.3007    5.3639 H   0  0  0  0  0  0
   28.6693    5.9599    3.6251 H   0  0  0  0  0  0
   28.3912    4.6418    4.7899 H   0  0  0  0  0  0
   28.0523    6.6491   -0.4539 H   0  0  0  0  0  0
   28.9465    5.1520   -0.4998 H   0  0  0  0  0  0
   27.6237    4.5036   -2.6059 H   0  0  0  0  0  0
   28.6752    5.7832   -4.2524 H   0  0  0  0  0  0
   28.9805    7.1409   -3.2146 H   0  0  0  0  0  0
   25.9001    5.6039   -2.8149 H   0  0  0  0  0  0
   32.5234    4.3726   -6.0915 H   0  0  0  0  0  0
   28.4676    1.6738   -5.3098 H   0  0  0  0  0  0
   29.0725    3.3786   -3.7520 H   0  0  0  0  0  0
   33.1399    6.1665   -0.3091 H   0  0  0  0  0  0
   35.1587    6.8403    0.9155 H   0  0  0  0  0  0
   37.3144    5.6796    0.4884 H   0  0  0  0  0  0
   37.4107    3.8490   -1.1618 H   0  0  0  0  0  0
   33.8409    2.6520   -9.0115 H   0  0  0  0  0  0
   33.2427    4.1258   -8.2608 H   0  0  0  0  0  0
   34.0280    2.8720   -7.2741 H   0  0  0  0  0  0
   28.2079    0.4863   -8.8150 H   0  0  0  0  0  0
   27.8080    0.5831   -7.1135 H   0  0  0  0  0  0
   27.9569    2.0603   -8.0847 H   0  0  0  0  0  0
  1 19  1  0  0  0
  1  2  1  0  0  0
  1 38  1  0  0  0
  2 21  1  0  0  0
  2  3  1  0  0  0
  2 39  1  0  0  0
  3  4  1  0  0  0
  3 40  1  0  0  0
  3 41  1  0  0  0
  4 27  1  0  0  0
  4 42  1  0  0  0
  4 43  1  0  0  0
  5 10  1  0  0  0
  5  6  2  0  0  0
  5 12  1  0  0  0
  6 11  1  0  0  0
  6  7  1  0  0  0
  7  8  2  0  0  0
  7 44  1  0  0  0
  8  9  1  0  0  0
  8 45  1  0  0  0
  9 17  1  0  0  0
  9 10  2  0  0  0
 10 46  1  0  0  0
 11 47  1  0  0  0
 12 13  1  0  0  0
 12 48  1  0  0  0
 13 14  1  0  0  0
 13 15  2  0  0  0
 13 16  2  0  0  0
 14 49  1  0  0  0
 14 50  1  0  0  0
 14 51  1  0  0  0
 17 18  1  0  0  0
 17 52  1  0  0  0
 17 53  1  0  0  0
 18 19  1  0  0  0
 18 20  1  0  0  0
 18 54  1  0  0  0
 19 55  1  0  0  0
 19 56  1  0  0  0
 20 57  1  0  0  0
 21 22  2  0  0  0
 21 26  1  0  0  0
 22 23  1  0  0  0
 22 58  1  0  0  0
 23 24  2  0  0  0
 23 34  1  0  0  0
 24 25  1  0  0  0
 24 36  1  0  0  0
 25 26  2  0  0  0
 25 59  1  0  0  0
 26 60  1  0  0  0
 27 28  2  0  0  0
 27 32  1  0  0  0
 28 29  1  0  0  0
 28 61  1  0  0  0
 29 30  2  0  0  0
 29 62  1  0  0  0
 30 31  1  0  0  0
 30 63  1  0  0  0
 31 32  2  0  0  0
 31 64  1  0  0  0
 32 33  1  0  0  0
 34 35  1  0  0  0
 35 65  1  0  0  0
 35 66  1  0  0  0
 35 67  1  0  0  0
 36 37  1  0  0  0
 37 68  1  0  0  0
 37 69  1  0  0  0
 37 70  1  0  0  0
M  END
> <s_m_entry_id>
2955

> <s_m_entry_name>
dock_pv.47

> <s_m_Source_Path>
/home/csk/Desktop/cluster/DUD-E-result/adrb1

> <s_m_Source_File>
dock_pv.maegz

> <i_m_Source_File_Index>
47

> <chembl_id>
CHEMBL447786

> <chembl_pref_name>
None

> <i_lp_mmshare_version>
53161

> <i_f3d_flags>
0

> <r_lp_tautomer_probability>
1

> <s_lp_Force_Field>
OPLS_2005

> <r_lp_Energy>
25.210923

> <b_lp_Chiralities_Consistent>
1

> <s_lp_Variant>
CHEMBL213_lig1301-1

> <s_i_glide_gridfile>
glide-grid_2vt4

> <i_i_glide_lignum>
1553

> <i_i_glide_rotatable_bonds>
15

> <r_i_docking_score>
-8.39182256653625

> <r_i_glide_ligand_efficiency>
-0.226806015311791

> <r_i_glide_ligand_efficiency_sa>
-0.755767959397023

> <r_i_glide_ligand_efficiency_ln>
-1.81998958244819

> <r_i_glide_gscore>
-8.39182256653625

> <r_i_glide_lipo>
-3.54234436733984

> <r_i_glide_hbond>
-0.345451652374343

> <r_i_glide_metal>
0

> <r_i_glide_rewards>
-0.839212749272412

> <r_i_glide_evdw>
-61.0233497619629

> <r_i_glide_ecoul>
-8.21559906005859

> <r_i_glide_erotb>
0.618693549557269

> <r_i_glide_esite>
0

> <r_i_glide_emodel>
-87.4255574520496

> <r_i_glide_energy>
-69.2389488220215

> <r_i_glide_einternal>
30.123929977417

> <i_i_glide_confnum>
21

> <i_i_glide_posenum>
27

> <r_i_glide_eff_state_penalty>
0

> <s_user_duplicate_titles>
CHEMBL213_lig1301,417118

> <s_m_subgroup_title>
dock_pv

> <s_m_subgroupid>
dock_pv

> <b_m_subgroup_collapsed>
1

$$$$
CHEMBL213_lig675
                    3D
 Schrodinger Suite 2021-1.
 55 57  0  0  1  0            999 V2000
   30.9435    1.4721   -3.7074 C   0  0  0  0  0  0
   30.2053    1.0446   -4.8153 C   0  0  0  0  0  0
   29.9353    1.9233   -5.8641 C   0  0  0  0  0  0
   30.4260    3.2197   -5.8134 C   0  0  0  0  0  0
   31.1650    3.6576   -4.7106 C   0  0  0  0  0  0
   31.4202    2.7786   -3.6544 C   0  0  0  0  0  0
   28.9750    1.4481   -7.2144 Cl  0  0  0  0  0  0
   31.6208    5.1030   -4.6507 C   0  0  2  0  0  0
   30.4222    6.0605   -4.4479 C   0  0  0  0  0  0
   32.3023    5.4500   -5.8430 O   0  0  0  0  0  0
   29.6769    5.7709   -3.2170 N   0  0  2  0  0  0
   28.2733    6.2018   -3.1888 C   0  0  1  0  0  0
   27.7151    6.1004   -1.7416 C   0  0  0  0  0  0
   28.0679    7.6157   -3.7636 C   0  0  0  0  0  0
   27.0081    4.8507   -1.4460 N   0  0  0  0  0  0
   26.5018    4.5956   -0.1578 C   0  0  0  0  0  0
   26.9985    5.2168    0.9919 C   0  0  0  0  0  0
   26.4834    4.9272    2.2679 C   0  0  0  0  0  0
   25.4074    4.0273    2.3593 C   0  0  0  0  0  0
   24.9077    3.3965    1.2258 C   0  0  0  0  0  0
   25.4670    3.6694   -0.0162 C   0  0  0  0  0  0
   27.0829    5.5409    3.4865 C   0  0  0  0  0  0
   26.3273    5.7226    4.6534 C   0  0  0  0  0  0
   26.9063    6.2500    5.8019 C   0  0  0  0  0  0
   28.2363    6.6597    5.7882 C   0  0  0  0  0  0
   28.9998    6.5667    4.6178 C   0  0  0  0  0  0
   28.4256    5.9521    3.5007 C   0  0  0  0  0  0
   30.4269    7.0497    4.5843 C   0  0  0  0  0  0
   30.8855    7.4497    3.3700 O   0  0  0  0  0  0
   31.1317    7.0505    5.5850 O   0  0  0  0  0  0
   31.1112    0.8084   -2.8753 H   0  0  0  0  0  0
   29.8115    0.0400   -4.8452 H   0  0  0  0  0  0
   30.2127    3.8997   -6.6235 H   0  0  0  0  0  0
   31.9646    3.1126   -2.7844 H   0  0  0  0  0  0
   32.3343    5.2290   -3.8352 H   0  0  0  0  0  0
   30.7585    7.0968   -4.4151 H   0  0  0  0  0  0
   29.7578    5.9565   -5.3069 H   0  0  0  0  0  0
   32.1854    6.3907   -6.0151 H   0  0  0  0  0  0
   30.1660    6.0441   -2.3790 H   0  0  0  0  0  0
   27.7142    5.5139   -3.8271 H   0  0  0  0  0  0
   28.5162    6.2684   -1.0226 H   0  0  0  0  0  0
   27.0104    6.9114   -1.5465 H   0  0  0  0  0  0
   27.0045    7.8500   -3.7474 H   0  0  0  0  0  0
   28.6029    8.3898   -3.2148 H   0  0  0  0  0  0
   28.3792    7.7059   -4.8000 H   0  0  0  0  0  0
   26.3723    4.5655   -2.1912 H   0  0  0  0  0  0
   27.8057    5.9184    0.8984 H   0  0  0  0  0  0
   24.9827    3.7660    3.3159 H   0  0  0  0  0  0
   24.0983    2.6863    1.3089 H   0  0  0  0  0  0
   25.0678    3.1676   -0.8849 H   0  0  0  0  0  0
   25.2856    5.4463    4.6847 H   0  0  0  0  0  0
   26.3147    6.3655    6.6975 H   0  0  0  0  0  0
   28.6482    7.0955    6.6875 H   0  0  0  0  0  0
   29.0419    5.8019    2.6280 H   0  0  0  0  0  0
   31.7873    7.7648    3.4639 H   0  0  0  0  0  0
  1  6  1  0  0  0
  1  2  2  0  0  0
  1 31  1  0  0  0
  2  3  1  0  0  0
  2 32  1  0  0  0
  3  4  2  0  0  0
  3  7  1  0  0  0
  4  5  1  0  0  0
  4 33  1  0  0  0
  5  8  1  0  0  0
  5  6  2  0  0  0
  6 34  1  0  0  0
  8  9  1  0  0  0
  8 10  1  0  0  0
  8 35  1  0  0  0
  9 11  1  0  0  0
  9 36  1  0  0  0
  9 37  1  0  0  0
 10 38  1  0  0  0
 11 12  1  0  0  0
 11 39  1  0  0  0
 12 13  1  0  0  0
 12 14  1  0  0  0
 12 40  1  0  0  0
 13 15  1  0  0  0
 13 41  1  0  0  0
 13 42  1  0  0  0
 14 43  1  0  0  0
 14 44  1  0  0  0
 14 45  1  0  0  0
 15 16  1  0  0  0
 15 46  1  0  0  0
 16 17  2  0  0  0
 16 21  1  0  0  0
 17 18  1  0  0  0
 17 47  1  0  0  0
 18 19  2  0  0  0
 18 22  1  0  0  0
 19 20  1  0  0  0
 19 48  1  0  0  0
 20 21  2  0  0  0
 20 49  1  0  0  0
 21 50  1  0  0  0
 22 23  2  0  0  0
 22 27  1  0  0  0
 23 24  1  0  0  0
 23 51  1  0  0  0
 24 25  2  0  0  0
 24 52  1  0  0  0
 25 26  1  0  0  0
 25 53  1  0  0  0
 26 27  2  0  0  0
 26 28  1  0  0  0
 27 54  1  0  0  0
 28 29  1  0  0  0
 28 30  2  0  0  0
 29 55  1  0  0  0
M  END
> <s_m_entry_id>
2956

> <s_m_entry_name>
dock_pv.48

> <s_m_Source_Path>
/home/csk/Desktop/cluster/DUD-E-result/adrb1

> <s_m_Source_File>
dock_pv.maegz

> <i_m_Source_File_Index>
48

> <chembl_id>
CHEMBL205224

> <chembl_pref_name>
None

> <i_lp_mmshare_version>
53161

> <i_f3d_flags>
0

> <r_lp_tautomer_probability>
1

> <s_lp_Force_Field>
OPLS_2005

> <r_lp_Energy>
30.544798

> <b_lp_Chiralities_Consistent>
1

> <s_lp_Variant>
CHEMBL213_lig675-1

> <s_i_glide_gridfile>
glide-grid_2vt4

> <i_i_glide_lignum>
777

> <i_i_glide_rotatable_bonds>
11

> <r_i_docking_score>
-8.38945168018567

> <r_i_glide_ligand_efficiency>
-0.279648389339522

> <r_i_glide_ligand_efficiency_sa>
-0.868932564608267

> <r_i_glide_ligand_efficiency_ln>
-1.90617483213564

> <r_i_glide_gscore>
-8.38945168018567

> <r_i_glide_lipo>
-3.50369685082102

> <r_i_glide_hbond>
-0.628353298329105

> <r_i_glide_metal>
0

> <r_i_glide_rewards>
-1.59266572169154

> <r_i_glide_evdw>
-50.2915878295898

> <r_i_glide_ecoul>
-6.39736986160278

> <r_i_glide_erotb>
0.878732154091492

> <r_i_glide_esite>
-0.0692830927155851

> <r_i_glide_emodel>
-79.4728590453096

> <r_i_glide_energy>
-56.6889576911926

> <r_i_glide_einternal>
12.0365295410156

> <i_i_glide_confnum>
17

> <i_i_glide_posenum>
290

> <r_i_glide_eff_state_penalty>
0

> <s_user_duplicate_titles>
CHEMBL213_lig675

> <s_m_subgroup_title>
dock_pv

> <s_m_subgroupid>
dock_pv

> <b_m_subgroup_collapsed>
1

$$$$
CHEMBL213_lig347
                    3D
 Schrodinger Suite 2021-1.
 70 74  0  0  1  0            999 V2000
   37.0379    4.7704    1.1888 O   0  0  0  0  0  0
   36.7911    6.1786    1.5225 S   0  0  0  0  0  0
   37.6811    6.9254    2.4197 O   0  0  0  0  0  0
   28.2296    2.1266   -6.4707 C   0  0  0  0  0  0
   28.9801    1.8539   -7.6133 C   0  0  0  0  0  0
   30.3360    1.8500   -7.6148 N   0  0  0  0  0  0
   30.9730    2.1239   -6.4471 C   0  0  0  0  0  0
   30.3051    2.3935   -5.2416 C   0  0  0  0  0  0
   28.9035    2.3942   -5.2765 C   0  0  0  0  0  0
   31.0431    2.6973   -3.9282 C   0  0  2  0  0  0
   32.5336    3.0956   -4.0466 C   0  0  0  0  0  0
   31.0079    1.5977   -3.0399 O   0  0  0  0  0  0
   32.7352    4.2699   -4.8957 N   0  0  2  0  0  0
   34.0742    4.4271   -5.4669 C   0  0  0  0  0  0
   35.2829    3.9989   -4.5928 C   0  0  0  0  0  0
   35.6324    4.8475   -3.3692 C   0  0  0  0  0  0
   36.9452    4.7861   -2.8945 C   0  0  0  0  0  0
   37.3292    5.5512   -1.8003 C   0  0  0  0  0  0
   36.3952    6.3626   -1.1609 C   0  0  0  0  0  0
   35.0795    6.4223   -1.6148 C   0  0  0  0  0  0
   34.6976    5.6637   -2.7174 C   0  0  0  0  0  0
   36.7645    7.0460   -0.0039 N   0  0  0  0  0  0
   35.1274    6.3011    2.1734 C   0  0  0  0  0  0
   34.0758    5.7391    1.4562 C   0  0  0  0  0  0
   32.7712    5.8500    1.9238 C   0  0  0  0  0  0
   32.4977    6.4970    3.1362 C   0  0  0  0  0  0
   33.5717    7.0204    3.8700 C   0  0  0  0  0  0
   34.8776    6.9426    3.3859 C   0  0  0  0  0  0
   31.0744    6.5856    3.6217 C   0  0  0  0  0  0
   30.0660    5.9516    3.0695 N   0  0  0  0  0  0
   28.9034    6.1584    3.6717 C   0  0  0  0  0  0
   28.9830    6.9923    4.7893 C   0  0  0  0  0  0
   30.6253    7.4500    5.0525 S   0  0  0  0  0  0
   27.6541    5.5170    3.1559 C   0  0  0  0  0  0
   27.5503    5.0505    1.8407 C   0  0  0  0  0  0
   26.3855    4.4241    1.4063 C   0  0  0  0  0  0
   25.3203    4.2485    2.2939 C   0  0  0  0  0  0
   25.4063    4.7551    3.5866 C   0  0  0  0  0  0
   26.5644    5.3795    4.0200 C   0  0  0  0  0  0
   24.0547    3.5313    1.8541 C   0  0  0  0  0  0
   23.0085    3.8496    2.6192 F   0  0  0  0  0  0
   23.7787    3.8482    0.5945 F   0  0  0  0  0  0
   24.2584    2.2218    1.9419 F   0  0  0  0  0  0
   27.1499    2.1433   -6.5036 H   0  0  0  0  0  0
   28.4987    1.6475   -8.5583 H   0  0  0  0  0  0
   32.0501    2.1353   -6.5064 H   0  0  0  0  0  0
   28.3282    2.6145   -4.3901 H   0  0  0  0  0  0
   30.5239    3.5269   -3.4432 H   0  0  0  0  0  0
   32.9308    3.3168   -3.0542 H   0  0  0  0  0  0
   33.1078    2.2504   -4.4162 H   0  0  0  0  0  0
   30.0867    1.4525   -2.7854 H   0  0  0  0  0  0
   32.3965    5.1256   -4.4807 H   0  0  0  0  0  0
   34.1201    3.9041   -6.4230 H   0  0  0  0  0  0
   34.1741    5.4825   -5.7203 H   0  0  0  0  0  0
   35.1916    2.9607   -4.2750 H   0  0  0  0  0  0
   36.1545    4.0203   -5.2507 H   0  0  0  0  0  0
   37.6781    4.1547   -3.3749 H   0  0  0  0  0  0
   38.3421    5.4799   -1.4330 H   0  0  0  0  0  0
   34.3565    7.0490   -1.1152 H   0  0  0  0  0  0
   33.6770    5.7327   -3.0539 H   0  0  0  0  0  0
   37.0843    8.0005   -0.0506 H   0  0  0  0  0  0
   34.2640    5.1995    0.5398 H   0  0  0  0  0  0
   31.9751    5.4161    1.3373 H   0  0  0  0  0  0
   33.4078    7.4953    4.8229 H   0  0  0  0  0  0
   35.6861    7.3717    3.9612 H   0  0  0  0  0  0
   28.2009    7.3345    5.4532 H   0  0  0  0  0  0
   28.3738    5.1600    1.1497 H   0  0  0  0  0  0
   26.3282    4.0514    0.3929 H   0  0  0  0  0  0
   24.5851    4.6451    4.2806 H   0  0  0  0  0  0
   26.6139    5.7326    5.0393 H   0  0  0  0  0  0
  1  2  2  0  0  0
  2 22  1  0  0  0
  2 23  1  0  0  0
  2  3  2  0  0  0
  4  5  2  0  0  0
  4  9  1  0  0  0
  4 44  1  0  0  0
  5  6  1  0  0  0
  5 45  1  0  0  0
  6  7  2  0  0  0
  7  8  1  0  0  0
  7 46  1  0  0  0
  8  9  2  0  0  0
  8 10  1  0  0  0
  9 47  1  0  0  0
 10 11  1  0  0  0
 10 12  1  0  0  0
 10 48  1  0  0  0
 11 13  1  0  0  0
 11 49  1  0  0  0
 11 50  1  0  0  0
 12 51  1  0  0  0
 13 14  1  0  0  0
 13 52  1  0  0  0
 14 15  1  0  0  0
 14 53  1  0  0  0
 14 54  1  0  0  0
 15 16  1  0  0  0
 15 55  1  0  0  0
 15 56  1  0  0  0
 16 17  2  0  0  0
 16 21  1  0  0  0
 17 18  1  0  0  0
 17 57  1  0  0  0
 18 19  2  0  0  0
 18 58  1  0  0  0
 19 22  1  0  0  0
 19 20  1  0  0  0
 20 21  2  0  0  0
 20 59  1  0  0  0
 21 60  1  0  0  0
 22 61  1  0  0  0
 23 24  2  0  0  0
 23 28  1  0  0  0
 24 25  1  0  0  0
 24 62  1  0  0  0
 25 26  2  0  0  0
 25 63  1  0  0  0
 26 27  1  0  0  0
 26 29  1  0  0  0
 27 28  2  0  0  0
 27 64  1  0  0  0
 28 65  1  0  0  0
 29 30  2  0  0  0
 29 33  1  0  0  0
 30 31  1  0  0  0
 31 32  2  0  0  0
 31 34  1  0  0  0
 32 33  1  0  0  0
 32 66  1  0  0  0
 34 35  2  0  0  0
 34 39  1  0  0  0
 35 36  1  0  0  0
 35 67  1  0  0  0
 36 37  2  0  0  0
 36 68  1  0  0  0
 37 38  1  0  0  0
 37 40  1  0  0  0
 38 39  2  0  0  0
 38 69  1  0  0  0
 39 70  1  0  0  0
 40 41  1  0  0  0
 40 42  1  0  0  0
 40 43  1  0  0  0
M  END
> <s_m_entry_id>
2957

> <s_m_entry_name>
dock_pv.49

> <s_m_Source_Path>
/home/csk/Desktop/cluster/DUD-E-result/adrb1

> <s_m_Source_File>
dock_pv.maegz

> <i_m_Source_File_Index>
49

> <chembl_id>
CHEMBL111201

> <chembl_pref_name>
None

> <i_lp_mmshare_version>
53161

> <i_f3d_flags>
0

> <r_lp_tautomer_probability>
1

> <s_lp_Force_Field>
OPLS_2005

> <r_lp_Energy>
20.871611

> <b_lp_Chiralities_Consistent>
1

> <s_lp_Variant>
CHEMBL213_lig347-1

> <s_i_glide_gridfile>
glide-grid_2vt4

> <i_i_glide_lignum>
408

> <i_i_glide_rotatable_bonds>
13

> <r_i_docking_score>
-8.38650748241977

> <r_i_glide_ligand_efficiency>
-0.195035057730692

> <r_i_glide_ligand_efficiency_sa>
-0.683285442104463

> <r_i_glide_ligand_efficiency_ln>
-1.76142721974166

> <r_i_glide_gscore>
-8.38650748241977

> <r_i_glide_lipo>
-3.89793545192427

> <r_i_glide_hbond>
-0.32

> <r_i_glide_metal>
0

> <r_i_glide_rewards>
-0.746490796042806

> <r_i_glide_evdw>
-60.3719825744629

> <r_i_glide_ecoul>
-5.15562629699707

> <r_i_glide_erotb>
0.40620856090712

> <r_i_glide_esite>
-0.0363467220871076

> <r_i_glide_emodel>
-89.0053419442799

> <r_i_glide_energy>
-65.52760887146

> <r_i_glide_einternal>
14.7213172912598

> <i_i_glide_confnum>
2

> <i_i_glide_posenum>
21

> <r_i_glide_eff_state_penalty>
0

> <s_user_duplicate_titles>
CHEMBL213_lig347

> <s_m_subgroup_title>
dock_pv

> <s_m_subgroupid>
dock_pv

> <b_m_subgroup_collapsed>
1

$$$$
CHEMBL213_lig934
                    3D
 Schrodinger Suite 2021-1.
 75 79  0  0  1  0            999 V2000
   33.5785    3.7377   -2.9868 C   0  0  0  0  0  0
   33.5045    4.9158   -1.9964 C   0  0  0  0  0  0
   34.1930    4.8521   -0.8181 N   0  0  0  0  0  0
   32.7479    5.8495   -2.2805 O   0  0  0  0  0  0
   33.6964    5.4504    0.3811 C   0  0  0  0  0  0
   32.3120    5.5362    0.6242 C   0  0  0  0  0  0
   31.8183    6.0900    1.7956 C   0  0  0  0  0  0
   32.6902    6.5564    2.7759 C   0  0  0  0  0  0
   34.0673    6.4069    2.5841 C   0  0  0  0  0  0
   32.1272    7.2720    3.9907 C   0  0  0  0  0  0
   31.0430    6.4646    4.7161 C   0  0  0  0  0  0
   30.0542    7.2861    5.3979 N   0  0  2  0  0  0
   28.7975    7.3208    4.6522 C   0  0  0  0  0  0
   27.7588    6.2241    5.0087 C   0  0  1  0  0  0
   26.4667    6.3606    4.1829 C   0  0  0  0  0  0
   28.2079    4.9042    4.7849 O   0  0  0  0  0  0
   26.7860    6.0894    2.8112 O   0  0  0  0  0  0
   26.2080    5.0467    2.1105 C   0  0  0  0  0  0
   26.6854    4.8559    0.8120 C   0  0  0  0  0  0
   26.1336    3.8802   -0.0147 C   0  0  0  0  0  0
   25.0948    3.0853    0.4608 C   0  0  0  0  0  0
   24.6107    3.2532    1.7548 C   0  0  0  0  0  0
   25.1642    4.2291    2.5805 C   0  0  0  0  0  0
   34.2719    4.0632   -4.2957 C   0  0  0  0  0  0
   33.6361    4.5888   -5.4046 N   0  0  0  0  0  0
   35.5576    3.8740   -4.4922 N   0  0  0  0  0  0
   32.2440    4.9985   -5.5549 C   0  0  0  0  0  0
   31.2702    3.8541   -5.8039 C   0  0  0  0  0  0
   30.1801    3.6639   -4.9507 C   0  0  0  0  0  0
   29.2602    2.6506   -5.2109 C   0  0  0  0  0  0
   31.4427    3.0217   -6.9118 C   0  0  0  0  0  0
   35.7753    4.2402   -5.7400 C   0  0  0  0  0  0
   34.6113    4.6504   -6.3642 C   0  0  0  0  0  0
   30.5173    2.0183   -7.1765 C   0  0  0  0  0  0
   29.4303    1.8331   -6.3244 C   0  0  0  0  0  0
   35.5457    4.2585   -0.8416 C   0  0  0  0  0  0
   36.4831    5.2984   -0.1933 C   0  0  0  0  0  0
   36.0859    5.5955    1.2659 C   0  0  0  0  0  0
   34.5852    5.8350    1.4121 C   0  0  0  0  0  0
   32.5557    3.4078   -3.1677 H   0  0  0  0  0  0
   34.0427    2.8733   -2.5124 H   0  0  0  0  0  0
   31.5947    5.1944   -0.1069 H   0  0  0  0  0  0
   30.7517    6.1881    1.9181 H   0  0  0  0  0  0
   34.7468    6.7402    3.3541 H   0  0  0  0  0  0
   32.9340    7.4511    4.6998 H   0  0  0  0  0  0
   31.7513    8.2358    3.6289 H   0  0  0  0  0  0
   30.5448    5.8003    4.0158 H   0  0  0  0  0  0
   31.5432    5.8510    5.4664 H   0  0  0  0  0  0
   30.4229    8.2270    5.4700 H   0  0  0  0  0  0
   28.3122    8.2501    4.9174 H   0  0  0  0  0  0
   29.0062    7.3702    3.5845 H   0  0  0  0  0  0
   27.5109    6.3147    6.0674 H   0  0  0  0  0  0
   25.6921    5.7415    4.6265 H   0  0  0  0  0  0
   26.0919    7.3832    4.2414 H   0  0  0  0  0  0
   28.3530    4.7970    3.8399 H   0  0  0  0  0  0
   27.4770    5.4864    0.4349 H   0  0  0  0  0  0
   26.4929    3.7521   -1.0263 H   0  0  0  0  0  0
   24.6490    2.3450   -0.1870 H   0  0  0  0  0  0
   23.7998    2.6354    2.1116 H   0  0  0  0  0  0
   24.7383    4.3285    3.5630 H   0  0  0  0  0  0
   32.1853    5.6979   -6.3912 H   0  0  0  0  0  0
   31.9591    5.5745   -4.6760 H   0  0  0  0  0  0
   30.0335    4.3055   -4.0931 H   0  0  0  0  0  0
   28.4144    2.5053   -4.5522 H   0  0  0  0  0  0
   32.2785    3.1673   -7.5822 H   0  0  0  0  0  0
   36.7645    4.2163   -6.1749 H   0  0  0  0  0  0
   34.4141    5.0446   -7.3500 H   0  0  0  0  0  0
   30.6429    1.4007   -8.0490 H   0  0  0  0  0  0
   28.7076    1.0565   -6.5251 H   0  0  0  0  0  0
   35.5458    3.3998   -0.1681 H   0  0  0  0  0  0
   35.9120    3.9569   -1.8238 H   0  0  0  0  0  0
   37.5078    4.9243   -0.2207 H   0  0  0  0  0  0
   36.4888    6.2142   -0.7879 H   0  0  0  0  0  0
   36.3455    4.7343    1.8825 H   0  0  0  0  0  0
   36.6549    6.4430    1.6510 H   0  0  0  0  0  0
  1  2  1  0  0  0
  1 24  1  0  0  0
  1 40  1  0  0  0
  1 41  1  0  0  0
  2  3  1  0  0  0
  2  4  2  0  0  0
  3  5  1  0  0  0
  3 36  1  0  0  0
  5 39  1  0  0  0
  5  6  2  0  0  0
  6  7  1  0  0  0
  6 42  1  0  0  0
  7  8  2  0  0  0
  7 43  1  0  0  0
  8  9  1  0  0  0
  8 10  1  0  0  0
  9 39  2  0  0  0
  9 44  1  0  0  0
 10 11  1  0  0  0
 10 45  1  0  0  0
 10 46  1  0  0  0
 11 12  1  0  0  0
 11 47  1  0  0  0
 11 48  1  0  0  0
 12 13  1  0  0  0
 12 49  1  0  0  0
 13 14  1  0  0  0
 13 50  1  0  0  0
 13 51  1  0  0  0
 14 15  1  0  0  0
 14 16  1  0  0  0
 14 52  1  0  0  0
 15 17  1  0  0  0
 15 53  1  0  0  0
 15 54  1  0  0  0
 16 55  1  0  0  0
 17 18  1  0  0  0
 18 19  2  0  0  0
 18 23  1  0  0  0
 19 20  1  0  0  0
 19 56  1  0  0  0
 20 21  2  0  0  0
 20 57  1  0  0  0
 21 22  1  0  0  0
 21 58  1  0  0  0
 22 23  2  0  0  0
 22 59  1  0  0  0
 23 60  1  0  0  0
 24 25  1  0  0  0
 24 26  2  0  0  0
 25 33  1  0  0  0
 25 27  1  0  0  0
 26 32  1  0  0  0
 27 28  1  0  0  0
 27 61  1  0  0  0
 27 62  1  0  0  0
 28 29  2  0  0  0
 28 31  1  0  0  0
 29 30  1  0  0  0
 29 63  1  0  0  0
 30 35  2  0  0  0
 30 64  1  0  0  0
 31 34  2  0  0  0
 31 65  1  0  0  0
 32 33  2  0  0  0
 32 66  1  0  0  0
 33 67  1  0  0  0
 34 35  1  0  0  0
 34 68  1  0  0  0
 35 69  1  0  0  0
 36 37  1  0  0  0
 36 70  1  0  0  0
 36 71  1  0  0  0
 37 38  1  0  0  0
 37 72  1  0  0  0
 37 73  1  0  0  0
 38 39  1  0  0  0
 38 74  1  0  0  0
 38 75  1  0  0  0
M  END
> <s_m_entry_id>
2958

> <s_m_entry_name>
dock_pv.50

> <s_m_Source_Path>
/home/csk/Desktop/cluster/DUD-E-result/adrb1

> <s_m_Source_File>
dock_pv.maegz

> <i_m_Source_File_Index>
50

> <chembl_id>
CHEMBL512099

> <chembl_pref_name>
None

> <i_lp_mmshare_version>
53161

> <i_f3d_flags>
0

> <r_lp_tautomer_probability>
1

> <s_lp_Force_Field>
OPLS_2005

> <r_lp_Energy>
57.028818

> <b_lp_Chiralities_Consistent>
1

> <s_lp_Variant>
CHEMBL213_lig934-1

> <s_i_glide_gridfile>
glide-grid_2vt4

> <i_i_glide_lignum>
1043

> <i_i_glide_rotatable_bonds>
14

> <r_i_docking_score>
-8.37978594993915

> <r_i_glide_ligand_efficiency>
-0.214866306408696

> <r_i_glide_ligand_efficiency_sa>
-0.728657076121532

> <r_i_glide_ligand_efficiency_ln>
-1.79686398203692

> <r_i_glide_gscore>
-8.37978594993915

> <r_i_glide_lipo>
-3.68891472232976

> <r_i_glide_hbond>
-0.553252902445094

> <r_i_glide_metal>
0

> <r_i_glide_rewards>
-1.37135089380532

> <r_i_glide_evdw>
-48.6867980957031

> <r_i_glide_ecoul>
-8.14240455627441

> <r_i_glide_erotb>
0.897089914713351

> <r_i_glide_esite>
-0.0076567578460102

> <r_i_glide_emodel>
-71.107272176965

> <r_i_glide_energy>
-56.8292026519775

> <r_i_glide_einternal>
16.8780097961426

> <i_i_glide_confnum>
27

> <i_i_glide_posenum>
318

> <r_i_glide_eff_state_penalty>
0

> <s_user_duplicate_titles>
CHEMBL213_lig934,480847

> <s_m_subgroup_title>
dock_pv

> <s_m_subgroupid>
dock_pv

> <b_m_subgroup_collapsed>
1

$$$$
CHEMBL213_lig1469
                    3D
 Schrodinger Suite 2021-1.
 57 59  0  0  1  0            999 V2000
   25.9484    5.8563    4.6141 C   0  0  0  0  0  0
   27.2928    6.2304    4.5849 C   0  0  0  0  0  0
   28.1148    5.8144    3.5308 C   0  0  0  0  0  0
   27.5549    5.0499    2.4982 C   0  0  0  0  0  0
   26.2017    4.6838    2.4979 C   0  0  0  0  0  0
   25.4106    5.0783    3.5851 C   0  0  0  0  0  0
   27.8031    7.0185    5.5850 O   0  0  0  0  0  0
   29.5870    6.2351    3.4921 C   0  0  0  0  0  0
   30.4062    5.4500    2.6477 O   0  0  0  0  0  0
   25.6322    3.8468    1.3290 C   0  0  2  0  0  0
   25.5042    4.5767   -0.0345 C   0  0  0  0  0  0
   24.3700    3.2594    1.6022 O   0  0  0  0  0  0
   26.7457    5.2239   -0.4397 N   0  0  2  0  0  0
   26.5295    6.0785   -1.5947 C   0  0  0  0  0  0
   27.8291    6.7694   -2.0189 C   0  0  0  0  0  0
   28.9598    5.8503   -2.4717 C   0  0  0  0  0  0
   29.7031    5.1284   -1.5357 C   0  0  0  0  0  0
   30.8091    4.3970   -1.9487 C   0  0  0  0  0  0
   31.1744    4.3713   -3.2921 C   0  0  0  0  0  0
   30.4346    5.1090   -4.2250 C   0  0  0  0  0  0
   29.3253    5.8370   -3.8170 C   0  0  0  0  0  0
   32.2691    3.5669   -3.6501 N   0  0  0  0  0  0
   32.6208    3.3013   -5.0449 C   0  0  0  0  0  0
   31.4909    2.6500   -5.8508 C   0  0  0  0  0  0
   31.4996    2.7789   -7.2392 C   0  0  0  0  0  0
   30.4608    2.2500   -8.0025 C   0  0  0  0  0  0
   29.4083    1.5751   -7.3868 C   0  0  0  0  0  0
   29.4390    1.3547   -6.0064 C   0  0  0  0  0  0
   30.4799    1.8852   -5.2468 C   0  0  0  0  0  0
   28.2080    0.4392   -5.2150 Cl  0  0  0  0  0  0
   28.0769    1.0500   -8.3516 Cl  0  0  0  0  0  0
   25.3134    6.1679    5.4305 H   0  0  0  0  0  0
   28.1803    4.7416    1.6747 H   0  0  0  0  0  0
   24.3695    4.7947    3.6291 H   0  0  0  0  0  0
   27.1445    7.4150    6.1709 H   0  0  0  0  0  0
   29.6509    7.2779    3.1850 H   0  0  0  0  0  0
   30.0174    6.1955    4.4931 H   0  0  0  0  0  0
   30.6386    4.6502    3.1360 H   0  0  0  0  0  0
   26.3134    3.0102    1.1848 H   0  0  0  0  0  0
   25.2355    3.8502   -0.8047 H   0  0  0  0  0  0
   24.6970    5.3056   -0.0151 H   0  0  0  0  0  0
   23.9459    3.0492    0.7639 H   0  0  0  0  0  0
   27.3936    4.5072   -0.7407 H   0  0  0  0  0  0
   26.2083    5.4500   -2.4148 H   0  0  0  0  0  0
   25.7483    6.8185   -1.4114 H   0  0  0  0  0  0
   27.5912    7.4532   -2.8322 H   0  0  0  0  0  0
   28.1975    7.4030   -1.2147 H   0  0  0  0  0  0
   29.4535    5.1671   -0.4852 H   0  0  0  0  0  0
   31.3773    3.8504   -1.2157 H   0  0  0  0  0  0
   30.7039    5.1294   -5.2694 H   0  0  0  0  0  0
   28.7703    6.4119   -4.5435 H   0  0  0  0  0  0
   32.9250    3.2991   -2.9308 H   0  0  0  0  0  0
   32.9106    4.2419   -5.5174 H   0  0  0  0  0  0
   33.4987    2.6546   -5.0734 H   0  0  0  0  0  0
   32.2889    3.3310   -7.7293 H   0  0  0  0  0  0
   30.4528    2.4082   -9.0700 H   0  0  0  0  0  0
   30.4766    1.7282   -4.1773 H   0  0  0  0  0  0
  1  2  2  0  0  0
  1  6  1  0  0  0
  1 32  1  0  0  0
  2  3  1  0  0  0
  2  7  1  0  0  0
  3  4  2  0  0  0
  3  8  1  0  0  0
  4  5  1  0  0  0
  4 33  1  0  0  0
  5  6  2  0  0  0
  5 10  1  0  0  0
  6 34  1  0  0  0
  7 35  1  0  0  0
  8  9  1  0  0  0
  8 36  1  0  0  0
  8 37  1  0  0  0
  9 38  1  0  0  0
 10 11  1  0  0  0
 10 12  1  0  0  0
 10 39  1  0  0  0
 11 13  1  0  0  0
 11 40  1  0  0  0
 11 41  1  0  0  0
 12 42  1  0  0  0
 13 14  1  0  0  0
 13 43  1  0  0  0
 14 15  1  0  0  0
 14 44  1  0  0  0
 14 45  1  0  0  0
 15 16  1  0  0  0
 15 46  1  0  0  0
 15 47  1  0  0  0
 16 17  2  0  0  0
 16 21  1  0  0  0
 17 18  1  0  0  0
 17 48  1  0  0  0
 18 19  2  0  0  0
 18 49  1  0  0  0
 19 20  1  0  0  0
 19 22  1  0  0  0
 20 21  2  0  0  0
 20 50  1  0  0  0
 21 51  1  0  0  0
 22 23  1  0  0  0
 22 52  1  0  0  0
 23 24  1  0  0  0
 23 53  1  0  0  0
 23 54  1  0  0  0
 24 25  2  0  0  0
 24 29  1  0  0  0
 25 26  1  0  0  0
 25 55  1  0  0  0
 26 27  2  0  0  0
 26 56  1  0  0  0
 27 28  1  0  0  0
 27 31  1  0  0  0
 28 29  2  0  0  0
 28 30  1  0  0  0
 29 57  1  0  0  0
M  END
> <s_m_entry_id>
2959

> <s_m_entry_name>
dock_pv.51

> <s_m_Source_Path>
/home/csk/Desktop/cluster/DUD-E-result/adrb1

> <s_m_Source_File>
dock_pv.maegz

> <i_m_Source_File_Index>
51

> <chembl_id>
CHEMBL3290972

> <chembl_pref_name>
None

> <i_lp_mmshare_version>
53161

> <i_f3d_flags>
0

> <r_lp_tautomer_probability>
0.999999999997365

> <s_lp_Force_Field>
OPLS_2005

> <r_lp_Energy>
20.789133

> <b_lp_Chiralities_Consistent>
1

> <s_lp_Variant>
CHEMBL213_lig1469-1

> <s_i_glide_gridfile>
glide-grid_2vt4

> <i_i_glide_lignum>
1806

> <i_i_glide_rotatable_bonds>
13

> <r_i_docking_score>
-8.35644169048734

> <r_i_glide_ligand_efficiency>
-0.269562635177011

> <r_i_glide_ligand_efficiency_sa>
-0.846798845783403

> <r_i_glide_ligand_efficiency_ln>
-1.88463369538696

> <r_i_glide_gscore>
-8.35644169048734

> <r_i_glide_lipo>
-3.79749682517474

> <r_i_glide_hbond>
-0.57116138319649

> <r_i_glide_metal>
0

> <r_i_glide_rewards>
-1.16328976723621

> <r_i_glide_evdw>
-46.7393264770508

> <r_i_glide_ecoul>
-9.55625152587891

> <r_i_glide_erotb>
0.945910337854473

> <r_i_glide_esite>
0

> <r_i_glide_emodel>
-80.1598290800758

> <r_i_glide_energy>
-56.2955780029297

> <r_i_glide_einternal>
6.06338930130005

> <i_i_glide_confnum>
315

> <i_i_glide_posenum>
79

> <r_i_glide_eff_state_penalty>
0

> <s_user_duplicate_titles>
CHEMBL213_lig1469

> <s_m_subgroup_title>
dock_pv

> <s_m_subgroupid>
dock_pv

> <b_m_subgroup_collapsed>
1

$$$$
CHEMBL213_lig1098
                    3D
 Schrodinger Suite 2021-1.
 61 63  0  0  1  0            999 V2000
   25.3412    4.9376    3.5144 C   0  0  0  0  0  0
   25.7775    5.5417    4.6903 C   0  0  0  0  0  0
   27.1227    5.8468    4.8718 C   0  0  0  0  0  0
   28.0285    5.6563    3.8074 C   0  0  0  0  0  0
   27.5751    5.0502    2.6278 C   0  0  0  0  0  0
   26.2371    4.6533    2.4766 C   0  0  0  0  0  0
   25.8020    3.8344    1.2472 C   0  0  2  0  0  0
   25.6930    4.6001   -0.0872 C   0  0  0  0  0  0
   26.9662    5.1428   -0.5555 N   0  0  2  0  0  0
   26.7285    5.8220   -1.8204 C   0  0  0  0  0  0
   27.9034    6.7101   -2.2179 C   0  0  0  0  0  0
   29.0991    5.9948   -2.8502 C   0  0  0  0  0  0
   29.3522    6.1829   -4.2078 C   0  0  0  0  0  0
   30.5086    5.6835   -4.7865 C   0  0  0  0  0  0
   31.4436    4.9904   -4.0089 C   0  0  0  0  0  0
   31.1760    4.7739   -2.6526 C   0  0  0  0  0  0
   30.0026    5.2612   -2.0759 C   0  0  0  0  0  0
   32.6592    4.5024   -4.5256 N   0  0  0  0  0  0
   32.9472    4.3951   -5.9629 C   0  0  0  0  0  0
   32.7424    2.9846   -6.5880 C   0  0  1  0  0  0
   31.2866    2.4734   -6.5920 C   0  0  0  0  0  0
   33.3476    3.0037   -7.8714 O   0  0  0  0  0  0
   30.6373    2.2078   -5.3776 C   0  0  0  0  0  0
   29.3005    1.8304   -5.3565 C   0  0  0  0  0  0
   28.6068    1.6903   -6.5503 C   0  0  0  0  0  0
   29.2496    1.8742   -7.7685 C   0  0  0  0  0  0
   30.5896    2.2499   -7.7881 C   0  0  0  0  0  0
   24.5785    3.1404    1.4325 O   0  0  0  0  0  0
   29.4073    5.9365    3.8849 N   0  0  0  0  0  0
   29.9912    7.0504    4.3708 C   0  0  0  0  0  0
   29.4076    8.0131    4.8607 O   0  0  0  0  0  0
   27.5186    6.2545    6.1202 O   0  0  0  0  0  0
   24.3036    4.6516    3.4309 H   0  0  0  0  0  0
   25.0750    5.7032    5.4949 H   0  0  0  0  0  0
   28.2760    4.8500    1.8310 H   0  0  0  0  0  0
   26.5430    3.0498    1.1138 H   0  0  0  0  0  0
   25.3376    3.8970   -0.8408 H   0  0  0  0  0  0
   24.9531    5.3937   -0.0153 H   0  0  0  0  0  0
   27.5820    4.3666   -0.7511 H   0  0  0  0  0  0
   26.6119    5.0573   -2.5862 H   0  0  0  0  0  0
   25.8066    6.4078   -1.8324 H   0  0  0  0  0  0
   27.5322    7.4487   -2.9303 H   0  0  0  0  0  0
   28.2081    7.3054   -1.3584 H   0  0  0  0  0  0
   28.6660    6.7541   -4.8147 H   0  0  0  0  0  0
   30.6654    5.8808   -5.8344 H   0  0  0  0  0  0
   31.8832    4.2376   -2.0383 H   0  0  0  0  0  0
   29.8252    5.1202   -1.0189 H   0  0  0  0  0  0
   33.2577    3.9848   -3.8989 H   0  0  0  0  0  0
   32.4064    5.1390   -6.5437 H   0  0  0  0  0  0
   33.9901    4.6934   -6.0790 H   0  0  0  0  0  0
   33.3344    2.2634   -6.0273 H   0  0  0  0  0  0
   34.1788    3.4830   -7.8192 H   0  0  0  0  0  0
   31.1588    2.3189   -4.4393 H   0  0  0  0  0  0
   28.7932    1.6711   -4.4152 H   0  0  0  0  0  0
   27.5551    1.4501   -6.5249 H   0  0  0  0  0  0
   28.7042    1.7525   -8.6946 H   0  0  0  0  0  0
   31.0654    2.4115   -8.7421 H   0  0  0  0  0  0
   24.1819    2.9816    0.5715 H   0  0  0  0  0  0
   30.0186    5.2360    3.4870 H   0  0  0  0  0  0
   31.0865    6.9851    4.2703 H   0  0  0  0  0  0
   27.2431    7.1592    6.3251 H   0  0  0  0  0  0
  1  2  1  0  0  0
  1  6  2  0  0  0
  1 33  1  0  0  0
  2  3  2  0  0  0
  2 34  1  0  0  0
  3  4  1  0  0  0
  3 32  1  0  0  0
  4  5  2  0  0  0
  4 29  1  0  0  0
  5  6  1  0  0  0
  5 35  1  0  0  0
  6  7  1  0  0  0
  7  8  1  0  0  0
  7 28  1  0  0  0
  7 36  1  0  0  0
  8  9  1  0  0  0
  8 37  1  0  0  0
  8 38  1  0  0  0
  9 10  1  0  0  0
  9 39  1  0  0  0
 10 11  1  0  0  0
 10 40  1  0  0  0
 10 41  1  0  0  0
 11 12  1  0  0  0
 11 42  1  0  0  0
 11 43  1  0  0  0
 12 13  1  0  0  0
 12 17  2  0  0  0
 13 14  2  0  0  0
 13 44  1  0  0  0
 14 15  1  0  0  0
 14 45  1  0  0  0
 15 16  2  0  0  0
 15 18  1  0  0  0
 16 17  1  0  0  0
 16 46  1  0  0  0
 17 47  1  0  0  0
 18 19  1  0  0  0
 18 48  1  0  0  0
 19 20  1  0  0  0
 19 49  1  0  0  0
 19 50  1  0  0  0
 20 21  1  0  0  0
 20 22  1  0  0  0
 20 51  1  0  0  0
 21 23  1  0  0  0
 21 27  2  0  0  0
 22 52  1  0  0  0
 23 24  2  0  0  0
 23 53  1  0  0  0
 24 25  1  0  0  0
 24 54  1  0  0  0
 25 26  2  0  0  0
 25 55  1  0  0  0
 26 27  1  0  0  0
 26 56  1  0  0  0
 27 57  1  0  0  0
 28 58  1  0  0  0
 29 30  1  0  0  0
 29 59  1  0  0  0
 30 31  2  0  0  0
 30 60  1  0  0  0
 32 61  1  0  0  0
M  END
> <s_m_entry_id>
2960

> <s_m_entry_name>
dock_pv.52

> <s_m_Source_Path>
/home/csk/Desktop/cluster/DUD-E-result/adrb1

> <s_m_Source_File>
dock_pv.maegz

> <i_m_Source_File_Index>
52

> <chembl_id>
CHEMBL1940832

> <chembl_pref_name>
MILVETEROL

> <i_lp_mmshare_version>
53161

> <i_f3d_flags>
0

> <r_lp_tautomer_probability>
0.999999999997365

> <s_lp_Force_Field>
OPLS_2005

> <r_lp_Energy>
33.494378

> <b_lp_Chiralities_Consistent>
1

> <s_lp_Variant>
CHEMBL213_lig1098-1

> <s_i_glide_gridfile>
glide-grid_2vt4

> <i_i_glide_lignum>
1280

> <i_i_glide_rotatable_bonds>
15

> <r_i_docking_score>
-8.35127447517367

> <r_i_glide_ligand_efficiency>
-0.260977327349177

> <r_i_glide_ligand_efficiency_sa>
-0.828551366990686

> <r_i_glide_ligand_efficiency_ln>
-1.87007800213576

> <r_i_glide_gscore>
-8.35127447517367

> <r_i_glide_lipo>
-3.68714951022387

> <r_i_glide_hbond>
-0.0864674264800224

> <r_i_glide_metal>
0

> <r_i_glide_rewards>
-1.47648583637348

> <r_i_glide_evdw>
-48.7339286804199

> <r_i_glide_ecoul>
-11.4330787658691

> <r_i_glide_erotb>
1.05048654680507

> <r_i_glide_esite>
0

> <r_i_glide_emodel>
-82.0647415824007

> <r_i_glide_energy>
-60.1670074462891

> <r_i_glide_einternal>
17.2715702056885

> <i_i_glide_confnum>
19

> <i_i_glide_posenum>
98

> <r_i_glide_eff_state_penalty>
0

> <s_user_duplicate_titles>
CHEMBL213_lig1098

> <s_m_subgroup_title>
dock_pv

> <s_m_subgroupid>
dock_pv

> <b_m_subgroup_collapsed>
1

$$$$
CHEMBL213_lig1198
                    3D
 Schrodinger Suite 2021-1.
 48 50  0  0  1  0            999 V2000
   24.6080    5.0500    4.3850 C   0  0  0  0  0  0
   25.5328    5.8500    5.0435 C   0  0  0  0  0  0
   26.1224    4.7250    2.5048 C   0  0  0  0  0  0
   24.8895    4.5070    3.1348 C   0  0  0  0  0  0
   27.1042    5.4396    3.2267 C   0  0  0  0  0  0
   26.7939    6.0356    4.4712 C   0  0  0  0  0  0
   27.7867    6.7683    5.1570 N   0  0  0  0  0  0
   29.0866    6.8645    4.8201 C   0  0  0  0  0  0
   29.4122    6.2500    3.5507 C   0  0  0  0  0  0
   28.5139    5.5812    2.7925 C   0  0  0  0  0  0
   29.8973    7.3648    5.5849 O   0  0  0  0  0  0
   25.1778    6.4019    6.2521 O   0  0  0  0  0  0
   26.3943    4.2009    1.0748 C   0  0  2  0  0  0
   26.3643    5.3001    0.1020 N   0  0  2  0  0  0
   25.5702    2.9638    0.6015 C   0  0  0  0  0  0
   24.1937    3.2049    0.3850 O   0  0  0  0  0  0
   27.0371    5.0419   -1.1743 C   0  0  0  0  0  0
   28.5760    5.0469   -1.0305 C   0  0  0  0  0  0
   29.3442    4.9287   -2.3407 C   0  0  0  0  0  0
   29.2297    5.9231   -3.3128 C   0  0  0  0  0  0
   29.9916    5.8501   -4.4749 C   0  0  0  0  0  0
   30.8590    4.7801   -4.6913 C   0  0  0  0  0  0
   30.9591    3.7723   -3.7204 C   0  0  0  0  0  0
   30.2080    3.8506   -2.5507 C   0  0  0  0  0  0
   31.5715    4.7962   -5.8738 O   0  0  0  0  0  0
   32.4974    3.7506   -6.1458 C   0  0  0  0  0  0
   23.6384    4.8776    4.8308 H   0  0  0  0  0  0
   24.1059    3.9410    2.6579 H   0  0  0  0  0  0
   27.5832    7.1959    6.0477 H   0  0  0  0  0  0
   30.4364    6.3355    3.2176 H   0  0  0  0  0  0
   28.8591    5.1527    1.8654 H   0  0  0  0  0  0
   25.6762    7.1853    6.5091 H   0  0  0  0  0  0
   27.4080    3.8499    1.1255 H   0  0  0  0  0  0
   26.7519    6.1349    0.5170 H   0  0  0  0  0  0
   26.0010    2.5311   -0.3011 H   0  0  0  0  0  0
   25.6436    2.1758    1.3493 H   0  0  0  0  0  0
   24.0306    3.4500   -0.5412 H   0  0  0  0  0  0
   26.6847    4.1293   -1.6561 H   0  0  0  0  0  0
   26.7488    5.8287   -1.8729 H   0  0  0  0  0  0
   28.8949    5.9725   -0.5519 H   0  0  0  0  0  0
   28.8980    4.2499   -0.3634 H   0  0  0  0  0  0
   28.5698    6.7655   -3.1632 H   0  0  0  0  0  0
   29.9148    6.6332   -5.2151 H   0  0  0  0  0  0
   31.6157    2.9267   -3.8535 H   0  0  0  0  0  0
   30.2981    3.0685   -1.8106 H   0  0  0  0  0  0
   32.9719    3.9348   -7.1097 H   0  0  0  0  0  0
   33.2861    3.7076   -5.3931 H   0  0  0  0  0  0
   32.0008    2.7809   -6.2024 H   0  0  0  0  0  0
  1  2  2  0  0  0
  1  4  1  0  0  0
  1 27  1  0  0  0
  2  6  1  0  0  0
  2 12  1  0  0  0
  3  5  1  0  0  0
  3  4  2  0  0  0
  3 13  1  0  0  0
  4 28  1  0  0  0
  5  6  2  0  0  0
  5 10  1  0  0  0
  6  7  1  0  0  0
  7  8  1  0  0  0
  7 29  1  0  0  0
  8  9  1  0  0  0
  8 11  2  0  0  0
  9 10  2  0  0  0
  9 30  1  0  0  0
 10 31  1  0  0  0
 12 32  1  0  0  0
 13 14  1  0  0  0
 13 15  1  0  0  0
 13 33  1  0  0  0
 14 17  1  0  0  0
 14 34  1  0  0  0
 15 16  1  0  0  0
 15 35  1  0  0  0
 15 36  1  0  0  0
 16 37  1  0  0  0
 17 18  1  0  0  0
 17 38  1  0  0  0
 17 39  1  0  0  0
 18 19  1  0  0  0
 18 40  1  0  0  0
 18 41  1  0  0  0
 19 20  2  0  0  0
 19 24  1  0  0  0
 20 21  1  0  0  0
 20 42  1  0  0  0
 21 22  2  0  0  0
 21 43  1  0  0  0
 22 23  1  0  0  0
 22 25  1  0  0  0
 23 24  2  0  0  0
 23 44  1  0  0  0
 24 45  1  0  0  0
 25 26  1  0  0  0
 26 46  1  0  0  0
 26 47  1  0  0  0
 26 48  1  0  0  0
M  END
> <s_m_entry_id>
2961

> <s_m_entry_name>
dock_pv.53

> <s_m_Source_Path>
/home/csk/Desktop/cluster/DUD-E-result/adrb1

> <s_m_Source_File>
dock_pv.maegz

> <i_m_Source_File_Index>
53

> <chembl_id>
CHEMBL4289233

> <chembl_pref_name>
None

> <i_lp_mmshare_version>
53161

> <i_f3d_flags>
0

> <r_lp_tautomer_probability>
1

> <s_lp_Force_Field>
OPLS_2005

> <r_lp_Energy>
32.912325

> <b_lp_Chiralities_Consistent>
1

> <s_lp_Variant>
CHEMBL213_lig1198-1

> <s_i_glide_gridfile>
glide-grid_2vt4

> <i_i_glide_lignum>
1408

> <i_i_glide_rotatable_bonds>
9

> <r_i_docking_score>
-8.33699873778372

> <r_i_glide_ligand_efficiency>
-0.320653797607066

> <r_i_glide_ligand_efficiency_sa>
-0.949935613699165

> <r_i_glide_ligand_efficiency_ln>
-1.9579167976444

> <r_i_glide_gscore>
-8.33699873778372

> <r_i_glide_lipo>
-2.80156584044647

> <r_i_glide_hbond>
-0.75635839248281

> <r_i_glide_metal>
0

> <r_i_glide_rewards>
-2.33096069349687

> <r_i_glide_evdw>
-36.6971473693848

> <r_i_glide_ecoul>
-8.34821128845215

> <r_i_glide_erotb>
0.63897525037949

> <r_i_glide_esite>
0

> <r_i_glide_emodel>
-63.7223288452575

> <r_i_glide_energy>
-45.0453586578369

> <r_i_glide_einternal>
6.41060876846313

> <i_i_glide_confnum>
74

> <i_i_glide_posenum>
206

> <r_i_glide_eff_state_penalty>
0

> <s_user_duplicate_titles>
CHEMBL213_lig1198

> <s_m_subgroup_title>
dock_pv

> <s_m_subgroupid>
dock_pv

> <b_m_subgroup_collapsed>
1

$$$$
CHEMBL213_lig691
                    3D
 Schrodinger Suite 2021-1.
 52 54  0  0  1  0            999 V2000
   34.3712    4.7589   -4.3114 C   0  0  0  0  0  0
   34.8326    5.3232   -3.1233 C   0  0  0  0  0  0
   34.0346    5.2906   -1.9798 C   0  0  0  0  0  0
   32.7763    4.6859   -2.0232 C   0  0  0  0  0  0
   32.3105    4.1053   -3.2089 C   0  0  0  0  0  0
   33.1168    4.1499   -4.3526 C   0  0  0  0  0  0
   34.6090    5.9807   -0.5078 Cl  0  0  0  0  0  0
   30.9609    3.3894   -3.2596 C   0  0  2  0  0  0
   29.7516    4.1931   -2.7222 C   0  0  0  0  0  0
   31.0077    2.1528   -2.5662 O   0  0  0  0  0  0
   29.6375    5.5412   -3.2861 N   0  0  2  0  0  0
   28.2845    6.1048   -3.2000 C   0  0  1  0  0  0
   27.7156    6.1632   -1.7569 C   0  0  0  0  0  0
   28.2824    7.4787   -3.8842 C   0  0  0  0  0  0
   27.0080    4.9408   -1.3778 N   0  0  0  0  0  0
   26.5143    4.7337   -0.0800 C   0  0  0  0  0  0
   27.0308    5.3746    1.0515 C   0  0  0  0  0  0
   26.6010    5.0536    2.3507 C   0  0  0  0  0  0
   25.5690    4.1143    2.4731 C   0  0  0  0  0  0
   25.0101    3.5002    1.3548 C   0  0  0  0  0  0
   25.4862    3.8052    0.0852 C   0  0  0  0  0  0
   27.2874    5.6812    3.5478 C   0  0  0  0  0  0
   29.0230    5.8529    3.4173 S   0  0  0  0  0  0
   29.1305    6.6557    4.9272 C   0  0  0  0  0  0
   27.9188    6.6581    5.5834 C   0  0  0  0  0  0
   26.8407    6.1824    4.8036 C   0  0  0  0  0  0
   25.4719    6.1874    5.2856 C   0  0  0  0  0  0
   25.2293    7.0499    6.3097 O   0  0  0  0  0  0
   24.6079    5.4488    4.8598 O   0  0  0  0  0  0
   34.9864    4.7939   -5.2001 H   0  0  0  0  0  0
   35.8105    5.7846   -3.0966 H   0  0  0  0  0  0
   32.1701    4.6562   -1.1305 H   0  0  0  0  0  0
   32.7797    3.7032   -5.2762 H   0  0  0  0  0  0
   30.7487    3.1483   -4.3020 H   0  0  0  0  0  0
   28.8463    3.6295   -2.9565 H   0  0  0  0  0  0
   29.8116    4.2763   -1.6345 H   0  0  0  0  0  0
   30.0992    1.8575   -2.4154 H   0  0  0  0  0  0
   29.9682    5.5629   -4.2419 H   0  0  0  0  0  0
   27.6281    5.4698   -3.8007 H   0  0  0  0  0  0
   28.5157    6.3940   -1.0553 H   0  0  0  0  0  0
   27.0080    6.9870   -1.6531 H   0  0  0  0  0  0
   27.2762    7.7334   -4.2073 H   0  0  0  0  0  0
   28.6080    8.2770   -3.2144 H   0  0  0  0  0  0
   28.9275    7.5157   -4.7617 H   0  0  0  0  0  0
   26.3801    4.5956   -2.1029 H   0  0  0  0  0  0
   27.8083    6.1107    0.9249 H   0  0  0  0  0  0
   25.2514    3.7624    3.4384 H   0  0  0  0  0  0
   24.2277    2.7662    1.4723 H   0  0  0  0  0  0
   25.0326    3.3230   -0.7703 H   0  0  0  0  0  0
   30.0898    7.0179    5.2762 H   0  0  0  0  0  0
   27.8206    7.0464    6.5855 H   0  0  0  0  0  0
   25.9626    7.6341    6.5735 H   0  0  0  0  0  0
  1  6  1  0  0  0
  1  2  2  0  0  0
  1 30  1  0  0  0
  2  3  1  0  0  0
  2 31  1  0  0  0
  3  7  1  0  0  0
  3  4  2  0  0  0
  4  5  1  0  0  0
  4 32  1  0  0  0
  5  8  1  0  0  0
  5  6  2  0  0  0
  6 33  1  0  0  0
  8  9  1  0  0  0
  8 10  1  0  0  0
  8 34  1  0  0  0
  9 11  1  0  0  0
  9 35  1  0  0  0
  9 36  1  0  0  0
 10 37  1  0  0  0
 11 12  1  0  0  0
 11 38  1  0  0  0
 12 13  1  0  0  0
 12 14  1  0  0  0
 12 39  1  0  0  0
 13 15  1  0  0  0
 13 40  1  0  0  0
 13 41  1  0  0  0
 14 42  1  0  0  0
 14 43  1  0  0  0
 14 44  1  0  0  0
 15 16  1  0  0  0
 15 45  1  0  0  0
 16 17  2  0  0  0
 16 21  1  0  0  0
 17 18  1  0  0  0
 17 46  1  0  0  0
 18 19  2  0  0  0
 18 22  1  0  0  0
 19 20  1  0  0  0
 19 47  1  0  0  0
 20 21  2  0  0  0
 20 48  1  0  0  0
 21 49  1  0  0  0
 22 23  1  0  0  0
 22 26  2  0  0  0
 23 24  1  0  0  0
 24 25  2  0  0  0
 24 50  1  0  0  0
 25 26  1  0  0  0
 25 51  1  0  0  0
 26 27  1  0  0  0
 27 28  1  0  0  0
 27 29  2  0  0  0
 28 52  1  0  0  0
M  END
> <s_m_entry_id>
2962

> <s_m_entry_name>
dock_pv.54

> <s_m_Source_Path>
/home/csk/Desktop/cluster/DUD-E-result/adrb1

> <s_m_Source_File>
dock_pv.maegz

> <i_m_Source_File_Index>
54

> <chembl_id>
CHEMBL245873

> <chembl_pref_name>
None

> <i_lp_mmshare_version>
53161

> <i_f3d_flags>
0

> <r_lp_tautomer_probability>
1

> <s_lp_Force_Field>
OPLS_2005

> <r_lp_Energy>
23.914043

> <b_lp_Chiralities_Consistent>
1

> <s_lp_Variant>
CHEMBL213_lig691-1

> <s_i_glide_gridfile>
glide-grid_2vt4

> <i_i_glide_lignum>
793

> <i_i_glide_rotatable_bonds>
11

> <r_i_docking_score>
-8.33239884329029

> <r_i_glide_ligand_efficiency>
-0.287324098044493

> <r_i_glide_ligand_efficiency_sa>
-0.882750659856278

> <r_i_glide_ligand_efficiency_ln>
-1.90790804370953

> <r_i_glide_gscore>
-8.33239884329029

> <r_i_glide_lipo>
-2.92263979118633

> <r_i_glide_hbond>
-0.432

> <r_i_glide_metal>
0

> <r_i_glide_rewards>
-1.53001923433593

> <r_i_glide_evdw>
-40.9912986755371

> <r_i_glide_ecoul>
-14.595796585083

> <r_i_glide_erotb>
0.856601101234267

> <r_i_glide_esite>
-0.0654064974629948

> <r_i_glide_emodel>
-78.3259464450876

> <r_i_glide_energy>
-55.5870952606201

> <r_i_glide_einternal>
9.50508594512939

> <i_i_glide_confnum>
66

> <i_i_glide_posenum>
313

> <r_i_glide_eff_state_penalty>
0

> <s_user_duplicate_titles>
CHEMBL213_lig691

> <s_m_subgroup_title>
dock_pv

> <s_m_subgroupid>
dock_pv

> <b_m_subgroup_collapsed>
1

$$$$
CHEMBL213_lig689
                    3D
 Schrodinger Suite 2021-1.
 49 51  0  0  1  0            999 V2000
   27.2959    5.7020    3.5475 C   0  0  0  0  0  0
   30.8782    1.4597   -3.6717 C   0  0  0  0  0  0
   30.2080    1.0117   -4.8146 C   0  0  0  0  0  0
   29.8221    1.9207   -5.7974 C   0  0  0  0  0  0
   30.1190    3.2676   -5.6407 C   0  0  0  0  0  0
   30.7998    3.7293   -4.5073 C   0  0  0  0  0  0
   31.1705    2.8145   -3.5172 C   0  0  0  0  0  0
   28.9733    1.4082   -7.2084 Cl  0  0  0  0  0  0
   31.1383    5.2113   -4.3585 C   0  0  2  0  0  0
   30.1641    6.0047   -3.4539 C   0  0  0  0  0  0
   31.2654    5.8499   -5.6149 O   0  0  0  0  0  0
   28.7605    5.8758   -3.8443 N   0  0  1  0  0  0
   27.8607    6.8043   -3.1580 C   0  0  0  0  0  0
   27.6542    6.5061   -1.6545 C   0  0  0  0  0  0
   26.8082    5.3437   -1.3934 N   0  0  0  0  0  0
   26.4394    4.9578   -0.0953 C   0  0  0  0  0  0
   27.0080    5.5117    1.0557 C   0  0  0  0  0  0
   26.6077    5.1153    2.3413 C   0  0  0  0  0  0
   25.5944    4.1559    2.4435 C   0  0  0  0  0  0
   25.0198    3.5885    1.3097 C   0  0  0  0  0  0
   25.4532    3.9825    0.0485 C   0  0  0  0  0  0
   29.0323    5.8499    3.4288 S   0  0  0  0  0  0
   29.1333    6.6529    4.9405 C   0  0  0  0  0  0
   27.9144    6.6596    5.5844 C   0  0  0  0  0  0
   26.8412    6.1883    4.8005 C   0  0  0  0  0  0
   25.4722    6.1908    5.2718 C   0  0  0  0  0  0
   25.2277    7.0500    6.2959 O   0  0  0  0  0  0
   24.6079    5.4497    4.8409 O   0  0  0  0  0  0
   31.1419    0.7674   -2.8853 H   0  0  0  0  0  0
   29.9706   -0.0358   -4.9251 H   0  0  0  0  0  0
   29.8119    3.9560   -6.4122 H   0  0  0  0  0  0
   31.6790    3.1508   -2.6256 H   0  0  0  0  0  0
   32.1350    5.2664   -3.9173 H   0  0  0  0  0  0
   30.4652    7.0500   -3.4820 H   0  0  0  0  0  0
   30.2780    5.6536   -2.4275 H   0  0  0  0  0  0
   31.3333    6.8133   -5.5365 H   0  0  0  0  0  0
   28.6525    5.9255   -4.8481 H   0  0  0  0  0  0
   26.8913    6.7646   -3.6574 H   0  0  0  0  0  0
   28.2140    7.8272   -3.2973 H   0  0  0  0  0  0
   27.1745    7.3674   -1.1899 H   0  0  0  0  0  0
   28.6066    6.4024   -1.1351 H   0  0  0  0  0  0
   26.1814    5.0477   -2.1441 H   0  0  0  0  0  0
   27.7828    6.2498    0.9514 H   0  0  0  0  0  0
   25.2921    3.7666    3.4014 H   0  0  0  0  0  0
   24.2577    2.8286    1.4056 H   0  0  0  0  0  0
   25.0081    3.5199   -0.8164 H   0  0  0  0  0  0
   30.0864    7.0180    5.2961 H   0  0  0  0  0  0
   27.8089    7.0496    6.5845 H   0  0  0  0  0  0
   25.9584    7.6346    6.5517 H   0  0  0  0  0  0
  1 18  1  0  0  0
  1 22  1  0  0  0
  1 25  2  0  0  0
  2  3  2  0  0  0
  2  7  1  0  0  0
  2 29  1  0  0  0
  3  4  1  0  0  0
  3 30  1  0  0  0
  4  8  1  0  0  0
  4  5  2  0  0  0
  5  6  1  0  0  0
  5 31  1  0  0  0
  6  9  1  0  0  0
  6  7  2  0  0  0
  7 32  1  0  0  0
  9 10  1  0  0  0
  9 11  1  0  0  0
  9 33  1  0  0  0
 10 12  1  0  0  0
 10 34  1  0  0  0
 10 35  1  0  0  0
 11 36  1  0  0  0
 12 13  1  0  0  0
 12 37  1  0  0  0
 13 14  1  0  0  0
 13 38  1  0  0  0
 13 39  1  0  0  0
 14 15  1  0  0  0
 14 40  1  0  0  0
 14 41  1  0  0  0
 15 16  1  0  0  0
 15 42  1  0  0  0
 16 17  2  0  0  0
 16 21  1  0  0  0
 17 18  1  0  0  0
 17 43  1  0  0  0
 18 19  2  0  0  0
 19 20  1  0  0  0
 19 44  1  0  0  0
 20 21  2  0  0  0
 20 45  1  0  0  0
 21 46  1  0  0  0
 22 23  1  0  0  0
 23 24  2  0  0  0
 23 47  1  0  0  0
 24 25  1  0  0  0
 24 48  1  0  0  0
 25 26  1  0  0  0
 26 27  1  0  0  0
 26 28  2  0  0  0
 27 49  1  0  0  0
M  END
> <s_m_entry_id>
2963

> <s_m_entry_name>
dock_pv.55

> <s_m_Source_Path>
/home/csk/Desktop/cluster/DUD-E-result/adrb1

> <s_m_Source_File>
dock_pv.maegz

> <i_m_Source_File_Index>
55

> <chembl_id>
CHEMBL245875

> <chembl_pref_name>
None

> <i_lp_mmshare_version>
53161

> <i_f3d_flags>
0

> <r_lp_tautomer_probability>
1

> <s_lp_Force_Field>
OPLS_2005

> <r_lp_Energy>
28.755723

> <b_lp_Chiralities_Consistent>
1

> <s_lp_Variant>
CHEMBL213_lig689-1

> <s_i_glide_gridfile>
glide-grid_2vt4

> <i_i_glide_lignum>
791

> <i_i_glide_rotatable_bonds>
11

> <r_i_docking_score>
-8.31653768652405

> <r_i_glide_ligand_efficiency>
-0.297019203090145

> <r_i_glide_ligand_efficiency_sa>
-0.901925235537031

> <r_i_glide_ligand_efficiency_ln>
-1.91970108220669

> <r_i_glide_gscore>
-8.31653768652405

> <r_i_glide_lipo>
-3.32688347434438

> <r_i_glide_hbond>
-0.420797902516573

> <r_i_glide_metal>
0

> <r_i_glide_rewards>
-1.85133433135923

> <r_i_glide_evdw>
-38.4847068786621

> <r_i_glide_ecoul>
-10.9500761032104

> <r_i_glide_erotb>
0.90944561277031

> <r_i_glide_esite>
-0.0602208316595006

> <r_i_glide_emodel>
-76.1605841709121

> <r_i_glide_energy>
-49.4347829818726

> <r_i_glide_einternal>
4.31622886657715

> <i_i_glide_confnum>
74

> <i_i_glide_posenum>
59

> <r_i_glide_eff_state_penalty>
0

> <s_user_duplicate_titles>
CHEMBL213_lig689

> <s_m_subgroup_title>
dock_pv

> <s_m_subgroupid>
dock_pv

> <b_m_subgroup_collapsed>
1

$$$$
CHEMBL213_lig1090
                    3D
 Schrodinger Suite 2021-1.
 76 77  0  0  1  0            999 V2000
   35.9706    4.2724   -0.4019 C   0  0  0  0  0  0
   35.0650    5.3000   -0.0871 C   0  0  0  0  0  0
   34.4187    5.9913   -1.1087 C   0  0  0  0  0  0
   34.6768    5.6813   -2.4424 C   0  0  0  0  0  0
   35.5824    4.6723   -2.7739 C   0  0  0  0  0  0
   36.2205    3.9672   -1.7459 C   0  0  0  0  0  0
   34.7925    5.6621    1.2072 O   0  0  0  0  0  0
   36.7011    3.4848    0.6734 C   0  0  0  0  0  0
   38.0634    3.8499    0.7851 O   0  0  0  0  0  0
   35.8635    4.3337   -4.2402 C   0  0  2  0  0  0
   35.2033    3.0021   -4.6729 C   0  0  0  0  0  0
   33.7431    3.0949   -4.7502 N   0  0  2  0  0  0
   33.2888    3.8194   -5.9355 C   0  0  0  0  0  0
   32.3477    4.9653   -5.5430 C   0  0  0  0  0  0
   31.0072    4.5361   -4.9249 C   0  0  0  0  0  0
   30.0980    5.7418   -4.6410 C   0  0  0  0  0  0
   28.8477    5.3667   -3.8327 C   0  0  0  0  0  0
   27.9427    6.5748   -3.5334 C   0  0  0  0  0  0
   27.0027    6.2487   -2.5246 O   0  0  0  0  0  0
   27.4746    6.4320   -1.2034 C   0  0  0  0  0  0
   26.4127    5.9519   -0.2089 C   0  0  0  0  0  0
   26.4248    4.4274    0.0485 C   0  0  0  0  0  0
   25.7394    4.0146    1.3739 C   0  0  0  0  0  0
   26.2770    4.7126    2.6298 C   0  0  0  0  0  0
   27.6264    5.0662    2.7508 C   0  0  0  0  0  0
   28.0696    5.8548    3.8183 C   0  0  0  0  0  0
   27.1578    6.2376    4.8151 C   0  0  0  0  0  0
   25.8196    5.8467    4.7310 C   0  0  0  0  0  0
   25.3932    5.0706    3.6487 C   0  0  0  0  0  0
   37.2438    4.2506   -4.5211 O   0  0  0  0  0  0
   29.4214    6.2425    3.7874 N   0  0  0  0  0  0
   30.0177    7.2686    4.4213 C   0  0  0  0  0  0
   31.3004    7.3737    4.0998 N   0  0  0  0  0  0
   29.4812    8.0636    5.1848 O   0  0  0  0  0  0
   24.8405    6.2431    5.8208 C   0  0  0  0  0  0
   33.7210    6.7801   -0.8729 H   0  0  0  0  0  0
   34.1850    6.2467   -3.2156 H   0  0  0  0  0  0
   36.9270    3.1891   -1.9948 H   0  0  0  0  0  0
   34.1961    6.4149    1.2417 H   0  0  0  0  0  0
   36.2132    3.6092    1.6400 H   0  0  0  0  0  0
   36.6426    2.4204    0.4487 H   0  0  0  0  0  0
   38.5411    3.4572    0.0335 H   0  0  0  0  0  0
   35.5015    5.1436   -4.8752 H   0  0  0  0  0  0
   35.5894    2.6667   -5.6371 H   0  0  0  0  0  0
   35.4627    2.2284   -3.9507 H   0  0  0  0  0  0
   33.3893    3.5497   -3.9197 H   0  0  0  0  0  0
   34.1185    4.2199   -6.5239 H   0  0  0  0  0  0
   32.7706    3.1151   -6.5876 H   0  0  0  0  0  0
   32.8632    5.6212   -4.8514 H   0  0  0  0  0  0
   32.1529    5.5805   -6.4200 H   0  0  0  0  0  0
   30.4976    3.8380   -5.5911 H   0  0  0  0  0  0
   31.1960    3.9896   -3.9974 H   0  0  0  0  0  0
   30.6602    6.4974   -4.0896 H   0  0  0  0  0  0
   29.8063    6.2106   -5.5831 H   0  0  0  0  0  0
   28.2681    4.6116   -4.3674 H   0  0  0  0  0  0
   29.1624    4.8936   -2.9016 H   0  0  0  0  0  0
   28.5173    7.4648   -3.2662 H   0  0  0  0  0  0
   27.3694    6.8392   -4.4173 H   0  0  0  0  0  0
   28.4220    5.9184   -1.0261 H   0  0  0  0  0  0
   27.6632    7.4926   -1.0449 H   0  0  0  0  0  0
   26.5989    6.4987    0.7148 H   0  0  0  0  0  0
   25.4185    6.2486   -0.5485 H   0  0  0  0  0  0
   25.9335    3.9220   -0.7868 H   0  0  0  0  0  0
   27.4469    4.0495    0.0383 H   0  0  0  0  0  0
   24.6745    4.2336    1.2771 H   0  0  0  0  0  0
   25.8081    2.9382    1.5128 H   0  0  0  0  0  0
   28.3255    4.7913    1.9739 H   0  0  0  0  0  0
   27.4651    6.8386    5.6571 H   0  0  0  0  0  0
   24.3541    4.7766    3.5757 H   0  0  0  0  0  0
   37.5700    5.1555   -4.6338 H   0  0  0  0  0  0
   30.0075    5.7055    3.1691 H   0  0  0  0  0  0
   31.8142    8.1960    4.4005 H   0  0  0  0  0  0
   31.7755    6.6471    3.5857 H   0  0  0  0  0  0
   25.3372    6.2695    6.7882 H   0  0  0  0  0  0
   24.4204    7.2289    5.6203 H   0  0  0  0  0  0
   24.0267    5.5206    5.9039 H   0  0  0  0  0  0
  1  6  1  0  0  0
  1  2  2  0  0  0
  1  8  1  0  0  0
  2  3  1  0  0  0
  2  7  1  0  0  0
  3  4  2  0  0  0
  3 36  1  0  0  0
  4  5  1  0  0  0
  4 37  1  0  0  0
  5 10  1  0  0  0
  5  6  2  0  0  0
  6 38  1  0  0  0
  7 39  1  0  0  0
  8  9  1  0  0  0
  8 40  1  0  0  0
  8 41  1  0  0  0
  9 42  1  0  0  0
 10 11  1  0  0  0
 10 30  1  0  0  0
 10 43  1  0  0  0
 11 12  1  0  0  0
 11 44  1  0  0  0
 11 45  1  0  0  0
 12 13  1  0  0  0
 12 46  1  0  0  0
 13 14  1  0  0  0
 13 47  1  0  0  0
 13 48  1  0  0  0
 14 15  1  0  0  0
 14 49  1  0  0  0
 14 50  1  0  0  0
 15 16  1  0  0  0
 15 51  1  0  0  0
 15 52  1  0  0  0
 16 17  1  0  0  0
 16 53  1  0  0  0
 16 54  1  0  0  0
 17 18  1  0  0  0
 17 55  1  0  0  0
 17 56  1  0  0  0
 18 19  1  0  0  0
 18 57  1  0  0  0
 18 58  1  0  0  0
 19 20  1  0  0  0
 20 21  1  0  0  0
 20 59  1  0  0  0
 20 60  1  0  0  0
 21 22  1  0  0  0
 21 61  1  0  0  0
 21 62  1  0  0  0
 22 23  1  0  0  0
 22 63  1  0  0  0
 22 64  1  0  0  0
 23 24  1  0  0  0
 23 65  1  0  0  0
 23 66  1  0  0  0
 24 25  2  0  0  0
 24 29  1  0  0  0
 25 26  1  0  0  0
 25 67  1  0  0  0
 26 27  2  0  0  0
 26 31  1  0  0  0
 27 28  1  0  0  0
 27 68  1  0  0  0
 28 29  2  0  0  0
 28 35  1  0  0  0
 29 69  1  0  0  0
 30 70  1  0  0  0
 31 32  1  0  0  0
 31 71  1  0  0  0
 32 33  1  0  0  0
 32 34  2  0  0  0
 33 72  1  0  0  0
 33 73  1  0  0  0
 35 74  1  0  0  0
 35 75  1  0  0  0
 35 76  1  0  0  0
M  END
> <s_m_entry_id>
2964

> <s_m_entry_name>
dock_pv.56

> <s_m_Source_Path>
/home/csk/Desktop/cluster/DUD-E-result/adrb1

> <s_m_Source_File>
dock_pv.maegz

> <i_m_Source_File_Index>
56

> <chembl_id>
CHEMBL1835862

> <chembl_pref_name>
None

> <i_lp_mmshare_version>
53161

> <i_f3d_flags>
0

> <r_lp_tautomer_probability>
0.999999999997365

> <s_lp_Force_Field>
OPLS_2005

> <r_lp_Energy>
24.53194

> <b_lp_Chiralities_Consistent>
1

> <s_lp_Variant>
CHEMBL213_lig1090-1

> <s_i_glide_gridfile>
glide-grid_2vt4

> <i_i_glide_lignum>
1272

> <i_i_glide_rotatable_bonds>
21

> <r_i_docking_score>
-8.31497226005261

> <r_i_glide_ligand_efficiency>
-0.237570636001503

> <r_i_glide_ligand_efficiency_sa>
-0.777109302793628

> <r_i_glide_ligand_efficiency_ln>
-1.82532095194806

> <r_i_glide_gscore>
-8.31497226005261

> <r_i_glide_lipo>
-3.425313001839

> <r_i_glide_hbond>
-0.694072381743575

> <r_i_glide_metal>
0

> <r_i_glide_rewards>
-0.937135642417068

> <r_i_glide_evdw>
-53.3911247253418

> <r_i_glide_ecoul>
-13.6160354614258

> <r_i_glide_erotb>
1.45351032142799

> <r_i_glide_esite>
0

> <r_i_glide_emodel>
-94.6803776960066

> <r_i_glide_energy>
-67.0071601867676

> <r_i_glide_einternal>
14.9064950942993

> <i_i_glide_confnum>
65

> <i_i_glide_posenum>
348

> <r_i_glide_eff_state_penalty>
0

> <s_user_duplicate_titles>
CHEMBL213_lig1090

> <s_m_subgroup_title>
dock_pv

> <s_m_subgroupid>
dock_pv

> <b_m_subgroup_collapsed>
1

$$$$
CHEMBL213_lig866
                    3D
 Schrodinger Suite 2021-1.
 58 61  0  0  1  0            999 V2000
   26.5931    6.0303    4.8570 C   0  0  0  0  0  0
   26.4007    5.2056    3.7524 C   0  0  0  0  0  0
   27.4215    5.0492    2.8204 C   0  0  0  0  0  0
   28.6374    5.7041    2.9975 C   0  0  0  0  0  0
   28.8461    6.5632    4.0852 C   0  0  0  0  0  0
   27.8078    6.7007    5.0252 C   0  0  0  0  0  0
   30.1206    7.4334    4.1432 C   0  0  2  0  0  0
   31.4765    6.7154    4.3175 C   0  0  0  0  0  0
   30.0954    8.3692    5.1851 O   0  0  0  0  0  0
   25.3060    6.2497    5.9843 Cl  0  0  0  0  0  0
   31.7463    5.8499    3.1852 N   0  0  1  0  0  0
   32.7104    6.3304    2.2248 C   0  0  1  0  0  0
   34.1886    5.9895    2.4946 C   0  0  0  0  0  0
   35.0778    6.5775    1.3746 C   0  0  0  0  0  0
   32.2608    5.7074    0.9023 C   0  0  0  0  0  0
   33.2629    5.8003   -0.2374 C   0  0  0  0  0  0
   34.6115    6.1452   -0.0204 C   0  0  0  0  0  0
   35.4859    6.1202   -1.1142 C   0  0  0  0  0  0
   35.0386    5.7785   -2.3944 C   0  0  0  0  0  0
   33.7012    5.4484   -2.6147 C   0  0  0  0  0  0
   32.8368    5.4513   -1.5147 C   0  0  0  0  0  0
   33.2830    5.1345   -3.8980 O   0  0  0  0  0  0
   31.9547    4.8450   -4.1205 C   0  0  0  0  0  0
   31.5656    3.5137   -4.2065 C   0  0  0  0  0  0
   30.2140    3.1898   -4.2335 C   0  0  0  0  0  0
   29.2341    4.1851   -4.1547 C   0  0  0  0  0  0
   29.6120    5.5498   -4.1006 C   0  0  0  0  0  0
   30.9847    5.8544   -4.1171 C   0  0  0  0  0  0
   28.6045    6.6740   -3.9410 C   0  0  0  0  0  0
   29.0119    7.8861   -4.4146 O   0  0  0  0  0  0
   27.4976    6.5224   -3.4340 O   0  0  0  0  0  0
   27.7847    3.7151   -4.1641 C   0  0  0  0  0  0
   25.4605    4.6942    3.6101 H   0  0  0  0  0  0
   27.2727    4.4148    1.9582 H   0  0  0  0  0  0
   29.3995    5.5734    2.2466 H   0  0  0  0  0  0
   27.9144    7.3665    5.8692 H   0  0  0  0  0  0
   30.1539    8.0093    3.2171 H   0  0  0  0  0  0
   31.4560    6.1266    5.2312 H   0  0  0  0  0  0
   32.2929    7.4305    4.4388 H   0  0  0  0  0  0
   30.9156    8.8763    5.1469 H   0  0  0  0  0  0
   31.9470    4.9190    3.5463 H   0  0  0  0  0  0
   32.6207    7.4231    2.2042 H   0  0  0  0  0  0
   34.3358    4.9103    2.5362 H   0  0  0  0  0  0
   34.4942    6.3806    3.4646 H   0  0  0  0  0  0
   36.1214    6.3028    1.5321 H   0  0  0  0  0  0
   35.0321    7.6653    1.4315 H   0  0  0  0  0  0
   31.2970    6.1197    0.6166 H   0  0  0  0  0  0
   32.0886    4.6501    1.0644 H   0  0  0  0  0  0
   36.5264    6.3851   -0.9790 H   0  0  0  0  0  0
   35.7332    5.7810   -3.2234 H   0  0  0  0  0  0
   31.8006    5.1668   -1.6309 H   0  0  0  0  0  0
   32.3106    2.7316   -4.2031 H   0  0  0  0  0  0
   29.9280    2.1479   -4.2698 H   0  0  0  0  0  0
   31.3179    6.8800   -4.0534 H   0  0  0  0  0  0
   28.2968    8.5283   -4.3468 H   0  0  0  0  0  0
   27.7069    2.6957   -4.5484 H   0  0  0  0  0  0
   27.3473    3.7393   -3.1632 H   0  0  0  0  0  0
   27.1640    4.3363   -4.8106 H   0  0  0  0  0  0
  1 10  1  0  0  0
  1  6  1  0  0  0
  1  2  2  0  0  0
  2  3  1  0  0  0
  2 33  1  0  0  0
  3  4  2  0  0  0
  3 34  1  0  0  0
  4  5  1  0  0  0
  4 35  1  0  0  0
  5  6  2  0  0  0
  5  7  1  0  0  0
  6 36  1  0  0  0
  7  8  1  0  0  0
  7  9  1  0  0  0
  7 37  1  0  0  0
  8 11  1  0  0  0
  8 38  1  0  0  0
  8 39  1  0  0  0
  9 40  1  0  0  0
 11 12  1  0  0  0
 11 41  1  0  0  0
 12 13  1  0  0  0
 12 15  1  0  0  0
 12 42  1  0  0  0
 13 14  1  0  0  0
 13 43  1  0  0  0
 13 44  1  0  0  0
 14 17  1  0  0  0
 14 45  1  0  0  0
 14 46  1  0  0  0
 15 16  1  0  0  0
 15 47  1  0  0  0
 15 48  1  0  0  0
 16 17  2  0  0  0
 16 21  1  0  0  0
 17 18  1  0  0  0
 18 19  2  0  0  0
 18 49  1  0  0  0
 19 20  1  0  0  0
 19 50  1  0  0  0
 20 21  2  0  0  0
 20 22  1  0  0  0
 21 51  1  0  0  0
 22 23  1  0  0  0
 23 24  2  0  0  0
 23 28  1  0  0  0
 24 25  1  0  0  0
 24 52  1  0  0  0
 25 26  2  0  0  0
 25 53  1  0  0  0
 26 27  1  0  0  0
 26 32  1  0  0  0
 27 28  2  0  0  0
 27 29  1  0  0  0
 28 54  1  0  0  0
 29 30  1  0  0  0
 29 31  2  0  0  0
 30 55  1  0  0  0
 32 56  1  0  0  0
 32 57  1  0  0  0
 32 58  1  0  0  0
M  END
> <s_m_entry_id>
2965

> <s_m_entry_name>
dock_pv.57

> <s_m_Source_Path>
/home/csk/Desktop/cluster/DUD-E-result/adrb1

> <s_m_Source_File>
dock_pv.maegz

> <i_m_Source_File_Index>
57

> <chembl_id>
CHEMBL456772

> <chembl_pref_name>
None

> <i_lp_mmshare_version>
53161

> <i_f3d_flags>
0

> <r_lp_tautomer_probability>
1

> <s_lp_Force_Field>
OPLS_2005

> <r_lp_Energy>
32.247771

> <b_lp_Chiralities_Consistent>
1

> <s_lp_Variant>
CHEMBL213_lig866-1

> <s_i_glide_gridfile>
glide-grid_2vt4

> <i_i_glide_lignum>
974

> <i_i_glide_rotatable_bonds>
9

> <r_i_docking_score>
-8.30874685443396

> <r_i_glide_ligand_efficiency>
-0.259648339201061

> <r_i_glide_ligand_efficiency_sa>
-0.824332092626816

> <r_i_glide_ligand_efficiency_ln>
-1.86055490859299

> <r_i_glide_gscore>
-8.30874685443396

> <r_i_glide_lipo>
-3.61704728647284

> <r_i_glide_hbond>
-0.501810159811251

> <r_i_glide_metal>
0

> <r_i_glide_rewards>
-1.31334787660096

> <r_i_glide_evdw>
-38.2689208984375

> <r_i_glide_ecoul>
-10.3493518829346

> <r_i_glide_erotb>
0.589307295813146

> <r_i_glide_esite>
0

> <r_i_glide_emodel>
-61.224206023539

> <r_i_glide_energy>
-48.6182727813721

> <r_i_glide_einternal>
10.0763053894043

> <i_i_glide_confnum>
12

> <i_i_glide_posenum>
309

> <r_i_glide_eff_state_penalty>
0

> <s_user_duplicate_titles>
CHEMBL213_lig866

> <s_m_subgroup_title>
dock_pv

> <s_m_subgroupid>
dock_pv

> <b_m_subgroup_collapsed>
1

$$$$
CHEMBL213_lig1035
                    3D
 Schrodinger Suite 2021-1.
 53 55  0  0  1  0            999 V2000
   27.1369    6.6723   -0.7898 C   0  0  0  0  0  0
   27.6889    5.2355   -1.0080 C   0  0  0  0  0  0
   29.1296    5.0238   -0.4716 C   0  0  0  0  0  0
   30.4330    2.2226   -6.5449 C   0  0  0  0  0  0
   29.2475    2.3538   -5.8231 C   0  0  0  0  0  0
   29.1089    3.3695   -4.8769 C   0  0  0  0  0  0
   30.1524    4.2760   -4.6186 C   0  0  0  0  0  0
   31.4802    3.1067   -6.3026 C   0  0  0  0  0  0
   31.3504    4.1086   -5.3345 C   0  0  0  0  0  0
   32.4468    4.9077   -5.0758 O   0  0  0  0  0  0
   33.2728    5.2310   -6.2209 C   0  0  0  0  0  0
   33.5823    4.0172   -7.1437 C   0  0  0  0  0  0
   32.6533    3.0492   -7.0493 N   0  0  0  0  0  0
   34.5569    3.9273   -7.8848 O   0  0  0  0  0  0
   28.2080    1.4991   -6.0679 O   0  0  0  0  0  0
   29.9544    5.4490   -3.6343 C   0  0  2  0  0  0
   28.4747    5.8645   -3.3628 C   0  0  0  0  0  0
   30.6079    6.6499   -4.0167 O   0  0  0  0  0  0
   27.7151    4.9865   -2.4585 N   0  0  2  0  0  0
   26.7113    4.1603   -0.4273 C   0  0  0  0  0  0
   26.1561    4.3179    1.0022 C   0  0  0  0  0  0
   24.9311    3.7104    1.3051 C   0  0  0  0  0  0
   24.3622    3.8502    2.5701 C   0  0  0  0  0  0
   25.0138    4.5993    3.5508 C   0  0  0  0  0  0
   26.2484    5.1973    3.2828 C   0  0  0  0  0  0
   26.8070    5.0498    2.0090 C   0  0  0  0  0  0
   26.9637    6.0157    4.3613 C   0  0  0  0  0  0
   28.2215    6.3032    4.0257 F   0  0  0  0  0  0
   26.3075    7.1611    4.5409 F   0  0  0  0  0  0
   27.0051    5.3563    5.5183 F   0  0  0  0  0  0
   26.9593    6.9177    0.2527 H   0  0  0  0  0  0
   27.8088    7.4476   -1.1484 H   0  0  0  0  0  0
   26.1875    6.8093   -1.3081 H   0  0  0  0  0  0
   29.2023    4.8907    0.6033 H   0  0  0  0  0  0
   29.5664    4.1130   -0.8848 H   0  0  0  0  0  0
   29.7878    5.8500   -0.7325 H   0  0  0  0  0  0
   30.5244    1.4488   -7.2926 H   0  0  0  0  0  0
   28.1713    3.4346   -4.3506 H   0  0  0  0  0  0
   32.7437    5.9601   -6.8340 H   0  0  0  0  0  0
   34.2104    5.6829   -5.9027 H   0  0  0  0  0  0
   32.8116    2.2698   -7.6688 H   0  0  0  0  0  0
   27.3933    1.7470   -5.6134 H   0  0  0  0  0  0
   30.4578    5.1576   -2.7157 H   0  0  0  0  0  0
   27.9513    5.8818   -4.3195 H   0  0  0  0  0  0
   28.4271    6.8928   -3.0169 H   0  0  0  0  0  0
   30.3694    6.8775   -4.9214 H   0  0  0  0  0  0
   26.7712    4.8258   -2.8100 H   0  0  0  0  0  0
   27.1621    3.1707   -0.4997 H   0  0  0  0  0  0
   25.8294    4.1193   -1.0719 H   0  0  0  0  0  0
   24.4028    3.1440    0.5496 H   0  0  0  0  0  0
   23.4069    3.3945    2.7839 H   0  0  0  0  0  0
   24.5525    4.7152    4.5206 H   0  0  0  0  0  0
   27.7383    5.5476    1.8173 H   0  0  0  0  0  0
  1  2  1  0  0  0
  1 31  1  0  0  0
  1 32  1  0  0  0
  1 33  1  0  0  0
  2 19  1  0  0  0
  2  3  1  0  0  0
  2 20  1  0  0  0
  3 34  1  0  0  0
  3 35  1  0  0  0
  3 36  1  0  0  0
  4  8  2  0  0  0
  4  5  1  0  0  0
  4 37  1  0  0  0
  5 15  1  0  0  0
  5  6  2  0  0  0
  6  7  1  0  0  0
  6 38  1  0  0  0
  7 16  1  0  0  0
  7  9  2  0  0  0
  8  9  1  0  0  0
  8 13  1  0  0  0
  9 10  1  0  0  0
 10 11  1  0  0  0
 11 12  1  0  0  0
 11 39  1  0  0  0
 11 40  1  0  0  0
 12 13  1  0  0  0
 12 14  2  0  0  0
 13 41  1  0  0  0
 15 42  1  0  0  0
 16 17  1  0  0  0
 16 18  1  0  0  0
 16 43  1  0  0  0
 17 19  1  0  0  0
 17 44  1  0  0  0
 17 45  1  0  0  0
 18 46  1  0  0  0
 19 47  1  0  0  0
 20 21  1  0  0  0
 20 48  1  0  0  0
 20 49  1  0  0  0
 21 22  2  0  0  0
 21 26  1  0  0  0
 22 23  1  0  0  0
 22 50  1  0  0  0
 23 24  2  0  0  0
 23 51  1  0  0  0
 24 25  1  0  0  0
 24 52  1  0  0  0
 25 26  2  0  0  0
 25 27  1  0  0  0
 26 53  1  0  0  0
 27 28  1  0  0  0
 27 29  1  0  0  0
 27 30  1  0  0  0
M  END
> <s_m_entry_id>
2966

> <s_m_entry_name>
dock_pv.58

> <s_m_Source_Path>
/home/csk/Desktop/cluster/DUD-E-result/adrb1

> <s_m_Source_File>
dock_pv.maegz

> <i_m_Source_File_Index>
58

> <chembl_id>
CHEMBL604333

> <chembl_pref_name>
None

> <i_lp_mmshare_version>
53161

> <i_f3d_flags>
0

> <r_lp_tautomer_probability>
0.999999999999998

> <s_lp_Force_Field>
OPLS_2005

> <r_lp_Energy>
30.23475

> <b_lp_Chiralities_Consistent>
1

> <s_lp_Variant>
CHEMBL213_lig1035-1

> <s_i_glide_gridfile>
glide-grid_2vt4

> <i_i_glide_lignum>
1190

> <i_i_glide_rotatable_bonds>
9

> <r_i_docking_score>
-8.30654576184545

> <r_i_glide_ligand_efficiency>
-0.276884858728182

> <r_i_glide_ligand_efficiency_sa>
-0.860345632471246

> <r_i_glide_ligand_efficiency_ln>
-1.88733770415641

> <r_i_glide_gscore>
-8.30654576184545

> <r_i_glide_lipo>
-2.74719604312192

> <r_i_glide_hbond>
-0.339949634064425

> <r_i_glide_metal>
0

> <r_i_glide_rewards>
-2.29312830879432

> <r_i_glide_evdw>
-46.1152534484863

> <r_i_glide_ecoul>
-8.53987216949463

> <r_i_glide_erotb>
0.660471721983722

> <r_i_glide_esite>
0

> <r_i_glide_emodel>
-72.971649589513

> <r_i_glide_energy>
-54.655125617981

> <r_i_glide_einternal>
19.213659286499

> <i_i_glide_confnum>
148

> <i_i_glide_posenum>
132

> <r_i_glide_eff_state_penalty>
0

> <s_user_duplicate_titles>
CHEMBL213_lig1035,602983

> <s_m_subgroup_title>
dock_pv

> <s_m_subgroupid>
dock_pv

> <b_m_subgroup_collapsed>
1

$$$$
CHEMBL213_lig1089
                    3D
 Schrodinger Suite 2021-1.
 76 77  0  0  1  0            999 V2000
   36.7104    5.5576   -0.1006 C   0  0  0  0  0  0
   35.4935    6.1465    0.2885 C   0  0  0  0  0  0
   34.3153    5.8249   -0.3839 C   0  0  0  0  0  0
   34.3425    4.9308   -1.4507 C   0  0  0  0  0  0
   35.5509    4.3808   -1.8928 C   0  0  0  0  0  0
   36.7271    4.6977   -1.2061 C   0  0  0  0  0  0
   35.4080    7.0491    1.3165 O   0  0  0  0  0  0
   38.0140    5.8245    0.6474 C   0  0  0  0  0  0
   38.6074    4.6490    1.1732 O   0  0  0  0  0  0
   35.5922    3.4008   -3.0716 C   0  0  2  0  0  0
   35.1978    3.9856   -4.4608 C   0  0  0  0  0  0
   33.9441    4.7418   -4.4617 N   0  0  2  0  0  0
   33.4220    5.0194   -5.7939 C   0  0  0  0  0  0
   32.6436    3.8222   -6.3803 C   0  0  0  0  0  0
   31.4595    3.3016   -5.5288 C   0  0  0  0  0  0
   30.4236    4.3743   -5.1247 C   0  0  0  0  0  0
   29.1003    3.7690   -4.6110 C   0  0  0  0  0  0
   28.0868    4.8055   -4.0897 C   0  0  0  0  0  0
   28.3345    5.0703   -2.7177 O   0  0  0  0  0  0
   27.5399    6.1101   -2.1585 C   0  0  0  0  0  0
   27.3506    5.8017   -0.6656 C   0  0  0  0  0  0
   26.1562    4.8604   -0.3717 C   0  0  0  0  0  0
   26.2281    4.0308    0.9340 C   0  0  0  0  0  0
   26.5980    4.7816    2.2137 C   0  0  0  0  0  0
   27.9284    5.1402    2.4426 C   0  0  0  0  0  0
   28.2975    5.8573    3.5767 C   0  0  0  0  0  0
   27.3259    6.1629    4.5393 C   0  0  0  0  0  0
   25.9986    5.7534    4.3644 C   0  0  0  0  0  0
   25.6409    5.0650    3.1940 C   0  0  0  0  0  0
   34.8139    2.2504   -2.8152 O   0  0  0  0  0  0
   29.6425    6.2453    3.6470 N   0  0  0  0  0  0
   30.2002    7.2160    4.3844 C   0  0  0  0  0  0
   31.4918    7.3390    4.1149 N   0  0  0  0  0  0
   29.6294    7.9482    5.1849 O   0  0  0  0  0  0
   24.9823    6.0555    5.4654 C   0  0  0  0  0  0
   23.8981    5.2820    5.3891 F   0  0  0  0  0  0
   25.5450    5.8503    6.6508 F   0  0  0  0  0  0
   24.6079    7.3322    5.4032 F   0  0  0  0  0  0
   33.3729    6.2504   -0.0764 H   0  0  0  0  0  0
   33.4124    4.6624   -1.9313 H   0  0  0  0  0  0
   37.6640    4.2535   -1.5243 H   0  0  0  0  0  0
   34.5297    7.4449    1.3477 H   0  0  0  0  0  0
   38.7241    6.3107   -0.0222 H   0  0  0  0  0  0
   37.8618    6.5140    1.4790 H   0  0  0  0  0  0
   38.8086    4.0501    0.4417 H   0  0  0  0  0  0
   36.6113    3.0249   -3.1769 H   0  0  0  0  0  0
   35.9908    4.6572   -4.7981 H   0  0  0  0  0  0
   35.1636    3.1739   -5.1897 H   0  0  0  0  0  0
   34.1034    5.6135   -3.9774 H   0  0  0  0  0  0
   32.7222    5.8500   -5.6951 H   0  0  0  0  0  0
   34.2128    5.3670   -6.4627 H   0  0  0  0  0  0
   32.2681    4.1077   -7.3620 H   0  0  0  0  0  0
   33.3312    2.9996   -6.5702 H   0  0  0  0  0  0
   30.9615    2.5112   -6.0961 H   0  0  0  0  0  0
   31.8410    2.8201   -4.6263 H   0  0  0  0  0  0
   30.8516    5.0209   -4.3565 H   0  0  0  0  0  0
   30.2101    5.0176   -5.9786 H   0  0  0  0  0  0
   28.6367    3.1966   -5.4152 H   0  0  0  0  0  0
   29.3040    3.0483   -3.8192 H   0  0  0  0  0  0
   28.1359    5.7249   -4.6766 H   0  0  0  0  0  0
   27.0756    4.4088   -4.1946 H   0  0  0  0  0  0
   28.0734    7.0510   -2.2946 H   0  0  0  0  0  0
   26.5700    6.2193   -2.6479 H   0  0  0  0  0  0
   28.2839    5.3657   -0.3099 H   0  0  0  0  0  0
   27.2182    6.7323   -0.1138 H   0  0  0  0  0  0
   25.2283    5.4367   -0.4130 H   0  0  0  0  0  0
   26.0709    4.1414   -1.1853 H   0  0  0  0  0  0
   25.2862    3.4987    1.0787 H   0  0  0  0  0  0
   26.9637    3.2429    0.7831 H   0  0  0  0  0  0
   28.6840    4.8855    1.7167 H   0  0  0  0  0  0
   27.5855    6.7055    5.4363 H   0  0  0  0  0  0
   24.6161    4.7578    3.0401 H   0  0  0  0  0  0
   35.1324    1.8635   -1.9951 H   0  0  0  0  0  0
   30.2601    5.7588    3.0172 H   0  0  0  0  0  0
   31.9830    8.1662    4.4458 H   0  0  0  0  0  0
   31.9963    6.6109    3.6357 H   0  0  0  0  0  0
  1  6  1  0  0  0
  1  2  2  0  0  0
  1  8  1  0  0  0
  2  3  1  0  0  0
  2  7  1  0  0  0
  3  4  2  0  0  0
  3 39  1  0  0  0
  4  5  1  0  0  0
  4 40  1  0  0  0
  5 10  1  0  0  0
  5  6  2  0  0  0
  6 41  1  0  0  0
  7 42  1  0  0  0
  8  9  1  0  0  0
  8 43  1  0  0  0
  8 44  1  0  0  0
  9 45  1  0  0  0
 10 11  1  0  0  0
 10 30  1  0  0  0
 10 46  1  0  0  0
 11 12  1  0  0  0
 11 47  1  0  0  0
 11 48  1  0  0  0
 12 13  1  0  0  0
 12 49  1  0  0  0
 13 14  1  0  0  0
 13 50  1  0  0  0
 13 51  1  0  0  0
 14 15  1  0  0  0
 14 52  1  0  0  0
 14 53  1  0  0  0
 15 16  1  0  0  0
 15 54  1  0  0  0
 15 55  1  0  0  0
 16 17  1  0  0  0
 16 56  1  0  0  0
 16 57  1  0  0  0
 17 18  1  0  0  0
 17 58  1  0  0  0
 17 59  1  0  0  0
 18 19  1  0  0  0
 18 60  1  0  0  0
 18 61  1  0  0  0
 19 20  1  0  0  0
 20 21  1  0  0  0
 20 62  1  0  0  0
 20 63  1  0  0  0
 21 22  1  0  0  0
 21 64  1  0  0  0
 21 65  1  0  0  0
 22 23  1  0  0  0
 22 66  1  0  0  0
 22 67  1  0  0  0
 23 24  1  0  0  0
 23 68  1  0  0  0
 23 69  1  0  0  0
 24 25  2  0  0  0
 24 29  1  0  0  0
 25 26  1  0  0  0
 25 70  1  0  0  0
 26 27  2  0  0  0
 26 31  1  0  0  0
 27 28  1  0  0  0
 27 71  1  0  0  0
 28 29  2  0  0  0
 28 35  1  0  0  0
 29 72  1  0  0  0
 30 73  1  0  0  0
 31 32  1  0  0  0
 31 74  1  0  0  0
 32 33  1  0  0  0
 32 34  2  0  0  0
 33 75  1  0  0  0
 33 76  1  0  0  0
 35 36  1  0  0  0
 35 37  1  0  0  0
 35 38  1  0  0  0
M  END
> <s_m_entry_id>
2967

> <s_m_entry_name>
dock_pv.59

> <s_m_Source_Path>
/home/csk/Desktop/cluster/DUD-E-result/adrb1

> <s_m_Source_File>
dock_pv.maegz

> <i_m_Source_File_Index>
59

> <chembl_id>
CHEMBL1835861

> <chembl_pref_name>
None

> <i_lp_mmshare_version>
53161

> <i_f3d_flags>
0

> <r_lp_tautomer_probability>
0.999999999997365

> <s_lp_Force_Field>
OPLS_2005

> <r_lp_Energy>
19.990922

> <b_lp_Chiralities_Consistent>
1

> <s_lp_Variant>
CHEMBL213_lig1089-1

> <s_i_glide_gridfile>
glide-grid_2vt4

> <i_i_glide_lignum>
1271

> <i_i_glide_rotatable_bonds>
22

> <r_i_docking_score>
-8.29883954660897

> <r_i_glide_ligand_efficiency>
-0.218390514384447

> <r_i_glide_ligand_efficiency_sa>
-0.734223537548417

> <r_i_glide_ligand_efficiency_ln>
-1.78947393337455

> <r_i_glide_gscore>
-8.29883954660897

> <r_i_glide_lipo>
-2.93029237488784

> <r_i_glide_hbond>
-0.798962256938753

> <r_i_glide_metal>
0

> <r_i_glide_rewards>
-1.31066898038702

> <r_i_glide_evdw>
-51.0114822387695

> <r_i_glide_ecoul>
-12.7128238677979

> <r_i_glide_erotb>
1.19858175771281

> <r_i_glide_esite>
0

> <r_i_glide_emodel>
-90.3630964748557

> <r_i_glide_energy>
-63.7243061065674

> <r_i_glide_einternal>
15.8868398666382

> <i_i_glide_confnum>
7

> <i_i_glide_posenum>
57

> <r_i_glide_eff_state_penalty>
0

> <s_user_duplicate_titles>
CHEMBL213_lig1089

> <s_m_subgroup_title>
dock_pv

> <s_m_subgroupid>
dock_pv

> <b_m_subgroup_collapsed>
1

$$$$
CHEMBL213_lig409
                    3D
 Schrodinger Suite 2021-1.
 75 80  0  0  1  0            999 V2000
   27.6423    5.5865    3.2348 C   0  0  0  0  0  0
   26.5608    5.3156    4.0767 C   0  0  0  0  0  0
   25.4418    4.6515    3.5850 C   0  0  0  0  0  0
   25.4017    4.2519    2.2456 C   0  0  0  0  0  0
   26.4560    4.5727    1.3890 C   0  0  0  0  0  0
   27.5707    5.2339    1.8823 C   0  0  0  0  0  0
   24.2104    3.4940    1.6886 C   0  0  0  0  0  0
   24.5896    2.2507    1.4181 F   0  0  0  0  0  0
   23.1884    3.4543    2.5420 F   0  0  0  0  0  0
   23.8078    4.0730    0.5632 F   0  0  0  0  0  0
   27.4922    4.8326   -4.0150 C   0  0  0  0  0  0
   27.4523    6.2206   -3.9313 C   0  0  0  0  0  0
   28.6118    6.9354   -3.6674 C   0  0  0  0  0  0
   29.8031    6.2493   -3.4368 C   0  0  0  0  0  0
   29.8273    4.8518   -3.4230 C   0  0  0  0  0  0
   28.6739    4.1494   -3.7717 C   0  0  0  0  0  0
   31.0844    4.1065   -2.9682 C   0  0  1  0  0  0
   30.7587    3.0500   -2.0720 O   0  0  0  0  0  0
   33.2366    3.0167   -3.6176 N   0  0  2  0  0  0
   31.9958    3.5878   -4.1195 C   0  0  2  0  0  0
   32.4462    4.6639   -5.1297 C   0  0  0  0  0  0
   33.9270    4.3673   -5.4216 C   0  0  0  0  0  0
   34.2034    3.0440   -4.6990 C   0  0  1  0  0  0
   35.6738    2.7709   -4.2775 C   0  0  0  0  0  0
   36.1328    3.6746   -3.1478 C   0  0  0  0  0  0
   35.8130    3.3882   -1.8210 C   0  0  0  0  0  0
   36.0011    4.3629   -0.8458 C   0  0  0  0  0  0
   36.4746    5.6305   -1.2091 C   0  0  0  0  0  0
   36.9364    5.8449   -2.4980 C   0  0  0  0  0  0
   36.7793    4.8583   -3.4626 C   0  0  0  0  0  0
   36.6825    6.6255    1.3729 S   0  0  0  0  0  0
   37.4410    5.3948    1.5892 O   0  0  0  0  0  0
   37.2145    7.9223    1.8066 O   0  0  0  0  0  0
   35.0492    6.4577    2.1172 C   0  0  0  0  0  0
   33.9849    5.8509    1.4410 C   0  0  0  0  0  0
   32.7049    5.8875    1.9856 C   0  0  0  0  0  0
   32.4638    6.5215    3.2123 C   0  0  0  0  0  0
   33.5528    7.0438    3.9195 C   0  0  0  0  0  0
   34.8339    7.0220    3.3749 C   0  0  0  0  0  0
   31.0518    6.6293    3.7313 C   0  0  0  0  0  0
   30.0312    6.0341    3.1726 N   0  0  0  0  0  0
   28.8745    6.2232    3.7862 C   0  0  0  0  0  0
   28.9624    7.0154    4.9287 C   0  0  0  0  0  0
   30.6158    7.4526    5.1849 S   0  0  0  0  0  0
   36.4625    6.7412   -0.3578 N   0  0  0  0  0  0
   31.4329    2.8249   -4.6618 H   0  0  0  0  0  0
   26.5906    5.5890    5.1208 H   0  0  0  0  0  0
   24.6213    4.4330    4.2526 H   0  0  0  0  0  0
   26.4205    4.2876    0.3468 H   0  0  0  0  0  0
   28.3865    5.4499    1.2100 H   0  0  0  0  0  0
   26.6081    4.2861   -4.3038 H   0  0  0  0  0  0
   26.5257    6.7413   -4.1266 H   0  0  0  0  0  0
   28.5865    8.0162   -3.6457 H   0  0  0  0  0  0
   30.7033    6.7994   -3.2188 H   0  0  0  0  0  0
   28.6746    3.0713   -3.8253 H   0  0  0  0  0  0
   31.6707    4.8051   -2.3661 H   0  0  0  0  0  0
   29.9946    2.5711   -2.4130 H   0  0  0  0  0  0
   33.1023    2.1040   -3.2086 H   0  0  0  0  0  0
   31.8953    4.5412   -6.0637 H   0  0  0  0  0  0
   32.3027    5.6827   -4.7721 H   0  0  0  0  0  0
   34.0670    4.2548   -6.4973 H   0  0  0  0  0  0
   34.5775    5.1749   -5.0863 H   0  0  0  0  0  0
   34.0030    2.2503   -5.4199 H   0  0  0  0  0  0
   35.8091    1.7413   -3.9561 H   0  0  0  0  0  0
   36.3368    2.8757   -5.1394 H   0  0  0  0  0  0
   35.3582    2.4447   -1.5579 H   0  0  0  0  0  0
   35.7184    4.1291    0.1678 H   0  0  0  0  0  0
   37.3604    6.7936   -2.7985 H   0  0  0  0  0  0
   37.0717    5.0501   -4.4845 H   0  0  0  0  0  0
   34.0929    5.4369    0.4543 H   0  0  0  0  0  0
   31.8924    5.4637    1.4152 H   0  0  0  0  0  0
   33.4091    7.4869    4.8905 H   0  0  0  0  0  0
   35.6502    7.4812    3.9146 H   0  0  0  0  0  0
   28.1823    7.3302    5.6087 H   0  0  0  0  0  0
   36.6324    7.6472   -0.7640 H   0  0  0  0  0  0
  1  2  2  0  0  0
  1  6  1  0  0  0
  1 42  1  0  0  0
  2  3  1  0  0  0
  2 47  1  0  0  0
  3  4  2  0  0  0
  3 48  1  0  0  0
  4  5  1  0  0  0
  4  7  1  0  0  0
  5  6  2  0  0  0
  5 49  1  0  0  0
  6 50  1  0  0  0
  7  8  1  0  0  0
  7  9  1  0  0  0
  7 10  1  0  0  0
 11 16  1  0  0  0
 11 12  2  0  0  0
 11 51  1  0  0  0
 12 13  1  0  0  0
 12 52  1  0  0  0
 13 14  2  0  0  0
 13 53  1  0  0  0
 14 15  1  0  0  0
 14 54  1  0  0  0
 15 16  2  0  0  0
 15 17  1  0  0  0
 16 55  1  0  0  0
 17 18  1  0  0  0
 17 20  1  0  0  0
 17 56  1  0  0  0
 18 57  1  0  0  0
 19 23  1  0  0  0
 19 20  1  0  0  0
 19 58  1  0  0  0
 20 21  1  0  0  0
 20 46  1  0  0  0
 21 22  1  0  0  0
 21 59  1  0  0  0
 21 60  1  0  0  0
 22 23  1  0  0  0
 22 61  1  0  0  0
 22 62  1  0  0  0
 23 24  1  0  0  0
 23 63  1  0  0  0
 24 25  1  0  0  0
 24 64  1  0  0  0
 24 65  1  0  0  0
 25 26  2  0  0  0
 25 30  1  0  0  0
 26 27  1  0  0  0
 26 66  1  0  0  0
 27 28  2  0  0  0
 27 67  1  0  0  0
 28 29  1  0  0  0
 28 45  1  0  0  0
 29 30  2  0  0  0
 29 68  1  0  0  0
 30 69  1  0  0  0
 31 32  2  0  0  0
 31 33  2  0  0  0
 31 34  1  0  0  0
 31 45  1  0  0  0
 34 35  2  0  0  0
 34 39  1  0  0  0
 35 36  1  0  0  0
 35 70  1  0  0  0
 36 37  2  0  0  0
 36 71  1  0  0  0
 37 38  1  0  0  0
 37 40  1  0  0  0
 38 39  2  0  0  0
 38 72  1  0  0  0
 39 73  1  0  0  0
 40 41  2  0  0  0
 40 44  1  0  0  0
 41 42  1  0  0  0
 42 43  2  0  0  0
 43 44  1  0  0  0
 43 74  1  0  0  0
 45 75  1  0  0  0
M  END
> <s_m_entry_id>
2968

> <s_m_entry_name>
dock_pv.60

> <s_m_Source_Path>
/home/csk/Desktop/cluster/DUD-E-result/adrb1

> <s_m_Source_File>
dock_pv.maegz

> <i_m_Source_File_Index>
60

> <chembl_id>
CHEMBL1684583

> <chembl_pref_name>
None

> <i_lp_mmshare_version>
53161

> <i_f3d_flags>
0

> <r_lp_tautomer_probability>
1

> <s_lp_Force_Field>
OPLS_2005

> <r_lp_Energy>
56.757068

> <b_lp_Chiralities_Consistent>
1

> <s_lp_Variant>
CHEMBL213_lig409-1

> <s_i_glide_gridfile>
glide-grid_2vt4

> <i_i_glide_lignum>
482

> <i_i_glide_rotatable_bonds>
11

> <r_i_docking_score>
-8.29515344628695

> <r_i_glide_ligand_efficiency>
-0.184336743250821

> <r_i_glide_ligand_efficiency_sa>
-0.655666127008383

> <r_i_glide_ligand_efficiency_ln>
-1.72576157862986

> <r_i_glide_gscore>
-8.29515344628695

> <r_i_glide_lipo>
-3.89308661640369

> <r_i_glide_hbond>
-0.32

> <r_i_glide_metal>
0

> <r_i_glide_rewards>
-0.933353087215106

> <r_i_glide_evdw>
-51.2923126220703

> <r_i_glide_ecoul>
-5.60188388824463

> <r_i_glide_erotb>
0.302011196900584

> <r_i_glide_esite>
-0.0458267252285279

> <r_i_glide_emodel>
-78.1896074273987

> <r_i_glide_energy>
-56.8941965103149

> <r_i_glide_einternal>
3.42859578132629

> <i_i_glide_confnum>
2

> <i_i_glide_posenum>
14

> <r_i_glide_eff_state_penalty>
0

> <s_user_duplicate_titles>
CHEMBL213_lig409,CHEMBL213_lig405

> <s_m_subgroup_title>
dock_pv

> <s_m_subgroupid>
dock_pv

> <b_m_subgroup_collapsed>
1

$$$$
CHEMBL213_lig255
                    3D
 Schrodinger Suite 2021-1.
 77 80  0  0  1  0            999 V2000
   32.7157    3.5398   -3.5161 C   0  0  0  0  0  0
   32.1513    3.3184   -4.7163 N   0  0  0  0  0  0
   33.9598    3.9892   -3.7719 N   0  0  0  0  0  0
   32.9309    3.7191   -5.7302 C   0  0  0  0  0  0
   37.9944    5.8444    0.2768 S   0  0  0  0  0  0
   34.0760    4.0536   -5.1392 N   0  0  0  0  0  0
   37.1370    7.1001    1.2124 N   0  0  0  0  0  0
   36.8464    5.2603   -0.9728 C   0  0  0  0  0  0
   34.9435    4.3995   -2.8436 C   0  0  0  0  0  0
   38.2854    4.7314    1.1851 O   0  0  0  0  0  0
   39.0736    6.5551   -0.4174 O   0  0  0  0  0  0
   32.1725    3.4471   -2.4153 O   0  0  0  0  0  0
   32.6458    3.8324   -6.9205 O   0  0  0  0  0  0
   27.4800    5.9641    3.9664 C   0  0  0  0  0  0
   27.7858    5.0567    1.7361 N   0  0  0  0  0  0
   35.9995    4.1971   -0.6728 C   0  0  0  0  0  0
   36.7887    5.8502   -2.2369 C   0  0  0  0  0  0
   35.8511    5.4020   -3.1702 C   0  0  0  0  0  0
   35.0319    3.8105   -1.5842 C   0  0  0  0  0  0
   31.1066    2.2878   -4.9034 C   0  0  0  0  0  0
   36.1956    6.8876    2.2361 C   0  0  0  0  0  0
   27.9615    6.8561    5.1124 C   0  0  1  0  0  0
   30.5069    6.6603    5.0377 N   0  0  2  0  0  0
   34.1713    6.6397    4.1730 C   0  0  0  0  0  0
   28.2583    5.6994    2.8324 C   0  0  0  0  0  0
   35.5676    5.6601    2.4611 C   0  0  0  0  0  0
   35.8537    7.9734    3.0447 C   0  0  0  0  0  0
   34.5703    5.5370    3.4236 C   0  0  0  0  0  0
   34.8593    7.8444    4.0128 C   0  0  0  0  0  0
   27.8082    6.2500    6.3840 O   0  0  0  0  0  0
   29.3467    7.5514    4.9480 C   0  0  0  0  0  0
   26.1725    5.4581    3.9839 C   0  0  0  0  0  0
   26.5006    4.6302    1.7602 C   0  0  0  0  0  0
   31.7662    7.3762    4.8571 C   0  0  0  0  0  0
   33.0156    6.5035    5.1711 C   0  0  0  0  0  0
   29.7901    2.6066   -4.1951 C   0  0  0  0  0  0
   27.4077    5.7220   -3.8423 C   0  0  0  0  0  0
   25.6767    4.7697    2.8759 C   0  0  0  0  0  0
   27.9635    4.2953   -3.6829 C   0  0  0  0  0  0
   29.1792    3.9483   -4.5670 C   0  0  0  0  0  0
   28.4398    6.8337   -3.6061 C   0  0  0  0  0  0
   34.8885    4.5706   -5.4444 H   0  0  0  0  0  0
   37.3887    8.0503    0.9944 H   0  0  0  0  0  0
   36.0680    3.6581    0.2571 H   0  0  0  0  0  0
   37.4625    6.6527   -2.5052 H   0  0  0  0  0  0
   35.8075    5.8499   -4.1454 H   0  0  0  0  0  0
   34.3406    3.0497   -1.2937 H   0  0  0  0  0  0
   31.4081    1.3187   -4.5171 H   0  0  0  0  0  0
   30.9122    2.1592   -5.9705 H   0  0  0  0  0  0
   27.2431    7.6778    5.1105 H   0  0  0  0  0  0
   30.4552    5.8754    4.3950 H   0  0  0  0  0  0
   29.2764    6.0439    2.7542 H   0  0  0  0  0  0
   35.8382    4.7853    1.9051 H   0  0  0  0  0  0
   36.3449    8.9264    2.9173 H   0  0  0  0  0  0
   34.0979    4.5839    3.5851 H   0  0  0  0  0  0
   34.6085    8.6888    4.6307 H   0  0  0  0  0  0
   27.5481    6.9452    6.9990 H   0  0  0  0  0  0
   29.4248    8.3209    5.7154 H   0  0  0  0  0  0
   29.3722    8.0746    3.9909 H   0  0  0  0  0  0
   25.5327    5.6260    4.8392 H   0  0  0  0  0  0
   26.1470    4.1230    0.8726 H   0  0  0  0  0  0
   31.7228    8.1791    5.5889 H   0  0  0  0  0  0
   31.8146    7.8054    3.8540 H   0  0  0  0  0  0
   32.7341    5.4537    5.2465 H   0  0  0  0  0  0
   33.4091    6.7478    6.1547 H   0  0  0  0  0  0
   29.9573    2.5872   -3.1223 H   0  0  0  0  0  0
   29.0722    1.8137   -4.4144 H   0  0  0  0  0  0
   26.6080    5.8531   -3.1149 H   0  0  0  0  0  0
   26.9310    5.8405   -4.8140 H   0  0  0  0  0  0
   24.6631    4.3929    2.8668 H   0  0  0  0  0  0
   28.2371    4.1591   -2.6355 H   0  0  0  0  0  0
   27.1648    3.5765   -3.8675 H   0  0  0  0  0  0
   28.9306    3.8503   -5.6150 H   0  0  0  0  0  0
   29.9291    4.7341   -4.4861 H   0  0  0  0  0  0
   27.9569    7.8094   -3.5302 H   0  0  0  0  0  0
   29.1657    6.8944   -4.4178 H   0  0  0  0  0  0
   28.9852    6.6499   -2.6796 H   0  0  0  0  0  0
  1  2  1  0  0  0
  1  3  1  0  0  0
  1 12  2  0  0  0
  2  4  1  0  0  0
  2 20  1  0  0  0
  3  6  1  0  0  0
  3  9  1  0  0  0
  4 13  2  0  0  0
  4  6  1  0  0  0
  5  8  1  0  0  0
  5  7  1  0  0  0
  5 10  2  0  0  0
  5 11  2  0  0  0
  6 42  1  0  0  0
  7 21  1  0  0  0
  7 43  1  0  0  0
  8 16  1  0  0  0
  8 17  2  0  0  0
  9 18  2  0  0  0
  9 19  1  0  0  0
 14 22  1  0  0  0
 14 25  1  0  0  0
 14 32  2  0  0  0
 15 25  2  0  0  0
 15 33  1  0  0  0
 16 19  2  0  0  0
 16 44  1  0  0  0
 17 18  1  0  0  0
 17 45  1  0  0  0
 18 46  1  0  0  0
 19 47  1  0  0  0
 20 36  1  0  0  0
 20 48  1  0  0  0
 20 49  1  0  0  0
 21 26  2  0  0  0
 21 27  1  0  0  0
 22 31  1  0  0  0
 22 30  1  0  0  0
 22 50  1  0  0  0
 23 34  1  0  0  0
 23 31  1  0  0  0
 23 51  1  0  0  0
 24 29  1  0  0  0
 24 35  1  0  0  0
 24 28  2  0  0  0
 25 52  1  0  0  0
 26 28  1  0  0  0
 26 53  1  0  0  0
 27 29  2  0  0  0
 27 54  1  0  0  0
 28 55  1  0  0  0
 29 56  1  0  0  0
 30 57  1  0  0  0
 31 58  1  0  0  0
 31 59  1  0  0  0
 32 38  1  0  0  0
 32 60  1  0  0  0
 33 38  2  0  0  0
 33 61  1  0  0  0
 34 35  1  0  0  0
 34 62  1  0  0  0
 34 63  1  0  0  0
 35 64  1  0  0  0
 35 65  1  0  0  0
 36 40  1  0  0  0
 36 66  1  0  0  0
 36 67  1  0  0  0
 37 39  1  0  0  0
 37 41  1  0  0  0
 37 68  1  0  0  0
 37 69  1  0  0  0
 38 70  1  0  0  0
 39 40  1  0  0  0
 39 71  1  0  0  0
 39 72  1  0  0  0
 40 73  1  0  0  0
 40 74  1  0  0  0
 41 75  1  0  0  0
 41 76  1  0  0  0
 41 77  1  0  0  0
M  END
> <s_m_entry_id>
2969

> <s_m_entry_name>
dock_pv.61

> <s_m_Source_Path>
/home/csk/Desktop/cluster/DUD-E-result/adrb1

> <s_m_Source_File>
dock_pv.maegz

> <i_m_Source_File_Index>
61

> <chembl_id>
CHEMBL351467

> <chembl_pref_name>
None

> <i_lp_mmshare_version>
53161

> <i_f3d_flags>
0

> <r_lp_tautomer_probability>
1

> <s_lp_Force_Field>
OPLS_2005

> <r_lp_Energy>
39.962157

> <b_lp_Chiralities_Consistent>
1

> <s_lp_Variant>
CHEMBL213_lig255-1

> <s_i_glide_gridfile>
glide-grid_2vt4

> <i_i_glide_lignum>
290

> <i_i_glide_rotatable_bonds>
16

> <r_i_docking_score>
-8.28401464240791

> <r_i_glide_ligand_efficiency>
-0.202049137619705

> <r_i_glide_ligand_efficiency_sa>
-0.696709318882303

> <r_i_glide_ligand_efficiency_ln>
-1.75748127432366

> <r_i_glide_gscore>
-8.28401464240791

> <r_i_glide_lipo>
-2.99261684218764

> <r_i_glide_hbond>
-0.703734214153992

> <r_i_glide_metal>
0

> <r_i_glide_rewards>
-1.17142824501203

> <r_i_glide_evdw>
-46.1716842651367

> <r_i_glide_ecoul>
-12.0375576019287

> <r_i_glide_erotb>
0.705717854911167

> <r_i_glide_esite>
-0.00773534241927864

> <r_i_glide_emodel>
-77.0134446098926

> <r_i_glide_energy>
-58.2092418670654

> <r_i_glide_einternal>
19.494176864624

> <i_i_glide_confnum>
25

> <i_i_glide_posenum>
151

> <r_i_glide_eff_state_penalty>
0

> <s_user_duplicate_titles>
CHEMBL213_lig255

> <s_m_subgroup_title>
dock_pv

> <s_m_subgroupid>
dock_pv

> <b_m_subgroup_collapsed>
1

$$$$
CHEMBL213_lig606
                    3D
 Schrodinger Suite 2021-1.
 76 79  0  0  1  0            999 V2000
   34.8486    5.0205   -2.1882 C   0  0  0  0  0  0
   36.1018    5.0591   -1.6547 N   0  0  0  0  0  0
   34.4329    3.7857   -2.5395 N   0  0  0  0  0  0
   31.1803    3.6472   -2.8952 C   0  0  0  0  0  0
   32.1951    4.0757   -3.7596 C   0  0  0  0  0  0
   29.9052    4.2057   -2.9684 C   0  0  0  0  0  0
   36.8068    6.3454   -1.4765 C   0  0  0  0  0  0
   36.6308    3.9952   -0.7719 C   0  0  0  0  0  0
   34.1809    6.0312   -2.4183 O   0  0  0  0  0  0
   33.5925    3.4593   -3.6997 C   0  0  0  0  0  0
   36.5787    6.2498    2.3771 N   0  0  0  0  0  0
   31.8940    5.0216   -4.7458 C   0  0  0  0  0  0
   36.3321    4.3931    0.6913 C   0  0  0  0  0  0
   36.5324    6.8664   -0.0456 C   0  0  0  0  0  0
   29.6184    5.1623   -3.9367 C   0  0  0  0  0  0
   36.9044    5.8015    1.0168 C   0  0  0  0  0  0
   25.0081    5.2435    4.3967 O   0  0  0  0  0  0
   35.2901    6.3651    2.9305 C   0  0  0  0  0  0
   31.4078    2.6516   -2.0150 F   0  0  0  0  0  0
   25.2026    4.6581    3.1567 C   0  0  0  0  0  0
   26.7037    7.1194    4.4930 C   0  0  1  0  0  0
   25.3420    3.5544    0.5959 C   0  0  0  0  0  0
   26.0890    5.8343    5.1238 C   0  0  0  0  0  0
   30.6070    5.5506   -4.8376 C   0  0  0  0  0  0
   29.0074    6.2499    4.7797 N   0  0  2  0  0  0
   28.3813    5.6987   -4.0150 F   0  0  0  0  0  0
   32.7840    6.6501    4.1549 C   0  0  0  0  0  0
   35.1994    6.6193    4.3007 C   0  0  0  0  0  0
   34.1168    6.2501    2.1814 C   0  0  0  0  0  0
   24.0845    4.0494    2.5869 C   0  0  0  0  0  0
   26.4062    4.6840    2.4325 C   0  0  0  0  0  0
   26.4616    4.1716    1.1402 C   0  0  0  0  0  0
   24.1531    3.4989    1.3108 C   0  0  0  0  0  0
   33.9533    6.7494    4.9132 C   0  0  0  0  0  0
   32.8777    6.3992    2.7845 C   0  0  0  0  0  0
   25.9081    8.2495    4.7850 O   0  0  0  0  0  0
   25.4080    2.9939   -0.6473 O   0  0  0  0  0  0
   28.1592    7.4191    4.9478 C   0  0  0  0  0  0
   30.2086    6.4336    3.9857 C   0  0  0  0  0  0
   31.4287    6.8401    4.8378 C   0  0  0  0  0  0
   35.0193    3.0273   -2.2257 H   0  0  0  0  0  0
   29.1287    3.8659   -2.2983 H   0  0  0  0  0  0
   37.8701    6.1312   -1.5937 H   0  0  0  0  0  0
   36.6081    7.0499   -2.2854 H   0  0  0  0  0  0
   37.7091    3.9838   -0.9294 H   0  0  0  0  0  0
   36.3296    2.9853   -1.0530 H   0  0  0  0  0  0
   34.1553    3.7141   -4.6003 H   0  0  0  0  0  0
   33.4799    2.3743   -3.7292 H   0  0  0  0  0  0
   37.3300    6.6855    2.8901 H   0  0  0  0  0  0
   32.6513    5.3462   -5.4454 H   0  0  0  0  0  0
   36.7900    3.6536    1.3475 H   0  0  0  0  0  0
   35.2647    4.2978    0.8735 H   0  0  0  0  0  0
   35.5022    7.2081    0.0224 H   0  0  0  0  0  0
   37.1353    7.7584    0.1206 H   0  0  0  0  0  0
   37.9927    5.7107    1.0111 H   0  0  0  0  0  0
   26.6684    7.0500    3.4102 H   0  0  0  0  0  0
   25.7486    6.0477    6.1390 H   0  0  0  0  0  0
   26.8340    5.0493    5.2519 H   0  0  0  0  0  0
   30.3711    6.2557   -5.6166 H   0  0  0  0  0  0
   28.4925    5.4532    4.4289 H   0  0  0  0  0  0
   36.0922    6.7108    4.9004 H   0  0  0  0  0  0
   34.1252    6.0712    1.1202 H   0  0  0  0  0  0
   23.1496    4.0292    3.1267 H   0  0  0  0  0  0
   27.3100    5.1082    2.8346 H   0  0  0  0  0  0
   27.3794    4.2178    0.5728 H   0  0  0  0  0  0
   23.2831    3.0501    0.8653 H   0  0  0  0  0  0
   33.8970    6.9456    5.9736 H   0  0  0  0  0  0
   32.0043    6.3364    2.1539 H   0  0  0  0  0  0
   26.0394    8.4681    5.7206 H   0  0  0  0  0  0
   24.5679    3.0696   -1.1310 H   0  0  0  0  0  0
   28.5701    8.2500    4.3850 H   0  0  0  0  0  0
   28.2080    7.7003    5.9969 H   0  0  0  0  0  0
   30.4144    5.4746    3.5073 H   0  0  0  0  0  0
   30.0531    7.1316    3.1629 H   0  0  0  0  0  0
   31.3221    7.8729    5.1617 H   0  0  0  0  0  0
   31.4455    6.2499    5.7514 H   0  0  0  0  0  0
  1  2  1  0  0  0
  1  3  1  0  0  0
  1  9  2  0  0  0
  2  7  1  0  0  0
  2  8  1  0  0  0
  3 10  1  0  0  0
  3 41  1  0  0  0
  4  5  1  0  0  0
  4  6  2  0  0  0
  4 19  1  0  0  0
  5 10  1  0  0  0
  5 12  2  0  0  0
  6 15  1  0  0  0
  6 42  1  0  0  0
  7 14  1  0  0  0
  7 43  1  0  0  0
  7 44  1  0  0  0
  8 13  1  0  0  0
  8 45  1  0  0  0
  8 46  1  0  0  0
 10 47  1  0  0  0
 10 48  1  0  0  0
 11 16  1  0  0  0
 11 18  1  0  0  0
 11 49  1  0  0  0
 12 24  1  0  0  0
 12 50  1  0  0  0
 13 16  1  0  0  0
 13 51  1  0  0  0
 13 52  1  0  0  0
 14 16  1  0  0  0
 14 53  1  0  0  0
 14 54  1  0  0  0
 15 24  2  0  0  0
 15 26  1  0  0  0
 16 55  1  0  0  0
 17 23  1  0  0  0
 17 20  1  0  0  0
 18 28  2  0  0  0
 18 29  1  0  0  0
 20 30  2  0  0  0
 20 31  1  0  0  0
 21 38  1  0  0  0
 21 23  1  0  0  0
 21 36  1  0  0  0
 21 56  1  0  0  0
 22 32  1  0  0  0
 22 37  1  0  0  0
 22 33  2  0  0  0
 23 57  1  0  0  0
 23 58  1  0  0  0
 24 59  1  0  0  0
 25 39  1  0  0  0
 25 38  1  0  0  0
 25 60  1  0  0  0
 27 35  1  0  0  0
 27 40  1  0  0  0
 27 34  2  0  0  0
 28 34  1  0  0  0
 28 61  1  0  0  0
 29 35  2  0  0  0
 29 62  1  0  0  0
 30 33  1  0  0  0
 30 63  1  0  0  0
 31 32  2  0  0  0
 31 64  1  0  0  0
 32 65  1  0  0  0
 33 66  1  0  0  0
 34 67  1  0  0  0
 35 68  1  0  0  0
 36 69  1  0  0  0
 37 70  1  0  0  0
 38 71  1  0  0  0
 38 72  1  0  0  0
 39 40  1  0  0  0
 39 73  1  0  0  0
 39 74  1  0  0  0
 40 75  1  0  0  0
 40 76  1  0  0  0
M  END
> <s_m_entry_id>
2971

> <s_m_entry_name>
dock_pv.63

> <s_m_Source_Path>
/home/csk/Desktop/cluster/DUD-E-result/adrb1

> <s_m_Source_File>
dock_pv.maegz

> <i_m_Source_File_Index>
63

> <chembl_id>
CHEMBL108263

> <chembl_pref_name>
None

> <i_lp_mmshare_version>
53161

> <i_f3d_flags>
0

> <r_lp_tautomer_probability>
1

> <s_lp_Force_Field>
OPLS_2005

> <r_lp_Energy>
56.460846

> <b_lp_Chiralities_Consistent>
1

> <s_lp_Variant>
CHEMBL213_lig606-1

> <s_i_glide_gridfile>
glide-grid_2vt4

> <i_i_glide_lignum>
706

> <i_i_glide_rotatable_bonds>
16

> <r_i_docking_score>
-8.26124163717598

> <r_i_glide_ligand_efficiency>
-0.206531040929399

> <r_i_glide_ligand_efficiency_sa>
-0.706326223594229

> <r_i_glide_ligand_efficiency_ln>
-1.76187972372114

> <r_i_glide_gscore>
-8.26124163717598

> <r_i_glide_lipo>
-3.29229681945939

> <r_i_glide_hbond>
-0.550973144219303

> <r_i_glide_metal>
0

> <r_i_glide_rewards>
-0.0535798029836346

> <r_i_glide_evdw>
-53.5297584533691

> <r_i_glide_ecoul>
-16.4763736724854

> <r_i_glide_erotb>
0.803503953708879

> <r_i_glide_esite>
-0.0199518506812741

> <r_i_glide_emodel>
-95.6951840334516

> <r_i_glide_energy>
-70.0061321258545

> <r_i_glide_einternal>
18.726095199585

> <i_i_glide_confnum>
11

> <i_i_glide_posenum>
233

> <r_i_glide_eff_state_penalty>
0

> <s_user_duplicate_titles>
CHEMBL213_lig606,173450

> <s_m_subgroup_title>
dock_pv

> <s_m_subgroupid>
dock_pv

> <b_m_subgroup_collapsed>
1

$$$$
CHEMBL213_lig404
                    3D
 Schrodinger Suite 2021-1.
 71 75  0  0  1  0            999 V2000
   29.3311    1.8976   -7.6033 C   0  0  0  0  0  0
   28.8519    1.9270   -6.2965 C   0  0  0  0  0  0
   29.6856    2.3020   -5.2464 C   0  0  0  0  0  0
   31.0079    2.6534   -5.5057 C   0  0  0  0  0  0
   31.5038    2.6377   -6.8161 C   0  0  0  0  0  0
   30.6548    2.2500   -7.8594 C   0  0  0  0  0  0
   32.9783    2.9924   -7.0655 C   0  0  2  0  0  0
   33.3826    4.3998   -6.5533 C   0  0  0  0  0  0
   34.8279    4.6500   -6.6035 N   0  0  2  0  0  0
   35.7282    3.6703   -5.9909 C   0  0  0  0  0  0
   35.3781    3.2222   -4.5526 C   0  0  0  0  0  0
   35.6458    4.2660   -3.4818 C   0  0  0  0  0  0
   36.9299    4.3908   -2.9502 C   0  0  0  0  0  0
   37.1780    5.3200   -1.9463 C   0  0  0  0  0  0
   36.1415    6.1246   -1.4745 C   0  0  0  0  0  0
   34.8611    6.0123   -2.0143 C   0  0  0  0  0  0
   34.6100    5.0760   -3.0133 C   0  0  0  0  0  0
   36.3946    7.0499   -0.4600 N   0  0  0  0  0  0
   36.6604    6.5496    1.2134 S   0  0  0  0  0  0
   35.0418    6.4704    1.9702 C   0  0  0  0  0  0
   34.8182    7.0635    3.2111 C   0  0  0  0  0  0
   33.5395    7.0483    3.7591 C   0  0  0  0  0  0
   32.4621    6.4852    3.0605 C   0  0  0  0  0  0
   32.7148    5.8500    1.8387 C   0  0  0  0  0  0
   33.9993    5.8305    1.3052 C   0  0  0  0  0  0
   37.2009    5.1876    1.1878 O   0  0  0  0  0  0
   37.3910    7.6466    1.8604 O   0  0  0  0  0  0
   31.0551    6.5524    3.5858 C   0  0  0  0  0  0
   30.6314    7.4500    5.0074 S   0  0  0  0  0  0
   28.9906    6.9793    4.7855 C   0  0  0  0  0  0
   28.8902    6.1352    3.6795 C   0  0  0  0  0  0
   30.0387    5.9086    3.0604 N   0  0  0  0  0  0
   27.6313    5.5035    3.1896 C   0  0  0  0  0  0
   26.5685    5.3612    4.0827 C   0  0  0  0  0  0
   25.3981    4.7445    3.6752 C   0  0  0  0  0  0
   25.2770    4.2499    2.3784 C   0  0  0  0  0  0
   26.3161    4.4291    1.4639 C   0  0  0  0  0  0
   27.4910    5.0533    1.8704 C   0  0  0  0  0  0
   24.0080    3.5272    1.9663 C   0  0  0  0  0  0
   24.2146    2.2173    2.0276 F   0  0  0  0  0  0
   23.0081    3.8390    2.7854 F   0  0  0  0  0  0
   23.6586    3.8501    0.7290 F   0  0  0  0  0  0
   33.4061    2.8738   -8.4113 O   0  0  0  0  0  0
   28.6799    1.6175   -8.4177 H   0  0  0  0  0  0
   27.8230    1.6624   -6.0914 H   0  0  0  0  0  0
   29.3078    2.3224   -4.2346 H   0  0  0  0  0  0
   31.6468    2.9267   -4.6794 H   0  0  0  0  0  0
   31.0156    2.2352   -8.8760 H   0  0  0  0  0  0
   33.5408    2.2499   -6.5076 H   0  0  0  0  0  0
   32.8721    5.1714   -7.1317 H   0  0  0  0  0  0
   33.0463    4.5400   -5.5280 H   0  0  0  0  0  0
   35.1035    5.6211   -6.4330 H   0  0  0  0  0  0
   35.8575    2.8045   -6.6413 H   0  0  0  0  0  0
   36.7083    4.1503   -5.9778 H   0  0  0  0  0  0
   34.3490    2.8748   -4.4727 H   0  0  0  0  0  0
   35.9682    2.3372   -4.3136 H   0  0  0  0  0  0
   37.7392    3.7667   -3.3015 H   0  0  0  0  0  0
   38.1726    5.3977   -1.5315 H   0  0  0  0  0  0
   34.0620    6.6420   -1.6537 H   0  0  0  0  0  0
   33.6127    4.9815   -3.4143 H   0  0  0  0  0  0
   36.4264    8.0309   -0.6842 H   0  0  0  0  0  0
   35.6238    7.5398    3.7489 H   0  0  0  0  0  0
   33.3928    7.4983    4.7278 H   0  0  0  0  0  0
   31.9154    5.3820    1.2837 H   0  0  0  0  0  0
   34.1714    5.3209    0.3721 H   0  0  0  0  0  0
   28.2189    7.3317    5.4559 H   0  0  0  0  0  0
   26.6442    5.7071    5.1025 H   0  0  0  0  0  0
   24.5913    4.6332    4.3859 H   0  0  0  0  0  0
   26.2250    4.0657    0.4499 H   0  0  0  0  0  0
   28.2953    5.1691    1.1586 H   0  0  0  0  0  0
   34.2010    3.4150   -8.4837 H   0  0  0  0  0  0
  1  6  1  0  0  0
  1  2  2  0  0  0
  1 44  1  0  0  0
  2  3  1  0  0  0
  2 45  1  0  0  0
  3  4  2  0  0  0
  3 46  1  0  0  0
  4  5  1  0  0  0
  4 47  1  0  0  0
  5  6  2  0  0  0
  5  7  1  0  0  0
  6 48  1  0  0  0
  7  8  1  0  0  0
  7 43  1  0  0  0
  7 49  1  0  0  0
  8  9  1  0  0  0
  8 50  1  0  0  0
  8 51  1  0  0  0
  9 10  1  0  0  0
  9 52  1  0  0  0
 10 11  1  0  0  0
 10 53  1  0  0  0
 10 54  1  0  0  0
 11 12  1  0  0  0
 11 55  1  0  0  0
 11 56  1  0  0  0
 12 13  2  0  0  0
 12 17  1  0  0  0
 13 14  1  0  0  0
 13 57  1  0  0  0
 14 15  2  0  0  0
 14 58  1  0  0  0
 15 16  1  0  0  0
 15 18  1  0  0  0
 16 17  2  0  0  0
 16 59  1  0  0  0
 17 60  1  0  0  0
 18 19  1  0  0  0
 18 61  1  0  0  0
 19 26  2  0  0  0
 19 27  2  0  0  0
 19 20  1  0  0  0
 20 21  2  0  0  0
 20 25  1  0  0  0
 21 22  1  0  0  0
 21 62  1  0  0  0
 22 23  2  0  0  0
 22 63  1  0  0  0
 23 24  1  0  0  0
 23 28  1  0  0  0
 24 25  2  0  0  0
 24 64  1  0  0  0
 25 65  1  0  0  0
 28 29  1  0  0  0
 28 32  2  0  0  0
 29 30  1  0  0  0
 30 31  2  0  0  0
 30 66  1  0  0  0
 31 32  1  0  0  0
 31 33  1  0  0  0
 33 34  2  0  0  0
 33 38  1  0  0  0
 34 35  1  0  0  0
 34 67  1  0  0  0
 35 36  2  0  0  0
 35 68  1  0  0  0
 36 37  1  0  0  0
 36 39  1  0  0  0
 37 38  2  0  0  0
 37 69  1  0  0  0
 38 70  1  0  0  0
 39 40  1  0  0  0
 39 41  1  0  0  0
 39 42  1  0  0  0
 43 71  1  0  0  0
M  END
> <s_m_entry_id>
2972

> <s_m_entry_name>
dock_pv.64

> <s_m_Source_Path>
/home/csk/Desktop/cluster/DUD-E-result/adrb1

> <s_m_Source_File>
dock_pv.maegz

> <i_m_Source_File_Index>
64

> <chembl_id>
CHEMBL1684578

> <chembl_pref_name>
None

> <i_lp_mmshare_version>
53161

> <i_f3d_flags>
0

> <r_lp_tautomer_probability>
1

> <s_lp_Force_Field>
OPLS_2005

> <r_lp_Energy>
25.73082

> <b_lp_Chiralities_Consistent>
1

> <s_lp_Variant>
CHEMBL213_lig404-1

> <s_i_glide_gridfile>
glide-grid_2vt4

> <i_i_glide_lignum>
473

> <i_i_glide_rotatable_bonds>
13

> <r_i_docking_score>
-8.25907253854855

> <r_i_glide_ligand_efficiency>
-0.19207145438485

> <r_i_glide_ligand_efficiency_sa>
-0.6729027599039

> <r_i_glide_ligand_efficiency_ln>
-1.73466192091476

> <r_i_glide_gscore>
-8.25907253854855

> <r_i_glide_lipo>
-4.22234537361627

> <r_i_glide_hbond>
-0.154127390358486

> <r_i_glide_metal>
0

> <r_i_glide_rewards>
-0.783211168577305

> <r_i_glide_evdw>
-61.4022369384766

> <r_i_glide_ecoul>
-2.75902533531189

> <r_i_glide_erotb>
0.408480110588754

> <r_i_glide_esite>
-0.0239030693646394

> <r_i_glide_emodel>
-87.5370322314346

> <r_i_glide_energy>
-64.1612622737885

> <r_i_glide_einternal>
12.8561058044434

> <i_i_glide_confnum>
3

> <i_i_glide_posenum>
388

> <r_i_glide_eff_state_penalty>
0

> <s_user_duplicate_titles>
CHEMBL213_lig404

> <s_m_subgroup_title>
dock_pv

> <s_m_subgroupid>
dock_pv

> <b_m_subgroup_collapsed>
1

$$$$
CHEMBL213_lig1207 
                    3D
 Schrodinger Suite 2021-1.
 66 68  0  0  1  0            999 V2000
   33.2971    4.3559   -5.5214 C   0  0  0  0  0  0
   32.6525    3.6134   -6.5079 C   0  0  0  0  0  0
   31.4444    3.9862   -3.9827 C   0  0  0  0  0  0
   32.7043    4.5319   -4.2716 C   0  0  0  0  0  0
   30.7794    3.2543   -4.9903 C   0  0  0  0  0  0
   31.3921    3.0577   -6.2463 C   0  0  0  0  0  0
   30.7204    2.2949   -7.2292 N   0  0  0  0  0  0
   29.5047    1.7147   -7.1156 C   0  0  0  0  0  0
   28.8658    1.9406   -5.8383 C   0  0  0  0  0  0
   29.4391    2.6451   -4.8410 C   0  0  0  0  0  0
   29.0052    1.0510   -8.0140 O   0  0  0  0  0  0
   33.2720    3.4442   -7.7247 O   0  0  0  0  0  0
   30.8647    4.2059   -2.5775 C   0  0  1  0  0  0
   29.6206    5.1242   -2.5783 C   0  0  0  0  0  0
   30.6081    2.9833   -1.9029 O   0  0  0  0  0  0
   29.2044    5.4498   -1.2160 N   0  0  1  0  0  0
   27.9228    6.1489   -1.1920 C   0  0  0  0  0  0
   26.7389    5.1786   -1.3796 C   0  0  0  0  0  0
   26.6695    3.9614   -0.4241 C   0  0  0  0  0  0
   26.3031    4.3108    1.0139 C   0  0  0  0  0  0
   27.1860    5.0489    1.8138 C   0  0  0  0  0  0
   26.8541    5.3935    3.1256 C   0  0  0  0  0  0
   25.6070    4.9919    3.6364 C   0  0  0  0  0  0
   24.7327    4.2361    2.8508 C   0  0  0  0  0  0
   25.0834    3.8855    1.5472 C   0  0  0  0  0  0
   27.8007    6.1587    3.8277 N   0  0  0  0  0  0
   27.9052    6.3812    5.1527 C   0  0  0  0  0  0
   29.0052    7.3492    5.6341 C   0  0  0  0  0  0
   27.1893    5.8488    5.9983 O   0  0  0  0  0  0
   30.0723    7.8243    4.6120 C   0  0  0  0  0  0
   31.1159    6.7712    4.1778 C   0  0  0  0  0  0
   32.2053    6.5479    5.2489 C   0  0  0  0  0  0
   31.7613    7.0908    2.8223 C   0  0  0  0  0  0
   34.2662    4.7972   -5.7126 H   0  0  0  0  0  0
   33.2435    5.0950   -3.5236 H   0  0  0  0  0  0
   31.1752    2.1509   -8.1180 H   0  0  0  0  0  0
   27.8808    1.5199   -5.6959 H   0  0  0  0  0  0
   28.8731    2.7598   -3.9401 H   0  0  0  0  0  0
   34.0586    3.9855   -7.8231 H   0  0  0  0  0  0
   31.6279    4.7039   -1.9739 H   0  0  0  0  0  0
   28.8079    4.6717   -3.1377 H   0  0  0  0  0  0
   29.8662    6.0526   -3.0925 H   0  0  0  0  0  0
   29.6946    2.7033   -2.0536 H   0  0  0  0  0  0
   29.1548    4.5963   -0.6760 H   0  0  0  0  0  0
   27.9019    6.9424   -1.9423 H   0  0  0  0  0  0
   27.8101    6.6499   -0.2339 H   0  0  0  0  0  0
   26.7689    4.8114   -2.4028 H   0  0  0  0  0  0
   25.8052    5.7394   -1.3094 H   0  0  0  0  0  0
   27.6046    3.4022   -0.4274 H   0  0  0  0  0  0
   25.9302    3.2611   -0.8165 H   0  0  0  0  0  0
   28.1458    5.3431    1.4151 H   0  0  0  0  0  0
   25.2913    5.2688    4.6296 H   0  0  0  0  0  0
   23.7772    3.9282    3.2495 H   0  0  0  0  0  0
   24.3931    3.3087    0.9471 H   0  0  0  0  0  0
   28.5354    6.5453    3.2553 H   0  0  0  0  0  0
   29.4805    6.9333    6.5207 H   0  0  0  0  0  0
   28.4925    8.2430    5.9841 H   0  0  0  0  0  0
   30.6082    8.6500    5.0692 H   0  0  0  0  0  0
   29.5768    8.2492    3.7418 H   0  0  0  0  0  0
   30.5701    5.8499    4.0240 H   0  0  0  0  0  0
   32.7908    7.4496    5.4175 H   0  0  0  0  0  0
   32.9031    5.7652    4.9468 H   0  0  0  0  0  0
   31.7871    6.2511    6.2069 H   0  0  0  0  0  0
   32.3450    8.0098    2.8621 H   0  0  0  0  0  0
   32.4336    6.2926    2.5075 H   0  0  0  0  0  0
   31.0106    7.1992    2.0410 H   0  0  0  0  0  0
  1  2  2  0  0  0
  1  4  1  0  0  0
  1 34  1  0  0  0
  2  6  1  0  0  0
  2 12  1  0  0  0
  3  5  1  0  0  0
  3  4  2  0  0  0
  3 13  1  0  0  0
  4 35  1  0  0  0
  5  6  2  0  0  0
  5 10  1  0  0  0
  6  7  1  0  0  0
  7  8  1  0  0  0
  7 36  1  0  0  0
  8  9  1  0  0  0
  8 11  2  0  0  0
  9 10  2  0  0  0
  9 37  1  0  0  0
 10 38  1  0  0  0
 12 39  1  0  0  0
 13 14  1  0  0  0
 13 15  1  0  0  0
 13 40  1  0  0  0
 14 16  1  0  0  0
 14 41  1  0  0  0
 14 42  1  0  0  0
 15 43  1  0  0  0
 16 17  1  0  0  0
 16 44  1  0  0  0
 17 18  1  0  0  0
 17 45  1  0  0  0
 17 46  1  0  0  0
 18 19  1  0  0  0
 18 47  1  0  0  0
 18 48  1  0  0  0
 19 20  1  0  0  0
 19 49  1  0  0  0
 19 50  1  0  0  0
 20 21  2  0  0  0
 20 25  1  0  0  0
 21 22  1  0  0  0
 21 51  1  0  0  0
 22 23  2  0  0  0
 22 26  1  0  0  0
 23 24  1  0  0  0
 23 52  1  0  0  0
 24 25  2  0  0  0
 24 53  1  0  0  0
 25 54  1  0  0  0
 26 27  1  0  0  0
 26 55  1  0  0  0
 27 28  1  0  0  0
 27 29  2  0  0  0
 28 30  1  0  0  0
 28 56  1  0  0  0
 28 57  1  0  0  0
 30 31  1  0  0  0
 30 58  1  0  0  0
 30 59  1  0  0  0
 31 32  1  0  0  0
 31 33  1  0  0  0
 31 60  1  0  0  0
 32 61  1  0  0  0
 32 62  1  0  0  0
 32 63  1  0  0  0
 33 64  1  0  0  0
 33 65  1  0  0  0
 33 66  1  0  0  0
M  END
> <s_m_entry_id>
2973

> <s_m_entry_name>
dock_pv.65

> <s_m_Source_Path>
/home/csk/Desktop/cluster/DUD-E-result/adrb1

> <s_m_Source_File>
dock_pv.maegz

> <i_m_Source_File_Index>
65

> <chembl_id>
CHEMBL4460095

> <chembl_pref_name>
None

> <i_lp_mmshare_version>
53161

> <i_f3d_flags>
0

> <r_lp_tautomer_probability>
1

> <s_lp_Force_Field>
OPLS_2005

> <r_lp_Energy>
36.949839

> <b_lp_Chiralities_Consistent>
1

> <s_lp_Variant>
CHEMBL213_lig1207 -2

> <s_i_glide_gridfile>
glide-grid_2vt4

> <i_i_glide_lignum>
1424

> <i_i_glide_rotatable_bonds>
14

> <r_i_docking_score>
-8.25194259533936

> <r_i_glide_ligand_efficiency>
-0.250058866525435

> <r_i_glide_ligand_efficiency_sa>
-0.80207239796536

> <r_i_glide_ligand_efficiency_ln>
-1.83518930693138

> <r_i_glide_gscore>
-8.25194259533936

> <r_i_glide_lipo>
-3.21848526100229

> <r_i_glide_hbond>
-0.564767826414715

> <r_i_glide_metal>
0

> <r_i_glide_rewards>
-1.40689800187813

> <r_i_glide_evdw>
-52.3318061828613

> <r_i_glide_ecoul>
-10.181788444519

> <r_i_glide_erotb>
1.0820670697767

> <r_i_glide_esite>
0

> <r_i_glide_emodel>
-89.6333619956949

> <r_i_glide_energy>
-62.5135946273804

> <r_i_glide_einternal>
8.35734462738037

> <i_i_glide_confnum>
211

> <i_i_glide_posenum>
339

> <r_i_glide_eff_state_penalty>
0

> <s_user_duplicate_titles>
CHEMBL213_lig1207 

> <s_m_subgroup_title>
dock_pv

> <s_m_subgroupid>
dock_pv

> <b_m_subgroup_collapsed>
1

$$$$
CHEMBL213_lig898
                    3D
 Schrodinger Suite 2021-1.
 59 62  0  0  1  0            999 V2000
   26.5626    5.1212    2.5158 C   0  0  0  0  0  0
   25.4309    4.9104    3.2990 C   0  0  0  0  0  0
   25.3673    5.4502    4.5821 C   0  0  0  0  0  0
   26.4410    6.1759    5.0937 C   0  0  0  0  0  0
   27.5970    6.3789    4.3263 C   0  0  0  0  0  0
   27.6376    5.8426    3.0301 C   0  0  0  0  0  0
   26.6074    4.5476    0.8888 Cl  0  0  0  0  0  0
   28.7109    7.2828    4.8822 C   0  0  2  0  0  0
   30.0284    7.4841    4.0718 C   0  0  0  0  0  0
   29.0076    7.0425    6.2403 O   0  0  0  0  0  0
   30.6277    6.2500    3.5845 N   0  0  1  0  0  0
   31.7714    6.4407    2.7049 C   0  0  1  0  0  0
   33.1108    6.0870    3.3761 C   0  0  0  0  0  0
   34.3159    6.3177    2.4393 C   0  0  0  0  0  0
   31.5790    5.5693    1.4543 C   0  0  0  0  0  0
   32.7852    5.5863    0.5205 C   0  0  0  0  0  0
   34.0856    5.8507    0.9978 C   0  0  0  0  0  0
   35.1492    5.8347    0.0867 C   0  0  0  0  0  0
   34.9353    5.6144   -1.2737 C   0  0  0  0  0  0
   33.6511    5.3797   -1.7571 C   0  0  0  0  0  0
   32.5972    5.3416   -0.8389 C   0  0  0  0  0  0
   33.4916    5.2029   -3.1190 O   0  0  0  0  0  0
   32.2771    4.8425   -3.6593 C   0  0  0  0  0  0
   31.1650    5.6917   -3.6068 C   0  0  0  0  0  0
   29.9371    5.2870   -4.1213 C   0  0  0  0  0  0
   29.8263    4.0413   -4.7293 C   0  0  0  0  0  0
   30.9477    3.2099   -4.8481 C   0  0  0  0  0  0
   32.1622    3.6057   -4.2912 C   0  0  0  0  0  0
   30.8943    2.0119   -5.5186 O   0  0  0  0  0  0
   30.3384    2.0665   -6.8392 C   0  0  0  0  0  0
   28.9364    1.4488   -6.8683 C   0  0  0  0  0  0
   28.5967    0.8770   -5.6770 O   0  0  0  0  0  0
   28.2317    1.4504   -7.8745 O   0  0  0  0  0  0
   24.5909    4.3604    2.9003 H   0  0  0  0  0  0
   24.4786    5.3128    5.1811 H   0  0  0  0  0  0
   26.3563    6.6041    6.0823 H   0  0  0  0  0  0
   28.4837    6.0058    2.3851 H   0  0  0  0  0  0
   28.2326    8.2499    4.9087 H   0  0  0  0  0  0
   30.7525    8.0451    4.6667 H   0  0  0  0  0  0
   29.8076    8.1043    3.2049 H   0  0  0  0  0  0
   28.2624    7.3557    6.7635 H   0  0  0  0  0  0
   30.8887    5.6271    4.3466 H   0  0  0  0  0  0
   31.8296    7.4822    2.3829 H   0  0  0  0  0  0
   33.1011    5.0501    3.7015 H   0  0  0  0  0  0
   33.2383    6.6771    4.2846 H   0  0  0  0  0  0
   35.2106    5.8521    2.8539 H   0  0  0  0  0  0
   34.5177    7.3894    2.4020 H   0  0  0  0  0  0
   30.6641    5.8498    0.9324 H   0  0  0  0  0  0
   31.4079    4.5401    1.7627 H   0  0  0  0  0  0
   36.1507    6.0520    0.4281 H   0  0  0  0  0  0
   35.7691    5.6412   -1.9609 H   0  0  0  0  0  0
   31.5923    5.1246   -1.1651 H   0  0  0  0  0  0
   31.2367    6.6501   -3.1273 H   0  0  0  0  0  0
   29.0753    5.9346   -4.0461 H   0  0  0  0  0  0
   28.8673    3.7326   -5.1169 H   0  0  0  0  0  0
   33.0259    2.9619   -4.3643 H   0  0  0  0  0  0
   30.9868    1.4980   -7.5086 H   0  0  0  0  0  0
   30.2925    3.0885   -7.2173 H   0  0  0  0  0  0
   29.2740    1.0579   -5.0185 H   0  0  0  0  0  0
  1  6  1  0  0  0
  1  2  2  0  0  0
  1  7  1  0  0  0
  2  3  1  0  0  0
  2 34  1  0  0  0
  3  4  2  0  0  0
  3 35  1  0  0  0
  4  5  1  0  0  0
  4 36  1  0  0  0
  5  8  1  0  0  0
  5  6  2  0  0  0
  6 37  1  0  0  0
  8  9  1  0  0  0
  8 10  1  0  0  0
  8 38  1  0  0  0
  9 11  1  0  0  0
  9 39  1  0  0  0
  9 40  1  0  0  0
 10 41  1  0  0  0
 11 12  1  0  0  0
 11 42  1  0  0  0
 12 13  1  0  0  0
 12 15  1  0  0  0
 12 43  1  0  0  0
 13 14  1  0  0  0
 13 44  1  0  0  0
 13 45  1  0  0  0
 14 17  1  0  0  0
 14 46  1  0  0  0
 14 47  1  0  0  0
 15 16  1  0  0  0
 15 48  1  0  0  0
 15 49  1  0  0  0
 16 17  2  0  0  0
 16 21  1  0  0  0
 17 18  1  0  0  0
 18 19  2  0  0  0
 18 50  1  0  0  0
 19 20  1  0  0  0
 19 51  1  0  0  0
 20 21  2  0  0  0
 20 22  1  0  0  0
 21 52  1  0  0  0
 22 23  1  0  0  0
 23 24  2  0  0  0
 23 28  1  0  0  0
 24 25  1  0  0  0
 24 53  1  0  0  0
 25 26  2  0  0  0
 25 54  1  0  0  0
 26 27  1  0  0  0
 26 55  1  0  0  0
 27 28  2  0  0  0
 27 29  1  0  0  0
 28 56  1  0  0  0
 29 30  1  0  0  0
 30 31  1  0  0  0
 30 57  1  0  0  0
 30 58  1  0  0  0
 31 32  1  0  0  0
 31 33  2  0  0  0
 32 59  1  0  0  0
M  END
> <s_m_entry_id>
2974

> <s_m_entry_name>
dock_pv.66

> <s_m_Source_Path>
/home/csk/Desktop/cluster/DUD-E-result/adrb1

> <s_m_Source_File>
dock_pv.maegz

> <i_m_Source_File_Index>
66

> <chembl_id>
CHEMBL496467

> <chembl_pref_name>
None

> <i_lp_mmshare_version>
53161

> <i_f3d_flags>
0

> <r_lp_tautomer_probability>
1

> <s_lp_Force_Field>
OPLS_2005

> <r_lp_Energy>
37.727416

> <b_lp_Chiralities_Consistent>
1

> <s_lp_Variant>
CHEMBL213_lig898-1

> <s_i_glide_gridfile>
glide-grid_2vt4

> <i_i_glide_lignum>
1006

> <i_i_glide_rotatable_bonds>
11

> <r_i_docking_score>
-8.23726777228093

> <r_i_glide_ligand_efficiency>
-0.249614174917604

> <r_i_glide_ligand_efficiency_sa>
-0.800646034368642

> <r_i_glide_ligand_efficiency_ln>
-1.83192570226535

> <r_i_glide_gscore>
-8.23726777228093

> <r_i_glide_lipo>
-4.57722680018609

> <r_i_glide_hbond>
-0.789716935692471

> <r_i_glide_metal>
0

> <r_i_glide_rewards>
-0.274627746095009

> <r_i_glide_evdw>
-48.0383987426758

> <r_i_glide_ecoul>
-6.20850515365601

> <r_i_glide_erotb>
0.737499419874837

> <r_i_glide_esite>
0

> <r_i_glide_emodel>
-72.3723615125598

> <r_i_glide_energy>
-54.2469038963318

> <r_i_glide_einternal>
9.98087406158447

> <i_i_glide_confnum>
1

> <i_i_glide_posenum>
259

> <r_i_glide_eff_state_penalty>
0

> <s_user_duplicate_titles>
CHEMBL213_lig898

> <s_m_subgroup_title>
dock_pv

> <s_m_subgroupid>
dock_pv

> <b_m_subgroup_collapsed>
1

$$$$
CHEMBL213_lig319
                    3D
 Schrodinger Suite 2021-1.
 67 71  0  0  1  0            999 V2000
   35.7889    6.6998    3.2130 S   0  0  0  0  0  0
   28.9693    5.8506    3.2883 N   0  0  0  0  0  0
   29.7729    6.5911    4.0149 C   0  0  0  0  0  0
   27.7012    5.9096    3.6634 C   0  0  0  0  0  0
   28.9757    7.4495    5.2865 S   0  0  0  0  0  0
   36.2088    5.4494    2.0220 N   0  0  0  0  0  0
   27.4839    6.7156    4.7851 C   0  0  0  0  0  0
   34.0193    6.6396    3.4413 C   0  0  0  0  0  0
   36.3852    6.2504    4.4750 O   0  0  0  0  0  0
   36.1311    8.0141    2.6625 O   0  0  0  0  0  0
   31.2528    6.6511    3.8189 C   0  0  0  0  0  0
   26.6598    5.1704    2.8850 C   0  0  0  0  0  0
   30.3326    3.8066   -5.4389 C   0  0  0  0  0  0
   30.3255    1.8893   -6.9304 N   0  0  0  0  0  0
   33.1701    6.2496    2.4049 C   0  0  0  0  0  0
   33.4907    7.0120    4.6747 C   0  0  0  0  0  0
   32.1131    7.0201    4.8604 C   0  0  0  0  0  0
   31.7949    6.2575    2.5933 C   0  0  0  0  0  0
   36.0507    5.5055    0.6364 C   0  0  0  0  0  0
   26.8781    4.8274    1.5420 C   0  0  0  0  0  0
   25.4511    4.8199    3.4952 C   0  0  0  0  0  0
   31.0219    5.0762   -4.9483 C   0  0  1  0  0  0
   24.7306    3.7568    1.4618 C   0  0  0  0  0  0
   24.4870    4.1140    2.7839 C   0  0  0  0  0  0
   25.9150    4.1185    0.8304 C   0  0  0  0  0  0
   32.8021    5.4488   -3.2122 N   0  0  2  0  0  0
   23.8083    3.0500    0.7849 F   0  0  0  0  0  0
   35.5740    5.3705   -2.0948 C   0  0  0  0  0  0
   30.8749    3.0503   -6.4865 C   0  0  0  0  0  0
   36.4363    4.3734   -0.0849 C   0  0  0  0  0  0
   35.4754    6.5910   -0.0206 C   0  0  0  0  0  0
   36.2048    4.3075   -1.4526 C   0  0  0  0  0  0
   35.2175    6.5148   -1.3795 C   0  0  0  0  0  0
   30.2082    6.2303   -5.0614 O   0  0  0  0  0  0
   31.4735    4.9112   -3.4738 C   0  0  0  0  0  0
   29.1752    3.3258   -4.8152 C   0  0  0  0  0  0
   29.2052    1.4469   -6.3069 C   0  0  0  0  0  0
   33.8477    4.6135   -3.8060 C   0  0  0  0  0  0
   35.2165    5.2602   -3.5670 C   0  0  0  0  0  0
   28.6072    2.1282   -5.2497 C   0  0  0  0  0  0
   36.4826    4.5487    2.3829 H   0  0  0  0  0  0
   26.5619    6.9469    5.2976 H   0  0  0  0  0  0
   33.5417    5.9437    1.4446 H   0  0  0  0  0  0
   34.1400    7.3095    5.4858 H   0  0  0  0  0  0
   31.7255    7.3105    5.8233 H   0  0  0  0  0  0
   31.1572    5.9494    1.7772 H   0  0  0  0  0  0
   27.7969    5.1002    1.0427 H   0  0  0  0  0  0
   25.2563    5.0853    4.5231 H   0  0  0  0  0  0
   31.8755    5.2483   -5.6047 H   0  0  0  0  0  0
   23.5505    3.8470    3.2485 H   0  0  0  0  0  0
   26.0844    3.8468   -0.2029 H   0  0  0  0  0  0
   32.9606    5.4523   -2.2129 H   0  0  0  0  0  0
   31.7709    3.3714   -7.0004 H   0  0  0  0  0  0
   36.8988    3.5284    0.4061 H   0  0  0  0  0  0
   35.1533    7.4657    0.5182 H   0  0  0  0  0  0
   36.4975    3.4226   -1.9989 H   0  0  0  0  0  0
   34.6996    7.3302   -1.8661 H   0  0  0  0  0  0
   30.7308    6.9477   -5.4482 H   0  0  0  0  0  0
   30.7556    5.4034   -2.8138 H   0  0  0  0  0  0
   31.4632    3.8625   -3.1708 H   0  0  0  0  0  0
   28.7231    3.8679   -3.9964 H   0  0  0  0  0  0
   28.7821    0.5206   -6.6641 H   0  0  0  0  0  0
   33.8250    3.6471   -3.2997 H   0  0  0  0  0  0
   33.7071    4.4271   -4.8708 H   0  0  0  0  0  0
   35.9969    4.7114   -4.0951 H   0  0  0  0  0  0
   35.2176    6.2498   -4.0105 H   0  0  0  0  0  0
   27.7210    1.7392   -4.7725 H   0  0  0  0  0  0
  1  6  1  0  0  0
  1  8  1  0  0  0
  1  9  2  0  0  0
  1 10  2  0  0  0
  2  3  2  0  0  0
  2  4  1  0  0  0
  3 11  1  0  0  0
  3  5  1  0  0  0
  4 12  1  0  0  0
  4  7  2  0  0  0
  5  7  1  0  0  0
  6 19  1  0  0  0
  6 41  1  0  0  0
  7 42  1  0  0  0
  8 15  1  0  0  0
  8 16  2  0  0  0
 11 17  2  0  0  0
 11 18  1  0  0  0
 12 20  2  0  0  0
 12 21  1  0  0  0
 13 22  1  0  0  0
 13 29  2  0  0  0
 13 36  1  0  0  0
 14 29  1  0  0  0
 14 37  2  0  0  0
 15 18  2  0  0  0
 15 43  1  0  0  0
 16 17  1  0  0  0
 16 44  1  0  0  0
 17 45  1  0  0  0
 18 46  1  0  0  0
 19 30  2  0  0  0
 19 31  1  0  0  0
 20 25  1  0  0  0
 20 47  1  0  0  0
 21 24  2  0  0  0
 21 48  1  0  0  0
 22 35  1  0  0  0
 22 34  1  0  0  0
 22 49  1  0  0  0
 23 24  1  0  0  0
 23 27  1  0  0  0
 23 25  2  0  0  0
 24 50  1  0  0  0
 25 51  1  0  0  0
 26 38  1  0  0  0
 26 35  1  0  0  0
 26 52  1  0  0  0
 28 33  1  0  0  0
 28 39  1  0  0  0
 28 32  2  0  0  0
 29 53  1  0  0  0
 30 32  1  0  0  0
 30 54  1  0  0  0
 31 33  2  0  0  0
 31 55  1  0  0  0
 32 56  1  0  0  0
 33 57  1  0  0  0
 34 58  1  0  0  0
 35 59  1  0  0  0
 35 60  1  0  0  0
 36 40  2  0  0  0
 36 61  1  0  0  0
 37 40  1  0  0  0
 37 62  1  0  0  0
 38 39  1  0  0  0
 38 63  1  0  0  0
 38 64  1  0  0  0
 39 65  1  0  0  0
 39 66  1  0  0  0
 40 67  1  0  0  0
M  END
> <s_m_entry_id>
2975

> <s_m_entry_name>
dock_pv.67

> <s_m_Source_Path>
/home/csk/Desktop/cluster/DUD-E-result/adrb1

> <s_m_Source_File>
dock_pv.maegz

> <i_m_Source_File_Index>
67

> <chembl_id>
CHEMBL58798

> <chembl_pref_name>
None

> <i_lp_mmshare_version>
53161

> <i_f3d_flags>
0

> <r_lp_tautomer_probability>
1

> <s_lp_Force_Field>
OPLS_2005

> <r_lp_Energy>
25.87168

> <b_lp_Chiralities_Consistent>
1

> <s_lp_Variant>
CHEMBL213_lig319-1

> <s_i_glide_gridfile>
glide-grid_2vt4

> <i_i_glide_lignum>
380

> <i_i_glide_rotatable_bonds>
12

> <r_i_docking_score>
-8.224618529557

> <r_i_glide_ligand_efficiency>
-0.205615463238925

> <r_i_glide_ligand_efficiency_sa>
-0.70319499194203

> <r_i_glide_ligand_efficiency_ln>
-1.75406909263596

> <r_i_glide_gscore>
-8.224618529557

> <r_i_glide_lipo>
-3.72434581083707

> <r_i_glide_hbond>
-0.475024489160394

> <r_i_glide_metal>
0

> <r_i_glide_rewards>
-0.403354032362924

> <r_i_glide_evdw>
-60.3813400268555

> <r_i_glide_ecoul>
-7.50823307037354

> <r_i_glide_erotb>
0.537479451641399

> <r_i_glide_esite>
-0.0140716869392082

> <r_i_glide_emodel>
-94.5949126249148

> <r_i_glide_energy>
-67.889573097229

> <r_i_glide_einternal>
10.3280296325684

> <i_i_glide_confnum>
10

> <i_i_glide_posenum>
110

> <r_i_glide_eff_state_penalty>
0

> <s_user_duplicate_titles>
CHEMBL213_lig319

> <s_m_subgroup_title>
dock_pv

> <s_m_subgroupid>
dock_pv

> <b_m_subgroup_collapsed>
1

$$$$
CHEMBL213_lig464
                    3D
 Schrodinger Suite 2021-1.
 62 65  0  0  1  0            999 V2000
   23.6403    4.0048    3.0001 C   0  0  0  0  0  0
   24.3891    4.6500    3.9850 C   0  0  0  0  0  0
   25.5585    3.9813    1.5007 C   0  0  0  0  0  0
   24.2155    3.6771    1.7733 C   0  0  0  0  0  0
   26.2975    4.6500    2.4993 C   0  0  0  0  0  0
   25.7152    4.9872    3.7193 C   0  0  0  0  0  0
   26.5754    5.6529    4.5769 N   0  0  0  0  0  0
   27.8701    5.8558    4.1603 C   0  0  0  0  0  0
   27.9910    5.1391    2.4847 S   0  0  0  0  0  0
   28.7777    6.4119    4.7737 O   0  0  0  0  0  0
   23.8080    5.0227    5.1850 O   0  0  0  0  0  0
   26.1993    3.5285    0.1753 C   0  0  2  0  0  0
   26.7859    4.6774   -0.6930 C   0  0  0  0  0  0
   28.1852    4.3999   -1.0246 N   0  0  2  0  0  0
   28.8577    5.5219   -1.6687 C   0  0  0  0  0  0
   28.4743    5.7157   -3.1493 C   0  0  0  0  0  0
   29.0316    4.6523   -4.0997 C   0  0  0  0  0  0
   28.2079    3.5668   -4.4150 C   0  0  0  0  0  0
   28.6112    2.5928   -5.3244 C   0  0  0  0  0  0
   29.8477    2.7030   -5.9515 C   0  0  0  0  0  0
   30.6827    3.7763   -5.6478 C   0  0  0  0  0  0
   30.3051    4.7423   -4.7038 C   0  0  0  0  0  0
   25.4080    2.6500   -0.6085 O   0  0  0  0  0  0
   31.3072    5.8493   -4.3676 C   0  0  0  0  0  0
   32.1741    5.4898   -3.2436 N   0  0  2  0  0  0
   33.1795    4.4898   -3.6008 C   0  0  0  0  0  0
   33.9052    3.9394   -2.3615 C   0  0  0  0  0  0
   34.8942    4.9085   -1.7289 C   0  0  0  0  0  0
   36.2305    4.9108   -2.1449 C   0  0  0  0  0  0
   37.1487    5.7805   -1.5569 C   0  0  0  0  0  0
   36.7385    6.6500   -0.5469 C   0  0  0  0  0  0
   35.4080    6.6504   -0.1286 C   0  0  0  0  0  0
   34.4854    5.7871   -0.7187 C   0  0  0  0  0  0
   33.1979    5.8012   -0.3009 F   0  0  0  0  0  0
   22.6080    3.7562    3.1837 H   0  0  0  0  0  0
   23.6054    3.1703    1.0393 H   0  0  0  0  0  0
   26.2726    5.9930    5.4776 H   0  0  0  0  0  0
   22.8634    4.8489    5.2100 H   0  0  0  0  0  0
   27.0080    2.8832    0.4935 H   0  0  0  0  0  0
   26.2080    4.8098   -1.6069 H   0  0  0  0  0  0
   26.7301    5.6214   -0.1485 H   0  0  0  0  0  0
   28.2334    3.5722   -1.6151 H   0  0  0  0  0  0
   28.7600    6.4462   -1.0979 H   0  0  0  0  0  0
   29.9181    5.2752   -1.6293 H   0  0  0  0  0  0
   27.3893    5.7573   -3.2568 H   0  0  0  0  0  0
   28.7796    6.7053   -3.4840 H   0  0  0  0  0  0
   27.2342    3.4768   -3.9542 H   0  0  0  0  0  0
   27.9535    1.7656   -5.5484 H   0  0  0  0  0  0
   30.1602    1.9590   -6.6689 H   0  0  0  0  0  0
   31.6423    3.8458   -6.1396 H   0  0  0  0  0  0
   24.7979    3.1653   -1.1567 H   0  0  0  0  0  0
   31.8894    6.1110   -5.2528 H   0  0  0  0  0  0
   30.7735    6.7633   -4.1149 H   0  0  0  0  0  0
   31.6203    5.1548   -2.4665 H   0  0  0  0  0  0
   32.7735    3.6471   -4.1578 H   0  0  0  0  0  0
   33.9077    4.9787   -4.2512 H   0  0  0  0  0  0
   33.1871    3.5991   -1.6150 H   0  0  0  0  0  0
   34.4482    3.0376   -2.6484 H   0  0  0  0  0  0
   36.5648    4.2394   -2.9230 H   0  0  0  0  0  0
   38.1783    5.7745   -1.8859 H   0  0  0  0  0  0
   37.4506    7.3223   -0.0922 H   0  0  0  0  0  0
   35.0808    7.3251    0.6487 H   0  0  0  0  0  0
  1  4  1  0  0  0
  1  2  2  0  0  0
  1 35  1  0  0  0
  2 11  1  0  0  0
  2  6  1  0  0  0
  3 12  1  0  0  0
  3  5  1  0  0  0
  3  4  2  0  0  0
  4 36  1  0  0  0
  5  9  1  0  0  0
  5  6  2  0  0  0
  6  7  1  0  0  0
  7  8  1  0  0  0
  7 37  1  0  0  0
  8  9  1  0  0  0
  8 10  2  0  0  0
 11 38  1  0  0  0
 12 23  1  0  0  0
 12 13  1  0  0  0
 12 39  1  0  0  0
 13 14  1  0  0  0
 13 40  1  0  0  0
 13 41  1  0  0  0
 14 15  1  0  0  0
 14 42  1  0  0  0
 15 16  1  0  0  0
 15 43  1  0  0  0
 15 44  1  0  0  0
 16 17  1  0  0  0
 16 45  1  0  0  0
 16 46  1  0  0  0
 17 18  2  0  0  0
 17 22  1  0  0  0
 18 19  1  0  0  0
 18 47  1  0  0  0
 19 20  2  0  0  0
 19 48  1  0  0  0
 20 21  1  0  0  0
 20 49  1  0  0  0
 21 22  2  0  0  0
 21 50  1  0  0  0
 22 24  1  0  0  0
 23 51  1  0  0  0
 24 25  1  0  0  0
 24 52  1  0  0  0
 24 53  1  0  0  0
 25 26  1  0  0  0
 25 54  1  0  0  0
 26 27  1  0  0  0
 26 55  1  0  0  0
 26 56  1  0  0  0
 27 28  1  0  0  0
 27 57  1  0  0  0
 27 58  1  0  0  0
 28 29  2  0  0  0
 28 33  1  0  0  0
 29 30  1  0  0  0
 29 59  1  0  0  0
 30 31  2  0  0  0
 30 60  1  0  0  0
 31 32  1  0  0  0
 31 61  1  0  0  0
 32 33  2  0  0  0
 32 62  1  0  0  0
 33 34  1  0  0  0
M  END
> <s_m_entry_id>
2976

> <s_m_entry_name>
dock_pv.68

> <s_m_Source_Path>
/home/csk/Desktop/cluster/DUD-E-result/adrb1

> <s_m_Source_File>
dock_pv.maegz

> <i_m_Source_File_Index>
68

> <chembl_id>
CHEMBL1945035

> <chembl_pref_name>
None

> <i_lp_mmshare_version>
53161

> <i_f3d_flags>
0

> <r_lp_tautomer_probability>
1

> <s_lp_Force_Field>
OPLS_2005

> <r_lp_Energy>
41.705366

> <b_lp_Chiralities_Consistent>
1

> <s_lp_Variant>
CHEMBL213_lig464-1

> <s_i_glide_gridfile>
glide-grid_2vt4

> <i_i_glide_lignum>
552

> <i_i_glide_rotatable_bonds>
13

> <r_i_docking_score>
-8.2196460934831

> <r_i_glide_ligand_efficiency>
-0.24175429686715

> <r_i_glide_ligand_efficiency_sa>
-0.783190072219756

> <r_i_glide_ligand_efficiency_ln>
-1.81595037531398

> <r_i_glide_gscore>
-8.2196460934831

> <r_i_glide_lipo>
-3.20049971827918

> <r_i_glide_hbond>
-1.03707843235426

> <r_i_glide_metal>
0

> <r_i_glide_rewards>
-0.996203459198937

> <r_i_glide_evdw>
-44.1984901428223

> <r_i_glide_ecoul>
-11.0045852661133

> <r_i_glide_erotb>
0.874747813407384

> <r_i_glide_esite>
0

> <r_i_glide_emodel>
-77.6883233022721

> <r_i_glide_energy>
-55.2030754089355

> <r_i_glide_einternal>
12.6923408508301

> <i_i_glide_confnum>
152

> <i_i_glide_posenum>
300

> <r_i_glide_eff_state_penalty>
0

> <s_user_duplicate_titles>
CHEMBL213_lig464

> <s_m_subgroup_title>
dock_pv

> <s_m_subgroupid>
dock_pv

> <b_m_subgroup_collapsed>
1

$$$$
CHEMBL213_lig117
                    3D
 Schrodinger Suite 2021-1.
 70 74  0  0  1  0            999 V2000
   35.2537    6.7613    2.9157 S   0  0  0  0  0  0
   28.5090    5.8267    3.7888 N   0  0  0  0  0  0
   29.3789    6.6502    4.3498 C   0  0  0  0  0  0
   27.3393    6.1843    4.2691 C   0  0  0  0  0  0
   35.4086    6.9505    1.1528 N   0  0  0  0  0  0
   28.7184    7.4540    5.2619 C   0  0  0  0  0  0
   27.4008    7.1723    5.1850 O   0  0  0  0  0  0
   33.5224    6.6810    3.3178 C   0  0  0  0  0  0
   35.8080    5.4634    3.3089 O   0  0  0  0  0  0
   35.7576    8.0096    3.5013 O   0  0  0  0  0  0
   26.4692    4.4021    0.3533 C   0  0  0  0  0  0
   30.8207    6.6501    3.9862 C   0  0  0  0  0  0
   25.5280    3.3792    0.2962 C   0  0  0  0  0  0
   32.4036    3.6024   -6.8158 C   0  0  0  0  0  0
   26.6103    5.1394    1.5230 C   0  0  0  0  0  0
   25.8316    4.8456    2.6523 C   0  0  0  0  0  0
   31.0950    1.6535   -7.4290 N   0  0  0  0  0  0
   25.9610    5.6449    3.9433 C   0  0  0  0  0  0
   33.1209    7.0497    4.5996 C   0  0  0  0  0  0
   32.5844    6.2495    2.3847 C   0  0  0  0  0  0
   31.2379    6.2296    2.7206 C   0  0  0  0  0  0
   31.7692    7.0497    4.9281 C   0  0  0  0  0  0
   35.3653    5.8821    0.2487 C   0  0  0  0  0  0
   24.7105    3.1080    1.3906 C   0  0  0  0  0  0
   33.6460    4.4717   -7.0455 C   0  0  1  0  0  0
   27.2467    4.6828   -0.7174 F   0  0  0  0  0  0
   24.8582    3.8465    2.5630 C   0  0  0  0  0  0
   25.4080    2.6500   -0.8250 F   0  0  0  0  0  0
   34.6032    3.7644   -4.8307 N   0  0  2  0  0  0
   35.3532    3.8512   -1.6723 C   0  0  0  0  0  0
   32.1769    2.4592   -7.5922 C   0  0  0  0  0  0
   36.2174    4.7852    0.3840 C   0  0  0  0  0  0
   34.5108    5.9632   -0.8511 C   0  0  0  0  0  0
   34.4957    4.9470   -1.8035 C   0  0  0  0  0  0
   36.2082    3.7732   -0.5705 C   0  0  0  0  0  0
   33.4080    5.8500   -6.8194 O   0  0  0  0  0  0
   34.8897    3.9978   -6.2459 C   0  0  0  0  0  0
   31.4612    3.9153   -5.8249 C   0  0  0  0  0  0
   30.2001    1.9779   -6.4611 C   0  0  0  0  0  0
   35.7346    3.1535   -4.1423 C   0  0  0  0  0  0
   35.3523    2.7284   -2.7084 C   0  0  0  0  0  0
   30.3467    3.0953   -5.6393 C   0  0  0  0  0  0
   35.0177    7.8178    0.8169 H   0  0  0  0  0  0
   29.0086    8.2503    5.9324 H   0  0  0  0  0  0
   27.3278    5.9455    1.5274 H   0  0  0  0  0  0
   25.5972    5.0524    4.7828 H   0  0  0  0  0  0
   25.2651    6.4797    3.8616 H   0  0  0  0  0  0
   33.8488    7.3736    5.3290 H   0  0  0  0  0  0
   32.8843    5.9322    1.3984 H   0  0  0  0  0  0
   30.5235    5.8771    1.9915 H   0  0  0  0  0  0
   31.4659    7.3621    5.9147 H   0  0  0  0  0  0
   23.9693    2.3260    1.3259 H   0  0  0  0  0  0
   33.8897    4.4140   -8.1081 H   0  0  0  0  0  0
   24.2131    3.6404    3.4018 H   0  0  0  0  0  0
   33.7659    3.2050   -4.7340 H   0  0  0  0  0  0
   32.8701    2.1712   -8.3687 H   0  0  0  0  0  0
   36.9112    4.7204    1.2074 H   0  0  0  0  0  0
   33.8598    6.8146   -0.9751 H   0  0  0  0  0  0
   33.8281    5.0211   -2.6479 H   0  0  0  0  0  0
   36.8843    2.9374   -0.4554 H   0  0  0  0  0  0
   34.2548    6.3270   -6.8149 H   0  0  0  0  0  0
   35.2348    3.0632   -6.6913 H   0  0  0  0  0  0
   35.7043    4.7170   -6.3563 H   0  0  0  0  0  0
   31.5953    4.7883   -5.2024 H   0  0  0  0  0  0
   29.3494    1.3215   -6.3457 H   0  0  0  0  0  0
   36.1367    2.2956   -4.6849 H   0  0  0  0  0  0
   36.5364    3.8932   -4.0911 H   0  0  0  0  0  0
   34.3800    2.2358   -2.7001 H   0  0  0  0  0  0
   36.0584    1.9587   -2.3916 H   0  0  0  0  0  0
   29.6128    3.3229   -4.8791 H   0  0  0  0  0  0
  1  5  1  0  0  0
  1  8  1  0  0  0
  1  9  2  0  0  0
  1 10  2  0  0  0
  2  3  1  0  0  0
  2  4  2  0  0  0
  3 12  1  0  0  0
  3  6  2  0  0  0
  4 18  1  0  0  0
  4  7  1  0  0  0
  5 23  1  0  0  0
  5 43  1  0  0  0
  6  7  1  0  0  0
  6 44  1  0  0  0
  8 19  2  0  0  0
  8 20  1  0  0  0
 11 15  2  0  0  0
 11 26  1  0  0  0
 11 13  1  0  0  0
 12 21  1  0  0  0
 12 22  2  0  0  0
 13 24  2  0  0  0
 13 28  1  0  0  0
 14 25  1  0  0  0
 14 31  2  0  0  0
 14 38  1  0  0  0
 15 16  1  0  0  0
 15 45  1  0  0  0
 16 18  1  0  0  0
 16 27  2  0  0  0
 17 31  1  0  0  0
 17 39  2  0  0  0
 18 46  1  0  0  0
 18 47  1  0  0  0
 19 22  1  0  0  0
 19 48  1  0  0  0
 20 21  2  0  0  0
 20 49  1  0  0  0
 21 50  1  0  0  0
 22 51  1  0  0  0
 23 32  1  0  0  0
 23 33  2  0  0  0
 24 27  1  0  0  0
 24 52  1  0  0  0
 25 37  1  0  0  0
 25 36  1  0  0  0
 25 53  1  0  0  0
 27 54  1  0  0  0
 29 40  1  0  0  0
 29 37  1  0  0  0
 29 55  1  0  0  0
 30 34  2  0  0  0
 30 41  1  0  0  0
 30 35  1  0  0  0
 31 56  1  0  0  0
 32 35  2  0  0  0
 32 57  1  0  0  0
 33 34  1  0  0  0
 33 58  1  0  0  0
 34 59  1  0  0  0
 35 60  1  0  0  0
 36 61  1  0  0  0
 37 62  1  0  0  0
 37 63  1  0  0  0
 38 42  2  0  0  0
 38 64  1  0  0  0
 39 42  1  0  0  0
 39 65  1  0  0  0
 40 41  1  0  0  0
 40 66  1  0  0  0
 40 67  1  0  0  0
 41 68  1  0  0  0
 41 69  1  0  0  0
 42 70  1  0  0  0
M  END
> <s_m_entry_id>
2977

> <s_m_entry_name>
dock_pv.69

> <s_m_Source_Path>
/home/csk/Desktop/cluster/DUD-E-result/adrb1

> <s_m_Source_File>
dock_pv.maegz

> <i_m_Source_File_Index>
69

> <chembl_id>
CHEMBL289689

> <chembl_pref_name>
None

> <i_lp_mmshare_version>
53161

> <i_f3d_flags>
0

> <r_lp_tautomer_probability>
1

> <s_lp_Force_Field>
OPLS_2005

> <r_lp_Energy>
18.856077

> <b_lp_Chiralities_Consistent>
1

> <s_lp_Variant>
CHEMBL213_lig117-1

> <s_i_glide_gridfile>
glide-grid_2vt4

> <i_i_glide_lignum>
140

> <i_i_glide_rotatable_bonds>
13

> <r_i_docking_score>
-8.21818823747876

> <r_i_glide_ligand_efficiency>
-0.195671148511399

> <r_i_glide_ligand_efficiency_sa>
-0.680158125013755

> <r_i_glide_ligand_efficiency_ln>
-1.73464781203053

> <r_i_glide_gscore>
-8.21818823747876

> <r_i_glide_lipo>
-4.08741798823975

> <r_i_glide_hbond>
-0.28135313989875

> <r_i_glide_metal>
0

> <r_i_glide_rewards>
-0.255632255134124

> <r_i_glide_evdw>
-61.5341110229492

> <r_i_glide_ecoul>
-5.6500391960144

> <r_i_glide_erotb>
0.551787477696706

> <r_i_glide_esite>
-0.221360901353225

> <r_i_glide_emodel>
-93.9842861535927

> <r_i_glide_energy>
-67.1841502189636

> <r_i_glide_einternal>
8.20530223846436

> <i_i_glide_confnum>
54

> <i_i_glide_posenum>
357

> <r_i_glide_eff_state_penalty>
0

> <s_user_duplicate_titles>
CHEMBL213_lig117

> <s_m_subgroup_title>
dock_pv

> <s_m_subgroupid>
dock_pv

> <b_m_subgroup_collapsed>
1

$$$$
CHEMBL213_lig126
                    3D
 Schrodinger Suite 2021-1.
 70 74  0  0  1  0            999 V2000
   35.1355    6.4750    3.2980 S   0  0  0  0  0  0
   27.1416    6.9994    5.1049 N   0  0  0  0  0  0
   29.2214    6.6501    4.3775 C   0  0  0  0  0  0
   27.1967    5.9932    4.2696 C   0  0  0  0  0  0
   28.4470    5.6853    3.8414 O   0  0  0  0  0  0
   26.4114    3.9204   -0.3746 C   0  0  0  0  0  0
   35.5355    6.9287    1.6281 N   0  0  0  0  0  0
   28.3934    7.4092    5.1850 C   0  0  0  0  0  0
   27.1486    5.0139    0.0647 C   0  0  0  0  0  0
   25.4936    3.3000    0.4708 C   0  0  0  0  0  0
   33.3826    6.6274    3.5212 C   0  0  0  0  0  0
   35.4080    5.0501    3.4900 O   0  0  0  0  0  0
   35.7691    7.4818    4.1580 O   0  0  0  0  0  0
   26.1479    4.7870    2.2649 C   0  0  0  0  0  0
   30.6591    6.6548    4.0363 C   0  0  0  0  0  0
   27.0081    5.4500    1.3755 C   0  0  0  0  0  0
   25.3544    3.7415    1.7840 C   0  0  0  0  0  0
   31.0024    3.6019   -5.7718 C   0  0  0  0  0  0
   26.0410    5.1746    3.7379 C   0  0  0  0  0  0
   30.4340    1.5864   -7.0071 N   0  0  0  0  0  0
   32.9183    7.0179    4.7735 C   0  0  0  0  0  0
   32.4919    6.2448    2.5193 C   0  0  0  0  0  0
   31.1257    6.2444    2.7850 C   0  0  0  0  0  0
   31.5553    7.0500    5.0219 C   0  0  0  0  0  0
   35.5023    6.0737    0.5175 C   0  0  0  0  0  0
   26.6080    3.4500   -1.6150 F   0  0  0  0  0  0
   24.7643    2.2500    0.0352 F   0  0  0  0  0  0
   28.0188    5.6360   -0.7635 F   0  0  0  0  0  0
   31.9584    4.7876   -5.5788 C   0  0  1  0  0  0
   33.2937    3.6750   -3.7621 N   0  0  2  0  0  0
   35.6206    4.5647   -1.8282 C   0  0  0  0  0  0
   31.2465    2.6504   -6.7722 C   0  0  0  0  0  0
   35.0081    6.5887   -0.6801 C   0  0  0  0  0  0
   36.0502    4.7865    0.5388 C   0  0  0  0  0  0
   35.0535    5.8363   -1.8459 C   0  0  0  0  0  0
   36.1095    4.0327   -0.6325 C   0  0  0  0  0  0
   31.4083    5.8500   -4.8156 O   0  0  0  0  0  0
   33.3552    4.3892   -5.0379 C   0  0  0  0  0  0
   29.8547    3.4311   -4.9824 C   0  0  0  0  0  0
   29.3294    1.4509   -6.2298 C   0  0  0  0  0  0
   34.5137    2.9253   -3.4714 C   0  0  0  0  0  0
   35.7430    3.7897   -3.1311 C   0  0  0  0  0  0
   29.0043    2.3495   -5.2150 C   0  0  0  0  0  0
   35.3784    7.9031    1.4302 H   0  0  0  0  0  0
   28.6785    8.2511    5.7974 H   0  0  0  0  0  0
   27.5973    6.2941    1.6887 H   0  0  0  0  0  0
   24.6594    3.2327    2.4362 H   0  0  0  0  0  0
   25.9878    4.2501    4.3097 H   0  0  0  0  0  0
   25.0889    5.6816    3.8984 H   0  0  0  0  0  0
   33.6081    7.2977    5.5561 H   0  0  0  0  0  0
   32.8521    5.9076    1.5582 H   0  0  0  0  0  0
   30.4390    5.8907    2.0305 H   0  0  0  0  0  0
   31.2009    7.3716    5.9850 H   0  0  0  0  0  0
   32.1287    5.2159   -6.5653 H   0  0  0  0  0  0
   32.4673    3.0925   -3.7178 H   0  0  0  0  0  0
   32.1115    2.7329   -7.4143 H   0  0  0  0  0  0
   34.6080    7.5861   -0.7257 H   0  0  0  0  0  0
   36.4772    4.3730    1.4382 H   0  0  0  0  0  0
   34.6756    6.2467   -2.7705 H   0  0  0  0  0  0
   36.5654    3.0524   -0.6144 H   0  0  0  0  0  0
   31.4069    6.6458   -5.3623 H   0  0  0  0  0  0
   33.8356    3.7549   -5.7852 H   0  0  0  0  0  0
   33.9808    5.2776   -4.9393 H   0  0  0  0  0  0
   29.6125    4.1313   -4.1953 H   0  0  0  0  0  0
   28.6930    0.6013   -6.4271 H   0  0  0  0  0  0
   34.2868    2.3028   -2.6054 H   0  0  0  0  0  0
   34.7507    2.2500   -4.2898 H   0  0  0  0  0  0
   36.6261    3.1509   -3.0751 H   0  0  0  0  0  0
   35.9648    4.4842   -3.9434 H   0  0  0  0  0  0
   28.1149    2.2140   -4.6146 H   0  0  0  0  0  0
  1  7  1  0  0  0
  1 11  1  0  0  0
  1 12  2  0  0  0
  1 13  2  0  0  0
  2  8  1  0  0  0
  2  4  2  0  0  0
  3 15  1  0  0  0
  3  5  1  0  0  0
  3  8  2  0  0  0
  4  5  1  0  0  0
  4 19  1  0  0  0
  6 10  1  0  0  0
  6 26  1  0  0  0
  6  9  2  0  0  0
  7 25  1  0  0  0
  7 44  1  0  0  0
  8 45  1  0  0  0
  9 16  1  0  0  0
  9 28  1  0  0  0
 10 17  2  0  0  0
 10 27  1  0  0  0
 11 21  2  0  0  0
 11 22  1  0  0  0
 14 19  1  0  0  0
 14 16  2  0  0  0
 14 17  1  0  0  0
 15 23  1  0  0  0
 15 24  2  0  0  0
 16 46  1  0  0  0
 17 47  1  0  0  0
 18 29  1  0  0  0
 18 32  2  0  0  0
 18 39  1  0  0  0
 19 48  1  0  0  0
 19 49  1  0  0  0
 20 32  1  0  0  0
 20 40  2  0  0  0
 21 24  1  0  0  0
 21 50  1  0  0  0
 22 23  2  0  0  0
 22 51  1  0  0  0
 23 52  1  0  0  0
 24 53  1  0  0  0
 25 33  2  0  0  0
 25 34  1  0  0  0
 29 38  1  0  0  0
 29 37  1  0  0  0
 29 54  1  0  0  0
 30 41  1  0  0  0
 30 38  1  0  0  0
 30 55  1  0  0  0
 31 36  1  0  0  0
 31 42  1  0  0  0
 31 35  2  0  0  0
 32 56  1  0  0  0
 33 35  1  0  0  0
 33 57  1  0  0  0
 34 36  2  0  0  0
 34 58  1  0  0  0
 35 59  1  0  0  0
 36 60  1  0  0  0
 37 61  1  0  0  0
 38 62  1  0  0  0
 38 63  1  0  0  0
 39 43  2  0  0  0
 39 64  1  0  0  0
 40 43  1  0  0  0
 40 65  1  0  0  0
 41 42  1  0  0  0
 41 66  1  0  0  0
 41 67  1  0  0  0
 42 68  1  0  0  0
 42 69  1  0  0  0
 43 70  1  0  0  0
M  END
> <s_m_entry_id>
2978

> <s_m_entry_name>
dock_pv.70

> <s_m_Source_Path>
/home/csk/Desktop/cluster/DUD-E-result/adrb1

> <s_m_Source_File>
dock_pv.maegz

> <i_m_Source_File_Index>
70

> <chembl_id>
CHEMBL289316

> <chembl_pref_name>
None

> <i_lp_mmshare_version>
53161

> <i_f3d_flags>
0

> <r_lp_tautomer_probability>
1

> <s_lp_Force_Field>
OPLS_2005

> <r_lp_Energy>
28.878965

> <b_lp_Chiralities_Consistent>
1

> <s_lp_Variant>
CHEMBL213_lig126-1

> <s_i_glide_gridfile>
glide-grid_2vt4

> <i_i_glide_lignum>
149

> <i_i_glide_rotatable_bonds>
13

> <r_i_docking_score>
-8.21245876765273

> <r_i_glide_ligand_efficiency>
-0.190987413201226

> <r_i_glide_ligand_efficiency_sa>
-0.669104932128575

> <r_i_glide_ligand_efficiency_ln>
-1.72487158029408

> <r_i_glide_gscore>
-8.21245876765273

> <r_i_glide_lipo>
-3.71031970650756

> <r_i_glide_hbond>
-0.32

> <r_i_glide_metal>
0

> <r_i_glide_rewards>
-0.690185460421758

> <r_i_glide_evdw>
-60.8005485534668

> <r_i_glide_ecoul>
-5.30298852920532

> <r_i_glide_erotb>
0.501443607042617

> <r_i_glide_esite>
-0.15792150071189

> <r_i_glide_emodel>
-90.3824577875775

> <r_i_glide_energy>
-66.1035370826721

> <r_i_glide_einternal>
10.9109354019165

> <i_i_glide_confnum>
2

> <i_i_glide_posenum>
329

> <r_i_glide_eff_state_penalty>
0

> <s_user_duplicate_titles>
CHEMBL213_lig126

> <s_m_subgroup_title>
dock_pv

> <s_m_subgroupid>
dock_pv

> <b_m_subgroup_collapsed>
1

$$$$
CHEMBL213_lig1091
                    3D
 Schrodinger Suite 2021-1.
 76 77  0  0  1  0            999 V2000
   25.7043    4.2202    0.9148 C   0  0  0  0  0  0
   24.4441    3.9028    1.4420 C   0  0  0  0  0  0
   24.1695    4.1260    2.7850 C   0  0  0  0  0  0
   25.1453    4.6505    3.6236 C   0  0  0  0  0  0
   26.4210    4.9394    3.1374 C   0  0  0  0  0  0
   26.6734    4.7535    1.7715 C   0  0  0  0  0  0
   23.4111    3.4500    0.6815 O   0  0  0  0  0  0
   26.0342    4.0134   -0.5602 C   0  0  0  0  0  0
   27.4170    3.8512   -0.8198 O   0  0  0  0  0  0
   27.5171    5.3427    4.1247 C   0  0  2  0  0  0
   28.8171    5.8243    3.4427 C   0  0  0  0  0  0
   29.8378    6.2500    4.3850 N   0  0  2  0  0  0
   31.0370    6.6598    3.6718 C   0  0  0  0  0  0
   32.2480    6.6505    4.6348 C   0  0  0  0  0  0
   33.5596    6.1318    4.0063 C   0  0  0  0  0  0
   33.9139    6.7509    2.6407 C   0  0  0  0  0  0
   35.0978    6.0647    1.9393 C   0  0  0  0  0  0
   35.2331    6.4731    0.4625 C   0  0  0  0  0  0
   36.0946    5.5383   -0.1631 O   0  0  0  0  0  0
   36.1932    5.6668   -1.5758 C   0  0  0  0  0  0
   36.8304    4.3749   -2.1120 C   0  0  0  0  0  0
   35.9724    3.1103   -1.8577 C   0  0  0  0  0  0
   35.3174    2.4939   -3.1085 C   0  0  0  0  0  0
   34.3293    3.4042   -3.8316 C   0  0  0  0  0  0
   32.9887    3.4530   -3.4345 C   0  0  0  0  0  0
   32.0698    4.2457   -4.1337 C   0  0  0  0  0  0
   32.5062    5.0192   -5.2134 C   0  0  0  0  0  0
   33.8422    4.9777   -5.6077 C   0  0  0  0  0  0
   34.7501    4.1725   -4.9218 C   0  0  0  0  0  0
   27.8077    4.2499    4.9804 O   0  0  0  0  0  0
   30.6123    4.3123   -3.6916 C   0  0  0  0  0  0
   29.8082    3.1322   -4.0152 N   0  0  0  0  0  0
   29.5599    2.6487   -5.2401 C   0  0  0  0  0  0
   30.0546    3.0535   -6.2871 O   0  0  0  0  0  0
   28.6738    1.6638   -5.2150 N   0  0  0  0  0  0
   23.1889    3.9037    3.1795 H   0  0  0  0  0  0
   24.9160    4.8042    4.6673 H   0  0  0  0  0  0
   27.6425    4.9849    1.3595 H   0  0  0  0  0  0
   23.5171    3.4522   -0.2814 H   0  0  0  0  0  0
   25.5088    3.1392   -0.9465 H   0  0  0  0  0  0
   25.6848    4.8830   -1.1179 H   0  0  0  0  0  0
   27.5308    3.2085   -1.5312 H   0  0  0  0  0  0
   27.1262    6.1620    4.7318 H   0  0  0  0  0  0
   29.2178    5.0117    2.8334 H   0  0  0  0  0  0
   28.5791    6.6502    2.7848 H   0  0  0  0  0  0
   30.1743    5.3777    4.7849 H   0  0  0  0  0  0
   31.2240    5.9305    2.8808 H   0  0  0  0  0  0
   30.9043    7.6383    3.2022 H   0  0  0  0  0  0
   32.3839    7.6459    5.0434 H   0  0  0  0  0  0
   32.0567    6.0334    5.5138 H   0  0  0  0  0  0
   34.3834    6.2886    4.7035 H   0  0  0  0  0  0
   33.4723    5.0499    3.8931 H   0  0  0  0  0  0
   33.0547    6.6501    1.9802 H   0  0  0  0  0  0
   34.0991    7.8203    2.7501 H   0  0  0  0  0  0
   36.0295    6.2711    2.4672 H   0  0  0  0  0  0
   34.9554    4.9839    1.9812 H   0  0  0  0  0  0
   34.2544    6.4477   -0.0230 H   0  0  0  0  0  0
   35.6297    7.4846    0.3669 H   0  0  0  0  0  0
   35.2146    5.8074   -2.0398 H   0  0  0  0  0  0
   36.8038    6.5341   -1.8274 H   0  0  0  0  0  0
   37.0543    4.4865   -3.1731 H   0  0  0  0  0  0
   37.8033    4.2506   -1.6340 H   0  0  0  0  0  0
   36.6078    2.3474   -1.4052 H   0  0  0  0  0  0
   35.2052    3.3091   -1.1084 H   0  0  0  0  0  0
   36.0880    2.1684   -3.8085 H   0  0  0  0  0  0
   34.8005    1.5791   -2.8149 H   0  0  0  0  0  0
   32.6558    2.8648   -2.5920 H   0  0  0  0  0  0
   31.8133    5.6495   -5.7522 H   0  0  0  0  0  0
   34.1797    5.5794   -6.4403 H   0  0  0  0  0  0
   35.7823    4.1537   -5.2415 H   0  0  0  0  0  0
   28.7340    4.2701    5.2320 H   0  0  0  0  0  0
   30.5907    4.4329   -2.6077 H   0  0  0  0  0  0
   30.1252    5.2061   -4.0886 H   0  0  0  0  0  0
   29.3280    2.6893   -3.2429 H   0  0  0  0  0  0
   28.3783    1.2525   -6.0839 H   0  0  0  0  0  0
   28.1831    1.4500   -4.3573 H   0  0  0  0  0  0
  1  6  1  0  0  0
  1  2  2  0  0  0
  1  8  1  0  0  0
  2  3  1  0  0  0
  2  7  1  0  0  0
  3  4  2  0  0  0
  3 36  1  0  0  0
  4  5  1  0  0  0
  4 37  1  0  0  0
  5 10  1  0  0  0
  5  6  2  0  0  0
  6 38  1  0  0  0
  7 39  1  0  0  0
  8  9  1  0  0  0
  8 40  1  0  0  0
  8 41  1  0  0  0
  9 42  1  0  0  0
 10 11  1  0  0  0
 10 30  1  0  0  0
 10 43  1  0  0  0
 11 12  1  0  0  0
 11 44  1  0  0  0
 11 45  1  0  0  0
 12 13  1  0  0  0
 12 46  1  0  0  0
 13 14  1  0  0  0
 13 47  1  0  0  0
 13 48  1  0  0  0
 14 15  1  0  0  0
 14 49  1  0  0  0
 14 50  1  0  0  0
 15 16  1  0  0  0
 15 51  1  0  0  0
 15 52  1  0  0  0
 16 17  1  0  0  0
 16 53  1  0  0  0
 16 54  1  0  0  0
 17 18  1  0  0  0
 17 55  1  0  0  0
 17 56  1  0  0  0
 18 19  1  0  0  0
 18 57  1  0  0  0
 18 58  1  0  0  0
 19 20  1  0  0  0
 20 21  1  0  0  0
 20 59  1  0  0  0
 20 60  1  0  0  0
 21 22  1  0  0  0
 21 61  1  0  0  0
 21 62  1  0  0  0
 22 23  1  0  0  0
 22 63  1  0  0  0
 22 64  1  0  0  0
 23 24  1  0  0  0
 23 65  1  0  0  0
 23 66  1  0  0  0
 24 25  2  0  0  0
 24 29  1  0  0  0
 25 26  1  0  0  0
 25 67  1  0  0  0
 26 27  2  0  0  0
 26 31  1  0  0  0
 27 28  1  0  0  0
 27 68  1  0  0  0
 28 29  2  0  0  0
 28 69  1  0  0  0
 29 70  1  0  0  0
 30 71  1  0  0  0
 31 32  1  0  0  0
 31 72  1  0  0  0
 31 73  1  0  0  0
 32 33  1  0  0  0
 32 74  1  0  0  0
 33 34  2  0  0  0
 33 35  1  0  0  0
 35 75  1  0  0  0
 35 76  1  0  0  0
M  END
> <s_m_entry_id>
2979

> <s_m_entry_name>
dock_pv.71

> <s_m_Source_Path>
/home/csk/Desktop/cluster/DUD-E-result/adrb1

> <s_m_Source_File>
dock_pv.maegz

> <i_m_Source_File_Index>
71

> <chembl_id>
CHEMBL1835857

> <chembl_pref_name>
None

> <i_lp_mmshare_version>
53161

> <i_f3d_flags>
0

> <r_lp_tautomer_probability>
0.999999999997365

> <s_lp_Force_Field>
OPLS_2005

> <r_lp_Energy>
16.976936

> <b_lp_Chiralities_Consistent>
1

> <s_lp_Variant>
CHEMBL213_lig1091-1

> <s_i_glide_gridfile>
glide-grid_2vt4

> <i_i_glide_lignum>
1273

> <i_i_glide_rotatable_bonds>
22

> <r_i_docking_score>
-8.20862681015594

> <r_i_glide_ligand_efficiency>
-0.234532194575884

> <r_i_glide_ligand_efficiency_sa>
-0.767170359422583

> <r_i_glide_ligand_efficiency_ln>
-1.80197576548565

> <r_i_glide_gscore>
-8.20862681015594

> <r_i_glide_lipo>
-2.92249553077781

> <r_i_glide_hbond>
-1.50926453334112

> <r_i_glide_metal>
0

> <r_i_glide_rewards>
-0.568773564428528

> <r_i_glide_evdw>
-44.2995338439941

> <r_i_glide_ecoul>
-16.3238754272461

> <r_i_glide_erotb>
1.53901092857081

> <r_i_glide_esite>
-0.0835461038926746

> <r_i_glide_emodel>
-85.0312756736537

> <r_i_glide_energy>
-60.6234092712402

> <r_i_glide_einternal>
16.3389625549316

> <i_i_glide_confnum>
261

> <i_i_glide_posenum>
267

> <r_i_glide_eff_state_penalty>
0

> <s_user_duplicate_titles>
CHEMBL213_lig1091

> <s_m_subgroup_title>
dock_pv

> <s_m_subgroupid>
dock_pv

> <b_m_subgroup_collapsed>
1

$$$$
CHEMBL213_lig946
                    3D
 Schrodinger Suite 2021-1.
 65 68  0  0  1  0            999 V2000
   28.2468    5.8205    3.7296 C   0  0  0  0  0  0
   27.9335    6.6523    4.8036 C   0  0  0  0  0  0
   28.8885    7.5167    5.3202 C   0  0  0  0  0  0
   30.1704    7.5405    4.7867 C   0  0  0  0  0  0
   30.5110    6.6875    3.7284 C   0  0  0  0  0  0
   29.5318    5.8500    3.1845 C   0  0  0  0  0  0
   26.6851    6.6465    5.3666 O   0  0  0  0  0  0
   31.7795    6.6553    3.1841 O   0  0  0  0  0  0
   32.8813    6.6864    4.1009 C   0  0  0  0  0  0
   34.2218    6.9037    3.3757 C   0  0  2  0  0  0
   35.4087    6.8140    4.3734 C   0  0  0  0  0  0
   36.7070    6.5493    3.7554 N   0  0  1  0  0  0
   37.3342    7.7035    3.1219 C   0  0  0  0  0  0
   38.2603    7.2615    1.9609 C   0  0  0  0  0  0
   37.5727    6.6874    0.7163 C   0  0  0  0  0  0
   36.2688    7.0494    0.3737 C   0  0  0  0  0  0
   35.6435    6.5098   -0.7404 C   0  0  0  0  0  0
   36.3290    5.5955   -1.5514 C   0  0  0  0  0  0
   37.6493    5.2630   -1.2373 C   0  0  0  0  0  0
   38.2668    5.7993   -0.1085 C   0  0  0  0  0  0
   35.7730    4.9495   -2.6713 N   0  0  0  0  0  0
   34.5337    5.0497   -3.1992 C   0  0  0  0  0  0
   34.2487    4.0962   -4.3790 C   0  0  0  0  0  0
   33.6689    5.8413   -2.8160 O   0  0  0  0  0  0
   32.7953    3.6339   -4.5744 C   0  0  0  0  0  0
   32.3833    3.2413   -5.8531 C   0  0  0  0  0  0
   34.2082    8.1906    2.7855 O   0  0  0  0  0  0
   31.9023    3.5080   -3.5054 C   0  0  0  0  0  0
   30.5946    3.0817   -3.7044 C   0  0  0  0  0  0
   30.1568    2.6895   -4.9903 C   0  0  0  0  0  0
   31.0750    2.7404   -6.0817 C   0  0  0  0  0  0
   30.6501    2.2908   -7.3603 C   0  0  0  0  0  0
   29.3395    1.8607   -7.5571 C   0  0  0  0  0  0
   28.4367    1.8590   -6.5003 C   0  0  0  0  0  0
   28.8316    2.2501   -5.2239 C   0  0  0  0  0  0
   27.5014    5.1541    3.3217 H   0  0  0  0  0  0
   28.6238    8.1864    6.1228 H   0  0  0  0  0  0
   30.8808    8.2477    5.1872 H   0  0  0  0  0  0
   29.7840    5.1978    2.3609 H   0  0  0  0  0  0
   26.6080    7.2956    6.0777 H   0  0  0  0  0  0
   32.9084    5.7328    4.6288 H   0  0  0  0  0  0
   32.7866    7.4495    4.8708 H   0  0  0  0  0  0
   34.3246    6.1439    2.5982 H   0  0  0  0  0  0
   35.2253    5.9549    5.0214 H   0  0  0  0  0  0
   35.4470    7.6772    5.0405 H   0  0  0  0  0  0
   37.3367    6.2491    4.4863 H   0  0  0  0  0  0
   37.8904    8.2495    3.8782 H   0  0  0  0  0  0
   36.5963    8.4068    2.7483 H   0  0  0  0  0  0
   38.9796    6.5326    2.3388 H   0  0  0  0  0  0
   38.8425    8.1201    1.6281 H   0  0  0  0  0  0
   35.7184    7.7576    0.9609 H   0  0  0  0  0  0
   34.6291    6.8195   -0.9342 H   0  0  0  0  0  0
   38.2061    4.5715   -1.8539 H   0  0  0  0  0  0
   39.2837    5.5132    0.1224 H   0  0  0  0  0  0
   36.4066    4.3185   -3.1364 H   0  0  0  0  0  0
   34.8671    3.2020   -4.2829 H   0  0  0  0  0  0
   34.5871    4.6009   -5.2856 H   0  0  0  0  0  0
   33.0719    3.2948   -6.6835 H   0  0  0  0  0  0
   33.4850    8.2405    2.1393 H   0  0  0  0  0  0
   32.2038    3.7662   -2.5010 H   0  0  0  0  0  0
   29.9034    3.0491   -2.8739 H   0  0  0  0  0  0
   31.3420    2.3145   -8.1896 H   0  0  0  0  0  0
   29.0080    1.5589   -8.5410 H   0  0  0  0  0  0
   27.4127    1.5654   -6.6688 H   0  0  0  0  0  0
   28.1156    2.2379   -4.4147 H   0  0  0  0  0  0
  1  6  1  0  0  0
  1  2  2  0  0  0
  1 36  1  0  0  0
  2  3  1  0  0  0
  2  7  1  0  0  0
  3  4  2  0  0  0
  3 37  1  0  0  0
  4  5  1  0  0  0
  4 38  1  0  0  0
  5  6  2  0  0  0
  5  8  1  0  0  0
  6 39  1  0  0  0
  7 40  1  0  0  0
  8  9  1  0  0  0
  9 10  1  0  0  0
  9 41  1  0  0  0
  9 42  1  0  0  0
 10 11  1  0  0  0
 10 27  1  0  0  0
 10 43  1  0  0  0
 11 12  1  0  0  0
 11 44  1  0  0  0
 11 45  1  0  0  0
 12 13  1  0  0  0
 12 46  1  0  0  0
 13 14  1  0  0  0
 13 47  1  0  0  0
 13 48  1  0  0  0
 14 15  1  0  0  0
 14 49  1  0  0  0
 14 50  1  0  0  0
 15 20  1  0  0  0
 15 16  2  0  0  0
 16 17  1  0  0  0
 16 51  1  0  0  0
 17 18  2  0  0  0
 17 52  1  0  0  0
 18 19  1  0  0  0
 18 21  1  0  0  0
 19 20  2  0  0  0
 19 53  1  0  0  0
 20 54  1  0  0  0
 21 22  1  0  0  0
 21 55  1  0  0  0
 22 23  1  0  0  0
 22 24  2  0  0  0
 23 25  1  0  0  0
 23 56  1  0  0  0
 23 57  1  0  0  0
 25 26  2  0  0  0
 25 28  1  0  0  0
 26 31  1  0  0  0
 26 58  1  0  0  0
 27 59  1  0  0  0
 28 29  2  0  0  0
 28 60  1  0  0  0
 29 30  1  0  0  0
 29 61  1  0  0  0
 30 31  1  0  0  0
 30 35  2  0  0  0
 31 32  2  0  0  0
 32 33  1  0  0  0
 32 62  1  0  0  0
 33 34  2  0  0  0
 33 63  1  0  0  0
 34 35  1  0  0  0
 34 64  1  0  0  0
 35 65  1  0  0  0
M  END
> <s_m_entry_id>
2980

> <s_m_entry_name>
dock_pv.72

> <s_m_Source_Path>
/home/csk/Desktop/cluster/DUD-E-result/adrb1

> <s_m_Source_File>
dock_pv.maegz

> <i_m_Source_File_Index>
72

> <chembl_id>
CHEMBL561291

> <chembl_pref_name>
None

> <i_lp_mmshare_version>
53161

> <i_f3d_flags>
0

> <r_lp_tautomer_probability>
0.999999999999998

> <s_lp_Force_Field>
OPLS_2005

> <r_lp_Energy>
37.344978

> <b_lp_Chiralities_Consistent>
1

> <s_lp_Variant>
CHEMBL213_lig946-1

> <s_i_glide_gridfile>
glide-grid_2vt4

> <i_i_glide_lignum>
1057

> <i_i_glide_rotatable_bonds>
14

> <r_i_docking_score>
-8.19264716895967

> <r_i_glide_ligand_efficiency>
-0.234075633398848

> <r_i_glide_ligand_efficiency_sa>
-0.76567691753961

> <r_i_glide_ligand_efficiency_ln>
-1.79846787959404

> <r_i_glide_gscore>
-8.19264716895967

> <r_i_glide_lipo>
-3.10051684569918

> <r_i_glide_hbond>
-0.695634370912063

> <r_i_glide_metal>
0

> <r_i_glide_rewards>
-0.299907638663126

> <r_i_glide_evdw>
-48.7176361083984

> <r_i_glide_ecoul>
-17.6353187561035

> <r_i_glide_erotb>
1.00379096635134

> <r_i_glide_esite>
-0.0191996612011937

> <r_i_glide_emodel>
-87.7016828185852

> <r_i_glide_energy>
-66.352954864502

> <r_i_glide_einternal>
18.4722366333008

> <i_i_glide_confnum>
10

> <i_i_glide_posenum>
73

> <r_i_glide_eff_state_penalty>
0

> <s_user_duplicate_titles>
CHEMBL213_lig946,555995

> <s_m_subgroup_title>
dock_pv

> <s_m_subgroupid>
dock_pv

> <b_m_subgroup_collapsed>
1

$$$$
CHEMBL213_lig1203 
                    3D
 Schrodinger Suite 2021-1.
 53 55  0  0  1  0            999 V2000
   27.4541    6.9009   -2.0277 C   0  0  0  0  0  0
   27.7657    5.3980   -1.8511 C   0  0  0  0  0  0
   29.0093    5.1970   -0.9663 C   0  0  0  0  0  0
   24.1893    4.6500    4.3252 C   0  0  0  0  0  0
   25.0277    5.4938    5.0538 C   0  0  0  0  0  0
   25.8080    4.5483    2.5178 C   0  0  0  0  0  0
   24.5526    4.2336    3.0502 C   0  0  0  0  0  0
   26.7107    5.2819    3.3128 C   0  0  0  0  0  0
   26.2997    5.7970    4.5586 C   0  0  0  0  0  0
   27.2148    6.5367    5.3382 N   0  0  0  0  0  0
   28.5377    6.6645    5.1120 C   0  0  0  0  0  0
   28.9507    6.1931    3.8037 C   0  0  0  0  0  0
   28.1289    5.5262    2.9619 C   0  0  0  0  0  0
   29.3057    7.0500    5.9849 O   0  0  0  0  0  0
   24.6080    5.9754    6.2695 O   0  0  0  0  0  0
   26.1731    4.0735    1.1068 C   0  0  2  0  0  0
   26.0810    5.1923    0.0549 C   0  0  0  0  0  0
   25.4083    2.9668    0.6552 O   0  0  0  0  0  0
   26.6256    4.7214   -1.2151 N   0  0  1  0  0  0
   27.9344    4.7176   -3.2484 C   0  0  0  0  0  0
   29.1486    5.1288   -4.1330 C   0  0  0  0  0  0
   30.5134    4.5807   -3.7329 C   0  0  0  0  0  0
   30.6940    3.2099   -3.5272 C   0  0  0  0  0  0
   31.9555    2.7121   -3.2146 C   0  0  0  0  0  0
   33.0341    3.5875   -3.1042 C   0  0  0  0  0  0
   32.8643    4.9547   -3.3136 C   0  0  0  0  0  0
   31.6029    5.4499   -3.6363 C   0  0  0  0  0  0
   28.2080    7.4095   -2.6262 H   0  0  0  0  0  0
   26.4957    7.0499   -2.5279 H   0  0  0  0  0  0
   27.4076    7.4280   -1.0750 H   0  0  0  0  0  0
   29.8900    5.6711   -1.3918 H   0  0  0  0  0  0
   28.8698    5.6452    0.0094 H   0  0  0  0  0  0
   29.2308    4.1393   -0.8164 H   0  0  0  0  0  0
   23.2140    4.3871    4.7099 H   0  0  0  0  0  0
   23.8480    3.6455    2.4781 H   0  0  0  0  0  0
   26.9212    6.8790    6.2430 H   0  0  0  0  0  0
   29.9838    6.3524    3.5309 H   0  0  0  0  0  0
   28.5378    5.1683    2.0338 H   0  0  0  0  0  0
   23.6530    6.0584    6.3377 H   0  0  0  0  0  0
   27.2003    3.7458    1.1333 H   0  0  0  0  0  0
   26.5878    6.0892    0.4099 H   0  0  0  0  0  0
   25.0350    5.4500   -0.1055 H   0  0  0  0  0  0
   25.4728    2.9843   -0.3058 H   0  0  0  0  0  0
   25.8865    4.6499   -1.9235 H   0  0  0  0  0  0
   27.0385    4.9341   -3.8343 H   0  0  0  0  0  0
   27.9256    3.6333   -3.1461 H   0  0  0  0  0  0
   29.1848    6.2119   -4.2502 H   0  0  0  0  0  0
   29.0077    4.7428   -5.1395 H   0  0  0  0  0  0
   29.8619    2.5269   -3.6159 H   0  0  0  0  0  0
   32.0953    1.6526   -3.0586 H   0  0  0  0  0  0
   34.0138    3.2018   -2.8609 H   0  0  0  0  0  0
   33.7116    5.6213   -3.2398 H   0  0  0  0  0  0
   31.4685    6.5042   -3.8283 H   0  0  0  0  0  0
  1  2  1  0  0  0
  1 28  1  0  0  0
  1 29  1  0  0  0
  1 30  1  0  0  0
  2  3  1  0  0  0
  2 19  1  0  0  0
  2 20  1  0  0  0
  3 31  1  0  0  0
  3 32  1  0  0  0
  3 33  1  0  0  0
  4  5  2  0  0  0
  4  7  1  0  0  0
  4 34  1  0  0  0
  5  9  1  0  0  0
  5 15  1  0  0  0
  6  8  1  0  0  0
  6  7  2  0  0  0
  6 16  1  0  0  0
  7 35  1  0  0  0
  8  9  2  0  0  0
  8 13  1  0  0  0
  9 10  1  0  0  0
 10 11  1  0  0  0
 10 36  1  0  0  0
 11 12  1  0  0  0
 11 14  2  0  0  0
 12 13  2  0  0  0
 12 37  1  0  0  0
 13 38  1  0  0  0
 15 39  1  0  0  0
 16 17  1  0  0  0
 16 18  1  0  0  0
 16 40  1  0  0  0
 17 19  1  0  0  0
 17 41  1  0  0  0
 17 42  1  0  0  0
 18 43  1  0  0  0
 19 44  1  0  0  0
 20 21  1  0  0  0
 20 45  1  0  0  0
 20 46  1  0  0  0
 21 22  1  0  0  0
 21 47  1  0  0  0
 21 48  1  0  0  0
 22 23  2  0  0  0
 22 27  1  0  0  0
 23 24  1  0  0  0
 23 49  1  0  0  0
 24 25  2  0  0  0
 24 50  1  0  0  0
 25 26  1  0  0  0
 25 51  1  0  0  0
 26 27  2  0  0  0
 26 52  1  0  0  0
 27 53  1  0  0  0
M  END
> <s_m_entry_id>
2981

> <s_m_entry_name>
dock_pv.73

> <s_m_Source_Path>
/home/csk/Desktop/cluster/DUD-E-result/adrb1

> <s_m_Source_File>
dock_pv.maegz

> <i_m_Source_File_Index>
73

> <chembl_id>
CHEMBL4445289

> <chembl_pref_name>
None

> <i_lp_mmshare_version>
53161

> <i_f3d_flags>
0

> <r_lp_tautomer_probability>
1

> <s_lp_Force_Field>
OPLS_2005

> <r_lp_Energy>
33.324802

> <b_lp_Chiralities_Consistent>
1

> <s_lp_Variant>
CHEMBL213_lig1203 -1

> <s_i_glide_gridfile>
glide-grid_2vt4

> <i_i_glide_lignum>
1418

> <i_i_glide_rotatable_bonds>
9

> <r_i_docking_score>
-8.15987528555797

> <r_i_glide_ligand_efficiency>
-0.302217603168814

> <r_i_glide_ligand_efficiency_sa>
-0.906652808510382

> <r_i_glide_ligand_efficiency_ln>
-1.89948444042003

> <r_i_glide_gscore>
-8.15987528555797

> <r_i_glide_lipo>
-3.10774005232455

> <r_i_glide_hbond>
-0.577576216361793

> <r_i_glide_metal>
0

> <r_i_glide_rewards>
-2.34710998593949

> <r_i_glide_evdw>
-32.9523811340332

> <r_i_glide_ecoul>
-7.21212387084961

> <r_i_glide_erotb>
0.601988606396967

> <r_i_glide_esite>
0

> <r_i_glide_emodel>
-57.0264665681977

> <r_i_glide_energy>
-40.1645050048828

> <r_i_glide_einternal>
9.74071788787842

> <i_i_glide_confnum>
22

> <i_i_glide_posenum>
76

> <r_i_glide_eff_state_penalty>
0

> <s_user_duplicate_titles>
CHEMBL213_lig1203 

> <s_m_subgroup_title>
dock_pv

> <s_m_subgroupid>
dock_pv

> <b_m_subgroup_collapsed>
1

$$$$
CHEMBL213_lig164
                    3D
 Schrodinger Suite 2021-1.
 70 74  0  0  1  0            999 V2000
   35.0551    6.5444    3.4577 S   0  0  0  0  0  0
   29.1401    6.6069    4.2682 N   0  0  0  0  0  0
   28.3310    5.6903    3.7117 N   0  0  0  0  0  0
   28.5393    7.4496    5.1216 N   0  0  0  0  0  0
   27.1353    6.0253    4.1486 C   0  0  0  0  0  0
   35.4975    6.9077    1.7740 N   0  0  0  0  0  0
   27.2885    7.0752    5.0432 C   0  0  0  0  0  0
   33.2859    6.6381    3.6101 C   0  0  0  0  0  0
   30.5308    6.6505    4.0173 C   0  0  0  0  0  0
   35.4080    5.1605    3.7747 O   0  0  0  0  0  0
   35.6061    7.6476    4.2524 O   0  0  0  0  0  0
   33.2093    3.8568   -7.0950 C   0  0  0  0  0  0
   32.0807    1.8525   -7.8742 N   0  0  0  0  0  0
   32.7684    7.0335    4.8389 C   0  0  0  0  0  0
   32.4374    6.2499    2.5759 C   0  0  0  0  0  0
   31.0595    6.2480    2.7838 C   0  0  0  0  0  0
   31.3966    7.0501    5.0358 C   0  0  0  0  0  0
   25.8411    5.3511    3.7251 C   0  0  0  0  0  0
   35.5411    6.0216    0.6854 C   0  0  0  0  0  0
   33.2835    5.0657   -6.1593 C   0  0  1  0  0  0
   25.8153    4.6500    2.3731 C   0  0  0  0  0  0
   25.7736    3.3212   -0.0505 C   0  0  0  0  0  0
   33.9143    3.9253   -4.0110 N   0  0  2  0  0  0
   25.7933    2.6577   -1.2144 F   0  0  0  0  0  0
   35.8880    4.4576   -1.6109 C   0  0  0  0  0  0
   32.1497    2.9388   -7.0596 C   0  0  0  0  0  0
   35.4087    6.5896   -0.5824 C   0  0  0  0  0  0
   35.8180    4.6526    0.7979 C   0  0  0  0  0  0
   24.9359    2.8939    0.9738 C   0  0  0  0  0  0
   26.5956    4.4280    0.0984 C   0  0  0  0  0  0
   24.9551    3.5645    2.1905 C   0  0  0  0  0  0
   26.6083    5.1017    1.3094 C   0  0  0  0  0  0
   35.5797    5.8104   -1.7221 C   0  0  0  0  0  0
   35.9928    3.8745   -0.3473 C   0  0  0  0  0  0
   32.0250    5.4501   -5.6224 O   0  0  0  0  0  0
   34.3442    4.8753   -5.0415 C   0  0  0  0  0  0
   34.2345    3.6354   -8.0246 C   0  0  0  0  0  0
   33.0918    1.6616   -8.7593 C   0  0  0  0  0  0
   34.9378    2.9961   -3.5300 C   0  0  0  0  0  0
   36.1725    3.6541   -2.8758 C   0  0  0  0  0  0
   34.1796    2.5280   -8.8702 C   0  0  0  0  0  0
   35.5065    7.8882    1.5479 H   0  0  0  0  0  0
   26.4977    7.5703    5.5843 H   0  0  0  0  0  0
   33.4275    7.3292    5.6406 H   0  0  0  0  0  0
   32.8371    5.9157    1.6288 H   0  0  0  0  0  0
   30.4176    5.8782    1.9975 H   0  0  0  0  0  0
   31.0120    7.3741    5.9861 H   0  0  0  0  0  0
   25.5419    4.6458    4.4943 H   0  0  0  0  0  0
   25.0413    6.0913    3.7047 H   0  0  0  0  0  0
   33.6014    5.9061   -6.7791 H   0  0  0  0  0  0
   33.0812    3.4419   -4.3196 H   0  0  0  0  0  0
   31.3317    3.0640   -6.3659 H   0  0  0  0  0  0
   35.2077    7.6454   -0.6946 H   0  0  0  0  0  0
   35.9510    4.1700    1.7493 H   0  0  0  0  0  0
   24.2840    2.0442    0.8240 H   0  0  0  0  0  0
   27.2151    4.7541   -0.7244 H   0  0  0  0  0  0
   24.3129    3.2299    2.9906 H   0  0  0  0  0  0
   27.2375    5.9748    1.4085 H   0  0  0  0  0  0
   35.5117    6.2501   -2.7016 H   0  0  0  0  0  0
   36.2454    2.8273   -0.2494 H   0  0  0  0  0  0
   31.8630    6.3750   -5.8452 H   0  0  0  0  0  0
   35.2820    4.5543   -5.4980 H   0  0  0  0  0  0
   34.5598    5.8356   -4.5742 H   0  0  0  0  0  0
   35.0684    4.3173   -8.0902 H   0  0  0  0  0  0
   33.0170    0.7883   -9.3880 H   0  0  0  0  0  0
   34.4408    2.3818   -2.7773 H   0  0  0  0  0  0
   35.2397    2.3090   -4.3223 H   0  0  0  0  0  0
   36.9076    2.8844   -2.6412 H   0  0  0  0  0  0
   36.6821    4.2994   -3.5935 H   0  0  0  0  0  0
   34.9621    2.3444   -9.5920 H   0  0  0  0  0  0
  1  6  1  0  0  0
  1  8  1  0  0  0
  1 10  2  0  0  0
  1 11  2  0  0  0
  2  9  1  0  0  0
  2  3  1  0  0  0
  2  4  1  0  0  0
  3  5  2  0  0  0
  4  7  2  0  0  0
  5 18  1  0  0  0
  5  7  1  0  0  0
  6 19  1  0  0  0
  6 42  1  0  0  0
  7 43  1  0  0  0
  8 14  2  0  0  0
  8 15  1  0  0  0
  9 16  1  0  0  0
  9 17  2  0  0  0
 12 20  1  0  0  0
 12 26  1  0  0  0
 12 37  2  0  0  0
 13 26  2  0  0  0
 13 38  1  0  0  0
 14 17  1  0  0  0
 14 44  1  0  0  0
 15 16  2  0  0  0
 15 45  1  0  0  0
 16 46  1  0  0  0
 17 47  1  0  0  0
 18 21  1  0  0  0
 18 48  1  0  0  0
 18 49  1  0  0  0
 19 27  1  0  0  0
 19 28  2  0  0  0
 20 36  1  0  0  0
 20 35  1  0  0  0
 20 50  1  0  0  0
 21 31  2  0  0  0
 21 32  1  0  0  0
 22 30  1  0  0  0
 22 24  1  0  0  0
 22 29  2  0  0  0
 23 39  1  0  0  0
 23 36  1  0  0  0
 23 51  1  0  0  0
 25 34  2  0  0  0
 25 40  1  0  0  0
 25 33  1  0  0  0
 26 52  1  0  0  0
 27 33  2  0  0  0
 27 53  1  0  0  0
 28 34  1  0  0  0
 28 54  1  0  0  0
 29 31  1  0  0  0
 29 55  1  0  0  0
 30 32  2  0  0  0
 30 56  1  0  0  0
 31 57  1  0  0  0
 32 58  1  0  0  0
 33 59  1  0  0  0
 34 60  1  0  0  0
 35 61  1  0  0  0
 36 62  1  0  0  0
 36 63  1  0  0  0
 37 41  1  0  0  0
 37 64  1  0  0  0
 38 41  2  0  0  0
 38 65  1  0  0  0
 39 40  1  0  0  0
 39 66  1  0  0  0
 39 67  1  0  0  0
 40 68  1  0  0  0
 40 69  1  0  0  0
 41 70  1  0  0  0
M  END
> <s_m_entry_id>
2982

> <s_m_entry_name>
dock_pv.74

> <s_m_Source_Path>
/home/csk/Desktop/cluster/DUD-E-result/adrb1

> <s_m_Source_File>
dock_pv.maegz

> <i_m_Source_File_Index>
74

> <chembl_id>
CHEMBL304298

> <chembl_pref_name>
None

> <i_lp_mmshare_version>
53161

> <i_f3d_flags>
0

> <r_lp_tautomer_probability>
1

> <s_lp_Force_Field>
OPLS_2005

> <r_lp_Energy>
31.824061

> <b_lp_Chiralities_Consistent>
1

> <s_lp_Variant>
CHEMBL213_lig164-1

> <s_i_glide_gridfile>
glide-grid_2vt4

> <i_i_glide_lignum>
199

> <i_i_glide_rotatable_bonds>
13

> <r_i_docking_score>
-8.15793822691826

> <r_i_glide_ligand_efficiency>
-0.198974103095567

> <r_i_glide_ligand_efficiency_sa>
-0.686105931834525

> <r_i_glide_ligand_efficiency_ln>
-1.73073374321446

> <r_i_glide_gscore>
-8.15793822691826

> <r_i_glide_lipo>
-3.70908775218084

> <r_i_glide_hbond>
-0.32

> <r_i_glide_metal>
0

> <r_i_glide_rewards>
-0.534221567830942

> <r_i_glide_evdw>
-60.4417953491211

> <r_i_glide_ecoul>
-6.69746112823486

> <r_i_glide_erotb>
0.607218779003489

> <r_i_glide_esite>
-0.175138749218676

> <r_i_glide_emodel>
-91.029262194083

> <r_i_glide_energy>
-67.139256477356

> <r_i_glide_einternal>
13.2716064453125

> <i_i_glide_confnum>
25

> <i_i_glide_posenum>
255

> <r_i_glide_eff_state_penalty>
0

> <s_user_duplicate_titles>
CHEMBL213_lig164

> <s_m_subgroup_title>
dock_pv

> <s_m_subgroupid>
dock_pv

> <b_m_subgroup_collapsed>
1

$$$$
CHEMBL213_lig375
                    3D
 Schrodinger Suite 2021-1.
 59 62  0  0  1  0            999 V2000
   34.0438    4.1626   -4.6213 C   0  0  0  0  0  0
   34.7687    4.2454   -6.1929 S   0  0  0  0  0  0
   32.8178    3.6883   -4.6443 N   0  0  0  0  0  0
   32.3543    3.4224   -5.8559 C   0  0  0  0  0  0
   33.2860    3.6574   -6.8681 C   0  0  0  0  0  0
   26.7182    4.9660    0.6646 C   0  0  0  0  0  0
   25.5543    4.1980    0.7186 C   0  0  0  0  0  0
   24.9586    3.8485    1.8874 N   0  0  0  0  0  0
   25.5358    4.2705    3.0425 C   0  0  0  0  0  0
   26.7078    5.0474    3.0892 C   0  0  0  0  0  0
   27.2954    5.3900    1.8644 C   0  0  0  0  0  0
   27.3111    5.4328    4.4472 C   0  0  2  0  0  0
   28.3663    6.5828    4.5044 C   0  0  0  0  0  0
   27.8067    4.2960    5.1250 O   0  0  0  0  0  0
   29.6752    6.2392    3.9471 N   0  0  1  0  0  0
   30.6791    7.2889    4.0480 C   0  0  0  0  0  0
   32.1088    6.6894    4.0046 C   0  0  0  0  0  0
   32.6663    6.2501    2.6474 C   0  0  0  0  0  0
   34.0543    6.2426    2.4731 C   0  0  0  0  0  0
   34.6142    5.8486    1.2599 C   0  0  0  0  0  0
   33.7890    5.4630    0.2031 C   0  0  0  0  0  0
   32.3977    5.4514    0.3767 C   0  0  0  0  0  0
   31.8407    5.8492    1.5898 C   0  0  0  0  0  0
   34.4097    5.0502   -0.9867 N   0  0  0  0  0  0
   33.9456    5.2068   -2.2443 C   0  0  0  0  0  0
   32.9312    5.8484   -2.5304 O   0  0  0  0  0  0
   34.7926    4.5570   -3.3518 C   0  0  0  0  0  0
   30.9473    2.9289   -6.0443 C   0  0  0  0  0  0
   30.0087    2.9810   -5.0015 C   0  0  0  0  0  0
   28.6930    2.5787   -5.2156 C   0  0  0  0  0  0
   28.3055    2.1287   -6.4744 C   0  0  0  0  0  0
   29.2251    2.0561   -7.5142 C   0  0  0  0  0  0
   30.5467    2.4341   -7.2923 C   0  0  0  0  0  0
   33.1833    3.5373   -7.9356 H   0  0  0  0  0  0
   27.1640    5.2214   -0.2862 H   0  0  0  0  0  0
   25.0777    3.8528   -0.1901 H   0  0  0  0  0  0
   25.0426    3.9634    3.9525 H   0  0  0  0  0  0
   28.2052    5.9615    1.8303 H   0  0  0  0  0  0
   26.4652    5.7884    5.0385 H   0  0  0  0  0  0
   28.4969    6.8761    5.5483 H   0  0  0  0  0  0
   27.9686    7.4489    3.9859 H   0  0  0  0  0  0
   28.5001    3.9092    4.5857 H   0  0  0  0  0  0
   30.0509    5.3702    4.3241 H   0  0  0  0  0  0
   30.5621    7.9025    4.9431 H   0  0  0  0  0  0
   30.5415    7.9542    3.1945 H   0  0  0  0  0  0
   32.2089    5.8575    4.7022 H   0  0  0  0  0  0
   32.7823    7.4491    4.3966 H   0  0  0  0  0  0
   34.7054    6.5436    3.2803 H   0  0  0  0  0  0
   35.6892    5.8514    1.1453 H   0  0  0  0  0  0
   31.7410    5.1354   -0.4198 H   0  0  0  0  0  0
   30.7682    5.8396    1.6909 H   0  0  0  0  0  0
   35.3328    4.6548   -0.8826 H   0  0  0  0  0  0
   35.2895    3.6748   -2.9501 H   0  0  0  0  0  0
   35.5901    5.2602   -3.5900 H   0  0  0  0  0  0
   30.2846    3.3539   -4.0246 H   0  0  0  0  0  0
   27.9677    2.6354   -4.4149 H   0  0  0  0  0  0
   27.2765    1.8524   -6.6440 H   0  0  0  0  0  0
   28.9084    1.7391   -8.4962 H   0  0  0  0  0  0
   31.2418    2.3801   -8.1165 H   0  0  0  0  0  0
  1  2  1  0  0  0
  1 27  1  0  0  0
  1  3  2  0  0  0
  2  5  1  0  0  0
  3  4  1  0  0  0
  4  5  2  0  0  0
  4 28  1  0  0  0
  5 34  1  0  0  0
  6 11  1  0  0  0
  6  7  2  0  0  0
  6 35  1  0  0  0
  7  8  1  0  0  0
  7 36  1  0  0  0
  8  9  2  0  0  0
  9 10  1  0  0  0
  9 37  1  0  0  0
 10 11  2  0  0  0
 10 12  1  0  0  0
 11 38  1  0  0  0
 12 13  1  0  0  0
 12 14  1  0  0  0
 12 39  1  0  0  0
 13 15  1  0  0  0
 13 40  1  0  0  0
 13 41  1  0  0  0
 14 42  1  0  0  0
 15 16  1  0  0  0
 15 43  1  0  0  0
 16 17  1  0  0  0
 16 44  1  0  0  0
 16 45  1  0  0  0
 17 18  1  0  0  0
 17 46  1  0  0  0
 17 47  1  0  0  0
 18 19  2  0  0  0
 18 23  1  0  0  0
 19 20  1  0  0  0
 19 48  1  0  0  0
 20 21  2  0  0  0
 20 49  1  0  0  0
 21 22  1  0  0  0
 21 24  1  0  0  0
 22 23  2  0  0  0
 22 50  1  0  0  0
 23 51  1  0  0  0
 24 25  1  0  0  0
 24 52  1  0  0  0
 25 26  2  0  0  0
 25 27  1  0  0  0
 27 53  1  0  0  0
 27 54  1  0  0  0
 28 29  2  0  0  0
 28 33  1  0  0  0
 29 30  1  0  0  0
 29 55  1  0  0  0
 30 31  2  0  0  0
 30 56  1  0  0  0
 31 32  1  0  0  0
 31 57  1  0  0  0
 32 33  2  0  0  0
 32 58  1  0  0  0
 33 59  1  0  0  0
M  END
> <s_m_entry_id>
2983

> <s_m_entry_name>
dock_pv.75

> <s_m_Source_Path>
/home/csk/Desktop/cluster/DUD-E-result/adrb1

> <s_m_Source_File>
dock_pv.maegz

> <i_m_Source_File_Index>
75

> <chembl_id>
CHEMBL1084137

> <chembl_pref_name>
None

> <i_lp_mmshare_version>
53161

> <i_f3d_flags>
0

> <r_lp_tautomer_probability>
1

> <s_lp_Force_Field>
OPLS_2005

> <r_lp_Energy>
31.252207

> <b_lp_Chiralities_Consistent>
1

> <s_lp_Variant>
CHEMBL213_lig375-1

> <s_i_glide_gridfile>
glide-grid_2vt4

> <i_i_glide_lignum>
441

> <i_i_glide_rotatable_bonds>
12

> <r_i_docking_score>
-8.15006968657926

> <r_i_glide_ligand_efficiency>
-0.24697180868422

> <r_i_glide_ligand_efficiency_sa>
-0.79217055397252

> <r_i_glide_ligand_efficiency_ln>
-1.81253329949282

> <r_i_glide_gscore>
-8.15006968657926

> <r_i_glide_lipo>
-3.60484032996125

> <r_i_glide_hbond>
-0.608

> <r_i_glide_metal>
0

> <r_i_glide_rewards>
-1.27669510269293

> <r_i_glide_evdw>
-48.4236373901367

> <r_i_glide_ecoul>
-7.97215986251831

> <r_i_glide_erotb>
0.956471594959502

> <r_i_glide_esite>
0

> <r_i_glide_emodel>
-74.9017103322581

> <r_i_glide_energy>
-56.395797252655

> <r_i_glide_einternal>
11.9991083145142

> <i_i_glide_confnum>
7

> <i_i_glide_posenum>
149

> <r_i_glide_eff_state_penalty>
0

> <s_user_duplicate_titles>
CHEMBL213_lig375

> <s_m_subgroup_title>
dock_pv

> <s_m_subgroupid>
dock_pv

> <b_m_subgroup_collapsed>
1

$$$$
CHEMBL213_lig1199
                    3D
 Schrodinger Suite 2021-1.
 44 46  0  0  1  0            999 V2000
   24.6080    5.1636    4.6822 C   0  0  0  0  0  0
   25.5837    5.9785    5.2324 C   0  0  0  0  0  0
   26.0170    4.7012    2.7382 C   0  0  0  0  0  0
   24.8079    4.5666    3.4425 C   0  0  0  0  0  0
   27.0683    5.3866    3.3958 C   0  0  0  0  0  0
   26.8293    6.0769    4.6082 C   0  0  0  0  0  0
   27.8482    6.8824    5.1695 N   0  0  0  0  0  0
   29.0985    7.0448    4.6944 C   0  0  0  0  0  0
   29.3967    6.1952    3.5578 C   0  0  0  0  0  0
   28.4667    5.4466    2.9169 C   0  0  0  0  0  0
   29.8672    7.8584    5.1850 O   0  0  0  0  0  0
   25.2743    6.6500    6.3850 O   0  0  0  0  0  0
   26.1346    4.1431    1.2893 C   0  0  2  0  0  0
   26.2080    5.2498    0.3278 N   0  0  1  0  0  0
   24.9345    3.2385    0.8614 C   0  0  0  0  0  0
   25.0839    2.6500   -0.4150 O   0  0  0  0  0  0
   27.4672    5.5246   -0.3541 C   0  0  0  0  0  0
   27.8413    4.4501   -1.3892 C   0  0  0  0  0  0
   29.0578    4.8333   -2.2304 C   0  0  0  0  0  0
   28.9808    5.7957   -3.2550 C   0  0  0  0  0  0
   30.1139    6.0969   -4.0150 C   0  0  0  0  0  0
   31.3232    5.4500   -3.7643 C   0  0  0  0  0  0
   31.4071    4.5024   -2.7460 C   0  0  0  0  0  0
   30.2793    4.1960   -1.9850 C   0  0  0  0  0  0
   27.5081    6.6318   -3.6144 Cl  0  0  0  0  0  0
   23.6528    5.0596    5.1783 H   0  0  0  0  0  0
   23.9666    4.0266    3.0385 H   0  0  0  0  0  0
   27.6556    7.4688    5.9675 H   0  0  0  0  0  0
   30.4231    6.1736    3.2218 H   0  0  0  0  0  0
   28.7866    4.8066    2.1101 H   0  0  0  0  0  0
   25.8791    7.3556    6.6472 H   0  0  0  0  0  0
   27.0080    3.5070    1.2363 H   0  0  0  0  0  0
   25.5018    5.0939   -0.3809 H   0  0  0  0  0  0
   24.8270    2.4139    1.5676 H   0  0  0  0  0  0
   23.9924    3.7899    0.8663 H   0  0  0  0  0  0
   24.4200    3.0290   -1.0186 H   0  0  0  0  0  0
   27.3467    6.4756   -0.8734 H   0  0  0  0  0  0
   28.2891    5.7235    0.3246 H   0  0  0  0  0  0
   28.0083    3.4953   -0.8879 H   0  0  0  0  0  0
   27.0079    4.2635   -2.0672 H   0  0  0  0  0  0
   30.0557    6.8324   -4.8056 H   0  0  0  0  0  0
   32.1919    5.6803   -4.3640 H   0  0  0  0  0  0
   32.3424    3.9971   -2.5532 H   0  0  0  0  0  0
   30.3518    3.4445   -1.2126 H   0  0  0  0  0  0
  1  2  2  0  0  0
  1  4  1  0  0  0
  1 26  1  0  0  0
  2  6  1  0  0  0
  2 12  1  0  0  0
  3  5  1  0  0  0
  3  4  2  0  0  0
  3 13  1  0  0  0
  4 27  1  0  0  0
  5  6  2  0  0  0
  5 10  1  0  0  0
  6  7  1  0  0  0
  7  8  1  0  0  0
  7 28  1  0  0  0
  8  9  1  0  0  0
  8 11  2  0  0  0
  9 10  2  0  0  0
  9 29  1  0  0  0
 10 30  1  0  0  0
 12 31  1  0  0  0
 13 14  1  0  0  0
 13 15  1  0  0  0
 13 32  1  0  0  0
 14 17  1  0  0  0
 14 33  1  0  0  0
 15 16  1  0  0  0
 15 34  1  0  0  0
 15 35  1  0  0  0
 16 36  1  0  0  0
 17 18  1  0  0  0
 17 37  1  0  0  0
 17 38  1  0  0  0
 18 19  1  0  0  0
 18 39  1  0  0  0
 18 40  1  0  0  0
 19 20  2  0  0  0
 19 24  1  0  0  0
 20 21  1  0  0  0
 20 25  1  0  0  0
 21 22  2  0  0  0
 21 41  1  0  0  0
 22 23  1  0  0  0
 22 42  1  0  0  0
 23 24  2  0  0  0
 23 43  1  0  0  0
 24 44  1  0  0  0
M  END
> <s_m_entry_id>
2984

> <s_m_entry_name>
dock_pv.76

> <s_m_Source_Path>
/home/csk/Desktop/cluster/DUD-E-result/adrb1

> <s_m_Source_File>
dock_pv.maegz

> <i_m_Source_File_Index>
76

> <chembl_id>
CHEMBL4278577

> <chembl_pref_name>
None

> <i_lp_mmshare_version>
53161

> <i_f3d_flags>
0

> <r_lp_tautomer_probability>
1

> <s_lp_Force_Field>
OPLS_2005

> <r_lp_Energy>
31.378982

> <b_lp_Chiralities_Consistent>
1

> <s_lp_Variant>
CHEMBL213_lig1199-1

> <s_i_glide_gridfile>
glide-grid_2vt4

> <i_i_glide_lignum>
1410

> <i_i_glide_rotatable_bonds>
8

> <r_i_docking_score>
-8.14559177422569

> <r_i_glide_ligand_efficiency>
-0.325823670969027

> <r_i_glide_ligand_efficiency_sa>
-0.952714192420846

> <r_i_glide_ligand_efficiency_ln>
-1.930749354179

> <r_i_glide_gscore>
-8.14559177422569

> <r_i_glide_lipo>
-3.09032538211426

> <r_i_glide_hbond>
-0.801101553864552

> <r_i_glide_metal>
0

> <r_i_glide_rewards>
-1.59456392333071

> <r_i_glide_evdw>
-37.6423263549805

> <r_i_glide_ecoul>
-10.1437730789185

> <r_i_glide_erotb>
0.74408136467063

> <r_i_glide_esite>
0

> <r_i_glide_emodel>
-66.2742967843722

> <r_i_glide_energy>
-47.7860994338989

> <r_i_glide_einternal>
9.44220638275146

> <i_i_glide_confnum>
199

> <i_i_glide_posenum>
361

> <r_i_glide_eff_state_penalty>
0

> <s_user_duplicate_titles>
CHEMBL213_lig1199

> <s_m_subgroup_title>
dock_pv

> <s_m_subgroupid>
dock_pv

> <b_m_subgroup_collapsed>
1

$$$$
CHEMBL213_lig1435
                    3D
 Schrodinger Suite 2021-1.
 60 63  0  0  1  0            999 V2000
   24.8192    4.4851    3.1264 C   0  0  0  0  0  0
   24.6086    5.0500    4.3849 C   0  0  0  0  0  0
   25.5831    5.8411    4.9817 C   0  0  0  0  0  0
   26.0319    4.6497    2.4382 C   0  0  0  0  0  0
   27.0618    5.3507    3.1035 C   0  0  0  0  0  0
   26.8254    5.9671    4.3537 C   0  0  0  0  0  0
   27.8754    6.6466    5.0009 N   0  0  0  0  0  0
   29.1643    6.6849    4.6180 C   0  0  0  0  0  0
   29.4279    6.0777    3.3126 C   0  0  0  0  0  0
   28.4502    5.4507    2.6108 C   0  0  0  0  0  0
   29.9908    7.1787    5.3772 O   0  0  0  0  0  0
   25.3007    6.4211    6.1965 O   0  0  0  0  0  0
   26.1931    4.0293    1.0233 C   0  0  2  0  0  0
   25.8712    4.9594   -0.1755 C   0  0  0  0  0  0
   26.8837    5.9796   -0.4687 N   0  0  1  0  0  0
   27.9372    5.6644   -1.4432 C   0  0  0  0  0  0
   25.4070    2.8612    0.8400 O   0  0  0  0  0  0
   27.6358    4.8158   -2.6865 C   0  0  0  0  0  0
   29.2686    5.1291   -0.9288 C   0  0  0  0  0  0
   29.9618    4.6730   -2.1946 C   0  0  0  0  0  0
   29.0131    4.4507   -3.1908 C   0  0  0  0  0  0
   29.3816    3.8034   -4.3650 C   0  0  0  0  0  0
   30.7118    3.4334   -4.5894 C   0  0  0  0  0  0
   31.6930    3.7179   -3.6122 C   0  0  0  0  0  0
   31.2922    4.3184   -2.4068 C   0  0  0  0  0  0
   33.1642    3.3397   -3.8438 C   0  0  0  0  0  0
   34.1870    3.8246   -2.7974 C   0  0  0  0  0  0
   31.0142    2.6762   -5.8831 C   0  0  0  0  0  0
   30.5382    1.2146   -5.8289 C   0  0  0  0  0  0
   30.8562    6.2025    2.7897 C   0  0  0  0  0  0
   24.0146    3.9207    2.6764 H   0  0  0  0  0  0
   23.6613    4.9025    4.8849 H   0  0  0  0  0  0
   27.7289    7.0734    5.9016 H   0  0  0  0  0  0
   28.7007    5.0500    1.6491 H   0  0  0  0  0  0
   25.8174    7.2053    6.4137 H   0  0  0  0  0  0
   27.2048    3.6794    0.8880 H   0  0  0  0  0  0
   25.6943    4.3697   -1.0705 H   0  0  0  0  0  0
   24.9155    5.4483   -0.0153 H   0  0  0  0  0  0
   26.4421    6.8509   -0.7275 H   0  0  0  0  0  0
   28.2066    6.6382   -1.8585 H   0  0  0  0  0  0
   25.1282    2.8205   -0.0796 H   0  0  0  0  0  0
   27.1415    3.8784   -2.4354 H   0  0  0  0  0  0
   27.0081    5.3398   -3.4064 H   0  0  0  0  0  0
   29.8115    5.8500   -0.3255 H   0  0  0  0  0  0
   29.1215    4.2516   -0.3041 H   0  0  0  0  0  0
   28.6211    3.5312   -5.0796 H   0  0  0  0  0  0
   32.0050    4.4998   -1.6186 H   0  0  0  0  0  0
   33.2285    2.2544   -3.9273 H   0  0  0  0  0  0
   33.4738    3.7536   -4.8036 H   0  0  0  0  0  0
   35.1953    3.5145   -3.0730 H   0  0  0  0  0  0
   34.1919    4.9126   -2.7234 H   0  0  0  0  0  0
   33.9870    3.4196   -1.8056 H   0  0  0  0  0  0
   30.5165    3.1903   -6.7072 H   0  0  0  0  0  0
   32.0713    2.7125   -6.1381 H   0  0  0  0  0  0
   30.7763    0.6831   -6.7501 H   0  0  0  0  0  0
   31.0064    0.6810   -5.0029 H   0  0  0  0  0  0
   29.4590    1.1549   -5.6852 H   0  0  0  0  0  0
   31.5799    5.8509    3.5262 H   0  0  0  0  0  0
   31.0924    7.2442    2.5670 H   0  0  0  0  0  0
   31.0076    5.6241    1.8783 H   0  0  0  0  0  0
  1  2  2  0  0  0
  1  4  1  0  0  0
  1 31  1  0  0  0
  2  3  1  0  0  0
  2 32  1  0  0  0
  3 12  1  0  0  0
  3  6  2  0  0  0
  4  5  2  0  0  0
  4 13  1  0  0  0
  5 10  1  0  0  0
  5  6  1  0  0  0
  6  7  1  0  0  0
  7  8  1  0  0  0
  7 33  1  0  0  0
  8  9  1  0  0  0
  8 11  2  0  0  0
  9 10  2  0  0  0
  9 30  1  0  0  0
 10 34  1  0  0  0
 12 35  1  0  0  0
 13 14  1  0  0  0
 13 17  1  0  0  0
 13 36  1  0  0  0
 14 15  1  0  0  0
 14 37  1  0  0  0
 14 38  1  0  0  0
 15 16  1  0  0  0
 15 39  1  0  0  0
 16 18  1  0  0  0
 16 19  1  0  0  0
 16 40  1  0  0  0
 17 41  1  0  0  0
 18 21  1  0  0  0
 18 42  1  0  0  0
 18 43  1  0  0  0
 19 20  1  0  0  0
 19 44  1  0  0  0
 19 45  1  0  0  0
 20 21  2  0  0  0
 20 25  1  0  0  0
 21 22  1  0  0  0
 22 23  2  0  0  0
 22 46  1  0  0  0
 23 24  1  0  0  0
 23 28  1  0  0  0
 24 25  2  0  0  0
 24 26  1  0  0  0
 25 47  1  0  0  0
 26 27  1  0  0  0
 26 48  1  0  0  0
 26 49  1  0  0  0
 27 50  1  0  0  0
 27 51  1  0  0  0
 27 52  1  0  0  0
 28 29  1  0  0  0
 28 53  1  0  0  0
 28 54  1  0  0  0
 29 55  1  0  0  0
 29 56  1  0  0  0
 29 57  1  0  0  0
 30 58  1  0  0  0
 30 59  1  0  0  0
 30 60  1  0  0  0
M  END
> <s_m_entry_id>
2985

> <s_m_entry_name>
dock_pv.77

> <s_m_Source_Path>
/home/csk/Desktop/cluster/DUD-E-result/adrb1

> <s_m_Source_File>
dock_pv.maegz

> <i_m_Source_File_Index>
77

> <chembl_id>
CHEMBL2088196

> <chembl_pref_name>
None

> <i_lp_mmshare_version>
53161

> <i_f3d_flags>
0

> <r_lp_tautomer_probability>
1

> <s_lp_Force_Field>
OPLS_2005

> <r_lp_Energy>
41.282698

> <b_lp_Chiralities_Consistent>
1

> <s_lp_Variant>
CHEMBL213_lig1435-1

> <s_i_glide_gridfile>
glide-grid_2vt4

> <i_i_glide_lignum>
1767

> <i_i_glide_rotatable_bonds>
8

> <r_i_docking_score>
-8.14530172180929

> <r_i_glide_ligand_efficiency>
-0.271510057393643

> <r_i_glide_ligand_efficiency_sa>
-0.843644875070458

> <r_i_glide_ligand_efficiency_ln>
-1.85070130136566

> <r_i_glide_gscore>
-8.14530172180929

> <r_i_glide_lipo>
-3.03685979208439

> <r_i_glide_hbond>
-0.574613391704081

> <r_i_glide_metal>
0

> <r_i_glide_rewards>
-2.13868741122817

> <r_i_glide_evdw>
-41.0109443664551

> <r_i_glide_ecoul>
-5.47023010253906

> <r_i_glide_erotb>
0.475940606910962

> <r_i_glide_esite>
0

> <r_i_glide_emodel>
-57.6296198882057

> <r_i_glide_energy>
-46.4811744689941

> <r_i_glide_einternal>
13.4170331954956

> <i_i_glide_confnum>
51

> <i_i_glide_posenum>
284

> <r_i_glide_eff_state_penalty>
0

> <s_user_duplicate_titles>
CHEMBL213_lig1435

> <s_m_subgroup_title>
dock_pv

> <s_m_subgroupid>
dock_pv

> <b_m_subgroup_collapsed>
1

$$$$
CHEMBL213_lig869
                    3D
 Schrodinger Suite 2021-1.
 59 62  0  0  1  0            999 V2000
   26.7610    5.9936    4.8733 C   0  0  0  0  0  0
   26.5928    5.1122    3.8097 C   0  0  0  0  0  0
   27.6225    4.9346    2.8907 C   0  0  0  0  0  0
   28.8227    5.6269    3.0356 C   0  0  0  0  0  0
   29.0079    6.5374    4.0839 C   0  0  0  0  0  0
   27.9603    6.6941    5.0126 C   0  0  0  0  0  0
   30.2571    7.4476    4.1185 C   0  0  2  0  0  0
   31.6593    6.7924    4.2486 C   0  0  0  0  0  0
   30.2083    8.3615    5.1850 O   0  0  0  0  0  0
   25.4652    6.2500    5.9850 Cl  0  0  0  0  0  0
   31.9454    5.8500    3.1850 N   0  0  1  0  0  0
   32.7731    6.2228    2.0650 C   0  0  1  0  0  0
   34.2722    5.8700    2.1251 C   0  0  0  0  0  0
   34.9964    6.3596    0.8491 C   0  0  0  0  0  0
   32.0932    5.6141    0.8380 C   0  0  0  0  0  0
   32.9503    5.5159   -0.4176 C   0  0  0  0  0  0
   34.3153    5.8591   -0.4286 C   0  0  0  0  0  0
   35.0125    5.7698   -1.6409 C   0  0  0  0  0  0
   34.3734    5.3723   -2.8184 C   0  0  0  0  0  0
   33.0250    5.0169   -2.8101 C   0  0  0  0  0  0
   32.3523    5.0500   -1.5852 C   0  0  0  0  0  0
   32.4267    4.6341   -4.0025 O   0  0  0  0  0  0
   31.0564    4.4760   -4.1295 C   0  0  0  0  0  0
   30.5697    3.3742   -4.8322 C   0  0  0  0  0  0
   29.1876    3.1429   -4.9429 C   0  0  0  0  0  0
   28.2996    4.0158   -4.3075 C   0  0  0  0  0  0
   28.7639    5.1454   -3.6217 C   0  0  0  0  0  0
   30.1410    5.3862   -3.5884 C   0  0  0  0  0  0
   27.8396    6.0671   -2.8692 C   0  0  0  0  0  0
   26.6080    6.2500   -3.4144 O   0  0  0  0  0  0
   28.2080    6.6500   -1.8534 O   0  0  0  0  0  0
   28.6253    2.1016   -5.6527 O   0  0  0  0  0  0
   29.4617    1.2890   -6.4641 C   0  0  0  0  0  0
   25.6623    4.5771    3.6877 H   0  0  0  0  0  0
   27.4856    4.2594    2.0584 H   0  0  0  0  0  0
   29.5869    5.4845    2.2882 H   0  0  0  0  0  0
   28.0437    7.4011    5.8253 H   0  0  0  0  0  0
   30.2349    8.0321    3.1979 H   0  0  0  0  0  0
   31.6988    6.2500    5.1930 H   0  0  0  0  0  0
   32.4583    7.5316    4.2885 H   0  0  0  0  0  0
   31.0449    8.8493    5.1850 H   0  0  0  0  0  0
   32.2081    4.9630    3.6066 H   0  0  0  0  0  0
   32.7093    7.2960    1.9986 H   0  0  0  0  0  0
   34.4129    4.7938    2.2150 H   0  0  0  0  0  0
   34.7268    6.3183    3.0089 H   0  0  0  0  0  0
   36.0404    6.0440    0.8676 H   0  0  0  0  0  0
   35.0080    7.4500    0.8330 H   0  0  0  0  0  0
   31.2432    6.2500    0.6170 H   0  0  0  0  0  0
   31.6618    4.6500    1.0707 H   0  0  0  0  0  0
   36.0585    6.0386   -1.6810 H   0  0  0  0  0  0
   34.9306    5.3420   -3.7442 H   0  0  0  0  0  0
   31.3266    4.7252   -1.5114 H   0  0  0  0  0  0
   31.2849    2.6992   -5.2746 H   0  0  0  0  0  0
   27.2419    3.7992   -4.3631 H   0  0  0  0  0  0
   30.5167    6.2635   -3.0835 H   0  0  0  0  0  0
   26.1375    5.4265   -3.6150 H   0  0  0  0  0  0
   28.8292    0.6500   -7.0765 H   0  0  0  0  0  0
   30.0736    1.8826   -7.1458 H   0  0  0  0  0  0
   30.1079    0.6523   -5.8580 H   0  0  0  0  0  0
  1 10  1  0  0  0
  1  6  1  0  0  0
  1  2  2  0  0  0
  2  3  1  0  0  0
  2 34  1  0  0  0
  3  4  2  0  0  0
  3 35  1  0  0  0
  4  5  1  0  0  0
  4 36  1  0  0  0
  5  6  2  0  0  0
  5  7  1  0  0  0
  6 37  1  0  0  0
  7  8  1  0  0  0
  7  9  1  0  0  0
  7 38  1  0  0  0
  8 11  1  0  0  0
  8 39  1  0  0  0
  8 40  1  0  0  0
  9 41  1  0  0  0
 11 12  1  0  0  0
 11 42  1  0  0  0
 12 13  1  0  0  0
 12 15  1  0  0  0
 12 43  1  0  0  0
 13 14  1  0  0  0
 13 44  1  0  0  0
 13 45  1  0  0  0
 14 17  1  0  0  0
 14 46  1  0  0  0
 14 47  1  0  0  0
 15 16  1  0  0  0
 15 48  1  0  0  0
 15 49  1  0  0  0
 16 17  2  0  0  0
 16 21  1  0  0  0
 17 18  1  0  0  0
 18 19  2  0  0  0
 18 50  1  0  0  0
 19 20  1  0  0  0
 19 51  1  0  0  0
 20 21  2  0  0  0
 20 22  1  0  0  0
 21 52  1  0  0  0
 22 23  1  0  0  0
 23 24  2  0  0  0
 23 28  1  0  0  0
 24 25  1  0  0  0
 24 53  1  0  0  0
 25 26  2  0  0  0
 25 32  1  0  0  0
 26 27  1  0  0  0
 26 54  1  0  0  0
 27 28  2  0  0  0
 27 29  1  0  0  0
 28 55  1  0  0  0
 29 30  1  0  0  0
 29 31  2  0  0  0
 30 56  1  0  0  0
 32 33  1  0  0  0
 33 57  1  0  0  0
 33 58  1  0  0  0
 33 59  1  0  0  0
M  END
> <s_m_entry_id>
2986

> <s_m_entry_name>
dock_pv.78

> <s_m_Source_Path>
/home/csk/Desktop/cluster/DUD-E-result/adrb1

> <s_m_Source_File>
dock_pv.maegz

> <i_m_Source_File_Index>
78

> <chembl_id>
CHEMBL456352

> <chembl_pref_name>
None

> <i_lp_mmshare_version>
53161

> <i_f3d_flags>
0

> <r_lp_tautomer_probability>
1

> <s_lp_Force_Field>
OPLS_2005

> <r_lp_Energy>
36.802832

> <b_lp_Chiralities_Consistent>
1

> <s_lp_Variant>
CHEMBL213_lig869-1

> <s_i_glide_gridfile>
glide-grid_2vt4

> <i_i_glide_lignum>
977

> <i_i_glide_rotatable_bonds>
10

> <r_i_docking_score>
-8.14154394515212

> <r_i_glide_ligand_efficiency>
-0.246713452883398

> <r_i_glide_ligand_efficiency_sa>
-0.791341868872995

> <r_i_glide_ligand_efficiency_ln>
-1.81063721874335

> <r_i_glide_gscore>
-8.14154394515212

> <r_i_glide_lipo>
-3.87127786163753

> <r_i_glide_hbond>
-0.468200299638394

> <r_i_glide_metal>
0

> <r_i_glide_rewards>
-0.82485029713133

> <r_i_glide_evdw>
-40.7659683227539

> <r_i_glide_ecoul>
-9.94694423675537

> <r_i_glide_erotb>
0.553124564906128

> <r_i_glide_esite>
0

> <r_i_glide_emodel>
-60.8899259973737

> <r_i_glide_energy>
-50.7129125595093

> <r_i_glide_einternal>
17.2235012054443

> <i_i_glide_confnum>
5

> <i_i_glide_posenum>
189

> <r_i_glide_eff_state_penalty>
0

> <s_user_duplicate_titles>
CHEMBL213_lig869,511866

> <s_m_subgroup_title>
dock_pv

> <s_m_subgroupid>
dock_pv

> <b_m_subgroup_collapsed>
1

$$$$
CHEMBL213_lig910
                    3D
 Schrodinger Suite 2021-1.
 57 60  0  0  1  0            999 V2000
   29.2301    5.6255    3.0259 C   0  0  0  0  0  0
   28.5978    6.2407    4.1052 C   0  0  0  0  0  0
   29.3245    7.0641    4.9612 C   0  0  0  0  0  0
   30.6842    7.2637    4.7392 C   0  0  0  0  0  0
   31.3425    6.6500    3.6609 C   0  0  0  0  0  0
   30.5861    5.8502    2.7850 C   0  0  0  0  0  0
   32.8513    6.9195    3.4589 C   0  0  2  0  0  0
   33.6682    5.9221    2.5844 C   0  0  0  0  0  0
   34.6016    6.6500    1.7133 N   0  0  1  0  0  0
   33.5563    7.0501    4.6816 O   0  0  0  0  0  0
   35.0080    5.9545    0.4931 C   0  0  1  0  0  0
   35.8599    4.6885    0.6809 C   0  0  0  0  0  0
   36.4620    4.2538   -0.6702 C   0  0  0  0  0  0
   33.8341    5.7009   -0.4880 C   0  0  0  0  0  0
   34.1722    4.8001   -1.6678 C   0  0  0  0  0  0
   35.3934    4.0985   -1.7497 C   0  0  0  0  0  0
   35.6058    3.2471   -2.8391 C   0  0  0  0  0  0
   34.6185    3.0498   -3.8019 C   0  0  0  0  0  0
   33.3772    3.6782   -3.6836 C   0  0  0  0  0  0
   33.1898    4.5742   -2.6332 C   0  0  0  0  0  0
   32.2503    3.3518   -4.5926 C   0  0  0  0  0  0
   32.4057    3.3857   -5.9795 C   0  0  0  0  0  0
   31.3490    3.0243   -6.8127 C   0  0  0  0  0  0
   30.1139    2.6359   -6.2733 C   0  0  0  0  0  0
   29.9587    2.6137   -4.8808 C   0  0  0  0  0  0
   31.0180    2.9696   -4.0542 C   0  0  0  0  0  0
   28.9845    2.2500   -7.1964 C   0  0  0  0  0  0
   27.8090    1.9225   -6.5945 O   0  0  0  0  0  0
   29.1139    2.2488   -8.4149 O   0  0  0  0  0  0
   27.1208    5.9945    4.3574 C   0  0  0  0  0  0
   28.6672    4.9911    2.3567 H   0  0  0  0  0  0
   28.8401    7.5468    5.7986 H   0  0  0  0  0  0
   31.2282    7.9005    5.4182 H   0  0  0  0  0  0
   31.0141    5.3758    1.9183 H   0  0  0  0  0  0
   32.8547    7.8984    2.9757 H   0  0  0  0  0  0
   32.9965    5.3309    1.9851 H   0  0  0  0  0  0
   34.2084    5.1994    3.2000 H   0  0  0  0  0  0
   34.1235    7.4999    1.4159 H   0  0  0  0  0  0
   33.3891    7.9471    4.9931 H   0  0  0  0  0  0
   35.6680    6.6640   -0.0086 H   0  0  0  0  0  0
   35.2770    3.8846    1.1292 H   0  0  0  0  0  0
   36.6739    4.8936    1.3761 H   0  0  0  0  0  0
   37.0080    3.3185   -0.5447 H   0  0  0  0  0  0
   37.1898    4.9936   -1.0061 H   0  0  0  0  0  0
   33.4567    6.6500   -0.8657 H   0  0  0  0  0  0
   32.9976    5.2027   -0.0042 H   0  0  0  0  0  0
   36.5433    2.7171   -2.9265 H   0  0  0  0  0  0
   34.8056    2.3606   -4.6115 H   0  0  0  0  0  0
   32.2347    5.0693   -2.5336 H   0  0  0  0  0  0
   33.3495    3.6842   -6.4137 H   0  0  0  0  0  0
   31.5023    3.0521   -7.8830 H   0  0  0  0  0  0
   29.0345    2.3166   -4.4075 H   0  0  0  0  0  0
   30.8793    2.9272   -2.9828 H   0  0  0  0  0  0
   27.7794    2.1114   -5.6551 H   0  0  0  0  0  0
   26.8623    4.9571    4.1377 H   0  0  0  0  0  0
   26.8572    6.1693    5.4024 H   0  0  0  0  0  0
   26.5112    6.6390    3.7231 H   0  0  0  0  0  0
  1  6  1  0  0  0
  1  2  2  0  0  0
  1 31  1  0  0  0
  2  3  1  0  0  0
  2 30  1  0  0  0
  3  4  2  0  0  0
  3 32  1  0  0  0
  4  5  1  0  0  0
  4 33  1  0  0  0
  5  7  1  0  0  0
  5  6  2  0  0  0
  6 34  1  0  0  0
  7  8  1  0  0  0
  7 10  1  0  0  0
  7 35  1  0  0  0
  8  9  1  0  0  0
  8 36  1  0  0  0
  8 37  1  0  0  0
  9 11  1  0  0  0
  9 38  1  0  0  0
 10 39  1  0  0  0
 11 12  1  0  0  0
 11 14  1  0  0  0
 11 40  1  0  0  0
 12 13  1  0  0  0
 12 41  1  0  0  0
 12 42  1  0  0  0
 13 16  1  0  0  0
 13 43  1  0  0  0
 13 44  1  0  0  0
 14 15  1  0  0  0
 14 45  1  0  0  0
 14 46  1  0  0  0
 15 16  2  0  0  0
 15 20  1  0  0  0
 16 17  1  0  0  0
 17 18  2  0  0  0
 17 47  1  0  0  0
 18 19  1  0  0  0
 18 48  1  0  0  0
 19 20  2  0  0  0
 19 21  1  0  0  0
 20 49  1  0  0  0
 21 22  2  0  0  0
 21 26  1  0  0  0
 22 23  1  0  0  0
 22 50  1  0  0  0
 23 24  2  0  0  0
 23 51  1  0  0  0
 24 25  1  0  0  0
 24 27  1  0  0  0
 25 26  2  0  0  0
 25 52  1  0  0  0
 26 53  1  0  0  0
 27 28  1  0  0  0
 27 29  2  0  0  0
 28 54  1  0  0  0
 30 55  1  0  0  0
 30 56  1  0  0  0
 30 57  1  0  0  0
M  END
> <s_m_entry_id>
2987

> <s_m_entry_name>
dock_pv.79

> <s_m_Source_Path>
/home/csk/Desktop/cluster/DUD-E-result/adrb1

> <s_m_Source_File>
dock_pv.maegz

> <i_m_Source_File_Index>
79

> <chembl_id>
CHEMBL456971

> <chembl_pref_name>
None

> <i_lp_mmshare_version>
53161

> <i_f3d_flags>
0

> <r_lp_tautomer_probability>
1

> <s_lp_Force_Field>
OPLS_2005

> <r_lp_Energy>
29.021205

> <b_lp_Chiralities_Consistent>
1

> <s_lp_Variant>
CHEMBL213_lig910-1

> <s_i_glide_gridfile>
glide-grid_2vt4

> <i_i_glide_lignum>
1018

> <i_i_glide_rotatable_bonds>
8

> <r_i_docking_score>
-8.13871372889024

> <r_i_glide_ligand_efficiency>
-0.271290457629675

> <r_i_glide_ligand_efficiency_sa>
-0.842962527546329

> <r_i_glide_ligand_efficiency_ln>
-1.84920443759252

> <r_i_glide_gscore>
-8.13871372889024

> <r_i_glide_lipo>
-3.12821165163503

> <r_i_glide_hbond>
-0.608

> <r_i_glide_metal>
0

> <r_i_glide_rewards>
-1.50347910630131

> <r_i_glide_evdw>
-44.2032318115234

> <r_i_glide_ecoul>
-9.45955657958984

> <r_i_glide_erotb>
0.730072106560748

> <r_i_glide_esite>
0

> <r_i_glide_emodel>
-71.2847275193348

> <r_i_glide_energy>
-53.6627883911133

> <r_i_glide_einternal>
15.7500276565552

> <i_i_glide_confnum>
23

> <i_i_glide_posenum>
112

> <r_i_glide_eff_state_penalty>
0

> <s_user_duplicate_titles>
CHEMBL213_lig910

> <s_m_subgroup_title>
dock_pv

> <s_m_subgroupid>
dock_pv

> <b_m_subgroup_collapsed>
1

$$$$
CHEMBL213_lig1011
                    3D
 Schrodinger Suite 2021-1.
 51 52  0  0  1  0            999 V2000
   31.0720    2.5492   -6.6472 C   0  0  0  0  0  0
   31.9405    3.6002   -6.3663 C   0  0  0  0  0  0
   31.5648    4.5954   -5.4659 C   0  0  0  0  0  0
   30.3252    4.5439   -4.8184 C   0  0  0  0  0  0
   31.4540    1.6244   -7.5859 O   0  0  0  0  0  0
   29.9328    5.7245   -3.9242 C   0  0  1  0  0  0
   28.4320    5.8953   -3.5321 C   0  0  0  0  0  0
   30.7916    5.8497   -2.8151 O   0  0  0  0  0  0
   27.8213    4.9335   -2.5900 N   0  0  1  0  0  0
   27.7414    5.2076   -1.1415 C   0  0  0  0  0  0
   26.7080    4.1695   -0.5928 C   0  0  0  0  0  0
   26.1683    4.2852    0.8412 C   0  0  0  0  0  0
   24.9857    3.5965    1.1312 C   0  0  0  0  0  0
   24.3965    3.6953    2.3877 C   0  0  0  0  0  0
   24.9942    4.4717    3.3798 C   0  0  0  0  0  0
   26.1883    5.1547    3.1276 C   0  0  0  0  0  0
   26.7680    5.0496    1.8581 C   0  0  0  0  0  0
   29.1408    4.9616   -0.5175 C   0  0  0  0  0  0
   27.2196    6.6589   -0.9448 C   0  0  0  0  0  0
   29.8336    2.4686   -5.9916 C   0  0  0  0  0  0
   29.4799    3.4519   -5.0606 C   0  0  0  0  0  0
   28.8338    1.3746   -6.3182 C   0  0  0  0  0  0
   27.8099    1.8497   -7.1659 O   0  0  0  0  0  0
   26.8241    6.0206    4.2169 C   0  0  0  0  0  0
   26.1963    7.1964    4.2492 F   0  0  0  0  0  0
   26.7117    5.4502    5.4169 F   0  0  0  0  0  0
   28.1206    6.2380    3.9901 F   0  0  0  0  0  0
   32.8939    3.6762   -6.8675 H   0  0  0  0  0  0
   32.2336    5.4277   -5.2915 H   0  0  0  0  0  0
   32.3078    1.8356   -7.9684 H   0  0  0  0  0  0
   30.1414    6.6026   -4.5388 H   0  0  0  0  0  0
   27.8605    5.7961   -4.4530 H   0  0  0  0  0  0
   28.2526    6.9272   -3.2335 H   0  0  0  0  0  0
   30.3845    5.3380   -2.1082 H   0  0  0  0  0  0
   26.8958    4.6547   -2.9158 H   0  0  0  0  0  0
   27.0975    3.1569   -0.7201 H   0  0  0  0  0  0
   25.8135    4.2215   -1.2149 H   0  0  0  0  0  0
   24.4980    3.0069    0.3646 H   0  0  0  0  0  0
   23.4710    3.1748    2.5870 H   0  0  0  0  0  0
   24.5143    4.5514    4.3439 H   0  0  0  0  0  0
   27.6720    5.6063    1.6764 H   0  0  0  0  0  0
   29.1027    4.6506    0.5216 H   0  0  0  0  0  0
   29.6656    4.1476   -1.0197 H   0  0  0  0  0  0
   29.7675    5.8483   -0.5358 H   0  0  0  0  0  0
   26.9290    6.8946    0.0750 H   0  0  0  0  0  0
   27.9618    7.4083   -1.2160 H   0  0  0  0  0  0
   26.3326    6.8406   -1.5558 H   0  0  0  0  0  0
   28.5181    3.3847   -4.5716 H   0  0  0  0  0  0
   29.3220    0.5236   -6.7962 H   0  0  0  0  0  0
   28.3872    0.9913   -5.3996 H   0  0  0  0  0  0
   27.1527    2.2842   -6.6131 H   0  0  0  0  0  0
  1  2  1  0  0  0
  1  5  1  0  0  0
  1 20  2  0  0  0
  2  3  2  0  0  0
  2 28  1  0  0  0
  3  4  1  0  0  0
  3 29  1  0  0  0
  4  6  1  0  0  0
  4 21  2  0  0  0
  5 30  1  0  0  0
  6  7  1  0  0  0
  6  8  1  0  0  0
  6 31  1  0  0  0
  7  9  1  0  0  0
  7 32  1  0  0  0
  7 33  1  0  0  0
  8 34  1  0  0  0
  9 10  1  0  0  0
  9 35  1  0  0  0
 10 18  1  0  0  0
 10 19  1  0  0  0
 10 11  1  0  0  0
 11 12  1  0  0  0
 11 36  1  0  0  0
 11 37  1  0  0  0
 12 13  2  0  0  0
 12 17  1  0  0  0
 13 14  1  0  0  0
 13 38  1  0  0  0
 14 15  2  0  0  0
 14 39  1  0  0  0
 15 16  1  0  0  0
 15 40  1  0  0  0
 16 17  2  0  0  0
 16 24  1  0  0  0
 17 41  1  0  0  0
 18 42  1  0  0  0
 18 43  1  0  0  0
 18 44  1  0  0  0
 19 45  1  0  0  0
 19 46  1  0  0  0
 19 47  1  0  0  0
 20 21  1  0  0  0
 20 22  1  0  0  0
 21 48  1  0  0  0
 22 23  1  0  0  0
 22 49  1  0  0  0
 22 50  1  0  0  0
 23 51  1  0  0  0
 24 25  1  0  0  0
 24 26  1  0  0  0
 24 27  1  0  0  0
M  END
> <s_m_entry_id>
2988

> <s_m_entry_name>
dock_pv.80

> <s_m_Source_Path>
/home/csk/Desktop/cluster/DUD-E-result/adrb1

> <s_m_Source_File>
dock_pv.maegz

> <i_m_Source_File_Index>
80

> <chembl_id>
CHEMBL566352

> <chembl_pref_name>
None

> <i_lp_mmshare_version>
53161

> <i_f3d_flags>
0

> <r_lp_tautomer_probability>
0.999999999997365

> <s_lp_Force_Field>
OPLS_2005

> <r_lp_Energy>
22.878893

> <b_lp_Chiralities_Consistent>
1

> <s_lp_Variant>
CHEMBL213_lig1011-2

> <s_i_glide_gridfile>
glide-grid_2vt4

> <i_i_glide_lignum>
1142

> <i_i_glide_rotatable_bonds>
11

> <r_i_docking_score>
-8.13656691025793

> <r_i_glide_ligand_efficiency>
-0.301354330009553

> <r_i_glide_ligand_efficiency_sa>
-0.904062989035444

> <r_i_glide_ligand_efficiency_ln>
-1.89405863491878

> <r_i_glide_gscore>
-8.13656691025793

> <r_i_glide_lipo>
-3.0856678183162

> <r_i_glide_hbond>
-0.192477497413567

> <r_i_glide_metal>
0

> <r_i_glide_rewards>
-2.60209519610892

> <r_i_glide_evdw>
-42.6353073120117

> <r_i_glide_ecoul>
-6.99926280975342

> <r_i_glide_erotb>
0.925328388644359

> <r_i_glide_esite>
0

> <r_i_glide_emodel>
-64.5542340039846

> <r_i_glide_energy>
-49.6345701217651

> <r_i_glide_einternal>
15.6779890060425

> <i_i_glide_confnum>
181

> <i_i_glide_posenum>
278

> <r_i_glide_eff_state_penalty>
0

> <s_user_duplicate_titles>
CHEMBL213_lig1011

> <s_m_subgroup_title>
dock_pv

> <s_m_subgroupid>
dock_pv

> <b_m_subgroup_collapsed>
1

$$$$
CHEMBL213_lig1220 
                    3D
 Schrodinger Suite 2021-1.
 45 47  0  0  1  0            999 V2000
   24.6080    5.0500    4.5185 C   0  0  0  0  0  0
   25.5832    5.8500    5.1046 C   0  0  0  0  0  0
   25.9986    4.6504    2.5689 C   0  0  0  0  0  0
   24.7953    4.4847    3.2629 C   0  0  0  0  0  0
   27.0413    5.3520    3.2157 C   0  0  0  0  0  0
   26.8185    5.9768    4.4654 C   0  0  0  0  0  0
   27.8781    6.6547    5.1040 N   0  0  0  0  0  0
   29.1694    6.6534    4.7260 C   0  0  0  0  0  0
   29.3937    6.0702    3.4163 C   0  0  0  0  0  0
   28.4266    5.4500    2.7005 C   0  0  0  0  0  0
   30.0393    7.0502    5.4908 O   0  0  0  0  0  0
   25.3108    6.4318    6.3207 O   0  0  0  0  0  0
   26.1351    4.0903    1.1402 C   0  0  2  0  0  0
   26.3201    5.2001    0.0749 C   0  0  0  0  0  0
   25.0579    3.2555    0.7391 O   0  0  0  0  0  0
   26.6952    4.6270   -1.2150 N   0  0  2  0  0  0
   27.5799    5.4828   -1.9992 C   0  0  0  0  0  0
   29.0515    5.2920   -1.5723 C   0  0  0  0  0  0
   29.9720    5.7721   -2.5550 O   0  0  0  0  0  0
   30.2579    5.0055   -3.6707 C   0  0  0  0  0  0
   31.2945    5.4561   -4.4865 C   0  0  0  0  0  0
   31.6767    4.7377   -5.6151 C   0  0  0  0  0  0
   31.0075    3.5607   -5.9412 C   0  0  0  0  0  0
   29.9607    3.1010   -5.1463 C   0  0  0  0  0  0
   29.5880    3.8224   -4.0150 C   0  0  0  0  0  0
   23.6611    4.9141    5.0225 H   0  0  0  0  0  0
   23.9752    3.9310    2.8277 H   0  0  0  0  0  0
   27.7409    7.0640    6.0144 H   0  0  0  0  0  0
   30.3999    6.1239    3.0268 H   0  0  0  0  0  0
   28.6868    5.0259    1.7419 H   0  0  0  0  0  0
   25.8296    7.2168    6.5341 H   0  0  0  0  0  0
   27.0080    3.4500    1.1453 H   0  0  0  0  0  0
   25.4092    5.7842   -0.0484 H   0  0  0  0  0  0
   27.0820    5.9055    0.4062 H   0  0  0  0  0  0
   25.0493    3.2360   -0.2230 H   0  0  0  0  0  0
   25.8776    4.4641   -1.8124 H   0  0  0  0  0  0
   27.4633    5.1973   -3.0445 H   0  0  0  0  0  0
   27.2778    6.5304   -1.9443 H   0  0  0  0  0  0
   29.2324    5.8502   -0.6542 H   0  0  0  0  0  0
   29.2718    4.2510   -1.3246 H   0  0  0  0  0  0
   31.8079    6.3712   -4.2408 H   0  0  0  0  0  0
   32.4833    5.0984   -6.2375 H   0  0  0  0  0  0
   31.2999    3.0049   -6.8201 H   0  0  0  0  0  0
   29.4383    2.1905   -5.4011 H   0  0  0  0  0  0
   28.7749    3.4500   -3.4135 H   0  0  0  0  0  0
  1  2  2  0  0  0
  1  4  1  0  0  0
  1 26  1  0  0  0
  2  6  1  0  0  0
  2 12  1  0  0  0
  3  5  1  0  0  0
  3  4  2  0  0  0
  3 13  1  0  0  0
  4 27  1  0  0  0
  5  6  2  0  0  0
  5 10  1  0  0  0
  6  7  1  0  0  0
  7  8  1  0  0  0
  7 28  1  0  0  0
  8  9  1  0  0  0
  8 11  2  0  0  0
  9 10  2  0  0  0
  9 29  1  0  0  0
 10 30  1  0  0  0
 12 31  1  0  0  0
 13 14  1  0  0  0
 13 15  1  0  0  0
 13 32  1  0  0  0
 14 16  1  0  0  0
 14 33  1  0  0  0
 14 34  1  0  0  0
 15 35  1  0  0  0
 16 17  1  0  0  0
 16 36  1  0  0  0
 17 18  1  0  0  0
 17 37  1  0  0  0
 17 38  1  0  0  0
 18 19  1  0  0  0
 18 39  1  0  0  0
 18 40  1  0  0  0
 19 20  1  0  0  0
 20 21  2  0  0  0
 20 25  1  0  0  0
 21 22  1  0  0  0
 21 41  1  0  0  0
 22 23  2  0  0  0
 22 42  1  0  0  0
 23 24  1  0  0  0
 23 43  1  0  0  0
 24 25  2  0  0  0
 24 44  1  0  0  0
 25 45  1  0  0  0
M  END
> <s_m_entry_id>
2989

> <s_m_entry_name>
dock_pv.81

> <s_m_Source_Path>
/home/csk/Desktop/cluster/DUD-E-result/adrb1

> <s_m_Source_File>
dock_pv.maegz

> <i_m_Source_File_Index>
81

> <chembl_id>
CHEMBL4542430

> <chembl_pref_name>
None

> <i_lp_mmshare_version>
53161

> <i_f3d_flags>
0

> <r_lp_tautomer_probability>
1

> <s_lp_Force_Field>
OPLS_2005

> <r_lp_Energy>
35.017548

> <b_lp_Chiralities_Consistent>
1

> <s_lp_Variant>
CHEMBL213_lig1220 -1

> <s_i_glide_gridfile>
glide-grid_2vt4

> <i_i_glide_lignum>
1451

> <i_i_glide_rotatable_bonds>
9

> <r_i_docking_score>
-8.13509991883077

> <r_i_glide_ligand_efficiency>
-0.325403996753231

> <r_i_glide_ligand_efficiency_sa>
-0.951487057570902

> <r_i_glide_ligand_efficiency_ln>
-1.92826247003487

> <r_i_glide_gscore>
-8.13509991883077

> <r_i_glide_lipo>
-2.655660596505

> <r_i_glide_hbond>
-0.754005520299816

> <r_i_glide_metal>
0

> <r_i_glide_rewards>
-2.38071889275119

> <r_i_glide_evdw>
-33.1380386352539

> <r_i_glide_ecoul>
-9.16207408905029

> <r_i_glide_erotb>
0.686498135845479

> <r_i_glide_esite>
0

> <r_i_glide_emodel>
-61.1567056987435

> <r_i_glide_energy>
-42.3001127243042

> <r_i_glide_einternal>
7.84633255004883

> <i_i_glide_confnum>
52

> <i_i_glide_posenum>
320

> <r_i_glide_eff_state_penalty>
0

> <s_user_duplicate_titles>
CHEMBL213_lig1220 

> <s_m_subgroup_title>
dock_pv

> <s_m_subgroupid>
dock_pv

> <b_m_subgroup_collapsed>
1

$$$$
CHEMBL213_lig756
                    3D
 Schrodinger Suite 2021-1.
 56 58  0  0  1  0            999 V2000
   26.8893    6.0295    4.8010 C   0  0  0  0  0  0
   26.6296    5.2367    3.6867 C   0  0  0  0  0  0
   27.6198    5.0425    2.7290 C   0  0  0  0  0  0
   28.8774    5.6182    2.8927 C   0  0  0  0  0  0
   29.1474    6.4540    3.9853 C   0  0  0  0  0  0
   28.1351    6.6474    4.9442 C   0  0  0  0  0  0
   30.4902    7.2059    4.0486 C   0  0  2  0  0  0
   31.7449    6.2956    3.9933 C   0  0  0  0  0  0
   30.6080    8.0374    5.1850 O   0  0  0  0  0  0
   25.6530    6.2500    5.9844 Cl  0  0  0  0  0  0
   32.9712    6.9875    3.5849 N   0  0  1  0  0  0
   34.1173    6.0737    3.6093 C   0  0  0  0  0  0
   35.1610    6.3777    2.5051 C   0  0  0  0  0  0
   34.8291    5.8500    1.1034 C   0  0  0  0  0  0
   33.5152    5.8500    0.6391 C   0  0  0  0  0  0
   33.2237    5.4738   -0.6579 C   0  0  0  0  0  0
   34.2222    4.9949   -1.5060 C   0  0  0  0  0  0
   35.5424    4.9767   -1.0481 C   0  0  0  0  0  0
   35.8461    5.4080    0.2475 C   0  0  0  0  0  0
   33.9319    4.5669   -2.8157 N   0  0  0  0  0  0
   32.6992    4.2633   -3.4256 C   0  0  0  0  0  0
   31.5817    3.8819   -2.6761 C   0  0  0  0  0  0
   30.3547    3.6799   -3.2825 C   0  0  0  0  0  0
   30.2478    3.7328   -4.6631 C   0  0  0  0  0  0
   31.3695    4.0593   -5.4389 C   0  0  0  0  0  0
   32.5904    4.3312   -4.8167 C   0  0  0  0  0  0
   29.0079    3.4216   -5.1788 O   0  0  0  0  0  0
   28.9135    2.6500   -6.3815 C   0  0  0  0  0  0
   29.5414    1.2607   -6.2428 C   0  0  0  0  0  0
   29.5642    0.8029   -4.9585 O   0  0  0  0  0  0
   29.9649    0.6500   -7.2150 O   0  0  0  0  0  0
   25.6617    4.7729    3.5627 H   0  0  0  0  0  0
   27.4125    4.4299    1.8634 H   0  0  0  0  0  0
   29.6265    5.4500    2.1325 H   0  0  0  0  0  0
   28.2970    7.2922    5.7963 H   0  0  0  0  0  0
   30.4869    7.8533    3.1727 H   0  0  0  0  0  0
   31.5743    5.4909    3.2752 H   0  0  0  0  0  0
   31.8994    5.8500    4.9762 H   0  0  0  0  0  0
   31.4601    8.4970    5.1094 H   0  0  0  0  0  0
   32.8812    7.4299    2.6756 H   0  0  0  0  0  0
   33.7766    5.0500    3.4467 H   0  0  0  0  0  0
   34.5822    6.0642    4.5963 H   0  0  0  0  0  0
   36.1040    5.9266    2.8151 H   0  0  0  0  0  0
   35.3532    7.4500    2.4454 H   0  0  0  0  0  0
   32.6982    6.2130    1.2368 H   0  0  0  0  0  0
   32.2079    5.6084   -0.9845 H   0  0  0  0  0  0
   36.3385    4.6287   -1.6910 H   0  0  0  0  0  0
   36.8747    5.3994    0.5771 H   0  0  0  0  0  0
   34.7343    4.5264   -3.4279 H   0  0  0  0  0  0
   31.6388    3.7258   -1.6150 H   0  0  0  0  0  0
   29.4879    3.4500   -2.6807 H   0  0  0  0  0  0
   31.3022    4.1180   -6.5141 H   0  0  0  0  0  0
   33.4449    4.6073   -5.4180 H   0  0  0  0  0  0
   29.3747    3.1743   -7.2150 H   0  0  0  0  0  0
   27.8585    2.5276   -6.6281 H   0  0  0  0  0  0
   29.1951    1.4499   -4.3466 H   0  0  0  0  0  0
  1  2  2  0  0  0
  1  6  1  0  0  0
  1 10  1  0  0  0
  2  3  1  0  0  0
  2 32  1  0  0  0
  3  4  2  0  0  0
  3 33  1  0  0  0
  4  5  1  0  0  0
  4 34  1  0  0  0
  5  6  2  0  0  0
  5  7  1  0  0  0
  6 35  1  0  0  0
  7  8  1  0  0  0
  7  9  1  0  0  0
  7 36  1  0  0  0
  8 11  1  0  0  0
  8 37  1  0  0  0
  8 38  1  0  0  0
  9 39  1  0  0  0
 11 12  1  0  0  0
 11 40  1  0  0  0
 12 13  1  0  0  0
 12 41  1  0  0  0
 12 42  1  0  0  0
 13 14  1  0  0  0
 13 43  1  0  0  0
 13 44  1  0  0  0
 14 15  2  0  0  0
 14 19  1  0  0  0
 15 16  1  0  0  0
 15 45  1  0  0  0
 16 17  2  0  0  0
 16 46  1  0  0  0
 17 18  1  0  0  0
 17 20  1  0  0  0
 18 19  2  0  0  0
 18 47  1  0  0  0
 19 48  1  0  0  0
 20 21  1  0  0  0
 20 49  1  0  0  0
 21 22  2  0  0  0
 21 26  1  0  0  0
 22 23  1  0  0  0
 22 50  1  0  0  0
 23 24  2  0  0  0
 23 51  1  0  0  0
 24 25  1  0  0  0
 24 27  1  0  0  0
 25 26  2  0  0  0
 25 52  1  0  0  0
 26 53  1  0  0  0
 27 28  1  0  0  0
 28 29  1  0  0  0
 28 54  1  0  0  0
 28 55  1  0  0  0
 29 30  1  0  0  0
 29 31  2  0  0  0
 30 56  1  0  0  0
M  END
> <s_m_entry_id>
2990

> <s_m_entry_name>
dock_pv.82

> <s_m_Source_Path>
/home/csk/Desktop/cluster/DUD-E-result/adrb1

> <s_m_Source_File>
dock_pv.maegz

> <i_m_Source_File_Index>
82

> <chembl_id>
CHEMBL536330

> <chembl_pref_name>
None

> <i_lp_mmshare_version>
53161

> <i_f3d_flags>
0

> <r_lp_tautomer_probability>
1

> <s_lp_Force_Field>
OPLS_2005

> <r_lp_Energy>
28.957369

> <b_lp_Chiralities_Consistent>
1

> <s_lp_Variant>
CHEMBL213_lig756-1

> <s_i_glide_gridfile>
glide-grid_2vt4

> <i_i_glide_lignum>
862

> <i_i_glide_rotatable_bonds>
13

> <r_i_docking_score>
-8.12084705811998

> <r_i_glide_ligand_efficiency>
-0.261962808326451

> <r_i_glide_ligand_efficiency_sa>
-0.822924896780857

> <r_i_glide_ligand_efficiency_ln>
-1.83149988567974

> <r_i_glide_gscore>
-8.12084705811998

> <r_i_glide_lipo>
-3.75776663826988

> <r_i_glide_hbond>
-0.635564424313156

> <r_i_glide_metal>
0

> <r_i_glide_rewards>
-0.751444855745931

> <r_i_glide_evdw>
-45.5118675231934

> <r_i_glide_ecoul>
-11.5181674957275

> <r_i_glide_erotb>
1.02724736072779

> <r_i_glide_esite>
0

> <r_i_glide_emodel>
-79.888652237673

> <r_i_glide_energy>
-57.0300350189209

> <r_i_glide_einternal>
10.2754030227661

> <i_i_glide_confnum>
28

> <i_i_glide_posenum>
356

> <r_i_glide_eff_state_penalty>
0

> <s_user_duplicate_titles>
CHEMBL213_lig756,550234

> <s_m_subgroup_title>
dock_pv

> <s_m_subgroupid>
dock_pv

> <b_m_subgroup_collapsed>
1

$$$$
CHEMBL213_lig127
                    3D
 Schrodinger Suite 2021-1.
 70 74  0  0  1  0            999 V2000
   35.2859    6.7662    3.0850 S   0  0  0  0  0  0
   28.5110    5.8343    3.7626 N   0  0  0  0  0  0
   29.3789    6.6510    4.3327 C   0  0  0  0  0  0
   27.3417    6.1806    4.2538 C   0  0  0  0  0  0
   35.5443    7.0499    1.3503 N   0  0  0  0  0  0
   28.7166    7.4502    5.2495 C   0  0  0  0  0  0
   27.4020    7.1552    5.1851 O   0  0  0  0  0  0
   33.5415    6.6849    3.4022 C   0  0  0  0  0  0
   35.8079    5.4502    3.4485 O   0  0  0  0  0  0
   35.7781    7.9753    3.7554 O   0  0  0  0  0  0
   30.8258    6.6500    3.9853 C   0  0  0  0  0  0
   32.2745    3.3571   -6.7548 C   0  0  0  0  0  0
   30.8403    1.4510   -7.2152 N   0  0  0  0  0  0
   32.6394    6.2500    2.4337 C   0  0  0  0  0  0
   33.1019    7.0467    4.6715 C   0  0  0  0  0  0
   31.7432    7.0499    4.9566 C   0  0  0  0  0  0
   31.2811    6.2339    2.7293 C   0  0  0  0  0  0
   25.9631    5.6446    3.9226 C   0  0  0  0  0  0
   35.4526    6.1044    0.3184 C   0  0  0  0  0  0
   33.4730    4.2217   -7.1693 C   0  0  1  0  0  0
   25.8309    4.8421    2.6325 C   0  0  0  0  0  0
   25.5210    3.3800    0.2981 C   0  0  0  0  0  0
   35.0576    3.0500   -5.5069 N   0  0  2  0  0  0
   25.4078    2.6497   -0.8217 F   0  0  0  0  0  0
   35.3615    4.3865   -1.8952 C   0  0  0  0  0  0
   31.8936    2.2504   -7.5262 C   0  0  0  0  0  0
   35.0085    6.5682   -0.9181 C   0  0  0  0  0  0
   35.8504    4.7704    0.4480 C   0  0  0  0  0  0
   26.4611    4.3996    0.3399 C   0  0  0  0  0  0
   24.7029    3.1065    1.3889 C   0  0  0  0  0  0
   26.6090    5.1388    1.5040 C   0  0  0  0  0  0
   24.8550    3.8467    2.5565 C   0  0  0  0  0  0
   35.8074    3.9189   -0.6557 C   0  0  0  0  0  0
   34.9543    5.7192   -2.0154 C   0  0  0  0  0  0
   33.4078    5.5540   -6.6881 O   0  0  0  0  0  0
   34.8623    3.5951   -6.8538 C   0  0  0  0  0  0
   31.5162    3.6378   -5.6064 C   0  0  0  0  0  0
   30.1292    1.7439   -6.0961 C   0  0  0  0  0  0
   35.0491    4.0631   -4.4614 C   0  0  0  0  0  0
   35.3454    3.4251   -3.0856 C   0  0  0  0  0  0
   30.4324    2.8241   -5.2672 C   0  0  0  0  0  0
   35.3855    8.0039    1.0715 H   0  0  0  0  0  0
   29.0067    8.2416    5.9249 H   0  0  0  0  0  0
   32.9757    5.9389    1.4565 H   0  0  0  0  0  0
   33.8057    7.3648    5.4259 H   0  0  0  0  0  0
   31.4127    7.3567    5.9369 H   0  0  0  0  0  0
   30.5870    5.8887    1.9787 H   0  0  0  0  0  0
   25.5965    5.0554    4.7632 H   0  0  0  0  0  0
   25.2702    6.4820    3.8391 H   0  0  0  0  0  0
   33.4085    4.3371   -8.2530 H   0  0  0  0  0  0
   35.9207    2.5258   -5.4636 H   0  0  0  0  0  0
   32.4360    1.9883   -8.4239 H   0  0  0  0  0  0
   34.7242    7.6003   -1.0466 H   0  0  0  0  0  0
   36.2257    4.3779    1.3778 H   0  0  0  0  0  0
   27.0644    4.6110   -0.5309 H   0  0  0  0  0  0
   23.9639    2.3217    1.3273 H   0  0  0  0  0  0
   27.3230    5.9480    1.5089 H   0  0  0  0  0  0
   24.2155    3.6438    3.4007 H   0  0  0  0  0  0
   36.1345    2.8941   -0.5462 H   0  0  0  0  0  0
   34.6157    6.1240   -2.9565 H   0  0  0  0  0  0
   34.2607    5.9921   -6.8140 H   0  0  0  0  0  0
   35.0022    2.7572   -7.5378 H   0  0  0  0  0  0
   35.6655    4.2933   -7.0982 H   0  0  0  0  0  0
   31.7645    4.4804   -4.9780 H   0  0  0  0  0  0
   29.2969    1.0950   -5.8680 H   0  0  0  0  0  0
   35.7824    4.8450   -4.6710 H   0  0  0  0  0  0
   34.0757    4.5536   -4.4189 H   0  0  0  0  0  0
   34.6074    2.6492   -2.8788 H   0  0  0  0  0  0
   36.3138    2.9236   -3.1260 H   0  0  0  0  0  0
   29.8422    3.0253   -4.3837 H   0  0  0  0  0  0
  1  5  1  0  0  0
  1  8  1  0  0  0
  1  9  2  0  0  0
  1 10  2  0  0  0
  2  3  1  0  0  0
  2  4  2  0  0  0
  3 11  1  0  0  0
  3  6  2  0  0  0
  4 18  1  0  0  0
  4  7  1  0  0  0
  5 19  1  0  0  0
  5 42  1  0  0  0
  6  7  1  0  0  0
  6 43  1  0  0  0
  8 14  1  0  0  0
  8 15  2  0  0  0
 11 16  2  0  0  0
 11 17  1  0  0  0
 12 20  1  0  0  0
 12 26  2  0  0  0
 12 37  1  0  0  0
 13 26  1  0  0  0
 13 38  2  0  0  0
 14 17  2  0  0  0
 14 44  1  0  0  0
 15 16  1  0  0  0
 15 45  1  0  0  0
 16 46  1  0  0  0
 17 47  1  0  0  0
 18 21  1  0  0  0
 18 48  1  0  0  0
 18 49  1  0  0  0
 19 27  2  0  0  0
 19 28  1  0  0  0
 20 36  1  0  0  0
 20 35  1  0  0  0
 20 50  1  0  0  0
 21 31  1  0  0  0
 21 32  2  0  0  0
 22 30  2  0  0  0
 22 24  1  0  0  0
 22 29  1  0  0  0
 23 39  1  0  0  0
 23 36  1  0  0  0
 23 51  1  0  0  0
 25 33  1  0  0  0
 25 40  1  0  0  0
 25 34  2  0  0  0
 26 52  1  0  0  0
 27 34  1  0  0  0
 27 53  1  0  0  0
 28 33  2  0  0  0
 28 54  1  0  0  0
 29 31  2  0  0  0
 29 55  1  0  0  0
 30 32  1  0  0  0
 30 56  1  0  0  0
 31 57  1  0  0  0
 32 58  1  0  0  0
 33 59  1  0  0  0
 34 60  1  0  0  0
 35 61  1  0  0  0
 36 62  1  0  0  0
 36 63  1  0  0  0
 37 41  2  0  0  0
 37 64  1  0  0  0
 38 41  1  0  0  0
 38 65  1  0  0  0
 39 40  1  0  0  0
 39 66  1  0  0  0
 39 67  1  0  0  0
 40 68  1  0  0  0
 40 69  1  0  0  0
 41 70  1  0  0  0
M  END
> <s_m_entry_id>
2991

> <s_m_entry_name>
dock_pv.83

> <s_m_Source_Path>
/home/csk/Desktop/cluster/DUD-E-result/adrb1

> <s_m_Source_File>
dock_pv.maegz

> <i_m_Source_File_Index>
83

> <chembl_id>
CHEMBL418234

> <chembl_pref_name>
None

> <i_lp_mmshare_version>
53161

> <i_f3d_flags>
0

> <r_lp_tautomer_probability>
1

> <s_lp_Force_Field>
OPLS_2005

> <r_lp_Energy>
28.810026

> <b_lp_Chiralities_Consistent>
1

> <s_lp_Variant>
CHEMBL213_lig127-1

> <s_i_glide_gridfile>
glide-grid_2vt4

> <i_i_glide_lignum>
150

> <i_i_glide_rotatable_bonds>
13

> <r_i_docking_score>
-8.10896209251552

> <r_i_glide_ligand_efficiency>
-0.197779563232086

> <r_i_glide_ligand_efficiency_sa>
-0.681986898888042

> <r_i_glide_ligand_efficiency_ln>
-1.72034329331581

> <r_i_glide_gscore>
-8.10896209251552

> <r_i_glide_lipo>
-4.12761764991686

> <r_i_glide_hbond>
-0.113462295045137

> <r_i_glide_metal>
0

> <r_i_glide_rewards>
-0.418198724380372

> <r_i_glide_evdw>
-60.8063583374023

> <r_i_glide_ecoul>
-5.46359062194824

> <r_i_glide_erotb>
0.607229455102967

> <r_i_glide_esite>
-0.197056368113766

> <r_i_glide_emodel>
-91.9203165209844

> <r_i_glide_energy>
-66.2699489593506

> <r_i_glide_einternal>
8.54694175720215

> <i_i_glide_confnum>
32

> <i_i_glide_posenum>
230

> <r_i_glide_eff_state_penalty>
0

> <s_user_duplicate_titles>
CHEMBL213_lig127

> <s_m_subgroup_title>
dock_pv

> <s_m_subgroupid>
dock_pv

> <b_m_subgroup_collapsed>
1

$$$$
CHEMBL213_lig1474
                    3D
 Schrodinger Suite 2021-1.
 61 63  0  0  1  0            999 V2000
   27.9110    4.9850    2.6473 C   0  0  0  0  0  0
   27.0816    5.1921    3.7445 C   0  0  0  0  0  0
   27.5512    5.9225    4.8451 C   0  0  0  0  0  0
   28.8286    6.4916    4.7850 C   0  0  0  0  0  0
   29.6935    6.2501    3.7031 C   0  0  0  0  0  0
   29.2231    5.4500    2.6518 C   0  0  0  0  0  0
   25.8229    4.6514    3.7157 O   0  0  0  0  0  0
   26.7425    6.0457    6.1331 C   0  0  0  0  0  0
   25.4779    6.6500    5.9767 O   0  0  0  0  0  0
   31.0991    6.8937    3.6501 C   0  0  2  0  0  0
   32.2507    5.9520    3.1712 C   0  0  0  0  0  0
   31.4828    7.4500    4.9002 O   0  0  0  0  0  0
   33.3051    6.6500    2.4190 N   0  0  1  0  0  0
   34.3634    5.7875    1.8889 C   0  0  0  0  0  0
   34.8271    6.1862    0.4606 C   0  0  0  0  0  0
   33.9316    5.7395   -0.7077 C   0  0  0  0  0  0
   34.4633    5.6227   -1.9949 C   0  0  0  0  0  0
   33.6556    5.2219   -3.0635 C   0  0  0  0  0  0
   32.2935    4.9256   -2.8777 C   0  0  0  0  0  0
   31.7809    5.0500   -1.5809 C   0  0  0  0  0  0
   32.5819    5.4500   -0.5203 C   0  0  0  0  0  0
   31.4390    4.5884   -3.9361 N   0  0  0  0  0  0
   30.2098    3.7898   -3.7543 C   0  0  0  0  0  0
   30.3451    2.3377   -4.2515 C   0  0  0  0  0  0
   30.7274    2.3806   -5.6694 N   0  0  0  0  0  0
   31.9474    3.1507   -5.9785 C   0  0  0  0  0  0
   31.8208    4.5667   -5.3613 C   0  0  0  0  0  0
   29.9593    1.8498   -6.6571 C   0  0  0  0  0  0
   30.2547    1.9342   -7.8486 O   0  0  0  0  0  0
   28.6917    1.0648   -6.3000 C   0  0  0  0  0  0
   27.5522    4.4233    1.7975 H   0  0  0  0  0  0
   29.1645    7.0947    5.6160 H   0  0  0  0  0  0
   29.8410    5.2528    1.7888 H   0  0  0  0  0  0
   25.6102    4.2500    2.8710 H   0  0  0  0  0  0
   26.6072    5.0499    6.5481 H   0  0  0  0  0  0
   27.2984    6.6033    6.8877 H   0  0  0  0  0  0
   25.6093    7.6016    6.0369 H   0  0  0  0  0  0
   30.9889    7.7145    2.9385 H   0  0  0  0  0  0
   31.8406    5.1661    2.5411 H   0  0  0  0  0  0
   32.6912    5.4500    4.0331 H   0  0  0  0  0  0
   31.9788    8.2761    4.7512 H   0  0  0  0  0  0
   32.9738    7.3123    1.7135 H   0  0  0  0  0  0
   34.0027    4.7661    1.8146 H   0  0  0  0  0  0
   35.2053    5.7378    2.5802 H   0  0  0  0  0  0
   35.8022    5.7218    0.3059 H   0  0  0  0  0  0
   35.0079    7.2603    0.3969 H   0  0  0  0  0  0
   35.5065    5.8417   -2.1750 H   0  0  0  0  0  0
   34.1195    5.1457   -4.0342 H   0  0  0  0  0  0
   30.7386    4.8903   -1.3604 H   0  0  0  0  0  0
   32.1165    5.5446    0.4434 H   0  0  0  0  0  0
   29.8696    3.7373   -2.7241 H   0  0  0  0  0  0
   29.4116    4.2983   -4.2986 H   0  0  0  0  0  0
   29.4080    1.8169   -4.0668 H   0  0  0  0  0  0
   31.1095    1.8198   -3.6709 H   0  0  0  0  0  0
   32.8125    2.6500   -5.5444 H   0  0  0  0  0  0
   32.1289    3.2439   -7.0506 H   0  0  0  0  0  0
   32.7309    5.1315   -5.5540 H   0  0  0  0  0  0
   31.0303    5.1097   -5.8828 H   0  0  0  0  0  0
   27.9648    1.7113   -5.8065 H   0  0  0  0  0  0
   28.9233    0.2258   -5.6435 H   0  0  0  0  0  0
   28.2190    0.6667   -7.1978 H   0  0  0  0  0  0
  1  2  2  0  0  0
  1  6  1  0  0  0
  1 31  1  0  0  0
  2  3  1  0  0  0
  2  7  1  0  0  0
  3  4  2  0  0  0
  3  8  1  0  0  0
  4  5  1  0  0  0
  4 32  1  0  0  0
  5  6  2  0  0  0
  5 10  1  0  0  0
  6 33  1  0  0  0
  7 34  1  0  0  0
  8  9  1  0  0  0
  8 35  1  0  0  0
  8 36  1  0  0  0
  9 37  1  0  0  0
 10 11  1  0  0  0
 10 12  1  0  0  0
 10 38  1  0  0  0
 11 13  1  0  0  0
 11 39  1  0  0  0
 11 40  1  0  0  0
 12 41  1  0  0  0
 13 14  1  0  0  0
 13 42  1  0  0  0
 14 15  1  0  0  0
 14 43  1  0  0  0
 14 44  1  0  0  0
 15 16  1  0  0  0
 15 45  1  0  0  0
 15 46  1  0  0  0
 16 17  2  0  0  0
 16 21  1  0  0  0
 17 18  1  0  0  0
 17 47  1  0  0  0
 18 19  2  0  0  0
 18 48  1  0  0  0
 19 20  1  0  0  0
 19 22  1  0  0  0
 20 21  2  0  0  0
 20 49  1  0  0  0
 21 50  1  0  0  0
 22 23  1  0  0  0
 22 27  1  0  0  0
 23 24  1  0  0  0
 23 51  1  0  0  0
 23 52  1  0  0  0
 24 25  1  0  0  0
 24 53  1  0  0  0
 24 54  1  0  0  0
 25 26  1  0  0  0
 25 28  1  0  0  0
 26 27  1  0  0  0
 26 55  1  0  0  0
 26 56  1  0  0  0
 27 57  1  0  0  0
 27 58  1  0  0  0
 28 29  2  0  0  0
 28 30  1  0  0  0
 30 59  1  0  0  0
 30 60  1  0  0  0
 30 61  1  0  0  0
M  END
> <s_m_entry_id>
2992

> <s_m_entry_name>
dock_pv.84

> <s_m_Source_Path>
/home/csk/Desktop/cluster/DUD-E-result/adrb1

> <s_m_Source_File>
dock_pv.maegz

> <i_m_Source_File_Index>
84

> <chembl_id>
CHEMBL3290980

> <chembl_pref_name>
None

> <i_lp_mmshare_version>
53161

> <i_f3d_flags>
0

> <r_lp_tautomer_probability>
0.999999999997365

> <s_lp_Force_Field>
OPLS_2005

> <r_lp_Energy>
53.186563

> <b_lp_Chiralities_Consistent>
1

> <s_lp_Variant>
CHEMBL213_lig1474-1

> <s_i_glide_gridfile>
glide-grid_2vt4

> <i_i_glide_lignum>
1816

> <i_i_glide_rotatable_bonds>
12

> <r_i_docking_score>
-8.10819959061153

> <r_i_glide_ligand_efficiency>
-0.270273319687051

> <r_i_glide_ligand_efficiency_sa>
-0.839802043471553

> <r_i_glide_ligand_efficiency_ln>
-1.84227129289743

> <r_i_glide_gscore>
-8.10819959061153

> <r_i_glide_lipo>
-2.67948597563336

> <r_i_glide_hbond>
-0.593228650822618

> <r_i_glide_metal>
0

> <r_i_glide_rewards>
-1.60214011693787

> <r_i_glide_evdw>
-40.8504409790039

> <r_i_glide_ecoul>
-14.0924291610718

> <r_i_glide_erotb>
0.923041575893271

> <r_i_glide_esite>
0

> <r_i_glide_emodel>
-70.7122928746582

> <r_i_glide_energy>
-54.9428701400757

> <r_i_glide_einternal>
19.4708213806152

> <i_i_glide_confnum>
70

> <i_i_glide_posenum>
17

> <r_i_glide_eff_state_penalty>
0

> <s_user_duplicate_titles>
CHEMBL213_lig1474

> <s_m_subgroup_title>
dock_pv

> <s_m_subgroupid>
dock_pv

> <b_m_subgroup_collapsed>
1

$$$$
CHEMBL213_lig123
                    3D
 Schrodinger Suite 2021-1.
 78 81  0  0  1  0            999 V2000
   35.3450    5.9128    2.8353 S   0  0  0  0  0  0
   33.3468    5.4245   -2.8551 C   0  0  0  0  0  0
   32.8480    4.9962   -4.9909 N   0  0  0  0  0  0
   32.0120    5.5946   -2.9998 O   0  0  0  0  0  0
   34.3410    7.1901    3.5243 N   0  0  0  0  0  0
   33.8290    5.0501   -4.1027 C   0  0  0  0  0  0
   31.7772    5.3265   -4.3032 C   0  0  0  0  0  0
   34.8312    5.7823    1.1277 C   0  0  0  0  0  0
   35.0068    4.6653    3.5298 O   0  0  0  0  0  0
   36.7191    6.4286    2.8483 O   0  0  0  0  0  0
   33.9056    5.6093   -1.4921 C   0  0  0  0  0  0
   25.8675    4.5732    2.5785 C   0  0  0  0  0  0
   23.7468    3.5088    2.0861 N   0  0  0  0  0  0
   33.5032    5.4671    0.8724 C   0  0  0  0  0  0
   35.7120    6.0073    0.0659 C   0  0  0  0  0  0
   35.2515    5.9029   -1.2504 C   0  0  0  0  0  0
   33.0275    5.4456   -0.4239 C   0  0  0  0  0  0
   33.0135    7.0129    3.9251 C   0  0  0  0  0  0
   26.8412    5.0575    3.6491 C   0  0  1  0  0  0
   29.4853    1.8586   -6.3889 C   0  0  0  0  0  0
   26.7917    6.2503    5.9056 N   0  0  1  0  0  0
   30.3685    7.1674    4.8450 C   0  0  0  0  0  0
   24.6171    4.0759    2.9535 C   0  0  0  0  0  0
   31.9613    7.2457    3.0438 C   0  0  0  0  0  0
   32.7254    6.7056    5.2483 C   0  0  0  0  0  0
   31.4077    6.8176    5.6990 C   0  0  0  0  0  0
   30.6544    7.3095    3.5002 C   0  0  0  0  0  0
   28.0981    5.4349    3.1095 O   0  0  0  0  0  0
   30.3348    5.3748   -4.7573 C   0  0  0  0  0  0
   29.6854    3.9766   -4.8166 C   0  0  0  0  0  0
   26.2669    6.2043    4.5321 C   0  0  0  0  0  0
   30.2886    3.1057   -5.9396 C   0  0  0  0  0  0
   26.2112    4.5087    1.2187 C   0  0  0  0  0  0
   24.1141    3.4503    0.7851 C   0  0  0  0  0  0
   29.2623    0.8820   -5.2138 C   0  0  0  0  0  0
   30.3135    1.1511   -7.4788 C   0  0  0  0  0  0
   28.1212    2.2582   -7.0041 C   0  0  0  0  0  0
   28.2461    6.2501    6.0023 C   0  0  0  0  0  0
   28.9558    7.4607    5.3562 C   0  0  0  0  0  0
   25.3281    3.9357    0.3076 C   0  0  0  0  0  0
   34.6989    8.1290    3.4862 H   0  0  0  0  0  0
   34.8550    4.8235   -4.3612 H   0  0  0  0  0  0
   32.8209    5.2444    1.6771 H   0  0  0  0  0  0
   36.7502    6.2418    0.2531 H   0  0  0  0  0  0
   35.9388    6.0426   -2.0737 H   0  0  0  0  0  0
   31.9854    5.2100   -0.5895 H   0  0  0  0  0  0
   27.0067    4.1850    4.2842 H   0  0  0  0  0  0
   26.4788    7.1118    6.3511 H   0  0  0  0  0  0
   24.3009    4.0878    3.9855 H   0  0  0  0  0  0
   32.1327    7.4498    2.0053 H   0  0  0  0  0  0
   33.5184    6.4921    5.9512 H   0  0  0  0  0  0
   31.1952    6.6498    6.7456 H   0  0  0  0  0  0
   29.8679    7.5287    2.8025 H   0  0  0  0  0  0
   28.6515    4.6519    3.0387 H   0  0  0  0  0  0
   30.2624    5.8579   -5.7350 H   0  0  0  0  0  0
   29.7539    6.0127   -4.0882 H   0  0  0  0  0  0
   28.6129    4.0955   -4.9515 H   0  0  0  0  0  0
   29.7947    3.4705   -3.8537 H   0  0  0  0  0  0
   25.1918    6.0771    4.6505 H   0  0  0  0  0  0
   26.3657    7.1665    4.0269 H   0  0  0  0  0  0
   31.2848    2.7877   -5.6261 H   0  0  0  0  0  0
   30.4603    3.7347   -6.8144 H   0  0  0  0  0  0
   27.1625    4.8765    0.8617 H   0  0  0  0  0  0
   23.4082    3.0047    0.0988 H   0  0  0  0  0  0
   28.7351   -0.0179   -5.5312 H   0  0  0  0  0  0
   28.6725    1.3348   -4.4160 H   0  0  0  0  0  0
   30.2081    0.5660   -4.7725 H   0  0  0  0  0  0
   30.4764    1.8043   -8.3385 H   0  0  0  0  0  0
   31.2946    0.8537   -7.1085 H   0  0  0  0  0  0
   29.8087    0.2526   -7.8263 H   0  0  0  0  0  0
   28.2342    3.0158   -7.7797 H   0  0  0  0  0  0
   27.6257    1.4058   -7.4674 H   0  0  0  0  0  0
   27.4331    2.6497   -6.2568 H   0  0  0  0  0  0
   28.6021    5.3131    5.5845 H   0  0  0  0  0  0
   28.4935    6.2496    7.0635 H   0  0  0  0  0  0
   29.0003    8.2938    6.0557 H   0  0  0  0  0  0
   28.3765    7.8472    4.5200 H   0  0  0  0  0  0
   25.5762    3.8711   -0.7439 H   0  0  0  0  0  0
  1  5  1  0  0  0
  1  8  1  0  0  0
  1  9  2  0  0  0
  1 10  2  0  0  0
  2 11  1  0  0  0
  2  4  1  0  0  0
  2  6  2  0  0  0
  3  6  1  0  0  0
  3  7  2  0  0  0
  4  7  1  0  0  0
  5 18  1  0  0  0
  5 41  1  0  0  0
  6 42  1  0  0  0
  7 29  1  0  0  0
  8 14  1  0  0  0
  8 15  2  0  0  0
 11 16  2  0  0  0
 11 17  1  0  0  0
 12 19  1  0  0  0
 12 23  2  0  0  0
 12 33  1  0  0  0
 13 23  1  0  0  0
 13 34  2  0  0  0
 14 17  2  0  0  0
 14 43  1  0  0  0
 15 16  1  0  0  0
 15 44  1  0  0  0
 16 45  1  0  0  0
 17 46  1  0  0  0
 18 24  1  0  0  0
 18 25  2  0  0  0
 19 31  1  0  0  0
 19 28  1  0  0  0
 19 47  1  0  0  0
 20 32  1  0  0  0
 20 35  1  0  0  0
 20 36  1  0  0  0
 20 37  1  0  0  0
 21 38  1  0  0  0
 21 31  1  0  0  0
 21 48  1  0  0  0
 22 26  2  0  0  0
 22 39  1  0  0  0
 22 27  1  0  0  0
 23 49  1  0  0  0
 24 27  2  0  0  0
 24 50  1  0  0  0
 25 26  1  0  0  0
 25 51  1  0  0  0
 26 52  1  0  0  0
 27 53  1  0  0  0
 28 54  1  0  0  0
 29 30  1  0  0  0
 29 55  1  0  0  0
 29 56  1  0  0  0
 30 32  1  0  0  0
 30 57  1  0  0  0
 30 58  1  0  0  0
 31 59  1  0  0  0
 31 60  1  0  0  0
 32 61  1  0  0  0
 32 62  1  0  0  0
 33 40  2  0  0  0
 33 63  1  0  0  0
 34 40  1  0  0  0
 34 64  1  0  0  0
 35 65  1  0  0  0
 35 66  1  0  0  0
 35 67  1  0  0  0
 36 68  1  0  0  0
 36 69  1  0  0  0
 36 70  1  0  0  0
 37 71  1  0  0  0
 37 72  1  0  0  0
 37 73  1  0  0  0
 38 39  1  0  0  0
 38 74  1  0  0  0
 38 75  1  0  0  0
 39 76  1  0  0  0
 39 77  1  0  0  0
 40 78  1  0  0  0
M  END
> <s_m_entry_id>
2993

> <s_m_entry_name>
dock_pv.85

> <s_m_Source_Path>
/home/csk/Desktop/cluster/DUD-E-result/adrb1

> <s_m_Source_File>
dock_pv.maegz

> <i_m_Source_File_Index>
85

> <chembl_id>
CHEMBL39804

> <chembl_pref_name>
None

> <i_lp_mmshare_version>
53161

> <i_f3d_flags>
0

> <r_lp_tautomer_probability>
1

> <s_lp_Force_Field>
OPLS_2005

> <r_lp_Energy>
22.939102

> <b_lp_Chiralities_Consistent>
1

> <s_lp_Variant>
CHEMBL213_lig123-1

> <s_i_glide_gridfile>
glide-grid_2vt4

> <i_i_glide_lignum>
146

> <i_i_glide_rotatable_bonds>
15

> <r_i_docking_score>
-8.09161271470259

> <r_i_glide_ligand_efficiency>
-0.202290317867565

> <r_i_glide_ligand_efficiency_sa>
-0.691823154747554

> <r_i_glide_ligand_efficiency_ln>
-1.72570286651391

> <r_i_glide_gscore>
-8.09161271470259

> <r_i_glide_lipo>
-4.85798602487952

> <r_i_glide_hbond>
-0.586929688377152

> <r_i_glide_metal>
0

> <r_i_glide_rewards>
-0.0466898225456704

> <r_i_glide_evdw>
-47.6152420043945

> <r_i_glide_ecoul>
-5.66624975204468

> <r_i_glide_erotb>
0.705936743185024

> <r_i_glide_esite>
-0.0752443590588478

> <r_i_glide_emodel>
-61.5157037362306

> <r_i_glide_energy>
-53.2814917564392

> <r_i_glide_einternal>
16.4309577941895

> <i_i_glide_confnum>
20

> <i_i_glide_posenum>
24

> <r_i_glide_eff_state_penalty>
0

> <s_user_duplicate_titles>
CHEMBL213_lig123

> <s_m_subgroup_title>
dock_pv

> <s_m_subgroupid>
dock_pv

> <b_m_subgroup_collapsed>
1

$$$$
CHEMBL213_lig693
                    3D
 Schrodinger Suite 2021-1.
 52 54  0  0  1  0            999 V2000
   31.8848    2.8637   -7.1046 C   0  0  0  0  0  0
   30.7728    2.3122   -7.7414 C   0  0  0  0  0  0
   29.6406    1.9710   -7.0049 C   0  0  0  0  0  0
   29.6547    2.0938   -5.6195 C   0  0  0  0  0  0
   30.7740    2.6221   -4.9645 C   0  0  0  0  0  0
   31.8748    3.0484   -5.7227 C   0  0  0  0  0  0
   28.2080    1.4501   -7.8072 Cl  0  0  0  0  0  0
   30.7473    2.7573   -3.4409 C   0  0  2  0  0  0
   30.0762    4.0642   -2.9649 C   0  0  0  0  0  0
   32.0325    2.6796   -2.8517 O   0  0  0  0  0  0
   28.6913    4.1698   -3.4387 N   0  0  2  0  0  0
   27.9484    5.3825   -3.0883 C   0  0  1  0  0  0
   27.5860    5.4413   -1.5802 C   0  0  0  0  0  0
   28.6939    6.6196   -3.6053 C   0  0  0  0  0  0
   26.6098    4.4189   -1.2138 N   0  0  0  0  0  0
   26.1437    4.2407    0.0981 C   0  0  0  0  0  0
   26.6082    4.9691    1.2033 C   0  0  0  0  0  0
   26.0489    4.7681    2.4744 C   0  0  0  0  0  0
   25.0078    3.8458    2.6220 C   0  0  0  0  0  0
   24.5792    3.0850    1.5425 C   0  0  0  0  0  0
   25.1436    3.2856    0.2890 C   0  0  0  0  0  0
   26.4914    5.5253    3.6804 C   0  0  0  0  0  0
   25.4975    5.8554    4.5541 O   0  0  0  0  0  0
   26.0530    6.5346    5.5805 C   0  0  0  0  0  0
   27.4134    6.6491    5.3752 C   0  0  0  0  0  0
   27.7149    6.0082    4.1659 C   0  0  0  0  0  0
   29.0227    5.8535    3.5848 C   0  0  0  0  0  0
   29.9585    6.6497    4.1786 O   0  0  0  0  0  0
   29.2805    5.0779    2.6701 O   0  0  0  0  0  0
   32.7451    3.1702   -7.6825 H   0  0  0  0  0  0
   30.7706    2.2251   -8.8171 H   0  0  0  0  0  0
   28.7771    1.8197   -5.0484 H   0  0  0  0  0  0
   32.7352    3.4844   -5.2358 H   0  0  0  0  0  0
   30.2121    1.8953   -3.0473 H   0  0  0  0  0  0
   30.0933    4.1098   -1.8752 H   0  0  0  0  0  0
   30.6842    4.8796   -3.3525 H   0  0  0  0  0  0
   31.9605    2.9070   -1.9224 H   0  0  0  0  0  0
   28.1917    3.3656   -3.0625 H   0  0  0  0  0  0
   27.0088    5.3353   -3.6439 H   0  0  0  0  0  0
   28.4701    5.3612   -0.9489 H   0  0  0  0  0  0
   27.1508    6.4127   -1.3419 H   0  0  0  0  0  0
   28.1648    7.5429   -3.3710 H   0  0  0  0  0  0
   29.6846    6.6583   -3.1670 H   0  0  0  0  0  0
   28.8279    6.5739   -4.6873 H   0  0  0  0  0  0
   25.8999    4.2499   -1.9345 H   0  0  0  0  0  0
   27.3829    5.7083    1.0729 H   0  0  0  0  0  0
   24.5511    3.6895    3.5858 H   0  0  0  0  0  0
   23.8080    2.3435    1.6736 H   0  0  0  0  0  0
   24.7790    2.7057   -0.5465 H   0  0  0  0  0  0
   25.3851    6.8780    6.3581 H   0  0  0  0  0  0
   28.1112    7.1473    6.0339 H   0  0  0  0  0  0
   30.8191    6.4680    3.7913 H   0  0  0  0  0  0
  1  6  1  0  0  0
  1  2  2  0  0  0
  1 30  1  0  0  0
  2  3  1  0  0  0
  2 31  1  0  0  0
  3  7  1  0  0  0
  3  4  2  0  0  0
  4  5  1  0  0  0
  4 32  1  0  0  0
  5  8  1  0  0  0
  5  6  2  0  0  0
  6 33  1  0  0  0
  8  9  1  0  0  0
  8 10  1  0  0  0
  8 34  1  0  0  0
  9 11  1  0  0  0
  9 35  1  0  0  0
  9 36  1  0  0  0
 10 37  1  0  0  0
 11 12  1  0  0  0
 11 38  1  0  0  0
 12 13  1  0  0  0
 12 14  1  0  0  0
 12 39  1  0  0  0
 13 15  1  0  0  0
 13 40  1  0  0  0
 13 41  1  0  0  0
 14 42  1  0  0  0
 14 43  1  0  0  0
 14 44  1  0  0  0
 15 16  1  0  0  0
 15 45  1  0  0  0
 16 17  2  0  0  0
 16 21  1  0  0  0
 17 18  1  0  0  0
 17 46  1  0  0  0
 18 19  2  0  0  0
 18 22  1  0  0  0
 19 20  1  0  0  0
 19 47  1  0  0  0
 20 21  2  0  0  0
 20 48  1  0  0  0
 21 49  1  0  0  0
 22 23  1  0  0  0
 22 26  2  0  0  0
 23 24  1  0  0  0
 24 25  2  0  0  0
 24 50  1  0  0  0
 25 26  1  0  0  0
 25 51  1  0  0  0
 26 27  1  0  0  0
 27 28  1  0  0  0
 27 29  2  0  0  0
 28 52  1  0  0  0
M  END
> <s_m_entry_id>
2994

> <s_m_entry_name>
dock_pv.86

> <s_m_Source_Path>
/home/csk/Desktop/cluster/DUD-E-result/adrb1

> <s_m_Source_File>
dock_pv.maegz

> <i_m_Source_File_Index>
86

> <chembl_id>
CHEMBL245673

> <chembl_pref_name>
None

> <i_lp_mmshare_version>
53161

> <i_f3d_flags>
0

> <r_lp_tautomer_probability>
1

> <s_lp_Force_Field>
OPLS_2005

> <r_lp_Energy>
27.233592

> <b_lp_Chiralities_Consistent>
1

> <s_lp_Variant>
CHEMBL213_lig693-1

> <s_i_glide_gridfile>
glide-grid_2vt4

> <i_i_glide_lignum>
795

> <i_i_glide_rotatable_bonds>
11

> <r_i_docking_score>
-8.08858634735464

> <r_i_glide_ligand_efficiency>
-0.278916770598436

> <r_i_glide_ligand_efficiency_sa>
-0.856920686313699

> <r_i_glide_ligand_efficiency_ln>
-1.85208116469172

> <r_i_glide_gscore>
-8.08858634735464

> <r_i_glide_lipo>
-3.42116046654307

> <r_i_glide_hbond>
-0.451514573381743

> <r_i_glide_metal>
0

> <r_i_glide_rewards>
-1.58328989558039

> <r_i_glide_evdw>
-46.9969863891602

> <r_i_glide_ecoul>
-7.51276350021362

> <r_i_glide_erotb>
0.917538503993194

> <r_i_glide_esite>
-0.0733960713525744

> <r_i_glide_emodel>
-77.9091609523037

> <r_i_glide_energy>
-54.5097498893738

> <r_i_glide_einternal>
5.97364854812622

> <i_i_glide_confnum>
90

> <i_i_glide_posenum>
296

> <r_i_glide_eff_state_penalty>
0

> <s_user_duplicate_titles>
CHEMBL213_lig693

> <s_m_subgroup_title>
dock_pv

> <s_m_subgroupid>
dock_pv

> <b_m_subgroup_collapsed>
1

$$$$
CHEMBL213_lig980
                    3D
 Schrodinger Suite 2021-1.
 60 62  0  0  1  0            999 V2000
   30.9353    2.0129   -8.1777 C   0  0  0  0  0  0
   31.3554    2.6078   -6.8520 C   0  0  0  0  0  0
   32.4668    3.4498   -6.7863 C   0  0  0  0  0  0
   32.8678    3.9749   -5.5611 C   0  0  0  0  0  0
   32.1534    3.6603   -4.4038 C   0  0  0  0  0  0
   32.6035    4.2186   -3.1921 N   0  0  0  0  0  0
   31.9195    4.7689   -2.1414 C   0  0  0  0  0  0
   30.2607    5.0500   -2.1679 S   0  0  0  0  0  0
   32.7776    5.0501   -1.1079 N   0  0  0  0  0  0
   32.6206    5.4570    0.2417 C   0  0  0  0  0  0
   33.7837    5.8500    0.9173 C   0  0  0  0  0  0
   33.7309    6.2430    2.2578 C   0  0  0  0  0  0
   32.5113    6.2544    2.9428 C   0  0  0  0  0  0
   32.4616    6.7046    4.4086 C   0  0  0  0  0  0
   31.2043    7.5051    4.8185 C   0  0  0  0  0  0
   30.0592    6.6500    5.0956 N   0  0  1  0  0  0
   28.8016    7.3792    4.9562 C   0  0  0  0  0  0
   27.5410    6.4820    5.0352 C   0  0  2  0  0  0
   27.2116    6.2500    6.3850 O   0  0  0  0  0  0
   27.6267    5.1409    4.2728 C   0  0  0  0  0  0
   27.4806    5.3848    2.8728 O   0  0  0  0  0  0
   26.4785    4.7502    2.1662 C   0  0  0  0  0  0
   25.2958    4.2500    2.7399 C   0  0  0  0  0  0
   24.3680    3.5733    1.9549 C   0  0  0  0  0  0
   24.6085    3.4156    0.5950 C   0  0  0  0  0  0
   25.7511    3.9500    0.0038 C   0  0  0  0  0  0
   26.6777    4.6267    0.7908 C   0  0  0  0  0  0
   31.3556    5.8500    2.2724 C   0  0  0  0  0  0
   31.4082    5.4500    0.9465 C   0  0  0  0  0  0
   31.0591    2.7850   -4.4691 C   0  0  0  0  0  0
   30.6516    2.2727   -5.6950 C   0  0  0  0  0  0
   30.2185    2.6500   -8.6928 H   0  0  0  0  0  0
   31.7960    1.8497   -8.8282 H   0  0  0  0  0  0
   30.4682    1.0439   -8.0149 H   0  0  0  0  0  0
   33.0182    3.7030   -7.6804 H   0  0  0  0  0  0
   33.7231    4.6357   -5.5219 H   0  0  0  0  0  0
   33.6074    4.3130   -3.1506 H   0  0  0  0  0  0
   33.7525    4.9354   -1.3419 H   0  0  0  0  0  0
   34.7362    5.8584    0.4075 H   0  0  0  0  0  0
   34.6389    6.5499    2.7546 H   0  0  0  0  0  0
   33.3187    7.3561    4.5835 H   0  0  0  0  0  0
   32.6081    5.8498    5.0674 H   0  0  0  0  0  0
   30.9690    8.1673    3.9831 H   0  0  0  0  0  0
   31.4079    8.1595    5.6643 H   0  0  0  0  0  0
   30.0971    5.8357    4.4878 H   0  0  0  0  0  0
   28.8083    7.8563    3.9850 H   0  0  0  0  0  0
   28.7419    8.1864    5.6886 H   0  0  0  0  0  0
   26.6999    7.0456    4.6278 H   0  0  0  0  0  0
   27.0082    7.1119    6.7849 H   0  0  0  0  0  0
   26.9228    4.4213    4.6846 H   0  0  0  0  0  0
   28.5859    4.6496    4.4330 H   0  0  0  0  0  0
   25.0674    4.3790    3.7854 H   0  0  0  0  0  0
   23.4630    3.1787    2.3932 H   0  0  0  0  0  0
   23.8846    2.8949   -0.0148 H   0  0  0  0  0  0
   25.9132    3.8435   -1.0600 H   0  0  0  0  0  0
   27.5697    5.0306    0.3344 H   0  0  0  0  0  0
   30.3946    5.8190    2.7551 H   0  0  0  0  0  0
   30.4830    5.1087    0.5197 H   0  0  0  0  0  0
   30.5164    2.4983   -3.5795 H   0  0  0  0  0  0
   29.7993    1.6101   -5.7371 H   0  0  0  0  0  0
  1  2  1  0  0  0
  1 32  1  0  0  0
  1 33  1  0  0  0
  1 34  1  0  0  0
  2  3  2  0  0  0
  2 31  1  0  0  0
  3  4  1  0  0  0
  3 35  1  0  0  0
  4  5  2  0  0  0
  4 36  1  0  0  0
  5  6  1  0  0  0
  5 30  1  0  0  0
  6  7  1  0  0  0
  6 37  1  0  0  0
  7  8  2  0  0  0
  7  9  1  0  0  0
  9 10  1  0  0  0
  9 38  1  0  0  0
 10 11  2  0  0  0
 10 29  1  0  0  0
 11 12  1  0  0  0
 11 39  1  0  0  0
 12 13  2  0  0  0
 12 40  1  0  0  0
 13 14  1  0  0  0
 13 28  1  0  0  0
 14 15  1  0  0  0
 14 41  1  0  0  0
 14 42  1  0  0  0
 15 16  1  0  0  0
 15 43  1  0  0  0
 15 44  1  0  0  0
 16 17  1  0  0  0
 16 45  1  0  0  0
 17 18  1  0  0  0
 17 46  1  0  0  0
 17 47  1  0  0  0
 18 19  1  0  0  0
 18 20  1  0  0  0
 18 48  1  0  0  0
 19 49  1  0  0  0
 20 21  1  0  0  0
 20 50  1  0  0  0
 20 51  1  0  0  0
 21 22  1  0  0  0
 22 23  2  0  0  0
 22 27  1  0  0  0
 23 24  1  0  0  0
 23 52  1  0  0  0
 24 25  2  0  0  0
 24 53  1  0  0  0
 25 26  1  0  0  0
 25 54  1  0  0  0
 26 27  2  0  0  0
 26 55  1  0  0  0
 27 56  1  0  0  0
 28 29  2  0  0  0
 28 57  1  0  0  0
 29 58  1  0  0  0
 30 31  2  0  0  0
 30 59  1  0  0  0
 31 60  1  0  0  0
M  END
> <s_m_entry_id>
2995

> <s_m_entry_name>
dock_pv.87

> <s_m_Source_Path>
/home/csk/Desktop/cluster/DUD-E-result/adrb1

> <s_m_Source_File>
dock_pv.maegz

> <i_m_Source_File_Index>
87

> <chembl_id>
CHEMBL1204000

> <chembl_pref_name>
None

> <i_lp_mmshare_version>
53161

> <i_f3d_flags>
0

> <r_lp_tautomer_probability>
1

> <s_lp_Force_Field>
OPLS_2005

> <r_lp_Energy>
44.285175

> <b_lp_Chiralities_Consistent>
1

> <s_lp_Variant>
CHEMBL213_lig980-1

> <s_i_glide_gridfile>
glide-grid_2vt4

> <i_i_glide_lignum>
1092

> <i_i_glide_rotatable_bonds>
13

> <r_i_docking_score>
-8.08394523192579

> <r_i_glide_ligand_efficiency>
-0.260772426836316

> <r_i_glide_ligand_efficiency_sa>
-0.819185455403061

> <r_i_glide_ligand_efficiency_ln>
-1.82317739296779

> <r_i_glide_gscore>
-8.08394523192579

> <r_i_glide_lipo>
-3.7906784866167

> <r_i_glide_hbond>
-0.592504877811138

> <r_i_glide_metal>
0

> <r_i_glide_rewards>
-0.993283861988466

> <r_i_glide_evdw>
-43.659782409668

> <r_i_glide_ecoul>
-11.1980056762695

> <r_i_glide_erotb>
1.15521196641434

> <r_i_glide_esite>
0

> <r_i_glide_emodel>
-74.1298871604341

> <r_i_glide_energy>
-54.8577880859375

> <r_i_glide_einternal>
11.726282119751

> <i_i_glide_confnum>
12

> <i_i_glide_posenum>
365

> <r_i_glide_eff_state_penalty>
0

> <s_user_duplicate_titles>
CHEMBL213_lig980,677951

> <s_m_subgroup_title>
dock_pv

> <s_m_subgroupid>
dock_pv

> <b_m_subgroup_collapsed>
1

$$$$
CHEMBL213_lig429
                    3D
 Schrodinger Suite 2021-1.
 64 67  0  0  1  0            999 V2000
   33.1253    4.4510   -2.2670 C   0  0  0  0  0  0
   33.2504    5.8420   -1.9830 O   0  0  0  0  0  0
   34.4302    6.2043   -1.2666 C   0  0  0  0  0  0
   34.3082    5.8661    0.2410 C   0  0  0  0  0  0
   35.3980    6.4309    1.1682 C   0  0  0  0  0  0
   37.4099    7.4503    2.8643 C   0  0  0  0  0  0
   37.5702    7.4723    1.4856 C   0  0  0  0  0  0
   36.5819    6.9690    0.6513 C   0  0  0  0  0  0
   31.2683    4.7042   -4.4077 S   0  0  0  0  0  0
   31.6971    4.1392   -2.7338 C   0  0  0  0  0  0
   24.0390    4.0222    2.7791 C   0  0  0  0  0  0
   24.5779    4.6500    3.9017 C   0  0  0  0  0  0
   26.1039    4.4120    1.5463 C   0  0  0  0  0  0
   24.7927    3.9086    1.6105 C   0  0  0  0  0  0
   26.6508    4.9877    2.7085 C   0  0  0  0  0  0
   25.8854    5.1335    3.8628 C   0  0  0  0  0  0
   26.5583    5.7805    4.8877 N   0  0  0  0  0  0
   27.8805    6.1031    4.6825 C   0  0  0  0  0  0
   28.2973    5.5375    2.9949 S   0  0  0  0  0  0
   28.6532    6.6509    5.4651 O   0  0  0  0  0  0
   23.8079    4.8090    5.0314 O   0  0  0  0  0  0
   26.9094    4.2653    0.2483 C   0  0  2  0  0  0
   26.7582    5.4307   -0.7595 C   0  0  0  0  0  0
   26.6081    3.0500   -0.4149 O   0  0  0  0  0  0
   27.8413    5.3374   -1.7435 N   0  0  2  0  0  0
   27.6740    6.2035   -2.9003 C   0  0  0  0  0  0
   28.9635    6.1842   -3.7532 C   0  0  0  0  0  0
   29.4593    4.8110   -4.2631 C   0  0  0  0  0  0
   36.2374    6.9137    3.4430 C   0  0  0  0  0  0
   35.2080    6.3931    2.5930 C   0  0  0  0  0  0
   34.0415    5.8608    3.2169 C   0  0  0  0  0  0
   33.9078    5.8511    4.6024 C   0  0  0  0  0  0
   34.9158    6.3531    5.4143 C   0  0  0  0  0  0
   36.0727    6.8812    4.8517 C   0  0  0  0  0  0
   33.3293    3.8526   -1.3802 H   0  0  0  0  0  0
   33.8522    4.1528   -3.0244 H   0  0  0  0  0  0
   35.3087    5.7387   -1.7181 H   0  0  0  0  0  0
   34.5503    7.2817   -1.3875 H   0  0  0  0  0  0
   33.3415    6.2499    0.5669 H   0  0  0  0  0  0
   34.2855    4.7863    0.3834 H   0  0  0  0  0  0
   38.1905    7.8382    3.5021 H   0  0  0  0  0  0
   38.4740    7.8780    1.0548 H   0  0  0  0  0  0
   36.7598    7.0012   -0.4132 H   0  0  0  0  0  0
   30.9844    4.5552   -2.0204 H   0  0  0  0  0  0
   31.5483    3.0597   -2.7147 H   0  0  0  0  0  0
   23.0281    3.6411    2.7943 H   0  0  0  0  0  0
   24.3462    3.4415    0.7423 H   0  0  0  0  0  0
   26.1070    6.0191    5.7584 H   0  0  0  0  0  0
   22.8934    4.5438    4.9044 H   0  0  0  0  0  0
   27.9566    4.2516    0.5372 H   0  0  0  0  0  0
   25.7722    5.3952   -1.2250 H   0  0  0  0  0  0
   26.8423    6.3871   -0.2401 H   0  0  0  0  0  0
   27.3248    2.8111   -1.0138 H   0  0  0  0  0  0
   27.8736    4.3883   -2.0912 H   0  0  0  0  0  0
   26.8272    5.8511   -3.4923 H   0  0  0  0  0  0
   27.4627    7.2243   -2.5810 H   0  0  0  0  0  0
   28.8196    6.8407   -4.6100 H   0  0  0  0  0  0
   29.7677    6.6499   -3.1913 H   0  0  0  0  0  0
   29.1617    4.0179   -3.5783 H   0  0  0  0  0  0
   29.0081    4.5459   -5.2149 H   0  0  0  0  0  0
   33.2374    5.4592    2.6201 H   0  0  0  0  0  0
   33.0102    5.4500    5.0508 H   0  0  0  0  0  0
   34.7953    6.3318    6.4877 H   0  0  0  0  0  0
   36.8533    7.2706    5.4885 H   0  0  0  0  0  0
  1 10  1  0  0  0
  1  2  1  0  0  0
  1 35  1  0  0  0
  1 36  1  0  0  0
  2  3  1  0  0  0
  3  4  1  0  0  0
  3 37  1  0  0  0
  3 38  1  0  0  0
  4  5  1  0  0  0
  4 39  1  0  0  0
  4 40  1  0  0  0
  5  8  1  0  0  0
  5 30  2  0  0  0
  6 29  2  0  0  0
  6  7  1  0  0  0
  6 41  1  0  0  0
  7  8  2  0  0  0
  7 42  1  0  0  0
  8 43  1  0  0  0
  9 10  1  0  0  0
  9 28  1  0  0  0
 10 44  1  0  0  0
 10 45  1  0  0  0
 11 12  2  0  0  0
 11 14  1  0  0  0
 11 46  1  0  0  0
 12 21  1  0  0  0
 12 16  1  0  0  0
 13 22  1  0  0  0
 13 15  1  0  0  0
 13 14  2  0  0  0
 14 47  1  0  0  0
 15 19  1  0  0  0
 15 16  2  0  0  0
 16 17  1  0  0  0
 17 18  1  0  0  0
 17 48  1  0  0  0
 18 19  1  0  0  0
 18 20  2  0  0  0
 21 49  1  0  0  0
 22 23  1  0  0  0
 22 24  1  0  0  0
 22 50  1  0  0  0
 23 25  1  0  0  0
 23 51  1  0  0  0
 23 52  1  0  0  0
 24 53  1  0  0  0
 25 26  1  0  0  0
 25 54  1  0  0  0
 26 27  1  0  0  0
 26 55  1  0  0  0
 26 56  1  0  0  0
 27 28  1  0  0  0
 27 57  1  0  0  0
 27 58  1  0  0  0
 28 59  1  0  0  0
 28 60  1  0  0  0
 29 30  1  0  0  0
 29 34  1  0  0  0
 30 31  1  0  0  0
 31 32  2  0  0  0
 31 61  1  0  0  0
 32 33  1  0  0  0
 32 62  1  0  0  0
 33 34  2  0  0  0
 33 63  1  0  0  0
 34 64  1  0  0  0
M  END
> <s_m_entry_id>
2996

> <s_m_entry_name>
dock_pv.88

> <s_m_Source_Path>
/home/csk/Desktop/cluster/DUD-E-result/adrb1

> <s_m_Source_File>
dock_pv.maegz

> <i_m_Source_File_Index>
88

> <chembl_id>
CHEMBL1807820

> <chembl_pref_name>
None

> <i_lp_mmshare_version>
53161

> <i_f3d_flags>
0

> <r_lp_tautomer_probability>
1

> <s_lp_Force_Field>
OPLS_2005

> <r_lp_Energy>
30.891941

> <b_lp_Chiralities_Consistent>
1

> <s_lp_Variant>
CHEMBL213_lig429-1

> <s_i_glide_gridfile>
glide-grid_2vt4

> <i_i_glide_lignum>
503

> <i_i_glide_rotatable_bonds>
15

> <r_i_docking_score>
-8.07466391717935

> <r_i_glide_ligand_efficiency>
-0.237490115211157

> <r_i_glide_ligand_efficiency_sa>
-0.769375779020449

> <r_i_glide_ligand_efficiency_ln>
-1.78391974595618

> <r_i_glide_gscore>
-8.07466391717935

> <r_i_glide_lipo>
-3.65388210247182

> <r_i_glide_hbond>
-0.730599934321568

> <r_i_glide_metal>
0

> <r_i_glide_rewards>
-0.442473787878788

> <r_i_glide_evdw>
-52.0020027160645

> <r_i_glide_ecoul>
-10.8829536437988

> <r_i_glide_erotb>
0.984835089865883

> <r_i_glide_esite>
0

> <r_i_glide_emodel>
-84.4997861661932

> <r_i_glide_energy>
-62.8849563598633

> <r_i_glide_einternal>
13.5973463058472

> <i_i_glide_confnum>
173

> <i_i_glide_posenum>
44

> <r_i_glide_eff_state_penalty>
0

> <s_user_duplicate_titles>
CHEMBL213_lig429

> <s_m_subgroup_title>
dock_pv

> <s_m_subgroupid>
dock_pv

> <b_m_subgroup_collapsed>
1

$$$$
CHEMBL213_lig196
                    3D
 Schrodinger Suite 2021-1.
 65 68  0  0  1  0            999 V2000
   32.8609    6.4814    3.6522 C   0  0  0  0  0  0
   33.0980    6.6315    5.0489 N   0  0  0  0  0  0
   34.2727    7.0532    5.5781 C   0  0  0  0  0  0
   35.2988    7.4012    5.9851 N   0  0  0  0  0  0
   31.7009    6.4858    3.1102 N   0  0  0  0  0  0
   34.0771    6.2563    2.9354 N   0  0  0  0  0  0
   30.2995    2.5863   -5.4383 C   0  0  0  0  0  0
   29.4065    5.8300    3.4732 C   0  0  0  0  0  0
   30.4855    6.6595    3.7962 C   0  0  0  0  0  0
   28.2080    1.8517   -6.4366 N   0  0  0  0  0  0
   28.1435    5.9912    4.0601 C   0  0  0  0  0  0
   27.0743    5.1614    3.8127 O   0  0  0  0  0  0
   34.3606    5.8496    1.6197 C   0  0  0  0  0  0
   31.0745    2.9407   -4.1609 C   0  0  1  0  0  0
   26.5578    4.9236    2.5551 C   0  0  0  0  0  0
   33.3576    3.5821   -3.2301 N   0  0  1  0  0  0
   35.0680    4.9838   -0.9574 C   0  0  0  0  0  0
   28.9518    2.2076   -5.3601 C   0  0  0  0  0  0
   35.6617    5.4239    1.3431 C   0  0  0  0  0  0
   33.4215    5.8488    0.5858 C   0  0  0  0  0  0
   36.0107    4.9774    0.0713 C   0  0  0  0  0  0
   33.7758    5.4498   -0.6966 C   0  0  0  0  0  0
   31.0078    1.8789   -3.2201 O   0  0  0  0  0  0
   29.0036    7.8497    5.3205 C   0  0  0  0  0  0
   32.5434    3.3888   -4.4268 C   0  0  0  0  0  0
   30.8819    2.6060   -6.7182 C   0  0  0  0  0  0
   28.8011    1.8658   -7.6523 C   0  0  0  0  0  0
   30.2434    7.6897    4.7171 C   0  0  0  0  0  0
   27.9582    6.9954    5.0030 C   0  0  0  0  0  0
   34.4755    4.4888   -3.4783 C   0  0  0  0  0  0
   35.5018    4.4572   -2.3271 C   0  0  0  0  0  0
   27.1675    5.2867    1.3439 C   0  0  0  0  0  0
   25.3483    4.2290    2.5265 C   0  0  0  0  0  0
   30.1313    2.2390   -7.8336 C   0  0  0  0  0  0
   24.7798    3.8488    1.3140 C   0  0  0  0  0  0
   26.6074    4.9027    0.1315 C   0  0  0  0  0  0
   25.4260    4.1709    0.1255 C   0  0  0  0  0  0
   32.2804    6.7518    5.6227 H   0  0  0  0  0  0
   34.9040    6.5493    3.4340 H   0  0  0  0  0  0
   29.5700    5.0199    2.7782 H   0  0  0  0  0  0
   30.5594    3.7894   -3.7051 H   0  0  0  0  0  0
   32.8048    3.8265   -2.4230 H   0  0  0  0  0  0
   28.4302    2.1813   -4.4156 H   0  0  0  0  0  0
   36.4113    5.4186    2.1191 H   0  0  0  0  0  0
   32.4146    6.1990    0.7464 H   0  0  0  0  0  0
   37.0171    4.6231   -0.1162 H   0  0  0  0  0  0
   33.0241    5.4996   -1.4651 H   0  0  0  0  0  0
   30.1069    1.8399   -2.8688 H   0  0  0  0  0  0
   28.8462    8.6505    6.0245 H   0  0  0  0  0  0
   32.5074    4.3158   -5.0053 H   0  0  0  0  0  0
   33.0614    2.6512   -5.0386 H   0  0  0  0  0  0
   31.9076    2.8976   -6.8766 H   0  0  0  0  0  0
   28.1881    1.5858   -8.4964 H   0  0  0  0  0  0
   31.0083    8.4012    4.9605 H   0  0  0  0  0  0
   26.9944    7.1193    5.4762 H   0  0  0  0  0  0
   34.0757    5.4995   -3.5796 H   0  0  0  0  0  0
   34.9823    4.2475   -4.4166 H   0  0  0  0  0  0
   36.3719    5.0386   -2.6387 H   0  0  0  0  0  0
   35.8598    3.4345   -2.1985 H   0  0  0  0  0  0
   28.0813    5.8502    1.3105 H   0  0  0  0  0  0
   24.8605    3.9570    3.4504 H   0  0  0  0  0  0
   30.5733    2.2523   -8.8179 H   0  0  0  0  0  0
   23.8519    3.2958    1.2903 H   0  0  0  0  0  0
   27.0940    5.1596   -0.7977 H   0  0  0  0  0  0
   25.0068    3.8547   -0.8145 H   0  0  0  0  0  0
  1  2  1  0  0  0
  1  5  2  0  0  0
  1  6  1  0  0  0
  2  3  1  0  0  0
  2 38  1  0  0  0
  3  4  3  0  0  0
  5  9  1  0  0  0
  6 13  1  0  0  0
  6 39  1  0  0  0
  7 14  1  0  0  0
  7 18  1  0  0  0
  7 26  2  0  0  0
  8  9  2  0  0  0
  8 11  1  0  0  0
  8 40  1  0  0  0
  9 28  1  0  0  0
 10 18  2  0  0  0
 10 27  1  0  0  0
 11 12  1  0  0  0
 11 29  2  0  0  0
 12 15  1  0  0  0
 13 19  2  0  0  0
 13 20  1  0  0  0
 14 25  1  0  0  0
 14 23  1  0  0  0
 14 41  1  0  0  0
 15 32  2  0  0  0
 15 33  1  0  0  0
 16 30  1  0  0  0
 16 25  1  0  0  0
 16 42  1  0  0  0
 17 22  1  0  0  0
 17 31  1  0  0  0
 17 21  2  0  0  0
 18 43  1  0  0  0
 19 21  1  0  0  0
 19 44  1  0  0  0
 20 22  2  0  0  0
 20 45  1  0  0  0
 21 46  1  0  0  0
 22 47  1  0  0  0
 23 48  1  0  0  0
 24 28  2  0  0  0
 24 29  1  0  0  0
 24 49  1  0  0  0
 25 50  1  0  0  0
 25 51  1  0  0  0
 26 34  1  0  0  0
 26 52  1  0  0  0
 27 34  2  0  0  0
 27 53  1  0  0  0
 28 54  1  0  0  0
 29 55  1  0  0  0
 30 31  1  0  0  0
 30 56  1  0  0  0
 30 57  1  0  0  0
 31 58  1  0  0  0
 31 59  1  0  0  0
 32 36  1  0  0  0
 32 60  1  0  0  0
 33 35  2  0  0  0
 33 61  1  0  0  0
 34 62  1  0  0  0
 35 37  1  0  0  0
 35 63  1  0  0  0
 36 37  2  0  0  0
 36 64  1  0  0  0
 37 65  1  0  0  0
M  END
> <s_m_entry_id>
2997

> <s_m_entry_name>
dock_pv.89

> <s_m_Source_Path>
/home/csk/Desktop/cluster/DUD-E-result/adrb1

> <s_m_Source_File>
dock_pv.maegz

> <i_m_Source_File_Index>
89

> <chembl_id>
CHEMBL124863

> <chembl_pref_name>
None

> <i_lp_mmshare_version>
53161

> <i_f3d_flags>
0

> <r_lp_tautomer_probability>
1

> <s_lp_Force_Field>
OPLS_2005

> <r_lp_Energy>
26.935389

> <b_lp_Chiralities_Consistent>
1

> <s_lp_Variant>
CHEMBL213_lig196-1

> <s_i_glide_gridfile>
glide-grid_2vt4

> <i_i_glide_lignum>
231

> <i_i_glide_rotatable_bonds>
13

> <r_i_docking_score>
-8.06810218673173

> <r_i_glide_ligand_efficiency>
-0.218056815857614

> <r_i_glide_ligand_efficiency_sa>
-0.7266136858265

> <r_i_glide_ligand_efficiency_ln>
-1.74978222115104

> <r_i_glide_gscore>
-8.06810218673173

> <r_i_glide_lipo>
-3.85015198322454

> <r_i_glide_hbond>
-0.32

> <r_i_glide_metal>
0

> <r_i_glide_rewards>
-1.0809373715279

> <r_i_glide_evdw>
-60.9335746765137

> <r_i_glide_ecoul>
-4.62430810928345

> <r_i_glide_erotb>
0.923312118238899

> <r_i_glide_esite>
0

> <r_i_glide_emodel>
-89.2134322186307

> <r_i_glide_energy>
-65.5578827857971

> <r_i_glide_einternal>
17.1552028656006

> <i_i_glide_confnum>
54

> <i_i_glide_posenum>
382

> <r_i_glide_eff_state_penalty>
0

> <s_user_duplicate_titles>
CHEMBL213_lig196,206797

> <s_m_subgroup_title>
dock_pv

> <s_m_subgroupid>
dock_pv

> <b_m_subgroup_collapsed>
1

$$$$
CHEMBL213_lig785
                    3D
 Schrodinger Suite 2021-1.
 72 73  0  0  1  0            999 V2000
   26.0239    4.2182    0.9545 C   0  0  0  0  0  0
   24.7947    3.8509    1.5154 C   0  0  0  0  0  0
   24.5278    4.1540    2.8472 C   0  0  0  0  0  0
   25.4865    4.7923    3.6333 C   0  0  0  0  0  0
   26.7393    5.1241    3.1094 C   0  0  0  0  0  0
   26.9769    4.8582    1.7501 C   0  0  0  0  0  0
   23.8081    3.2516    0.7850 O   0  0  0  0  0  0
   26.3689    3.9385   -0.4987 C   0  0  0  0  0  0
   26.6080    5.1277   -1.2185 O   0  0  0  0  0  0
   27.8215    5.7010    4.0390 C   0  0  1  0  0  0
   29.1274    6.1186    3.3157 C   0  0  0  0  0  0
   27.3507    6.8148    4.7852 O   0  0  0  0  0  0
   30.2814    6.2513    4.1850 N   0  0  2  0  0  0
   31.3737    6.8566    3.4342 C   0  0  0  0  0  0
   32.6822    6.7839    4.2402 C   0  0  0  0  0  0
   33.9323    7.1561    3.4194 C   0  0  0  0  0  0
   34.2251    6.1718    2.2689 C   0  0  0  0  0  0
   35.5472    6.4485    1.5346 C   0  0  0  0  0  0
   35.7937    5.4826    0.3649 C   0  0  0  0  0  0
   34.8119    5.6921   -0.6443 O   0  0  0  0  0  0
   34.9066    4.7597   -1.7122 C   0  0  0  0  0  0
   34.0014    5.1834   -2.8779 C   0  0  0  0  0  0
   32.4866    5.1536   -2.5741 C   0  0  0  0  0  0
   31.5722    5.6011   -3.7427 C   0  0  0  0  0  0
   31.6085    4.6942   -4.9712 C   0  0  0  0  0  0
   30.5421    3.8291   -5.2464 C   0  0  0  0  0  0
   30.5856    2.9883   -6.3642 C   0  0  0  0  0  0
   31.7109    2.9898   -7.1932 C   0  0  0  0  0  0
   32.7660    3.8621   -6.9349 C   0  0  0  0  0  0
   32.7016    4.7286   -5.8462 C   0  0  0  0  0  0
   29.2179    1.9078   -6.7587 S   0  0  0  0  0  0
   28.3963    1.5808   -5.2627 N   0  0  0  0  0  0
   28.2948    2.6500   -7.6187 O   0  0  0  0  0  0
   29.8083    0.6500   -7.2150 O   0  0  0  0  0  0
   23.5675    3.8998    3.2707 H   0  0  0  0  0  0
   25.2518    5.0210    4.6622 H   0  0  0  0  0  0
   27.9077    5.1199    1.2725 H   0  0  0  0  0  0
   23.8218    3.4375   -0.1648 H   0  0  0  0  0  0
   27.2664    3.3202   -0.5359 H   0  0  0  0  0  0
   25.5912    3.3695   -1.0058 H   0  0  0  0  0  0
   26.1350    5.0496   -2.0611 H   0  0  0  0  0  0
   28.0672    4.8982    4.7368 H   0  0  0  0  0  0
   29.4181    5.3531    2.5967 H   0  0  0  0  0  0
   28.9637    7.0481    2.7853 H   0  0  0  0  0  0
   26.7704    6.5133    5.4869 H   0  0  0  0  0  0
   30.6091    5.3000    4.3905 H   0  0  0  0  0  0
   31.4981    6.3168    2.4946 H   0  0  0  0  0  0
   31.1437    7.8897    3.1757 H   0  0  0  0  0  0
   32.6043    7.4494    5.0996 H   0  0  0  0  0  0
   32.8206    5.7826    4.6504 H   0  0  0  0  0  0
   33.8210    8.1660    3.0204 H   0  0  0  0  0  0
   34.7920    7.1904    4.0898 H   0  0  0  0  0  0
   34.2399    5.1517    2.6564 H   0  0  0  0  0  0
   33.4175    6.2089    1.5379 H   0  0  0  0  0  0
   35.5547    7.4690    1.1521 H   0  0  0  0  0  0
   36.3802    6.3773    2.2350 H   0  0  0  0  0  0
   36.7888    5.6566   -0.0500 H   0  0  0  0  0  0
   35.7699    4.4521    0.7229 H   0  0  0  0  0  0
   35.9360    4.7097   -2.0783 H   0  0  0  0  0  0
   34.6389    3.7595   -1.3648 H   0  0  0  0  0  0
   34.2951    6.1795   -3.2127 H   0  0  0  0  0  0
   34.2244    4.5041   -3.7010 H   0  0  0  0  0  0
   32.1984    4.1478   -2.2615 H   0  0  0  0  0  0
   32.2907    5.7937   -1.7126 H   0  0  0  0  0  0
   30.5436    5.6623   -3.3812 H   0  0  0  0  0  0
   31.8049    6.6186   -4.0530 H   0  0  0  0  0  0
   29.6837    3.8153   -4.5910 H   0  0  0  0  0  0
   31.7556    2.3382   -8.0535 H   0  0  0  0  0  0
   33.6240    3.8837   -7.5902 H   0  0  0  0  0  0
   33.5178    5.4174   -5.6792 H   0  0  0  0  0  0
   27.4760    2.0292   -5.1887 H   0  0  0  0  0  0
   28.3820    0.5939   -4.9907 H   0  0  0  0  0  0
  1  6  1  0  0  0
  1  2  2  0  0  0
  1  8  1  0  0  0
  2  7  1  0  0  0
  2  3  1  0  0  0
  3  4  2  0  0  0
  3 35  1  0  0  0
  4  5  1  0  0  0
  4 36  1  0  0  0
  5  6  2  0  0  0
  5 10  1  0  0  0
  6 37  1  0  0  0
  7 38  1  0  0  0
  8  9  1  0  0  0
  8 39  1  0  0  0
  8 40  1  0  0  0
  9 41  1  0  0  0
 10 11  1  0  0  0
 10 12  1  0  0  0
 10 42  1  0  0  0
 11 13  1  0  0  0
 11 43  1  0  0  0
 11 44  1  0  0  0
 12 45  1  0  0  0
 13 14  1  0  0  0
 13 46  1  0  0  0
 14 15  1  0  0  0
 14 47  1  0  0  0
 14 48  1  0  0  0
 15 16  1  0  0  0
 15 49  1  0  0  0
 15 50  1  0  0  0
 16 17  1  0  0  0
 16 51  1  0  0  0
 16 52  1  0  0  0
 17 18  1  0  0  0
 17 53  1  0  0  0
 17 54  1  0  0  0
 18 19  1  0  0  0
 18 55  1  0  0  0
 18 56  1  0  0  0
 19 20  1  0  0  0
 19 57  1  0  0  0
 19 58  1  0  0  0
 20 21  1  0  0  0
 21 22  1  0  0  0
 21 59  1  0  0  0
 21 60  1  0  0  0
 22 23  1  0  0  0
 22 61  1  0  0  0
 22 62  1  0  0  0
 23 24  1  0  0  0
 23 63  1  0  0  0
 23 64  1  0  0  0
 24 25  1  0  0  0
 24 65  1  0  0  0
 24 66  1  0  0  0
 25 26  2  0  0  0
 25 30  1  0  0  0
 26 27  1  0  0  0
 26 67  1  0  0  0
 27 28  2  0  0  0
 27 31  1  0  0  0
 28 29  1  0  0  0
 28 68  1  0  0  0
 29 30  2  0  0  0
 29 69  1  0  0  0
 30 70  1  0  0  0
 31 32  1  0  0  0
 31 33  2  0  0  0
 31 34  2  0  0  0
 32 71  1  0  0  0
 32 72  1  0  0  0
M  END
> <s_m_entry_id>
2998

> <s_m_entry_name>
dock_pv.90

> <s_m_Source_Path>
/home/csk/Desktop/cluster/DUD-E-result/adrb1

> <s_m_Source_File>
dock_pv.maegz

> <i_m_Source_File_Index>
90

> <chembl_id>
CHEMBL475236

> <chembl_pref_name>
None

> <i_lp_mmshare_version>
53161

> <i_f3d_flags>
0

> <r_lp_tautomer_probability>
0.999999999997365

> <s_lp_Force_Field>
OPLS_2005

> <r_lp_Energy>
28.780405

> <b_lp_Chiralities_Consistent>
1

> <s_lp_Variant>
CHEMBL213_lig785-1

> <s_i_glide_gridfile>
glide-grid_2vt4

> <i_i_glide_lignum>
893

> <i_i_glide_rotatable_bonds>
20

> <r_i_docking_score>
-8.06782115176533

> <r_i_glide_ligand_efficiency>
-0.237288857404863

> <r_i_glide_ligand_efficiency_sa>
-0.768723781856844

> <r_i_glide_ligand_efficiency_ln>
-1.78240798714316

> <r_i_glide_gscore>
-8.06782115176533

> <r_i_glide_lipo>
-3.36577024157789

> <r_i_glide_hbond>
-0.926470458120881

> <r_i_glide_metal>
0

> <r_i_glide_rewards>
-0.229039494235344

> <r_i_glide_evdw>
-47.9610557556152

> <r_i_glide_ecoul>
-15.9659194946289

> <r_i_glide_erotb>
1.33270688036291

> <r_i_glide_esite>
-0.0863071262190284

> <r_i_glide_emodel>
-87.5169702347912

> <r_i_glide_energy>
-63.9269752502441

> <r_i_glide_einternal>
12.726544380188

> <i_i_glide_confnum>
104

> <i_i_glide_posenum>
379

> <r_i_glide_eff_state_penalty>
0

> <s_user_duplicate_titles>
CHEMBL213_lig785

> <s_m_subgroup_title>
dock_pv

> <s_m_subgroupid>
dock_pv

> <b_m_subgroup_collapsed>
1

$$$$
CHEMBL213_lig1403
                    3D
 Schrodinger Suite 2021-1.
 68 72  0  0  1  0            999 V2000
   28.2846    4.6719   -2.0549 N   0  0  1  0  0  0
   29.5499    4.4629   -2.7594 C   0  0  0  0  0  0
   29.8730    5.4697   -3.8665 C   0  0  0  0  0  0
   31.0940    5.0369   -4.7111 C   0  0  0  0  0  0
   32.2258    4.3794   -4.0117 N   0  0  0  0  0  0
   32.0565    4.0076   -2.5851 C   0  0  0  0  0  0
   30.7851    4.4717   -1.8570 C   0  0  0  0  0  0
   33.4264    4.0735   -4.6611 C   0  0  0  0  0  0
   34.5461    4.3478   -3.9321 N   0  0  0  0  0  0
   35.7429    4.2582   -4.5514 C   0  0  0  0  0  0
   35.9703    3.9457   -5.8456 N   0  0  0  0  0  0
   33.5395    3.5675   -5.9976 C   0  0  0  0  0  0
   34.8755    3.6068   -6.5272 C   0  0  0  0  0  0
   34.9666    3.1531   -8.2111 S   0  0  0  0  0  0
   33.2893    2.7152   -8.1531 C   0  0  0  0  0  0
   32.6429    2.9123   -6.9378 C   0  0  0  0  0  0
   28.1920    5.8744   -1.2260 C   0  0  0  0  0  0
   26.8989    5.9209   -0.3800 C   0  0  2  0  0  0
   26.6009    4.6476    0.4720 C   0  0  0  0  0  0
   25.8072    6.2507   -1.2161 O   0  0  0  0  0  0
   26.3196    4.9274    1.8517 O   0  0  0  0  0  0
   27.3140    5.3986    2.6952 C   0  0  0  0  0  0
   26.9354    5.9898    3.9167 C   0  0  0  0  0  0
   27.9166    6.5434    4.7541 C   0  0  0  0  0  0
   29.2617    6.4936    4.3928 C   0  0  0  0  0  0
   29.6443    5.8509    3.2196 C   0  0  0  0  0  0
   28.6780    5.3074    2.3846 C   0  0  0  0  0  0
   31.2678    2.3483   -6.7105 C   0  0  0  0  0  0
   30.8855    1.8845   -5.4459 C   0  0  0  0  0  0
   29.6395    1.3142   -5.2451 C   0  0  0  0  0  0
   28.7594    1.2096   -6.3119 C   0  0  0  0  0  0
   29.1026    1.6785   -7.5775 C   0  0  0  0  0  0
   30.3583    2.2469   -7.7717 C   0  0  0  0  0  0
   30.2078    7.0616    5.2045 O   0  0  0  0  0  0
   25.4502    6.0716    4.2731 C   0  0  0  0  0  0
   25.0946    6.4408    5.7275 C   0  0  0  0  0  0
   27.5053    4.5860   -2.6973 H   0  0  0  0  0  0
   29.4729    3.4711   -3.2109 H   0  0  0  0  0  0
   29.0122    5.5681   -4.5291 H   0  0  0  0  0  0
   30.0209    6.4732   -3.4670 H   0  0  0  0  0  0
   30.7437    4.4684   -5.5628 H   0  0  0  0  0  0
   31.5138    5.9452   -5.1465 H   0  0  0  0  0  0
   32.1487    2.9233   -2.4952 H   0  0  0  0  0  0
   32.8978    4.4221   -2.0276 H   0  0  0  0  0  0
   30.9589    5.4516   -1.4108 H   0  0  0  0  0  0
   30.6068    3.8041   -1.0114 H   0  0  0  0  0  0
   36.6121    4.5256   -3.9669 H   0  0  0  0  0  0
   32.8736    2.2520   -9.0368 H   0  0  0  0  0  0
   28.2674    6.7739   -1.8406 H   0  0  0  0  0  0
   29.0265    5.8945   -0.5279 H   0  0  0  0  0  0
   27.0002    6.7704    0.2969 H   0  0  0  0  0  0
   27.3950    3.9069    0.3840 H   0  0  0  0  0  0
   25.7295    4.1297    0.0700 H   0  0  0  0  0  0
   25.6266    5.5169   -1.8203 H   0  0  0  0  0  0
   27.6476    7.0367    5.6771 H   0  0  0  0  0  0
   30.6866    5.7803    2.9455 H   0  0  0  0  0  0
   29.0202    4.8427    1.4748 H   0  0  0  0  0  0
   31.5560    1.9343   -4.6041 H   0  0  0  0  0  0
   29.3667    0.9538   -4.2664 H   0  0  0  0  0  0
   27.8080    0.7459   -6.1393 H   0  0  0  0  0  0
   28.4074    1.5892   -8.4001 H   0  0  0  0  0  0
   30.6239    2.5874   -8.7605 H   0  0  0  0  0  0
   31.0683    7.1345    4.7847 H   0  0  0  0  0  0
   25.0089    6.7950    3.5897 H   0  0  0  0  0  0
   24.9945    5.1055    4.0525 H   0  0  0  0  0  0
   24.0175    6.3927    5.8853 H   0  0  0  0  0  0
   25.5632    5.7602    6.4392 H   0  0  0  0  0  0
   25.4047    7.4540    5.9775 H   0  0  0  0  0  0
  1 17  1  0  0  0
  1  2  1  0  0  0
  1 37  1  0  0  0
  2  3  1  0  0  0
  2  7  1  0  0  0
  2 38  1  0  0  0
  3  4  1  0  0  0
  3 39  1  0  0  0
  3 40  1  0  0  0
  4  5  1  0  0  0
  4 41  1  0  0  0
  4 42  1  0  0  0
  5  6  1  0  0  0
  5  8  1  0  0  0
  6  7  1  0  0  0
  6 43  1  0  0  0
  6 44  1  0  0  0
  7 45  1  0  0  0
  7 46  1  0  0  0
  8  9  2  0  0  0
  8 12  1  0  0  0
  9 10  1  0  0  0
 10 11  2  0  0  0
 10 47  1  0  0  0
 11 13  1  0  0  0
 12 13  2  0  0  0
 12 16  1  0  0  0
 13 14  1  0  0  0
 14 15  1  0  0  0
 15 16  2  0  0  0
 15 48  1  0  0  0
 16 28  1  0  0  0
 17 18  1  0  0  0
 17 49  1  0  0  0
 17 50  1  0  0  0
 18 19  1  0  0  0
 18 20  1  0  0  0
 18 51  1  0  0  0
 19 21  1  0  0  0
 19 52  1  0  0  0
 19 53  1  0  0  0
 20 54  1  0  0  0
 21 22  1  0  0  0
 22 23  2  0  0  0
 22 27  1  0  0  0
 23 24  1  0  0  0
 23 35  1  0  0  0
 24 25  2  0  0  0
 24 55  1  0  0  0
 25 26  1  0  0  0
 25 34  1  0  0  0
 26 27  2  0  0  0
 26 56  1  0  0  0
 27 57  1  0  0  0
 28 29  2  0  0  0
 28 33  1  0  0  0
 29 30  1  0  0  0
 29 58  1  0  0  0
 30 31  2  0  0  0
 30 59  1  0  0  0
 31 32  1  0  0  0
 31 60  1  0  0  0
 32 33  2  0  0  0
 32 61  1  0  0  0
 33 62  1  0  0  0
 34 63  1  0  0  0
 35 36  1  0  0  0
 35 64  1  0  0  0
 35 65  1  0  0  0
 36 66  1  0  0  0
 36 67  1  0  0  0
 36 68  1  0  0  0
M  END
> <s_m_entry_id>
2999

> <s_m_entry_name>
dock_pv.91

> <s_m_Source_Path>
/home/csk/Desktop/cluster/DUD-E-result/adrb1

> <s_m_Source_File>
dock_pv.maegz

> <i_m_Source_File_Index>
91

> <chembl_id>
CHEMBL1257676

> <chembl_pref_name>
None

> <i_lp_mmshare_version>
53161

> <i_f3d_flags>
0

> <r_lp_tautomer_probability>
1

> <s_lp_Force_Field>
OPLS_2005

> <r_lp_Energy>
37.703503

> <b_lp_Chiralities_Consistent>
1

> <s_lp_Variant>
CHEMBL213_lig1403-1

> <s_i_glide_gridfile>
glide-grid_2vt4

> <i_i_glide_lignum>
1709

> <i_i_glide_rotatable_bonds>
11

> <r_i_docking_score>
-8.06013151974305

> <r_i_glide_ligand_efficiency>
-0.223892542215085

> <r_i_glide_ligand_efficiency_sa>
-0.739276885081208

> <r_i_glide_ligand_efficiency_ln>
-1.75850293801949

> <r_i_glide_gscore>
-8.06013151974305

> <r_i_glide_lipo>
-4.0078833818892

> <r_i_glide_hbond>
-0.304920668381606

> <r_i_glide_metal>
0

> <r_i_glide_rewards>
-0.715183860651693

> <r_i_glide_evdw>
-52.3953132629395

> <r_i_glide_ecoul>
-6.83040714263916

> <r_i_glide_erotb>
0.642347644721108

> <r_i_glide_esite>
-0.030164518998816

> <r_i_glide_emodel>
-71.0146778840472

> <r_i_glide_energy>
-59.2257204055786

> <r_i_glide_einternal>
25.0523319244385

> <i_i_glide_confnum>
36

> <i_i_glide_posenum>
109

> <r_i_glide_eff_state_penalty>
0

> <s_user_duplicate_titles>
CHEMBL213_lig1403

> <s_m_subgroup_title>
dock_pv

> <s_m_subgroupid>
dock_pv

> <b_m_subgroup_collapsed>
1

$$$$
CHEMBL213_lig848
                    3D
 Schrodinger Suite 2021-1.
 67 69  0  0  1  0            999 V2000
   31.8601    5.6868    1.3323 C   0  0  0  0  0  0
   30.8808    5.2754    0.4277 C   0  0  0  0  0  0
   31.2066    5.0500   -0.9104 C   0  0  0  0  0  0
   32.5275    5.1855   -1.3814 C   0  0  0  0  0  0
   33.4957    5.5975   -0.4477 C   0  0  0  0  0  0
   33.1695    5.8500    0.8831 C   0  0  0  0  0  0
   32.8979    4.8768   -2.8163 C   0  0  0  0  0  0
   34.1865    5.1255   -3.3165 C   0  0  0  0  0  0
   34.5288    4.8397   -4.6352 C   0  0  0  0  0  0
   33.5977    4.2942   -5.5231 C   0  0  0  0  0  0
   32.2934    4.0308   -5.0525 C   0  0  0  0  0  0
   31.9749    4.3171   -3.7181 C   0  0  0  0  0  0
   31.5535    5.8074    2.8231 C   0  0  0  0  0  0
   31.2596    7.2124    3.3991 C   0  0  0  0  0  0
   29.8592    7.4453    3.7521 N   0  0  2  0  0  0
   29.3191    6.6285    4.8384 C   0  0  0  0  0  0
   27.7658    6.6399    4.9101 C   0  0  1  0  0  0
   27.0158    5.8028    3.8513 C   0  0  0  0  0  0
   27.4336    6.2500    6.2365 O   0  0  0  0  0  0
   25.6993    5.3949    4.1035 C   0  0  0  0  0  0
   25.0080    4.6073    3.1868 C   0  0  0  0  0  0
   25.6104    4.2501    1.9845 C   0  0  0  0  0  0
   26.8980    4.6868    1.6924 C   0  0  0  0  0  0
   27.5985    5.4495    2.6260 C   0  0  0  0  0  0
   34.0442    3.9827   -6.9310 C   0  0  0  0  0  0
   33.9211    2.8515   -7.3985 O   0  0  0  0  0  0
   34.6085    5.0500   -7.6616 N   0  0  0  0  0  0
   35.3098    4.9607   -9.2675 S   0  0  0  0  0  0
   37.0507    4.3538   -8.9224 C   0  0  0  0  0  0
   35.4081    6.3327   -9.7737 O   0  0  0  0  0  0
   34.6081    3.9301  -10.0394 O   0  0  0  0  0  0
   31.0343    3.3362   -6.1164 S   0  0  0  0  0  0
   29.8351    2.3812   -5.1374 C   0  0  0  0  0  0
   30.5241    1.2253   -4.4007 C   0  0  0  0  0  0
   28.6733    1.8548   -5.9966 C   0  0  0  0  0  0
   29.8664    5.1049    0.7486 H   0  0  0  0  0  0
   30.3991    4.7405   -1.5543 H   0  0  0  0  0  0
   34.5322    5.7163   -0.7171 H   0  0  0  0  0  0
   33.9464    6.1500    1.5716 H   0  0  0  0  0  0
   34.9627    5.5547   -2.7038 H   0  0  0  0  0  0
   35.5409    5.0499   -4.9582 H   0  0  0  0  0  0
   30.9751    4.1026   -3.3917 H   0  0  0  0  0  0
   30.7670    5.0926    3.0523 H   0  0  0  0  0  0
   32.4330    5.4474    3.3553 H   0  0  0  0  0  0
   31.8807    7.4138    4.2739 H   0  0  0  0  0  0
   31.5523    7.9515    2.6559 H   0  0  0  0  0  0
   29.2755    7.4319    2.9283 H   0  0  0  0  0  0
   29.6453    5.5950    4.7755 H   0  0  0  0  0  0
   29.7318    7.0498    5.7572 H   0  0  0  0  0  0
   27.4184    7.6703    4.8112 H   0  0  0  0  0  0
   27.2112    7.0597    6.7216 H   0  0  0  0  0  0
   25.2119    5.6671    5.0286 H   0  0  0  0  0  0
   24.0006    4.2822    3.4024 H   0  0  0  0  0  0
   25.0719    3.6471    1.2664 H   0  0  0  0  0  0
   27.3568    4.4185    0.7512 H   0  0  0  0  0  0
   28.6014    5.7460    2.3832 H   0  0  0  0  0  0
   34.7416    5.9681   -7.2144 H   0  0  0  0  0  0
   37.5814    4.2801   -9.8706 H   0  0  0  0  0  0
   36.9905    3.3792   -8.4407 H   0  0  0  0  0  0
   37.5423    5.0741   -8.2686 H   0  0  0  0  0  0
   29.3952    3.0539   -4.4011 H   0  0  0  0  0  0
   29.8080    0.6500   -3.8214 H   0  0  0  0  0  0
   31.0022    0.5475   -5.1076 H   0  0  0  0  0  0
   31.2884    1.5794   -3.7093 H   0  0  0  0  0  0
   27.9505    1.3061   -5.3903 H   0  0  0  0  0  0
   28.1324    2.6683   -6.4792 H   0  0  0  0  0  0
   29.0288    1.1867   -6.7819 H   0  0  0  0  0  0
  1  6  1  0  0  0
  1 13  1  0  0  0
  1  2  2  0  0  0
  2  3  1  0  0  0
  2 36  1  0  0  0
  3  4  2  0  0  0
  3 37  1  0  0  0
  4  5  1  0  0  0
  4  7  1  0  0  0
  5  6  2  0  0  0
  5 38  1  0  0  0
  6 39  1  0  0  0
  7 12  1  0  0  0
  7  8  2  0  0  0
  8  9  1  0  0  0
  8 40  1  0  0  0
  9 10  2  0  0  0
  9 41  1  0  0  0
 10 11  1  0  0  0
 10 25  1  0  0  0
 11 12  2  0  0  0
 11 32  1  0  0  0
 12 42  1  0  0  0
 13 14  1  0  0  0
 13 43  1  0  0  0
 13 44  1  0  0  0
 14 15  1  0  0  0
 14 45  1  0  0  0
 14 46  1  0  0  0
 15 16  1  0  0  0
 15 47  1  0  0  0
 16 17  1  0  0  0
 16 48  1  0  0  0
 16 49  1  0  0  0
 17 18  1  0  0  0
 17 19  1  0  0  0
 17 50  1  0  0  0
 18 20  2  0  0  0
 18 24  1  0  0  0
 19 51  1  0  0  0
 20 21  1  0  0  0
 20 52  1  0  0  0
 21 22  2  0  0  0
 21 53  1  0  0  0
 22 23  1  0  0  0
 22 54  1  0  0  0
 23 24  2  0  0  0
 23 55  1  0  0  0
 24 56  1  0  0  0
 25 26  2  0  0  0
 25 27  1  0  0  0
 27 28  1  0  0  0
 27 57  1  0  0  0
 28 29  1  0  0  0
 28 30  2  0  0  0
 28 31  2  0  0  0
 29 58  1  0  0  0
 29 59  1  0  0  0
 29 60  1  0  0  0
 32 33  1  0  0  0
 33 34  1  0  0  0
 33 35  1  0  0  0
 33 61  1  0  0  0
 34 62  1  0  0  0
 34 63  1  0  0  0
 34 64  1  0  0  0
 35 65  1  0  0  0
 35 66  1  0  0  0
 35 67  1  0  0  0
M  END
> <s_m_entry_id>
3000

> <s_m_entry_name>
dock_pv.92

> <s_m_Source_Path>
/home/csk/Desktop/cluster/DUD-E-result/adrb1

> <s_m_Source_File>
dock_pv.maegz

> <i_m_Source_File_Index>
92

> <chembl_id>
CHEMBL470856

> <chembl_pref_name>
None

> <i_lp_mmshare_version>
53161

> <i_f3d_flags>
0

> <r_lp_tautomer_probability>
1

> <s_lp_Force_Field>
OPLS_2005

> <r_lp_Energy>
31.063102

> <b_lp_Chiralities_Consistent>
1

> <s_lp_Variant>
CHEMBL213_lig848-1

> <s_i_glide_gridfile>
glide-grid_2vt4

> <i_i_glide_lignum>
956

> <i_i_glide_rotatable_bonds>
13

> <r_i_docking_score>
-8.05953627253127

> <r_i_glide_ligand_efficiency>
-0.230272464929465

> <r_i_glide_ligand_efficiency_sa>
-0.753236501302184

> <r_i_glide_ligand_efficiency_ln>
-1.76924708359083

> <r_i_glide_gscore>
-8.05953627253127

> <r_i_glide_lipo>
-3.28428374282114

> <r_i_glide_hbond>
-0.456

> <r_i_glide_metal>
0

> <r_i_glide_rewards>
-0.771318599696458

> <r_i_glide_evdw>
-41.7144737243652

> <r_i_glide_ecoul>
-13.7151966094971

> <r_i_glide_erotb>
0.701971063236868

> <r_i_glide_esite>
-0.106901815607724

> <r_i_glide_emodel>
-76.1323276066697

> <r_i_glide_energy>
-55.4296703338623

> <r_i_glide_einternal>
12.4373216629028

> <i_i_glide_confnum>
7

> <i_i_glide_posenum>
298

> <r_i_glide_eff_state_penalty>
0

> <s_user_duplicate_titles>
CHEMBL213_lig848

> <s_m_subgroup_title>
dock_pv

> <s_m_subgroupid>
dock_pv

> <b_m_subgroup_collapsed>
1

$$$$
CHEMBL213_lig461
                    3D
 Schrodinger Suite 2021-1.
 69 73  0  0  1  0            999 V2000
   30.6224    5.1671   -3.3934 C   0  0  0  0  0  0
   29.5738    4.3096   -3.7193 C   0  0  0  0  0  0
   31.9635    4.2601   -5.2085 C   0  0  0  0  0  0
   31.8010    5.1513   -4.1386 C   0  0  0  0  0  0
   30.8886    3.4151   -5.5410 C   0  0  0  0  0  0
   29.6985    3.4446   -4.8120 C   0  0  0  0  0  0
   28.7351    2.5776   -5.3192 N   0  0  0  0  0  0
   29.0635    1.8427   -6.4405 C   0  0  0  0  0  0
   30.7884    2.2498   -6.8573 S   0  0  0  0  0  0
   28.3643    1.0501   -7.0633 O   0  0  0  0  0  0
   28.4347    4.3392   -2.9576 O   0  0  0  0  0  0
   33.2699    4.2696   -6.0160 C   0  0  2  0  0  0
   34.5677    3.9318   -5.2246 C   0  0  0  0  0  0
   35.0056    4.9807   -4.3006 N   0  0  1  0  0  0
   35.0600    4.5515   -2.9063 C   0  0  0  0  0  0
   35.4783    5.7644   -2.0440 C   0  0  0  0  0  0
   35.0228    5.7704   -0.5946 C   0  0  0  0  0  0
   33.7028    5.4499   -0.2864 C   0  0  0  0  0  0
   33.2495    5.5607    1.0186 C   0  0  0  0  0  0
   34.0898    6.0382    2.0306 C   0  0  0  0  0  0
   35.4166    6.3545    1.7189 C   0  0  0  0  0  0
   35.8826    6.2176    0.4121 C   0  0  0  0  0  0
   33.4127    5.4504   -6.7810 O   0  0  0  0  0  0
   33.5872    6.1998    3.4694 C   0  0  0  0  0  0
   32.4030    7.0498    3.6189 N   0  0  1  0  0  0
   31.1482    6.4582    3.1761 C   0  0  0  0  0  0
   29.9291    6.8533    4.0256 C   0  0  0  0  0  0
   28.6571    6.1314    3.5856 C   0  0  0  0  0  0
   28.4196    5.4495    2.4025 C   0  0  0  0  0  0
   27.1276    5.0001    2.3489 N   0  0  0  0  0  0
   27.4185    6.0338    4.3184 C   0  0  0  0  0  0
   26.4749    5.3197    3.5154 C   0  0  0  0  0  0
   25.1621    5.0499    3.9307 C   0  0  0  0  0  0
   24.7974    5.5583    5.1841 C   0  0  0  0  0  0
   25.6944    6.2502    5.9856 C   0  0  0  0  0  0
   27.0027    6.4872    5.5744 C   0  0  0  0  0  0
   24.1440    4.2501    3.1333 C   0  0  0  0  0  0
   30.5196    5.8492   -2.5626 H   0  0  0  0  0  0
   32.5873    5.8420   -3.8769 H   0  0  0  0  0  0
   27.8039    2.5048   -4.9319 H   0  0  0  0  0  0
   27.8879    3.5518   -3.0344 H   0  0  0  0  0  0
   33.2028    3.4859   -6.7677 H   0  0  0  0  0  0
   35.3806    3.7609   -5.9319 H   0  0  0  0  0  0
   34.4354    2.9783   -4.7102 H   0  0  0  0  0  0
   35.9113    5.3515   -4.5817 H   0  0  0  0  0  0
   35.7858    3.7445   -2.7829 H   0  0  0  0  0  0
   34.0890    4.1573   -2.6067 H   0  0  0  0  0  0
   34.9860    6.6500   -2.4206 H   0  0  0  0  0  0
   36.5520    5.9390   -2.1329 H   0  0  0  0  0  0
   33.0102    5.1286   -1.0497 H   0  0  0  0  0  0
   32.2332    5.2682    1.2161 H   0  0  0  0  0  0
   36.0856    6.7200    2.4841 H   0  0  0  0  0  0
   36.9011    6.4920    0.1790 H   0  0  0  0  0  0
   34.1333    5.9753   -6.4148 H   0  0  0  0  0  0
   34.3846    6.6463    4.0652 H   0  0  0  0  0  0
   33.4188    5.2158    3.9119 H   0  0  0  0  0  0
   32.3675    7.6476    4.4349 H   0  0  0  0  0  0
   31.2198    5.3731    3.1849 H   0  0  0  0  0  0
   30.9967    6.7404    2.1343 H   0  0  0  0  0  0
   29.7826    7.9327    3.9758 H   0  0  0  0  0  0
   30.1407    6.6235    5.0692 H   0  0  0  0  0  0
   29.0717    5.2679    1.5591 H   0  0  0  0  0  0
   26.7537    4.4973    1.5554 H   0  0  0  0  0  0
   23.7942    5.4022    5.5539 H   0  0  0  0  0  0
   25.3636    6.6253    6.9425 H   0  0  0  0  0  0
   27.6781    7.0435    6.2076 H   0  0  0  0  0  0
   24.0337    4.6496    2.1267 H   0  0  0  0  0  0
   24.4792    3.2160    3.0383 H   0  0  0  0  0  0
   23.1587    4.2500    3.6019 H   0  0  0  0  0  0
  1  4  1  0  0  0
  1  2  2  0  0  0
  1 38  1  0  0  0
  2 11  1  0  0  0
  2  6  1  0  0  0
  3 12  1  0  0  0
  3  5  1  0  0  0
  3  4  2  0  0  0
  4 39  1  0  0  0
  5  9  1  0  0  0
  5  6  2  0  0  0
  6  7  1  0  0  0
  7  8  1  0  0  0
  7 40  1  0  0  0
  8  9  1  0  0  0
  8 10  2  0  0  0
 11 41  1  0  0  0
 12 23  1  0  0  0
 12 13  1  0  0  0
 12 42  1  0  0  0
 13 14  1  0  0  0
 13 43  1  0  0  0
 13 44  1  0  0  0
 14 15  1  0  0  0
 14 45  1  0  0  0
 15 16  1  0  0  0
 15 46  1  0  0  0
 15 47  1  0  0  0
 16 17  1  0  0  0
 16 48  1  0  0  0
 16 49  1  0  0  0
 17 18  2  0  0  0
 17 22  1  0  0  0
 18 19  1  0  0  0
 18 50  1  0  0  0
 19 20  2  0  0  0
 19 51  1  0  0  0
 20 21  1  0  0  0
 20 24  1  0  0  0
 21 22  2  0  0  0
 21 52  1  0  0  0
 22 53  1  0  0  0
 23 54  1  0  0  0
 24 25  1  0  0  0
 24 55  1  0  0  0
 24 56  1  0  0  0
 25 26  1  0  0  0
 25 57  1  0  0  0
 26 27  1  0  0  0
 26 58  1  0  0  0
 26 59  1  0  0  0
 27 28  1  0  0  0
 27 60  1  0  0  0
 27 61  1  0  0  0
 28 29  2  0  0  0
 28 31  1  0  0  0
 29 30  1  0  0  0
 29 62  1  0  0  0
 30 32  1  0  0  0
 30 63  1  0  0  0
 31 32  2  0  0  0
 31 36  1  0  0  0
 32 33  1  0  0  0
 33 34  2  0  0  0
 33 37  1  0  0  0
 34 35  1  0  0  0
 34 64  1  0  0  0
 35 36  2  0  0  0
 35 65  1  0  0  0
 36 66  1  0  0  0
 37 67  1  0  0  0
 37 68  1  0  0  0
 37 69  1  0  0  0
M  END
> <s_m_entry_id>
3001

> <s_m_entry_name>
dock_pv.93

> <s_m_Source_Path>
/home/csk/Desktop/cluster/DUD-E-result/adrb1

> <s_m_Source_File>
dock_pv.maegz

> <i_m_Source_File_Index>
93

> <chembl_id>
CHEMBL1945032

> <chembl_pref_name>
None

> <i_lp_mmshare_version>
53161

> <i_f3d_flags>
0

> <r_lp_tautomer_probability>
1

> <s_lp_Force_Field>
OPLS_2005

> <r_lp_Energy>
31.781434

> <b_lp_Chiralities_Consistent>
1

> <s_lp_Variant>
CHEMBL213_lig461-1

> <s_i_glide_gridfile>
glide-grid_2vt4

> <i_i_glide_lignum>
549

> <i_i_glide_rotatable_bonds>
13

> <r_i_docking_score>
-8.05784284341305

> <r_i_glide_ligand_efficiency>
-0.217779536308461

> <r_i_glide_ligand_efficiency_sa>
-0.725689728854907

> <r_i_glide_ligand_efficiency_ln>
-1.74755721009835

> <r_i_glide_gscore>
-8.05784284341305

> <r_i_glide_lipo>
-4.35801877565598

> <r_i_glide_hbond>
-0.39382538570064

> <r_i_glide_metal>
0

> <r_i_glide_rewards>
-0.441666666666667

> <r_i_glide_evdw>
-53.8291969299316

> <r_i_glide_ecoul>
-6.5862865447998

> <r_i_glide_erotb>
0.845892722435558

> <r_i_glide_esite>
-0.0308219096087678

> <r_i_glide_emodel>
-80.342494513582

> <r_i_glide_energy>
-60.4154834747314

> <r_i_glide_einternal>
17.7411727905273

> <i_i_glide_confnum>
150

> <i_i_glide_posenum>
47

> <r_i_glide_eff_state_penalty>
0

> <s_user_duplicate_titles>
CHEMBL213_lig461

> <s_m_subgroup_title>
dock_pv

> <s_m_subgroupid>
dock_pv

> <b_m_subgroup_collapsed>
1

$$$$
CHEMBL213_lig1080
                    3D
 Schrodinger Suite 2021-1.
 83 85  0  0  1  0            999 V2000
   30.0369    2.6545   -5.8445 C   0  0  0  0  0  0
   28.6744    2.6559   -5.5382 C   0  0  0  0  0  0
   28.1815    3.4432   -4.4956 C   0  0  0  0  0  0
   29.0484    4.1953   -3.7175 C   0  0  0  0  0  0
   30.4180    4.1657   -3.9742 C   0  0  0  0  0  0
   30.8957    3.4022   -5.0517 C   0  0  0  0  0  0
   30.6038    1.8936   -7.0377 C   0  0  0  0  0  0
   29.9800    0.6500   -7.2150 O   0  0  0  0  0  0
   27.8080    1.9193   -6.2824 O   0  0  0  0  0  0
   31.3333    4.9714   -3.0621 C   0  0  2  0  0  0
   32.5863    5.5479   -3.7396 C   0  0  0  0  0  0
   31.6873    4.2499   -1.9042 O   0  0  0  0  0  0
   33.5521    4.5225   -4.1363 N   0  0  1  0  0  0
   34.8555    5.0258   -4.5381 C   0  0  0  0  0  0
   35.6867    5.4157   -3.3058 C   0  0  0  0  0  0
   35.9031    4.2838   -2.2895 C   0  0  0  0  0  0
   36.3065    4.8298   -0.9171 C   0  0  0  0  0  0
   36.0273    3.8159    0.1935 C   0  0  0  0  0  0
   36.2079    4.4046    1.5850 C   0  0  0  0  0  0
   35.2565    5.4251    1.8447 O   0  0  0  0  0  0
   35.4632    6.1034    3.0762 C   0  0  0  0  0  0
   34.3022    7.0782    3.2919 C   0  0  0  0  0  0
   32.9705    6.3867    3.6563 C   0  0  0  0  0  0
   31.7544    7.1933    3.1809 C   0  0  0  0  0  0
   30.4605    6.9149    3.9275 C   0  0  0  0  0  0
   29.4553    6.1568    3.3326 C   0  0  0  0  0  0
   28.1849    6.0467    3.9252 C   0  0  0  0  0  0
   27.9881    6.6141    5.1905 C   0  0  0  0  0  0
   29.0080    7.3194    5.8123 C   0  0  0  0  0  0
   30.2362    7.4877    5.1758 C   0  0  0  0  0  0
   27.0921    5.4184    3.2814 N   0  0  0  0  0  0
   25.9176    4.9754    3.9883 C   0  0  0  0  0  0
   25.0678    4.3745    2.9188 C   0  0  0  0  0  0
   25.7485    4.5957    1.7857 N   0  0  0  0  0  0
   26.9560    5.1949    1.9508 C   0  0  0  0  0  0
   27.7537    5.4500    1.0472 O   0  0  0  0  0  0
   23.9590    3.8655    3.0708 O   0  0  0  0  0  0
   25.1278    4.3406    0.4713 C   0  0  0  0  0  0
   25.8646    3.1725   -0.1490 C   0  0  0  0  0  0
   26.6080    3.4500   -1.2150 N   0  0  0  0  0  0
   25.8080    2.0648    0.3715 O   0  0  0  0  0  0
   27.1256    3.4637   -4.2687 H   0  0  0  0  0  0
   28.6509    4.7822   -2.9018 H   0  0  0  0  0  0
   31.9351    3.3532   -5.3159 H   0  0  0  0  0  0
   30.4708    2.4900   -7.9406 H   0  0  0  0  0  0
   31.6750    1.7235   -6.9286 H   0  0  0  0  0  0
   29.0500    0.8164   -7.0007 H   0  0  0  0  0  0
   26.9115    1.9973   -5.9166 H   0  0  0  0  0  0
   30.7675    5.8420   -2.7231 H   0  0  0  0  0  0
   33.0517    6.2500   -3.0509 H   0  0  0  0  0  0
   32.2081    6.0991   -4.6082 H   0  0  0  0  0  0
   30.8787    3.9091   -1.5125 H   0  0  0  0  0  0
   33.6522    3.8806   -3.3612 H   0  0  0  0  0  0
   34.7334    5.8499   -5.2404 H   0  0  0  0  0  0
   35.3707    4.2257   -5.0710 H   0  0  0  0  0  0
   35.1979    6.2491   -2.8135 H   0  0  0  0  0  0
   36.6603    5.7903   -3.6148 H   0  0  0  0  0  0
   36.6539    3.5806   -2.6548 H   0  0  0  0  0  0
   34.9868    3.7059   -2.1741 H   0  0  0  0  0  0
   35.7414    5.7376   -0.6986 H   0  0  0  0  0  0
   37.3599    5.1142   -0.9200 H   0  0  0  0  0  0
   36.6771    2.9479    0.0691 H   0  0  0  0  0  0
   35.0080    3.4498    0.1094 H   0  0  0  0  0  0
   37.2264    4.7901    1.6674 H   0  0  0  0  0  0
   36.0623    3.6034    2.3052 H   0  0  0  0  0  0
   36.4052    6.6537    3.0333 H   0  0  0  0  0  0
   35.5261    5.4063    3.9138 H   0  0  0  0  0  0
   34.1885    7.6726    2.3851 H   0  0  0  0  0  0
   34.5588    7.7897    4.0776 H   0  0  0  0  0  0
   32.9361    6.2233    4.7352 H   0  0  0  0  0  0
   32.9148    5.4022    3.1975 H   0  0  0  0  0  0
   31.6106    7.0508    2.1080 H   0  0  0  0  0  0
   31.9625    8.2500    3.2906 H   0  0  0  0  0  0
   29.6741    5.6992    2.3818 H   0  0  0  0  0  0
   27.0387    6.5555    5.7031 H   0  0  0  0  0  0
   28.8213    7.7537    6.7819 H   0  0  0  0  0  0
   31.0138    8.0931    5.6131 H   0  0  0  0  0  0
   25.3935    5.8092    4.4560 H   0  0  0  0  0  0
   26.2221    4.2501    4.7307 H   0  0  0  0  0  0
   25.2011    5.2248   -0.1627 H   0  0  0  0  0  0
   24.0673    4.0862    0.5374 H   0  0  0  0  0  0
   27.2232    2.7342   -1.5983 H   0  0  0  0  0  0
   26.3737    4.2500   -1.7856 H   0  0  0  0  0  0
  1  6  1  0  0  0
  1  2  2  0  0  0
  1  7  1  0  0  0
  2  3  1  0  0  0
  2  9  1  0  0  0
  3  4  2  0  0  0
  3 42  1  0  0  0
  4  5  1  0  0  0
  4 43  1  0  0  0
  5 10  1  0  0  0
  5  6  2  0  0  0
  6 44  1  0  0  0
  7  8  1  0  0  0
  7 45  1  0  0  0
  7 46  1  0  0  0
  8 47  1  0  0  0
  9 48  1  0  0  0
 10 11  1  0  0  0
 10 12  1  0  0  0
 10 49  1  0  0  0
 11 13  1  0  0  0
 11 50  1  0  0  0
 11 51  1  0  0  0
 12 52  1  0  0  0
 13 14  1  0  0  0
 13 53  1  0  0  0
 14 15  1  0  0  0
 14 54  1  0  0  0
 14 55  1  0  0  0
 15 16  1  0  0  0
 15 56  1  0  0  0
 15 57  1  0  0  0
 16 17  1  0  0  0
 16 58  1  0  0  0
 16 59  1  0  0  0
 17 18  1  0  0  0
 17 60  1  0  0  0
 17 61  1  0  0  0
 18 19  1  0  0  0
 18 62  1  0  0  0
 18 63  1  0  0  0
 19 20  1  0  0  0
 19 64  1  0  0  0
 19 65  1  0  0  0
 20 21  1  0  0  0
 21 22  1  0  0  0
 21 66  1  0  0  0
 21 67  1  0  0  0
 22 23  1  0  0  0
 22 68  1  0  0  0
 22 69  1  0  0  0
 23 24  1  0  0  0
 23 70  1  0  0  0
 23 71  1  0  0  0
 24 25  1  0  0  0
 24 72  1  0  0  0
 24 73  1  0  0  0
 25 26  2  0  0  0
 25 30  1  0  0  0
 26 27  1  0  0  0
 26 74  1  0  0  0
 27 28  2  0  0  0
 27 31  1  0  0  0
 28 29  1  0  0  0
 28 75  1  0  0  0
 29 30  2  0  0  0
 29 76  1  0  0  0
 30 77  1  0  0  0
 31 32  1  0  0  0
 31 35  1  0  0  0
 32 33  1  0  0  0
 32 78  1  0  0  0
 32 79  1  0  0  0
 33 34  1  0  0  0
 33 37  2  0  0  0
 34 35  1  0  0  0
 34 38  1  0  0  0
 35 36  2  0  0  0
 38 39  1  0  0  0
 38 80  1  0  0  0
 38 81  1  0  0  0
 39 40  1  0  0  0
 39 41  2  0  0  0
 40 82  1  0  0  0
 40 83  1  0  0  0
M  END
> <s_m_entry_id>
3002

> <s_m_entry_name>
dock_pv.94

> <s_m_Source_Path>
/home/csk/Desktop/cluster/DUD-E-result/adrb1

> <s_m_Source_File>
dock_pv.maegz

> <i_m_Source_File_Index>
94

> <chembl_id>
CHEMBL1814276

> <chembl_pref_name>
None

> <i_lp_mmshare_version>
53161

> <i_f3d_flags>
0

> <r_lp_tautomer_probability>
0.999999999997365

> <s_lp_Force_Field>
OPLS_2005

> <r_lp_Energy>
37.398304

> <b_lp_Chiralities_Consistent>
1

> <s_lp_Variant>
CHEMBL213_lig1080-1

> <s_i_glide_gridfile>
glide-grid_2vt4

> <i_i_glide_lignum>
1262

> <i_i_glide_rotatable_bonds>
22

> <r_i_docking_score>
-8.0494345661016

> <r_i_glide_ligand_efficiency>
-0.196327672343941

> <r_i_glide_ligand_efficiency_sa>
-0.676980463702585

> <r_i_glide_ligand_efficiency_ln>
-1.70771433048857

> <r_i_glide_gscore>
-8.0494345661016

> <r_i_glide_lipo>
-2.62413169908401

> <r_i_glide_hbond>
-0.330643228652984

> <r_i_glide_metal>
0

> <r_i_glide_rewards>
-2.01174567615459

> <r_i_glide_evdw>
-43.7143821716309

> <r_i_glide_ecoul>
-12.7215194702148

> <r_i_glide_erotb>
1.06173431269049

> <r_i_glide_esite>
-0.0507012457867297

> <r_i_glide_emodel>
-70.9371939621633

> <r_i_glide_energy>
-56.4359016418457

> <r_i_glide_einternal>
13.3020296096802

> <i_i_glide_confnum>
33

> <i_i_glide_posenum>
351

> <r_i_glide_eff_state_penalty>
0

> <s_user_duplicate_titles>
CHEMBL213_lig1080

> <s_m_subgroup_title>
dock_pv

> <s_m_subgroupid>
dock_pv

> <b_m_subgroup_collapsed>
1

$$$$
CHEMBL213_lig1226
                    3D
 Schrodinger Suite 2021-1.
 63 65  0  0  1  0            999 V2000
   27.5052    6.5573    4.8172 C   0  0  0  0  0  0
   28.1183    5.8586    3.7703 C   0  0  0  0  0  0
   27.3655    4.9919    2.9814 C   0  0  0  0  0  0
   26.0041    4.7722    3.2370 C   0  0  0  0  0  0
   25.4158    5.4512    4.3146 C   0  0  0  0  0  0
   26.1546    6.3457    5.0901 C   0  0  0  0  0  0
   28.2080    7.4500    5.5850 O   0  0  0  0  0  0
   29.4539    6.0209    3.5054 O   0  0  0  0  0  0
   25.1748    3.7759    2.3989 C   0  0  2  0  0  0
   25.6825    3.4568    0.9621 C   0  0  0  0  0  0
   25.9060    4.6497    0.1476 N   0  0  1  0  0  0
   26.9593    4.4346   -0.8363 C   0  0  0  0  0  0
   27.4779    5.7953   -1.3327 C   0  0  0  0  0  0
   28.7161    5.6799   -2.2108 C   0  0  0  0  0  0
   29.8668    5.0490   -1.7263 C   0  0  0  0  0  0
   31.0061    4.9344   -2.5214 C   0  0  0  0  0  0
   31.0070    5.4355   -3.8314 C   0  0  0  0  0  0
   29.8671    6.1174   -4.2930 C   0  0  0  0  0  0
   28.7290    6.2297   -3.4940 C   0  0  0  0  0  0
   32.1344    5.1980   -4.5955 O   0  0  0  0  0  0
   32.0547    5.2952   -6.0162 C   0  0  0  0  0  0
   32.8872    4.1881   -6.6758 C   0  0  0  0  0  0
   32.4978    2.7692   -6.2318 C   0  0  0  0  0  0
   31.0113    2.4523   -6.3605 C   0  0  0  0  0  0
   30.4550    2.2225   -7.6190 C   0  0  0  0  0  0
   29.0870    1.9919   -7.7473 C   0  0  0  0  0  0
   28.2798    1.9966   -6.6128 C   0  0  0  0  0  0
   28.8296    2.2074   -5.3508 C   0  0  0  0  0  0
   30.1988    2.4240   -5.2227 C   0  0  0  0  0  0
   32.0965    4.2716   -2.0145 O   0  0  0  0  0  0
   33.1653    5.1167   -1.6044 C   0  0  0  0  0  0
   23.8080    4.1059    2.3252 O   0  0  0  0  0  0
   27.8496    4.4788    2.1659 H   0  0  0  0  0  0
   24.3772    5.2835    4.5581 H   0  0  0  0  0  0
   25.6736    6.8692    5.9045 H   0  0  0  0  0  0
   27.6379    7.9212    6.2119 H   0  0  0  0  0  0
   29.8122    5.3522    2.9178 H   0  0  0  0  0  0
   25.1896    2.8399    2.9555 H   0  0  0  0  0  0
   24.9962    2.7828    0.4456 H   0  0  0  0  0  0
   26.6080    2.8948    1.0564 H   0  0  0  0  0  0
   25.0615    4.8440   -0.3765 H   0  0  0  0  0  0
   26.6078    3.8290   -1.6745 H   0  0  0  0  0  0
   27.7901    3.8689   -0.4116 H   0  0  0  0  0  0
   27.7401    6.4252   -0.4794 H   0  0  0  0  0  0
   26.6808    6.3238   -1.8598 H   0  0  0  0  0  0
   29.8830    4.6351   -0.7280 H   0  0  0  0  0  0
   29.8413    6.5660   -5.2727 H   0  0  0  0  0  0
   27.8590    6.7429   -3.8781 H   0  0  0  0  0  0
   32.4510    6.2500   -6.3373 H   0  0  0  0  0  0
   31.0410    5.2144   -6.4090 H   0  0  0  0  0  0
   33.9433    4.3573   -6.4591 H   0  0  0  0  0  0
   32.7900    4.2684   -7.7583 H   0  0  0  0  0  0
   32.8067    2.6500   -5.1904 H   0  0  0  0  0  0
   33.0656    2.0429   -6.8151 H   0  0  0  0  0  0
   31.0786    2.2464   -8.5011 H   0  0  0  0  0  0
   28.6529    1.8357   -8.7248 H   0  0  0  0  0  0
   27.2158    1.8518   -6.7121 H   0  0  0  0  0  0
   28.1948    2.2176   -4.4767 H   0  0  0  0  0  0
   30.6193    2.5997   -4.2423 H   0  0  0  0  0  0
   33.9634    4.5048   -1.1828 H   0  0  0  0  0  0
   33.5859    5.6774   -2.4409 H   0  0  0  0  0  0
   32.8473    5.8227   -0.8341 H   0  0  0  0  0  0
   23.4785    3.8464    1.4607 H   0  0  0  0  0  0
  1  2  1  0  0  0
  1  6  2  0  0  0
  1  7  1  0  0  0
  2  3  2  0  0  0
  2  8  1  0  0  0
  3  4  1  0  0  0
  3 33  1  0  0  0
  4  5  2  0  0  0
  4  9  1  0  0  0
  5  6  1  0  0  0
  5 34  1  0  0  0
  6 35  1  0  0  0
  7 36  1  0  0  0
  8 37  1  0  0  0
  9 10  1  0  0  0
  9 32  1  0  0  0
  9 38  1  0  0  0
 10 11  1  0  0  0
 10 39  1  0  0  0
 10 40  1  0  0  0
 11 12  1  0  0  0
 11 41  1  0  0  0
 12 13  1  0  0  0
 12 42  1  0  0  0
 12 43  1  0  0  0
 13 14  1  0  0  0
 13 44  1  0  0  0
 13 45  1  0  0  0
 14 15  1  0  0  0
 14 19  2  0  0  0
 15 16  2  0  0  0
 15 46  1  0  0  0
 16 17  1  0  0  0
 16 30  1  0  0  0
 17 18  2  0  0  0
 17 20  1  0  0  0
 18 19  1  0  0  0
 18 47  1  0  0  0
 19 48  1  0  0  0
 20 21  1  0  0  0
 21 22  1  0  0  0
 21 49  1  0  0  0
 21 50  1  0  0  0
 22 23  1  0  0  0
 22 51  1  0  0  0
 22 52  1  0  0  0
 23 24  1  0  0  0
 23 53  1  0  0  0
 23 54  1  0  0  0
 24 25  1  0  0  0
 24 29  2  0  0  0
 25 26  2  0  0  0
 25 55  1  0  0  0
 26 27  1  0  0  0
 26 56  1  0  0  0
 27 28  2  0  0  0
 27 57  1  0  0  0
 28 29  1  0  0  0
 28 58  1  0  0  0
 29 59  1  0  0  0
 30 31  1  0  0  0
 31 60  1  0  0  0
 31 61  1  0  0  0
 31 62  1  0  0  0
 32 63  1  0  0  0
M  END
> <s_m_entry_id>
3003

> <s_m_entry_name>
dock_pv.95

> <s_m_Source_Path>
/home/csk/Desktop/cluster/DUD-E-result/adrb1

> <s_m_Source_File>
dock_pv.maegz

> <i_m_Source_File_Index>
95

> <chembl_id>
CHEMBL3800303

> <chembl_pref_name>
None

> <i_lp_mmshare_version>
53161

> <i_f3d_flags>
0

> <r_lp_tautomer_probability>
0.999999999999776

> <s_lp_Force_Field>
OPLS_2005

> <r_lp_Energy>
31.320409

> <b_lp_Chiralities_Consistent>
1

> <s_lp_Variant>
CHEMBL213_lig1226-1

> <s_i_glide_gridfile>
glide-grid_2vt4

> <i_i_glide_lignum>
1459

> <i_i_glide_rotatable_bonds>
15

> <r_i_docking_score>
-8.04939846360191

> <r_i_glide_ligand_efficiency>
-0.25154370198756

> <r_i_glide_ligand_efficiency_sa>
-0.798601473379474

> <r_i_glide_ligand_efficiency_ln>
-1.80247973431556

> <r_i_glide_gscore>
-8.04939846360191

> <r_i_glide_lipo>
-3.88794747139635

> <r_i_glide_hbond>
0

> <r_i_glide_metal>
0

> <r_i_glide_rewards>
-1.24252483031369

> <r_i_glide_evdw>
-49.4957733154297

> <r_i_glide_ecoul>
-9.90584564208984

> <r_i_glide_erotb>
1.0417393501931

> <r_i_glide_esite>
0

> <r_i_glide_emodel>
-81.3651540399324

> <r_i_glide_energy>
-59.4016189575195

> <r_i_glide_einternal>
12.7031784057617

> <i_i_glide_confnum>
182

> <i_i_glide_posenum>
124

> <r_i_glide_eff_state_penalty>
0

> <s_user_duplicate_titles>
CHEMBL213_lig1226

> <s_m_subgroup_title>
dock_pv

> <s_m_subgroupid>
dock_pv

> <b_m_subgroup_collapsed>
1

$$$$
CHEMBL213_lig1169
                    3D
 Schrodinger Suite 2021-1.
 77 81  0  0  1  0            999 V2000
   24.0421    4.1050    2.8475 C   0  0  0  0  0  0
   24.7931    4.7458    3.8320 C   0  0  0  0  0  0
   25.9044    4.2497    1.2854 C   0  0  0  0  0  0
   24.5927    3.8500    1.5966 C   0  0  0  0  0  0
   24.2070    5.0500    5.0397 O   0  0  0  0  0  0
   26.4974    3.9134   -0.0918 C   0  0  2  0  0  0
   26.8232    5.1084   -1.0328 C   0  0  0  0  0  0
   27.8107    4.6494   -2.0138 N   0  0  2  0  0  0
   27.6853    5.1525   -3.3795 C   0  0  0  0  0  0
   28.8090    6.1273   -3.7828 C   0  0  0  0  0  0
   30.2412    5.5982   -3.6657 C   0  0  0  0  0  0
   30.8059    5.4500   -2.4023 C   0  0  0  0  0  0
   32.1621    5.1941   -2.2583 C   0  0  0  0  0  0
   32.9698    5.0089   -3.3859 C   0  0  0  0  0  0
   32.3801    5.0503   -4.6534 C   0  0  0  0  0  0
   31.0267    5.3637   -4.7977 C   0  0  0  0  0  0
   25.7291    2.9799   -0.8149 O   0  0  0  0  0  0
   26.6712    4.8779    2.2914 C   0  0  0  0  0  0
   26.1083    5.1309    3.5588 C   0  0  0  0  0  0
   26.8862    5.7654    4.5530 N   0  0  0  0  0  0
   28.1870    6.1159    4.4694 C   0  0  0  0  0  0
   28.7832    5.8004    3.1844 C   0  0  0  0  0  0
   28.0987    5.2501    2.1525 C   0  0  0  0  0  0
   28.7783    6.6501    5.4034 O   0  0  0  0  0  0
   34.3703    4.8760   -3.3101 N   0  0  0  0  0  0
   35.2617    4.8868   -2.2203 C   0  0  0  0  0  0
   34.9325    4.3487   -0.9752 C   0  0  0  0  0  0
   35.8086    4.4443    0.0999 C   0  0  0  0  0  0
   37.0314    5.0857   -0.0576 C   0  0  0  0  0  0
   37.4059    5.5644   -1.3189 C   0  0  0  0  0  0
   36.5267    5.4498   -2.3970 C   0  0  0  0  0  0
   37.8281    5.2160    1.0555 O   0  0  0  0  0  0
   38.3478    6.5188    1.3154 C   0  0  0  0  0  0
   38.4151    6.7597    2.8392 C   0  0  0  0  0  0
   37.1208    6.6500    3.5257 N   0  0  0  0  0  0
   36.1719    7.7115    3.1552 C   0  0  0  0  0  0
   34.8241    7.4882    3.8839 C   0  0  0  0  0  0
   35.0007    7.4978    5.3382 N   0  0  0  0  0  0
   35.9481    6.4470    5.7070 C   0  0  0  0  0  0
   37.3037    6.6499    4.9847 C   0  0  0  0  0  0
   23.0204    3.8088    3.0438 H   0  0  0  0  0  0
   23.9746    3.3521    0.8616 H   0  0  0  0  0  0
   23.2473    4.9996    5.0223 H   0  0  0  0  0  0
   27.4080    3.3748    0.1303 H   0  0  0  0  0  0
   25.9105    5.4890   -1.4946 H   0  0  0  0  0  0
   27.2592    5.9403   -0.4806 H   0  0  0  0  0  0
   27.8120    3.6316   -2.0348 H   0  0  0  0  0  0
   27.7538    4.2732   -4.0220 H   0  0  0  0  0  0
   26.7091    5.6011   -3.5730 H   0  0  0  0  0  0
   28.6325    6.4600   -4.8052 H   0  0  0  0  0  0
   28.7269    7.0334   -3.1808 H   0  0  0  0  0  0
   30.2097    5.6275   -1.5189 H   0  0  0  0  0  0
   32.5568    5.2225   -1.2579 H   0  0  0  0  0  0
   32.9858    4.9183   -5.5382 H   0  0  0  0  0  0
   30.6071    5.4747   -5.7877 H   0  0  0  0  0  0
   25.2602    3.4495   -1.5214 H   0  0  0  0  0  0
   26.4566    5.9756    5.4399 H   0  0  0  0  0  0
   29.8309    6.0369    3.0643 H   0  0  0  0  0  0
   28.6273    5.0557    1.2298 H   0  0  0  0  0  0
   34.8270    5.0134   -4.2005 H   0  0  0  0  0  0
   33.9938    3.8494   -0.8249 H   0  0  0  0  0  0
   35.5322    4.0388    1.0616 H   0  0  0  0  0  0
   38.3695    6.0293   -1.4639 H   0  0  0  0  0  0
   36.8182    5.8497   -3.3557 H   0  0  0  0  0  0
   39.3519    6.5773    0.8913 H   0  0  0  0  0  0
   37.7691    7.3113    0.8354 H   0  0  0  0  0  0
   39.1028    6.0243    3.2590 H   0  0  0  0  0  0
   38.8518    7.7385    3.0289 H   0  0  0  0  0  0
   36.5753    8.6984    3.3914 H   0  0  0  0  0  0
   35.9865    7.6907    2.0813 H   0  0  0  0  0  0
   34.3746    6.5421    3.5757 H   0  0  0  0  0  0
   34.0994    8.2498    3.6004 H   0  0  0  0  0  0
   34.1054    7.3315    5.7801 H   0  0  0  0  0  0
   35.5161    5.4758    5.4624 H   0  0  0  0  0  0
   36.0807    6.4480    6.7892 H   0  0  0  0  0  0
   37.9879    5.8500    5.2706 H   0  0  0  0  0  0
   37.7582    7.5847    5.3090 H   0  0  0  0  0  0
  1  2  2  0  0  0
  1  4  1  0  0  0
  1 41  1  0  0  0
  2 19  1  0  0  0
  2  5  1  0  0  0
  3 18  1  0  0  0
  3  4  2  0  0  0
  3  6  1  0  0  0
  4 42  1  0  0  0
  5 43  1  0  0  0
  6  7  1  0  0  0
  6 17  1  0  0  0
  6 44  1  0  0  0
  7  8  1  0  0  0
  7 45  1  0  0  0
  7 46  1  0  0  0
  8  9  1  0  0  0
  8 47  1  0  0  0
  9 10  1  0  0  0
  9 48  1  0  0  0
  9 49  1  0  0  0
 10 11  1  0  0  0
 10 50  1  0  0  0
 10 51  1  0  0  0
 11 12  2  0  0  0
 11 16  1  0  0  0
 12 13  1  0  0  0
 12 52  1  0  0  0
 13 14  2  0  0  0
 13 53  1  0  0  0
 14 15  1  0  0  0
 14 25  1  0  0  0
 15 16  2  0  0  0
 15 54  1  0  0  0
 16 55  1  0  0  0
 17 56  1  0  0  0
 18 19  2  0  0  0
 18 23  1  0  0  0
 19 20  1  0  0  0
 20 21  1  0  0  0
 20 57  1  0  0  0
 21 22  1  0  0  0
 21 24  2  0  0  0
 22 23  2  0  0  0
 22 58  1  0  0  0
 23 59  1  0  0  0
 25 26  1  0  0  0
 25 60  1  0  0  0
 26 27  2  0  0  0
 26 31  1  0  0  0
 27 28  1  0  0  0
 27 61  1  0  0  0
 28 29  2  0  0  0
 28 62  1  0  0  0
 29 30  1  0  0  0
 29 32  1  0  0  0
 30 31  2  0  0  0
 30 63  1  0  0  0
 31 64  1  0  0  0
 32 33  1  0  0  0
 33 34  1  0  0  0
 33 65  1  0  0  0
 33 66  1  0  0  0
 34 35  1  0  0  0
 34 67  1  0  0  0
 34 68  1  0  0  0
 35 36  1  0  0  0
 35 40  1  0  0  0
 36 37  1  0  0  0
 36 69  1  0  0  0
 36 70  1  0  0  0
 37 38  1  0  0  0
 37 71  1  0  0  0
 37 72  1  0  0  0
 38 39  1  0  0  0
 38 73  1  0  0  0
 39 40  1  0  0  0
 39 74  1  0  0  0
 39 75  1  0  0  0
 40 76  1  0  0  0
 40 77  1  0  0  0
M  END
> <s_m_entry_id>
3004

> <s_m_entry_name>
dock_pv.96

> <s_m_Source_Path>
/home/csk/Desktop/cluster/DUD-E-result/adrb1

> <s_m_Source_File>
dock_pv.maegz

> <i_m_Source_File_Index>
96

> <chembl_id>
CHEMBL3298897

> <chembl_pref_name>
None

> <i_lp_mmshare_version>
53161

> <i_f3d_flags>
0

> <r_lp_tautomer_probability>
1

> <s_lp_Force_Field>
OPLS_2005

> <r_lp_Energy>
71.572099

> <b_lp_Chiralities_Consistent>
1

> <s_lp_Variant>
CHEMBL213_lig1169-1

> <s_i_glide_gridfile>
glide-grid_2vt4

> <i_i_glide_lignum>
1365

> <i_i_glide_rotatable_bonds>
14

> <r_i_docking_score>
-8.04450876526075

> <r_i_glide_ligand_efficiency>
-0.201112719131519

> <r_i_glide_ligand_efficiency_sa>
-0.687795823725555

> <r_i_glide_ligand_efficiency_ln>
-1.71565698030532

> <r_i_glide_gscore>
-8.04450876526075

> <r_i_glide_lipo>
-3.41174291760327

> <r_i_glide_hbond>
-1.09250252961852

> <r_i_glide_metal>
0

> <r_i_glide_rewards>
0.206249393380429

> <r_i_glide_evdw>
-52.1726150512695

> <r_i_glide_ecoul>
-12.7202672958374

> <r_i_glide_erotb>
0.770158135519699

> <r_i_glide_esite>
0

> <r_i_glide_emodel>
-79.162672034459

> <r_i_glide_energy>
-64.8928823471069

> <r_i_glide_einternal>
26.6412010192871

> <i_i_glide_confnum>
6

> <i_i_glide_posenum>
174

> <r_i_glide_eff_state_penalty>
0

> <s_user_duplicate_titles>
CHEMBL213_lig1169

> <s_m_subgroup_title>
dock_pv

> <s_m_subgroupid>
dock_pv

> <b_m_subgroup_collapsed>
1

$$$$
CHEMBL213_lig422
                    3D
 Schrodinger Suite 2021-1.
 59 61  0  0  1  0            999 V2000
   24.6080    5.0500    4.4564 C   0  0  0  0  0  0
   25.4780    5.8500    5.1885 C   0  0  0  0  0  0
   26.2080    4.8909    2.6428 C   0  0  0  0  0  0
   24.9500    4.6085    3.1850 C   0  0  0  0  0  0
   27.1421    5.5572    3.4637 C   0  0  0  0  0  0
   26.7639    6.0760    4.7022 C   0  0  0  0  0  0
   27.7716    6.7878    5.3312 N   0  0  0  0  0  0
   29.0080    6.8111    4.7326 C   0  0  0  0  0  0
   28.8549    5.8500    3.1850 S   0  0  0  0  0  0
   30.0288    7.3487    5.1503 O   0  0  0  0  0  0
   25.0669    6.3762    6.3850 O   0  0  0  0  0  0
   26.5215    4.4577    1.2028 C   0  0  2  0  0  0
   26.7784    5.6471    0.2465 C   0  0  0  0  0  0
   25.5414    3.6285    0.5973 O   0  0  0  0  0  0
   27.4543    5.1871   -0.9622 N   0  0  1  0  0  0
   27.7692    6.2808   -1.8717 C   0  0  0  0  0  0
   28.7687    5.8094   -2.9437 C   0  0  0  0  0  0
   30.2997    5.0498   -2.3074 S   0  0  0  0  0  0
   31.3856    5.1655   -3.7581 C   0  0  0  0  0  0
   32.6512    4.2831   -3.7033 C   0  0  0  0  0  0
   33.5650    4.4769   -2.4745 C   0  0  0  0  0  0
   34.0515    5.8500   -2.4150 N   0  0  1  0  0  0
   35.0662    6.0733   -1.3879 C   0  0  0  0  0  0
   34.6083    5.7715    0.0594 C   0  0  0  0  0  0
   35.5924    6.2275    1.1385 C   0  0  0  0  0  0
   35.1128    6.7757    2.3356 C   0  0  0  0  0  0
   36.0013    7.1847    3.3334 C   0  0  0  0  0  0
   37.3760    7.0511    3.1404 C   0  0  0  0  0  0
   37.8633    6.5055    1.9540 C   0  0  0  0  0  0
   36.9760    6.0875    0.9622 C   0  0  0  0  0  0
   35.4080    7.8500    4.8115 Cl  0  0  0  0  0  0
   23.6225    4.8375    4.8454 H   0  0  0  0  0  0
   24.2102    4.0604    2.6194 H   0  0  0  0  0  0
   27.6205    7.3064    6.1866 H   0  0  0  0  0  0
   25.6329    7.0777    6.7234 H   0  0  0  0  0  0
   27.4080    3.8500    1.2887 H   0  0  0  0  0  0
   27.4080    6.3869    0.7403 H   0  0  0  0  0  0
   25.8403    6.1404   -0.0150 H   0  0  0  0  0  0
   25.6370    3.7286   -0.3577 H   0  0  0  0  0  0
   28.2942    4.6562   -0.7654 H   0  0  0  0  0  0
   28.2080    7.1162   -1.3240 H   0  0  0  0  0  0
   26.8534    6.6377   -2.3467 H   0  0  0  0  0  0
   29.0338    6.6500   -3.5858 H   0  0  0  0  0  0
   28.2806    5.0783   -3.5900 H   0  0  0  0  0  0
   31.6724    6.2115   -3.8708 H   0  0  0  0  0  0
   30.8051    4.9161   -4.6471 H   0  0  0  0  0  0
   33.2333    4.4363   -4.6133 H   0  0  0  0  0  0
   32.3408    3.2381   -3.7344 H   0  0  0  0  0  0
   34.4053    3.7827   -2.5352 H   0  0  0  0  0  0
   33.0061    4.2481   -1.5665 H   0  0  0  0  0  0
   34.4590    6.0786   -3.3133 H   0  0  0  0  0  0
   35.3841    7.1155   -1.4457 H   0  0  0  0  0  0
   35.9633    5.5040   -1.6359 H   0  0  0  0  0  0
   34.4401    4.7020    0.1878 H   0  0  0  0  0  0
   33.6422    6.2500    0.2262 H   0  0  0  0  0  0
   34.0488    6.8885    2.4915 H   0  0  0  0  0  0
   38.0647    7.3681    3.9095 H   0  0  0  0  0  0
   38.9276    6.3952    1.8038 H   0  0  0  0  0  0
   37.3774    5.6513    0.0589 H   0  0  0  0  0  0
  1  4  1  0  0  0
  1  2  2  0  0  0
  1 32  1  0  0  0
  2 11  1  0  0  0
  2  6  1  0  0  0
  3  4  2  0  0  0
  3 12  1  0  0  0
  3  5  1  0  0  0
  4 33  1  0  0  0
  5  9  1  0  0  0
  5  6  2  0  0  0
  6  7  1  0  0  0
  7  8  1  0  0  0
  7 34  1  0  0  0
  8  9  1  0  0  0
  8 10  2  0  0  0
 11 35  1  0  0  0
 12 13  1  0  0  0
 12 14  1  0  0  0
 12 36  1  0  0  0
 13 15  1  0  0  0
 13 37  1  0  0  0
 13 38  1  0  0  0
 14 39  1  0  0  0
 15 16  1  0  0  0
 15 40  1  0  0  0
 16 17  1  0  0  0
 16 41  1  0  0  0
 16 42  1  0  0  0
 17 18  1  0  0  0
 17 43  1  0  0  0
 17 44  1  0  0  0
 18 19  1  0  0  0
 19 20  1  0  0  0
 19 45  1  0  0  0
 19 46  1  0  0  0
 20 21  1  0  0  0
 20 47  1  0  0  0
 20 48  1  0  0  0
 21 22  1  0  0  0
 21 49  1  0  0  0
 21 50  1  0  0  0
 22 23  1  0  0  0
 22 51  1  0  0  0
 23 24  1  0  0  0
 23 52  1  0  0  0
 23 53  1  0  0  0
 24 25  1  0  0  0
 24 54  1  0  0  0
 24 55  1  0  0  0
 25 26  2  0  0  0
 25 30  1  0  0  0
 26 27  1  0  0  0
 26 56  1  0  0  0
 27 28  2  0  0  0
 27 31  1  0  0  0
 28 29  1  0  0  0
 28 57  1  0  0  0
 29 30  2  0  0  0
 29 58  1  0  0  0
 30 59  1  0  0  0
M  END
> <s_m_entry_id>
3005

> <s_m_entry_name>
dock_pv.97

> <s_m_Source_Path>
/home/csk/Desktop/cluster/DUD-E-result/adrb1

> <s_m_Source_File>
dock_pv.maegz

> <i_m_Source_File_Index>
97

> <chembl_id>
CHEMBL1807827

> <chembl_pref_name>
None

> <i_lp_mmshare_version>
53161

> <i_f3d_flags>
0

> <r_lp_tautomer_probability>
1

> <s_lp_Force_Field>
OPLS_2005

> <r_lp_Energy>
33.146087

> <b_lp_Chiralities_Consistent>
1

> <s_lp_Variant>
CHEMBL213_lig422-1

> <s_i_glide_gridfile>
glide-grid_2vt4

> <i_i_glide_lignum>
496

> <i_i_glide_rotatable_bonds>
15

> <r_i_docking_score>
-8.04294410545674

> <r_i_glide_ligand_efficiency>
-0.259449809853443

> <r_i_glide_ligand_efficiency_sa>
-0.815030612007298

> <r_i_glide_ligand_efficiency_ln>
-1.8139303824154

> <r_i_glide_gscore>
-8.04294410545674

> <r_i_glide_lipo>
-3.34779569512092

> <r_i_glide_hbond>
-0.611566331084209

> <r_i_glide_metal>
0

> <r_i_glide_rewards>
-1.27564660606061

> <r_i_glide_evdw>
-50.4196548461914

> <r_i_glide_ecoul>
-6.80273914337158

> <r_i_glide_erotb>
0.733458140624295

> <r_i_glide_esite>
0

> <r_i_glide_emodel>
-79.1084352856111

> <r_i_glide_energy>
-57.222393989563

> <r_i_glide_einternal>
9.68525409698486

> <i_i_glide_confnum>
239

> <i_i_glide_posenum>
54

> <r_i_glide_eff_state_penalty>
0

> <s_user_duplicate_titles>
CHEMBL213_lig422

> <s_m_subgroup_title>
dock_pv

> <s_m_subgroupid>
dock_pv

> <b_m_subgroup_collapsed>
1

$$$$
CHEMBL213_lig617
                    3D
 Schrodinger Suite 2021-1.
 76 79  0  0  1  0            999 V2000
   37.9817    6.8519    1.9189 S   0  0  0  0  0  0
   37.0239    7.4230    3.3277 N   0  0  1  0  0  0
   33.5066    4.8665   -2.9939 C   0  0  0  0  0  0
   30.8676    4.7294   -4.7857 C   0  0  0  0  0  0
   36.9008    6.0159    0.7386 C   0  0  0  0  0  0
   38.4539    8.0536    1.2203 O   0  0  0  0  0  0
   38.9447    5.8577    2.4026 O   0  0  0  0  0  0
   34.5685    4.3274   -2.3481 N   0  0  0  0  0  0
   33.2550    4.2684   -4.1709 N   0  0  0  0  0  0
   30.1850    3.5053   -4.7847 C   0  0  0  0  0  0
   32.3387    4.8055   -5.1867 C   0  0  0  0  0  0
   30.1871    5.8943   -4.4180 C   0  0  0  0  0  0
   36.0069    8.4892    3.1505 C   0  0  0  0  0  0
   36.6890    6.4964    4.4307 C   0  0  0  0  0  0
   32.8653    5.8465   -2.6018 O   0  0  0  0  0  0
   36.9770    4.6433    0.4613 C   0  0  0  0  0  0
   36.0493    6.8069   -0.0133 C   0  0  0  0  0  0
   28.8405    3.4536   -4.4149 C   0  0  0  0  0  0
   31.7050    7.0504    3.5704 N   0  0  2  0  0  0
   35.3087    4.9066   -1.2946 C   0  0  0  0  0  0
   28.3886    5.8778    2.8482 O   0  0  0  0  0  0
   28.8538    5.8339   -4.0117 C   0  0  0  0  0  0
   27.3028    5.2298    2.2850 C   0  0  0  0  0  0
   29.3763    7.4927    4.4388 C   0  0  1  0  0  0
   30.8128    2.3669   -5.1526 F   0  0  0  0  0  0
   25.2290    3.8681    0.9995 C   0  0  0  0  0  0
   28.2803    6.4259    4.1637 C   0  0  0  0  0  0
   35.2544    6.2757   -1.0076 C   0  0  0  0  0  0
   36.1855    4.0946   -0.5574 C   0  0  0  0  0  0
   28.1790    4.6140   -4.0152 C   0  0  0  0  0  0
   35.3418    5.8012    4.1473 C   0  0  0  0  0  0
   34.6023    7.8842    2.8871 C   0  0  0  0  0  0
   28.2135    6.9571   -3.6176 F   0  0  0  0  0  0
   27.3261    5.0482    0.9002 C   0  0  0  0  0  0
   26.2084    4.7474    3.0212 C   0  0  0  0  0  0
   25.1790    4.0623    2.3777 C   0  0  0  0  0  0
   26.2929    4.3706    0.2526 C   0  0  0  0  0  0
   29.0082    8.2500    5.5845 O   0  0  0  0  0  0
   24.2089    3.1927    0.3854 O   0  0  0  0  0  0
   34.2094    6.8547    3.9719 C   0  0  0  0  0  0
   30.7858    6.9041    4.6975 C   0  0  0  0  0  0
   32.8556    6.1590    3.7131 C   0  0  0  0  0  0
   34.8765    3.4147   -2.6391 H   0  0  0  0  0  0
   33.7179    3.3991   -4.3903 H   0  0  0  0  0  0
   32.6082    5.8460   -5.4011 H   0  0  0  0  0  0
   32.4856    4.2493   -6.1127 H   0  0  0  0  0  0
   30.6938    6.8490   -4.4186 H   0  0  0  0  0  0
   35.9594    9.0539    4.0839 H   0  0  0  0  0  0
   36.3486    9.1807    2.3854 H   0  0  0  0  0  0
   36.5709    7.0951    5.3346 H   0  0  0  0  0  0
   37.5415    5.8498    4.6212 H   0  0  0  0  0  0
   37.6755    4.0114    0.9844 H   0  0  0  0  0  0
   36.0064    7.8524    0.1698 H   0  0  0  0  0  0
   28.3142    2.5110   -4.4154 H   0  0  0  0  0  0
   32.0435    8.0068    3.5539 H   0  0  0  0  0  0
   29.4258    8.1946    3.6100 H   0  0  0  0  0  0
   27.3022    6.9062    4.2671 H   0  0  0  0  0  0
   28.3166    5.6282    4.9088 H   0  0  0  0  0  0
   34.6377    6.9629   -1.5626 H   0  0  0  0  0  0
   36.2862    3.0405   -0.7801 H   0  0  0  0  0  0
   27.1408    4.5707   -3.7157 H   0  0  0  0  0  0
   35.0825    5.1199    4.9595 H   0  0  0  0  0  0
   35.4096    5.1704    3.2573 H   0  0  0  0  0  0
   34.5724    7.3891    1.9260 H   0  0  0  0  0  0
   33.8322    8.6482    2.8066 H   0  0  0  0  0  0
   28.1607    5.4212    0.3258 H   0  0  0  0  0  0
   26.1564    4.8684    4.0913 H   0  0  0  0  0  0
   24.3436    3.6786    2.9457 H   0  0  0  0  0  0
   26.3236    4.2255   -0.8172 H   0  0  0  0  0  0
   28.0494    8.3304    5.6405 H   0  0  0  0  0  0
   24.0380    3.4224   -0.5419 H   0  0  0  0  0  0
   34.1446    7.3959    4.9190 H   0  0  0  0  0  0
   31.2595    7.3851    5.5588 H   0  0  0  0  0  0
   30.6657    5.8502    4.9402 H   0  0  0  0  0  0
   32.7128    5.4467    4.5180 H   0  0  0  0  0  0
   32.9189    5.5684    2.8005 H   0  0  0  0  0  0
  1  2  1  0  0  0
  1  5  1  0  0  0
  1  6  2  0  0  0
  1  7  2  0  0  0
  2 13  1  0  0  0
  2 14  1  0  0  0
  3  8  1  0  0  0
  3  9  1  0  0  0
  3 15  2  0  0  0
  4 11  1  0  0  0
  4 10  1  0  0  0
  4 12  2  0  0  0
  5 16  1  0  0  0
  5 17  2  0  0  0
  8 20  1  0  0  0
  8 43  1  0  0  0
  9 11  1  0  0  0
  9 44  1  0  0  0
 10 18  2  0  0  0
 10 25  1  0  0  0
 11 45  1  0  0  0
 11 46  1  0  0  0
 12 22  1  0  0  0
 12 47  1  0  0  0
 13 32  1  0  0  0
 13 48  1  0  0  0
 13 49  1  0  0  0
 14 31  1  0  0  0
 14 50  1  0  0  0
 14 51  1  0  0  0
 16 29  2  0  0  0
 16 52  1  0  0  0
 17 28  1  0  0  0
 17 53  1  0  0  0
 18 30  1  0  0  0
 18 54  1  0  0  0
 19 42  1  0  0  0
 19 41  1  0  0  0
 19 55  1  0  0  0
 20 28  2  0  0  0
 20 29  1  0  0  0
 21 27  1  0  0  0
 21 23  1  0  0  0
 22 30  2  0  0  0
 22 33  1  0  0  0
 23 34  1  0  0  0
 23 35  2  0  0  0
 24 41  1  0  0  0
 24 27  1  0  0  0
 24 38  1  0  0  0
 24 56  1  0  0  0
 26 36  2  0  0  0
 26 39  1  0  0  0
 26 37  1  0  0  0
 27 57  1  0  0  0
 27 58  1  0  0  0
 28 59  1  0  0  0
 29 60  1  0  0  0
 30 61  1  0  0  0
 31 40  1  0  0  0
 31 62  1  0  0  0
 31 63  1  0  0  0
 32 40  1  0  0  0
 32 64  1  0  0  0
 32 65  1  0  0  0
 34 37  2  0  0  0
 34 66  1  0  0  0
 35 36  1  0  0  0
 35 67  1  0  0  0
 36 68  1  0  0  0
 37 69  1  0  0  0
 38 70  1  0  0  0
 39 71  1  0  0  0
 40 42  1  0  0  0
 40 72  1  0  0  0
 41 73  1  0  0  0
 41 74  1  0  0  0
 42 75  1  0  0  0
 42 76  1  0  0  0
M  END
> <s_m_entry_id>
3006

> <s_m_entry_name>
dock_pv.98

> <s_m_Source_Path>
/home/csk/Desktop/cluster/DUD-E-result/adrb1

> <s_m_Source_File>
dock_pv.maegz

> <i_m_Source_File_Index>
98

> <chembl_id>
CHEMBL100057

> <chembl_pref_name>
None

> <i_lp_mmshare_version>
53161

> <i_f3d_flags>
0

> <r_lp_tautomer_probability>
1

> <s_lp_Force_Field>
OPLS_2005

> <r_lp_Energy>
37.503847

> <b_lp_Chiralities_Consistent>
1

> <s_lp_Variant>
CHEMBL213_lig617-1

> <s_i_glide_gridfile>
glide-grid_2vt4

> <i_i_glide_lignum>
719

> <i_i_glide_rotatable_bonds>
16

> <r_i_docking_score>
-8.03530265623714

> <r_i_glide_ligand_efficiency>
-0.191316729910408

> <r_i_glide_ligand_efficiency_sa>
-0.665022049952578

> <r_i_glide_ligand_efficiency_ln>
-1.69604537750537

> <r_i_glide_gscore>
-8.03530265623714

> <r_i_glide_lipo>
-2.99799593007377

> <r_i_glide_hbond>
-0.654237012276188

> <r_i_glide_metal>
0

> <r_i_glide_rewards>
-0.47630712210513

> <r_i_glide_evdw>
-60.3520202636719

> <r_i_glide_ecoul>
-10.1086263656616

> <r_i_glide_erotb>
0.627132376250788

> <r_i_glide_esite>
0

> <r_i_glide_emodel>
-92.9000920877783

> <r_i_glide_energy>
-70.4606466293335

> <r_i_glide_einternal>
21.2566947937012

> <i_i_glide_confnum>
39

> <i_i_glide_posenum>
49

> <r_i_glide_eff_state_penalty>
0

> <s_user_duplicate_titles>
CHEMBL213_lig617

> <s_m_subgroup_title>
dock_pv

> <s_m_subgroupid>
dock_pv

> <b_m_subgroup_collapsed>
1

$$$$
CHEMBL213_lig423
                    3D
 Schrodinger Suite 2021-1.
 62 64  0  0  1  0            999 V2000
   24.3660    3.1987    2.1764 C   0  0  0  0  0  0
   24.8234    3.0891    0.8666 C   0  0  0  0  0  0
   26.1335    4.8054    2.6852 C   0  0  0  0  0  0
   25.0080    4.0582    3.0710 C   0  0  0  0  0  0
   26.5700    4.6661    1.3541 C   0  0  0  0  0  0
   25.9185    3.8343    0.4536 C   0  0  0  0  0  0
   26.4745    3.8514   -0.8152 N   0  0  0  0  0  0
   27.5695    4.6500   -1.0323 C   0  0  0  0  0  0
   27.9034    5.4500    0.5533 S   0  0  0  0  0  0
   28.2128    4.8148   -2.0657 O   0  0  0  0  0  0
   24.2080    2.2502   -0.0150 O   0  0  0  0  0  0
   26.7882    5.8070    3.6609 C   0  0  2  0  0  0
   28.2788    5.5119    4.0101 C   0  0  0  0  0  0
   26.0676    5.9961    4.8712 O   0  0  0  0  0  0
   28.9612    6.7217    4.5034 N   0  0  1  0  0  0
   30.4251    6.7118    4.4708 C   0  0  0  0  0  0
   31.0130    6.7712    3.0508 C   0  0  0  0  0  0
   32.7462    6.2499    2.8985 S   0  0  0  0  0  0
   32.7273    5.6929    1.1691 C   0  0  0  0  0  0
   34.0790    5.7528    0.4315 C   0  0  0  0  0  0
   34.0961    5.0717   -0.9508 C   0  0  0  0  0  0
   33.0075    5.5473   -1.8009 N   0  0  1  0  0  0
   32.9749    4.7738   -3.0324 C   0  0  0  0  0  0
   31.7547    5.1465   -3.8907 C   0  0  0  0  0  0
   31.6282    4.2313   -5.0990 C   0  0  0  0  0  0
   32.5760    4.2878   -6.1255 C   0  0  0  0  0  0
   32.4885    3.4151   -7.2089 C   0  0  0  0  0  0
   31.4458    2.4913   -7.2793 C   0  0  0  0  0  0
   30.4810    2.4314   -6.2650 C   0  0  0  0  0  0
   30.5837    3.3044   -5.1745 C   0  0  0  0  0  0
   29.3262    1.4357   -6.3385 C   0  0  0  0  0  0
   29.0866    1.0505   -7.5934 F   0  0  0  0  0  0
   29.6302    0.3582   -5.6150 F   0  0  0  0  0  0
   28.2081    1.9724   -5.8546 F   0  0  0  0  0  0
   23.5051    2.6284    2.4924 H   0  0  0  0  0  0
   24.6107    4.1411    4.0708 H   0  0  0  0  0  0
   26.0497    3.3803   -1.6017 H   0  0  0  0  0  0
   23.8912    2.6866   -0.8274 H   0  0  0  0  0  0
   26.7358    6.7508    3.1230 H   0  0  0  0  0  0
   28.7834    5.1264    3.1288 H   0  0  0  0  0  0
   28.3388    4.7148    4.7515 H   0  0  0  0  0  0
   25.2771    6.5086    4.6857 H   0  0  0  0  0  0
   28.5990    7.5545    4.0633 H   0  0  0  0  0  0
   30.8091    5.8514    5.0075 H   0  0  0  0  0  0
   30.7798    7.5851    5.0212 H   0  0  0  0  0  0
   30.9532    7.7931    2.6756 H   0  0  0  0  0  0
   30.4348    6.1527    2.3712 H   0  0  0  0  0  0
   31.9752    6.2507    0.6172 H   0  0  0  0  0  0
   32.3593    4.6701    1.1843 H   0  0  0  0  0  0
   34.8479    5.2927    1.0530 H   0  0  0  0  0  0
   34.3875    6.7908    0.3141 H   0  0  0  0  0  0
   34.0030    3.9936   -0.8130 H   0  0  0  0  0  0
   35.0549    5.2584   -1.4385 H   0  0  0  0  0  0
   32.1298    5.4369   -1.3108 H   0  0  0  0  0  0
   32.9331    3.7043   -2.8153 H   0  0  0  0  0  0
   33.8915    4.9262   -3.6058 H   0  0  0  0  0  0
   31.8090    6.1825   -4.2287 H   0  0  0  0  0  0
   30.8428    5.0872   -3.2930 H   0  0  0  0  0  0
   33.3866    5.0019   -6.0806 H   0  0  0  0  0  0
   33.2259    3.4612   -7.9970 H   0  0  0  0  0  0
   31.3910    1.8276   -8.1299 H   0  0  0  0  0  0
   29.8506    3.2581   -4.3797 H   0  0  0  0  0  0
  1  4  1  0  0  0
  1  2  2  0  0  0
  1 35  1  0  0  0
  2 11  1  0  0  0
  2  6  1  0  0  0
  3 12  1  0  0  0
  3  5  1  0  0  0
  3  4  2  0  0  0
  4 36  1  0  0  0
  5  9  1  0  0  0
  5  6  2  0  0  0
  6  7  1  0  0  0
  7  8  1  0  0  0
  7 37  1  0  0  0
  8  9  1  0  0  0
  8 10  2  0  0  0
 11 38  1  0  0  0
 12 13  1  0  0  0
 12 14  1  0  0  0
 12 39  1  0  0  0
 13 15  1  0  0  0
 13 40  1  0  0  0
 13 41  1  0  0  0
 14 42  1  0  0  0
 15 16  1  0  0  0
 15 43  1  0  0  0
 16 17  1  0  0  0
 16 44  1  0  0  0
 16 45  1  0  0  0
 17 18  1  0  0  0
 17 46  1  0  0  0
 17 47  1  0  0  0
 18 19  1  0  0  0
 19 20  1  0  0  0
 19 48  1  0  0  0
 19 49  1  0  0  0
 20 21  1  0  0  0
 20 50  1  0  0  0
 20 51  1  0  0  0
 21 22  1  0  0  0
 21 52  1  0  0  0
 21 53  1  0  0  0
 22 23  1  0  0  0
 22 54  1  0  0  0
 23 24  1  0  0  0
 23 55  1  0  0  0
 23 56  1  0  0  0
 24 25  1  0  0  0
 24 57  1  0  0  0
 24 58  1  0  0  0
 25 26  2  0  0  0
 25 30  1  0  0  0
 26 27  1  0  0  0
 26 59  1  0  0  0
 27 28  2  0  0  0
 27 60  1  0  0  0
 28 29  1  0  0  0
 28 61  1  0  0  0
 29 30  2  0  0  0
 29 31  1  0  0  0
 30 62  1  0  0  0
 31 32  1  0  0  0
 31 33  1  0  0  0
 31 34  1  0  0  0
M  END
> <s_m_entry_id>
3007

> <s_m_entry_name>
dock_pv.99

> <s_m_Source_Path>
/home/csk/Desktop/cluster/DUD-E-result/adrb1

> <s_m_Source_File>
dock_pv.maegz

> <i_m_Source_File_Index>
99

> <chembl_id>
CHEMBL1807826

> <chembl_pref_name>
None

> <i_lp_mmshare_version>
53161

> <i_f3d_flags>
0

> <r_lp_tautomer_probability>
1

> <s_lp_Force_Field>
OPLS_2005

> <r_lp_Energy>
24.389712

> <b_lp_Chiralities_Consistent>
1

> <s_lp_Variant>
CHEMBL213_lig423-1

> <s_i_glide_gridfile>
glide-grid_2vt4

> <i_i_glide_lignum>
497

> <i_i_glide_rotatable_bonds>
16

> <r_i_docking_score>
-8.03064154956908

> <r_i_glide_ligand_efficiency>
-0.236195339693208

> <r_i_glide_ligand_efficiency_sa>
-0.765181208977427

> <r_i_glide_ligand_efficiency_ln>
-1.77419397016549

> <r_i_glide_gscore>
-8.03064154956908

> <r_i_glide_lipo>
-4.17396568924275

> <r_i_glide_hbond>
-0.24061304283038

> <r_i_glide_metal>
0

> <r_i_glide_rewards>
-1.23597861416714

> <r_i_glide_evdw>
-47.5044097900391

> <r_i_glide_ecoul>
-6.04262161254883

> <r_i_glide_erotb>
1.00340522440013

> <r_i_glide_esite>
-0.101875696344667

> <r_i_glide_emodel>
-68.4246640147368

> <r_i_glide_energy>
-53.5470314025879

> <r_i_glide_einternal>
18.8458843231201

> <i_i_glide_confnum>
74

> <i_i_glide_posenum>
393

> <r_i_glide_eff_state_penalty>
0

> <s_user_duplicate_titles>
CHEMBL213_lig423

> <s_m_subgroup_title>
dock_pv

> <s_m_subgroupid>
dock_pv

> <b_m_subgroup_collapsed>
1

$$$$
CHEMBL213_lig971
                    3D
 Schrodinger Suite 2021-1.
 59 61  0  0  1  0            999 V2000
   25.5564    7.0499    5.9653 O   0  0  0  0  0  0
   26.4988    6.6412    4.9891 C   0  0  1  0  0  0
   27.7600    6.0561    5.6872 C   0  0  0  0  0  0
   28.7733    7.0501    6.0305 N   0  0  1  0  0  0
   29.5095    7.6750    4.9295 C   0  0  0  0  0  0
   30.8205    6.9454    4.5490 C   0  0  0  0  0  0
   30.8257    6.2499    3.1887 C   0  0  0  0  0  0
   29.7084    5.5594    2.7236 C   0  0  0  0  0  0
   29.6977    5.0500    1.4322 C   0  0  0  0  0  0
   30.8039    5.1526    0.5957 C   0  0  0  0  0  0
   30.6080    4.6500   -0.7224 N   0  0  0  0  0  0
   31.3542    4.6049   -1.8750 C   0  0  0  0  0  0
   32.8513    5.3324   -2.0805 S   0  0  0  0  0  0
   30.6900    3.8893   -2.8422 N   0  0  0  0  0  0
   30.9756    3.4910   -4.1757 C   0  0  0  0  0  0
   32.2445    3.4947   -4.7812 C   0  0  0  0  0  0
   32.4007    3.1269   -6.1147 C   0  0  0  0  0  0
   31.3012    2.7202   -6.8603 C   0  0  0  0  0  0
   30.0276    2.6714   -6.2803 C   0  0  0  0  0  0
   29.8812    3.0503   -4.9338 C   0  0  0  0  0  0
   28.8605    2.2500   -7.0864 N   0  3  0  0  0  0
   27.8330    1.9314   -6.5036 O   0  0  0  0  0  0
   28.9668    2.2395   -8.3087 O   0  5  0  0  0  0
   31.9677    5.7458    1.1168 C   0  0  0  0  0  0
   31.9732    6.2915    2.3976 C   0  0  0  0  0  0
   25.7957    5.6007    4.1163 C   0  0  0  0  0  0
   26.3577    5.5426    2.8095 O   0  0  0  0  0  0
   25.8693    4.5943    1.9316 C   0  0  0  0  0  0
   26.2968    4.6789    0.6060 C   0  0  0  0  0  0
   25.8861    3.7394   -0.3325 C   0  0  0  0  0  0
   25.0118    2.7273    0.0486 C   0  0  0  0  0  0
   24.5488    2.6500    1.3561 C   0  0  0  0  0  0
   24.9730    3.5780    2.2957 C   0  0  0  0  0  0
   25.9868    7.7080    6.5401 H   0  0  0  0  0  0
   26.7402    7.5009    4.3654 H   0  0  0  0  0  0
   27.4385    5.5775    6.6123 H   0  0  0  0  0  0
   28.2093    5.2353    5.1364 H   0  0  0  0  0  0
   28.3363    7.7710    6.5946 H   0  0  0  0  0  0
   28.8866    7.8499    4.0554 H   0  0  0  0  0  0
   29.7880    8.6709    5.2748 H   0  0  0  0  0  0
   31.6024    7.7052    4.5266 H   0  0  0  0  0  0
   31.1420    6.2501    5.3212 H   0  0  0  0  0  0
   28.8014    5.5022    3.2875 H   0  0  0  0  0  0
   28.7782    4.6500    1.0585 H   0  0  0  0  0  0
   29.7019    4.2148   -0.8112 H   0  0  0  0  0  0
   29.7657    3.5889   -2.5664 H   0  0  0  0  0  0
   33.1437    3.7602   -4.2549 H   0  0  0  0  0  0
   33.3821    3.1500   -6.5665 H   0  0  0  0  0  0
   31.4472    2.4423   -7.8948 H   0  0  0  0  0  0
   28.8979    3.0235   -4.4806 H   0  0  0  0  0  0
   32.8842    5.8369    0.5640 H   0  0  0  0  0  0
   32.8648    6.7882    2.7521 H   0  0  0  0  0  0
   24.7352    5.8224    4.0262 H   0  0  0  0  0  0
   25.8637    4.6500    4.6248 H   0  0  0  0  0  0
   26.9403    5.4894    0.2987 H   0  0  0  0  0  0
   26.2156    3.8131   -1.3590 H   0  0  0  0  0  0
   24.6544    2.0227   -0.6865 H   0  0  0  0  0  0
   23.8595    1.8694    1.6417 H   0  0  0  0  0  0
   24.5971    3.4820    3.3001 H   0  0  0  0  0  0
  1  2  1  0  0  0
  1 34  1  0  0  0
  2  3  1  0  0  0
  2 26  1  0  0  0
  2 35  1  0  0  0
  3  4  1  0  0  0
  3 36  1  0  0  0
  3 37  1  0  0  0
  4  5  1  0  0  0
  4 38  1  0  0  0
  5  6  1  0  0  0
  5 39  1  0  0  0
  5 40  1  0  0  0
  6  7  1  0  0  0
  6 41  1  0  0  0
  6 42  1  0  0  0
  7  8  2  0  0  0
  7 25  1  0  0  0
  8  9  1  0  0  0
  8 43  1  0  0  0
  9 10  2  0  0  0
  9 44  1  0  0  0
 10 11  1  0  0  0
 10 24  1  0  0  0
 11 12  1  0  0  0
 11 45  1  0  0  0
 12 13  2  0  0  0
 12 14  1  0  0  0
 14 15  1  0  0  0
 14 46  1  0  0  0
 15 16  2  0  0  0
 15 20  1  0  0  0
 16 17  1  0  0  0
 16 47  1  0  0  0
 17 18  2  0  0  0
 17 48  1  0  0  0
 18 19  1  0  0  0
 18 49  1  0  0  0
 19 20  2  0  0  0
 19 21  1  0  0  0
 20 50  1  0  0  0
 21 22  2  0  0  0
 21 23  1  0  0  0
 24 25  2  0  0  0
 24 51  1  0  0  0
 25 52  1  0  0  0
 26 27  1  0  0  0
 26 53  1  0  0  0
 26 54  1  0  0  0
 27 28  1  0  0  0
 28 29  2  0  0  0
 28 33  1  0  0  0
 29 30  1  0  0  0
 29 55  1  0  0  0
 30 31  2  0  0  0
 30 56  1  0  0  0
 31 32  1  0  0  0
 31 57  1  0  0  0
 32 33  2  0  0  0
 32 58  1  0  0  0
 33 59  1  0  0  0
M  CHG  2  21   1  23  -1
M  END
> <s_m_entry_id>
3008

> <s_m_entry_name>
dock_pv.100

> <s_m_Source_Path>
/home/csk/Desktop/cluster/DUD-E-result/adrb1

> <s_m_Source_File>
dock_pv.maegz

> <i_m_Source_File_Index>
100

> <chembl_id>
CHEMBL1203989

> <chembl_pref_name>
None

> <i_lp_mmshare_version>
53161

> <i_f3d_flags>
0

> <r_lp_tautomer_probability>
1

> <s_lp_Force_Field>
OPLS_2005

> <r_lp_Energy>
46.74908

> <b_lp_Chiralities_Consistent>
1

> <s_lp_Variant>
CHEMBL213_lig971-1

> <s_i_glide_gridfile>
glide-grid_2vt4

> <i_i_glide_lignum>
1083

> <i_i_glide_rotatable_bonds>
14

> <r_i_docking_score>
-8.02330720379541

> <r_i_glide_ligand_efficiency>
-0.243130521327134

> <r_i_glide_ligand_efficiency_sa>
-0.779849492917647

> <r_i_glide_ligand_efficiency_ln>
-1.7843419796627

> <r_i_glide_gscore>
-8.02330720379541

> <r_i_glide_lipo>
-2.86686796519585

> <r_i_glide_hbond>
-0.830528116536704

> <r_i_glide_metal>
0

> <r_i_glide_rewards>
-1.5212756251827

> <r_i_glide_evdw>
-39.8621215820312

> <r_i_glide_ecoul>
-12.2073154449463

> <r_i_glide_erotb>
1.01956789896336

> <r_i_glide_esite>
0

> <r_i_glide_emodel>
-67.2754345677514

> <r_i_glide_energy>
-52.0694370269775

> <r_i_glide_einternal>
13.8729057312012

> <i_i_glide_confnum>
42

> <i_i_glide_posenum>
243

> <r_i_glide_eff_state_penalty>
0

> <s_user_duplicate_titles>
CHEMBL213_lig971,677940

> <s_m_subgroup_title>
dock_pv

> <s_m_subgroupid>
dock_pv

> <b_m_subgroup_collapsed>
1

$$$$
CHEMBL213_lig1124
                    3D
 Schrodinger Suite 2021-1.
 86 88  0  0  1  0            999 V2000
   25.3849    3.4978    0.6728 C   0  0  0  0  0  0
   26.4070    4.4405    0.4904 C   0  0  0  0  0  0
   26.7751    5.2666    1.5567 C   0  0  0  0  0  0
   26.1305    5.1897    2.7995 C   0  0  0  0  0  0
   25.1029    4.2497    2.9575 C   0  0  0  0  0  0
   24.7371    3.4082    1.9061 C   0  0  0  0  0  0
   25.0082    2.6485   -0.3357 O   0  0  0  0  0  0
   27.1079    4.6085   -0.8533 C   0  0  0  0  0  0
   28.4713    4.2496   -0.8152 O   0  0  0  0  0  0
   26.4973    6.1958    3.9044 C   0  0  2  0  0  0
   28.0001    6.1500    4.2836 C   0  0  0  0  0  0
   25.7232    6.0763    5.0904 O   0  0  0  0  0  0
   28.4831    7.4399    4.7878 N   0  0  2  0  0  0
   29.8392    7.4018    5.3281 C   0  0  0  0  0  0
   30.9223    6.8419    4.3810 C   0  0  0  0  0  0
   32.2813    6.6565    5.0891 C   0  0  0  0  0  0
   33.4352    6.2239    4.1637 C   0  0  0  0  0  0
   33.8003    7.2869    3.1106 C   0  0  0  0  0  0
   35.0710    6.9877    2.3127 C   0  0  0  0  0  0
   34.8450    5.8208    1.5406 O   0  0  0  0  0  0
   35.9607    5.4124    0.7700 C   0  0  0  0  0  0
   35.4789    4.2884   -0.1496 C   0  0  0  0  0  0
   36.6080    3.6455   -0.9692 C   0  0  0  0  0  0
   36.1274    2.6269   -2.0218 C   0  0  0  0  0  0
   35.3723    3.2701   -3.1738 C   0  0  0  0  0  0
   33.9859    3.4227   -3.1048 C   0  0  0  0  0  0
   33.2971    4.1014   -4.1092 C   0  0  0  0  0  0
   33.9965    4.6053   -5.2107 C   0  0  0  0  0  0
   35.3746    4.4200   -5.3023 C   0  0  0  0  0  0
   36.0659    3.7639   -4.2837 C   0  0  0  0  0  0
   31.5368    4.3705   -3.9602 S   0  0  0  0  0  0
   30.7415    2.9409   -4.9278 C   0  0  0  0  0  0
   29.2091    3.1079   -4.8801 C   0  0  0  0  0  0
   28.4753    2.0813   -5.7673 C   0  0  0  0  0  0
   29.0215    2.0547   -7.2083 C   0  0  0  0  0  0
   30.5481    1.8457   -7.2393 C   0  0  0  0  0  0
   31.2926    2.8812   -6.3728 C   0  0  0  0  0  0
   31.2010    4.2062   -2.5412 O   0  0  0  0  0  0
   31.2380    5.6309   -4.6424 O   0  0  0  0  0  0
   27.5524    5.9994    1.3994 H   0  0  0  0  0  0
   24.5723    4.1757    3.8948 H   0  0  0  0  0  0
   23.9476    2.6836    2.0472 H   0  0  0  0  0  0
   24.3996    3.0501   -0.9802 H   0  0  0  0  0  0
   26.6166    4.0162   -1.6211 H   0  0  0  0  0  0
   27.0262    5.6489   -1.1707 H   0  0  0  0  0  0
   28.5646    3.3775   -1.2180 H   0  0  0  0  0  0
   26.2430    7.1642    3.4702 H   0  0  0  0  0  0
   28.1843    5.3428    4.9933 H   0  0  0  0  0  0
   28.5761    5.9203    3.3881 H   0  0  0  0  0  0
   26.0147    6.7412    5.7209 H   0  0  0  0  0  0
   27.8506    7.8359    5.4734 H   0  0  0  0  0  0
   30.1125    8.4257    5.5848 H   0  0  0  0  0  0
   29.8209    6.8506    6.2676 H   0  0  0  0  0  0
   30.6301    5.8763    3.9719 H   0  0  0  0  0  0
   31.0219    7.5215    3.5357 H   0  0  0  0  0  0
   32.5591    7.5828    5.5863 H   0  0  0  0  0  0
   32.1865    5.9193    5.8874 H   0  0  0  0  0  0
   34.3109    6.0070    4.7770 H   0  0  0  0  0  0
   33.1790    5.2882    3.6655 H   0  0  0  0  0  0
   32.9711    7.4028    2.4138 H   0  0  0  0  0  0
   33.9263    8.2504    3.5891 H   0  0  0  0  0  0
   35.2886    7.8418    1.6642 H   0  0  0  0  0  0
   35.9201    6.8571    2.9860 H   0  0  0  0  0  0
   36.3447    6.2397    0.1683 H   0  0  0  0  0  0
   36.7613    5.0627    1.4248 H   0  0  0  0  0  0
   35.0090    3.5113    0.4485 H   0  0  0  0  0  0
   34.7059    4.6946   -0.8030 H   0  0  0  0  0  0
   37.2067    4.4150   -1.4604 H   0  0  0  0  0  0
   37.2784    3.1487   -0.2672 H   0  0  0  0  0  0
   36.9855    2.0899   -2.4157 H   0  0  0  0  0  0
   35.5104    1.8521   -1.5700 H   0  0  0  0  0  0
   33.4532    3.0509   -2.2402 H   0  0  0  0  0  0
   33.4803    5.1492   -5.9896 H   0  0  0  0  0  0
   35.9160    4.8268   -6.1448 H   0  0  0  0  0  0
   37.1403    3.6680   -4.3447 H   0  0  0  0  0  0
   31.0579    2.0721   -4.3492 H   0  0  0  0  0  0
   28.8515    3.0499   -3.8522 H   0  0  0  0  0  0
   28.9582    4.1150   -5.2078 H   0  0  0  0  0  0
   28.5661    1.0896   -5.3203 H   0  0  0  0  0  0
   27.4084    2.3080   -5.7909 H   0  0  0  0  0  0
   28.5243    1.2683   -7.7794 H   0  0  0  0  0  0
   28.7686    2.9929   -7.7035 H   0  0  0  0  0  0
   30.7826    0.8425   -6.8842 H   0  0  0  0  0  0
   30.9093    1.8967   -8.2671 H   0  0  0  0  0  0
   31.1964    3.8636   -6.8379 H   0  0  0  0  0  0
   32.3567    2.6472   -6.3671 H   0  0  0  0  0  0
  1  2  1  0  0  0
  1  6  2  0  0  0
  1  7  1  0  0  0
  2  3  2  0  0  0
  2  8  1  0  0  0
  3  4  1  0  0  0
  3 40  1  0  0  0
  4  5  2  0  0  0
  4 10  1  0  0  0
  5  6  1  0  0  0
  5 41  1  0  0  0
  6 42  1  0  0  0
  7 43  1  0  0  0
  8  9  1  0  0  0
  8 44  1  0  0  0
  8 45  1  0  0  0
  9 46  1  0  0  0
 10 11  1  0  0  0
 10 12  1  0  0  0
 10 47  1  0  0  0
 11 13  1  0  0  0
 11 48  1  0  0  0
 11 49  1  0  0  0
 12 50  1  0  0  0
 13 14  1  0  0  0
 13 51  1  0  0  0
 14 15  1  0  0  0
 14 52  1  0  0  0
 14 53  1  0  0  0
 15 16  1  0  0  0
 15 54  1  0  0  0
 15 55  1  0  0  0
 16 17  1  0  0  0
 16 56  1  0  0  0
 16 57  1  0  0  0
 17 18  1  0  0  0
 17 58  1  0  0  0
 17 59  1  0  0  0
 18 19  1  0  0  0
 18 60  1  0  0  0
 18 61  1  0  0  0
 19 20  1  0  0  0
 19 62  1  0  0  0
 19 63  1  0  0  0
 20 21  1  0  0  0
 21 22  1  0  0  0
 21 64  1  0  0  0
 21 65  1  0  0  0
 22 23  1  0  0  0
 22 66  1  0  0  0
 22 67  1  0  0  0
 23 24  1  0  0  0
 23 68  1  0  0  0
 23 69  1  0  0  0
 24 25  1  0  0  0
 24 70  1  0  0  0
 24 71  1  0  0  0
 25 26  1  0  0  0
 25 30  2  0  0  0
 26 27  2  0  0  0
 26 72  1  0  0  0
 27 28  1  0  0  0
 27 31  1  0  0  0
 28 29  2  0  0  0
 28 73  1  0  0  0
 29 30  1  0  0  0
 29 74  1  0  0  0
 30 75  1  0  0  0
 31 32  1  0  0  0
 31 38  2  0  0  0
 31 39  2  0  0  0
 32 33  1  0  0  0
 32 37  1  0  0  0
 32 76  1  0  0  0
 33 34  1  0  0  0
 33 77  1  0  0  0
 33 78  1  0  0  0
 34 35  1  0  0  0
 34 79  1  0  0  0
 34 80  1  0  0  0
 35 36  1  0  0  0
 35 81  1  0  0  0
 35 82  1  0  0  0
 36 37  1  0  0  0
 36 83  1  0  0  0
 36 84  1  0  0  0
 37 85  1  0  0  0
 37 86  1  0  0  0
M  END
> <s_m_entry_id>
3009

> <s_m_entry_name>
dock_pv.101

> <s_m_Source_Path>
/home/csk/Desktop/cluster/DUD-E-result/adrb1

> <s_m_Source_File>
dock_pv.maegz

> <i_m_Source_File_Index>
101

> <chembl_id>
CHEMBL3126385

> <chembl_pref_name>
None

> <i_lp_mmshare_version>
53161

> <i_f3d_flags>
0

> <r_lp_tautomer_probability>
0.999999999997365

> <s_lp_Force_Field>
OPLS_2005

> <r_lp_Energy>
20.366765

> <b_lp_Chiralities_Consistent>
1

> <s_lp_Variant>
CHEMBL213_lig1124-1

> <s_i_glide_gridfile>
glide-grid_2vt4

> <i_i_glide_lignum>
1319

> <i_i_glide_rotatable_bonds>
21

> <r_i_docking_score>
-8.02250410076802

> <r_i_glide_ligand_efficiency>
-0.205705233353026

> <r_i_glide_ligand_efficiency_sa>
-0.697589940382794

> <r_i_glide_ligand_efficiency_ln>
-1.72025261152622

> <r_i_glide_gscore>
-8.02250410076802

> <r_i_glide_lipo>
-3.59084494167189

> <r_i_glide_hbond>
-0.301923057769954

> <r_i_glide_metal>
0

> <r_i_glide_rewards>
-0.890943637918391

> <r_i_glide_evdw>
-57.6323432922363

> <r_i_glide_ecoul>
-9.74654006958008

> <r_i_glide_erotb>
1.10480571164103

> <r_i_glide_esite>
0

> <r_i_glide_emodel>
-92.8931682322608

> <r_i_glide_energy>
-67.3788833618164

> <r_i_glide_einternal>
13.8188037872314

> <i_i_glide_confnum>
41

> <i_i_glide_posenum>
341

> <r_i_glide_eff_state_penalty>
0

> <s_user_duplicate_titles>
CHEMBL213_lig1124

> <s_m_subgroup_title>
dock_pv

> <s_m_subgroupid>
dock_pv

> <b_m_subgroup_collapsed>
1

$$$$
CHEMBL213_lig1200
                    3D
 Schrodinger Suite 2021-1.
 44 46  0  0  1  0            999 V2000
   31.9046    5.1546   -3.7908 C   0  0  0  0  0  0
   32.0040    4.1460   -4.7460 C   0  0  0  0  0  0
   29.4997    4.7939   -3.6054 C   0  0  0  0  0  0
   30.6687    5.4710   -3.2280 C   0  0  0  0  0  0
   29.6080    3.7484   -4.5367 C   0  0  0  0  0  0
   30.8552    3.4388   -5.1158 C   0  0  0  0  0  0
   30.9328    2.3914   -6.0550 N   0  0  0  0  0  0
   29.9302    1.5784   -6.4448 C   0  0  0  0  0  0
   28.6483    1.9017   -5.8539 C   0  0  0  0  0  0
   28.4716    2.9002   -4.9634 C   0  0  0  0  0  0
   30.1135    0.6499   -7.2152 O   0  0  0  0  0  0
   33.2296    3.8603   -5.2991 O   0  0  0  0  0  0
   28.1422    5.1755   -2.9916 C   0  0  1  0  0  0
   27.9724    4.3605   -1.7849 N   0  0  1  0  0  0
   27.9383    6.7011   -2.7498 C   0  0  0  0  0  0
   28.2082    7.4500   -3.9220 O   0  0  0  0  0  0
   26.8040    4.7096   -0.9900 C   0  0  0  0  0  0
   26.3189    3.4888   -0.1977 C   0  0  0  0  0  0
   25.7153    3.8816    1.1395 C   0  0  0  0  0  0
   26.4578    4.6498    2.0472 C   0  0  0  0  0  0
   25.9059    5.0197    3.2708 C   0  0  0  0  0  0
   24.6114    4.6194    3.5906 C   0  0  0  0  0  0
   23.8673    3.8502    2.6949 C   0  0  0  0  0  0
   24.4167    3.4831    1.4681 C   0  0  0  0  0  0
   26.8197    5.9673    4.3872 Cl  0  0  0  0  0  0
   32.7875    5.6934   -3.4803 H   0  0  0  0  0  0
   30.6209    6.2499   -2.4850 H   0  0  0  0  0  0
   31.8305    2.1758   -6.4575 H   0  0  0  0  0  0
   27.8083    1.2904   -6.1392 H   0  0  0  0  0  0
   27.4813    3.0471   -4.5576 H   0  0  0  0  0  0
   33.8911    4.5431   -5.1513 H   0  0  0  0  0  0
   27.3524    4.9088   -3.6937 H   0  0  0  0  0  0
   27.9454    3.3658   -2.0160 H   0  0  0  0  0  0
   26.9036    6.9157   -2.4821 H   0  0  0  0  0  0
   28.5561    7.0494   -1.9248 H   0  0  0  0  0  0
   27.8081    8.3282   -3.8567 H   0  0  0  0  0  0
   27.0720    5.5456   -0.3436 H   0  0  0  0  0  0
   25.9845    5.0563   -1.6150 H   0  0  0  0  0  0
   25.5933    2.9432   -0.8033 H   0  0  0  0  0  0
   27.1290    2.7852   -0.0149 H   0  0  0  0  0  0
   27.4662    4.9553    1.8077 H   0  0  0  0  0  0
   24.1834    4.9026    4.5413 H   0  0  0  0  0  0
   22.8633    3.5453    2.9491 H   0  0  0  0  0  0
   23.8298    2.9018    0.7703 H   0  0  0  0  0  0
  1  2  2  0  0  0
  1  4  1  0  0  0
  1 26  1  0  0  0
  2  6  1  0  0  0
  2 12  1  0  0  0
  3  5  1  0  0  0
  3  4  2  0  0  0
  3 13  1  0  0  0
  4 27  1  0  0  0
  5  6  2  0  0  0
  5 10  1  0  0  0
  6  7  1  0  0  0
  7  8  1  0  0  0
  7 28  1  0  0  0
  8  9  1  0  0  0
  8 11  2  0  0  0
  9 10  2  0  0  0
  9 29  1  0  0  0
 10 30  1  0  0  0
 12 31  1  0  0  0
 13 14  1  0  0  0
 13 15  1  0  0  0
 13 32  1  0  0  0
 14 17  1  0  0  0
 14 33  1  0  0  0
 15 16  1  0  0  0
 15 34  1  0  0  0
 15 35  1  0  0  0
 16 36  1  0  0  0
 17 18  1  0  0  0
 17 37  1  0  0  0
 17 38  1  0  0  0
 18 19  1  0  0  0
 18 39  1  0  0  0
 18 40  1  0  0  0
 19 20  2  0  0  0
 19 24  1  0  0  0
 20 21  1  0  0  0
 20 41  1  0  0  0
 21 22  2  0  0  0
 21 25  1  0  0  0
 22 23  1  0  0  0
 22 42  1  0  0  0
 23 24  2  0  0  0
 23 43  1  0  0  0
 24 44  1  0  0  0
M  END
> <s_m_entry_id>
3010

> <s_m_entry_name>
dock_pv.102

> <s_m_Source_Path>
/home/csk/Desktop/cluster/DUD-E-result/adrb1

> <s_m_Source_File>
dock_pv.maegz

> <i_m_Source_File_Index>
102

> <chembl_id>
CHEMBL4292648

> <chembl_pref_name>
None

> <i_lp_mmshare_version>
53161

> <i_f3d_flags>
0

> <r_lp_tautomer_probability>
1

> <s_lp_Force_Field>
OPLS_2005

> <r_lp_Energy>
27.487438

> <b_lp_Chiralities_Consistent>
1

> <s_lp_Variant>
CHEMBL213_lig1200-2

> <s_i_glide_gridfile>
glide-grid_2vt4

> <i_i_glide_lignum>
1413

> <i_i_glide_rotatable_bonds>
8

> <r_i_docking_score>
-8.02180015630871

> <r_i_glide_ligand_efficiency>
-0.320872006252348

> <r_i_glide_ligand_efficiency_sa>
-0.938235436971128

> <r_i_glide_ligand_efficiency_ln>
-1.90140703099725

> <r_i_glide_gscore>
-8.02180015630871

> <r_i_glide_lipo>
-2.63922250703934

> <r_i_glide_hbond>
-0.838880773437045

> <r_i_glide_metal>
0

> <r_i_glide_rewards>
-1.77674618369448

> <r_i_glide_evdw>
-39.0564765930176

> <r_i_glide_ecoul>
-10.3880548477173

> <r_i_glide_erotb>
0.74408136467063

> <r_i_glide_esite>
0

> <r_i_glide_emodel>
-70.0296578818903

> <r_i_glide_energy>
-49.4445314407349

> <r_i_glide_einternal>
7.67318296432495

> <i_i_glide_confnum>
186

> <i_i_glide_posenum>
222

> <r_i_glide_eff_state_penalty>
0

> <s_user_duplicate_titles>
CHEMBL213_lig1200

> <s_m_subgroup_title>
dock_pv

> <s_m_subgroupid>
dock_pv

> <b_m_subgroup_collapsed>
1

$$$$
CHEMBL213_lig752
                    3D
 Schrodinger Suite 2021-1.
 56 58  0  0  1  0            999 V2000
   30.0082    2.3167   -6.5022 C   0  0  0  0  0  0
   31.1424    2.5138   -7.2874 C   0  0  0  0  0  0
   32.2697    3.1247   -6.7425 C   0  0  0  0  0  0
   32.2697    3.5282   -5.4070 C   0  0  0  0  0  0
   31.1389    3.3274   -4.5991 C   0  0  0  0  0  0
   30.0073    2.7210   -5.1657 C   0  0  0  0  0  0
   31.1089    3.7166   -3.1140 C   0  0  2  0  0  0
   32.3023    4.5972   -2.6323 C   0  0  0  0  0  0
   31.0080    2.5564   -2.3031 O   0  0  0  0  0  0
   28.6080    1.5789   -7.1905 Cl  0  0  0  0  0  0
   32.1332    5.0500   -1.2507 N   0  0  1  0  0  0
   33.2338    5.8590   -0.7399 C   0  0  0  0  0  0
   33.4872    5.6459    0.7761 C   0  0  0  0  0  0
   32.3183    5.8521    1.7511 C   0  0  0  0  0  0
   31.1495    5.0977    1.6589 C   0  0  0  0  0  0
   30.1286    5.2924    2.5640 C   0  0  0  0  0  0
   30.1621    6.3387    3.4980 C   0  0  0  0  0  0
   31.3560    7.0563    3.6295 C   0  0  0  0  0  0
   32.4322    6.7927    2.7850 C   0  0  0  0  0  0
   28.9813    6.6498    4.3850 C   0  0  0  0  0  0
   27.6033    6.1644    4.0169 C   0  0  0  0  0  0
   27.2852    5.8500    2.6923 C   0  0  0  0  0  0
   26.1448    5.1499    2.3851 C   0  0  0  0  0  0
   25.1693    4.9256    3.3607 C   0  0  0  0  0  0
   25.3772    5.4500    4.6416 C   0  0  0  0  0  0
   26.5985    6.0327    4.9843 C   0  0  0  0  0  0
   23.9809    4.2511    3.1026 O   0  0  0  0  0  0
   23.6620    3.8472    1.7560 C   0  0  0  0  0  0
   24.5002    2.6433    1.3388 C   0  0  0  0  0  0
   24.6079    2.4942   -0.0150 O   0  0  0  0  0  0
   25.0080    1.8928    2.1614 O   0  0  0  0  0  0
   29.1508    7.2716    5.4374 O   0  0  0  0  0  0
   31.1459    2.2053   -8.3227 H   0  0  0  0  0  0
   33.1465    3.2839   -7.3535 H   0  0  0  0  0  0
   33.1656    3.9856   -5.0151 H   0  0  0  0  0  0
   29.1236    2.5557   -4.5646 H   0  0  0  0  0  0
   30.1974    4.3002   -2.9693 H   0  0  0  0  0  0
   32.3945    5.4693   -3.2815 H   0  0  0  0  0  0
   33.2278    4.0239   -2.7138 H   0  0  0  0  0  0
   30.0917    2.2498   -2.3234 H   0  0  0  0  0  0
   31.2434    5.5110   -1.1236 H   0  0  0  0  0  0
   33.0080    6.9008   -0.9481 H   0  0  0  0  0  0
   34.1550    5.6222   -1.2765 H   0  0  0  0  0  0
   34.3046    6.3079    1.0646 H   0  0  0  0  0  0
   33.8867    4.6500    0.9272 H   0  0  0  0  0  0
   31.0080    4.3198    0.9298 H   0  0  0  0  0  0
   29.3204    4.5824    2.5149 H   0  0  0  0  0  0
   31.4525    7.8485    4.3613 H   0  0  0  0  0  0
   33.3328    7.3796    2.8893 H   0  0  0  0  0  0
   27.9340    6.0799    1.8643 H   0  0  0  0  0  0
   26.0151    4.8523    1.3573 H   0  0  0  0  0  0
   24.6081    5.3370    5.3915 H   0  0  0  0  0  0
   26.7648    6.3472    6.0061 H   0  0  0  0  0  0
   23.8079    4.6500    1.0373 H   0  0  0  0  0  0
   22.6116    3.5588    1.7239 H   0  0  0  0  0  0
   24.0390    3.0499   -0.5704 H   0  0  0  0  0  0
  1 10  1  0  0  0
  1  2  2  0  0  0
  1  6  1  0  0  0
  2  3  1  0  0  0
  2 33  1  0  0  0
  3  4  2  0  0  0
  3 34  1  0  0  0
  4  5  1  0  0  0
  4 35  1  0  0  0
  5  7  1  0  0  0
  5  6  2  0  0  0
  6 36  1  0  0  0
  7  8  1  0  0  0
  7  9  1  0  0  0
  7 37  1  0  0  0
  8 11  1  0  0  0
  8 38  1  0  0  0
  8 39  1  0  0  0
  9 40  1  0  0  0
 11 12  1  0  0  0
 11 41  1  0  0  0
 12 13  1  0  0  0
 12 42  1  0  0  0
 12 43  1  0  0  0
 13 14  1  0  0  0
 13 44  1  0  0  0
 13 45  1  0  0  0
 14 15  2  0  0  0
 14 19  1  0  0  0
 15 16  1  0  0  0
 15 46  1  0  0  0
 16 17  2  0  0  0
 16 47  1  0  0  0
 17 18  1  0  0  0
 17 20  1  0  0  0
 18 19  2  0  0  0
 18 48  1  0  0  0
 19 49  1  0  0  0
 20 21  1  0  0  0
 20 32  2  0  0  0
 21 22  2  0  0  0
 21 26  1  0  0  0
 22 23  1  0  0  0
 22 50  1  0  0  0
 23 24  2  0  0  0
 23 51  1  0  0  0
 24 25  1  0  0  0
 24 27  1  0  0  0
 25 26  2  0  0  0
 25 52  1  0  0  0
 26 53  1  0  0  0
 27 28  1  0  0  0
 28 29  1  0  0  0
 28 54  1  0  0  0
 28 55  1  0  0  0
 29 30  1  0  0  0
 29 31  2  0  0  0
 30 56  1  0  0  0
M  END
> <s_m_entry_id>
3011

> <s_m_entry_name>
dock_pv.103

> <s_m_Source_Path>
/home/csk/Desktop/cluster/DUD-E-result/adrb1

> <s_m_Source_File>
dock_pv.maegz

> <i_m_Source_File_Index>
103

> <chembl_id>
CHEMBL408958

> <chembl_pref_name>
None

> <i_lp_mmshare_version>
53161

> <i_f3d_flags>
0

> <r_lp_tautomer_probability>
1

> <s_lp_Force_Field>
OPLS_2005

> <r_lp_Energy>
34.690034

> <b_lp_Chiralities_Consistent>
1

> <s_lp_Variant>
CHEMBL213_lig752-1

> <s_i_glide_gridfile>
glide-grid_2vt4

> <i_i_glide_lignum>
858

> <i_i_glide_rotatable_bonds>
13

> <r_i_docking_score>
-8.01751077267342

> <r_i_glide_ligand_efficiency>
-0.250547211646044

> <r_i_glide_ligand_efficiency_sa>
-0.795437813750335

> <r_i_glide_ligand_efficiency_ln>
-1.79533921109105

> <r_i_glide_gscore>
-8.01751077267342

> <r_i_glide_lipo>
-3.70584529023959

> <r_i_glide_hbond>
-0.425130547473123

> <r_i_glide_metal>
0

> <r_i_glide_rewards>
-1.43923249296636

> <r_i_glide_evdw>
-39.6277923583984

> <r_i_glide_ecoul>
-9.60226631164551

> <r_i_glide_erotb>
0.974427122672392

> <r_i_glide_esite>
0

> <r_i_glide_emodel>
-68.5479275543031

> <r_i_glide_energy>
-49.2300586700439

> <r_i_glide_einternal>
11.4466247558594

> <i_i_glide_confnum>
24

> <i_i_glide_posenum>
372

> <r_i_glide_eff_state_penalty>
0

> <s_user_duplicate_titles>
CHEMBL213_lig752

> <s_m_subgroup_title>
dock_pv

> <s_m_subgroupid>
dock_pv

> <b_m_subgroup_collapsed>
1

$$$$
CHEMBL213_lig1468
                    3D
 Schrodinger Suite 2021-1.
 42 43  0  0  1  0            999 V2000
   29.3046    6.7427   -4.1158 C   0  0  0  0  0  0
   30.2749    5.7454   -4.0800 C   0  0  0  0  0  0
   30.1326    4.6669   -3.1942 C   0  0  0  0  0  0
   29.0268    4.6328   -2.3372 C   0  0  0  0  0  0
   28.0360    5.6210   -2.3811 C   0  0  0  0  0  0
   28.1839    6.6725   -3.2892 C   0  0  0  0  0  0
   31.3529    5.8500   -4.9191 O   0  0  0  0  0  0
   31.1408    3.5251   -3.1320 C   0  0  0  0  0  0
   30.6080    2.3070   -3.6150 O   0  0  0  0  0  0
   26.8254    5.6064   -1.4401 C   0  0  1  0  0  0
   26.4983    4.2174   -0.8149 C   0  0  0  0  0  0
   27.0082    6.5597   -0.4097 O   0  0  0  0  0  0
   25.2786    4.2618   -0.0027 N   0  0  2  0  0  0
   25.2374    3.2811    1.0765 C   0  0  0  0  0  0
   24.8473    3.9513    2.4234 C   0  0  0  0  0  0
   25.8786    4.8431    3.1365 C   0  0  0  0  0  0
   25.5220    5.4501    4.3469 C   0  0  0  0  0  0
   26.4418    6.2308    5.0470 C   0  0  0  0  0  0
   27.7290    6.3998    4.5398 C   0  0  0  0  0  0
   28.0929    5.8113    3.3346 C   0  0  0  0  0  0
   27.1681    5.0497    2.6321 C   0  0  0  0  0  0
   29.0083    7.4500    5.4786 Br  0  0  0  0  0  0
   29.4099    7.5777   -4.7951 H   0  0  0  0  0  0
   28.9488    3.8147   -1.6395 H   0  0  0  0  0  0
   27.4384    7.4532   -3.3512 H   0  0  0  0  0  0
   31.3215    6.6289   -5.4891 H   0  0  0  0  0  0
   32.0432    3.7530   -3.7007 H   0  0  0  0  0  0
   31.4691    3.3832   -2.1014 H   0  0  0  0  0  0
   29.7658    2.1428   -3.1678 H   0  0  0  0  0  0
   25.9528    5.9157   -2.0155 H   0  0  0  0  0  0
   26.3605    3.4736   -1.6014 H   0  0  0  0  0  0
   27.3507    3.8774   -0.2307 H   0  0  0  0  0  0
   27.0753    7.4310   -0.8061 H   0  0  0  0  0  0
   24.4968    4.0789   -0.6299 H   0  0  0  0  0  0
   24.5519    2.4689    0.8296 H   0  0  0  0  0  0
   26.2081    2.7996    1.1850 H   0  0  0  0  0  0
   23.9284    4.5246    2.2878 H   0  0  0  0  0  0
   24.5994    3.1527    3.1220 H   0  0  0  0  0  0
   24.5309    5.3097    4.7543 H   0  0  0  0  0  0
   26.1640    6.6981    5.9812 H   0  0  0  0  0  0
   29.0898    5.9475    2.9393 H   0  0  0  0  0  0
   27.4820    4.6102    1.7041 H   0  0  0  0  0  0
  1  2  2  0  0  0
  1  6  1  0  0  0
  1 23  1  0  0  0
  2  3  1  0  0  0
  2  7  1  0  0  0
  3  4  2  0  0  0
  3  8  1  0  0  0
  4  5  1  0  0  0
  4 24  1  0  0  0
  5  6  2  0  0  0
  5 10  1  0  0  0
  6 25  1  0  0  0
  7 26  1  0  0  0
  8  9  1  0  0  0
  8 27  1  0  0  0
  8 28  1  0  0  0
  9 29  1  0  0  0
 10 11  1  0  0  0
 10 12  1  0  0  0
 10 30  1  0  0  0
 11 13  1  0  0  0
 11 31  1  0  0  0
 11 32  1  0  0  0
 12 33  1  0  0  0
 13 14  1  0  0  0
 13 34  1  0  0  0
 14 15  1  0  0  0
 14 35  1  0  0  0
 14 36  1  0  0  0
 15 16  1  0  0  0
 15 37  1  0  0  0
 15 38  1  0  0  0
 16 17  2  0  0  0
 16 21  1  0  0  0
 17 18  1  0  0  0
 17 39  1  0  0  0
 18 19  2  0  0  0
 18 40  1  0  0  0
 19 20  1  0  0  0
 19 22  1  0  0  0
 20 21  2  0  0  0
 20 41  1  0  0  0
 21 42  1  0  0  0
M  END
> <s_m_entry_id>
3012

> <s_m_entry_name>
dock_pv.104

> <s_m_Source_Path>
/home/csk/Desktop/cluster/DUD-E-result/adrb1

> <s_m_Source_File>
dock_pv.maegz

> <i_m_Source_File_Index>
104

> <chembl_id>
CHEMBL3290971

> <chembl_pref_name>
None

> <i_lp_mmshare_version>
53161

> <i_f3d_flags>
0

> <r_lp_tautomer_probability>
0.999999999997365

> <s_lp_Force_Field>
OPLS_2005

> <r_lp_Energy>
15.054554

> <b_lp_Chiralities_Consistent>
1

> <s_lp_Variant>
CHEMBL213_lig1468-2

> <s_i_glide_gridfile>
glide-grid_2vt4

> <i_i_glide_lignum>
1805

> <i_i_glide_rotatable_bonds>
10

> <r_i_docking_score>
-8.00917810439108

> <r_i_glide_ligand_efficiency>
-0.364053550199594

> <r_i_glide_ligand_efficiency_sa>
-1.02009236507294

> <r_i_glide_ligand_efficiency_ln>
-1.95773527058278

> <r_i_glide_gscore>
-8.00917810439108

> <r_i_glide_lipo>
-2.9056723997547

> <r_i_glide_hbond>
-0.677261286082838

> <r_i_glide_metal>
0

> <r_i_glide_rewards>
-1.55172791755572

> <r_i_glide_evdw>
-38.3482856750488

> <r_i_glide_ecoul>
-12.1196050643921

> <r_i_glide_erotb>
0.860838542413436

> <r_i_glide_esite>
0

> <r_i_glide_emodel>
-70.1857269962502

> <r_i_glide_energy>
-50.4678907394409

> <r_i_glide_einternal>
10.4524488449097

> <i_i_glide_confnum>
16

> <i_i_glide_posenum>
214

> <r_i_glide_eff_state_penalty>
0

> <s_user_duplicate_titles>
CHEMBL213_lig1468

> <s_m_subgroup_title>
dock_pv

> <s_m_subgroupid>
dock_pv

> <b_m_subgroup_collapsed>
1

$$$$
CHEMBL213_lig1052
                    3D
 Schrodinger Suite 2021-1.
 70 71  0  0  1  0            999 V2000
   26.2473    4.2825    0.6321 C   0  0  0  0  0  0
   25.1565    3.4496    0.9207 C   0  0  0  0  0  0
   24.6022    3.4502    2.1981 C   0  0  0  0  0  0
   25.1184    4.2806    3.1891 C   0  0  0  0  0  0
   26.2099    5.1224    2.9313 C   0  0  0  0  0  0
   26.7620    5.1106    1.6394 C   0  0  0  0  0  0
   26.9106    4.2928   -0.7418 C   0  0  0  0  0  0
   26.6082    5.4499   -1.4924 O   0  0  0  0  0  0
   24.6081    2.6125   -0.0149 O   0  0  0  0  0  0
   26.7573    6.0984    3.9959 C   0  0  2  0  0  0
   28.2931    5.9934    4.2244 C   0  0  0  0  0  0
   26.0965    6.0232    5.2524 O   0  0  0  0  0  0
   28.8570    7.2301    4.7864 N   0  0  2  0  0  0
   30.3213    7.2754    4.9006 C   0  0  0  0  0  0
   31.0623    6.8989    3.5987 C   0  0  0  0  0  0
   32.5676    7.2298    3.5754 C   0  0  0  0  0  0
   33.3972    6.2728    2.7007 C   0  0  0  0  0  0
   34.8753    6.6917    2.5788 C   0  0  0  0  0  0
   35.7487    5.6826    1.8144 C   0  0  0  0  0  0
   35.4183    5.6760    0.4311 O   0  0  0  0  0  0
   36.2248    4.7804   -0.3329 C   0  0  0  0  0  0
   36.0366    5.0099   -1.8413 C   0  0  0  0  0  0
   34.7365    4.6132   -2.2649 O   0  0  0  0  0  0
   34.5310    4.7727   -3.6679 C   0  0  0  0  0  0
   33.2534    4.0837   -4.1392 C   0  0  0  0  0  0
   32.4799    3.2983   -3.2767 C   0  0  0  0  0  0
   31.3423    2.6510   -3.7502 C   0  0  0  0  0  0
   30.9754    2.7836   -5.0914 C   0  0  0  0  0  0
   31.7343    3.5758   -5.9560 C   0  0  0  0  0  0
   32.8716    4.2241   -5.4770 C   0  0  0  0  0  0
   29.5257    1.9167   -5.6823 S   0  0  0  0  0  0
   28.2081    2.6505   -4.8159 N   0  0  0  0  0  0
   29.3471    2.2199   -7.1063 O   0  0  0  0  0  0
   29.6327    0.5311   -5.2169 O   0  0  0  0  0  0
   23.7599    2.8095    2.4172 H   0  0  0  0  0  0
   24.6492    4.2736    4.1612 H   0  0  0  0  0  0
   27.5868    5.7674    1.3985 H   0  0  0  0  0  0
   27.9927    4.2319   -0.6207 H   0  0  0  0  0  0
   26.6308    3.4172   -1.3256 H   0  0  0  0  0  0
   25.9790    5.1903   -2.1859 H   0  0  0  0  0  0
   24.3087    3.0500   -0.8284 H   0  0  0  0  0  0
   26.5245    7.0803    3.5851 H   0  0  0  0  0  0
   28.5308    5.1253    4.8409 H   0  0  0  0  0  0
   28.7579    5.8192    3.2569 H   0  0  0  0  0  0
   26.3375    6.7949    5.7737 H   0  0  0  0  0  0
   28.4284    7.4537    5.6751 H   0  0  0  0  0  0
   30.5889    8.2931    5.1829 H   0  0  0  0  0  0
   30.6651    6.6547    5.7243 H   0  0  0  0  0  0
   30.9305    5.8350    3.4072 H   0  0  0  0  0  0
   30.5961    7.4249    2.7712 H   0  0  0  0  0  0
   32.6945    8.2396    3.1851 H   0  0  0  0  0  0
   32.9710    7.2262    4.5900 H   0  0  0  0  0  0
   33.3507    5.2788    3.1408 H   0  0  0  0  0  0
   32.9572    6.1999    1.7043 H   0  0  0  0  0  0
   34.9452    7.6677    2.0956 H   0  0  0  0  0  0
   35.2894    6.8205    3.5798 H   0  0  0  0  0  0
   36.7949    5.9673    1.9342 H   0  0  0  0  0  0
   35.6362    4.6854    2.2418 H   0  0  0  0  0  0
   37.2806    4.9182   -0.0966 H   0  0  0  0  0  0
   35.9719    3.7494   -0.0770 H   0  0  0  0  0  0
   36.1937    6.0657   -2.0709 H   0  0  0  0  0  0
   36.7973    4.4439   -2.3818 H   0  0  0  0  0  0
   34.4790    5.8349   -3.9069 H   0  0  0  0  0  0
   35.3627    4.3436   -4.2299 H   0  0  0  0  0  0
   32.7599    3.1812   -2.2395 H   0  0  0  0  0  0
   30.7496    2.0426   -3.0800 H   0  0  0  0  0  0
   31.4538    3.6879   -6.9928 H   0  0  0  0  0  0
   33.4621    4.8302   -6.1505 H   0  0  0  0  0  0
   27.2882    2.4959   -5.2461 H   0  0  0  0  0  0
   28.1672    2.3062   -3.8471 H   0  0  0  0  0  0
  1  6  1  0  0  0
  1  2  2  0  0  0
  1  7  1  0  0  0
  2  9  1  0  0  0
  2  3  1  0  0  0
  3  4  2  0  0  0
  3 35  1  0  0  0
  4  5  1  0  0  0
  4 36  1  0  0  0
  5 10  1  0  0  0
  5  6  2  0  0  0
  6 37  1  0  0  0
  7  8  1  0  0  0
  7 38  1  0  0  0
  7 39  1  0  0  0
  8 40  1  0  0  0
  9 41  1  0  0  0
 10 11  1  0  0  0
 10 12  1  0  0  0
 10 42  1  0  0  0
 11 13  1  0  0  0
 11 43  1  0  0  0
 11 44  1  0  0  0
 12 45  1  0  0  0
 13 14  1  0  0  0
 13 46  1  0  0  0
 14 15  1  0  0  0
 14 47  1  0  0  0
 14 48  1  0  0  0
 15 16  1  0  0  0
 15 49  1  0  0  0
 15 50  1  0  0  0
 16 17  1  0  0  0
 16 51  1  0  0  0
 16 52  1  0  0  0
 17 18  1  0  0  0
 17 53  1  0  0  0
 17 54  1  0  0  0
 18 19  1  0  0  0
 18 55  1  0  0  0
 18 56  1  0  0  0
 19 20  1  0  0  0
 19 57  1  0  0  0
 19 58  1  0  0  0
 20 21  1  0  0  0
 21 22  1  0  0  0
 21 59  1  0  0  0
 21 60  1  0  0  0
 22 23  1  0  0  0
 22 61  1  0  0  0
 22 62  1  0  0  0
 23 24  1  0  0  0
 24 25  1  0  0  0
 24 63  1  0  0  0
 24 64  1  0  0  0
 25 26  2  0  0  0
 25 30  1  0  0  0
 26 27  1  0  0  0
 26 65  1  0  0  0
 27 28  2  0  0  0
 27 66  1  0  0  0
 28 29  1  0  0  0
 28 31  1  0  0  0
 29 30  2  0  0  0
 29 67  1  0  0  0
 30 68  1  0  0  0
 31 32  1  0  0  0
 31 33  2  0  0  0
 31 34  2  0  0  0
 32 69  1  0  0  0
 32 70  1  0  0  0
M  END
> <s_m_entry_id>
3013

> <s_m_entry_name>
dock_pv.105

> <s_m_Source_Path>
/home/csk/Desktop/cluster/DUD-E-result/adrb1

> <s_m_Source_File>
dock_pv.maegz

> <i_m_Source_File_Index>
105

> <chembl_id>
CHEMBL1084655

> <chembl_pref_name>
None

> <i_lp_mmshare_version>
53161

> <i_f3d_flags>
0

> <r_lp_tautomer_probability>
0.999999999997365

> <s_lp_Force_Field>
OPLS_2005

> <r_lp_Energy>
33.417583

> <b_lp_Chiralities_Consistent>
1

> <s_lp_Variant>
CHEMBL213_lig1052-1

> <s_i_glide_gridfile>
glide-grid_2vt4

> <i_i_glide_lignum>
1220

> <i_i_glide_rotatable_bonds>
20

> <r_i_docking_score>
-7.99180870214795

> <r_i_glide_ligand_efficiency>
-0.235053197121998

> <r_i_glide_ligand_efficiency_sa>
-0.761481110429343

> <r_i_glide_ligand_efficiency_ln>
-1.76561470494568

> <r_i_glide_gscore>
-7.99180870214795

> <r_i_glide_lipo>
-3.10754751609925

> <r_i_glide_hbond>
-0.94772345384678

> <r_i_glide_metal>
0

> <r_i_glide_rewards>
-0.0992459442893343

> <r_i_glide_evdw>
-55.0901985168457

> <r_i_glide_ecoul>
-15.6769304275513

> <r_i_glide_erotb>
1.32302336770688

> <r_i_glide_esite>
-0.0542656656444816

> <r_i_glide_emodel>
-97.7424353217653

> <r_i_glide_energy>
-70.767128944397

> <r_i_glide_einternal>
13.3904371261597

> <i_i_glide_confnum>
39

> <i_i_glide_posenum>
50

> <r_i_glide_eff_state_penalty>
0

> <s_user_duplicate_titles>
CHEMBL213_lig1052,631656

> <s_m_subgroup_title>
dock_pv

> <s_m_subgroupid>
dock_pv

> <b_m_subgroup_collapsed>
1

$$$$
CHEMBL213_lig1411
                    3D
 Schrodinger Suite 2021-1.
 70 74  0  0  1  0            999 V2000
   27.6721    6.3332   -3.1891 N   0  0  1  0  0  0
   27.6816    5.7547   -1.8571 C   0  0  0  0  0  0
   29.0341    5.3404   -1.2610 C   0  0  0  0  0  0
   28.8601    4.6943    0.1105 C   0  0  0  0  0  0
   28.0609    5.4500    1.0900 N   0  0  0  0  0  0
   26.8799    6.1469    0.5178 C   0  0  0  0  0  0
   27.0669    6.7468   -0.8763 C   0  0  0  0  0  0
   28.3312    5.4885    2.4633 C   0  0  0  0  0  0
   29.6219    5.7838    2.7849 N   0  0  0  0  0  0
   29.8431    6.3665    3.9858 C   0  0  0  0  0  0
   28.9351    6.6205    4.9572 N   0  0  0  0  0  0
   27.3160    5.5261    3.4630 C   0  0  0  0  0  0
   27.7150    6.1476    4.6911 C   0  0  0  0  0  0
   26.4073    6.2482    5.8402 S   0  0  0  0  0  0
   25.3602    5.4559    4.7095 C   0  0  0  0  0  0
   25.9537    5.0469    3.5270 C   0  0  0  0  0  0
   28.5836    5.7277   -4.1475 C   0  0  0  0  0  0
   29.9721    6.4072   -4.2165 C   0  0  1  0  0  0
   30.8221    5.8505   -5.3745 C   0  0  0  0  0  0
   29.8081    7.8025   -4.4150 O   0  0  0  0  0  0
   30.7454    4.4274   -5.3403 O   0  0  0  0  0  0
   31.4464    3.6755   -6.2580 C   0  0  0  0  0  0
   32.7105    4.0561   -6.7367 C   0  0  0  0  0  0
   33.4040    3.2437   -7.6305 C   0  0  0  0  0  0
   32.8510    2.0366   -8.0491 C   0  0  0  0  0  0
   31.5978    1.6490   -7.5806 C   0  0  0  0  0  0
   30.8823    2.4587   -6.6885 C   0  0  0  0  0  0
   25.2450    4.1942    2.5235 C   0  0  0  0  0  0
   23.8654    4.1388    2.4609 C   0  0  0  0  0  0
   23.2845    3.4499    1.4175 C   0  0  0  0  0  0
   24.0280    2.7760    0.4534 C   0  0  0  0  0  0
   25.3897    2.7595    0.5347 C   0  0  0  0  0  0
   25.9502    3.4637    1.5727 C   0  0  0  0  0  0
   29.4823    2.0185   -6.2273 C   0  0  0  0  0  0
   29.5033    0.6954   -5.4376 C   0  0  0  0  0  0
   28.4828    1.9755   -7.3990 C   0  0  0  0  0  0
   26.7328    6.2388   -3.5566 H   0  0  0  0  0  0
   27.0498    4.8642   -1.8772 H   0  0  0  0  0  0
   29.5255    4.6089   -1.9008 H   0  0  0  0  0  0
   29.7231    6.1700   -1.1949 H   0  0  0  0  0  0
   28.2941    3.7901   -0.0650 H   0  0  0  0  0  0
   29.8360    4.4297    0.5180 H   0  0  0  0  0  0
   26.0038    5.5180    0.4449 H   0  0  0  0  0  0
   26.6098    6.9667    1.1837 H   0  0  0  0  0  0
   27.6481    7.6646   -0.8136 H   0  0  0  0  0  0
   26.0856    7.0532   -1.2390 H   0  0  0  0  0  0
   30.8608    6.6644    4.1875 H   0  0  0  0  0  0
   24.3469    5.2579    5.0260 H   0  0  0  0  0  0
   28.1467    5.8507   -5.1211 H   0  0  0  0  0  0
   28.6523    4.6506   -3.9924 H   0  0  0  0  0  0
   30.5212    6.2470   -3.2908 H   0  0  0  0  0  0
   31.8424    6.2126   -5.2662 H   0  0  0  0  0  0
   30.4367    6.2376   -6.3211 H   0  0  0  0  0  0
   30.4305    8.0967   -5.1015 H   0  0  0  0  0  0
   33.1773    4.9743   -6.4179 H   0  0  0  0  0  0
   34.3774    3.5477   -7.9870 H   0  0  0  0  0  0
   33.3949    1.3988   -8.7303 H   0  0  0  0  0  0
   31.1889    0.6961   -7.8787 H   0  0  0  0  0  0
   23.2354    4.6499    3.1698 H   0  0  0  0  0  0
   22.2139    3.4506    1.3487 H   0  0  0  0  0  0
   23.5312    2.2504   -0.3500 H   0  0  0  0  0  0
   26.0036    2.2452   -0.1889 H   0  0  0  0  0  0
   27.0074    3.4499    1.5852 H   0  0  0  0  0  0
   29.0906    2.7638   -5.5327 H   0  0  0  0  0  0
   30.1886    0.7512   -4.5905 H   0  0  0  0  0  0
   28.5130    0.4652   -5.0395 H   0  0  0  0  0  0
   29.8083   -0.1488   -6.0547 H   0  0  0  0  0  0
   28.4932    2.9097   -7.9616 H   0  0  0  0  0  0
   28.7041    1.1669   -8.0970 H   0  0  0  0  0  0
   27.4643    1.8318   -7.0397 H   0  0  0  0  0  0
  1 17  1  0  0  0
  1  2  1  0  0  0
  1 37  1  0  0  0
  2  3  1  0  0  0
  2  7  1  0  0  0
  2 38  1  0  0  0
  3  4  1  0  0  0
  3 39  1  0  0  0
  3 40  1  0  0  0
  4  5  1  0  0  0
  4 41  1  0  0  0
  4 42  1  0  0  0
  5  6  1  0  0  0
  5  8  1  0  0  0
  6  7  1  0  0  0
  6 43  1  0  0  0
  6 44  1  0  0  0
  7 45  1  0  0  0
  7 46  1  0  0  0
  8  9  2  0  0  0
  8 12  1  0  0  0
  9 10  1  0  0  0
 10 11  2  0  0  0
 10 47  1  0  0  0
 11 13  1  0  0  0
 12 13  2  0  0  0
 12 16  1  0  0  0
 13 14  1  0  0  0
 14 15  1  0  0  0
 15 16  2  0  0  0
 15 48  1  0  0  0
 16 28  1  0  0  0
 17 18  1  0  0  0
 17 49  1  0  0  0
 17 50  1  0  0  0
 18 19  1  0  0  0
 18 20  1  0  0  0
 18 51  1  0  0  0
 19 21  1  0  0  0
 19 52  1  0  0  0
 19 53  1  0  0  0
 20 54  1  0  0  0
 21 22  1  0  0  0
 22 23  2  0  0  0
 22 27  1  0  0  0
 23 24  1  0  0  0
 23 55  1  0  0  0
 24 25  2  0  0  0
 24 56  1  0  0  0
 25 26  1  0  0  0
 25 57  1  0  0  0
 26 27  2  0  0  0
 26 58  1  0  0  0
 27 34  1  0  0  0
 28 29  2  0  0  0
 28 33  1  0  0  0
 29 30  1  0  0  0
 29 59  1  0  0  0
 30 31  2  0  0  0
 30 60  1  0  0  0
 31 32  1  0  0  0
 31 61  1  0  0  0
 32 33  2  0  0  0
 32 62  1  0  0  0
 33 63  1  0  0  0
 34 35  1  0  0  0
 34 36  1  0  0  0
 34 64  1  0  0  0
 35 65  1  0  0  0
 35 66  1  0  0  0
 35 67  1  0  0  0
 36 68  1  0  0  0
 36 69  1  0  0  0
 36 70  1  0  0  0
M  END
> <s_m_entry_id>
3014

> <s_m_entry_name>
dock_pv.106

> <s_m_Source_Path>
/home/csk/Desktop/cluster/DUD-E-result/adrb1

> <s_m_Source_File>
dock_pv.maegz

> <i_m_Source_File_Index>
106

> <chembl_id>
CHEMBL1258704

> <chembl_pref_name>
None

> <i_lp_mmshare_version>
53161

> <i_f3d_flags>
0

> <r_lp_tautomer_probability>
1

> <s_lp_Force_Field>
OPLS_2005

> <r_lp_Energy>
45.791417

> <b_lp_Chiralities_Consistent>
1

> <s_lp_Variant>
CHEMBL213_lig1411-2

> <s_i_glide_gridfile>
glide-grid_2vt4

> <i_i_glide_lignum>
1726

> <i_i_glide_rotatable_bonds>
10

> <r_i_docking_score>
-7.99171568461416

> <r_i_glide_ligand_efficiency>
-0.221992102350393

> <r_i_glide_ligand_efficiency_sa>
-0.733001770914593

> <r_i_glide_ligand_efficiency_ln>
-1.74357645117663

> <r_i_glide_gscore>
-7.99171568461416

> <r_i_glide_lipo>
-4.4634461318175

> <r_i_glide_hbond>
-0.50483904148376

> <r_i_glide_metal>
0

> <r_i_glide_rewards>
-1.69127123139803

> <r_i_glide_evdw>
-19.0790920257568

> <r_i_glide_ecoul>
-6.83456182479858

> <r_i_glide_erotb>
0.646979595092757

> <r_i_glide_esite>
0

> <r_i_glide_emodel>
-40.7415131579016

> <r_i_glide_energy>
-25.9136538505554

> <r_i_glide_einternal>
23.2588386535645

> <i_i_glide_confnum>
23

> <i_i_glide_posenum>
15

> <r_i_glide_eff_state_penalty>
0

> <s_user_duplicate_titles>
CHEMBL213_lig1411

> <s_m_subgroup_title>
dock_pv

> <s_m_subgroupid>
dock_pv

> <b_m_subgroup_collapsed>
1

$$$$
CHEMBL213_lig967
                    3D
 Schrodinger Suite 2021-1.
 57 59  0  0  1  0            999 V2000
   25.5344    3.8802    0.1365 C   0  0  0  0  0  0
   24.3751    3.4635    0.7851 C   0  0  0  0  0  0
   24.2197    3.6516    2.1524 C   0  0  0  0  0  0
   25.2420    4.2502    2.8844 C   0  0  0  0  0  0
   26.4288    4.6516    2.2454 C   0  0  0  0  0  0
   26.5529    4.4825    0.8670 C   0  0  0  0  0  0
   27.5104    5.2286    2.8849 O   0  0  0  0  0  0
   27.6938    5.0526    4.2918 C   0  0  0  0  0  0
   27.6390    6.4253    4.9997 C   0  0  2  0  0  0
   28.8966    7.3132    4.7970 C   0  0  0  0  0  0
   30.1350    6.6507    5.1850 N   0  0  2  0  0  0
   31.2934    7.5236    5.1029 C   0  0  0  0  0  0
   32.5875    6.7182    4.8764 C   0  0  0  0  0  0
   32.8749    6.3340    3.4247 C   0  0  0  0  0  0
   31.8442    6.1653    2.4934 C   0  0  0  0  0  0
   32.1387    5.8499    1.1769 C   0  0  0  0  0  0
   33.4626    5.7281    0.7600 C   0  0  0  0  0  0
   34.4990    5.8512    1.6966 C   0  0  0  0  0  0
   34.2001    6.1557    3.0231 C   0  0  0  0  0  0
   33.6192    5.4691   -0.6123 N   0  0  0  0  0  0
   34.6354    5.6231   -1.5161 C   0  0  0  0  0  0
   34.3363    5.2564   -2.7981 N   0  0  0  0  0  0
   36.1484    6.2512   -1.2181 S   0  0  0  0  0  0
   33.1934    4.5523   -3.2158 C   0  0  0  0  0  0
   27.3801    6.2500    6.3841 O   0  0  0  0  0  0
   32.0377    5.2508   -3.5855 C   0  0  0  0  0  0
   30.8691    4.5602   -3.9040 C   0  0  0  0  0  0
   30.8491    3.1674   -3.8575 C   0  0  0  0  0  0
   32.0056    2.4675   -3.5188 C   0  0  0  0  0  0
   33.1854    3.1505   -3.2147 C   0  0  0  0  0  0
   34.6097    2.2498   -2.8151 Cl  0  0  0  0  0  0
   25.6366    3.7436   -0.9297 H   0  0  0  0  0  0
   23.5817    3.0117    0.2086 H   0  0  0  0  0  0
   23.3044    3.3446    2.6383 H   0  0  0  0  0  0
   25.0830    4.4082    3.9388 H   0  0  0  0  0  0
   27.4534    4.8014    0.3628 H   0  0  0  0  0  0
   27.0077    4.3446    4.7509 H   0  0  0  0  0  0
   28.6630    4.5795    4.4400 H   0  0  0  0  0  0
   26.7789    6.9662    4.6013 H   0  0  0  0  0  0
   29.0075    7.5603    3.7411 H   0  0  0  0  0  0
   28.7767    8.2499    5.3426 H   0  0  0  0  0  0
   30.3134    5.8238    4.6175 H   0  0  0  0  0  0
   31.1673    8.2074    4.2613 H   0  0  0  0  0  0
   31.3993    8.1524    5.9850 H   0  0  0  0  0  0
   33.4127    7.3477    5.2155 H   0  0  0  0  0  0
   32.6166    5.8301    5.5109 H   0  0  0  0  0  0
   30.8073    6.2789    2.7601 H   0  0  0  0  0  0
   31.3250    5.7357    0.4747 H   0  0  0  0  0  0
   35.5310    5.7083    1.4312 H   0  0  0  0  0  0
   35.0037    6.2625    3.7352 H   0  0  0  0  0  0
   32.7609    5.1398   -1.0279 H   0  0  0  0  0  0
   35.0625    5.3842   -3.4888 H   0  0  0  0  0  0
   27.2026    7.1232    6.7691 H   0  0  0  0  0  0
   32.0274    6.3267   -3.6150 H   0  0  0  0  0  0
   29.9753    5.1049   -4.1760 H   0  0  0  0  0  0
   29.9365    2.6325   -4.0810 H   0  0  0  0  0  0
   31.9843    1.3894   -3.4892 H   0  0  0  0  0  0
  1  6  1  0  0  0
  1  2  2  0  0  0
  1 32  1  0  0  0
  2  3  1  0  0  0
  2 33  1  0  0  0
  3  4  2  0  0  0
  3 34  1  0  0  0
  4  5  1  0  0  0
  4 35  1  0  0  0
  5  6  2  0  0  0
  5  7  1  0  0  0
  6 36  1  0  0  0
  7  8  1  0  0  0
  8  9  1  0  0  0
  8 37  1  0  0  0
  8 38  1  0  0  0
  9 10  1  0  0  0
  9 25  1  0  0  0
  9 39  1  0  0  0
 10 11  1  0  0  0
 10 40  1  0  0  0
 10 41  1  0  0  0
 11 12  1  0  0  0
 11 42  1  0  0  0
 12 13  1  0  0  0
 12 43  1  0  0  0
 12 44  1  0  0  0
 13 14  1  0  0  0
 13 45  1  0  0  0
 13 46  1  0  0  0
 14 19  1  0  0  0
 14 15  2  0  0  0
 15 16  1  0  0  0
 15 47  1  0  0  0
 16 17  2  0  0  0
 16 48  1  0  0  0
 17 18  1  0  0  0
 17 20  1  0  0  0
 18 19  2  0  0  0
 18 49  1  0  0  0
 19 50  1  0  0  0
 20 21  1  0  0  0
 20 51  1  0  0  0
 21 22  1  0  0  0
 21 23  2  0  0  0
 22 24  1  0  0  0
 22 52  1  0  0  0
 24 26  2  0  0  0
 24 30  1  0  0  0
 25 53  1  0  0  0
 26 27  1  0  0  0
 26 54  1  0  0  0
 27 28  2  0  0  0
 27 55  1  0  0  0
 28 29  1  0  0  0
 28 56  1  0  0  0
 29 30  2  0  0  0
 29 57  1  0  0  0
 30 31  1  0  0  0
M  END
> <s_m_entry_id>
3015

> <s_m_entry_name>
dock_pv.107

> <s_m_Source_Path>
/home/csk/Desktop/cluster/DUD-E-result/adrb1

> <s_m_Source_File>
dock_pv.maegz

> <i_m_Source_File_Index>
107

> <chembl_id>
CHEMBL2448075

> <chembl_pref_name>
None

> <i_lp_mmshare_version>
53161

> <i_f3d_flags>
0

> <r_lp_tautomer_probability>
1

> <s_lp_Force_Field>
OPLS_2005

> <r_lp_Energy>
41.977101

> <b_lp_Chiralities_Consistent>
1

> <s_lp_Variant>
CHEMBL213_lig967-1

> <s_i_glide_gridfile>
glide-grid_2vt4

> <i_i_glide_lignum>
1079

> <i_i_glide_rotatable_bonds>
13

> <r_i_docking_score>
-7.98456622522843

> <r_i_glide_ligand_efficiency>
-0.257566652426723

> <r_i_glide_ligand_efficiency_sa>
-0.809114897708364

> <r_i_glide_ligand_efficiency_ln>
-1.80076438135675

> <r_i_glide_gscore>
-7.98456622522843

> <r_i_glide_lipo>
-3.47600730485018

> <r_i_glide_hbond>
-0.777146497901262

> <r_i_glide_metal>
0

> <r_i_glide_rewards>
-1.01007701410473

> <r_i_glide_evdw>
-45.8474960327148

> <r_i_glide_ecoul>
-9.30193042755127

> <r_i_glide_erotb>
0.96632895739618

> <r_i_glide_esite>
0

> <r_i_glide_emodel>
-75.6498680166171

> <r_i_glide_energy>
-55.1494264602661

> <r_i_glide_einternal>
10.8533210754395

> <i_i_glide_confnum>
3

> <i_i_glide_posenum>
331

> <r_i_glide_eff_state_penalty>
0

> <s_user_duplicate_titles>
CHEMBL213_lig967,567297

> <s_m_subgroup_title>
dock_pv

> <s_m_subgroupid>
dock_pv

> <b_m_subgroup_collapsed>
1

$$$$
CHEMBL213_lig1470
                    3D
 Schrodinger Suite 2021-1.
 63 66  0  0  1  0            999 V2000
   25.8475    5.9876    4.6943 C   0  0  0  0  0  0
   27.2024    6.3001    4.6033 C   0  0  0  0  0  0
   27.9654    5.8041    3.5387 C   0  0  0  0  0  0
   27.3449    5.0198    2.5639 C   0  0  0  0  0  0
   26.0017    4.6485    2.6703 C   0  0  0  0  0  0
   25.2617    5.1443    3.7492 C   0  0  0  0  0  0
   27.7902    7.0504    5.5854 O   0  0  0  0  0  0
   29.4778    5.9718    3.4986 C   0  0  0  0  0  0
   29.9502    7.2997    3.5871 O   0  0  0  0  0  0
   25.4098    3.6375    1.6752 C   0  0  2  0  0  0
   25.0247    4.1891    0.2900 C   0  0  0  0  0  0
   24.2983    2.9247    2.1912 O   0  0  0  0  0  0
   26.1755    4.5522   -0.5452 N   0  0  2  0  0  0
   26.2662    5.9859   -0.8071 C   0  0  0  0  0  0
   27.1029    6.2709   -2.0805 C   0  0  0  0  0  0
   28.5605    5.8242   -2.1158 C   0  0  0  0  0  0
   29.2208    5.3566   -0.9810 C   0  0  0  0  0  0
   30.5535    4.9738   -1.0521 C   0  0  0  0  0  0
   31.2450    5.0489   -2.2590 C   0  0  0  0  0  0
   30.5991    5.5756   -3.3864 C   0  0  0  0  0  0
   29.2574    5.9350   -3.3204 C   0  0  0  0  0  0
   32.5650    4.5617   -2.2781 N   0  0  0  0  0  0
   33.3411    4.2700   -3.4906 C   0  0  0  0  0  0
   32.5663    3.5893   -4.6251 C   0  0  0  0  0  0
   32.9054    3.9109   -5.9387 C   0  0  0  0  0  0
   32.1518    3.4371   -7.0060 C   0  0  0  0  0  0
   31.4955    2.7178   -4.3782 C   0  0  0  0  0  0
   30.6885    2.2500   -5.4410 C   0  0  0  0  0  0
   31.0091    2.6316   -6.7767 C   0  0  0  0  0  0
   30.1614    2.2138   -7.8312 C   0  0  0  0  0  0
   29.0266    1.4508   -7.5677 C   0  0  0  0  0  0
   28.7353    1.0530   -6.2661 C   0  0  0  0  0  0
   29.5584    1.4331   -5.2114 C   0  0  0  0  0  0
   25.2575    6.3573    5.5197 H   0  0  0  0  0  0
   27.9322    4.6141    1.7599 H   0  0  0  0  0  0
   24.2246    4.8672    3.8684 H   0  0  0  0  0  0
   27.1835    7.5480    6.1537 H   0  0  0  0  0  0
   29.8124    5.4502    4.3822 H   0  0  0  0  0  0
   29.9152    5.4832    2.6261 H   0  0  0  0  0  0
   30.9103    7.2940    3.5389 H   0  0  0  0  0  0
   26.1619    2.8744    1.4889 H   0  0  0  0  0  0
   24.5355    3.3788   -0.2496 H   0  0  0  0  0  0
   24.2705    4.9675    0.3705 H   0  0  0  0  0  0
   24.6175    2.3161    2.8605 H   0  0  0  0  0  0
   26.0477    4.1067   -1.4533 H   0  0  0  0  0  0
   25.2677    6.3847   -0.9824 H   0  0  0  0  0  0
   26.6940    6.4817    0.0657 H   0  0  0  0  0  0
   26.5937    5.8519   -2.9474 H   0  0  0  0  0  0
   27.1287    7.3416   -2.2600 H   0  0  0  0  0  0
   28.7125    5.3006   -0.0372 H   0  0  0  0  0  0
   31.0410    4.6500   -0.1476 H   0  0  0  0  0  0
   31.1137    5.6918   -4.3278 H   0  0  0  0  0  0
   28.7634    6.3151   -4.2041 H   0  0  0  0  0  0
   32.9990    4.3339   -1.3951 H   0  0  0  0  0  0
   33.7750    5.2068   -3.8482 H   0  0  0  0  0  0
   34.1796    3.6265   -3.2195 H   0  0  0  0  0  0
   33.7404    4.5695   -6.1385 H   0  0  0  0  0  0
   32.4142    3.7212   -8.0135 H   0  0  0  0  0  0
   31.2309    2.4502   -3.3644 H   0  0  0  0  0  0
   30.3872    2.5304   -8.8401 H   0  0  0  0  0  0
   28.3702    1.1651   -8.3770 H   0  0  0  0  0  0
   27.8547    0.4597   -6.0633 H   0  0  0  0  0  0
   29.3267    1.1328   -4.2017 H   0  0  0  0  0  0
  1  2  2  0  0  0
  1  6  1  0  0  0
  1 34  1  0  0  0
  2  3  1  0  0  0
  2  7  1  0  0  0
  3  4  2  0  0  0
  3  8  1  0  0  0
  4  5  1  0  0  0
  4 35  1  0  0  0
  5  6  2  0  0  0
  5 10  1  0  0  0
  6 36  1  0  0  0
  7 37  1  0  0  0
  8  9  1  0  0  0
  8 38  1  0  0  0
  8 39  1  0  0  0
  9 40  1  0  0  0
 10 11  1  0  0  0
 10 12  1  0  0  0
 10 41  1  0  0  0
 11 13  1  0  0  0
 11 42  1  0  0  0
 11 43  1  0  0  0
 12 44  1  0  0  0
 13 14  1  0  0  0
 13 45  1  0  0  0
 14 15  1  0  0  0
 14 46  1  0  0  0
 14 47  1  0  0  0
 15 16  1  0  0  0
 15 48  1  0  0  0
 15 49  1  0  0  0
 16 17  2  0  0  0
 16 21  1  0  0  0
 17 18  1  0  0  0
 17 50  1  0  0  0
 18 19  2  0  0  0
 18 51  1  0  0  0
 19 20  1  0  0  0
 19 22  1  0  0  0
 20 21  2  0  0  0
 20 52  1  0  0  0
 21 53  1  0  0  0
 22 23  1  0  0  0
 22 54  1  0  0  0
 23 24  1  0  0  0
 23 55  1  0  0  0
 23 56  1  0  0  0
 24 25  2  0  0  0
 24 27  1  0  0  0
 25 26  1  0  0  0
 25 57  1  0  0  0
 26 29  2  0  0  0
 26 58  1  0  0  0
 27 28  2  0  0  0
 27 59  1  0  0  0
 28 29  1  0  0  0
 28 33  1  0  0  0
 29 30  1  0  0  0
 30 31  2  0  0  0
 30 60  1  0  0  0
 31 32  1  0  0  0
 31 61  1  0  0  0
 32 33  2  0  0  0
 32 62  1  0  0  0
 33 63  1  0  0  0
M  END
> <s_m_entry_id>
3016

> <s_m_entry_name>
dock_pv.108

> <s_m_Source_Path>
/home/csk/Desktop/cluster/DUD-E-result/adrb1

> <s_m_Source_File>
dock_pv.maegz

> <i_m_Source_File_Index>
108

> <chembl_id>
CHEMBL3290973

> <chembl_pref_name>
None

> <i_lp_mmshare_version>
53161

> <i_f3d_flags>
0

> <r_lp_tautomer_probability>
0.999999999997365

> <s_lp_Force_Field>
OPLS_2005

> <r_lp_Energy>
30.175296

> <b_lp_Chiralities_Consistent>
1

> <s_lp_Variant>
CHEMBL213_lig1470-1

> <s_i_glide_gridfile>
glide-grid_2vt4

> <i_i_glide_lignum>
1808

> <i_i_glide_rotatable_bonds>
13

> <r_i_docking_score>
-7.98415636316765

> <r_i_glide_ligand_efficiency>
-0.241944132217202

> <r_i_glide_ligand_efficiency_sa>
-0.776044109123242

> <r_i_glide_ligand_efficiency_ln>
-1.77563503541929

> <r_i_glide_gscore>
-7.98415636316765

> <r_i_glide_lipo>
-3.96003646671751

> <r_i_glide_hbond>
-0.0651261443774571

> <r_i_glide_metal>
0

> <r_i_glide_rewards>
-1.29124656296514

> <r_i_glide_evdw>
-44.4587135314941

> <r_i_glide_ecoul>
-9.76799201965332

> <r_i_glide_erotb>
1.02038729041516

> <r_i_glide_esite>
0

> <r_i_glide_emodel>
-73.4178965740544

> <r_i_glide_energy>
-54.2267055511475

> <r_i_glide_einternal>
18.9379405975342

> <i_i_glide_confnum>
254

> <i_i_glide_posenum>
133

> <r_i_glide_eff_state_penalty>
0

> <s_user_duplicate_titles>
CHEMBL213_lig1470

> <s_m_subgroup_title>
dock_pv

> <s_m_subgroupid>
dock_pv

> <b_m_subgroup_collapsed>
1

$$$$
CHEMBL213_lig1187
                    3D
 Schrodinger Suite 2021-1.
 59 62  0  0  1  0            999 V2000
   33.7470    5.4262   -1.6113 C   0  0  0  0  0  0
   32.9210    6.4296    3.4363 C   0  0  0  0  0  0
   34.2880    6.3438    3.1606 C   0  0  0  0  0  0
   34.7293    6.0278    1.8789 C   0  0  0  0  0  0
   33.8075    5.7925    0.8578 C   0  0  0  0  0  0
   32.4336    5.8499    1.1388 C   0  0  0  0  0  0
   31.9953    6.1769    2.4181 C   0  0  0  0  0  0
   34.3419    5.4479   -0.3972 N   0  0  0  0  0  0
   34.5691    4.8424   -2.7459 C   0  0  0  0  0  0
   34.0093    4.7558   -4.0308 C   0  0  0  0  0  0
   34.7408    4.2340   -5.0938 C   0  0  0  0  0  0
   36.0394    3.7826   -4.8818 C   0  0  0  0  0  0
   36.6117    3.8495   -3.6158 C   0  0  0  0  0  0
   35.8833    4.3759   -2.5530 C   0  0  0  0  0  0
   32.4810    6.7950    4.8547 C   0  0  0  0  0  0
   31.1450    7.5581    4.9727 C   0  0  0  0  0  0
   30.0179    6.6517    5.0999 N   0  0  1  0  0  0
   28.7440    7.3518    4.9779 C   0  0  0  0  0  0
   27.5139    6.4194    5.1358 C   0  0  1  0  0  0
   27.6581    5.0335    4.4831 C   0  0  0  0  0  0
   27.7016    5.2195    3.0788 O   0  0  0  0  0  0
   27.2045    6.2500    6.4982 O   0  0  0  0  0  0
   26.6896    4.7126    2.2956 C   0  0  0  0  0  0
   25.4324    4.2501    2.7239 C   0  0  0  0  0  0
   24.5410    3.6764    1.8251 C   0  0  0  0  0  0
   24.8425    3.5683    0.4703 C   0  0  0  0  0  0
   27.0070    4.6676    0.9317 C   0  0  0  0  0  0
   26.0608    4.0975    0.0400 C   0  0  0  0  0  0
   26.6080    4.1945   -1.2150 N   0  0  0  0  0  0
   27.8568    4.7582   -1.1656 C   0  0  0  0  0  0
   28.1502    5.0500    0.1470 C   0  0  0  0  0  0
   32.6090    5.8500   -1.8298 O   0  0  0  0  0  0
   35.0128    6.5303    3.9390 H   0  0  0  0  0  0
   35.7907    5.9721    1.6849 H   0  0  0  0  0  0
   31.6926    5.6387    0.3848 H   0  0  0  0  0  0
   30.9337    6.2200    2.6027 H   0  0  0  0  0  0
   35.3066    5.1609   -0.3782 H   0  0  0  0  0  0
   33.0026    5.1006   -4.2224 H   0  0  0  0  0  0
   34.3058    4.1871   -6.0811 H   0  0  0  0  0  0
   36.6111    3.3850   -5.7073 H   0  0  0  0  0  0
   37.6219    3.4989   -3.4566 H   0  0  0  0  0  0
   36.3711    4.4092   -1.5901 H   0  0  0  0  0  0
   33.2483    7.4497    5.2697 H   0  0  0  0  0  0
   32.4908    5.9041    5.4851 H   0  0  0  0  0  0
   31.0131    8.1745    4.0814 H   0  0  0  0  0  0
   31.1949    8.2500    5.8086 H   0  0  0  0  0  0
   30.0972    5.9337    4.3850 H   0  0  0  0  0  0
   28.7184    7.7887    3.9850 H   0  0  0  0  0  0
   28.6820    8.1845    5.6813 H   0  0  0  0  0  0
   26.6514    6.9179    4.6899 H   0  0  0  0  0  0
   26.8913    4.3442    4.8216 H   0  0  0  0  0  0
   28.5822    4.5431    4.7849 H   0  0  0  0  0  0
   27.0080    7.1307    6.8601 H   0  0  0  0  0  0
   25.1249    4.3123    3.7553 H   0  0  0  0  0  0
   23.5917    3.3049    2.1843 H   0  0  0  0  0  0
   24.1553    3.1079   -0.2193 H   0  0  0  0  0  0
   26.1439    3.9479   -2.0877 H   0  0  0  0  0  0
   28.4268    4.8915   -2.0752 H   0  0  0  0  0  0
   29.0841    5.4500    0.5040 H   0  0  0  0  0  0
  1  8  1  0  0  0
  1  9  1  0  0  0
  1 32  2  0  0  0
  2  3  2  0  0  0
  2  7  1  0  0  0
  2 15  1  0  0  0
  3  4  1  0  0  0
  3 33  1  0  0  0
  4  5  2  0  0  0
  4 34  1  0  0  0
  5  6  1  0  0  0
  5  8  1  0  0  0
  6  7  2  0  0  0
  6 35  1  0  0  0
  7 36  1  0  0  0
  8 37  1  0  0  0
  9 10  2  0  0  0
  9 14  1  0  0  0
 10 11  1  0  0  0
 10 38  1  0  0  0
 11 12  2  0  0  0
 11 39  1  0  0  0
 12 13  1  0  0  0
 12 40  1  0  0  0
 13 14  2  0  0  0
 13 41  1  0  0  0
 14 42  1  0  0  0
 15 16  1  0  0  0
 15 43  1  0  0  0
 15 44  1  0  0  0
 16 17  1  0  0  0
 16 45  1  0  0  0
 16 46  1  0  0  0
 17 18  1  0  0  0
 17 47  1  0  0  0
 18 19  1  0  0  0
 18 48  1  0  0  0
 18 49  1  0  0  0
 19 20  1  0  0  0
 19 22  1  0  0  0
 19 50  1  0  0  0
 20 21  1  0  0  0
 20 51  1  0  0  0
 20 52  1  0  0  0
 21 23  1  0  0  0
 22 53  1  0  0  0
 23 24  2  0  0  0
 23 27  1  0  0  0
 24 25  1  0  0  0
 24 54  1  0  0  0
 25 26  2  0  0  0
 25 55  1  0  0  0
 26 28  1  0  0  0
 26 56  1  0  0  0
 27 28  2  0  0  0
 27 31  1  0  0  0
 28 29  1  0  0  0
 29 30  1  0  0  0
 29 57  1  0  0  0
 30 31  2  0  0  0
 30 58  1  0  0  0
 31 59  1  0  0  0
M  END
> <s_m_entry_id>
3017

> <s_m_entry_name>
dock_pv.109

> <s_m_Source_Path>
/home/csk/Desktop/cluster/DUD-E-result/adrb1

> <s_m_Source_File>
dock_pv.maegz

> <i_m_Source_File_Index>
109

> <chembl_id>
CHEMBL4237453

> <chembl_pref_name>
None

> <i_lp_mmshare_version>
53161

> <i_f3d_flags>
0

> <r_lp_tautomer_probability>
1

> <s_lp_Force_Field>
OPLS_2005

> <r_lp_Energy>
33.138515

> <b_lp_Chiralities_Consistent>
1

> <s_lp_Variant>
CHEMBL213_lig1187-1

> <s_i_glide_gridfile>
glide-grid_2vt4

> <i_i_glide_lignum>
1389

> <i_i_glide_rotatable_bonds>
12

> <r_i_docking_score>
-7.98242323356078

> <r_i_glide_ligand_efficiency>
-0.249450726048774

> <r_i_glide_ligand_efficiency_sa>
-0.791956688973207

> <r_i_glide_ligand_efficiency_ln>
-1.78748215463353

> <r_i_glide_gscore>
-7.98242323356078

> <r_i_glide_lipo>
-2.46337499814428

> <r_i_glide_hbond>
-1.10932718173585

> <r_i_glide_metal>
0

> <r_i_glide_rewards>
-1.02751156109916

> <r_i_glide_evdw>
-41.1530570983887

> <r_i_glide_ecoul>
-15.5577058792114

> <r_i_glide_erotb>
1.07725129982312

> <r_i_glide_esite>
-0.068152055603452

> <r_i_glide_emodel>
-80.290820895376

> <r_i_glide_energy>
-56.7107629776001

> <r_i_glide_einternal>
7.2732138633728

> <i_i_glide_confnum>
3

> <i_i_glide_posenum>
266

> <r_i_glide_eff_state_penalty>
0

> <s_user_duplicate_titles>
CHEMBL213_lig1187

> <s_m_subgroup_title>
dock_pv

> <s_m_subgroupid>
dock_pv

> <b_m_subgroup_collapsed>
1

$$$$
CHEMBL213_lig1477
                    3D
 Schrodinger Suite 2021-1.
 58 60  0  0  1  0            999 V2000
   24.5146    3.0909    1.8065 C   0  0  0  0  0  0
   25.1100    3.0849    0.5469 C   0  0  0  0  0  0
   26.1859    3.9398    0.2808 C   0  0  0  0  0  0
   26.6001    4.8381    1.2673 C   0  0  0  0  0  0
   26.0173    4.8559    2.5436 C   0  0  0  0  0  0
   24.9665    3.9637    2.7955 C   0  0  0  0  0  0
   24.6080    2.2500   -0.4150 O   0  0  0  0  0  0
   26.9534    3.8899   -1.0348 C   0  0  0  0  0  0
   27.0080    5.1352   -1.6960 O   0  0  0  0  0  0
   26.4629    5.9019    3.5893 C   0  0  2  0  0  0
   27.9446    5.8294    4.0615 C   0  0  0  0  0  0
   25.6596    5.9302    4.7595 O   0  0  0  0  0  0
   28.8805    5.8500    2.9451 N   0  0  2  0  0  0
   30.2276    6.3103    3.2507 C   0  0  0  0  0  0
   31.2750    5.4102    2.5716 C   0  0  0  0  0  0
   31.4638    5.4500    1.0562 C   0  0  0  0  0  0
   32.7362    5.7026    0.5352 C   0  0  0  0  0  0
   32.9949    5.4978   -0.8180 C   0  0  0  0  0  0
   31.9832    5.0500   -1.6679 C   0  0  0  0  0  0
   30.6890    4.8724   -1.1649 C   0  0  0  0  0  0
   30.4377    5.0500    0.1949 C   0  0  0  0  0  0
   32.3244    4.8345   -3.0122 N   0  0  0  0  0  0
   31.7203    4.0978   -4.0435 C   0  0  0  0  0  0
   32.1541    4.3468   -5.3466 C   0  0  0  0  0  0
   31.6063    3.6420   -6.4147 C   0  0  0  0  0  0
   30.6152    2.6908   -6.1828 C   0  0  0  0  0  0
   30.7617    3.1036   -3.8134 C   0  0  0  0  0  0
   30.2006    2.4091   -4.8808 C   0  0  0  0  0  0
   29.9049    1.8500   -7.5649 S   0  0  0  0  0  0
   28.2080    1.4074   -7.1147 C   0  0  0  0  0  0
   23.6925    2.4243    2.0169 H   0  0  0  0  0  0
   27.3736    5.5401    1.0054 H   0  0  0  0  0  0
   24.4739    3.9588    3.7555 H   0  0  0  0  0  0
   24.0313    2.7223   -1.0486 H   0  0  0  0  0  0
   27.9684    3.5597   -0.8152 H   0  0  0  0  0  0
   26.5436    3.1528   -1.7243 H   0  0  0  0  0  0
   26.2670    5.1459   -2.3188 H   0  0  0  0  0  0
   26.2936    6.8700    3.1153 H   0  0  0  0  0  0
   28.1471    6.6736    4.7237 H   0  0  0  0  0  0
   28.1140    4.9126    4.6292 H   0  0  0  0  0  0
   25.9797    6.6246    5.3416 H   0  0  0  0  0  0
   28.4967    6.4141    2.2014 H   0  0  0  0  0  0
   30.3284    7.3335    2.8878 H   0  0  0  0  0  0
   30.4240    6.3587    4.3233 H   0  0  0  0  0  0
   32.2346    5.5697    3.0652 H   0  0  0  0  0  0
   31.0080    4.3769    2.7850 H   0  0  0  0  0  0
   33.5445    6.0047    1.1850 H   0  0  0  0  0  0
   33.9948    5.6628   -1.1924 H   0  0  0  0  0  0
   29.8700    4.5948   -1.8088 H   0  0  0  0  0  0
   29.4559    4.8309    0.5796 H   0  0  0  0  0  0
   33.2499    5.1561   -3.2528 H   0  0  0  0  0  0
   32.9092    5.0952   -5.5411 H   0  0  0  0  0  0
   31.9402    3.8500   -7.4208 H   0  0  0  0  0  0
   30.4518    2.8353   -2.8161 H   0  0  0  0  0  0
   29.4540    1.6557   -4.6795 H   0  0  0  0  0  0
   27.6724    1.0500   -7.9946 H   0  0  0  0  0  0
   28.2080    0.6166   -6.3647 H   0  0  0  0  0  0
   27.6763    2.2709   -6.7139 H   0  0  0  0  0  0
  1  2  2  0  0  0
  1  6  1  0  0  0
  1 31  1  0  0  0
  2  3  1  0  0  0
  2  7  1  0  0  0
  3  4  2  0  0  0
  3  8  1  0  0  0
  4  5  1  0  0  0
  4 32  1  0  0  0
  5  6  2  0  0  0
  5 10  1  0  0  0
  6 33  1  0  0  0
  7 34  1  0  0  0
  8  9  1  0  0  0
  8 35  1  0  0  0
  8 36  1  0  0  0
  9 37  1  0  0  0
 10 11  1  0  0  0
 10 12  1  0  0  0
 10 38  1  0  0  0
 11 13  1  0  0  0
 11 39  1  0  0  0
 11 40  1  0  0  0
 12 41  1  0  0  0
 13 14  1  0  0  0
 13 42  1  0  0  0
 14 15  1  0  0  0
 14 43  1  0  0  0
 14 44  1  0  0  0
 15 16  1  0  0  0
 15 45  1  0  0  0
 15 46  1  0  0  0
 16 17  2  0  0  0
 16 21  1  0  0  0
 17 18  1  0  0  0
 17 47  1  0  0  0
 18 19  2  0  0  0
 18 48  1  0  0  0
 19 20  1  0  0  0
 19 22  1  0  0  0
 20 21  2  0  0  0
 20 49  1  0  0  0
 21 50  1  0  0  0
 22 23  1  0  0  0
 22 51  1  0  0  0
 23 24  2  0  0  0
 23 27  1  0  0  0
 24 25  1  0  0  0
 24 52  1  0  0  0
 25 26  2  0  0  0
 25 53  1  0  0  0
 26 28  1  0  0  0
 26 29  1  0  0  0
 27 28  2  0  0  0
 27 54  1  0  0  0
 28 55  1  0  0  0
 29 30  1  0  0  0
 30 56  1  0  0  0
 30 57  1  0  0  0
 30 58  1  0  0  0
M  END
> <s_m_entry_id>
3018

> <s_m_entry_name>
dock_pv.110

> <s_m_Source_Path>
/home/csk/Desktop/cluster/DUD-E-result/adrb1

> <s_m_Source_File>
dock_pv.maegz

> <i_m_Source_File_Index>
110

> <chembl_id>
CHEMBL3290992

> <chembl_pref_name>
None

> <i_lp_mmshare_version>
53161

> <i_f3d_flags>
0

> <r_lp_tautomer_probability>
0.999999999997365

> <s_lp_Force_Field>
OPLS_2005

> <r_lp_Energy>
29.573623

> <b_lp_Chiralities_Consistent>
1

> <s_lp_Variant>
CHEMBL213_lig1477-1

> <s_i_glide_gridfile>
glide-grid_2vt4

> <i_i_glide_lignum>
1822

> <i_i_glide_rotatable_bonds>
13

> <r_i_docking_score>
-7.98208500155862

> <r_i_glide_ligand_efficiency>
-0.266069500051954

> <r_i_glide_ligand_efficiency_sa>
-0.826739798467021

> <r_i_glide_ligand_efficiency_ln>
-1.8136166841361

> <r_i_glide_gscore>
-7.98208500155862

> <r_i_glide_lipo>
-3.63510236504307

> <r_i_glide_hbond>
-0.449129082123858

> <r_i_glide_metal>
0

> <r_i_glide_rewards>
-1.25411132293873

> <r_i_glide_evdw>
-40.828857421875

> <r_i_glide_ecoul>
-10.6160163879395

> <r_i_glide_erotb>
0.990103097831714

> <r_i_glide_esite>
0

> <r_i_glide_emodel>
-68.2345206301607

> <r_i_glide_energy>
-51.4448738098145

> <r_i_glide_einternal>
14.7896823883057

> <i_i_glide_confnum>
45

> <i_i_glide_posenum>
207

> <r_i_glide_eff_state_penalty>
0

> <s_user_duplicate_titles>
CHEMBL213_lig1477

> <s_m_subgroup_title>
dock_pv

> <s_m_subgroupid>
dock_pv

> <b_m_subgroup_collapsed>
1

$$$$
CHEMBL213_lig1059
                    3D
 Schrodinger Suite 2021-1.
 60 64  0  0  1  0            999 V2000
   24.9959    5.6089    5.0177 C   0  0  0  0  0  0
   25.2511    5.0480    3.7721 C   0  0  0  0  0  0
   26.5297    5.0937    3.2060 C   0  0  0  0  0  0
   26.8733    4.6497    1.9452 O   0  0  0  0  0  0
   26.0281    3.7271    1.2486 C   0  0  0  0  0  0
   25.6315    4.1562   -0.1797 C   0  0  1  0  0  0
   26.2479    5.4772   -0.7455 C   0  0  0  0  0  0
   25.8078    3.0503   -1.0508 O   0  0  0  0  0  0
   27.5415    5.4445   -1.4477 N   0  0  1  0  0  0
   28.5853    4.6284   -0.8169 C   0  0  0  0  0  0
   29.9411    4.8313   -1.5190 C   0  0  0  0  0  0
   29.8302    4.4930   -3.0216 C   0  0  0  0  0  0
   28.7539    5.4231   -3.6194 C   0  0  0  0  0  0
   27.4098    5.2042   -2.8944 C   0  0  0  0  0  0
   31.1713    4.7018   -3.7689 C   0  0  0  0  0  0
   25.9759    6.2628    5.7506 C   0  0  0  0  0  0
   27.2379    6.3625    5.1667 C   0  0  0  0  0  0
   27.5499    5.7408    3.9296 C   0  0  0  0  0  0
   28.3568    7.0499    5.5788 N   0  0  0  0  0  0
   29.3846    6.8677    4.6796 C   0  0  0  0  0  0
   28.9256    5.9417    3.7038 C   0  0  0  0  0  0
   29.8260    5.4525    2.7459 C   0  0  0  0  0  0
   31.1041    6.0127    2.6924 C   0  0  0  0  0  0
   31.5062    6.9825    3.6084 C   0  0  0  0  0  0
   30.6694    7.4117    4.6393 C   0  0  0  0  0  0
   31.4101    3.9376   -5.0439 C   0  0  0  0  0  0
   30.4800    3.0136   -5.5526 C   0  0  0  0  0  0
   30.7495    2.3179   -6.7287 C   0  0  0  0  0  0
   31.9444    2.5374   -7.4070 C   0  0  0  0  0  0
   32.8709    3.4549   -6.9232 C   0  0  0  0  0  0
   32.6043    4.1549   -5.7497 C   0  0  0  0  0  0
   31.9862    5.5152   -3.3218 O   0  0  0  0  0  0
   32.2072    1.8500   -8.5414 F   0  0  0  0  0  0
   23.9957    5.5493    5.4219 H   0  0  0  0  0  0
   24.4162    4.6106    3.2510 H   0  0  0  0  0  0
   25.1508    3.3798    1.7900 H   0  0  0  0  0  0
   26.6079    2.8184    1.1665 H   0  0  0  0  0  0
   24.5558    4.3371   -0.1433 H   0  0  0  0  0  0
   26.3921    6.1671    0.0875 H   0  0  0  0  0  0
   25.5065    5.9902   -1.3616 H   0  0  0  0  0  0
   25.4790    3.3545   -1.9140 H   0  0  0  0  0  0
   28.2962    3.5764   -0.8134 H   0  0  0  0  0  0
   28.6704    4.9522    0.2155 H   0  0  0  0  0  0
   30.6679    4.1729   -1.0418 H   0  0  0  0  0  0
   30.2739    5.8496   -1.3457 H   0  0  0  0  0  0
   29.5321    3.4500   -3.1062 H   0  0  0  0  0  0
   29.0245    6.4812   -3.5711 H   0  0  0  0  0  0
   28.5940    5.1878   -4.6718 H   0  0  0  0  0  0
   27.0143    4.2037   -3.0727 H   0  0  0  0  0  0
   26.6780    5.9012   -3.3060 H   0  0  0  0  0  0
   25.7455    6.7166    6.7023 H   0  0  0  0  0  0
   28.3839    7.6439    6.3951 H   0  0  0  0  0  0
   29.5318    4.6926    2.0424 H   0  0  0  0  0  0
   31.7971    5.6840    1.9311 H   0  0  0  0  0  0
   32.5028    7.3967    3.5343 H   0  0  0  0  0  0
   31.0072    8.1412    5.3591 H   0  0  0  0  0  0
   29.5381    2.8145   -5.0618 H   0  0  0  0  0  0
   30.0354    1.6076   -7.1152 H   0  0  0  0  0  0
   33.7933    3.6275   -7.4582 H   0  0  0  0  0  0
   33.3413    4.8638   -5.3951 H   0  0  0  0  0  0
  1  2  2  0  0  0
  1 16  1  0  0  0
  1 34  1  0  0  0
  2  3  1  0  0  0
  2 35  1  0  0  0
  3 18  2  0  0  0
  3  4  1  0  0  0
  4  5  1  0  0  0
  5  6  1  0  0  0
  5 36  1  0  0  0
  5 37  1  0  0  0
  6  7  1  0  0  0
  6  8  1  0  0  0
  6 38  1  0  0  0
  7  9  1  0  0  0
  7 39  1  0  0  0
  7 40  1  0  0  0
  8 41  1  0  0  0
  9 10  1  0  0  0
  9 14  1  0  0  0
 10 11  1  0  0  0
 10 42  1  0  0  0
 10 43  1  0  0  0
 11 12  1  0  0  0
 11 44  1  0  0  0
 11 45  1  0  0  0
 12 13  1  0  0  0
 12 15  1  0  0  0
 12 46  1  0  0  0
 13 14  1  0  0  0
 13 47  1  0  0  0
 13 48  1  0  0  0
 14 49  1  0  0  0
 14 50  1  0  0  0
 15 26  1  0  0  0
 15 32  2  0  0  0
 16 17  2  0  0  0
 16 51  1  0  0  0
 17 18  1  0  0  0
 17 19  1  0  0  0
 18 21  1  0  0  0
 19 20  1  0  0  0
 19 52  1  0  0  0
 20 21  2  0  0  0
 20 25  1  0  0  0
 21 22  1  0  0  0
 22 23  2  0  0  0
 22 53  1  0  0  0
 23 24  1  0  0  0
 23 54  1  0  0  0
 24 25  2  0  0  0
 24 55  1  0  0  0
 25 56  1  0  0  0
 26 27  2  0  0  0
 26 31  1  0  0  0
 27 28  1  0  0  0
 27 57  1  0  0  0
 28 29  2  0  0  0
 28 58  1  0  0  0
 29 30  1  0  0  0
 29 33  1  0  0  0
 30 31  2  0  0  0
 30 59  1  0  0  0
 31 60  1  0  0  0
M  END
> <s_m_entry_id>
3019

> <s_m_entry_name>
dock_pv.111

> <s_m_Source_Path>
/home/csk/Desktop/cluster/DUD-E-result/adrb1

> <s_m_Source_File>
dock_pv.maegz

> <i_m_Source_File_Index>
111

> <chembl_id>
CHEMBL1086077

> <chembl_pref_name>
None

> <i_lp_mmshare_version>
53161

> <i_f3d_flags>
0

> <r_lp_tautomer_probability>
0.99990000499975

> <s_lp_Force_Field>
OPLS_2005

> <r_lp_Energy>
57.665489

> <b_lp_Chiralities_Consistent>
1

> <s_lp_Variant>
CHEMBL213_lig1059-2

> <s_i_glide_gridfile>
glide-grid_2vt4

> <i_i_glide_lignum>
1229

> <i_i_glide_rotatable_bonds>
8

> <r_i_docking_score>
-7.97793119060177

> <r_i_glide_ligand_efficiency>
-0.241755490624296

> <r_i_glide_ligand_efficiency_sa>
-0.775439034738638

> <r_i_glide_ligand_efficiency_ln>
-1.77425058927286

> <r_i_glide_gscore>
-7.97793119060177

> <r_i_glide_lipo>
-3.31146433475218

> <r_i_glide_hbond>
-0.676335988141575

> <r_i_glide_metal>
0

> <r_i_glide_rewards>
-1.34205116908194

> <r_i_glide_evdw>
-43.5091323852539

> <r_i_glide_ecoul>
-7.16679525375366

> <r_i_glide_erotb>
0.60239620869967

> <r_i_glide_esite>
0

> <r_i_glide_emodel>
-69.3072366571892

> <r_i_glide_energy>
-50.6759276390076

> <r_i_glide_einternal>
14.1578168869019

> <i_i_glide_confnum>
3

> <i_i_glide_posenum>
332

> <r_i_glide_eff_state_penalty>
0

> <s_user_duplicate_titles>
CHEMBL213_lig1059,631064

> <s_m_subgroup_title>
dock_pv

> <s_m_subgroupid>
dock_pv

> <b_m_subgroup_collapsed>
1

$$$$
CHEMBL213_lig783
                    3D
 Schrodinger Suite 2021-1.
 85 87  0  0  1  0            999 V2000
   26.3471    4.3990    0.5466 C   0  0  0  0  0  0
   25.3250    3.4446    0.6398 C   0  0  0  0  0  0
   24.6004    3.3064    1.8232 C   0  0  0  0  0  0
   24.8702    4.1329    2.9148 C   0  0  0  0  0  0
   25.8861    5.0942    2.8477 C   0  0  0  0  0  0
   26.6185    5.2090    1.6559 C   0  0  0  0  0  0
   25.0079    2.6341   -0.4150 O   0  0  0  0  0  0
   27.1649    4.5771   -0.7288 C   0  0  0  0  0  0
   26.6085    5.5279   -1.6148 O   0  0  0  0  0  0
   26.1415    6.0984    3.9885 C   0  0  2  0  0  0
   27.6137    6.1142    4.4660 C   0  0  0  0  0  0
   25.3065    5.9241    5.1252 O   0  0  0  0  0  0
   28.0206    7.4259    4.9876 N   0  0  2  0  0  0
   29.4020    7.4475    5.4587 C   0  0  0  0  0  0
   30.4554    7.1054    4.3799 C   0  0  0  0  0  0
   31.8915    7.0105    4.9236 C   0  0  0  0  0  0
   32.9331    6.9437    3.7899 C   0  0  0  0  0  0
   34.3762    6.7527    4.2905 C   0  0  0  0  0  0
   35.4281    6.7675    3.1663 C   0  0  0  0  0  0
   35.1443    5.7370    2.2296 O   0  0  0  0  0  0
   36.0956    5.6142    1.1806 C   0  0  0  0  0  0
   35.5482    4.6228    0.1400 C   0  0  0  0  0  0
   36.6283    4.0769   -0.8194 C   0  0  0  0  0  0
   36.1453    2.9980   -1.8163 C   0  0  0  0  0  0
   35.3827    3.5517   -3.0118 C   0  0  0  0  0  0
   36.0032    3.6674   -4.2611 C   0  0  0  0  0  0
   35.3082    4.2073   -5.3445 C   0  0  0  0  0  0
   33.9917    4.6466   -5.1866 C   0  0  0  0  0  0
   33.3749    4.5501   -3.9374 C   0  0  0  0  0  0
   34.0607    3.9753   -2.8656 C   0  0  0  0  0  0
   31.7483    5.2348   -3.6520 S   0  0  0  0  0  0
   30.6289    3.8737   -3.6129 N   0  0  0  0  0  0
   31.8026    5.8186   -2.3078 O   0  0  0  0  0  0
   31.4022    6.0510   -4.8149 O   0  0  0  0  0  0
   30.7569    2.8451   -2.5606 C   0  0  0  0  0  0
   31.1308    1.4643   -3.1523 C   0  0  0  0  0  0
   30.3114    1.1040   -4.4188 C   0  0  0  0  0  0
   30.3033    2.2375   -5.4572 C   0  0  0  0  0  0
   29.8129    3.5378   -4.8071 C   0  0  0  0  0  0
   23.8079    2.5747    1.8869 H   0  0  0  0  0  0
   24.2687    4.0363    3.8043 H   0  0  0  0  0  0
   27.3826    5.9690    1.5650 H   0  0  0  0  0  0
   24.3842    3.0490   -1.0413 H   0  0  0  0  0  0
   28.1734    4.9012   -0.4667 H   0  0  0  0  0  0
   27.2860    3.6259   -1.2502 H   0  0  0  0  0  0
   25.9328    5.0921   -2.1600 H   0  0  0  0  0  0
   25.8846    7.0649    3.5527 H   0  0  0  0  0  0
   27.7884    5.3146    5.1909 H   0  0  0  0  0  0
   28.2353    5.8909    3.6021 H   0  0  0  0  0  0
   25.5331    6.5963    5.7726 H   0  0  0  0  0  0
   27.4080    7.7509    5.7298 H   0  0  0  0  0  0
   29.5871    8.4615    5.8081 H   0  0  0  0  0  0
   29.5011    6.7976    6.3307 H   0  0  0  0  0  0
   30.2482    6.1478    3.9042 H   0  0  0  0  0  0
   30.4074    7.8533    3.5887 H   0  0  0  0  0  0
   32.0960    7.8496    5.5830 H   0  0  0  0  0  0
   31.9841    6.1257    5.5557 H   0  0  0  0  0  0
   32.6790    6.1241    3.1152 H   0  0  0  0  0  0
   32.8734    7.8521    3.1866 H   0  0  0  0  0  0
   34.6168    7.5401    5.0080 H   0  0  0  0  0  0
   34.4501    5.8095    4.8372 H   0  0  0  0  0  0
   35.4312    7.7385    2.6697 H   0  0  0  0  0  0
   36.4197    6.6201    3.5984 H   0  0  0  0  0  0
   36.2848    6.5781    0.7037 H   0  0  0  0  0  0
   37.0398    5.2532    1.5913 H   0  0  0  0  0  0
   35.0873    3.7818    0.6594 H   0  0  0  0  0  0
   34.7482    5.1147   -0.4178 H   0  0  0  0  0  0
   37.1085    4.8949   -1.3608 H   0  0  0  0  0  0
   37.4088    3.6282   -0.2058 H   0  0  0  0  0  0
   37.0080    2.4457   -2.1874 H   0  0  0  0  0  0
   35.5378    2.2498   -1.3068 H   0  0  0  0  0  0
   37.0314    3.3612   -4.3885 H   0  0  0  0  0  0
   35.7996    4.3198   -6.2970 H   0  0  0  0  0  0
   33.4810    5.1054   -6.0217 H   0  0  0  0  0  0
   33.5876    3.8956   -1.8983 H   0  0  0  0  0  0
   31.5216    3.1615   -1.8544 H   0  0  0  0  0  0
   29.8387    2.8587   -1.9797 H   0  0  0  0  0  0
   32.1922    1.4670   -3.4040 H   0  0  0  0  0  0
   31.0095    0.6917   -2.3937 H   0  0  0  0  0  0
   29.2807    0.8974   -4.1414 H   0  0  0  0  0  0
   30.6686    0.1881   -4.8821 H   0  0  0  0  0  0
   29.6596    1.9749   -6.2989 H   0  0  0  0  0  0
   31.3039    2.3821   -5.8698 H   0  0  0  0  0  0
   28.7677    3.4668   -4.5000 H   0  0  0  0  0  0
   29.8640    4.3521   -5.5289 H   0  0  0  0  0  0
  1  2  2  0  0  0
  1  8  1  0  0  0
  1  6  1  0  0  0
  2  7  1  0  0  0
  2  3  1  0  0  0
  3  4  2  0  0  0
  3 40  1  0  0  0
  4  5  1  0  0  0
  4 41  1  0  0  0
  5 10  1  0  0  0
  5  6  2  0  0  0
  6 42  1  0  0  0
  7 43  1  0  0  0
  8  9  1  0  0  0
  8 44  1  0  0  0
  8 45  1  0  0  0
  9 46  1  0  0  0
 10 11  1  0  0  0
 10 12  1  0  0  0
 10 47  1  0  0  0
 11 13  1  0  0  0
 11 48  1  0  0  0
 11 49  1  0  0  0
 12 50  1  0  0  0
 13 14  1  0  0  0
 13 51  1  0  0  0
 14 15  1  0  0  0
 14 52  1  0  0  0
 14 53  1  0  0  0
 15 16  1  0  0  0
 15 54  1  0  0  0
 15 55  1  0  0  0
 16 17  1  0  0  0
 16 56  1  0  0  0
 16 57  1  0  0  0
 17 18  1  0  0  0
 17 58  1  0  0  0
 17 59  1  0  0  0
 18 19  1  0  0  0
 18 60  1  0  0  0
 18 61  1  0  0  0
 19 20  1  0  0  0
 19 62  1  0  0  0
 19 63  1  0  0  0
 20 21  1  0  0  0
 21 22  1  0  0  0
 21 64  1  0  0  0
 21 65  1  0  0  0
 22 23  1  0  0  0
 22 66  1  0  0  0
 22 67  1  0  0  0
 23 24  1  0  0  0
 23 68  1  0  0  0
 23 69  1  0  0  0
 24 25  1  0  0  0
 24 70  1  0  0  0
 24 71  1  0  0  0
 25 26  2  0  0  0
 25 30  1  0  0  0
 26 27  1  0  0  0
 26 72  1  0  0  0
 27 28  2  0  0  0
 27 73  1  0  0  0
 28 29  1  0  0  0
 28 74  1  0  0  0
 29 30  2  0  0  0
 29 31  1  0  0  0
 30 75  1  0  0  0
 31 32  1  0  0  0
 31 33  2  0  0  0
 31 34  2  0  0  0
 32 35  1  0  0  0
 32 39  1  0  0  0
 35 36  1  0  0  0
 35 76  1  0  0  0
 35 77  1  0  0  0
 36 37  1  0  0  0
 36 78  1  0  0  0
 36 79  1  0  0  0
 37 38  1  0  0  0
 37 80  1  0  0  0
 37 81  1  0  0  0
 38 39  1  0  0  0
 38 82  1  0  0  0
 38 83  1  0  0  0
 39 84  1  0  0  0
 39 85  1  0  0  0
M  END
> <s_m_entry_id>
3020

> <s_m_entry_name>
dock_pv.112

> <s_m_Source_Path>
/home/csk/Desktop/cluster/DUD-E-result/adrb1

> <s_m_Source_File>
dock_pv.maegz

> <i_m_Source_File_Index>
112

> <chembl_id>
CHEMBL506518

> <chembl_pref_name>
None

> <i_lp_mmshare_version>
53161

> <i_f3d_flags>
0

> <r_lp_tautomer_probability>
0.999999999997365

> <s_lp_Force_Field>
OPLS_2005

> <r_lp_Energy>
20.266809

> <b_lp_Chiralities_Consistent>
1

> <s_lp_Variant>
CHEMBL213_lig783-1

> <s_i_glide_gridfile>
glide-grid_2vt4

> <i_i_glide_lignum>
891

> <i_i_glide_rotatable_bonds>
21

> <r_i_docking_score>
-7.97297547753528

> <r_i_glide_ligand_efficiency>
-0.204435268654751

> <r_i_glide_ligand_efficiency_sa>
-0.693283221571038

> <r_i_glide_ligand_efficiency_ln>
-1.70963226875154

> <r_i_glide_gscore>
-7.97297547753528

> <r_i_glide_lipo>
-3.29193501486706

> <r_i_glide_hbond>
-0.695542614391723

> <r_i_glide_metal>
0

> <r_i_glide_rewards>
-0.639527849842298

> <r_i_glide_evdw>
-53.8092918395996

> <r_i_glide_ecoul>
-11.6462144851685

> <r_i_glide_erotb>
1.09992372449983

> <r_i_glide_esite>
-0.00849695817878108

> <r_i_glide_emodel>
-90.4195350604626

> <r_i_glide_energy>
-65.4555063247681

> <r_i_glide_einternal>
11.651686668396

> <i_i_glide_confnum>
33

> <i_i_glide_posenum>
262

> <r_i_glide_eff_state_penalty>
0

> <s_user_duplicate_titles>
CHEMBL213_lig783,476137

> <s_m_subgroup_title>
dock_pv

> <s_m_subgroupid>
dock_pv

> <b_m_subgroup_collapsed>
1

$$$$
CHEMBL213_lig651
                    3D
 Schrodinger Suite 2021-1.
 72 76  0  0  1  0            999 V2000
   35.6024    6.8887    2.9419 S   0  0  0  0  0  0
   33.7950    5.8497   -0.4208 N   0  0  0  0  0  0
   35.1728    5.8467   -0.4170 C   0  0  0  0  0  0
   34.3893    4.4568   -2.1103 C   0  0  0  0  0  0
   35.5766    4.9706   -1.4717 C   0  0  0  0  0  0
   36.1046    6.5266    0.3826 C   0  0  0  0  0  0
   33.3296    5.0345   -1.4223 C   0  0  0  0  0  0
   35.6792    7.3972    1.3516 O   0  0  0  0  0  0
   35.2878    5.4556    2.9871 O   0  0  0  0  0  0
   34.7975    7.8655    3.6828 O   0  0  0  0  0  0
   29.2442    5.2502   -3.8445 C   0  0  0  0  0  0
   34.4160    3.5216   -3.3215 C   0  0  0  0  0  0
   25.3159    4.8274    3.4326 C   0  0  0  0  0  0
   28.8451    4.4155   -2.8029 C   0  0  0  0  0  0
   25.3471    4.2475    2.1384 C   0  0  0  0  0  0
   32.0913    4.0077   -4.0732 N   0  0  1  0  0  0
   27.5976    3.8538   -0.8562 N   0  0  0  0  0  0
   30.9458    3.5431   -4.8494 C   0  0  0  0  0  0
   29.9413    4.6648   -5.0695 C   0  0  2  0  0  0
   26.3996    5.6692    3.8360 C   0  0  0  0  0  0
   27.4994    5.8382    2.9662 C   0  0  0  0  0  0
   28.0057    4.8406   -1.7773 C   0  0  0  0  0  0
   26.3989    4.5116    1.2589 C   0  0  0  0  0  0
   37.4101    7.1257    3.4194 C   0  0  0  0  0  0
   26.3113    3.9574   -0.1656 C   0  0  0  0  0  0
   27.4775    5.2864    1.6907 C   0  0  0  0  0  0
   33.0959    2.9703   -3.9342 C   0  0  2  0  0  0
   37.4583    6.3324    0.0996 C   0  0  0  0  0  0
   36.9502    4.7838   -1.6972 C   0  0  0  0  0  0
   30.6020    5.6070   -5.8880 O   0  0  0  0  0  0
   37.8720    5.4685   -0.9078 C   0  0  0  0  0  0
   28.8501    6.5841   -3.8144 C   0  0  0  0  0  0
   28.0410    7.0452   -2.7882 C   0  0  0  0  0  0
   24.2118    4.6517    4.3077 C   0  0  0  0  0  0
   27.6031    6.1832   -1.7704 C   0  0  0  0  0  0
   26.3274    6.3464    5.0799 C   0  0  0  0  0  0
   32.4685    1.7769   -3.1852 C   0  0  0  0  0  0
   24.1479    5.4102    5.4856 C   0  0  0  0  0  0
   25.1915    6.2381    5.8722 C   0  0  0  0  0  0
   33.1895    6.3889    0.1865 H   0  0  0  0  0  0
   32.2629    4.9260   -1.5723 H   0  0  0  0  0  0
   34.9329    4.0560   -4.1194 H   0  0  0  0  0  0
   35.0744    2.6790   -3.1092 H   0  0  0  0  0  0
   29.1424    3.3939   -2.8282 H   0  0  0  0  0  0
   24.5118    3.6397    1.8153 H   0  0  0  0  0  0
   32.4809    4.8238   -4.5307 H   0  0  0  0  0  0
   27.8110    2.9147   -1.1954 H   0  0  0  0  0  0
   31.2778    3.1740   -5.8197 H   0  0  0  0  0  0
   30.4289    2.7182   -4.3593 H   0  0  0  0  0  0
   29.1327    4.1856   -5.6145 H   0  0  0  0  0  0
   28.3373    6.4434    3.2823 H   0  0  0  0  0  0
   37.4869    7.0379    4.4970 H   0  0  0  0  0  0
   37.7288    8.1167    3.0994 H   0  0  0  0  0  0
   38.0080    6.3531    2.9407 H   0  0  0  0  0  0
   25.6175    4.5696   -0.7466 H   0  0  0  0  0  0
   25.8688    2.9624   -0.1342 H   0  0  0  0  0  0
   28.3176    5.4502    1.0339 H   0  0  0  0  0  0
   33.3577    2.6501   -4.9401 H   0  0  0  0  0  0
   38.2073    6.8636    0.6685 H   0  0  0  0  0  0
   37.2965    4.1175   -2.4746 H   0  0  0  0  0  0
   30.0663    6.4097   -5.9635 H   0  0  0  0  0  0
   38.9272    5.3249   -1.0889 H   0  0  0  0  0  0
   29.1408    7.2760   -4.5908 H   0  0  0  0  0  0
   27.8078    8.0925   -2.8191 H   0  0  0  0  0  0
   23.3730    4.0534    3.9861 H   0  0  0  0  0  0
   26.9586    6.5619   -0.9903 H   0  0  0  0  0  0
   27.1357    6.9978    5.3818 H   0  0  0  0  0  0
   33.2360    1.0990   -2.8151 H   0  0  0  0  0  0
   31.8298    2.0928   -2.3573 H   0  0  0  0  0  0
   31.8092    1.1928   -3.8201 H   0  0  0  0  0  0
   23.2617    5.3339    6.0903 H   0  0  0  0  0  0
   25.1220    6.8022    6.7902 H   0  0  0  0  0  0
  1  8  1  0  0  0
  1  9  2  0  0  0
  1 10  2  0  0  0
  1 24  1  0  0  0
  2  3  1  0  0  0
  2  7  1  0  0  0
  2 40  1  0  0  0
  3  6  1  0  0  0
  3  5  2  0  0  0
  4  5  1  0  0  0
  4 12  1  0  0  0
  4  7  2  0  0  0
  5 29  1  0  0  0
  6  8  1  0  0  0
  6 28  2  0  0  0
  7 41  1  0  0  0
 11 19  1  0  0  0
 11 14  2  0  0  0
 11 32  1  0  0  0
 12 27  1  0  0  0
 12 42  1  0  0  0
 12 43  1  0  0  0
 13 15  2  0  0  0
 13 34  1  0  0  0
 13 20  1  0  0  0
 14 22  1  0  0  0
 14 44  1  0  0  0
 15 23  1  0  0  0
 15 45  1  0  0  0
 16 27  1  0  0  0
 16 18  1  0  0  0
 16 46  1  0  0  0
 17 22  1  0  0  0
 17 25  1  0  0  0
 17 47  1  0  0  0
 18 19  1  0  0  0
 18 48  1  0  0  0
 18 49  1  0  0  0
 19 30  1  0  0  0
 19 50  1  0  0  0
 20 21  2  0  0  0
 20 36  1  0  0  0
 21 26  1  0  0  0
 21 51  1  0  0  0
 22 35  2  0  0  0
 23 25  1  0  0  0
 23 26  2  0  0  0
 24 52  1  0  0  0
 24 53  1  0  0  0
 24 54  1  0  0  0
 25 55  1  0  0  0
 25 56  1  0  0  0
 26 57  1  0  0  0
 27 37  1  0  0  0
 27 58  1  0  0  0
 28 31  1  0  0  0
 28 59  1  0  0  0
 29 31  2  0  0  0
 29 60  1  0  0  0
 30 61  1  0  0  0
 31 62  1  0  0  0
 32 33  2  0  0  0
 32 63  1  0  0  0
 33 35  1  0  0  0
 33 64  1  0  0  0
 34 38  2  0  0  0
 34 65  1  0  0  0
 35 66  1  0  0  0
 36 39  2  0  0  0
 36 67  1  0  0  0
 37 68  1  0  0  0
 37 69  1  0  0  0
 37 70  1  0  0  0
 38 39  1  0  0  0
 38 71  1  0  0  0
 39 72  1  0  0  0
M  END
> <s_m_entry_id>
3021

> <s_m_entry_name>
dock_pv.113

> <s_m_Source_Path>
/home/csk/Desktop/cluster/DUD-E-result/adrb1

> <s_m_Source_File>
dock_pv.maegz

> <i_m_Source_File_Index>
113

> <chembl_id>
CHEMBL183552

> <chembl_pref_name>
None

> <i_lp_mmshare_version>
53161

> <i_f3d_flags>
0

> <r_lp_tautomer_probability>
1

> <s_lp_Force_Field>
OPLS_2005

> <r_lp_Energy>
23.546894

> <b_lp_Chiralities_Consistent>
1

> <s_lp_Variant>
CHEMBL213_lig651-1

> <s_i_glide_gridfile>
glide-grid_2vt4

> <i_i_glide_lignum>
753

> <i_i_glide_rotatable_bonds>
12

> <r_i_docking_score>
-7.97132890500156

> <r_i_glide_ligand_efficiency>
-0.204393048846194

> <r_i_glide_ligand_efficiency_sa>
-0.693140045273313

> <r_i_glide_ligand_efficiency_ln>
-1.70927919685957

> <r_i_glide_gscore>
-7.97132890500156

> <r_i_glide_lipo>
-3.93057397851797

> <r_i_glide_hbond>
-0.459287260430525

> <r_i_glide_metal>
0

> <r_i_glide_rewards>
-0.906503823726199

> <r_i_glide_evdw>
-37.8752250671387

> <r_i_glide_ecoul>
-9.15185642242432

> <r_i_glide_erotb>
0.700094254653921

> <r_i_glide_esite>
-0.108518380260206

> <r_i_glide_emodel>
-63.1181903364313

> <r_i_glide_energy>
-47.027081489563

> <r_i_glide_einternal>
12.7576961517334

> <i_i_glide_confnum>
66

> <i_i_glide_posenum>
307

> <r_i_glide_eff_state_penalty>
0

> <s_user_duplicate_titles>
CHEMBL213_lig651,305710

> <s_m_subgroup_title>
dock_pv

> <s_m_subgroupid>
dock_pv

> <b_m_subgroup_collapsed>
1

$$$$
CHEMBL213_lig1103
                    3D
 Schrodinger Suite 2021-1.
 69 72  0  0  1  0            999 V2000
   36.7207    4.1269   -3.1099 O   0  0  0  0  0  0
   35.7926    3.7249   -2.0472 S   0  0  0  0  0  0
   36.2082    2.8615   -0.9373 O   0  0  0  0  0  0
   27.6750    6.2499    6.3815 O   0  0  0  0  0  0
   27.7450    5.5891    5.0741 S   0  0  0  0  0  0
   27.8080    4.1298    4.9561 O   0  0  0  0  0  0
   25.8135    5.2781    3.1854 C   0  0  0  0  0  0
   24.6081    4.6500    3.4858 C   0  0  0  0  0  0
   23.9907    3.8321    2.5436 C   0  0  0  0  0  0
   24.5947    3.6171    1.3093 C   0  0  0  0  0  0
   25.8252    4.2191    0.9994 C   0  0  0  0  0  0
   26.4318    5.0492    1.9536 C   0  0  0  0  0  0
   26.5125    3.9773   -0.3487 C   0  0  2  0  0  0
   26.7623    5.2912   -1.1342 C   0  0  0  0  0  0
   27.5999    5.0801   -2.3161 N   0  0  1  0  0  0
   28.0844    6.2930   -2.9718 C   0  0  2  0  0  0
   25.8166    3.0500   -1.1618 O   0  0  0  0  0  0
   26.9150    7.0044   -3.6628 C   0  0  0  0  0  0
   29.2023    5.9614   -3.9892 C   0  0  0  0  0  0
   30.4232    5.2623   -3.4126 C   0  0  0  0  0  0
   30.6619    4.8573   -2.1081 C   0  0  0  0  0  0
   31.8643    4.2128   -2.0272 N   0  0  0  0  0  0
   31.6010    4.8882   -4.1537 C   0  0  0  0  0  0
   32.4732    4.2075   -3.2585 C   0  0  0  0  0  0
   33.7046    3.6894   -3.6612 C   0  0  0  0  0  0
   34.0820    3.8822   -4.9894 C   0  0  0  0  0  0
   33.2576    4.5592   -5.8849 C   0  0  0  0  0  0
   32.0135    5.0516   -5.4864 C   0  0  0  0  0  0
   26.3745    6.1369    4.1290 N   0  0  0  0  0  0
   29.1758    6.2498    4.2031 C   0  0  0  0  0  0
   29.7904    5.6473    3.1161 C   0  0  0  0  0  0
   31.0082    6.2499    2.7840 C   0  0  0  0  0  0
   31.2998    7.3358    3.5851 C   0  0  0  0  0  0
   30.0798    7.6008    4.7850 S   0  0  0  0  0  0
   34.4567    2.9991   -2.7518 O   0  0  0  0  0  0
   35.0463    5.2890   -1.3077 C   0  0  0  0  0  0
   34.6101    6.2002   -2.0152 O   0  0  0  0  0  0
   35.0923    5.1945    0.0349 O   0  0  0  0  0  0
   34.5705    6.2491    0.8283 C   0  0  0  0  0  0
   34.8752    5.9862    2.3053 C   0  0  0  0  0  0
   24.1331    4.8060    4.4434 H   0  0  0  0  0  0
   23.0444    3.3624    2.7691 H   0  0  0  0  0  0
   24.0920    2.9823    0.5932 H   0  0  0  0  0  0
   27.3690    5.5346    1.7304 H   0  0  0  0  0  0
   27.4744    3.5176   -0.1237 H   0  0  0  0  0  0
   27.2606    6.0139   -0.4863 H   0  0  0  0  0  0
   25.8061    5.7303   -1.4209 H   0  0  0  0  0  0
   28.2717    4.3256   -2.2570 H   0  0  0  0  0  0
   28.5052    6.9542   -2.2138 H   0  0  0  0  0  0
   25.4565    3.5341   -1.9276 H   0  0  0  0  0  0
   27.2690    7.8493   -4.2508 H   0  0  0  0  0  0
   26.3763    6.3367   -4.3384 H   0  0  0  0  0  0
   26.2078    7.3882   -2.9321 H   0  0  0  0  0  0
   29.5289    6.8943   -4.4523 H   0  0  0  0  0  0
   28.7885    5.3675   -4.8086 H   0  0  0  0  0  0
   30.0557    4.9583   -1.2190 H   0  0  0  0  0  0
   32.2300    3.8223   -1.1723 H   0  0  0  0  0  0
   35.0378    3.5049   -5.3238 H   0  0  0  0  0  0
   33.5900    4.7093   -6.9032 H   0  0  0  0  0  0
   31.3874    5.5839   -6.1855 H   0  0  0  0  0  0
   25.7672    6.7777    4.6170 H   0  0  0  0  0  0
   29.4131    4.7572    2.6332 H   0  0  0  0  0  0
   31.6495    5.9018    1.9889 H   0  0  0  0  0  0
   32.1720    7.9704    3.5398 H   0  0  0  0  0  0
   33.4935    6.3104    0.6736 H   0  0  0  0  0  0
   35.0066    7.2032    0.5238 H   0  0  0  0  0  0
   34.4741    6.7859    2.9283 H   0  0  0  0  0  0
   35.9501    5.9298    2.4797 H   0  0  0  0  0  0
   34.4294    5.0499    2.6401 H   0  0  0  0  0  0
  1  2  2  0  0  0
  2  3  2  0  0  0
  2 35  1  0  0  0
  2 36  1  0  0  0
  4  5  2  0  0  0
  5  6  2  0  0  0
  5 29  1  0  0  0
  5 30  1  0  0  0
  7  8  2  0  0  0
  7 12  1  0  0  0
  7 29  1  0  0  0
  8  9  1  0  0  0
  8 41  1  0  0  0
  9 10  2  0  0  0
  9 42  1  0  0  0
 10 11  1  0  0  0
 10 43  1  0  0  0
 11 12  2  0  0  0
 11 13  1  0  0  0
 12 44  1  0  0  0
 13 14  1  0  0  0
 13 17  1  0  0  0
 13 45  1  0  0  0
 14 15  1  0  0  0
 14 46  1  0  0  0
 14 47  1  0  0  0
 15 16  1  0  0  0
 15 48  1  0  0  0
 16 18  1  0  0  0
 16 19  1  0  0  0
 16 49  1  0  0  0
 17 50  1  0  0  0
 18 51  1  0  0  0
 18 52  1  0  0  0
 18 53  1  0  0  0
 19 20  1  0  0  0
 19 54  1  0  0  0
 19 55  1  0  0  0
 20 21  2  0  0  0
 20 23  1  0  0  0
 21 22  1  0  0  0
 21 56  1  0  0  0
 22 24  1  0  0  0
 22 57  1  0  0  0
 23 24  2  0  0  0
 23 28  1  0  0  0
 24 25  1  0  0  0
 25 26  2  0  0  0
 25 35  1  0  0  0
 26 27  1  0  0  0
 26 58  1  0  0  0
 27 28  2  0  0  0
 27 59  1  0  0  0
 28 60  1  0  0  0
 29 61  1  0  0  0
 30 31  2  0  0  0
 30 34  1  0  0  0
 31 32  1  0  0  0
 31 62  1  0  0  0
 32 33  2  0  0  0
 32 63  1  0  0  0
 33 34  1  0  0  0
 33 64  1  0  0  0
 36 37  2  0  0  0
 36 38  1  0  0  0
 38 39  1  0  0  0
 39 40  1  0  0  0
 39 65  1  0  0  0
 39 66  1  0  0  0
 40 67  1  0  0  0
 40 68  1  0  0  0
 40 69  1  0  0  0
M  END
> <s_m_entry_id>
3022

> <s_m_entry_name>
dock_pv.114

> <s_m_Source_Path>
/home/csk/Desktop/cluster/DUD-E-result/adrb1

> <s_m_Source_File>
dock_pv.maegz

> <i_m_Source_File_Index>
114

> <chembl_id>
CHEMBL2260984

> <chembl_pref_name>
None

> <i_lp_mmshare_version>
53161

> <i_f3d_flags>
0

> <r_lp_tautomer_probability>
1

> <s_lp_Force_Field>
OPLS_2005

> <r_lp_Energy>
13.679464

> <b_lp_Chiralities_Consistent>
1

> <s_lp_Variant>
CHEMBL213_lig1103-1

> <s_i_glide_gridfile>
glide-grid_2vt4

> <i_i_glide_lignum>
1287

> <i_i_glide_rotatable_bonds>
15

> <r_i_docking_score>
-7.96937757922558

> <r_i_glide_ligand_efficiency>
-0.19923443948064

> <r_i_glide_ligand_efficiency_sa>
-0.681372197685182

> <r_i_glide_ligand_efficiency_ln>
-1.69963370933612

> <r_i_glide_gscore>
-7.96937757922558

> <r_i_glide_lipo>
-3.16664339954731

> <r_i_glide_hbond>
-0.407183021845572

> <r_i_glide_metal>
0

> <r_i_glide_rewards>
-1.18291253833725

> <r_i_glide_evdw>
-57.0666542053223

> <r_i_glide_ecoul>
-6.43769598007202

> <r_i_glide_erotb>
0.617804293421949

> <r_i_glide_esite>
-0.0114558056404869

> <r_i_glide_emodel>
-85.2698374977056

> <r_i_glide_energy>
-63.5043501853943

> <r_i_glide_einternal>
12.0072431564331

> <i_i_glide_confnum>
74

> <i_i_glide_posenum>
372

> <r_i_glide_eff_state_penalty>
0

> <s_user_duplicate_titles>
CHEMBL213_lig1103

> <s_m_subgroup_title>
dock_pv

> <s_m_subgroupid>
dock_pv

> <b_m_subgroup_collapsed>
1

$$$$
CHEMBL213_lig579
                    3D
 Schrodinger Suite 2021-1.
 48 49  0  0  1  0            999 V2000
   26.7912    6.6419    4.7489 C   0  0  0  0  0  0
   31.6523    3.6989   -4.3701 C   0  0  0  0  0  0
   31.9372    4.1407   -3.0705 C   0  0  0  0  0  0
   28.8040    4.2501   -3.1307 N   0  0  1  0  0  0
   26.6616    4.5204   -0.9863 N   0  0  0  0  0  0
   25.9168    7.4234    4.3847 O   0  0  0  0  0  0
   29.0630    3.8412   -4.5160 C   0  0  0  0  0  0
   30.3387    2.9744   -4.6932 C   0  0  2  0  0  0
   26.5735    5.0491    2.7212 C   0  0  0  0  0  0
   27.4604    5.6020    3.8391 C   0  0  0  0  0  0
   26.2609    4.5058    0.3618 C   0  0  0  0  0  0
   27.0078    5.1002    1.3908 C   0  0  0  0  0  0
   33.1176    4.8325   -2.7983 C   0  0  0  0  0  0
   27.3609    6.6499    5.9848 O   0  0  0  0  0  0
   27.5739    5.5524   -1.4836 C   0  0  0  0  0  0
   33.4137    5.4489   -1.2141 Cl  0  0  0  0  0  0
   30.2084    1.7413   -4.0151 O   0  0  0  0  0  0
   27.9268    5.4107   -2.9851 C   0  0  1  0  0  0
   32.5869    3.9401   -5.3866 C   0  0  0  0  0  0
   33.7805    4.6061   -5.1082 C   0  0  0  0  0  0
   24.6193    3.8050    2.0053 C   0  0  0  0  0  0
   25.3700    4.3989    3.0187 C   0  0  0  0  0  0
   25.0700    3.8501    0.6862 C   0  0  0  0  0  0
   34.0475    5.0499   -3.8140 C   0  0  0  0  0  0
   28.6566    6.6621   -3.5072 C   0  0  0  0  0  0
   31.2313    3.9674   -2.2718 H   0  0  0  0  0  0
   28.3786    3.4888   -2.6058 H   0  0  0  0  0  0
   25.9438    4.2502   -1.6613 H   0  0  0  0  0  0
   28.1880    3.3136   -4.9000 H   0  0  0  0  0  0
   29.1982    4.7145   -5.1515 H   0  0  0  0  0  0
   30.3662    2.7007   -5.7494 H   0  0  0  0  0  0
   28.3474    6.0725    3.4147 H   0  0  0  0  0  0
   27.8251    4.7635    4.4352 H   0  0  0  0  0  0
   27.9453    5.5840    1.1692 H   0  0  0  0  0  0
   27.0080    7.3808    6.5153 H   0  0  0  0  0  0
   27.0992    6.5184   -1.3052 H   0  0  0  0  0  0
   28.4862    5.5767   -0.8884 H   0  0  0  0  0  0
   29.5302    1.8469   -3.3329 H   0  0  0  0  0  0
   27.0103    5.2538   -3.5577 H   0  0  0  0  0  0
   32.3932    3.6123   -6.3971 H   0  0  0  0  0  0
   34.4949    4.7940   -5.8974 H   0  0  0  0  0  0
   23.6922    3.3026    2.2412 H   0  0  0  0  0  0
   25.0193    4.3397    4.0376 H   0  0  0  0  0  0
   24.4773    3.3824   -0.0879 H   0  0  0  0  0  0
   34.9676    5.5777   -3.6090 H   0  0  0  0  0  0
   28.2052    7.5820   -3.1397 H   0  0  0  0  0  0
   29.7063    6.6504   -3.2139 H   0  0  0  0  0  0
   28.6279    6.7182   -4.5922 H   0  0  0  0  0  0
  1  6  2  0  0  0
  1 10  1  0  0  0
  1 14  1  0  0  0
  2  8  1  0  0  0
  2  3  1  0  0  0
  2 19  2  0  0  0
  3 13  2  0  0  0
  3 26  1  0  0  0
  4 18  1  0  0  0
  4  7  1  0  0  0
  4 27  1  0  0  0
  5 11  1  0  0  0
  5 15  1  0  0  0
  5 28  1  0  0  0
  7  8  1  0  0  0
  7 29  1  0  0  0
  7 30  1  0  0  0
  8 17  1  0  0  0
  8 31  1  0  0  0
  9 10  1  0  0  0
  9 12  1  0  0  0
  9 22  2  0  0  0
 10 32  1  0  0  0
 10 33  1  0  0  0
 11 12  2  0  0  0
 11 23  1  0  0  0
 12 34  1  0  0  0
 13 16  1  0  0  0
 13 24  1  0  0  0
 14 35  1  0  0  0
 15 18  1  0  0  0
 15 36  1  0  0  0
 15 37  1  0  0  0
 17 38  1  0  0  0
 18 25  1  0  0  0
 18 39  1  0  0  0
 19 20  1  0  0  0
 19 40  1  0  0  0
 20 24  2  0  0  0
 20 41  1  0  0  0
 21 22  1  0  0  0
 21 23  2  0  0  0
 21 42  1  0  0  0
 22 43  1  0  0  0
 23 44  1  0  0  0
 24 45  1  0  0  0
 25 46  1  0  0  0
 25 47  1  0  0  0
 25 48  1  0  0  0
M  END
> <s_m_entry_id>
3023

> <s_m_entry_name>
dock_pv.115

> <s_m_Source_Path>
/home/csk/Desktop/cluster/DUD-E-result/adrb1

> <s_m_Source_File>
dock_pv.maegz

> <i_m_Source_File_Index>
115

> <chembl_id>
CHEMBL154036

> <chembl_pref_name>
None

> <i_lp_mmshare_version>
53161

> <i_f3d_flags>
0

> <r_lp_tautomer_probability>
1

> <s_lp_Force_Field>
OPLS_2005

> <r_lp_Energy>
18.646485

> <b_lp_Chiralities_Consistent>
1

> <s_lp_Variant>
CHEMBL213_lig579-1

> <s_i_glide_gridfile>
glide-grid_2vt4

> <i_i_glide_lignum>
679

> <i_i_glide_rotatable_bonds>
11

> <r_i_docking_score>
-7.9629522920913

> <r_i_glide_ligand_efficiency>
-0.318518091683652

> <r_i_glide_ligand_efficiency_sa>
-0.931352549025408

> <r_i_glide_ligand_efficiency_ln>
-1.88745832364954

> <r_i_glide_gscore>
-7.9629522920913

> <r_i_glide_lipo>
-2.21721892734858

> <r_i_glide_hbond>
-0.799750028965094

> <r_i_glide_metal>
0

> <r_i_glide_rewards>
-1.70117386777632

> <r_i_glide_evdw>
-38.8093109130859

> <r_i_glide_ecoul>
-15.9992446899414

> <r_i_glide_erotb>
1.16704662263268

> <r_i_glide_esite>
-0.0715038414884787

> <r_i_glide_emodel>
-78.691997798531

> <r_i_glide_energy>
-54.8085556030273

> <r_i_glide_einternal>
5.65503072738647

> <i_i_glide_confnum>
38

> <i_i_glide_posenum>
216

> <r_i_glide_eff_state_penalty>
0

> <s_user_duplicate_titles>
CHEMBL213_lig579

> <s_m_subgroup_title>
dock_pv

> <s_m_subgroupid>
dock_pv

> <b_m_subgroup_collapsed>
1

$$$$
CHEMBL213_lig467
                    3D
 Schrodinger Suite 2021-1.
 64 67  0  0  1  0            999 V2000
   30.1013    5.1507   -2.9559 C   0  0  0  0  0  0
   29.1067    4.4099   -3.5865 C   0  0  0  0  0  0
   31.8095    4.0896   -4.3275 C   0  0  0  0  0  0
   31.4364    4.9874   -3.3168 C   0  0  0  0  0  0
   30.7895    3.3705   -4.9781 C   0  0  0  0  0  0
   29.4531    3.4998   -4.5945 C   0  0  0  0  0  0
   28.6075    2.6502   -5.3024 N   0  0  0  0  0  0
   29.1661    1.8639   -6.2901 C   0  0  0  0  0  0
   30.9462    2.2499   -6.3271 S   0  0  0  0  0  0
   28.6077    1.0565   -7.0281 O   0  0  0  0  0  0
   27.8080    4.6072   -3.1931 O   0  0  0  0  0  0
   33.2898    3.9012   -4.7056 C   0  0  2  0  0  0
   34.3307    4.0579   -3.5551 C   0  0  0  0  0  0
   34.6313    5.4500   -3.2157 N   0  0  1  0  0  0
   35.3278    5.6210   -1.9444 C   0  0  0  0  0  0
   34.3592    5.5188   -0.7471 C   0  0  0  0  0  0
   34.9049    5.9041    0.6274 C   0  0  0  0  0  0
   36.2219    6.3304    0.8440 C   0  0  0  0  0  0
   36.6398    6.7024    2.1240 C   0  0  0  0  0  0
   35.7504    6.6491    3.1988 C   0  0  0  0  0  0
   34.4358    6.2203    2.9964 C   0  0  0  0  0  0
   34.0269    5.8499    1.7127 C   0  0  0  0  0  0
   33.6452    4.6512   -5.8550 O   0  0  0  0  0  0
   33.4496    6.1272    4.1506 C   0  0  0  0  0  0
   32.3399    7.0500    3.9489 N   0  0  1  0  0  0
   31.1971    6.7174    4.7782 C   0  0  0  0  0  0
   30.1680    7.8517    4.7655 C   0  0  0  0  0  0
   28.8246    7.4961    5.4451 C   0  0  0  0  0  0
   27.8596    6.5791    4.6915 C   0  0  0  0  0  0
   26.5314    6.4785    5.1191 C   0  0  0  0  0  0
   25.6480    5.6801    4.3914 C   0  0  0  0  0  0
   26.1036    5.0069    3.2573 C   0  0  0  0  0  0
   27.4429    5.1504    2.8937 C   0  0  0  0  0  0
   28.3170    5.9164    3.5936 N   0  0  0  0  0  0
   29.8357    5.8495   -2.1767 H   0  0  0  0  0  0
   32.1726    5.5743   -2.7962 H   0  0  0  0  0  0
   27.6166    2.5811   -5.1130 H   0  0  0  0  0  0
   27.1379    4.0639   -3.6156 H   0  0  0  0  0  0
   33.3816    2.8583   -5.0089 H   0  0  0  0  0  0
   35.2653    3.5759   -3.8472 H   0  0  0  0  0  0
   33.9689    3.5126   -2.6825 H   0  0  0  0  0  0
   35.1984    5.8707   -3.9439 H   0  0  0  0  0  0
   35.7741    6.6162   -1.9408 H   0  0  0  0  0  0
   36.1715    4.9357   -1.8439 H   0  0  0  0  0  0
   33.9554    4.5088   -0.6840 H   0  0  0  0  0  0
   33.5070    6.1747   -0.9332 H   0  0  0  0  0  0
   36.9306    6.3842    0.0312 H   0  0  0  0  0  0
   37.6556    7.0346    2.2795 H   0  0  0  0  0  0
   36.0840    6.9417    4.1835 H   0  0  0  0  0  0
   33.0059    5.5302    1.5587 H   0  0  0  0  0  0
   34.5872    4.8391   -5.8359 H   0  0  0  0  0  0
   33.9480    6.3750    5.0890 H   0  0  0  0  0  0
   33.1031    5.0949    4.2252 H   0  0  0  0  0  0
   32.6081    8.0122    4.1529 H   0  0  0  0  0  0
   31.4925    6.4823    5.8024 H   0  0  0  0  0  0
   30.7252    5.8500    4.3416 H   0  0  0  0  0  0
   29.9764    8.1909    3.7454 H   0  0  0  0  0  0
   30.6047    8.7032    5.2865 H   0  0  0  0  0  0
   28.2873    8.4298    5.5920 H   0  0  0  0  0  0
   28.9969    7.0859    6.4414 H   0  0  0  0  0  0
   26.1863    7.0254    5.9851 H   0  0  0  0  0  0
   24.6176    5.5888    4.7025 H   0  0  0  0  0  0
   25.4359    4.3897    2.6741 H   0  0  0  0  0  0
   27.8355    4.6505    2.0208 H   0  0  0  0  0  0
  1  4  1  0  0  0
  1  2  2  0  0  0
  1 35  1  0  0  0
  2 11  1  0  0  0
  2  6  1  0  0  0
  3 12  1  0  0  0
  3  5  1  0  0  0
  3  4  2  0  0  0
  4 36  1  0  0  0
  5  9  1  0  0  0
  5  6  2  0  0  0
  6  7  1  0  0  0
  7  8  1  0  0  0
  7 37  1  0  0  0
  8  9  1  0  0  0
  8 10  2  0  0  0
 11 38  1  0  0  0
 12 23  1  0  0  0
 12 13  1  0  0  0
 12 39  1  0  0  0
 13 14  1  0  0  0
 13 40  1  0  0  0
 13 41  1  0  0  0
 14 15  1  0  0  0
 14 42  1  0  0  0
 15 16  1  0  0  0
 15 43  1  0  0  0
 15 44  1  0  0  0
 16 17  1  0  0  0
 16 45  1  0  0  0
 16 46  1  0  0  0
 17 18  2  0  0  0
 17 22  1  0  0  0
 18 19  1  0  0  0
 18 47  1  0  0  0
 19 20  2  0  0  0
 19 48  1  0  0  0
 20 21  1  0  0  0
 20 49  1  0  0  0
 21 22  2  0  0  0
 21 24  1  0  0  0
 22 50  1  0  0  0
 23 51  1  0  0  0
 24 25  1  0  0  0
 24 52  1  0  0  0
 24 53  1  0  0  0
 25 26  1  0  0  0
 25 54  1  0  0  0
 26 27  1  0  0  0
 26 55  1  0  0  0
 26 56  1  0  0  0
 27 28  1  0  0  0
 27 57  1  0  0  0
 27 58  1  0  0  0
 28 29  1  0  0  0
 28 59  1  0  0  0
 28 60  1  0  0  0
 29 30  2  0  0  0
 29 34  1  0  0  0
 30 31  1  0  0  0
 30 61  1  0  0  0
 31 32  2  0  0  0
 31 62  1  0  0  0
 32 33  1  0  0  0
 32 63  1  0  0  0
 33 34  2  0  0  0
 33 64  1  0  0  0
M  END
> <s_m_entry_id>
3024

> <s_m_entry_name>
dock_pv.116

> <s_m_Source_Path>
/home/csk/Desktop/cluster/DUD-E-result/adrb1

> <s_m_Source_File>
dock_pv.maegz

> <i_m_Source_File_Index>
116

> <chembl_id>
CHEMBL1945038

> <chembl_pref_name>
None

> <i_lp_mmshare_version>
53161

> <i_f3d_flags>
0

> <r_lp_tautomer_probability>
1

> <s_lp_Force_Field>
OPLS_2005

> <r_lp_Energy>
29.220681

> <b_lp_Chiralities_Consistent>
1

> <s_lp_Variant>
CHEMBL213_lig467-1

> <s_i_glide_gridfile>
glide-grid_2vt4

> <i_i_glide_lignum>
556

> <i_i_glide_rotatable_bonds>
14

> <r_i_docking_score>
-7.95710660085676

> <r_i_glide_ligand_efficiency>
-0.234032547084022

> <r_i_glide_ligand_efficiency_sa>
-0.758174600525228

> <r_i_glide_ligand_efficiency_ln>
-1.75794803740949

> <r_i_glide_gscore>
-7.95710660085676

> <r_i_glide_lipo>
-3.39296992977024

> <r_i_glide_hbond>
-0.516849148848868

> <r_i_glide_metal>
0

> <r_i_glide_rewards>
-0.591443617258988

> <r_i_glide_evdw>
-56.0804328918457

> <r_i_glide_ecoul>
-8.64016437530518

> <r_i_glide_erotb>
0.681229453351231

> <r_i_glide_esite>
-0.0370270574418332

> <r_i_glide_emodel>
-90.9688195809688

> <r_i_glide_energy>
-64.7205972671509

> <r_i_glide_einternal>
10.0577049255371

> <i_i_glide_confnum>
170

> <i_i_glide_posenum>
316

> <r_i_glide_eff_state_penalty>
0

> <s_user_duplicate_titles>
CHEMBL213_lig467

> <s_m_subgroup_title>
dock_pv

> <s_m_subgroupid>
dock_pv

> <b_m_subgroup_collapsed>
1

$$$$
CHEMBL213_lig877
                    3D
 Schrodinger Suite 2021-1.
 59 62  0  0  1  0            999 V2000
   31.2428    2.8881   -6.6525 C   0  0  0  0  0  0
   30.0171    2.4039   -6.1977 C   0  0  0  0  0  0
   29.5651    2.7104   -4.9159 C   0  0  0  0  0  0
   30.3219    3.5440   -4.0979 C   0  0  0  0  0  0
   31.5326    4.0746   -4.5630 C   0  0  0  0  0  0
   32.0001    3.7255   -5.8355 C   0  0  0  0  0  0
   32.2825    5.1163   -3.7362 C   0  0  2  0  0  0
   32.7841    4.5708   -2.3673 C   0  0  0  0  0  0
   31.4366    6.2377   -3.5363 O   0  0  0  0  0  0
   33.7572    5.4678   -1.7212 N   0  0  1  0  0  0
   33.8670    5.3063   -0.2656 C   0  0  1  0  0  0
   35.0732    6.0320    0.3673 C   0  0  0  0  0  0
   35.1849    5.7078    1.8779 C   0  0  0  0  0  0
   32.5687    5.7483    0.4484 C   0  0  0  0  0  0
   32.6720    6.0317    1.9440 C   0  0  0  0  0  0
   33.8971    6.0434    2.6301 C   0  0  0  0  0  0
   33.8842    6.3622    3.9967 C   0  0  0  0  0  0
   32.6886    6.6500    4.6679 C   0  0  0  0  0  0
   31.4695    6.6500    3.9867 C   0  0  0  0  0  0
   31.5084    6.3886    2.6173 C   0  0  0  0  0  0
   30.2906    6.9036    4.6852 O   0  0  0  0  0  0
   29.0422    6.3996    4.3179 C   0  0  0  0  0  0
   28.8581    5.3150    3.4488 C   0  0  0  0  0  0
   27.5912    4.9084    3.0603 C   0  0  0  0  0  0
   26.4473    5.4595    3.6375 C   0  0  0  0  0  0
   26.6114    6.4726    4.5919 C   0  0  0  0  0  0
   27.8963    6.9657    4.8882 C   0  0  0  0  0  0
   25.4077    7.0551    5.2645 C   0  0  0  0  0  0
   24.6741    6.1645    5.9851 O   0  0  0  0  0  0
   25.1209    8.2437    5.1819 O   0  0  0  0  0  0
   29.0329    1.4499   -7.2439 Cl  0  0  0  0  0  0
   25.1662    5.0474    3.3111 O   0  0  0  0  0  0
   24.9641    4.1969    2.1880 C   0  0  0  0  0  0
   31.5892    2.6476   -7.6475 H   0  0  0  0  0  0
   28.6146    2.3300   -4.5637 H   0  0  0  0  0  0
   29.9406    3.8129   -3.1220 H   0  0  0  0  0  0
   32.9283    4.1334   -6.2121 H   0  0  0  0  0  0
   33.1528    5.4498   -4.3057 H   0  0  0  0  0  0
   33.2710    3.6054   -2.5153 H   0  0  0  0  0  0
   31.9209    4.3741   -1.7345 H   0  0  0  0  0  0
   31.1427    6.5525   -4.3986 H   0  0  0  0  0  0
   34.6727    5.3537   -2.1373 H   0  0  0  0  0  0
   34.0240    4.2502   -0.0541 H   0  0  0  0  0  0
   34.9892    7.1103    0.2191 H   0  0  0  0  0  0
   35.9929    5.7327   -0.1361 H   0  0  0  0  0  0
   36.0311    6.2422    2.3110 H   0  0  0  0  0  0
   35.3929    4.6451    2.0021 H   0  0  0  0  0  0
   31.7646    5.0378    0.3020 H   0  0  0  0  0  0
   32.2156    6.6500   -0.0119 H   0  0  0  0  0  0
   34.8099    6.3738    4.5519 H   0  0  0  0  0  0
   32.7049    6.8647    5.7235 H   0  0  0  0  0  0
   30.6126    6.4305    2.0333 H   0  0  0  0  0  0
   29.6941    4.7642    3.0498 H   0  0  0  0  0  0
   27.5204    4.1343    2.3183 H   0  0  0  0  0  0
   28.0168    7.7839    5.5849 H   0  0  0  0  0  0
   23.9261    6.6222    6.3745 H   0  0  0  0  0  0
   23.8951    4.0560    2.0305 H   0  0  0  0  0  0
   25.3755    4.6387    1.2766 H   0  0  0  0  0  0
   25.4066    3.2127    2.3457 H   0  0  0  0  0  0
  1  6  1  0  0  0
  1  2  2  0  0  0
  1 34  1  0  0  0
  2  3  1  0  0  0
  2 31  1  0  0  0
  3  4  2  0  0  0
  3 35  1  0  0  0
  4  5  1  0  0  0
  4 36  1  0  0  0
  5  6  2  0  0  0
  5  7  1  0  0  0
  6 37  1  0  0  0
  7  8  1  0  0  0
  7  9  1  0  0  0
  7 38  1  0  0  0
  8 10  1  0  0  0
  8 39  1  0  0  0
  8 40  1  0  0  0
  9 41  1  0  0  0
 10 11  1  0  0  0
 10 42  1  0  0  0
 11 12  1  0  0  0
 11 14  1  0  0  0
 11 43  1  0  0  0
 12 13  1  0  0  0
 12 44  1  0  0  0
 12 45  1  0  0  0
 13 16  1  0  0  0
 13 46  1  0  0  0
 13 47  1  0  0  0
 14 15  1  0  0  0
 14 48  1  0  0  0
 14 49  1  0  0  0
 15 16  2  0  0  0
 15 20  1  0  0  0
 16 17  1  0  0  0
 17 18  2  0  0  0
 17 50  1  0  0  0
 18 19  1  0  0  0
 18 51  1  0  0  0
 19 20  2  0  0  0
 19 21  1  0  0  0
 20 52  1  0  0  0
 21 22  1  0  0  0
 22 23  2  0  0  0
 22 27  1  0  0  0
 23 24  1  0  0  0
 23 53  1  0  0  0
 24 25  2  0  0  0
 24 54  1  0  0  0
 25 26  1  0  0  0
 25 32  1  0  0  0
 26 27  2  0  0  0
 26 28  1  0  0  0
 27 55  1  0  0  0
 28 29  1  0  0  0
 28 30  2  0  0  0
 29 56  1  0  0  0
 32 33  1  0  0  0
 33 57  1  0  0  0
 33 58  1  0  0  0
 33 59  1  0  0  0
M  END
> <s_m_entry_id>
3025

> <s_m_entry_name>
dock_pv.117

> <s_m_Source_Path>
/home/csk/Desktop/cluster/DUD-E-result/adrb1

> <s_m_Source_File>
dock_pv.maegz

> <i_m_Source_File_Index>
117

> <chembl_id>
CHEMBL456795

> <chembl_pref_name>
None

> <i_lp_mmshare_version>
53161

> <i_f3d_flags>
0

> <r_lp_tautomer_probability>
1

> <s_lp_Force_Field>
OPLS_2005

> <r_lp_Energy>
34.95322

> <b_lp_Chiralities_Consistent>
1

> <s_lp_Variant>
CHEMBL213_lig877-1

> <s_i_glide_gridfile>
glide-grid_2vt4

> <i_i_glide_lignum>
985

> <i_i_glide_rotatable_bonds>
10

> <r_i_docking_score>
-7.95266957691281

> <r_i_glide_ligand_efficiency>
-0.240989987179176

> <r_i_glide_ligand_efficiency_sa>
-0.772983656161547

> <r_i_glide_ligand_efficiency_ln>
-1.76863253718607

> <r_i_glide_gscore>
-7.95266957691281

> <r_i_glide_lipo>
-3.74535230670468

> <r_i_glide_hbond>
-0.443953971328763

> <r_i_glide_metal>
0

> <r_i_glide_rewards>
-0.858007553345429

> <r_i_glide_evdw>
-44.4151344299316

> <r_i_glide_ecoul>
-8.25149059295654

> <r_i_glide_erotb>
0.553124564906128

> <r_i_glide_esite>
0

> <r_i_glide_emodel>
-69.7432701692928

> <r_i_glide_energy>
-52.6666250228882

> <r_i_glide_einternal>
11.1215515136719

> <i_i_glide_confnum>
31

> <i_i_glide_posenum>
152

> <r_i_glide_eff_state_penalty>
0

> <s_user_duplicate_titles>
CHEMBL213_lig877

> <s_m_subgroup_title>
dock_pv

> <s_m_subgroupid>
dock_pv

> <b_m_subgroup_collapsed>
1

$$$$
CHEMBL213_lig875
                    3D
 Schrodinger Suite 2021-1.
 71 75  0  0  1  0            999 V2000
   25.6873    5.7064    4.6300 C   0  0  0  0  0  0
   25.7025    5.0214    3.4190 C   0  0  0  0  0  0
   26.8500    5.0450    2.6313 C   0  0  0  0  0  0
   27.9793    5.7434    3.0567 C   0  0  0  0  0  0
   27.9893    6.4302    4.2794 C   0  0  0  0  0  0
   26.8214    6.3850    5.0588 C   0  0  0  0  0  0
   29.1414    7.3828    4.6684 C   0  0  2  0  0  0
   30.6270    6.9328    4.6042 C   0  0  0  0  0  0
   29.0078    7.8480    5.9840 O   0  0  0  0  0  0
   24.2559    5.7610    5.5899 Cl  0  0  0  0  0  0
   30.9949    6.2500    3.3752 N   0  0  1  0  0  0
   32.3552    6.4992    2.9231 C   0  0  1  0  0  0
   33.4800    5.9498    3.8322 C   0  0  0  0  0  0
   34.8660    6.2952    3.2564 C   0  0  0  0  0  0
   32.4672    5.9598    1.4878 C   0  0  0  0  0  0
   33.8871    5.8499    0.9439 C   0  0  0  0  0  0
   35.0116    5.8739    1.7930 C   0  0  0  0  0  0
   36.2611    5.5469    1.2544 C   0  0  0  0  0  0
   36.4037    5.2063   -0.0920 C   0  0  0  0  0  0
   35.3031    5.2276   -0.9463 C   0  0  0  0  0  0
   34.0642    5.6073   -0.4185 C   0  0  0  0  0  0
   35.5123    4.8948   -2.2724 O   0  0  0  0  0  0
   34.5277    4.4406   -3.1331 C   0  0  0  0  0  0
   34.7309    4.6543   -4.4975 C   0  0  0  0  0  0
   33.7900    4.2326   -5.4500 C   0  0  0  0  0  0
   32.6294    3.5976   -5.0149 C   0  0  0  0  0  0
   32.4206    3.3481   -3.6582 C   0  0  0  0  0  0
   33.3851    3.7367   -2.7247 C   0  0  0  0  0  0
   31.1860    2.6299   -3.2264 C   0  0  0  0  0  0
   30.2871    3.3976   -2.5491 O   0  0  0  0  0  0
   31.0079    1.4498   -3.5051 O   0  0  0  0  0  0
   33.9237    4.4296   -6.8338 N   0  0  0  0  0  0
   35.2208    4.6475   -7.4601 C   0  0  0  0  0  0
   35.9041    3.2873   -7.6962 C   0  0  0  0  0  0
   37.1748    3.4715   -8.5484 C   0  0  0  0  0  0
   36.8568    4.1595   -9.7574 O   0  0  0  0  0  0
   36.3338    5.4721   -9.5483 C   0  0  0  0  0  0
   34.9977    5.3766   -8.7938 C   0  0  0  0  0  0
   24.8238    4.4913    3.0805 H   0  0  0  0  0  0
   26.8629    4.5343    1.6779 H   0  0  0  0  0  0
   28.8191    5.7824    2.3848 H   0  0  0  0  0  0
   26.7428    6.9275    5.9847 H   0  0  0  0  0  0
   29.0554    8.2493    4.0136 H   0  0  0  0  0  0
   30.8782    6.2663    5.4257 H   0  0  0  0  0  0
   31.2513    7.8200    4.7392 H   0  0  0  0  0  0
   28.1366    8.2499    6.0949 H   0  0  0  0  0  0
   30.9921    5.2608    3.6322 H   0  0  0  0  0  0
   32.5090    7.5764    2.8556 H   0  0  0  0  0  0
   33.3976    4.8714    3.9820 H   0  0  0  0  0  0
   33.3925    6.3840    4.8285 H   0  0  0  0  0  0
   35.6469    5.8501    3.8711 H   0  0  0  0  0  0
   35.0117    7.3742    3.3180 H   0  0  0  0  0  0
   31.8657    6.5870    0.8298 H   0  0  0  0  0  0
   32.0306    4.9681    1.4331 H   0  0  0  0  0  0
   37.1379    5.5555    1.8841 H   0  0  0  0  0  0
   37.3751    4.9376   -0.4830 H   0  0  0  0  0  0
   33.1972    5.6595   -1.0550 H   0  0  0  0  0  0
   35.6332    5.1726   -4.7889 H   0  0  0  0  0  0
   31.8927    3.2825   -5.7418 H   0  0  0  0  0  0
   33.2468    3.4912   -1.6814 H   0  0  0  0  0  0
   29.5069    2.8516   -2.3831 H   0  0  0  0  0  0
   33.2317    3.9879   -7.4170 H   0  0  0  0  0  0
   35.8670    5.2496   -6.8251 H   0  0  0  0  0  0
   35.2243    2.6002   -8.2038 H   0  0  0  0  0  0
   36.1645    2.8213   -6.7437 H   0  0  0  0  0  0
   37.6019    2.5002   -8.7985 H   0  0  0  0  0  0
   37.9391    4.0152   -7.9931 H   0  0  0  0  0  0
   36.1811    5.9590  -10.5066 H   0  0  0  0  0  0
   37.0502    6.0925   -9.0051 H   0  0  0  0  0  0
   34.6085    6.3782   -8.6061 H   0  0  0  0  0  0
   34.2593    4.8571   -9.4049 H   0  0  0  0  0  0
  1 10  1  0  0  0
  1  6  1  0  0  0
  1  2  2  0  0  0
  2  3  1  0  0  0
  2 39  1  0  0  0
  3  4  2  0  0  0
  3 40  1  0  0  0
  4  5  1  0  0  0
  4 41  1  0  0  0
  5  6  2  0  0  0
  5  7  1  0  0  0
  6 42  1  0  0  0
  7  9  1  0  0  0
  7  8  1  0  0  0
  7 43  1  0  0  0
  8 11  1  0  0  0
  8 44  1  0  0  0
  8 45  1  0  0  0
  9 46  1  0  0  0
 11 12  1  0  0  0
 11 47  1  0  0  0
 12 13  1  0  0  0
 12 15  1  0  0  0
 12 48  1  0  0  0
 13 14  1  0  0  0
 13 49  1  0  0  0
 13 50  1  0  0  0
 14 17  1  0  0  0
 14 51  1  0  0  0
 14 52  1  0  0  0
 15 16  1  0  0  0
 15 53  1  0  0  0
 15 54  1  0  0  0
 16 21  1  0  0  0
 16 17  2  0  0  0
 17 18  1  0  0  0
 18 19  2  0  0  0
 18 55  1  0  0  0
 19 20  1  0  0  0
 19 56  1  0  0  0
 20 21  2  0  0  0
 20 22  1  0  0  0
 21 57  1  0  0  0
 22 23  1  0  0  0
 23 24  2  0  0  0
 23 28  1  0  0  0
 24 25  1  0  0  0
 24 58  1  0  0  0
 25 26  2  0  0  0
 25 32  1  0  0  0
 26 27  1  0  0  0
 26 59  1  0  0  0
 27 28  2  0  0  0
 27 29  1  0  0  0
 28 60  1  0  0  0
 29 30  1  0  0  0
 29 31  2  0  0  0
 30 61  1  0  0  0
 32 33  1  0  0  0
 32 62  1  0  0  0
 33 34  1  0  0  0
 33 38  1  0  0  0
 33 63  1  0  0  0
 34 35  1  0  0  0
 34 64  1  0  0  0
 34 65  1  0  0  0
 35 36  1  0  0  0
 35 66  1  0  0  0
 35 67  1  0  0  0
 36 37  1  0  0  0
 37 38  1  0  0  0
 37 68  1  0  0  0
 37 69  1  0  0  0
 38 70  1  0  0  0
 38 71  1  0  0  0
M  END
> <s_m_entry_id>
3026

> <s_m_entry_name>
dock_pv.118

> <s_m_Source_Path>
/home/csk/Desktop/cluster/DUD-E-result/adrb1

> <s_m_Source_File>
dock_pv.maegz

> <i_m_Source_File_Index>
118

> <chembl_id>
CHEMBL515349

> <chembl_pref_name>
None

> <i_lp_mmshare_version>
53161

> <i_f3d_flags>
0

> <r_lp_tautomer_probability>
1

> <s_lp_Force_Field>
OPLS_2005

> <r_lp_Energy>
33.933135

> <b_lp_Chiralities_Consistent>
1

> <s_lp_Variant>
CHEMBL213_lig875-1

> <s_i_glide_gridfile>
glide-grid_2vt4

> <i_i_glide_lignum>
983

> <i_i_glide_rotatable_bonds>
11

> <r_i_docking_score>
-7.95008614550424

> <r_i_glide_ligand_efficiency>
-0.209212793302743

> <r_i_glide_ligand_efficiency_sa>
-0.703368265018683

> <r_i_glide_ligand_efficiency_ln>
-1.71427244081074

> <r_i_glide_gscore>
-7.95008614550424

> <r_i_glide_lipo>
-3.39532549829714

> <r_i_glide_hbond>
-0.544140972666321

> <r_i_glide_metal>
0

> <r_i_glide_rewards>
-0.496862948729422

> <r_i_glide_evdw>
-46.210994720459

> <r_i_glide_ecoul>
-11.6430749893188

> <r_i_glide_erotb>
0.572893128438219

> <r_i_glide_esite>
-0.0296388698288011

> <r_i_glide_emodel>
-67.4825544129656

> <r_i_glide_energy>
-57.8540697097778

> <r_i_glide_einternal>
19.9524173736572

> <i_i_glide_confnum>
28

> <i_i_glide_posenum>
216

> <r_i_glide_eff_state_penalty>
0

> <s_user_duplicate_titles>
CHEMBL213_lig875,511938

> <s_m_subgroup_title>
dock_pv

> <s_m_subgroupid>
dock_pv

> <b_m_subgroup_collapsed>
1

$$$$
CHEMBL213_lig1072
                    3D
 Schrodinger Suite 2021-1.
 76 78  0  0  1  0            999 V2000
   29.4094    3.2034   -5.1910 C   0  0  0  0  0  0
   29.0653    2.3766   -6.2701 C   0  0  0  0  0  0
   30.0068    2.0802   -7.2543 C   0  0  0  0  0  0
   31.2934    2.6084   -7.1825 C   0  0  0  0  0  0
   31.6478    3.4546   -6.1278 C   0  0  0  0  0  0
   30.6961    3.7518   -5.1395 C   0  0  0  0  0  0
   28.4329    3.4858   -4.0489 C   0  0  0  0  0  0
   27.8081    4.7461   -4.1066 O   0  0  0  0  0  0
   27.8080    1.8561   -6.4154 O   0  0  0  0  0  0
   33.0604    4.0350   -6.0466 C   0  0  2  0  0  0
   33.8099    3.4365   -4.8289 C   0  0  0  0  0  0
   33.0298    5.4489   -6.0150 O   0  0  0  0  0  0
   35.1849    3.9028   -4.6308 N   0  0  2  0  0  0
   35.3127    5.0229   -3.7047 C   0  0  0  0  0  0
   34.9882    4.6295   -2.2487 C   0  0  0  0  0  0
   35.3405    5.7333   -1.2377 C   0  0  0  0  0  0
   34.8280    5.4089    0.1772 C   0  0  0  0  0  0
   35.2703    6.4456    1.2261 C   0  0  0  0  0  0
   34.6146    6.2426    2.5999 C   0  0  0  0  0  0
   33.2186    6.4784    2.4824 O   0  0  0  0  0  0
   32.5137    6.4433    3.7107 C   0  0  0  0  0  0
   31.0433    6.8127    3.4491 C   0  0  0  0  0  0
   30.1424    6.6357    4.6918 C   0  0  0  0  0  0
   28.8357    7.4267    4.6785 C   0  0  0  0  0  0
   27.5859    6.5800    4.3894 C   0  0  0  0  0  0
   27.4269    5.8499    3.2004 C   0  0  0  0  0  0
   26.2384    5.1332    2.9255 C   0  0  0  0  0  0
   25.2400    5.1432    3.9152 C   0  0  0  0  0  0
   25.3953    5.8500    5.1028 C   0  0  0  0  0  0
   26.5691    6.5434    5.3399 C   0  0  0  0  0  0
   26.0289    4.4439    1.6774 N   0  0  0  0  0  0
   25.2196    3.3525    1.5229 C   0  0  0  0  0  0
   25.3198    2.9223    0.0925 C   0  0  0  0  0  0
   26.2080    3.9027   -0.4164 N   0  0  0  0  0  0
   26.6079    4.7957    0.4859 C   0  0  0  0  0  0
   27.4087    5.6958    0.2544 O   0  0  0  0  0  0
   24.5484    2.7491    2.3603 O   0  0  0  0  0  0
   29.7317    1.4488   -8.0834 H   0  0  0  0  0  0
   32.0102    2.3641   -7.9538 H   0  0  0  0  0  0
   30.9629    4.4035   -4.3199 H   0  0  0  0  0  0
   27.6609    2.7178   -4.0150 H   0  0  0  0  0  0
   28.9768    3.4500   -3.1015 H   0  0  0  0  0  0
   26.8986    4.6639   -3.7879 H   0  0  0  0  0  0
   27.1643    2.2016   -5.7830 H   0  0  0  0  0  0
   33.6008    3.7644   -6.9559 H   0  0  0  0  0  0
   33.2115    3.5408   -3.9248 H   0  0  0  0  0  0
   33.8950    2.3637   -4.9893 H   0  0  0  0  0  0
   33.9341    5.7773   -6.0179 H   0  0  0  0  0  0
   35.6450    4.1255   -5.5036 H   0  0  0  0  0  0
   36.3463    5.3724   -3.7522 H   0  0  0  0  0  0
   34.6985    5.8619   -4.0238 H   0  0  0  0  0  0
   33.9255    4.4067   -2.1472 H   0  0  0  0  0  0
   35.5263    3.7158   -1.9854 H   0  0  0  0  0  0
   36.4228    5.8744   -1.2218 H   0  0  0  0  0  0
   34.9094    6.6824   -1.5633 H   0  0  0  0  0  0
   33.7369    5.3537    0.1543 H   0  0  0  0  0  0
   35.1729    4.4179    0.4789 H   0  0  0  0  0  0
   36.3548    6.4070    1.3329 H   0  0  0  0  0  0
   35.0363    7.4492    0.8716 H   0  0  0  0  0  0
   34.8020    5.2341    2.9712 H   0  0  0  0  0  0
   35.0547    6.9438    3.3115 H   0  0  0  0  0  0
   32.6083    5.4510    4.1467 H   0  0  0  0  0  0
   32.9480    7.1545    4.4152 H   0  0  0  0  0  0
   31.0207    7.8499    3.1060 H   0  0  0  0  0  0
   30.6508    6.2112    2.6291 H   0  0  0  0  0  0
   29.8515    5.5929    4.7848 H   0  0  0  0  0  0
   30.7097    6.9034    5.5857 H   0  0  0  0  0  0
   28.7114    7.9077    5.6504 H   0  0  0  0  0  0
   28.9437    8.2529    3.9861 H   0  0  0  0  0  0
   28.2392    5.8661    2.4920 H   0  0  0  0  0  0
   24.2903    4.6496    3.7714 H   0  0  0  0  0  0
   24.6074    5.8487    5.8419 H   0  0  0  0  0  0
   26.6822    7.0493    6.2809 H   0  0  0  0  0  0
   25.7460    1.9227   -0.0117 H   0  0  0  0  0  0
   24.3566    2.9618   -0.4134 H   0  0  0  0  0  0
   26.2251    4.0904   -1.4110 H   0  0  0  0  0  0
  1  6  1  0  0  0
  1  2  2  0  0  0
  1  7  1  0  0  0
  2  3  1  0  0  0
  2  9  1  0  0  0
  3  4  2  0  0  0
  3 38  1  0  0  0
  4  5  1  0  0  0
  4 39  1  0  0  0
  5 10  1  0  0  0
  5  6  2  0  0  0
  6 40  1  0  0  0
  7  8  1  0  0  0
  7 41  1  0  0  0
  7 42  1  0  0  0
  8 43  1  0  0  0
  9 44  1  0  0  0
 10 11  1  0  0  0
 10 12  1  0  0  0
 10 45  1  0  0  0
 11 13  1  0  0  0
 11 46  1  0  0  0
 11 47  1  0  0  0
 12 48  1  0  0  0
 13 14  1  0  0  0
 13 49  1  0  0  0
 14 15  1  0  0  0
 14 50  1  0  0  0
 14 51  1  0  0  0
 15 16  1  0  0  0
 15 52  1  0  0  0
 15 53  1  0  0  0
 16 17  1  0  0  0
 16 54  1  0  0  0
 16 55  1  0  0  0
 17 18  1  0  0  0
 17 56  1  0  0  0
 17 57  1  0  0  0
 18 19  1  0  0  0
 18 58  1  0  0  0
 18 59  1  0  0  0
 19 20  1  0  0  0
 19 60  1  0  0  0
 19 61  1  0  0  0
 20 21  1  0  0  0
 21 22  1  0  0  0
 21 62  1  0  0  0
 21 63  1  0  0  0
 22 23  1  0  0  0
 22 64  1  0  0  0
 22 65  1  0  0  0
 23 24  1  0  0  0
 23 66  1  0  0  0
 23 67  1  0  0  0
 24 25  1  0  0  0
 24 68  1  0  0  0
 24 69  1  0  0  0
 25 26  2  0  0  0
 25 30  1  0  0  0
 26 27  1  0  0  0
 26 70  1  0  0  0
 27 28  2  0  0  0
 27 31  1  0  0  0
 28 29  1  0  0  0
 28 71  1  0  0  0
 29 30  2  0  0  0
 29 72  1  0  0  0
 30 73  1  0  0  0
 31 32  1  0  0  0
 31 35  1  0  0  0
 32 33  1  0  0  0
 32 37  2  0  0  0
 33 34  1  0  0  0
 33 74  1  0  0  0
 33 75  1  0  0  0
 34 35  1  0  0  0
 34 76  1  0  0  0
 35 36  2  0  0  0
M  END
> <s_m_entry_id>
3027

> <s_m_entry_name>
dock_pv.119

> <s_m_Source_Path>
/home/csk/Desktop/cluster/DUD-E-result/adrb1

> <s_m_Source_File>
dock_pv.maegz

> <i_m_Source_File_Index>
119

> <chembl_id>
CHEMBL1814268

> <chembl_pref_name>
None

> <i_lp_mmshare_version>
53161

> <i_f3d_flags>
0

> <r_lp_tautomer_probability>
0.999999999997159

> <s_lp_Force_Field>
OPLS_2005

> <r_lp_Energy>
46.091715

> <b_lp_Chiralities_Consistent>
1

> <s_lp_Variant>
CHEMBL213_lig1072-1

> <s_i_glide_gridfile>
glide-grid_2vt4

> <i_i_glide_lignum>
1254

> <i_i_glide_rotatable_bonds>
20

> <r_i_docking_score>
-7.93696818641089

> <r_i_glide_ligand_efficiency>
-0.214512653686781

> <r_i_glide_ligand_efficiency_sa>
-0.714803751209286

> <r_i_glide_ligand_efficiency_ln>
-1.72134233069859

> <r_i_glide_gscore>
-7.93696818641089

> <r_i_glide_lipo>
-3.70024831004225

> <r_i_glide_hbond>
-0.404975217294298

> <r_i_glide_metal>
0

> <r_i_glide_rewards>
-1.40333494319978

> <r_i_glide_evdw>
-50.3427581787109

> <r_i_glide_ecoul>
-8.02550220489502

> <r_i_glide_erotb>
1.32149226624345

> <r_i_glide_esite>
-0.0289387424482204

> <r_i_glide_emodel>
-80.3257935482952

> <r_i_glide_energy>
-58.368260383606

> <r_i_glide_einternal>
13.4740676879883

> <i_i_glide_confnum>
125

> <i_i_glide_posenum>
193

> <r_i_glide_eff_state_penalty>
0

> <s_user_duplicate_titles>
CHEMBL213_lig1072

> <s_m_subgroup_title>
dock_pv

> <s_m_subgroupid>
dock_pv

> <b_m_subgroup_collapsed>
1

$$$$
CHEMBL213_lig883
                    3D
 Schrodinger Suite 2021-1.
 55 58  0  0  1  0            999 V2000
   27.1965    5.3328    3.1863 C   0  0  0  0  0  0
   26.3862    5.3855    4.3189 C   0  0  0  0  0  0
   26.8449    6.0206    5.4719 C   0  0  0  0  0  0
   28.0898    6.6500    5.4708 C   0  0  0  0  0  0
   28.9012    6.6320    4.3253 C   0  0  0  0  0  0
   28.4675    5.8998    3.2124 C   0  0  0  0  0  0
   26.6034    4.6500    1.7187 Cl  0  0  0  0  0  0
   30.1693    7.4972    4.2179 C   0  0  2  0  0  0
   31.5224    6.7653    4.3025 C   0  0  0  0  0  0
   30.2080    8.5088    5.1850 O   0  0  0  0  0  0
   31.6347    5.8500    3.1850 N   0  0  1  0  0  0
   32.4870    6.2152    2.0865 C   0  0  1  0  0  0
   34.0011    5.9493    2.2417 C   0  0  0  0  0  0
   34.7823    6.3629    0.9775 C   0  0  0  0  0  0
   31.8930    5.5004    0.8719 C   0  0  0  0  0  0
   32.7924    5.4552   -0.3644 C   0  0  0  0  0  0
   34.1497    5.8421   -0.3177 C   0  0  0  0  0  0
   34.8993    5.7928   -1.5002 C   0  0  0  0  0  0
   34.3243    5.4062   -2.7109 C   0  0  0  0  0  0
   32.9816    5.0432   -2.7711 C   0  0  0  0  0  0
   32.2421    5.0500   -1.5819 C   0  0  0  0  0  0
   32.4501    4.6818   -3.9985 O   0  0  0  0  0  0
   31.0891    4.5217   -4.1522 C   0  0  0  0  0  0
   30.5807    3.2749   -4.5120 C   0  0  0  0  0  0
   29.2020    3.0760   -4.5775 C   0  0  0  0  0  0
   28.3227    4.1128   -4.2593 C   0  0  0  0  0  0
   28.8160    5.3837   -3.9264 C   0  0  0  0  0  0
   30.2055    5.5801   -3.9149 C   0  0  0  0  0  0
   27.9052    6.5458   -3.6150 C   0  0  0  0  0  0
   26.6080    6.2500   -3.3290 O   0  0  0  0  0  0
   28.3245    7.6972   -3.6151 O   0  0  0  0  0  0
   25.3980    4.9495    4.2977 H   0  0  0  0  0  0
   26.2167    6.0740    6.3492 H   0  0  0  0  0  0
   28.3934    7.1971    6.3517 H   0  0  0  0  0  0
   29.0797    5.8500    2.3259 H   0  0  0  0  0  0
   30.1234    8.0187    3.2608 H   0  0  0  0  0  0
   31.5756    6.2148    5.2402 H   0  0  0  0  0  0
   32.3689    7.4525    4.3023 H   0  0  0  0  0  0
   31.0693    8.9492    5.1158 H   0  0  0  0  0  0
   31.8081    4.9132    3.5501 H   0  0  0  0  0  0
   32.3351    7.2824    1.9850 H   0  0  0  0  0  0
   34.2080    4.8952    2.4167 H   0  0  0  0  0  0
   34.3896    6.4853    3.1078 H   0  0  0  0  0  0
   35.8134    6.0145    1.0530 H   0  0  0  0  0  0
   34.8445    7.4494    0.9279 H   0  0  0  0  0  0
   30.9826    6.0217    0.5933 H   0  0  0  0  0  0
   31.5407    4.5245    1.1850 H   0  0  0  0  0  0
   35.9391    6.0869   -1.4895 H   0  0  0  0  0  0
   34.9239    5.4001   -3.6103 H   0  0  0  0  0  0
   31.2063    4.7456   -1.5878 H   0  0  0  0  0  0
   31.2562    2.4564   -4.7108 H   0  0  0  0  0  0
   28.8083    2.1034   -4.8341 H   0  0  0  0  0  0
   27.2611    3.9102   -4.3008 H   0  0  0  0  0  0
   30.6181    6.5493   -3.6715 H   0  0  0  0  0  0
   26.3474    5.3210   -3.3473 H   0  0  0  0  0  0
  1  6  1  0  0  0
  1  2  2  0  0  0
  1  7  1  0  0  0
  2  3  1  0  0  0
  2 32  1  0  0  0
  3  4  2  0  0  0
  3 33  1  0  0  0
  4  5  1  0  0  0
  4 34  1  0  0  0
  5  8  1  0  0  0
  5  6  2  0  0  0
  6 35  1  0  0  0
  8  9  1  0  0  0
  8 10  1  0  0  0
  8 36  1  0  0  0
  9 11  1  0  0  0
  9 37  1  0  0  0
  9 38  1  0  0  0
 10 39  1  0  0  0
 11 12  1  0  0  0
 11 40  1  0  0  0
 12 13  1  0  0  0
 12 15  1  0  0  0
 12 41  1  0  0  0
 13 14  1  0  0  0
 13 42  1  0  0  0
 13 43  1  0  0  0
 14 17  1  0  0  0
 14 44  1  0  0  0
 14 45  1  0  0  0
 15 16  1  0  0  0
 15 46  1  0  0  0
 15 47  1  0  0  0
 16 17  2  0  0  0
 16 21  1  0  0  0
 17 18  1  0  0  0
 18 19  2  0  0  0
 18 48  1  0  0  0
 19 20  1  0  0  0
 19 49  1  0  0  0
 20 21  2  0  0  0
 20 22  1  0  0  0
 21 50  1  0  0  0
 22 23  1  0  0  0
 23 24  2  0  0  0
 23 28  1  0  0  0
 24 25  1  0  0  0
 24 51  1  0  0  0
 25 26  2  0  0  0
 25 52  1  0  0  0
 26 27  1  0  0  0
 26 53  1  0  0  0
 27 28  2  0  0  0
 27 29  1  0  0  0
 28 54  1  0  0  0
 29 30  1  0  0  0
 29 31  2  0  0  0
 30 55  1  0  0  0
M  END
> <s_m_entry_id>
3028

> <s_m_entry_name>
dock_pv.120

> <s_m_Source_Path>
/home/csk/Desktop/cluster/DUD-E-result/adrb1

> <s_m_Source_File>
dock_pv.maegz

> <i_m_Source_File_Index>
120

> <chembl_id>
CHEMBL497847

> <chembl_pref_name>
None

> <i_lp_mmshare_version>
53161

> <i_f3d_flags>
0

> <r_lp_tautomer_probability>
1

> <s_lp_Force_Field>
OPLS_2005

> <r_lp_Energy>
33.443054

> <b_lp_Chiralities_Consistent>
1

> <s_lp_Variant>
CHEMBL213_lig883-1

> <s_i_glide_gridfile>
glide-grid_2vt4

> <i_i_glide_lignum>
991

> <i_i_glide_rotatable_bonds>
9

> <r_i_docking_score>
-7.93397819333285

> <r_i_glide_ligand_efficiency>
-0.255934780430092

> <r_i_glide_ligand_efficiency_sa>
-0.803988566596834

> <r_i_glide_ligand_efficiency_ln>
-1.7893552298273

> <r_i_glide_gscore>
-7.93397819333285

> <r_i_glide_lipo>
-3.35257778276634

> <r_i_glide_hbond>
-0.528486249103746

> <r_i_glide_metal>
0

> <r_i_glide_rewards>
-1.35912335304537

> <r_i_glide_evdw>
-31.860725402832

> <r_i_glide_ecoul>
-11.4986429214478

> <r_i_glide_erotb>
0.624041899941376

> <r_i_glide_esite>
0

> <r_i_glide_emodel>
-50.0561545891229

> <r_i_glide_energy>
-43.3593683242798

> <r_i_glide_einternal>
9.49205875396729

> <i_i_glide_confnum>
22

> <i_i_glide_posenum>
398

> <r_i_glide_eff_state_penalty>
0

> <s_user_duplicate_titles>
CHEMBL213_lig883

> <s_m_subgroup_title>
dock_pv

> <s_m_subgroupid>
dock_pv

> <b_m_subgroup_collapsed>
1

$$$$
CHEMBL213_lig331
                    3D
 Schrodinger Suite 2021-1.
 81 85  0  0  1  0            999 V2000
   35.4205    6.4135    3.2484 S   0  0  0  0  0  0
   28.5612    5.8720    3.5829 C   0  0  0  0  0  0
   29.4959    6.6491    4.2084 N   0  0  0  0  0  0
   27.3807    6.2495    4.1286 N   0  0  0  0  0  0
   28.8776    7.3436    5.1896 C   0  0  0  0  0  0
   35.6962    5.0504    2.1415 N   0  0  0  0  0  0
   27.5812    7.0846    5.1402 C   0  0  0  0  0  0
   33.6596    6.5066    3.5105 C   0  0  0  0  0  0
   30.8964    6.6498    3.9546 C   0  0  0  0  0  0
   35.8542    7.6566    2.6009 O   0  0  0  0  0  0
   36.0135    5.9979    4.5245 O   0  0  0  0  0  0
   28.7380    5.0498    2.6824 O   0  0  0  0  0  0
   30.8343    2.5945   -4.5698 C   0  0  0  0  0  0
   29.8085    0.6505   -5.6209 N   0  0  0  0  0  0
   33.1726    6.8374    4.7736 C   0  0  0  0  0  0
   32.7765    6.2498    2.4669 C   0  0  0  0  0  0
   31.4081    6.3171    2.6886 C   0  0  0  0  0  0
   31.8006    6.9312    4.9905 C   0  0  0  0  0  0
   35.7036    5.0765    0.7430 C   0  0  0  0  0  0
   31.3471    3.3184   -3.3126 C   0  0  1  0  0  0
   26.0607    6.0655    3.5217 C   0  0  0  0  0  0
   33.3778    4.2807   -4.4499 N   0  0  1  0  0  0
   35.7049    4.9180   -2.0428 C   0  0  0  0  0  0
   30.2820    1.3033   -4.5285 C   0  0  0  0  0  0
   36.0991    3.9005    0.1038 C   0  0  0  0  0  0
   35.3291    6.1870   -0.0179 C   0  0  0  0  0  0
   36.0987    3.8179   -1.2836 C   0  0  0  0  0  0
   35.3379    6.1085   -1.4052 C   0  0  0  0  0  0
   31.0079    2.6557   -2.1072 O   0  0  0  0  0  0
   25.4490    4.6632    3.7317 C   0  0  0  0  0  0
   32.8810    3.5791   -3.2633 C   0  0  0  0  0  0
   30.8742    3.2292   -5.8187 C   0  0  0  0  0  0
   29.8893    1.2874   -6.8151 C   0  0  0  0  0  0
   24.6660    3.9563    1.2845 C   0  0  0  0  0  0
   34.3864    5.3097   -4.2210 C   0  0  0  0  0  0
   24.3144    4.2831    2.7561 C   0  0  0  0  0  0
   35.6960    4.8233   -3.5632 C   0  0  0  0  0  0
   25.9897    4.5153    0.7257 C   0  0  0  0  0  0
   24.7894    2.4569    1.0763 C   0  0  0  0  0  0
   30.4246    2.5653   -6.9566 C   0  0  0  0  0  0
   25.6437    2.2997   -0.1687 C   0  0  0  0  0  0
   26.4343    3.5834   -0.3860 C   0  0  0  0  0  0
   29.4315    8.0096    5.8310 H   0  0  0  0  0  0
   35.8558    4.1471    2.5612 H   0  0  0  0  0  0
   26.7334    7.4490    5.6971 H   0  0  0  0  0  0
   33.8536    7.0388    5.5856 H   0  0  0  0  0  0
   33.1319    5.9928    1.4824 H   0  0  0  0  0  0
   30.7623    6.0987    1.8526 H   0  0  0  0  0  0
   31.4584    7.1806    5.9823 H   0  0  0  0  0  0
   30.8393    4.2833   -3.2729 H   0  0  0  0  0  0
   26.1847    6.2805    2.4638 H   0  0  0  0  0  0
   25.3620    6.8278    3.8671 H   0  0  0  0  0  0
   33.7460    3.6109   -5.1114 H   0  0  0  0  0  0
   30.2101    0.7586   -3.5987 H   0  0  0  0  0  0
   36.3990    3.0337    0.6764 H   0  0  0  0  0  0
   35.0099    7.1080    0.4386 H   0  0  0  0  0  0
   36.4083    2.8992   -1.7607 H   0  0  0  0  0  0
   35.0494    6.9781   -1.9737 H   0  0  0  0  0  0
   30.0497    2.5329   -2.0880 H   0  0  0  0  0  0
   25.0339    4.6501    4.7377 H   0  0  0  0  0  0
   26.2134    3.8904    3.7103 H   0  0  0  0  0  0
   33.4284    2.6401   -3.1666 H   0  0  0  0  0  0
   33.0993    4.1593   -2.3652 H   0  0  0  0  0  0
   31.2572    4.2349   -5.9151 H   0  0  0  0  0  0
   29.5138    0.7573   -7.6762 H   0  0  0  0  0  0
   23.8457    4.3072    0.6532 H   0  0  0  0  0  0
   33.9161    6.0693   -3.6020 H   0  0  0  0  0  0
   34.6088    5.8227   -5.1594 H   0  0  0  0  0  0
   23.5586    5.0499    2.7378 H   0  0  0  0  0  0
   23.7747    3.4394    3.1845 H   0  0  0  0  0  0
   36.5189    5.4485   -3.9075 H   0  0  0  0  0  0
   35.9452    3.8177   -3.9076 H   0  0  0  0  0  0
   26.7666    4.4857    1.4775 H   0  0  0  0  0  0
   25.9026    5.5375    0.3632 H   0  0  0  0  0  0
   23.8103    1.9923    0.9523 H   0  0  0  0  0  0
   25.2694    1.9794    1.9335 H   0  0  0  0  0  0
   30.4937    3.0392   -7.9244 H   0  0  0  0  0  0
   26.3058    1.4496   -0.0150 H   0  0  0  0  0  0
   24.9986    2.1905   -1.0398 H   0  0  0  0  0  0
   27.5105    3.4084   -0.3631 H   0  0  0  0  0  0
   26.2158    4.0141   -1.3612 H   0  0  0  0  0  0
  1  6  1  0  0  0
  1  8  1  0  0  0
  1 10  2  0  0  0
  1 11  2  0  0  0
  2  3  1  0  0  0
  2  4  1  0  0  0
  2 12  2  0  0  0
  3  9  1  0  0  0
  3  5  1  0  0  0
  4 21  1  0  0  0
  4  7  1  0  0  0
  5  7  2  0  0  0
  5 43  1  0  0  0
  6 19  1  0  0  0
  6 44  1  0  0  0
  7 45  1  0  0  0
  8 15  2  0  0  0
  8 16  1  0  0  0
  9 17  1  0  0  0
  9 18  2  0  0  0
 13 20  1  0  0  0
 13 24  1  0  0  0
 13 32  2  0  0  0
 14 24  2  0  0  0
 14 33  1  0  0  0
 15 18  1  0  0  0
 15 46  1  0  0  0
 16 17  2  0  0  0
 16 47  1  0  0  0
 17 48  1  0  0  0
 18 49  1  0  0  0
 19 25  1  0  0  0
 19 26  2  0  0  0
 20 31  1  0  0  0
 20 29  1  0  0  0
 20 50  1  0  0  0
 21 30  1  0  0  0
 21 51  1  0  0  0
 21 52  1  0  0  0
 22 35  1  0  0  0
 22 31  1  0  0  0
 22 53  1  0  0  0
 23 28  2  0  0  0
 23 37  1  0  0  0
 23 27  1  0  0  0
 24 54  1  0  0  0
 25 27  2  0  0  0
 25 55  1  0  0  0
 26 28  1  0  0  0
 26 56  1  0  0  0
 27 57  1  0  0  0
 28 58  1  0  0  0
 29 59  1  0  0  0
 30 36  1  0  0  0
 30 60  1  0  0  0
 30 61  1  0  0  0
 31 62  1  0  0  0
 31 63  1  0  0  0
 32 40  1  0  0  0
 32 64  1  0  0  0
 33 40  2  0  0  0
 33 65  1  0  0  0
 34 36  1  0  0  0
 34 38  1  0  0  0
 34 39  1  0  0  0
 34 66  1  0  0  0
 35 37  1  0  0  0
 35 67  1  0  0  0
 35 68  1  0  0  0
 36 69  1  0  0  0
 36 70  1  0  0  0
 37 71  1  0  0  0
 37 72  1  0  0  0
 38 42  1  0  0  0
 38 73  1  0  0  0
 38 74  1  0  0  0
 39 41  1  0  0  0
 39 75  1  0  0  0
 39 76  1  0  0  0
 40 77  1  0  0  0
 41 42  1  0  0  0
 41 78  1  0  0  0
 41 79  1  0  0  0
 42 80  1  0  0  0
 42 81  1  0  0  0
M  END
> <s_m_entry_id>
3029

> <s_m_entry_name>
dock_pv.121

> <s_m_Source_Path>
/home/csk/Desktop/cluster/DUD-E-result/adrb1

> <s_m_Source_File>
dock_pv.maegz

> <i_m_Source_File_Index>
121

> <chembl_id>
CHEMBL349651

> <chembl_pref_name>
None

> <i_lp_mmshare_version>
53161

> <i_f3d_flags>
0

> <r_lp_tautomer_probability>
1

> <s_lp_Force_Field>
OPLS_2005

> <r_lp_Energy>
84.225356

> <b_lp_Chiralities_Consistent>
1

> <s_lp_Variant>
CHEMBL213_lig331-1

> <s_i_glide_gridfile>
glide-grid_2vt4

> <i_i_glide_lignum>
392

> <i_i_glide_rotatable_bonds>
15

> <r_i_docking_score>
-7.93049796298597

> <r_i_glide_ligand_efficiency>
-0.188821380071095

> <r_i_glide_ligand_efficiency_sa>
-0.656348147433618

> <r_i_glide_ligand_efficiency_ln>
-1.67392380683976

> <r_i_glide_gscore>
-7.93049796298597

> <r_i_glide_lipo>
-3.60054506968773

> <r_i_glide_hbond>
-0.32

> <r_i_glide_metal>
0

> <r_i_glide_rewards>
-1.10168235221115

> <r_i_glide_evdw>
-60.0533409118652

> <r_i_glide_ecoul>
-3.24557733535767

> <r_i_glide_erotb>
0.614640675028343

> <r_i_glide_esite>
-0.0334075702185233

> <r_i_glide_emodel>
-75.5814424485312

> <r_i_glide_energy>
-63.2989182472229

> <r_i_glide_einternal>
26.0827217102051

> <i_i_glide_confnum>
11

> <i_i_glide_posenum>
12

> <r_i_glide_eff_state_penalty>
0

> <s_user_duplicate_titles>
CHEMBL213_lig331

> <s_m_subgroup_title>
dock_pv

> <s_m_subgroupid>
dock_pv

> <b_m_subgroup_collapsed>
1

$$$$
CHEMBL213_lig827
                    3D
 Schrodinger Suite 2021-1.
 64 66  0  0  1  0            999 V2000
   31.0612    2.8444   -5.8373 C   0  0  0  0  0  0
   30.6014    1.8502   -4.9768 C   0  0  0  0  0  0
   31.0069    1.8224   -3.6443 C   0  0  0  0  0  0
   31.8605    2.8049   -3.1612 C   0  0  0  0  0  0
   32.3310    3.8069   -4.0152 C   0  0  0  0  0  0
   31.9302    3.8214   -5.3568 C   0  0  0  0  0  0
   33.1959    4.9387   -3.4709 C   0  0  2  0  0  0
   34.3726    4.4405   -2.5848 C   0  0  0  0  0  0
   32.3651    5.8492   -2.7781 O   0  0  0  0  0  0
   35.3729    5.4713   -2.2873 N   0  0  1  0  0  0
   35.1563    6.2354   -1.0568 C   0  0  0  0  0  0
   35.4350    5.3991    0.2205 C   0  0  0  0  0  0
   35.1222    6.0849    1.4395 O   0  0  0  0  0  0
   33.8091    6.1456    1.8731 C   0  0  0  0  0  0
   33.5780    6.5963    3.1721 C   0  0  0  0  0  0
   32.2818    6.6483    3.6844 C   0  0  0  0  0  0
   31.1786    6.2535    2.9084 C   0  0  0  0  0  0
   31.4217    5.8506    1.5898 C   0  0  0  0  0  0
   32.7112    5.7879    1.0821 C   0  0  0  0  0  0
   29.7798    6.2499    3.4602 C   0  0  0  0  0  0
   29.4214    7.0518    4.5473 C   0  0  0  0  0  0
   28.1232    7.0479    5.0457 C   0  0  0  0  0  0
   27.1171    6.2741    4.4477 C   0  0  0  0  0  0
   27.4509    5.4510    3.3551 C   0  0  0  0  0  0
   28.7772    5.4412    2.8967 C   0  0  0  0  0  0
   25.6956    6.3398    4.9579 C   0  0  0  0  0  0
   24.8753    5.4490    4.7843 O   0  0  0  0  0  0
   25.3591    7.4926    5.5850 O   0  0  0  0  0  0
   26.4577    4.6759    2.7777 O   0  0  0  0  0  0
   26.4908    4.3685    1.3858 C   0  0  0  0  0  0
   25.3078    3.4346    1.0544 C   0  0  0  0  0  0
   25.4895    2.7755   -0.3206 C   0  0  0  0  0  0
   23.9444    4.1438    1.1496 C   0  0  0  0  0  0
   30.7433    2.8625   -6.8700 H   0  0  0  0  0  0
   29.9205    1.0959   -5.3427 H   0  0  0  0  0  0
   30.6303    1.0573   -2.9804 H   0  0  0  0  0  0
   32.1284    2.7996   -2.1154 H   0  0  0  0  0  0
   32.2726    4.6000   -6.0240 H   0  0  0  0  0  0
   33.6403    5.4502   -4.3258 H   0  0  0  0  0  0
   34.8967    3.6726   -3.1564 H   0  0  0  0  0  0
   34.0158    3.9403   -1.6858 H   0  0  0  0  0  0
   31.5301    5.8740   -3.2567 H   0  0  0  0  0  0
   36.3182    5.1102   -2.3423 H   0  0  0  0  0  0
   34.1670    6.6902   -1.0596 H   0  0  0  0  0  0
   35.8563    7.0722   -1.0662 H   0  0  0  0  0  0
   36.4994    5.1643    0.2547 H   0  0  0  0  0  0
   34.9358    4.4295    0.2055 H   0  0  0  0  0  0
   34.4103    6.8912    3.7923 H   0  0  0  0  0  0
   32.1564    6.9698    4.7063 H   0  0  0  0  0  0
   30.6162    5.5639    0.9318 H   0  0  0  0  0  0
   32.8309    5.4413    0.0686 H   0  0  0  0  0  0
   30.1458    7.7013    5.0153 H   0  0  0  0  0  0
   27.9260    7.6732    5.8996 H   0  0  0  0  0  0
   29.0400    4.7768    2.0935 H   0  0  0  0  0  0
   26.1123    8.0070    5.8950 H   0  0  0  0  0  0
   27.4075    3.8577    1.1152 H   0  0  0  0  0  0
   26.4435    5.2843    0.7929 H   0  0  0  0  0  0
   25.3161    2.6316    1.7932 H   0  0  0  0  0  0
   25.4903    3.5133   -1.1216 H   0  0  0  0  0  0
   24.6914    2.0618   -0.5268 H   0  0  0  0  0  0
   26.4411    2.2493   -0.3725 H   0  0  0  0  0  0
   23.8225    4.8761    0.3515 H   0  0  0  0  0  0
   23.1133    3.4498    1.0481 H   0  0  0  0  0  0
   23.8225    4.6494    2.1082 H   0  0  0  0  0  0
  1  6  1  0  0  0
  1  2  2  0  0  0
  1 34  1  0  0  0
  2  3  1  0  0  0
  2 35  1  0  0  0
  3  4  2  0  0  0
  3 36  1  0  0  0
  4  5  1  0  0  0
  4 37  1  0  0  0
  5  6  2  0  0  0
  5  7  1  0  0  0
  6 38  1  0  0  0
  7  8  1  0  0  0
  7  9  1  0  0  0
  7 39  1  0  0  0
  8 10  1  0  0  0
  8 40  1  0  0  0
  8 41  1  0  0  0
  9 42  1  0  0  0
 10 11  1  0  0  0
 10 43  1  0  0  0
 11 12  1  0  0  0
 11 44  1  0  0  0
 11 45  1  0  0  0
 12 13  1  0  0  0
 12 46  1  0  0  0
 12 47  1  0  0  0
 13 14  1  0  0  0
 14 19  1  0  0  0
 14 15  2  0  0  0
 15 16  1  0  0  0
 15 48  1  0  0  0
 16 17  2  0  0  0
 16 49  1  0  0  0
 17 18  1  0  0  0
 17 20  1  0  0  0
 18 19  2  0  0  0
 18 50  1  0  0  0
 19 51  1  0  0  0
 20 21  2  0  0  0
 20 25  1  0  0  0
 21 22  1  0  0  0
 21 52  1  0  0  0
 22 23  2  0  0  0
 22 53  1  0  0  0
 23 24  1  0  0  0
 23 26  1  0  0  0
 24 25  2  0  0  0
 24 29  1  0  0  0
 25 54  1  0  0  0
 26 27  2  0  0  0
 26 28  1  0  0  0
 28 55  1  0  0  0
 29 30  1  0  0  0
 30 31  1  0  0  0
 30 56  1  0  0  0
 30 57  1  0  0  0
 31 32  1  0  0  0
 31 33  1  0  0  0
 31 58  1  0  0  0
 32 59  1  0  0  0
 32 60  1  0  0  0
 32 61  1  0  0  0
 33 62  1  0  0  0
 33 63  1  0  0  0
 33 64  1  0  0  0
M  END
> <s_m_entry_id>
3030

> <s_m_entry_name>
dock_pv.122

> <s_m_Source_Path>
/home/csk/Desktop/cluster/DUD-E-result/adrb1

> <s_m_Source_File>
dock_pv.maegz

> <i_m_Source_File_Index>
122

> <chembl_id>
CHEMBL460257

> <chembl_pref_name>
None

> <i_lp_mmshare_version>
53161

> <i_f3d_flags>
0

> <r_lp_tautomer_probability>
1

> <s_lp_Force_Field>
OPLS_2005

> <r_lp_Energy>
42.246092

> <b_lp_Chiralities_Consistent>
1

> <s_lp_Variant>
CHEMBL213_lig827-1

> <s_i_glide_gridfile>
glide-grid_2vt4

> <i_i_glide_lignum>
935

> <i_i_glide_rotatable_bonds>
14

> <r_i_docking_score>
-7.91559367707202

> <r_i_glide_ligand_efficiency>
-0.239866475062788

> <r_i_glide_ligand_efficiency_sa>
-0.769379952482268

> <r_i_glide_ligand_efficiency_ln>
-1.76038704903021

> <r_i_glide_gscore>
-7.91559367707202

> <r_i_glide_lipo>
-3.75264360296695

> <r_i_glide_hbond>
-0.306665339529892

> <r_i_glide_metal>
0

> <r_i_glide_rewards>
-1.30391695849328

> <r_i_glide_evdw>
-45.1243515014648

> <r_i_glide_ecoul>
-8.58597755432129

> <r_i_glide_erotb>
0.991746432139541

> <r_i_glide_esite>
0

> <r_i_glide_emodel>
-70.6660249741687

> <r_i_glide_energy>
-53.7103290557861

> <r_i_glide_einternal>
18.7002639770508

> <i_i_glide_confnum>
14

> <i_i_glide_posenum>
213

> <r_i_glide_eff_state_penalty>
0

> <s_user_duplicate_titles>
CHEMBL213_lig827,448487

> <s_m_subgroup_title>
dock_pv

> <s_m_subgroupid>
dock_pv

> <b_m_subgroup_collapsed>
1

$$$$
CHEMBL213_lig268
                    3D
 Schrodinger Suite 2021-1.
 69 73  0  0  1  0            999 V2000
   37.1726    4.7527    0.4435 S   0  0  0  0  0  0
   34.3839    3.4469   -5.6177 N   0  0  0  0  0  0
   35.6347    3.7448   -5.3389 C   0  0  0  0  0  0
   36.4196    3.9513   -6.3794 N   0  0  0  0  0  0
   34.3452    3.5591   -6.9134 C   0  0  0  0  0  0
   29.3663    2.6476   -5.8388 C   0  0  0  0  0  0
   36.3712    6.2318    1.0159 N   0  0  0  0  0  0
   35.5508    3.8348   -7.4654 O   0  0  0  0  0  0
   29.7215    1.9515   -6.9943 C   0  0  0  0  0  0
   30.2112    3.6363   -5.3383 C   0  0  0  0  0  0
   36.7261    4.4899   -1.2651 C   0  0  0  0  0  0
   38.6076    5.0493    0.5021 O   0  0  0  0  0  0
   36.6082    3.6244    1.1850 O   0  0  0  0  0  0
   31.8089    3.1754   -7.1099 C   0  0  0  0  0  0
   36.0726    3.9223   -3.9186 C   0  0  0  0  0  0
   30.9455    2.2018   -7.6148 C   0  0  0  0  0  0
   31.4152    3.9121   -5.9846 C   0  0  0  0  0  0
   26.2517    5.2768    3.2996 C   0  0  0  0  0  0
   33.1340    3.4604   -7.8208 C   0  0  0  0  0  0
   24.3586    3.8565    2.7148 N   0  0  0  0  0  0
   35.6141    3.7011   -1.5552 C   0  0  0  0  0  0
   37.5380    4.9660   -2.2932 C   0  0  0  0  0  0
   37.2256    4.6504   -3.6126 C   0  0  0  0  0  0
   35.2833    3.4255   -2.8739 C   0  0  0  0  0  0
   35.1065    6.2447    1.6202 C   0  0  0  0  0  0
   28.1963    2.3799   -5.2190 F   0  0  0  0  0  0
   29.8633    4.3410   -4.2384 F   0  0  0  0  0  0
   28.8743    1.0497   -7.5312 F   0  0  0  0  0  0
   26.9678    6.1951    4.3130 C   0  0  1  0  0  0
   29.2954    7.0451    4.8235 N   0  0  2  0  0  0
   32.5412    6.5244    2.7105 C   0  0  0  0  0  0
   25.0300    4.6510    3.5887 C   0  0  0  0  0  0
   34.9336    6.8695    2.8601 C   0  0  0  0  0  0
   34.0041    5.7187    0.9541 C   0  0  0  0  0  0
   33.6542    7.0033    3.4092 C   0  0  0  0  0  0
   32.7316    5.8500    1.5000 C   0  0  0  0  0  0
   26.3654    6.2225    5.6002 O   0  0  0  0  0  0
   28.4810    5.8707    4.4686 C   0  0  0  0  0  0
   26.7755    5.0707    2.0114 C   0  0  0  0  0  0
   24.9005    3.6669    1.4867 C   0  0  0  0  0  0
   30.7411    6.8668    4.6177 C   0  0  0  0  0  0
   31.1066    6.8628    3.1156 C   0  0  0  0  0  0
   26.1046    4.2531    1.0969 C   0  0  0  0  0  0
   37.0099    6.9716    1.2606 H   0  0  0  0  0  0
   31.2146    1.6456   -8.4977 H   0  0  0  0  0  0
   32.0450    4.6979   -5.5962 H   0  0  0  0  0  0
   33.0138    4.4036   -8.3552 H   0  0  0  0  0  0
   33.3204    2.7102   -8.5922 H   0  0  0  0  0  0
   35.0079    3.2937   -0.7590 H   0  0  0  0  0  0
   38.4237    5.5455   -2.0744 H   0  0  0  0  0  0
   37.8493    5.0488   -4.4018 H   0  0  0  0  0  0
   34.4002    2.8372   -3.0773 H   0  0  0  0  0  0
   26.8384    7.1956    3.9076 H   0  0  0  0  0  0
   29.0872    7.3978    5.7482 H   0  0  0  0  0  0
   24.5516    4.7871    4.5474 H   0  0  0  0  0  0
   35.7823    7.2877    3.3817 H   0  0  0  0  0  0
   34.1131    5.2592   -0.0136 H   0  0  0  0  0  0
   33.5255    7.5339    4.3395 H   0  0  0  0  0  0
   31.8851    5.4900    0.9338 H   0  0  0  0  0  0
   26.6481    7.0177    6.0631 H   0  0  0  0  0  0
   28.6085    5.0622    5.1855 H   0  0  0  0  0  0
   28.8398    5.4570    3.5326 H   0  0  0  0  0  0
   27.6938    5.5498    1.7028 H   0  0  0  0  0  0
   24.3407    3.0442    0.8026 H   0  0  0  0  0  0
   31.2622    7.6990    5.0926 H   0  0  0  0  0  0
   31.1275    5.9846    5.1231 H   0  0  0  0  0  0
   30.4600    6.1797    2.5715 H   0  0  0  0  0  0
   30.8947    7.8523    2.7147 H   0  0  0  0  0  0
   26.4990    4.0900    0.1034 H   0  0  0  0  0  0
  1  7  1  0  0  0
  1 11  1  0  0  0
  1 12  2  0  0  0
  1 13  2  0  0  0
  2  3  1  0  0  0
  2  5  2  0  0  0
  3 15  1  0  0  0
  3  4  2  0  0  0
  4  8  1  0  0  0
  5 19  1  0  0  0
  5  8  1  0  0  0
  6 10  2  0  0  0
  6 26  1  0  0  0
  6  9  1  0  0  0
  7 25  1  0  0  0
  7 44  1  0  0  0
  9 16  2  0  0  0
  9 28  1  0  0  0
 10 17  1  0  0  0
 10 27  1  0  0  0
 11 21  1  0  0  0
 11 22  2  0  0  0
 14 19  1  0  0  0
 14 16  1  0  0  0
 14 17  2  0  0  0
 15 23  2  0  0  0
 15 24  1  0  0  0
 16 45  1  0  0  0
 17 46  1  0  0  0
 18 29  1  0  0  0
 18 32  1  0  0  0
 18 39  2  0  0  0
 19 47  1  0  0  0
 19 48  1  0  0  0
 20 32  2  0  0  0
 20 40  1  0  0  0
 21 24  2  0  0  0
 21 49  1  0  0  0
 22 23  1  0  0  0
 22 50  1  0  0  0
 23 51  1  0  0  0
 24 52  1  0  0  0
 25 33  1  0  0  0
 25 34  2  0  0  0
 29 38  1  0  0  0
 29 37  1  0  0  0
 29 53  1  0  0  0
 30 41  1  0  0  0
 30 38  1  0  0  0
 30 54  1  0  0  0
 31 36  2  0  0  0
 31 42  1  0  0  0
 31 35  1  0  0  0
 32 55  1  0  0  0
 33 35  2  0  0  0
 33 56  1  0  0  0
 34 36  1  0  0  0
 34 57  1  0  0  0
 35 58  1  0  0  0
 36 59  1  0  0  0
 37 60  1  0  0  0
 38 61  1  0  0  0
 38 62  1  0  0  0
 39 43  1  0  0  0
 39 63  1  0  0  0
 40 43  2  0  0  0
 40 64  1  0  0  0
 41 42  1  0  0  0
 41 65  1  0  0  0
 41 66  1  0  0  0
 42 67  1  0  0  0
 42 68  1  0  0  0
 43 69  1  0  0  0
M  END
> <s_m_entry_id>
3031

> <s_m_entry_name>
dock_pv.123

> <s_m_Source_Path>
/home/csk/Desktop/cluster/DUD-E-result/adrb1

> <s_m_Source_File>
dock_pv.maegz

> <i_m_Source_File_Index>
123

> <chembl_id>
CHEMBL285499

> <chembl_pref_name>
None

> <i_lp_mmshare_version>
53161

> <i_f3d_flags>
0

> <r_lp_tautomer_probability>
1

> <s_lp_Force_Field>
OPLS_2005

> <r_lp_Energy>
31.618097

> <b_lp_Chiralities_Consistent>
1

> <s_lp_Variant>
CHEMBL213_lig268-1

> <s_i_glide_gridfile>
glide-grid_2vt4

> <i_i_glide_lignum>
303

> <i_i_glide_rotatable_bonds>
13

> <r_i_docking_score>
-7.91554481741968

> <r_i_glide_ligand_efficiency>
-0.184082437614411

> <r_i_glide_ligand_efficiency_sa>
-0.644914054081038

> <r_i_glide_ligand_efficiency_ln>
-1.66251042280894

> <r_i_glide_gscore>
-7.91554481741968

> <r_i_glide_lipo>
-3.68399211784383

> <r_i_glide_hbond>
-0.238438711515453

> <r_i_glide_metal>
0

> <r_i_glide_rewards>
-1.00935009055139

> <r_i_glide_evdw>
-58.6637420654297

> <r_i_glide_ecoul>
-2.89172220230103

> <r_i_glide_erotb>
0.498814642248441

> <r_i_glide_esite>
-0.115633106140812

> <r_i_glide_emodel>
-82.1097476149971

> <r_i_glide_energy>
-61.5554642677307

> <r_i_glide_einternal>
12.5295009613037

> <i_i_glide_confnum>
11

> <i_i_glide_posenum>
59

> <r_i_glide_eff_state_penalty>
0

> <s_user_duplicate_titles>
CHEMBL213_lig268

> <s_m_subgroup_title>
dock_pv

> <s_m_subgroupid>
dock_pv

> <b_m_subgroup_collapsed>
1

$$$$
CHEMBL213_lig397
                    3D
 Schrodinger Suite 2021-1.
 66 69  0  0  1  0            999 V2000
   30.8611    7.2744    3.9404 C   0  0  0  0  0  0
   30.8917    6.2489    3.0068 C   0  0  0  0  0  0
   29.8260    5.4433    2.7609 N   0  0  0  0  0  0
   28.6795    5.6731    3.4400 C   0  0  0  0  0  0
   28.5322    6.7259    4.3434 C   0  0  0  0  0  0
   29.6584    7.5287    4.5977 C   0  0  0  0  0  0
   27.2303    6.9888    5.0873 C   0  0  2  0  0  0
   26.2768    5.7960    5.3422 C   0  0  0  0  0  0
   26.5482    8.1880    4.7608 O   0  0  0  0  0  0
   25.3849    5.6151    4.2025 N   0  0  1  0  0  0
   24.8986    4.2607    3.9866 C   0  0  0  0  0  0
   24.2834    3.9389    2.6106 C   0  0  0  0  0  0
   25.3211    3.9374    1.5021 C   0  0  0  0  0  0
   25.4554    2.9091    0.5828 C   0  0  0  0  0  0
   26.4158    3.0497   -0.4159 C   0  0  0  0  0  0
   27.2127    4.1922   -0.5174 C   0  0  0  0  0  0
   27.0775    5.2058    0.4178 C   0  0  0  0  0  0
   26.1304    5.0497    1.3935 C   0  0  0  0  0  0
   28.1407    4.2919   -1.5577 N   0  0  0  0  0  0
   28.5213    5.4377   -2.1632 C   0  0  0  0  0  0
   27.9795    6.5336   -2.0121 O   0  0  0  0  0  0
   29.6847    5.3191   -3.0923 C   0  0  0  0  0  0
   29.5884    5.8917   -4.3584 C   0  0  0  0  0  0
   30.6102    5.7095   -5.2733 C   0  0  0  0  0  0
   31.7555    5.0034   -4.9118 C   0  0  0  0  0  0
   31.9002    4.5246   -3.6082 C   0  0  0  0  0  0
   30.8526    4.6552   -2.7049 C   0  0  0  0  0  0
   32.7743    4.6345   -5.9772 C   0  0  0  0  0  0
   32.7915    3.1145   -6.2717 C   0  0  0  0  0  0
   31.4063    2.4596   -6.4067 C   0  0  0  0  0  0
   30.8027    2.3342   -7.6597 C   0  0  0  0  0  0
   29.5015    1.8514   -7.7673 C   0  0  0  0  0  0
   28.8193    1.4482   -6.6217 C   0  0  0  0  0  0
   29.4361    1.5014   -5.3752 C   0  0  0  0  0  0
   30.7313    2.0036   -5.2689 C   0  0  0  0  0  0
   31.7495    7.8517    4.1344 H   0  0  0  0  0  0
   31.7983    6.0250    2.4603 H   0  0  0  0  0  0
   27.8742    4.9835    3.2475 H   0  0  0  0  0  0
   29.6015    8.3447    5.3021 H   0  0  0  0  0  0
   27.6753    7.2551    6.0077 H   0  0  0  0  0  0
   25.6774    5.9668    6.2395 H   0  0  0  0  0  0
   26.8759    4.9012    5.5298 H   0  0  0  0  0  0
   26.0968    8.4883    5.5632 H   0  0  0  0  0  0
   24.6049    6.2533    4.2727 H   0  0  0  0  0  0
   24.2085    3.9983    4.7731 H   0  0  0  0  0  0
   25.7807    3.6232    4.0478 H   0  0  0  0  0  0
   23.5028    4.6503    2.3716 H   0  0  0  0  0  0
   23.7954    2.9630    2.6517 H   0  0  0  0  0  0
   24.8292    2.0344    0.6239 H   0  0  0  0  0  0
   26.5300    2.2690   -1.1354 H   0  0  0  0  0  0
   27.6415    6.1266    0.3767 H   0  0  0  0  0  0
   25.8156    5.8966    1.9747 H   0  0  0  0  0  0
   28.4913    3.4117   -1.9153 H   0  0  0  0  0  0
   28.7001    6.4330   -4.6497 H   0  0  0  0  0  0
   30.5001    6.0994   -6.2728 H   0  0  0  0  0  0
   32.7819    3.9709   -3.3277 H   0  0  0  0  0  0
   30.9436    4.2208   -1.7204 H   0  0  0  0  0  0
   33.7608    4.9639   -5.6455 H   0  0  0  0  0  0
   32.5878    5.1882   -6.8964 H   0  0  0  0  0  0
   33.3383    2.6492   -5.4570 H   0  0  0  0  0  0
   33.3809    2.9140   -7.1653 H   0  0  0  0  0  0
   31.3261    2.6492   -8.5482 H   0  0  0  0  0  0
   29.0186    1.8024   -8.7344 H   0  0  0  0  0  0
   27.8097    1.0799   -6.7042 H   0  0  0  0  0  0
   28.9123    1.1777   -4.4867 H   0  0  0  0  0  0
   31.1937    2.0548   -4.2949 H   0  0  0  0  0  0
  1  6  1  0  0  0
  1  2  2  0  0  0
  1 36  1  0  0  0
  2  3  1  0  0  0
  2 37  1  0  0  0
  3  4  2  0  0  0
  4  5  1  0  0  0
  4 38  1  0  0  0
  5  6  2  0  0  0
  5  7  1  0  0  0
  6 39  1  0  0  0
  7  9  1  0  0  0
  7  8  1  0  0  0
  7 40  1  0  0  0
  8 10  1  0  0  0
  8 41  1  0  0  0
  8 42  1  0  0  0
  9 43  1  0  0  0
 10 11  1  0  0  0
 10 44  1  0  0  0
 11 12  1  0  0  0
 11 45  1  0  0  0
 11 46  1  0  0  0
 12 13  1  0  0  0
 12 47  1  0  0  0
 12 48  1  0  0  0
 13 18  1  0  0  0
 13 14  2  0  0  0
 14 15  1  0  0  0
 14 49  1  0  0  0
 15 16  2  0  0  0
 15 50  1  0  0  0
 16 19  1  0  0  0
 16 17  1  0  0  0
 17 18  2  0  0  0
 17 51  1  0  0  0
 18 52  1  0  0  0
 19 20  1  0  0  0
 19 53  1  0  0  0
 20 21  2  0  0  0
 20 22  1  0  0  0
 22 23  2  0  0  0
 22 27  1  0  0  0
 23 24  1  0  0  0
 23 54  1  0  0  0
 24 25  2  0  0  0
 24 55  1  0  0  0
 25 26  1  0  0  0
 25 28  1  0  0  0
 26 27  2  0  0  0
 26 56  1  0  0  0
 27 57  1  0  0  0
 28 29  1  0  0  0
 28 58  1  0  0  0
 28 59  1  0  0  0
 29 30  1  0  0  0
 29 60  1  0  0  0
 29 61  1  0  0  0
 30 31  2  0  0  0
 30 35  1  0  0  0
 31 32  1  0  0  0
 31 62  1  0  0  0
 32 33  2  0  0  0
 32 63  1  0  0  0
 33 34  1  0  0  0
 33 64  1  0  0  0
 34 35  2  0  0  0
 34 65  1  0  0  0
 35 66  1  0  0  0
M  END
> <s_m_entry_id>
3032

> <s_m_entry_name>
dock_pv.124

> <s_m_Source_Path>
/home/csk/Desktop/cluster/DUD-E-result/adrb1

> <s_m_Source_File>
dock_pv.maegz

> <i_m_Source_File_Index>
124

> <chembl_id>
CHEMBL1078695

> <chembl_pref_name>
None

> <i_lp_mmshare_version>
53161

> <i_f3d_flags>
0

> <r_lp_tautomer_probability>
1

> <s_lp_Force_Field>
OPLS_2005

> <r_lp_Energy>
37.531089

> <b_lp_Chiralities_Consistent>
1

> <s_lp_Variant>
CHEMBL213_lig397-1

> <s_i_glide_gridfile>
glide-grid_2vt4

> <i_i_glide_lignum>
465

> <i_i_glide_rotatable_bonds>
13

> <r_i_docking_score>
-7.91437357599274

> <r_i_glide_ligand_efficiency>
-0.226124959314078

> <r_i_glide_ligand_efficiency_sa>
-0.739669735428452

> <r_i_glide_ligand_efficiency_ln>
-1.73738064998815

> <r_i_glide_gscore>
-7.91437357599274

> <r_i_glide_lipo>
-4.14851640563413

> <r_i_glide_hbond>
-0.565165795433057

> <r_i_glide_metal>
0

> <r_i_glide_rewards>
-1.08246960174995

> <r_i_glide_evdw>
-36.1841354370117

> <r_i_glide_ecoul>
-8.57151699066162

> <r_i_glide_erotb>
1.02343470026355

> <r_i_glide_esite>
-0.0467221529893228

> <r_i_glide_emodel>
-39.4048885529562

> <r_i_glide_energy>
-44.7556524276733

> <r_i_glide_einternal>
28.7824745178223

> <i_i_glide_confnum>
27

> <i_i_glide_posenum>
169

> <r_i_glide_eff_state_penalty>
0

> <s_user_duplicate_titles>
CHEMBL213_lig397

> <s_m_subgroup_title>
dock_pv

> <s_m_subgroupid>
dock_pv

> <b_m_subgroup_collapsed>
1

$$$$
CHEMBL213_lig493
                    3D
 Schrodinger Suite 2021-1.
 59 60  0  0  1  0            999 V2000
   25.7713    4.2789    1.5687 C   0  0  0  0  0  0
   25.8316    4.6503    2.9111 C   0  0  0  0  0  0
   27.0005    5.2160    3.4370 C   0  0  0  0  0  0
   28.1303    5.4047    2.6185 C   0  0  0  0  0  0
   28.0348    5.0501    1.2608 C   0  0  0  0  0  0
   26.8619    4.5087    0.7365 C   0  0  0  0  0  0
   27.0271    5.5725    4.8515 C   0  0  0  0  0  0
   27.0451    5.8500    5.9751 N   0  0  0  0  0  0
   29.2677    5.9607    3.1850 O   0  0  0  0  0  0
   30.5717    5.7531    2.6136 C   0  0  0  0  0  0
   31.5790    6.7818    3.2023 C   0  0  2  0  0  0
   33.0643    6.3606    3.0956 C   0  0  0  0  0  0
   31.3511    7.0515    4.5783 O   0  0  0  0  0  0
   33.5107    6.2500    1.7126 N   0  0  2  0  0  0
   34.9508    6.0433    1.6217 C   0  0  0  0  0  0
   35.4630    6.1571    0.1692 C   0  0  0  0  0  0
   35.0178    5.1089   -0.7523 N   0  0  0  0  0  0
   33.9084    5.1447   -1.5042 C   0  0  0  0  0  0
   32.9326    5.8504   -1.2573 O   0  0  0  0  0  0
   34.0104    4.3367   -2.5748 N   0  0  0  0  0  0
   32.9996    4.0465   -3.5053 C   0  0  0  0  0  0
   33.3894    3.8056   -4.8232 C   0  0  0  0  0  0
   32.4375    3.4498   -5.7749 C   0  0  0  0  0  0
   31.0971    3.3091   -5.4138 C   0  0  0  0  0  0
   30.7014    3.5861   -4.1001 C   0  0  0  0  0  0
   31.6488    3.9419   -3.1457 C   0  0  0  0  0  0
   30.2010    2.8785   -6.4067 N   0  0  0  0  0  0
   28.8522    2.3844   -6.1236 C   0  0  2  0  0  0
   28.8350    1.1269   -5.2271 C   0  0  0  0  0  0
   29.4195    0.0652   -5.7734 F   0  0  0  0  0  0
   28.1028    2.1394   -7.4434 C   0  0  0  0  0  0
   24.8679    3.8448    1.1631 H   0  0  0  0  0  0
   24.9638    4.4862    3.5355 H   0  0  0  0  0  0
   28.8584    5.1954    0.5810 H   0  0  0  0  0  0
   26.8066    4.2445   -0.3106 H   0  0  0  0  0  0
   30.8788    4.7241    2.7852 H   0  0  0  0  0  0
   30.6041    5.8511    1.5305 H   0  0  0  0  0  0
   31.4258    7.7337    2.6912 H   0  0  0  0  0  0
   33.6756    7.1146    3.5960 H   0  0  0  0  0  0
   33.2175    5.4090    3.6078 H   0  0  0  0  0  0
   31.7756    7.8947    4.7830 H   0  0  0  0  0  0
   33.2568    7.0998    1.1912 H   0  0  0  0  0  0
   35.4626    6.7994    2.2196 H   0  0  0  0  0  0
   35.2148    5.0677    2.0347 H   0  0  0  0  0  0
   35.2540    7.1516   -0.2321 H   0  0  0  0  0  0
   36.5507    6.0866    0.1927 H   0  0  0  0  0  0
   35.6536    4.3373   -0.8826 H   0  0  0  0  0  0
   34.9270    3.9789   -2.7961 H   0  0  0  0  0  0
   34.4265    3.8887   -5.1156 H   0  0  0  0  0  0
   32.7554    3.2566   -6.7891 H   0  0  0  0  0  0
   29.6685    3.5087   -3.7966 H   0  0  0  0  0  0
   31.3259    4.1125   -2.1289 H   0  0  0  0  0  0
   30.5802    2.6692   -7.3183 H   0  0  0  0  0  0
   28.3118    3.1630   -5.5861 H   0  0  0  0  0  0
   29.3591    1.2893   -4.2893 H   0  0  0  0  0  0
   27.8102    0.8390   -4.9813 H   0  0  0  0  0  0
   27.0659    1.8539   -7.2642 H   0  0  0  0  0  0
   28.0871    3.0394   -8.0593 H   0  0  0  0  0  0
   28.5712    1.3473   -8.0299 H   0  0  0  0  0  0
  1  6  1  0  0  0
  1  2  2  0  0  0
  1 32  1  0  0  0
  2  3  1  0  0  0
  2 33  1  0  0  0
  3  7  1  0  0  0
  3  4  2  0  0  0
  4  9  1  0  0  0
  4  5  1  0  0  0
  5  6  2  0  0  0
  5 34  1  0  0  0
  6 35  1  0  0  0
  7  8  3  0  0  0
  9 10  1  0  0  0
 10 11  1  0  0  0
 10 36  1  0  0  0
 10 37  1  0  0  0
 11 12  1  0  0  0
 11 13  1  0  0  0
 11 38  1  0  0  0
 12 14  1  0  0  0
 12 39  1  0  0  0
 12 40  1  0  0  0
 13 41  1  0  0  0
 14 15  1  0  0  0
 14 42  1  0  0  0
 15 16  1  0  0  0
 15 43  1  0  0  0
 15 44  1  0  0  0
 16 17  1  0  0  0
 16 45  1  0  0  0
 16 46  1  0  0  0
 17 18  1  0  0  0
 17 47  1  0  0  0
 18 19  2  0  0  0
 18 20  1  0  0  0
 20 21  1  0  0  0
 20 48  1  0  0  0
 21 22  2  0  0  0
 21 26  1  0  0  0
 22 23  1  0  0  0
 22 49  1  0  0  0
 23 24  2  0  0  0
 23 50  1  0  0  0
 24 25  1  0  0  0
 24 27  1  0  0  0
 25 26  2  0  0  0
 25 51  1  0  0  0
 26 52  1  0  0  0
 27 28  1  0  0  0
 27 53  1  0  0  0
 28 29  1  0  0  0
 28 31  1  0  0  0
 28 54  1  0  0  0
 29 30  1  0  0  0
 29 55  1  0  0  0
 29 56  1  0  0  0
 31 57  1  0  0  0
 31 58  1  0  0  0
 31 59  1  0  0  0
M  END
> <s_m_entry_id>
3033

> <s_m_entry_name>
dock_pv.125

> <s_m_Source_Path>
/home/csk/Desktop/cluster/DUD-E-result/adrb1

> <s_m_Source_File>
dock_pv.maegz

> <i_m_Source_File_Index>
125

> <chembl_id>
CHEMBL2011219

> <chembl_pref_name>
None

> <i_lp_mmshare_version>
53161

> <i_f3d_flags>
0

> <r_lp_tautomer_probability>
1

> <s_lp_Force_Field>
OPLS_2005

> <r_lp_Energy>
29.38354

> <b_lp_Chiralities_Consistent>
1

> <s_lp_Variant>
CHEMBL213_lig493-1

> <s_i_glide_gridfile>
glide-grid_2vt4

> <i_i_glide_lignum>
583

> <i_i_glide_rotatable_bonds>
15

> <r_i_docking_score>
-7.87585203410051

> <r_i_glide_ligand_efficiency>
-0.2540597430355

> <r_i_glide_ligand_efficiency_sa>
-0.798098360409697

> <r_i_glide_ligand_efficiency_ln>
-1.77624599956757

> <r_i_glide_gscore>
-7.87585203410051

> <r_i_glide_lipo>
-3.01256973045568

> <r_i_glide_hbond>
-0.32831810922593

> <r_i_glide_metal>
0

> <r_i_glide_rewards>
-1.76981316952567

> <r_i_glide_evdw>
-46.1755790710449

> <r_i_glide_ecoul>
-12.379566192627

> <r_i_glide_erotb>
1.40056285755306

> <r_i_glide_esite>
0

> <r_i_glide_emodel>
-70.8475461098422

> <r_i_glide_energy>
-58.5551452636719

> <r_i_glide_einternal>
22.4116020202637

> <i_i_glide_confnum>
111

> <i_i_glide_posenum>
230

> <r_i_glide_eff_state_penalty>
0

> <s_user_duplicate_titles>
CHEMBL213_lig493

> <s_m_subgroup_title>
dock_pv

> <s_m_subgroupid>
dock_pv

> <b_m_subgroup_collapsed>
1

$$$$
CHEMBL213_lig996
                    3D
 Schrodinger Suite 2021-1.
 53 55  0  0  1  0            999 V2000
   29.6853    1.7965   -6.4880 C   0  0  0  0  0  0
   28.7555    2.2366   -5.5534 C   0  0  0  0  0  0
   28.9976    3.3913   -4.8143 C   0  0  0  0  0  0
   30.1818    4.1299   -4.9781 C   0  0  0  0  0  0
   29.4124    0.6506   -7.1787 O   0  0  0  0  0  0
   30.4558    5.4078   -4.1670 C   0  0  2  0  0  0
   30.1781    5.3301   -2.6435 C   0  0  0  0  0  0
   29.8087    6.5471   -4.7006 O   0  0  0  0  0  0
   28.7672    5.1276   -2.2951 N   0  0  1  0  0  0
   28.3044    5.2481   -0.9077 C   0  0  0  0  0  0
   27.2635    4.1040   -0.7466 C   0  0  0  0  0  0
   26.3923    4.0221    0.5114 C   0  0  0  0  0  0
   25.3759    3.0655    0.5154 C   0  0  0  0  0  0
   24.5585    2.9071    1.6287 C   0  0  0  0  0  0
   24.7244    3.7234    2.7436 C   0  0  0  0  0  0
   25.7591    4.6574    2.7843 C   0  0  0  0  0  0
   26.5803    4.8050    1.6620 C   0  0  0  0  0  0
   29.4877    5.0502    0.0863 C   0  0  0  0  0  0
   27.5977    6.6283   -0.8582 C   0  0  0  0  0  0
   30.8615    2.5237   -6.6897 C   0  0  0  0  0  0
   31.1059    3.6727   -5.9314 C   0  0  0  0  0  0
   32.2387    4.4173   -6.2009 O   0  0  0  0  0  0
   33.3919    3.6603   -6.6444 C   0  0  0  0  0  0
   33.0648    2.6089   -7.7446 C   0  0  0  0  0  0
   31.8070    2.1458   -7.6414 N   0  0  0  0  0  0
   33.8456    2.2349   -8.6162 O   0  0  0  0  0  0
   25.9826    5.5414    4.0104 C   0  0  0  0  0  0
   24.9838    5.4509    4.8867 F   0  0  0  0  0  0
   27.1080    5.1765    4.6218 F   0  0  0  0  0  0
   26.0947    6.8166    3.6467 F   0  0  0  0  0  0
   27.8300    1.6987   -5.3920 H   0  0  0  0  0  0
   28.2217    3.6954   -4.1305 H   0  0  0  0  0  0
   28.6236    0.2381   -6.8122 H   0  0  0  0  0  0
   31.5220    5.6221   -4.2403 H   0  0  0  0  0  0
   30.5372    6.2488   -2.1904 H   0  0  0  0  0  0
   30.7728    4.5130   -2.2306 H   0  0  0  0  0  0
   30.3595    6.9280   -5.3959 H   0  0  0  0  0  0
   28.2003    5.7132   -2.8966 H   0  0  0  0  0  0
   27.7839    3.1503   -0.8142 H   0  0  0  0  0  0
   26.5803    4.1229   -1.5998 H   0  0  0  0  0  0
   25.2140    2.4383   -0.3483 H   0  0  0  0  0  0
   23.8072    2.1392    1.6210 H   0  0  0  0  0  0
   24.0580    3.6200    3.5846 H   0  0  0  0  0  0
   27.3475    5.5537    1.7233 H   0  0  0  0  0  0
   29.2068    4.9801    1.1314 H   0  0  0  0  0  0
   30.0197    4.1209   -0.1268 H   0  0  0  0  0  0
   30.2169    5.8490    0.0142 H   0  0  0  0  0  0
   27.2757    6.9155    0.1365 H   0  0  0  0  0  0
   28.2089    7.4486   -1.2217 H   0  0  0  0  0  0
   26.7019    6.6305   -1.4808 H   0  0  0  0  0  0
   34.1797    4.3238   -7.0023 H   0  0  0  0  0  0
   33.7773    3.0879   -5.7990 H   0  0  0  0  0  0
   31.5702    1.4184   -8.2990 H   0  0  0  0  0  0
  1  2  1  0  0  0
  1  5  1  0  0  0
  1 20  2  0  0  0
  2  3  2  0  0  0
  2 31  1  0  0  0
  3  4  1  0  0  0
  3 32  1  0  0  0
  4 21  2  0  0  0
  4  6  1  0  0  0
  5 33  1  0  0  0
  6  7  1  0  0  0
  6  8  1  0  0  0
  6 34  1  0  0  0
  7  9  1  0  0  0
  7 35  1  0  0  0
  7 36  1  0  0  0
  8 37  1  0  0  0
  9 10  1  0  0  0
  9 38  1  0  0  0
 10 18  1  0  0  0
 10 19  1  0  0  0
 10 11  1  0  0  0
 11 12  1  0  0  0
 11 39  1  0  0  0
 11 40  1  0  0  0
 12 17  1  0  0  0
 12 13  2  0  0  0
 13 14  1  0  0  0
 13 41  1  0  0  0
 14 15  2  0  0  0
 14 42  1  0  0  0
 15 16  1  0  0  0
 15 43  1  0  0  0
 16 17  2  0  0  0
 16 27  1  0  0  0
 17 44  1  0  0  0
 18 45  1  0  0  0
 18 46  1  0  0  0
 18 47  1  0  0  0
 19 48  1  0  0  0
 19 49  1  0  0  0
 19 50  1  0  0  0
 20 21  1  0  0  0
 20 25  1  0  0  0
 21 22  1  0  0  0
 22 23  1  0  0  0
 23 24  1  0  0  0
 23 51  1  0  0  0
 23 52  1  0  0  0
 24 25  1  0  0  0
 24 26  2  0  0  0
 25 53  1  0  0  0
 27 28  1  0  0  0
 27 29  1  0  0  0
 27 30  1  0  0  0
M  END
> <s_m_entry_id>
3034

> <s_m_entry_name>
dock_pv.126

> <s_m_Source_Path>
/home/csk/Desktop/cluster/DUD-E-result/adrb1

> <s_m_Source_File>
dock_pv.maegz

> <i_m_Source_File_Index>
126

> <chembl_id>
CHEMBL568273

> <chembl_pref_name>
None

> <i_lp_mmshare_version>
53161

> <i_f3d_flags>
0

> <r_lp_tautomer_probability>
1

> <s_lp_Force_Field>
OPLS_2005

> <r_lp_Energy>
35.034985

> <b_lp_Chiralities_Consistent>
1

> <s_lp_Variant>
CHEMBL213_lig996-1

> <s_i_glide_gridfile>
glide-grid_2vt4

> <i_i_glide_lignum>
1111

> <i_i_glide_rotatable_bonds>
9

> <r_i_docking_score>
-7.86732495560267

> <r_i_glide_ligand_efficiency>
-0.262244165186756

> <r_i_glide_ligand_efficiency_sa>
-0.814853593641194

> <r_i_glide_ligand_efficiency_ln>
-1.78754195128406

> <r_i_glide_gscore>
-7.86732495560267

> <r_i_glide_lipo>
-2.79030786502659

> <r_i_glide_hbond>
-0.532274098106715

> <r_i_glide_metal>
0

> <r_i_glide_rewards>
-2.58334059660183

> <r_i_glide_evdw>
-40.3108062744141

> <r_i_glide_ecoul>
-4.04222536087036

> <r_i_glide_erotb>
0.660471721983722

> <r_i_glide_esite>
0

> <r_i_glide_emodel>
-58.9767210275976

> <r_i_glide_energy>
-44.3530316352844

> <r_i_glide_einternal>
11.2461242675781

> <i_i_glide_confnum>
27

> <i_i_glide_posenum>
301

> <r_i_glide_eff_state_penalty>
0

> <s_user_duplicate_titles>
CHEMBL213_lig996

> <s_m_subgroup_title>
dock_pv

> <s_m_subgroupid>
dock_pv

> <b_m_subgroup_collapsed>
1

$$$$
CHEMBL213_lig1206 
                    3D
 Schrodinger Suite 2021-1.
 60 62  0  0  1  0            999 V2000
   27.7393    6.6048    5.5607 C   0  0  0  0  0  0
   26.5005    6.1001    5.1870 C   0  0  0  0  0  0
   28.7359    5.8485    3.4723 C   0  0  0  0  0  0
   28.8342    6.5000    4.7118 C   0  0  0  0  0  0
   27.4615    5.3940    3.0629 C   0  0  0  0  0  0
   26.3607    5.4761    3.9427 C   0  0  0  0  0  0
   25.1427    4.8588    3.5850 N   0  0  0  0  0  0
   24.8894    4.1458    2.4665 C   0  0  0  0  0  0
   25.9560    4.2339    1.4835 C   0  0  0  0  0  0
   27.1688    4.7761    1.7466 C   0  0  0  0  0  0
   23.8638    3.4857    2.3490 O   0  0  0  0  0  0
   25.4449    6.2457    6.0527 O   0  0  0  0  0  0
   30.0043    5.5883    2.6318 C   0  0  1  0  0  0
   31.3299    6.2549    3.1550 C   0  0  0  0  0  0
   30.2081    4.2391    2.3850 O   0  0  0  0  0  0
   32.5903    5.8768    2.5018 N   0  0  1  0  0  0
   32.4325    5.8039    1.0641 C   0  0  0  0  0  0
   33.7627    5.6958    0.3010 C   0  0  0  0  0  0
   33.6784    6.0043   -1.2137 C   0  0  0  0  0  0
   32.7334    5.1624   -2.0866 C   0  0  0  0  0  0
   33.2233    4.5702   -3.2572 C   0  0  0  0  0  0
   32.3720    3.8585   -4.1044 C   0  0  0  0  0  0
   31.0135    3.7303   -3.7796 C   0  0  0  0  0  0
   30.5265    4.3064   -2.6121 C   0  0  0  0  0  0
   31.3723    5.0295   -1.7849 C   0  0  0  0  0  0
   30.0630    3.0267   -4.5314 N   0  0  0  0  0  0
   30.1084    2.6101   -5.8113 C   0  0  0  0  0  0
   28.8643    1.8208   -6.2660 C   0  0  0  0  0  0
   31.0467    2.8013   -6.5859 O   0  0  0  0  0  0
   29.0153    0.3429   -5.8627 C   0  0  0  0  0  0
   28.5544    1.9752   -7.7722 C   0  0  0  0  0  0
   27.8683    7.0503    6.5333 H   0  0  0  0  0  0
   29.7675    6.9069    5.0678 H   0  0  0  0  0  0
   24.3979    4.8359    4.2629 H   0  0  0  0  0  0
   25.7562    3.8113    0.5089 H   0  0  0  0  0  0
   27.9104    4.7868    0.9612 H   0  0  0  0  0  0
   25.5994    6.9506    6.6908 H   0  0  0  0  0  0
   29.8196    5.8500    1.6053 H   0  0  0  0  0  0
   31.4827    6.0468    4.2122 H   0  0  0  0  0  0
   31.2256    7.3386    3.0767 H   0  0  0  0  0  0
   30.7365    3.8988    3.1200 H   0  0  0  0  0  0
   33.2998    6.5673    2.7067 H   0  0  0  0  0  0
   31.8080    6.6493    0.7842 H   0  0  0  0  0  0
   31.8704    4.9100    0.8283 H   0  0  0  0  0  0
   34.1868    4.7011    0.4467 H   0  0  0  0  0  0
   34.4804    6.3919    0.7388 H   0  0  0  0  0  0
   34.6892    5.9357   -1.6211 H   0  0  0  0  0  0
   33.4079    7.0479   -1.3274 H   0  0  0  0  0  0
   34.2660    4.6658   -3.5257 H   0  0  0  0  0  0
   32.7847    3.4100   -4.9948 H   0  0  0  0  0  0
   29.4844    4.2071   -2.3398 H   0  0  0  0  0  0
   30.9194    5.4524   -0.9104 H   0  0  0  0  0  0
   29.2102    2.8225   -4.0298 H   0  0  0  0  0  0
   28.0032    2.2199   -5.7238 H   0  0  0  0  0  0
   29.2682    0.2408   -4.8092 H   0  0  0  0  0  0
   29.8046   -0.1545   -6.4270 H   0  0  0  0  0  0
   28.0834   -0.1981   -6.0115 H   0  0  0  0  0  0
   28.3785    3.0191   -8.0372 H   0  0  0  0  0  0
   29.3741    1.6166   -8.3958 H   0  0  0  0  0  0
   27.6598    1.4176   -8.0505 H   0  0  0  0  0  0
  1  2  2  0  0  0
  1  4  1  0  0  0
  1 32  1  0  0  0
  2  6  1  0  0  0
  2 12  1  0  0  0
  3  5  1  0  0  0
  3  4  2  0  0  0
  3 13  1  0  0  0
  4 33  1  0  0  0
  5  6  2  0  0  0
  5 10  1  0  0  0
  6  7  1  0  0  0
  7  8  1  0  0  0
  7 34  1  0  0  0
  8  9  1  0  0  0
  8 11  2  0  0  0
  9 10  2  0  0  0
  9 35  1  0  0  0
 10 36  1  0  0  0
 12 37  1  0  0  0
 13 14  1  0  0  0
 13 15  1  0  0  0
 13 38  1  0  0  0
 14 16  1  0  0  0
 14 39  1  0  0  0
 14 40  1  0  0  0
 15 41  1  0  0  0
 16 17  1  0  0  0
 16 42  1  0  0  0
 17 18  1  0  0  0
 17 43  1  0  0  0
 17 44  1  0  0  0
 18 19  1  0  0  0
 18 45  1  0  0  0
 18 46  1  0  0  0
 19 20  1  0  0  0
 19 47  1  0  0  0
 19 48  1  0  0  0
 20 21  2  0  0  0
 20 25  1  0  0  0
 21 22  1  0  0  0
 21 49  1  0  0  0
 22 23  2  0  0  0
 22 50  1  0  0  0
 23 24  1  0  0  0
 23 26  1  0  0  0
 24 25  2  0  0  0
 24 51  1  0  0  0
 25 52  1  0  0  0
 26 27  1  0  0  0
 26 53  1  0  0  0
 27 28  1  0  0  0
 27 29  2  0  0  0
 28 30  1  0  0  0
 28 31  1  0  0  0
 28 54  1  0  0  0
 30 55  1  0  0  0
 30 56  1  0  0  0
 30 57  1  0  0  0
 31 58  1  0  0  0
 31 59  1  0  0  0
 31 60  1  0  0  0
M  END
> <s_m_entry_id>
3035

> <s_m_entry_name>
dock_pv.127

> <s_m_Source_Path>
/home/csk/Desktop/cluster/DUD-E-result/adrb1

> <s_m_Source_File>
dock_pv.maegz

> <i_m_Source_File_Index>
127

> <chembl_id>
CHEMBL4441752

> <chembl_pref_name>
None

> <i_lp_mmshare_version>
53161

> <i_f3d_flags>
0

> <r_lp_tautomer_probability>
1

> <s_lp_Force_Field>
OPLS_2005

> <r_lp_Energy>
31.982855

> <b_lp_Chiralities_Consistent>
1

> <s_lp_Variant>
CHEMBL213_lig1206 -2

> <s_i_glide_gridfile>
glide-grid_2vt4

> <i_i_glide_lignum>
1422

> <i_i_glide_rotatable_bonds>
12

> <r_i_docking_score>
-7.86418357312019

> <r_i_glide_ligand_efficiency>
-0.253683341068393

> <r_i_glide_ligand_efficiency_sa>
-0.796915938554058

> <r_i_glide_ligand_efficiency_ln>
-1.77361440402112

> <r_i_glide_gscore>
-7.86418357312019

> <r_i_glide_lipo>
-3.53442514815238

> <r_i_glide_hbond>
-0.470719028715062

> <r_i_glide_metal>
0

> <r_i_glide_rewards>
-1.42563854246173

> <r_i_glide_evdw>
-42.405330657959

> <r_i_glide_ecoul>
-8.70846366882324

> <r_i_glide_erotb>
0.994556964546572

> <r_i_glide_esite>
-0.00142173511615697

> <r_i_glide_emodel>
-61.5904067913479

> <r_i_glide_energy>
-51.1137943267822

> <r_i_glide_einternal>
15.4859495162964

> <i_i_glide_confnum>
137

> <i_i_glide_posenum>
316

> <r_i_glide_eff_state_penalty>
0

> <s_user_duplicate_titles>
CHEMBL213_lig1206 

> <s_m_subgroup_title>
dock_pv

> <s_m_subgroupid>
dock_pv

> <b_m_subgroup_collapsed>
1

$$$$
CHEMBL213_lig376
                    3D
 Schrodinger Suite 2021-1.
 59 62  0  0  1  0            999 V2000
   34.0471    3.9948   -5.6319 C   0  0  0  0  0  0
   34.3772    3.3238   -6.7108 N   0  0  0  0  0  0
   32.7038    3.8668   -5.4144 N   0  0  0  0  0  0
   32.2281    3.0504   -6.3993 C   0  0  0  0  0  0
   33.2133    2.7253   -7.2080 N   0  0  0  0  0  0
   26.9633    6.4036    4.9981 C   0  0  0  0  0  0
   26.6898    5.4752    3.9942 C   0  0  0  0  0  0
   27.6271    5.0501    3.1111 N   0  0  0  0  0  0
   28.8810    5.5590    3.2168 C   0  0  0  0  0  0
   29.2476    6.5058    4.1883 C   0  0  0  0  0  0
   28.2556    6.9216    5.0887 C   0  0  0  0  0  0
   30.6505    7.1181    4.2796 C   0  0  2  0  0  0
   31.7199    6.5500    3.3138 C   0  0  0  0  0  0
   31.1777    7.0500    5.5850 O   0  0  0  0  0  0
   32.8654    7.4498    3.1850 N   0  0  1  0  0  0
   34.1264    7.0941    3.8281 C   0  0  0  0  0  0
   34.8139    5.8368    3.2522 C   0  0  0  0  0  0
   34.9820    5.8111    1.7334 C   0  0  0  0  0  0
   36.2108    6.0663    1.1160 C   0  0  0  0  0  0
   36.3396    5.9220   -0.2694 C   0  0  0  0  0  0
   35.2406    5.5327   -1.0436 C   0  0  0  0  0  0
   34.0099    5.3084   -0.4154 C   0  0  0  0  0  0
   33.8882    5.4500    0.9533 C   0  0  0  0  0  0
   35.4410    5.3168   -2.4232 N   0  0  0  0  0  0
   34.4957    5.2193   -3.3848 C   0  0  0  0  0  0
   33.2974    5.4503   -3.2016 O   0  0  0  0  0  0
   34.9725    4.8842   -4.8084 C   0  0  0  0  0  0
   30.7986    2.6493   -6.5115 C   0  0  0  0  0  0
   30.2803    2.2494   -7.7441 C   0  0  0  0  0  0
   28.9296    1.9390   -7.8630 C   0  0  0  0  0  0
   28.1027    2.0328   -6.7507 C   0  0  0  0  0  0
   28.6128    2.3900   -5.5080 C   0  0  0  0  0  0
   29.9633    2.6979   -5.3877 C   0  0  0  0  0  0
   32.1822    4.2988   -4.6645 H   0  0  0  0  0  0
   26.1954    6.7251    5.6870 H   0  0  0  0  0  0
   25.7007    5.0553    3.8827 H   0  0  0  0  0  0
   29.5870    5.1747    2.4970 H   0  0  0  0  0  0
   28.4834    7.6510    5.8533 H   0  0  0  0  0  0
   30.5029    8.1718    4.0369 H   0  0  0  0  0  0
   31.2853    6.5052    2.3157 H   0  0  0  0  0  0
   32.0126    5.5325    3.5737 H   0  0  0  0  0  0
   32.0783    7.3819    5.5123 H   0  0  0  0  0  0
   33.0078    7.7433    2.2159 H   0  0  0  0  0  0
   33.9819    7.0079    4.9053 H   0  0  0  0  0  0
   34.7867    7.9466    3.6647 H   0  0  0  0  0  0
   34.2483    4.9505    3.5427 H   0  0  0  0  0  0
   35.7855    5.7151    3.7295 H   0  0  0  0  0  0
   37.0730    6.3419    1.7051 H   0  0  0  0  0  0
   37.3017    6.0908   -0.7322 H   0  0  0  0  0  0
   33.1373    4.9632   -0.9438 H   0  0  0  0  0  0
   32.9393    5.2186    1.4067 H   0  0  0  0  0  0
   36.4038    5.2621   -2.7223 H   0  0  0  0  0  0
   35.9964    4.5091   -4.8108 H   0  0  0  0  0  0
   35.0080    5.8471   -5.3078 H   0  0  0  0  0  0
   30.9157    2.2138   -8.6174 H   0  0  0  0  0  0
   28.5156    1.6535   -8.8153 H   0  0  0  0  0  0
   27.0440    1.8502   -6.8512 H   0  0  0  0  0  0
   27.9587    2.4495   -4.6486 H   0  0  0  0  0  0
   30.3462    2.9888   -4.4204 H   0  0  0  0  0  0
  1  2  2  0  0  0
  1 27  1  0  0  0
  1  3  1  0  0  0
  2  5  1  0  0  0
  3  4  1  0  0  0
  3 34  1  0  0  0
  4  5  2  0  0  0
  4 28  1  0  0  0
  6 11  1  0  0  0
  6  7  2  0  0  0
  6 35  1  0  0  0
  7  8  1  0  0  0
  7 36  1  0  0  0
  8  9  2  0  0  0
  9 10  1  0  0  0
  9 37  1  0  0  0
 10 11  2  0  0  0
 10 12  1  0  0  0
 11 38  1  0  0  0
 12 13  1  0  0  0
 12 14  1  0  0  0
 12 39  1  0  0  0
 13 15  1  0  0  0
 13 40  1  0  0  0
 13 41  1  0  0  0
 14 42  1  0  0  0
 15 16  1  0  0  0
 15 43  1  0  0  0
 16 17  1  0  0  0
 16 44  1  0  0  0
 16 45  1  0  0  0
 17 18  1  0  0  0
 17 46  1  0  0  0
 17 47  1  0  0  0
 18 19  2  0  0  0
 18 23  1  0  0  0
 19 20  1  0  0  0
 19 48  1  0  0  0
 20 21  2  0  0  0
 20 49  1  0  0  0
 21 22  1  0  0  0
 21 24  1  0  0  0
 22 23  2  0  0  0
 22 50  1  0  0  0
 23 51  1  0  0  0
 24 25  1  0  0  0
 24 52  1  0  0  0
 25 26  2  0  0  0
 25 27  1  0  0  0
 27 53  1  0  0  0
 27 54  1  0  0  0
 28 29  2  0  0  0
 28 33  1  0  0  0
 29 30  1  0  0  0
 29 55  1  0  0  0
 30 31  2  0  0  0
 30 56  1  0  0  0
 31 32  1  0  0  0
 31 57  1  0  0  0
 32 33  2  0  0  0
 32 58  1  0  0  0
 33 59  1  0  0  0
M  END
> <s_m_entry_id>
3036

> <s_m_entry_name>
dock_pv.128

> <s_m_Source_Path>
/home/csk/Desktop/cluster/DUD-E-result/adrb1

> <s_m_Source_File>
dock_pv.maegz

> <i_m_Source_File_Index>
128

> <chembl_id>
CHEMBL1084138

> <chembl_pref_name>
None

> <i_lp_mmshare_version>
53161

> <i_f3d_flags>
0

> <r_lp_tautomer_probability>
0.0517155146543963

> <s_lp_Force_Field>
OPLS_2005

> <r_lp_Energy>
35.061793

> <b_lp_Chiralities_Consistent>
1

> <s_lp_Variant>
CHEMBL213_lig376-2

> <s_i_glide_gridfile>
glide-grid_2vt4

> <i_i_glide_lignum>
443

> <i_i_glide_rotatable_bonds>
12

> <r_i_docking_score>
-7.85894196928119

> <r_i_glide_ligand_efficiency>
-0.238149756644884

> <r_i_glide_ligand_efficiency_sa>
-0.763873519228322

> <r_i_glide_ligand_efficiency_ln>
-1.74778800254438

> <r_i_glide_gscore>
-7.85894196928119

> <r_i_glide_lipo>
-3.27206940979305

> <r_i_glide_hbond>
-0.537757239994644

> <r_i_glide_metal>
0

> <r_i_glide_rewards>
-1.28925995371196

> <r_i_glide_evdw>
-47.3542709350586

> <r_i_glide_ecoul>
-9.1482458114624

> <r_i_glide_erotb>
1.02053994482141

> <r_i_glide_esite>
-0.0404448921306576

> <r_i_glide_emodel>
-68.9543961228826

> <r_i_glide_energy>
-56.502516746521

> <r_i_glide_einternal>
14.0336065292358

> <i_i_glide_confnum>
40

> <i_i_glide_posenum>
394

> <r_i_glide_eff_state_penalty>
0

> <s_user_duplicate_titles>
CHEMBL213_lig376,CHEMBL213_lig376

> <s_m_subgroup_title>
dock_pv

> <s_m_subgroupid>
dock_pv

> <b_m_subgroup_collapsed>
1

$$$$
CHEMBL213_lig886
                    3D
 Schrodinger Suite 2021-1.
 54 57  0  0  1  0            999 V2000
   25.6068    5.8018    4.6390 C   0  0  0  0  0  0
   26.9312    6.2323    4.6068 C   0  0  0  0  0  0
   27.7583    5.8499    3.5531 C   0  0  0  0  0  0
   27.2561    5.0511    2.5262 C   0  0  0  0  0  0
   25.9195    4.6186    2.5267 C   0  0  0  0  0  0
   25.1101    4.9965    3.6052 C   0  0  0  0  0  0
   24.6081    6.2435    5.9833 Cl  0  0  0  0  0  0
   25.3675    3.6786    1.4239 C   0  0  2  0  0  0
   26.1459    3.6489    0.0761 C   0  0  0  0  0  0
   23.9860    3.8501    1.1458 O   0  0  0  0  0  0
   26.3914    4.9848   -0.4693 N   0  0  1  0  0  0
   27.3186    5.0147   -1.5998 C   0  0  1  0  0  0
   27.2917    6.4023   -2.2658 C   0  0  0  0  0  0
   28.0656    6.4014   -3.5931 C   0  0  0  0  0  0
   28.7853    4.6861   -1.2359 C   0  0  0  0  0  0
   29.7531    4.8770   -2.4077 C   0  0  0  0  0  0
   29.4445    5.7531   -3.4739 C   0  0  0  0  0  0
   30.4062    5.9738   -4.4638 C   0  0  0  0  0  0
   31.6368    5.3260   -4.4425 C   0  0  0  0  0  0
   31.9344    4.4428   -3.4137 C   0  0  0  0  0  0
   30.9873    4.2150   -2.4136 C   0  0  0  0  0  0
   33.1457    3.7876   -3.4085 O   0  0  0  0  0  0
   34.1076    4.0412   -2.4471 C   0  0  0  0  0  0
   35.2296    3.2149   -2.3980 C   0  0  0  0  0  0
   36.1673    3.4067   -1.3818 C   0  0  0  0  0  0
   35.9817    4.4295   -0.4380 C   0  0  0  0  0  0
   34.8450    5.2391   -0.5856 C   0  0  0  0  0  0
   33.9186    5.0612   -1.5605 N   0  0  0  0  0  0
   36.9221    4.6515    0.7243 C   0  0  0  0  0  0
   38.0301    3.8505    0.7848 O   0  0  0  0  0  0
   36.6812    5.4980    1.5853 O   0  0  0  0  0  0
   27.3192    6.8496    5.4039 H   0  0  0  0  0  0
   28.7896    6.1718    3.5281 H   0  0  0  0  0  0
   27.9266    4.7666    1.7305 H   0  0  0  0  0  0
   24.0880    4.6486    3.6525 H   0  0  0  0  0  0
   25.4079    2.6722    1.8428 H   0  0  0  0  0  0
   25.6069    3.0456   -0.6588 H   0  0  0  0  0  0
   27.0850    3.1318    0.2444 H   0  0  0  0  0  0
   23.8071    3.5820    0.2355 H   0  0  0  0  0  0
   25.5110    5.3649   -0.7919 H   0  0  0  0  0  0
   26.9996    4.2683   -2.3296 H   0  0  0  0  0  0
   27.6855    7.1570   -1.5822 H   0  0  0  0  0  0
   26.2602    6.6973   -2.4705 H   0  0  0  0  0  0
   28.1472    7.4203   -3.9770 H   0  0  0  0  0  0
   27.4904    5.8398   -4.3319 H   0  0  0  0  0  0
   28.8791    3.6853   -0.8150 H   0  0  0  0  0  0
   29.1069    5.3717   -0.4501 H   0  0  0  0  0  0
   30.1975    6.6500   -5.2792 H   0  0  0  0  0  0
   32.3558    5.5042   -5.2271 H   0  0  0  0  0  0
   31.2275    3.5295   -1.6151 H   0  0  0  0  0  0
   35.3528    2.4165   -3.1136 H   0  0  0  0  0  0
   37.0080    2.7321   -1.3332 H   0  0  0  0  0  0
   34.6417    6.0484    0.1028 H   0  0  0  0  0  0
   38.2393    3.3356   -0.0091 H   0  0  0  0  0  0
  1  6  1  0  0  0
  1  2  2  0  0  0
  1  7  1  0  0  0
  2  3  1  0  0  0
  2 32  1  0  0  0
  3  4  2  0  0  0
  3 33  1  0  0  0
  4  5  1  0  0  0
  4 34  1  0  0  0
  5  8  1  0  0  0
  5  6  2  0  0  0
  6 35  1  0  0  0
  8  9  1  0  0  0
  8 10  1  0  0  0
  8 36  1  0  0  0
  9 11  1  0  0  0
  9 37  1  0  0  0
  9 38  1  0  0  0
 10 39  1  0  0  0
 11 12  1  0  0  0
 11 40  1  0  0  0
 12 13  1  0  0  0
 12 15  1  0  0  0
 12 41  1  0  0  0
 13 14  1  0  0  0
 13 42  1  0  0  0
 13 43  1  0  0  0
 14 17  1  0  0  0
 14 44  1  0  0  0
 14 45  1  0  0  0
 15 16  1  0  0  0
 15 46  1  0  0  0
 15 47  1  0  0  0
 16 17  2  0  0  0
 16 21  1  0  0  0
 17 18  1  0  0  0
 18 19  2  0  0  0
 18 48  1  0  0  0
 19 20  1  0  0  0
 19 49  1  0  0  0
 20 21  2  0  0  0
 20 22  1  0  0  0
 21 50  1  0  0  0
 22 23  1  0  0  0
 23 24  2  0  0  0
 23 28  1  0  0  0
 24 25  1  0  0  0
 24 51  1  0  0  0
 25 26  2  0  0  0
 25 52  1  0  0  0
 26 27  1  0  0  0
 26 29  1  0  0  0
 27 28  2  0  0  0
 27 53  1  0  0  0
 29 30  1  0  0  0
 29 31  2  0  0  0
 30 54  1  0  0  0
M  END
> <s_m_entry_id>
3037

> <s_m_entry_name>
dock_pv.129

> <s_m_Source_Path>
/home/csk/Desktop/cluster/DUD-E-result/adrb1

> <s_m_Source_File>
dock_pv.maegz

> <i_m_Source_File_Index>
129

> <chembl_id>
CHEMBL498703

> <chembl_pref_name>
None

> <i_lp_mmshare_version>
53161

> <i_f3d_flags>
0

> <r_lp_tautomer_probability>
1

> <s_lp_Force_Field>
OPLS_2005

> <r_lp_Energy>
39.149348

> <b_lp_Chiralities_Consistent>
1

> <s_lp_Variant>
CHEMBL213_lig886-1

> <s_i_glide_gridfile>
glide-grid_2vt4

> <i_i_glide_lignum>
994

> <i_i_glide_rotatable_bonds>
9

> <r_i_docking_score>
-7.85806770020376

> <r_i_glide_ligand_efficiency>
-0.253486054845283

> <r_i_glide_ligand_efficiency_sa>
-0.796296187430504

> <r_i_glide_ligand_efficiency_ln>
-1.77223508724947

> <r_i_glide_gscore>
-7.85806770020376

> <r_i_glide_lipo>
-3.39197604773178

> <r_i_glide_hbond>
0

> <r_i_glide_metal>
0

> <r_i_glide_rewards>
-1.02490296969697

> <r_i_glide_evdw>
-49.8236694335938

> <r_i_glide_ecoul>
-10.4766712188721

> <r_i_glide_erotb>
0.621495471735482

> <r_i_glide_esite>
0

> <r_i_glide_emodel>
-88.1691802136484

> <r_i_glide_energy>
-60.3003406524658

> <r_i_glide_einternal>
5.30268669128418

> <i_i_glide_confnum>
15

> <i_i_glide_posenum>
44

> <r_i_glide_eff_state_penalty>
0

> <s_user_duplicate_titles>
CHEMBL213_lig886,511531

> <s_m_subgroup_title>
dock_pv

> <s_m_subgroupid>
dock_pv

> <b_m_subgroup_collapsed>
1

$$$$
CHEMBL213_lig1302
                    3D
 Schrodinger Suite 2021-1.
 70 72  0  0  1  0            999 V2000
   27.3372    5.8394    0.1019 N   0  0  1  0  0  0
   27.6415    4.8163    1.0805 C   0  0  1  0  0  0
   29.0642    5.0497    1.7032 C   0  0  0  0  0  0
   30.2212    5.0896    0.6748 C   0  0  0  0  0  0
   30.1177    3.5791   -4.3298 C   0  0  0  0  0  0
   31.1776    4.3814   -4.7665 C   0  0  0  0  0  0
   31.0171    5.7640   -4.8007 C   0  0  0  0  0  0
   29.8174    6.3546   -4.4150 C   0  0  0  0  0  0
   28.7519    5.5524   -4.0158 C   0  0  0  0  0  0
   28.9113    4.1687   -3.9564 C   0  0  0  0  0  0
   32.3654    3.8353   -5.1781 O   0  0  0  0  0  0
   30.2080    2.1906   -4.2618 N   0  0  0  0  0  0
   29.8869    1.2281   -5.6932 S   0  0  0  0  0  0
   28.1620    1.7540   -6.2123 C   0  0  0  0  0  0
   29.8079   -0.1499   -5.2171 O   0  0  0  0  0  0
   30.8453    1.6315   -6.7266 O   0  0  0  0  0  0
   27.3997    6.1620   -3.7210 C   0  0  0  0  0  0
   27.1857    6.4888   -2.2379 C   0  0  2  0  0  0
   27.5417    5.3622   -1.2621 C   0  0  0  0  0  0
   25.8080    6.7021   -2.0930 O   0  0  0  0  0  0
   26.5110    4.7752    2.0991 C   0  0  0  0  0  0
   26.5650    5.5792    3.2346 C   0  0  0  0  0  0
   25.5888    5.4988    4.2190 C   0  0  0  0  0  0
   24.4937    4.6500    4.0364 C   0  0  0  0  0  0
   24.4008    3.8655    2.8750 C   0  0  0  0  0  0
   25.4077    3.9300    1.9112 C   0  0  0  0  0  0
   31.6189    5.4523    1.1848 C   0  0  0  0  0  0
   31.8571    5.8556    2.5048 C   0  0  0  0  0  0
   33.1332    6.2499    2.9035 C   0  0  0  0  0  0
   34.1825    6.2270    1.9875 C   0  0  0  0  0  0
   33.9614    5.8307    0.6705 C   0  0  0  0  0  0
   32.6811    5.4500    0.2701 C   0  0  0  0  0  0
   25.6720    6.2491    5.3739 O   0  0  0  0  0  0
   26.9252    6.2498    6.0574 C   0  0  0  0  0  0
   27.4079    5.0166    6.2054 F   0  0  0  0  0  0
   27.8396    7.0389    5.4908 F   0  0  0  0  0  0
   23.5803    4.6500    5.0768 O   0  0  0  0  0  0
   22.1760    4.6749    4.8449 C   0  0  0  0  0  0
   21.8081    4.6500    3.5850 F   0  0  0  0  0  0
   21.5846    3.6730    5.4944 F   0  0  0  0  0  0
   26.3738    6.1384    0.1849 H   0  0  0  0  0  0
   27.6025    3.8499    0.5774 H   0  0  0  0  0  0
   29.0862    5.9350    2.3287 H   0  0  0  0  0  0
   29.2757    4.2504    2.4113 H   0  0  0  0  0  0
   30.2351    4.1398    0.1400 H   0  0  0  0  0  0
   30.0025    5.8495   -0.0696 H   0  0  0  0  0  0
   31.8082    6.3870   -5.1712 H   0  0  0  0  0  0
   29.7059    7.4282   -4.4798 H   0  0  0  0  0  0
   28.0837    3.5464   -3.6416 H   0  0  0  0  0  0
   32.3056    2.8794   -5.2531 H   0  0  0  0  0  0
   29.7815    1.7938   -3.4336 H   0  0  0  0  0  0
   27.9141    1.2541   -7.1466 H   0  0  0  0  0  0
   28.1393    2.8312   -6.3531 H   0  0  0  0  0  0
   27.4580    1.4553   -5.4347 H   0  0  0  0  0  0
   27.2632    7.0647   -4.3212 H   0  0  0  0  0  0
   26.6384    5.4713   -4.0902 H   0  0  0  0  0  0
   27.7462    7.3920   -1.9861 H   0  0  0  0  0  0
   26.9240    4.4851   -1.4684 H   0  0  0  0  0  0
   28.5755    5.0614   -1.4110 H   0  0  0  0  0  0
   25.3597    5.9298   -2.4658 H   0  0  0  0  0  0
   27.3685    6.2783    3.3660 H   0  0  0  0  0  0
   23.5686    3.1923    2.7321 H   0  0  0  0  0  0
   25.3371    3.3114    1.0276 H   0  0  0  0  0  0
   31.0680    5.8736    3.2393 H   0  0  0  0  0  0
   33.3076    6.5677    3.9207 H   0  0  0  0  0  0
   35.1716    6.5316    2.2957 H   0  0  0  0  0  0
   34.7741    5.8259   -0.0415 H   0  0  0  0  0  0
   32.5148    5.1576   -0.7567 H   0  0  0  0  0  0
   26.7688    6.6374    7.0621 H   0  0  0  0  0  0
   21.7770    5.6251    5.1850 H   0  0  0  0  0  0
  1  2  1  0  0  0
  1 19  1  0  0  0
  1 41  1  0  0  0
  2 21  1  0  0  0
  2  3  1  0  0  0
  2 42  1  0  0  0
  3  4  1  0  0  0
  3 43  1  0  0  0
  3 44  1  0  0  0
  4 27  1  0  0  0
  4 45  1  0  0  0
  4 46  1  0  0  0
  5  6  2  0  0  0
  5 12  1  0  0  0
  5 10  1  0  0  0
  6 11  1  0  0  0
  6  7  1  0  0  0
  7  8  2  0  0  0
  7 47  1  0  0  0
  8  9  1  0  0  0
  8 48  1  0  0  0
  9 17  1  0  0  0
  9 10  2  0  0  0
 10 49  1  0  0  0
 11 50  1  0  0  0
 12 13  1  0  0  0
 12 51  1  0  0  0
 13 14  1  0  0  0
 13 15  2  0  0  0
 13 16  2  0  0  0
 14 52  1  0  0  0
 14 53  1  0  0  0
 14 54  1  0  0  0
 17 18  1  0  0  0
 17 55  1  0  0  0
 17 56  1  0  0  0
 18 20  1  0  0  0
 18 19  1  0  0  0
 18 57  1  0  0  0
 19 58  1  0  0  0
 19 59  1  0  0  0
 20 60  1  0  0  0
 21 22  2  0  0  0
 21 26  1  0  0  0
 22 23  1  0  0  0
 22 61  1  0  0  0
 23 24  2  0  0  0
 23 33  1  0  0  0
 24 25  1  0  0  0
 24 37  1  0  0  0
 25 26  2  0  0  0
 25 62  1  0  0  0
 26 63  1  0  0  0
 27 28  2  0  0  0
 27 32  1  0  0  0
 28 29  1  0  0  0
 28 64  1  0  0  0
 29 30  2  0  0  0
 29 65  1  0  0  0
 30 31  1  0  0  0
 30 66  1  0  0  0
 31 32  2  0  0  0
 31 67  1  0  0  0
 32 68  1  0  0  0
 33 34  1  0  0  0
 34 35  1  0  0  0
 34 36  1  0  0  0
 34 69  1  0  0  0
 37 38  1  0  0  0
 38 39  1  0  0  0
 38 40  1  0  0  0
 38 70  1  0  0  0
M  END
> <s_m_entry_id>
3038

> <s_m_entry_name>
dock_pv.130

> <s_m_Source_Path>
/home/csk/Desktop/cluster/DUD-E-result/adrb1

> <s_m_Source_File>
dock_pv.maegz

> <i_m_Source_File_Index>
130

> <chembl_id>
CHEMBL251555

> <chembl_pref_name>
None

> <i_lp_mmshare_version>
53161

> <i_f3d_flags>
0

> <r_lp_tautomer_probability>
1

> <s_lp_Force_Field>
OPLS_2005

> <r_lp_Energy>
17.166005

> <b_lp_Chiralities_Consistent>
1

> <s_lp_Variant>
CHEMBL213_lig1302-1

> <s_i_glide_gridfile>
glide-grid_2vt4

> <i_i_glide_lignum>
1554

> <i_i_glide_rotatable_bonds>
17

> <r_i_docking_score>
-7.85466727621966

> <r_i_glide_ligand_efficiency>
-0.196366681905492

> <r_i_glide_ligand_efficiency_sa>
-0.671564604748436

> <r_i_glide_ligand_efficiency_ln>
-1.67516937747848

> <r_i_glide_gscore>
-7.85466727621966

> <r_i_glide_lipo>
-2.95881503900674

> <r_i_glide_hbond>
-0.456

> <r_i_glide_metal>
0

> <r_i_glide_rewards>
-1.39548123988873

> <r_i_glide_evdw>
-42.0805778503418

> <r_i_glide_ecoul>
-9.88638877868652

> <r_i_glide_erotb>
0.563786028673519

> <r_i_glide_esite>
-0.0211698166776424

> <r_i_glide_emodel>
-62.647635651259

> <r_i_glide_energy>
-51.9669666290283

> <r_i_glide_einternal>
21.9041519165039

> <i_i_glide_confnum>
2

> <i_i_glide_posenum>
379

> <r_i_glide_eff_state_penalty>
0

> <s_user_duplicate_titles>
CHEMBL213_lig1302,417116

> <s_m_subgroup_title>
dock_pv

> <s_m_subgroupid>
dock_pv

> <b_m_subgroup_collapsed>
1

$$$$
CHEMBL213_lig1308
                    3D
 Schrodinger Suite 2021-1.
 53 56  0  0  1  0            999 V2000
   25.0245    4.3282    2.9930 C   0  0  0  0  0  0
   25.8075    4.2517    1.8430 C   0  0  0  0  0  0
   26.9638    4.9461    1.7021 N   0  0  0  0  0  0
   27.3769    5.7277    2.7339 C   0  0  0  0  0  0
   26.6566    5.8768    3.9244 C   0  0  0  0  0  0
   25.4531    5.1612    4.0290 C   0  0  0  0  0  0
   27.0875    6.8283    5.0544 C   0  0  2  0  0  0
   28.4814    7.5346    4.9469 C   0  0  0  0  0  0
   26.9304    6.2499    6.3423 O   0  0  0  0  0  0
   29.6167    6.6500    5.1489 N   0  0  2  0  0  0
   30.9225    7.2135    4.8134 C   0  0  0  0  0  0
   31.2258    7.1622    3.3008 C   0  0  0  0  0  0
   30.9654    5.8525    2.7844 O   0  0  0  0  0  0
   31.3128    5.6012    1.4763 C   0  0  0  0  0  0
   30.3424    5.0500    0.6429 C   0  0  0  0  0  0
   30.6081    4.8012   -0.6987 C   0  0  0  0  0  0
   31.8907    5.0501   -1.2150 C   0  0  0  0  0  0
   32.8803    5.5624   -0.3642 C   0  0  0  0  0  0
   32.5899    5.8500    0.9695 C   0  0  0  0  0  0
   32.2212    4.7330   -2.6420 C   0  0  0  0  0  0
   33.4082    5.0426   -3.3143 C   0  0  0  0  0  0
   33.3459    4.4494   -4.9436 S   0  0  0  0  0  0
   31.7509    3.8377   -4.6090 C   0  0  0  0  0  0
   31.3451    4.0780   -3.3871 N   0  0  0  0  0  0
   30.9152    3.1199   -5.6311 C   0  0  0  0  0  0
   29.6165    2.6942   -5.3093 C   0  0  0  0  0  0
   28.8198    2.0633   -6.2616 C   0  0  0  0  0  0
   29.3190    1.8497   -7.5433 C   0  0  0  0  0  0
   30.6125    2.2500   -7.8696 C   0  0  0  0  0  0
   31.4075    2.8761   -6.9184 C   0  0  0  0  0  0
   24.1000    3.7753    3.0713 H   0  0  0  0  0  0
   25.5086    3.6358    1.0062 H   0  0  0  0  0  0
   28.3054    6.2504    2.5710 H   0  0  0  0  0  0
   24.8443    5.2549    4.9166 H   0  0  0  0  0  0
   26.3487    7.6304    5.0083 H   0  0  0  0  0  0
   28.6080    8.0156    3.9850 H   0  0  0  0  0  0
   28.5367    8.3241    5.6961 H   0  0  0  0  0  0
   27.0073    6.9697    6.9799 H   0  0  0  0  0  0
   29.4978    5.8125    4.5830 H   0  0  0  0  0  0
   31.0087    8.2321    5.1965 H   0  0  0  0  0  0
   31.6812    6.6211    5.3273 H   0  0  0  0  0  0
   30.6089    7.8925    2.7844 H   0  0  0  0  0  0
   32.2630    7.4605    3.1443 H   0  0  0  0  0  0
   29.3694    4.8218    1.0335 H   0  0  0  0  0  0
   29.8238    4.3878   -1.3170 H   0  0  0  0  0  0
   33.8803    5.7485   -0.7247 H   0  0  0  0  0  0
   33.3649    6.2507    1.6041 H   0  0  0  0  0  0
   34.2887    5.5562   -2.9568 H   0  0  0  0  0  0
   29.2062    2.8601   -4.3228 H   0  0  0  0  0  0
   27.8150    1.7569   -6.0050 H   0  0  0  0  0  0
   28.6976    1.3779   -8.2908 H   0  0  0  0  0  0
   31.0080    2.0891   -8.8599 H   0  0  0  0  0  0
   32.4013    3.1840   -7.2073 H   0  0  0  0  0  0
  1  6  1  0  0  0
  1  2  2  0  0  0
  1 31  1  0  0  0
  2  3  1  0  0  0
  2 32  1  0  0  0
  3  4  2  0  0  0
  4  5  1  0  0  0
  4 33  1  0  0  0
  5  6  2  0  0  0
  5  7  1  0  0  0
  6 34  1  0  0  0
  7  8  1  0  0  0
  7  9  1  0  0  0
  7 35  1  0  0  0
  8 10  1  0  0  0
  8 36  1  0  0  0
  8 37  1  0  0  0
  9 38  1  0  0  0
 10 11  1  0  0  0
 10 39  1  0  0  0
 11 12  1  0  0  0
 11 40  1  0  0  0
 11 41  1  0  0  0
 12 13  1  0  0  0
 12 42  1  0  0  0
 12 43  1  0  0  0
 13 14  1  0  0  0
 14 15  2  0  0  0
 14 19  1  0  0  0
 15 16  1  0  0  0
 15 44  1  0  0  0
 16 17  2  0  0  0
 16 45  1  0  0  0
 17 18  1  0  0  0
 17 20  1  0  0  0
 18 19  2  0  0  0
 18 46  1  0  0  0
 19 47  1  0  0  0
 20 21  2  0  0  0
 20 24  1  0  0  0
 21 22  1  0  0  0
 21 48  1  0  0  0
 22 23  1  0  0  0
 23 24  2  0  0  0
 23 25  1  0  0  0
 25 26  2  0  0  0
 25 30  1  0  0  0
 26 27  1  0  0  0
 26 49  1  0  0  0
 27 28  2  0  0  0
 27 50  1  0  0  0
 28 29  1  0  0  0
 28 51  1  0  0  0
 29 30  2  0  0  0
 29 52  1  0  0  0
 30 53  1  0  0  0
M  END
> <s_m_entry_id>
3039

> <s_m_entry_name>
dock_pv.131

> <s_m_Source_Path>
/home/csk/Desktop/cluster/DUD-E-result/adrb1

> <s_m_Source_File>
dock_pv.maegz

> <i_m_Source_File_Index>
131

> <chembl_id>
CHEMBL250144

> <chembl_pref_name>
None

> <i_lp_mmshare_version>
53161

> <i_f3d_flags>
0

> <r_lp_tautomer_probability>
1

> <s_lp_Force_Field>
OPLS_2005

> <r_lp_Energy>
31.109808

> <b_lp_Chiralities_Consistent>
1

> <s_lp_Variant>
CHEMBL213_lig1308-1

> <s_i_glide_gridfile>
glide-grid_2vt4

> <i_i_glide_lignum>
1560

> <i_i_glide_rotatable_bonds>
10

> <r_i_docking_score>
-7.85029359545418

> <r_i_glide_ligand_efficiency>
-0.261676453181806

> <r_i_glide_ligand_efficiency_sa>
-0.813089580447395

> <r_i_glide_ligand_efficiency_ln>
-1.78367224068679

> <r_i_glide_gscore>
-7.85029359545418

> <r_i_glide_lipo>
-4.12005582065755

> <r_i_glide_hbond>
-0.608

> <r_i_glide_metal>
0

> <r_i_glide_rewards>
-0.550214244539227

> <r_i_glide_evdw>
-39.507640838623

> <r_i_glide_ecoul>
-10.0247812271118

> <r_i_glide_erotb>
0.907075695740522

> <r_i_glide_esite>
0

> <r_i_glide_emodel>
-64.1699596126944

> <r_i_glide_energy>
-49.5324220657349

> <r_i_glide_einternal>
11.6275854110718

> <i_i_glide_confnum>
16

> <i_i_glide_posenum>
349

> <r_i_glide_eff_state_penalty>
0

> <s_user_duplicate_titles>
CHEMBL213_lig1308,417430

> <s_m_subgroup_title>
dock_pv

> <s_m_subgroupid>
dock_pv

> <b_m_subgroup_collapsed>
1

$$$$
CHEMBL213_lig1470
                    3D
 Schrodinger Suite 2021-1.
 63 66  0  0  1  0            999 V2000
   36.8922    7.5935    2.5339 C   0  0  0  0  0  0
   35.5557    7.4163    2.8771 C   0  0  0  0  0  0
   34.8007    6.3853    2.2960 C   0  0  0  0  0  0
   35.4176    5.5224    1.3799 C   0  0  0  0  0  0
   36.7712    5.6776    1.0562 C   0  0  0  0  0  0
   37.4971    6.7297    1.6264 C   0  0  0  0  0  0
   35.0120    8.2519    3.8097 O   0  0  0  0  0  0
   33.3303    6.1964    2.6586 C   0  0  0  0  0  0
   33.1473    5.8501    4.0189 O   0  0  0  0  0  0
   37.4793    4.6759    0.1439 C   0  0  1  0  0  0
   37.9365    5.2799   -1.2128 C   0  0  0  0  0  0
   38.6154    4.1267    0.7851 O   0  0  0  0  0  0
   36.8421    5.4882   -2.1625 N   0  0  2  0  0  0
   36.4855    4.2517   -2.8532 C   0  0  0  0  0  0
   35.3076    4.4800   -3.8243 C   0  0  0  0  0  0
   33.9315    4.3599   -3.1773 C   0  0  0  0  0  0
   33.5456    5.2592   -2.1842 C   0  0  0  0  0  0
   32.2840    5.1577   -1.6058 C   0  0  0  0  0  0
   31.3885    4.1622   -2.0163 C   0  0  0  0  0  0
   31.7839    3.2541   -3.0009 C   0  0  0  0  0  0
   33.0479    3.3571   -3.5852 C   0  0  0  0  0  0
   30.1091    4.0198   -1.4538 N   0  0  0  0  0  0
   29.4742    5.1250   -0.7383 C   0  0  0  0  0  0
   28.1129    4.7415   -0.1678 C   0  0  0  0  0  0
   27.1683    4.0813   -0.9502 C   0  0  0  0  0  0
   25.9546    3.6679   -0.4152 C   0  0  0  0  0  0
   27.8079    5.0504    1.1622 C   0  0  0  0  0  0
   26.5595    4.6909    1.7220 C   0  0  0  0  0  0
   25.6216    3.9707    0.9205 C   0  0  0  0  0  0
   24.3778    3.5914    1.4750 C   0  0  0  0  0  0
   24.0673    3.9382    2.7847 C   0  0  0  0  0  0
   24.9759    4.6498    3.5655 C   0  0  0  0  0  0
   26.2142    5.0276    3.0525 C   0  0  0  0  0  0
   37.4659    8.3877    2.9886 H   0  0  0  0  0  0
   34.8528    4.7128    0.9384 H   0  0  0  0  0  0
   38.5418    6.8567    1.3843 H   0  0  0  0  0  0
   34.1202    7.9759    4.0504 H   0  0  0  0  0  0
   32.7904    7.1225    2.4635 H   0  0  0  0  0  0
   32.8615    5.4485    2.0172 H   0  0  0  0  0  0
   32.3930    5.2512    4.1056 H   0  0  0  0  0  0
   36.8254    3.8198   -0.0298 H   0  0  0  0  0  0
   38.4206    6.2402   -1.0308 H   0  0  0  0  0  0
   38.6936    4.6524   -1.6869 H   0  0  0  0  0  0
   39.0080    3.4915    0.1636 H   0  0  0  0  0  0
   37.1155    6.1726   -2.8644 H   0  0  0  0  0  0
   37.3375    3.8409   -3.3987 H   0  0  0  0  0  0
   36.1943    3.4940   -2.1263 H   0  0  0  0  0  0
   35.3925    5.4480   -4.3256 H   0  0  0  0  0  0
   35.3844    3.7468   -4.6276 H   0  0  0  0  0  0
   34.2237    6.0309   -1.8471 H   0  0  0  0  0  0
   32.0315    5.8490   -0.8231 H   0  0  0  0  0  0
   31.1119    2.4716   -3.3247 H   0  0  0  0  0  0
   33.3328    2.6547   -4.3534 H   0  0  0  0  0  0
   29.4909    3.3215   -1.8527 H   0  0  0  0  0  0
   30.1211    5.4531    0.0725 H   0  0  0  0  0  0
   29.3488    5.9734   -1.4119 H   0  0  0  0  0  0
   27.3832    3.8508   -1.9842 H   0  0  0  0  0  0
   25.2471    3.1333   -1.0339 H   0  0  0  0  0  0
   28.5246    5.5664    1.7827 H   0  0  0  0  0  0
   23.6633    3.0550    0.8662 H   0  0  0  0  0  0
   23.1027    3.6657    3.1892 H   0  0  0  0  0  0
   24.7091    4.9226    4.5778 H   0  0  0  0  0  0
   26.9109    5.5808    3.6650 H   0  0  0  0  0  0
  1  2  2  0  0  0
  1  6  1  0  0  0
  1 34  1  0  0  0
  2  3  1  0  0  0
  2  7  1  0  0  0
  3  4  2  0  0  0
  3  8  1  0  0  0
  4  5  1  0  0  0
  4 35  1  0  0  0
  5  6  2  0  0  0
  5 10  1  0  0  0
  6 36  1  0  0  0
  7 37  1  0  0  0
  8  9  1  0  0  0
  8 38  1  0  0  0
  8 39  1  0  0  0
  9 40  1  0  0  0
 10 11  1  0  0  0
 10 12  1  0  0  0
 10 41  1  0  0  0
 11 13  1  0  0  0
 11 42  1  0  0  0
 11 43  1  0  0  0
 12 44  1  0  0  0
 13 14  1  0  0  0
 13 45  1  0  0  0
 14 15  1  0  0  0
 14 46  1  0  0  0
 14 47  1  0  0  0
 15 16  1  0  0  0
 15 48  1  0  0  0
 15 49  1  0  0  0
 16 17  2  0  0  0
 16 21  1  0  0  0
 17 18  1  0  0  0
 17 50  1  0  0  0
 18 19  2  0  0  0
 18 51  1  0  0  0
 19 20  1  0  0  0
 19 22  1  0  0  0
 20 21  2  0  0  0
 20 52  1  0  0  0
 21 53  1  0  0  0
 22 23  1  0  0  0
 22 54  1  0  0  0
 23 24  1  0  0  0
 23 55  1  0  0  0
 23 56  1  0  0  0
 24 25  2  0  0  0
 24 27  1  0  0  0
 25 26  1  0  0  0
 25 57  1  0  0  0
 26 29  2  0  0  0
 26 58  1  0  0  0
 27 28  2  0  0  0
 27 59  1  0  0  0
 28 29  1  0  0  0
 28 33  1  0  0  0
 29 30  1  0  0  0
 30 31  2  0  0  0
 30 60  1  0  0  0
 31 32  1  0  0  0
 31 61  1  0  0  0
 32 33  2  0  0  0
 32 62  1  0  0  0
 33 63  1  0  0  0
M  END
> <s_m_entry_id>
3040

> <s_m_entry_name>
dock_pv.132

> <s_m_Source_Path>
/home/csk/Desktop/cluster/DUD-E-result/adrb1

> <s_m_Source_File>
dock_pv.maegz

> <i_m_Source_File_Index>
132

> <chembl_id>
CHEMBL3290973

> <chembl_pref_name>
None

> <i_lp_mmshare_version>
53161

> <i_f3d_flags>
0

> <r_lp_tautomer_probability>
0.999999999997365

> <s_lp_Force_Field>
OPLS_2005

> <r_lp_Energy>
33.228386

> <b_lp_Chiralities_Consistent>
1

> <s_lp_Variant>
CHEMBL213_lig1470-2

> <s_i_glide_gridfile>
glide-grid_2vt4

> <i_i_glide_lignum>
1809

> <i_i_glide_rotatable_bonds>
13

> <r_i_docking_score>
-7.8497224772406

> <r_i_glide_ligand_efficiency>
-0.2378703780982

> <r_i_glide_ligand_efficiency_sa>
-0.762977402949812

> <r_i_glide_ligand_efficiency_ln>
-1.74573763525053

> <r_i_glide_gscore>
-7.8497224772406

> <r_i_glide_lipo>
-2.61052293614897

> <r_i_glide_hbond>
-0.599255669869092

> <r_i_glide_metal>
0

> <r_i_glide_rewards>
-1.08143609171757

> <r_i_glide_evdw>
-44.5078926086426

> <r_i_glide_ecoul>
-15.5798997879028

> <r_i_glide_erotb>
1.02038729041516

> <r_i_glide_esite>
-0.0165154713025639

> <r_i_glide_emodel>
-86.7113260060536

> <r_i_glide_energy>
-60.0877923965454

> <r_i_glide_einternal>
8.42348957061768

> <i_i_glide_confnum>
103

> <i_i_glide_posenum>
174

> <r_i_glide_eff_state_penalty>
0

> <s_user_duplicate_titles>
CHEMBL213_lig1470

> <s_m_subgroup_title>
dock_pv

> <s_m_subgroupid>
dock_pv

> <b_m_subgroup_collapsed>
1

$$$$
CHEMBL213_lig341
                    3D
 Schrodinger Suite 2021-1.
 67 71  0  0  1  0            999 V2000
   35.5479    7.0547    3.4700 S   0  0  0  0  0  0
   28.8148    5.8134    3.1894 N   0  0  0  0  0  0
   29.5376    6.5569    3.9848 C   0  0  0  0  0  0
   27.5208    5.8481    3.4478 C   0  0  0  0  0  0
   28.6130    7.3974    5.1863 S   0  0  0  0  0  0
   35.9439    7.2854    1.7501 N   0  0  0  0  0  0
   27.1841    6.6477    4.5433 C   0  0  0  0  0  0
   26.5975    5.0547    2.5864 C   0  0  0  0  0  0
   33.7961    6.7784    3.6177 C   0  0  0  0  0  0
   36.2079    5.8500    3.9715 O   0  0  0  0  0  0
   35.8088    8.3516    4.1011 O   0  0  0  0  0  0
   24.5258    3.8358    2.3093 C   0  0  0  0  0  0
   25.3533    4.6497    3.0798 C   0  0  0  0  0  0
   31.0251    6.6501    3.8706 C   0  0  0  0  0  0
   24.9473    3.3991    1.0559 C   0  0  0  0  0  0
   32.4394    3.3222   -6.5134 C   0  0  0  0  0  0
   31.0335    1.6755   -7.6092 N   0  0  0  0  0  0
   26.9678    4.6824    1.2836 C   0  0  0  0  0  0
   33.0286    6.3444    2.5393 C   0  0  0  0  0  0
   33.1981    7.0500    4.8453 C   0  0  0  0  0  0
   31.8139    7.0159    4.9649 C   0  0  0  0  0  0
   31.6466    6.2871    2.6677 C   0  0  0  0  0  0
   26.1507    3.8498    0.5237 C   0  0  0  0  0  0
   35.9716    6.3067    0.7441 C   0  0  0  0  0  0
   33.7832    4.0508   -6.4353 C   0  0  1  0  0  0
   23.3235    3.4505    2.7850 F   0  0  0  0  0  0
   24.2077    2.5063    0.3726 F   0  0  0  0  0  0
   34.1302    3.6739   -3.9531 N   0  0  2  0  0  0
   36.1061    4.4901   -1.3766 C   0  0  0  0  0  0
   32.2137    2.3339   -7.4803 C   0  0  0  0  0  0
   35.9023    6.7552   -0.5772 C   0  0  0  0  0  0
   36.0835    4.9361    0.9977 C   0  0  0  0  0  0
   35.9706    5.8527   -1.6357 C   0  0  0  0  0  0
   36.1563    4.0326   -0.0586 C   0  0  0  0  0  0
   33.6118    5.4501   -6.3805 O   0  0  0  0  0  0
   34.7170    3.5621   -5.2923 C   0  0  0  0  0  0
   31.3827    3.6400   -5.6477 C   0  0  0  0  0  0
   30.0332    1.9910   -6.7480 C   0  0  0  0  0  0
   34.8533    2.8966   -2.9490 C   0  0  0  0  0  0
   36.2107    3.4932   -2.5219 C   0  0  0  0  0  0
   30.1658    2.9641   -5.7565 C   0  0  0  0  0  0
   35.9143    8.2427    1.4384 H   0  0  0  0  0  0
   26.2137    6.8494    4.9722 H   0  0  0  0  0  0
   25.0279    4.9405    4.0668 H   0  0  0  0  0  0
   27.9091    5.0046    0.8636 H   0  0  0  0  0  0
   33.4753    6.1071    1.5860 H   0  0  0  0  0  0
   33.7987    7.3635    5.6872 H   0  0  0  0  0  0
   31.3687    7.2715    5.9129 H   0  0  0  0  0  0
   31.0625    5.9732    1.8148 H   0  0  0  0  0  0
   26.4600    3.5286   -0.4609 H   0  0  0  0  0  0
   34.3049    3.8753   -7.3773 H   0  0  0  0  0  0
   33.1538    3.4153   -3.9819 H   0  0  0  0  0  0
   32.9864    2.0585   -8.1838 H   0  0  0  0  0  0
   35.8064    7.8085   -0.7955 H   0  0  0  0  0  0
   36.1241    4.5405    1.9952 H   0  0  0  0  0  0
   35.9339    6.2123   -2.6549 H   0  0  0  0  0  0
   36.2590    2.9771    0.1490 H   0  0  0  0  0  0
   34.4656    5.9034   -6.4150 H   0  0  0  0  0  0
   34.9645    2.5179   -5.4891 H   0  0  0  0  0  0
   35.6541    4.1194   -5.3319 H   0  0  0  0  0  0
   31.5024    4.4120   -4.9011 H   0  0  0  0  0  0
   29.1064    1.4495   -6.8657 H   0  0  0  0  0  0
   34.2082    2.8774   -2.0699 H   0  0  0  0  0  0
   34.9536    1.8500   -3.2264 H   0  0  0  0  0  0
   36.8563    2.6803   -2.1895 H   0  0  0  0  0  0
   36.7522    3.9296   -3.3614 H   0  0  0  0  0  0
   29.3442    3.1940   -5.0933 H   0  0  0  0  0  0
  1  6  1  0  0  0
  1  9  1  0  0  0
  1 10  2  0  0  0
  1 11  2  0  0  0
  2  3  2  0  0  0
  2  4  1  0  0  0
  3 14  1  0  0  0
  3  5  1  0  0  0
  4  8  1  0  0  0
  4  7  2  0  0  0
  5  7  1  0  0  0
  6 24  1  0  0  0
  6 42  1  0  0  0
  7 43  1  0  0  0
  8 13  1  0  0  0
  8 18  2  0  0  0
  9 19  1  0  0  0
  9 20  2  0  0  0
 12 13  2  0  0  0
 12 26  1  0  0  0
 12 15  1  0  0  0
 13 44  1  0  0  0
 14 21  2  0  0  0
 14 22  1  0  0  0
 15 23  2  0  0  0
 15 27  1  0  0  0
 16 25  1  0  0  0
 16 30  2  0  0  0
 16 37  1  0  0  0
 17 30  1  0  0  0
 17 38  2  0  0  0
 18 23  1  0  0  0
 18 45  1  0  0  0
 19 22  2  0  0  0
 19 46  1  0  0  0
 20 21  1  0  0  0
 20 47  1  0  0  0
 21 48  1  0  0  0
 22 49  1  0  0  0
 23 50  1  0  0  0
 24 31  1  0  0  0
 24 32  2  0  0  0
 25 36  1  0  0  0
 25 35  1  0  0  0
 25 51  1  0  0  0
 28 39  1  0  0  0
 28 36  1  0  0  0
 28 52  1  0  0  0
 29 34  2  0  0  0
 29 40  1  0  0  0
 29 33  1  0  0  0
 30 53  1  0  0  0
 31 33  2  0  0  0
 31 54  1  0  0  0
 32 34  1  0  0  0
 32 55  1  0  0  0
 33 56  1  0  0  0
 34 57  1  0  0  0
 35 58  1  0  0  0
 36 59  1  0  0  0
 36 60  1  0  0  0
 37 41  2  0  0  0
 37 61  1  0  0  0
 38 41  1  0  0  0
 38 62  1  0  0  0
 39 40  1  0  0  0
 39 63  1  0  0  0
 39 64  1  0  0  0
 40 65  1  0  0  0
 40 66  1  0  0  0
 41 67  1  0  0  0
M  END
> <s_m_entry_id>
3041

> <s_m_entry_name>
dock_pv.133

> <s_m_Source_Path>
/home/csk/Desktop/cluster/DUD-E-result/adrb1

> <s_m_Source_File>
dock_pv.maegz

> <i_m_Source_File_Index>
133

> <chembl_id>
CHEMBL293994

> <chembl_pref_name>
None

> <i_lp_mmshare_version>
53161

> <i_f3d_flags>
0

> <r_lp_tautomer_probability>
1

> <s_lp_Force_Field>
OPLS_2005

> <r_lp_Energy>
29.693901

> <b_lp_Chiralities_Consistent>
1

> <s_lp_Variant>
CHEMBL213_lig341-1

> <s_i_glide_gridfile>
glide-grid_2vt4

> <i_i_glide_lignum>
402

> <i_i_glide_rotatable_bonds>
12

> <r_i_docking_score>
-7.8482496729278

> <r_i_glide_ligand_efficiency>
-0.191420723729946

> <r_i_glide_ligand_efficiency_sa>
-0.66006023891508

> <r_i_glide_ligand_efficiency_ln>
-1.66503228588913

> <r_i_glide_gscore>
-7.8482496729278

> <r_i_glide_lipo>
-3.81598776227329

> <r_i_glide_hbond>
-0.134388630118344

> <r_i_glide_metal>
0

> <r_i_glide_rewards>
-0.423803650583163

> <r_i_glide_evdw>
-61.5783729553223

> <r_i_glide_ecoul>
-5.38208484649658

> <r_i_glide_erotb>
0.486156248314149

> <r_i_glide_esite>
-0.0739945035265563

> <r_i_glide_emodel>
-92.0015862176298

> <r_i_glide_energy>
-66.9604578018188

> <r_i_glide_einternal>
6.52705001831055

> <i_i_glide_confnum>
21

> <i_i_glide_posenum>
101

> <r_i_glide_eff_state_penalty>
0

> <s_user_duplicate_titles>
CHEMBL213_lig341

> <s_m_subgroup_title>
dock_pv

> <s_m_subgroupid>
dock_pv

> <b_m_subgroup_collapsed>
1

$$$$
CHEMBL213_lig787
                    3D
 Schrodinger Suite 2021-1.
 72 73  0  0  1  0            999 V2000
   26.2695    6.1027    4.6576 C   0  0  0  0  0  0
   27.6556    6.3131    4.7123 C   0  0  0  0  0  0
   28.4771    5.7768    3.7246 C   0  0  0  0  0  0
   27.9285    5.0573    2.6645 C   0  0  0  0  0  0
   26.5419    4.8805    2.5565 C   0  0  0  0  0  0
   25.7282    5.3910    3.5741 C   0  0  0  0  0  0
   28.2344    7.0493    5.7141 O   0  0  0  0  0  0
   25.3604    6.6342    5.7627 C   0  0  0  0  0  0
   24.2080    5.8499    5.9858 O   0  0  0  0  0  0
   25.9565    4.1165    1.3469 C   0  0  2  0  0  0
   25.8929    4.8946   -0.0008 C   0  0  0  0  0  0
   24.6736    3.5622    1.5936 O   0  0  0  0  0  0
   26.9094    5.9338   -0.1238 N   0  0  2  0  0  0
   27.0064    6.4877   -1.4647 C   0  0  0  0  0  0
   27.8838    5.6000   -2.3626 C   0  0  0  0  0  0
   28.3217    6.3366   -3.6414 C   0  0  0  0  0  0
   29.4556    5.6505   -4.4242 C   0  0  0  0  0  0
   30.7750    5.4731   -3.6449 C   0  0  0  0  0  0
   31.9353    5.0431   -4.5607 C   0  0  0  0  0  0
   33.1936    4.5737   -3.8183 C   0  0  0  0  0  0
   33.6893    5.5689   -2.9225 O   0  0  0  0  0  0
   35.0456    5.3203   -2.5589 C   0  0  0  0  0  0
   35.5006    6.1879   -1.3752 C   0  0  0  0  0  0
   34.7861    5.8687   -0.0425 C   0  0  0  0  0  0
   35.4189    6.4566    1.2236 C   0  0  0  0  0  0
   36.6049    7.2049    1.2014 C   0  0  0  0  0  0
   37.1575    7.6911    2.3852 C   0  0  0  0  0  0
   36.5397    7.4341    3.6072 C   0  0  0  0  0  0
   35.3561    6.6920    3.6447 C   0  0  0  0  0  0
   34.7977    6.2123    2.4547 C   0  0  0  0  0  0
   34.5577    6.3528    5.2030 S   0  0  0  0  0  0
   34.2075    4.6502    5.1845 N   0  0  0  0  0  0
   35.5449    6.5850    6.2648 O   0  0  0  0  0  0
   33.2696    7.0478    5.1916 O   0  0  0  0  0  0
   29.5475    5.9243    3.7748 H   0  0  0  0  0  0
   28.5904    4.6590    1.9129 H   0  0  0  0  0  0
   24.6659    5.2261    3.5109 H   0  0  0  0  0  0
   27.6041    7.5688    6.2306 H   0  0  0  0  0  0
   25.8947    6.6497    6.7123 H   0  0  0  0  0  0
   25.0678    7.6647    5.5480 H   0  0  0  0  0  0
   23.6556    5.8815    5.2027 H   0  0  0  0  0  0
   26.6084    3.2580    1.1848 H   0  0  0  0  0  0
   25.9650    4.1789   -0.8221 H   0  0  0  0  0  0
   24.9271    5.3865   -0.1063 H   0  0  0  0  0  0
   24.2732    3.3209    0.7526 H   0  0  0  0  0  0
   27.8112    5.5754    0.1527 H   0  0  0  0  0  0
   26.0280    6.6880   -1.9079 H   0  0  0  0  0  0
   27.5042    7.4501   -1.3550 H   0  0  0  0  0  0
   28.7625    5.2902   -1.7965 H   0  0  0  0  0  0
   27.3535    4.6810   -2.6313 H   0  0  0  0  0  0
   27.4550    6.4444   -4.2965 H   0  0  0  0  0  0
   28.6263    7.3550   -3.4025 H   0  0  0  0  0  0
   29.1154    4.6781   -4.7877 H   0  0  0  0  0  0
   29.6605    6.2484   -5.3137 H   0  0  0  0  0  0
   31.0357    6.4074   -3.1449 H   0  0  0  0  0  0
   30.6427    4.7243   -2.8642 H   0  0  0  0  0  0
   31.6018    4.2273   -5.2047 H   0  0  0  0  0  0
   32.1974    5.8541   -5.2387 H   0  0  0  0  0  0
   32.9814    3.6612   -3.2593 H   0  0  0  0  0  0
   33.9434    4.3170   -4.5705 H   0  0  0  0  0  0
   35.1913    4.2695   -2.2996 H   0  0  0  0  0  0
   35.6832    5.5258   -3.4213 H   0  0  0  0  0  0
   36.5699    6.0014   -1.2712 H   0  0  0  0  0  0
   35.3878    7.2443   -1.6156 H   0  0  0  0  0  0
   33.7486    6.2060   -0.1040 H   0  0  0  0  0  0
   34.7483    4.7867    0.0938 H   0  0  0  0  0  0
   37.1147    7.4276    0.2762 H   0  0  0  0  0  0
   38.0714    8.2647    2.3532 H   0  0  0  0  0  0
   36.9806    7.8111    4.5174 H   0  0  0  0  0  0
   33.8796    5.6391    2.4846 H   0  0  0  0  0  0
   34.2173    4.2615    6.1344 H   0  0  0  0  0  0
   33.2843    4.4640    4.7836 H   0  0  0  0  0  0
  1  2  2  0  0  0
  1  6  1  0  0  0
  1  8  1  0  0  0
  2  3  1  0  0  0
  2  7  1  0  0  0
  3  4  2  0  0  0
  3 35  1  0  0  0
  4  5  1  0  0  0
  4 36  1  0  0  0
  5 10  1  0  0  0
  5  6  2  0  0  0
  6 37  1  0  0  0
  7 38  1  0  0  0
  8  9  1  0  0  0
  8 39  1  0  0  0
  8 40  1  0  0  0
  9 41  1  0  0  0
 10 11  1  0  0  0
 10 12  1  0  0  0
 10 42  1  0  0  0
 11 13  1  0  0  0
 11 43  1  0  0  0
 11 44  1  0  0  0
 12 45  1  0  0  0
 13 14  1  0  0  0
 13 46  1  0  0  0
 14 15  1  0  0  0
 14 47  1  0  0  0
 14 48  1  0  0  0
 15 16  1  0  0  0
 15 49  1  0  0  0
 15 50  1  0  0  0
 16 17  1  0  0  0
 16 51  1  0  0  0
 16 52  1  0  0  0
 17 18  1  0  0  0
 17 53  1  0  0  0
 17 54  1  0  0  0
 18 19  1  0  0  0
 18 55  1  0  0  0
 18 56  1  0  0  0
 19 20  1  0  0  0
 19 57  1  0  0  0
 19 58  1  0  0  0
 20 21  1  0  0  0
 20 59  1  0  0  0
 20 60  1  0  0  0
 21 22  1  0  0  0
 22 23  1  0  0  0
 22 61  1  0  0  0
 22 62  1  0  0  0
 23 24  1  0  0  0
 23 63  1  0  0  0
 23 64  1  0  0  0
 24 25  1  0  0  0
 24 65  1  0  0  0
 24 66  1  0  0  0
 25 26  2  0  0  0
 25 30  1  0  0  0
 26 27  1  0  0  0
 26 67  1  0  0  0
 27 28  2  0  0  0
 27 68  1  0  0  0
 28 29  1  0  0  0
 28 69  1  0  0  0
 29 30  2  0  0  0
 29 31  1  0  0  0
 30 70  1  0  0  0
 31 32  1  0  0  0
 31 33  2  0  0  0
 31 34  2  0  0  0
 32 71  1  0  0  0
 32 72  1  0  0  0
M  END
> <s_m_entry_id>
3042

> <s_m_entry_name>
dock_pv.134

> <s_m_Source_Path>
/home/csk/Desktop/cluster/DUD-E-result/adrb1

> <s_m_Source_File>
dock_pv.maegz

> <i_m_Source_File_Index>
134

> <chembl_id>
CHEMBL485847

> <chembl_pref_name>
None

> <i_lp_mmshare_version>
53161

> <i_f3d_flags>
0

> <r_lp_tautomer_probability>
0.999999999997365

> <s_lp_Force_Field>
OPLS_2005

> <r_lp_Energy>
22.367555

> <b_lp_Chiralities_Consistent>
1

> <s_lp_Variant>
CHEMBL213_lig787-1

> <s_i_glide_gridfile>
glide-grid_2vt4

> <i_i_glide_lignum>
895

> <i_i_glide_rotatable_bonds>
20

> <r_i_docking_score>
-7.84593233491148

> <r_i_glide_ligand_efficiency>
-0.230762715732691

> <r_i_glide_ligand_efficiency_sa>
-0.747581616303718

> <r_i_glide_ligand_efficiency_ln>
-1.73338652372964

> <r_i_glide_gscore>
-7.84593233491148

> <r_i_glide_lipo>
-3.3234822860254

> <r_i_glide_hbond>
-0.843550838350021

> <r_i_glide_metal>
0

> <r_i_glide_rewards>
-0.0471726592736006

> <r_i_glide_evdw>
-58.0068511962891

> <r_i_glide_ecoul>
-13.7606058120728

> <r_i_glide_erotb>
1.33270688036291

> <r_i_glide_esite>
0

> <r_i_glide_emodel>
-97.5112251762487

> <r_i_glide_energy>
-71.7674570083618

> <r_i_glide_einternal>
13.5998792648315

> <i_i_glide_confnum>
264

> <i_i_glide_posenum>
173

> <r_i_glide_eff_state_penalty>
0

> <s_user_duplicate_titles>
CHEMBL213_lig787

> <s_m_subgroup_title>
dock_pv

> <s_m_subgroupid>
dock_pv

> <b_m_subgroup_collapsed>
1

$$$$
CHEMBL213_lig831
                    3D
 Schrodinger Suite 2021-1.
 63 65  0  0  1  0            999 V2000
   26.3978    4.6561    1.1726 C   0  0  0  0  0  0
   25.2709    3.8497    1.3195 C   0  0  0  0  0  0
   24.5740    3.8487    2.5261 C   0  0  0  0  0  0
   25.0038    4.6502    3.5849 C   0  0  0  0  0  0
   26.1263    5.4779    3.4505 C   0  0  0  0  0  0
   26.8225    5.4622    2.2343 C   0  0  0  0  0  0
   26.5760    6.4316    4.5686 C   0  0  2  0  0  0
   27.8188    5.9133    5.3400 C   0  0  0  0  0  0
   25.5547    6.7399    5.5074 O   0  0  0  0  0  0
   28.6089    6.9745    5.9840 N   0  0  1  0  0  0
   29.4180    7.7957    5.0715 C   0  0  0  0  0  0
   30.6415    7.0841    4.4484 C   0  0  0  0  0  0
   27.2290    4.6968   -0.3401 Cl  0  0  0  0  0  0
   30.1903    6.1958    3.4363 O   0  0  0  0  0  0
   31.0106    5.8492    2.3849 C   0  0  0  0  0  0
   30.3802    5.1793    1.3441 C   0  0  0  0  0  0
   31.0067    5.0500    0.1169 C   0  0  0  0  0  0
   32.3405    5.4499   -0.0495 C   0  0  0  0  0  0
   33.0516    5.8500    1.0884 C   0  0  0  0  0  0
   32.3795    6.1237    2.2841 C   0  0  0  0  0  0
   32.9913    5.2367   -1.3781 C   0  0  0  0  0  0
   34.3162    4.8141   -1.4848 C   0  0  0  0  0  0
   34.8724    4.5178   -2.7250 C   0  0  0  0  0  0
   34.1269    4.6189   -3.9138 C   0  0  0  0  0  0
   32.7773    5.0501   -3.8186 C   0  0  0  0  0  0
   32.2563    5.3750   -2.5604 C   0  0  0  0  0  0
   34.8076    4.2503   -5.2214 C   0  0  0  0  0  0
   34.2098    3.9737   -6.2568 O   0  0  0  0  0  0
   36.1684    4.2492   -5.1707 O   0  0  0  0  0  0
   31.8308    5.2742   -5.0133 C   0  0  0  0  0  0
   30.7378    4.1893   -5.2407 C   0  0  0  0  0  0
   29.6367    4.1868   -4.1607 C   0  0  0  0  0  0
   31.3018    2.7708   -5.4409 C   0  0  0  0  0  0
   24.9274    3.2415    0.4942 H   0  0  0  0  0  0
   23.6941    3.2314    2.6368 H   0  0  0  0  0  0
   24.4364    4.6494    4.5040 H   0  0  0  0  0  0
   27.6733    6.1132    2.1010 H   0  0  0  0  0  0
   26.8032    7.3657    4.0575 H   0  0  0  0  0  0
   28.4568    5.3126    4.6940 H   0  0  0  0  0  0
   27.4837    5.2129    6.1068 H   0  0  0  0  0  0
   25.9103    7.3486    6.1648 H   0  0  0  0  0  0
   27.9942    7.5791    6.5246 H   0  0  0  0  0  0
   29.7971    8.6498    5.6263 H   0  0  0  0  0  0
   28.7984    8.2463    4.3038 H   0  0  0  0  0  0
   31.2180    6.5439    5.1999 H   0  0  0  0  0  0
   31.2934    7.8494    4.0265 H   0  0  0  0  0  0
   29.3547    4.8734    1.4459 H   0  0  0  0  0  0
   30.4497    4.6109   -0.6982 H   0  0  0  0  0  0
   34.1020    6.0896    1.0184 H   0  0  0  0  0  0
   32.9216    6.5652    3.1055 H   0  0  0  0  0  0
   34.9208    4.6748   -0.6010 H   0  0  0  0  0  0
   35.9021    4.1854   -2.7373 H   0  0  0  0  0  0
   31.2367    5.7253   -2.5006 H   0  0  0  0  0  0
   36.5309    4.1151   -6.0470 H   0  0  0  0  0  0
   32.3796    5.4520   -5.9352 H   0  0  0  0  0  0
   31.3317    6.2337   -4.8610 H   0  0  0  0  0  0
   30.2404    4.4586   -6.1742 H   0  0  0  0  0  0
   30.0063    3.8191   -3.2031 H   0  0  0  0  0  0
   28.8052    3.5408   -4.4480 H   0  0  0  0  0  0
   29.2260    5.1850   -4.0041 H   0  0  0  0  0  0
   31.8470    2.4327   -4.5588 H   0  0  0  0  0  0
   30.5038    2.0513   -5.6278 H   0  0  0  0  0  0
   31.9753    2.7257   -6.2955 H   0  0  0  0  0  0
  1  6  1  0  0  0
  1 13  1  0  0  0
  1  2  2  0  0  0
  2  3  1  0  0  0
  2 34  1  0  0  0
  3  4  2  0  0  0
  3 35  1  0  0  0
  4  5  1  0  0  0
  4 36  1  0  0  0
  5  6  2  0  0  0
  5  7  1  0  0  0
  6 37  1  0  0  0
  7  8  1  0  0  0
  7  9  1  0  0  0
  7 38  1  0  0  0
  8 10  1  0  0  0
  8 39  1  0  0  0
  8 40  1  0  0  0
  9 41  1  0  0  0
 10 11  1  0  0  0
 10 42  1  0  0  0
 11 12  1  0  0  0
 11 43  1  0  0  0
 11 44  1  0  0  0
 12 14  1  0  0  0
 12 45  1  0  0  0
 12 46  1  0  0  0
 14 15  1  0  0  0
 15 20  1  0  0  0
 15 16  2  0  0  0
 16 17  1  0  0  0
 16 47  1  0  0  0
 17 18  2  0  0  0
 17 48  1  0  0  0
 18 19  1  0  0  0
 18 21  1  0  0  0
 19 20  2  0  0  0
 19 49  1  0  0  0
 20 50  1  0  0  0
 21 22  2  0  0  0
 21 26  1  0  0  0
 22 23  1  0  0  0
 22 51  1  0  0  0
 23 24  2  0  0  0
 23 52  1  0  0  0
 24 25  1  0  0  0
 24 27  1  0  0  0
 25 26  2  0  0  0
 25 30  1  0  0  0
 26 53  1  0  0  0
 27 28  2  0  0  0
 27 29  1  0  0  0
 29 54  1  0  0  0
 30 31  1  0  0  0
 30 55  1  0  0  0
 30 56  1  0  0  0
 31 32  1  0  0  0
 31 33  1  0  0  0
 31 57  1  0  0  0
 32 58  1  0  0  0
 32 59  1  0  0  0
 32 60  1  0  0  0
 33 61  1  0  0  0
 33 62  1  0  0  0
 33 63  1  0  0  0
M  END
> <s_m_entry_id>
3043

> <s_m_entry_name>
dock_pv.135

> <s_m_Source_Path>
/home/csk/Desktop/cluster/DUD-E-result/adrb1

> <s_m_Source_File>
dock_pv.maegz

> <i_m_Source_File_Index>
135

> <chembl_id>
CHEMBL453575

> <chembl_pref_name>
None

> <i_lp_mmshare_version>
53161

> <i_f3d_flags>
0

> <r_lp_tautomer_probability>
1

> <s_lp_Force_Field>
OPLS_2005

> <r_lp_Energy>
41.096938

> <b_lp_Chiralities_Consistent>
1

> <s_lp_Variant>
CHEMBL213_lig831-1

> <s_i_glide_gridfile>
glide-grid_2vt4

> <i_i_glide_lignum>
939

> <i_i_glide_rotatable_bonds>
13

> <r_i_docking_score>
-7.84218142065231

> <r_i_glide_ligand_efficiency>
-0.237641861231888

> <r_i_glide_ligand_efficiency_sa>
-0.762244427256988

> <r_i_glide_ligand_efficiency_ln>
-1.74406054331079

> <r_i_glide_gscore>
-7.84218142065231

> <r_i_glide_lipo>
-3.65259306998828

> <r_i_glide_hbond>
-0.767466128482559

> <r_i_glide_metal>
0

> <r_i_glide_rewards>
-0.910404523297204

> <r_i_glide_evdw>
-43.0894775390625

> <r_i_glide_ecoul>
-7.69248485565186

> <r_i_glide_erotb>
0.829547612068011

> <r_i_glide_esite>
-0.0329187056513723

> <r_i_glide_emodel>
-66.0992672277037

> <r_i_glide_energy>
-50.7819623947144

> <r_i_glide_einternal>
12.3265542984009

> <i_i_glide_confnum>
7

> <i_i_glide_posenum>
44

> <r_i_glide_eff_state_penalty>
0

> <s_user_duplicate_titles>
CHEMBL213_lig831,448411

> <s_m_subgroup_title>
dock_pv

> <s_m_subgroupid>
dock_pv

> <b_m_subgroup_collapsed>
1

$$$$
CHEMBL213_lig825
                    3D
 Schrodinger Suite 2021-1.
 63 65  0  0  1  0            999 V2000
   31.9984    2.2485   -7.2185 C   0  0  0  0  0  0
   30.7631    1.7373   -6.8178 C   0  0  0  0  0  0
   30.0461    2.3665   -5.7989 C   0  0  0  0  0  0
   30.5603    3.5119   -5.1886 C   0  0  0  0  0  0
   31.7929    4.0388   -5.5985 C   0  0  0  0  0  0
   32.5068    3.3938   -6.6134 C   0  0  0  0  0  0
   32.3807    5.3093   -4.9888 C   0  0  2  0  0  0
   33.5990    5.0498   -4.0507 C   0  0  0  0  0  0
   31.4080    6.1800   -4.4126 O   0  0  0  0  0  0
   33.2497    4.3871   -2.7964 N   0  0  2  0  0  0
   34.3472    4.3944   -1.8261 C   0  0  0  0  0  0
   34.6396    5.8088   -1.2535 C   0  0  0  0  0  0
   34.7217    5.8898    0.2949 C   0  0  0  0  0  0
   33.3916    5.8500    1.0566 C   0  0  0  0  0  0
   32.2081    5.4500    0.4365 C   0  0  0  0  0  0
   31.0102    5.4500    1.1313 C   0  0  0  0  0  0
   30.9390    5.8547    2.4719 C   0  0  0  0  0  0
   32.1372    6.2500    3.0926 C   0  0  0  0  0  0
   33.3480    6.2446    2.3970 C   0  0  0  0  0  0
   29.6090    5.9034    3.1858 C   0  0  0  0  0  0
   29.4095    6.6502    4.3553 C   0  0  0  0  0  0
   28.1703    6.6788    4.9978 C   0  0  0  0  0  0
   27.0607    5.9915    4.4736 C   0  0  0  0  0  0
   27.2230    5.2831    3.2653 C   0  0  0  0  0  0
   28.4932    5.2302    2.6756 C   0  0  0  0  0  0
   25.7244    6.0026    5.1962 C   0  0  0  0  0  0
   24.7225    5.4305    4.7850 O   0  0  0  0  0  0
   25.6955    6.6500    6.3850 O   0  0  0  0  0  0
   26.1281    4.6522    2.6958 O   0  0  0  0  0  0
   26.1855    4.1519    1.3623 C   0  0  0  0  0  0
   25.0078    2.5138   -0.1755 C   0  0  0  0  0  0
   24.8798    3.4123    1.0591 C   0  0  0  0  0  0
   32.9287    1.4509   -8.4333 Cl  0  0  0  0  0  0
   30.3692    0.8471   -7.2838 H   0  0  0  0  0  0
   29.0937    1.9690   -5.4774 H   0  0  0  0  0  0
   29.9952    3.9906   -4.4010 H   0  0  0  0  0  0
   33.4627    3.7810   -6.9367 H   0  0  0  0  0  0
   32.7713    5.8549   -5.8477 H   0  0  0  0  0  0
   34.3266    4.4294   -4.5771 H   0  0  0  0  0  0
   34.1263    5.9752   -3.8331 H   0  0  0  0  0  0
   31.1495    6.8274   -5.0818 H   0  0  0  0  0  0
   32.9348    3.4434   -2.9761 H   0  0  0  0  0  0
   34.0637    3.7316   -1.0114 H   0  0  0  0  0  0
   35.2432    3.9556   -2.2699 H   0  0  0  0  0  0
   35.5851    6.1503   -1.6773 H   0  0  0  0  0  0
   33.9054    6.5406   -1.5957 H   0  0  0  0  0  0
   35.3741    5.1039    0.6779 H   0  0  0  0  0  0
   35.2036    6.8352    0.5493 H   0  0  0  0  0  0
   32.1788    5.1586   -0.5987 H   0  0  0  0  0  0
   30.1379    5.1658    0.5667 H   0  0  0  0  0  0
   32.1503    6.5611    4.1250 H   0  0  0  0  0  0
   34.2500    6.5614    2.8987 H   0  0  0  0  0  0
   30.2182    7.2220    4.7840 H   0  0  0  0  0  0
   28.1013    7.2563    5.9078 H   0  0  0  0  0  0
   28.6161    4.6506    1.7837 H   0  0  0  0  0  0
   26.3977    7.2917    6.5403 H   0  0  0  0  0  0
   26.3350    4.9696    0.6547 H   0  0  0  0  0  0
   27.0059    3.4501    1.2325 H   0  0  0  0  0  0
   24.0478    2.0604   -0.4149 H   0  0  0  0  0  0
   25.3415    3.0767   -1.0481 H   0  0  0  0  0  0
   25.7267    1.7126   -0.0077 H   0  0  0  0  0  0
   24.5955    2.7975    1.9143 H   0  0  0  0  0  0
   24.0733    4.1329    0.9152 H   0  0  0  0  0  0
  1  6  1  0  0  0
  1  2  2  0  0  0
  1 33  1  0  0  0
  2  3  1  0  0  0
  2 34  1  0  0  0
  3  4  2  0  0  0
  3 35  1  0  0  0
  4  5  1  0  0  0
  4 36  1  0  0  0
  5  6  2  0  0  0
  5  7  1  0  0  0
  6 37  1  0  0  0
  7  8  1  0  0  0
  7  9  1  0  0  0
  7 38  1  0  0  0
  8 10  1  0  0  0
  8 39  1  0  0  0
  8 40  1  0  0  0
  9 41  1  0  0  0
 10 11  1  0  0  0
 10 42  1  0  0  0
 11 12  1  0  0  0
 11 43  1  0  0  0
 11 44  1  0  0  0
 12 13  1  0  0  0
 12 45  1  0  0  0
 12 46  1  0  0  0
 13 14  1  0  0  0
 13 47  1  0  0  0
 13 48  1  0  0  0
 14 19  1  0  0  0
 14 15  2  0  0  0
 15 16  1  0  0  0
 15 49  1  0  0  0
 16 17  2  0  0  0
 16 50  1  0  0  0
 17 18  1  0  0  0
 17 20  1  0  0  0
 18 19  2  0  0  0
 18 51  1  0  0  0
 19 52  1  0  0  0
 20 21  2  0  0  0
 20 25  1  0  0  0
 21 22  1  0  0  0
 21 53  1  0  0  0
 22 23  2  0  0  0
 22 54  1  0  0  0
 23 24  1  0  0  0
 23 26  1  0  0  0
 24 25  2  0  0  0
 24 29  1  0  0  0
 25 55  1  0  0  0
 26 27  2  0  0  0
 26 28  1  0  0  0
 28 56  1  0  0  0
 29 30  1  0  0  0
 30 32  1  0  0  0
 30 57  1  0  0  0
 30 58  1  0  0  0
 31 32  1  0  0  0
 31 59  1  0  0  0
 31 60  1  0  0  0
 31 61  1  0  0  0
 32 62  1  0  0  0
 32 63  1  0  0  0
M  END
> <s_m_entry_id>
3044

> <s_m_entry_name>
dock_pv.136

> <s_m_Source_Path>
/home/csk/Desktop/cluster/DUD-E-result/adrb1

> <s_m_Source_File>
dock_pv.maegz

> <i_m_Source_File_Index>
136

> <chembl_id>
CHEMBL459863

> <chembl_pref_name>
None

> <i_lp_mmshare_version>
53161

> <i_f3d_flags>
0

> <r_lp_tautomer_probability>
1

> <s_lp_Force_Field>
OPLS_2005

> <r_lp_Energy>
37.147704

> <b_lp_Chiralities_Consistent>
1

> <s_lp_Variant>
CHEMBL213_lig825-1

> <s_i_glide_gridfile>
glide-grid_2vt4

> <i_i_glide_lignum>
933

> <i_i_glide_rotatable_bonds>
14

> <r_i_docking_score>
-7.83975795158738

> <r_i_glide_ligand_efficiency>
-0.237568422775375

> <r_i_glide_ligand_efficiency_sa>
-0.762008870886855

> <r_i_glide_ligand_efficiency_ln>
-1.7435215763388

> <r_i_glide_gscore>
-7.83975795158738

> <r_i_glide_lipo>
-4.17896435022413

> <r_i_glide_hbond>
-0.0724177423426444

> <r_i_glide_metal>
0

> <r_i_glide_rewards>
-0.9142004237126

> <r_i_glide_evdw>
-42.5883522033691

> <r_i_glide_ecoul>
-9.77651596069336

> <r_i_glide_erotb>
0.921719568964457

> <r_i_glide_esite>
0

> <r_i_glide_emodel>
-71.4051753821897

> <r_i_glide_energy>
-52.3648681640625

> <r_i_glide_einternal>
17.9024276733398

> <i_i_glide_confnum>
71

> <i_i_glide_posenum>
61

> <r_i_glide_eff_state_penalty>
0

> <s_user_duplicate_titles>
CHEMBL213_lig825,448581

> <s_m_subgroup_title>
dock_pv

> <s_m_subgroupid>
dock_pv

> <b_m_subgroup_collapsed>
1

$$$$
CHEMBL213_lig547
                    3D
 Schrodinger Suite 2021-1.
 81 85  0  0  1  0            999 V2000
   34.9614    6.4364    2.7389 S   0  0  0  0  0  0
   28.9952    5.4511    2.6086 N   0  0  0  0  0  0
   34.0338    3.2353   -7.2822 S   0  0  0  0  0  0
   26.9749    4.8508    1.6676 C   0  0  0  0  0  0
   28.3126    5.0500    1.4739 C   0  0  0  0  0  0
   35.6193    5.9249    1.1691 N   0  0  3  0  0  0
   28.0171    5.6356    3.5986 C   0  0  0  0  0  0
   26.7468    5.2866    3.0169 C   0  0  0  0  0  0
   31.3359    2.9928   -6.4002 C   0  0  0  0  0  0
   32.3104    2.8229   -7.4063 N   0  0  0  0  0  0
   33.1723    6.2602    2.6222 C   0  0  0  0  0  0
   30.3928    5.7999    2.6074 C   0  0  0  0  0  0
   31.5740    3.7644   -5.2514 C   0  0  0  0  0  0
   35.2062    7.8744    2.9124 O   0  0  0  0  0  0
   35.4055    5.4684    3.7508 O   0  0  0  0  0  0
   25.9955    4.3406    0.6176 C   0  0  0  0  0  0
   30.6079    3.8983   -4.2416 C   0  0  0  0  0  0
   25.0994    3.1738    1.0565 C   0  0  0  0  0  0
   34.4641    3.0498   -5.8942 O   0  0  0  0  0  0
   34.6873    2.5151   -8.3778 O   0  0  0  0  0  0
   30.0819    2.3676   -6.5383 C   0  0  0  0  0  0
   35.8243    6.8889    0.0821 C   0  0  0  0  0  0
   36.1473    4.5646    0.9340 C   0  0  0  0  0  0
   29.3540    3.3117   -4.4397 C   0  0  0  0  0  0
   24.8683    2.8639    2.2217 O   0  0  0  0  0  0
   32.3590    6.8415    3.5937 C   0  0  0  0  0  0
   32.5825    5.5615    1.5720 C   0  0  0  0  0  0
   31.2182    5.3002    1.5873 C   0  0  0  0  0  0
   30.9765    6.6500    3.5635 C   0  0  0  0  0  0
   29.0965    2.5442   -5.5713 C   0  0  0  0  0  0
   33.2806    4.0328   -2.6050 N   0  0  1  0  0  0
   30.8675    4.6762   -2.9379 C   0  0  1  0  0  0
   34.0462    5.0621   -7.6964 C   0  0  0  0  0  0
   24.5946    2.5146   -0.0153 O   0  0  0  0  0  0
   35.1114    6.4043   -1.1829 C   0  0  0  0  0  0
   35.6046    3.9602   -0.3841 C   0  0  0  0  0  0
   29.7772    1.5712   -7.6150 O   0  0  0  0  0  0
   28.0878    6.0847    4.9314 C   0  0  0  0  0  0
   30.4141    3.9775   -1.7854 O   0  0  0  0  0  0
   35.4545    4.9451   -1.5807 C   0  0  0  0  0  0
   25.5827    5.4163    3.7917 C   0  0  0  0  0  0
   32.3280    5.1454   -2.6703 C   0  0  0  0  0  0
   34.6910    4.3788   -2.8075 C   0  0  0  0  0  0
   26.8994    6.2142    5.6461 C   0  0  0  0  0  0
   25.6708    5.8919    5.0930 C   0  0  0  0  0  0
   28.8387    4.9143    0.5424 H   0  0  0  0  0  0
   32.0305    2.4507   -8.2975 H   0  0  0  0  0  0
   32.5279    4.2504   -5.1272 H   0  0  0  0  0  0
   25.3752    5.1458    0.2428 H   0  0  0  0  0  0
   26.5577    4.0057   -0.2580 H   0  0  0  0  0  0
   35.4292    7.8496    0.3916 H   0  0  0  0  0  0
   36.8963    7.0144   -0.0807 H   0  0  0  0  0  0
   37.2354    4.6389    0.8838 H   0  0  0  0  0  0
   35.9124    3.9255    1.7865 H   0  0  0  0  0  0
   28.5686    3.4317   -3.7075 H   0  0  0  0  0  0
   32.7975    7.4417    4.3772 H   0  0  0  0  0  0
   33.1815    5.1247    0.7881 H   0  0  0  0  0  0
   30.8457    4.6540    0.8097 H   0  0  0  0  0  0
   30.4017    7.1750    4.3019 H   0  0  0  0  0  0
   28.1272    2.0796   -5.6910 H   0  0  0  0  0  0
   33.1605    3.5175   -1.7432 H   0  0  0  0  0  0
   30.2589    5.5794   -3.0045 H   0  0  0  0  0  0
   35.0460    5.4498   -7.5045 H   0  0  0  0  0  0
   33.8078    5.1743   -8.7526 H   0  0  0  0  0  0
   33.3230    5.5841   -7.0721 H   0  0  0  0  0  0
   24.5282    3.0495   -0.8181 H   0  0  0  0  0  0
   34.0478    6.5106   -0.9958 H   0  0  0  0  0  0
   35.3175    7.0624   -2.0150 H   0  0  0  0  0  0
   36.1597    3.0656   -0.6735 H   0  0  0  0  0  0
   34.6081    3.6043   -0.1554 H   0  0  0  0  0  0
   30.5132    1.4555   -8.2160 H   0  0  0  0  0  0
   29.0071    6.3274    5.4283 H   0  0  0  0  0  0
   29.6173    3.4889   -2.0181 H   0  0  0  0  0  0
   36.4900    5.0562   -1.9091 H   0  0  0  0  0  0
   24.6199    5.1534    3.3784 H   0  0  0  0  0  0
   32.3294    5.6980   -1.7321 H   0  0  0  0  0  0
   32.6266    5.8466   -3.4519 H   0  0  0  0  0  0
   34.7828    5.0466   -3.6670 H   0  0  0  0  0  0
   35.1844    3.4481   -3.0935 H   0  0  0  0  0  0
   26.9318    6.5738    6.6657 H   0  0  0  0  0  0
   24.7739    6.0062    5.6854 H   0  0  0  0  0  0
  1  6  1  0  0  0
  1 11  1  0  0  0
  1 14  2  0  0  0
  1 15  2  0  0  0
  2 12  1  0  0  0
  2  5  1  0  0  0
  2  7  1  0  0  0
  3 10  1  0  0  0
  3 19  2  0  0  0
  3 20  2  0  0  0
  3 33  1  0  0  0
  4  5  2  0  0  0
  4 16  1  0  0  0
  4  8  1  0  0  0
  5 46  1  0  0  0
  6 22  1  0  0  0
  6 23  1  0  0  0
  7  8  1  0  0  0
  7 38  2  0  0  0
  8 41  2  0  0  0
  9 13  2  0  0  0
  9 10  1  0  0  0
  9 21  1  0  0  0
 10 47  1  0  0  0
 11 26  2  0  0  0
 11 27  1  0  0  0
 12 28  1  0  0  0
 12 29  2  0  0  0
 13 17  1  0  0  0
 13 48  1  0  0  0
 16 18  1  0  0  0
 16 49  1  0  0  0
 16 50  1  0  0  0
 17 32  1  0  0  0
 17 24  2  0  0  0
 18 25  2  0  0  0
 18 34  1  0  0  0
 21 30  2  0  0  0
 21 37  1  0  0  0
 22 35  1  0  0  0
 22 51  1  0  0  0
 22 52  1  0  0  0
 23 36  1  0  0  0
 23 53  1  0  0  0
 23 54  1  0  0  0
 24 30  1  0  0  0
 24 55  1  0  0  0
 26 29  1  0  0  0
 26 56  1  0  0  0
 27 28  2  0  0  0
 27 57  1  0  0  0
 28 58  1  0  0  0
 29 59  1  0  0  0
 30 60  1  0  0  0
 31 43  1  0  0  0
 31 42  1  0  0  0
 31 61  1  0  0  0
 32 42  1  0  0  0
 32 39  1  0  0  0
 32 62  1  0  0  0
 33 63  1  0  0  0
 33 64  1  0  0  0
 33 65  1  0  0  0
 34 66  1  0  0  0
 35 40  1  0  0  0
 35 67  1  0  0  0
 35 68  1  0  0  0
 36 40  1  0  0  0
 36 69  1  0  0  0
 36 70  1  0  0  0
 37 71  1  0  0  0
 38 44  1  0  0  0
 38 72  1  0  0  0
 39 73  1  0  0  0
 40 43  1  0  0  0
 40 74  1  0  0  0
 41 45  1  0  0  0
 41 75  1  0  0  0
 42 76  1  0  0  0
 42 77  1  0  0  0
 43 78  1  0  0  0
 43 79  1  0  0  0
 44 45  2  0  0  0
 44 80  1  0  0  0
 45 81  1  0  0  0
M  END
> <s_m_entry_id>
3045

> <s_m_entry_name>
dock_pv.137

> <s_m_Source_Path>
/home/csk/Desktop/cluster/DUD-E-result/adrb1

> <s_m_Source_File>
dock_pv.maegz

> <i_m_Source_File_Index>
137

> <chembl_id>
CHEMBL317003

> <chembl_pref_name>
None

> <i_lp_mmshare_version>
53161

> <i_f3d_flags>
0

> <r_lp_tautomer_probability>
1

> <s_lp_Force_Field>
OPLS_2005

> <r_lp_Energy>
16.814521

> <b_lp_Chiralities_Consistent>
1

> <s_lp_Variant>
CHEMBL213_lig547-1

> <s_i_glide_gridfile>
glide-grid_2vt4

> <i_i_glide_lignum>
647

> <i_i_glide_rotatable_bonds>
15

> <r_i_docking_score>
-7.83916647792285

> <r_i_glide_ligand_efficiency>
-0.174203699509397

> <r_i_glide_ligand_efficiency_sa>
-0.619623971616138

> <r_i_glide_ligand_efficiency_ln>
-1.63089596879464

> <r_i_glide_gscore>
-7.83916647792285

> <r_i_glide_lipo>
-3.69703523990508

> <r_i_glide_hbond>
-0.0835668032426509

> <r_i_glide_metal>
0

> <r_i_glide_rewards>
0.0175909516375012

> <r_i_glide_evdw>
-59.7307205200195

> <r_i_glide_ecoul>
-9.1330041885376

> <r_i_glide_erotb>
0.38766974286794

> <r_i_glide_esite>
-0.107338474998939

> <r_i_glide_emodel>
-85.9033716432761

> <r_i_glide_energy>
-68.8637247085571

> <r_i_glide_einternal>
18.4537982940674

> <i_i_glide_confnum>
34

> <i_i_glide_posenum>
146

> <r_i_glide_eff_state_penalty>
0

> <s_user_duplicate_titles>
CHEMBL213_lig547

> <s_m_subgroup_title>
dock_pv

> <s_m_subgroupid>
dock_pv

> <b_m_subgroup_collapsed>
1

$$$$
CHEMBL213_lig199
                    3D
 Schrodinger Suite 2021-1.
 57 59  0  0  1  0            999 V2000
   29.4914    4.8176   -3.9336 S   0  0  0  0  0  0
   30.7778    4.4390   -5.1141 C   0  0  0  0  0  0
   29.9305    3.9375   -2.4766 N   0  0  0  0  0  0
   30.7571    3.2308   -5.8152 C   0  0  0  0  0  0
   31.7657    2.9382   -6.7351 C   0  0  0  0  0  0
   28.2594    4.1880   -4.4137 O   0  0  0  0  0  0
   29.5600    6.2499   -3.6241 O   0  0  0  0  0  0
   32.8118    3.8491   -6.9404 C   0  0  0  0  0  0
   31.8128    5.3481   -5.3280 C   0  0  0  0  0  0
   32.8342    5.0500   -6.2294 C   0  0  0  0  0  0
   30.6080    4.5467   -1.4167 C   0  0  0  0  0  0
   26.7179    5.7616    3.8028 O   0  0  0  0  0  0
   31.6882    1.4503   -7.6123 Cl  0  0  0  0  0  0
   26.1357    5.0089    2.7950 C   0  0  0  0  0  0
   28.6242    7.1391    4.6668 C   0  0  1  0  0  0
   34.0684    3.5301   -8.0832 Cl  0  0  0  0  0  0
   24.8611    3.3994    0.8971 C   0  0  0  0  0  0
   28.0890    6.1175    3.6447 C   0  0  0  0  0  0
   31.0012    6.6631    3.8282 N   0  0  2  0  0  0
   31.9628    5.5307    0.8277 C   0  0  0  0  0  0
   29.9665    4.6149   -0.1843 C   0  0  0  0  0  0
   31.9245    4.9942   -1.5456 C   0  0  0  0  0  0
   24.9982    4.2747    3.1367 C   0  0  0  0  0  0
   26.6083    4.9478    1.4690 C   0  0  0  0  0  0
   24.3665    3.4640    2.1963 C   0  0  0  0  0  0
   25.9695    4.1506    0.5238 C   0  0  0  0  0  0
   30.6468    5.0663    0.9405 C   0  0  0  0  0  0
   32.6062    5.4713   -0.4211 C   0  0  0  0  0  0
   28.6460    6.6501    5.9867 O   0  0  0  0  0  0
   24.2594    2.5803   -0.0146 O   0  0  0  0  0  0
   30.0165    7.6690    4.2454 C   0  0  0  0  0  0
   31.9459    7.1956    2.8425 C   0  0  0  0  0  0
   32.7062    6.1193    2.0395 C   0  0  0  0  0  0
   29.2908    3.1811   -2.2626 H   0  0  0  0  0  0
   29.9552    2.5236   -5.6532 H   0  0  0  0  0  0
   31.8076    6.2911   -4.8036 H   0  0  0  0  0  0
   33.6312    5.7631   -6.3961 H   0  0  0  0  0  0
   27.9380    7.9851    4.6963 H   0  0  0  0  0  0
   28.6936    5.2080    3.6558 H   0  0  0  0  0  0
   28.2255    6.6030    2.6817 H   0  0  0  0  0  0
   30.6726    5.7182    3.6708 H   0  0  0  0  0  0
   28.9545    4.2506   -0.0895 H   0  0  0  0  0  0
   32.4346    4.9353   -2.4950 H   0  0  0  0  0  0
   24.6116    4.3238    4.1435 H   0  0  0  0  0  0
   27.4612    5.5139    1.1331 H   0  0  0  0  0  0
   23.4971    2.8851    2.4702 H   0  0  0  0  0  0
   26.3357    4.1058   -0.4921 H   0  0  0  0  0  0
   30.1410    5.0698    1.8893 H   0  0  0  0  0  0
   33.6260    5.8103   -0.5242 H   0  0  0  0  0  0
   27.7335    6.5432    6.2736 H   0  0  0  0  0  0
   23.8708    3.0496   -0.7780 H   0  0  0  0  0  0
   29.8082    8.2782    3.3730 H   0  0  0  0  0  0
   30.4417    8.3268    5.0047 H   0  0  0  0  0  0
   31.4080    7.7990    2.1127 H   0  0  0  0  0  0
   32.6551    7.8733    3.3164 H   0  0  0  0  0  0
   33.6112    6.6024    1.6683 H   0  0  0  0  0  0
   33.0695    5.3507    2.7134 H   0  0  0  0  0  0
  1  2  1  0  0  0
  1  3  1  0  0  0
  1  6  2  0  0  0
  1  7  2  0  0  0
  2  4  2  0  0  0
  2  9  1  0  0  0
  3 11  1  0  0  0
  3 34  1  0  0  0
  4  5  1  0  0  0
  4 35  1  0  0  0
  5 13  1  0  0  0
  5  8  2  0  0  0
  8 10  1  0  0  0
  8 16  1  0  0  0
  9 10  2  0  0  0
  9 36  1  0  0  0
 10 37  1  0  0  0
 11 21  2  0  0  0
 11 22  1  0  0  0
 12 18  1  0  0  0
 12 14  1  0  0  0
 14 23  1  0  0  0
 14 24  2  0  0  0
 15 31  1  0  0  0
 15 18  1  0  0  0
 15 29  1  0  0  0
 15 38  1  0  0  0
 17 26  2  0  0  0
 17 30  1  0  0  0
 17 25  1  0  0  0
 18 39  1  0  0  0
 18 40  1  0  0  0
 19 32  1  0  0  0
 19 31  1  0  0  0
 19 41  1  0  0  0
 20 28  1  0  0  0
 20 33  1  0  0  0
 20 27  2  0  0  0
 21 27  1  0  0  0
 21 42  1  0  0  0
 22 28  2  0  0  0
 22 43  1  0  0  0
 23 25  2  0  0  0
 23 44  1  0  0  0
 24 26  1  0  0  0
 24 45  1  0  0  0
 25 46  1  0  0  0
 26 47  1  0  0  0
 27 48  1  0  0  0
 28 49  1  0  0  0
 29 50  1  0  0  0
 30 51  1  0  0  0
 31 52  1  0  0  0
 31 53  1  0  0  0
 32 33  1  0  0  0
 32 54  1  0  0  0
 32 55  1  0  0  0
 33 56  1  0  0  0
 33 57  1  0  0  0
M  END
> <s_m_entry_id>
3046

> <s_m_entry_name>
dock_pv.138

> <s_m_Source_Path>
/home/csk/Desktop/cluster/DUD-E-result/adrb1

> <s_m_Source_File>
dock_pv.maegz

> <i_m_Source_File_Index>
138

> <chembl_id>
CHEMBL12945

> <chembl_pref_name>
None

> <i_lp_mmshare_version>
53161

> <i_f3d_flags>
0

> <r_lp_tautomer_probability>
1

> <s_lp_Force_Field>
OPLS_2005

> <r_lp_Energy>
26.898001

> <b_lp_Chiralities_Consistent>
1

> <s_lp_Variant>
CHEMBL213_lig199-1

> <s_i_glide_gridfile>
glide-grid_2vt4

> <i_i_glide_lignum>
234

> <i_i_glide_rotatable_bonds>
13

> <r_i_docking_score>
-7.83305823169099

> <r_i_glide_ligand_efficiency>
-0.237365400960333

> <r_i_glide_ligand_efficiency_sa>
-0.761357671446128

> <r_i_glide_ligand_efficiency_ln>
-1.74203159332314

> <r_i_glide_gscore>
-7.83305823169099

> <r_i_glide_lipo>
-4.01023149869097

> <r_i_glide_hbond>
-0.53003386805905

> <r_i_glide_metal>
0

> <r_i_glide_rewards>
-0.125043167434312

> <r_i_glide_evdw>
-43.0940475463867

> <r_i_glide_ecoul>
-12.0223846435547

> <r_i_glide_erotb>
0.861874085181269

> <r_i_glide_esite>
-0.071563708835391

> <r_i_glide_emodel>
-76.4091644546113

> <r_i_glide_energy>
-55.1164321899414

> <r_i_glide_einternal>
15.3447294235229

> <i_i_glide_confnum>
327

> <i_i_glide_posenum>
339

> <r_i_glide_eff_state_penalty>
0

> <s_user_duplicate_titles>
CHEMBL213_lig199

> <s_m_subgroup_title>
dock_pv

> <s_m_subgroupid>
dock_pv

> <b_m_subgroup_collapsed>
1

$$$$
CHEMBL213_lig1219 
                    3D
 Schrodinger Suite 2021-1.
 53 56  0  0  1  0            999 V2000
   23.9189    3.8703    2.5257 C   0  0  0  0  0  0
   24.5245    4.4988    3.6111 C   0  0  0  0  0  0
   25.9044    4.2501    1.1700 C   0  0  0  0  0  0
   24.5960    3.7616    1.3157 C   0  0  0  0  0  0
   26.5300    4.8492    2.2823 C   0  0  0  0  0  0
   25.8302    4.9819    3.4977 C   0  0  0  0  0  0
   26.4666    5.5834    4.6031 N   0  0  0  0  0  0
   27.7465    6.0000    4.6769 C   0  0  0  0  0  0
   28.4756    5.8500    3.4291 C   0  0  0  0  0  0
   27.9299    5.3384    2.3010 C   0  0  0  0  0  0
   28.2146    6.4541    5.7140 O   0  0  0  0  0  0
   23.8080    4.6500    4.7782 O   0  0  0  0  0  0
   26.6136    4.1375   -0.1838 C   0  0  2  0  0  0
   26.6184    5.4846   -0.9619 C   0  0  0  0  0  0
   26.0893    3.0976   -0.9878 O   0  0  0  0  0  0
   27.4081    5.4868   -2.1976 N   0  0  1  0  0  0
   28.8294    5.2175   -1.9984 C   0  0  0  0  0  0
   29.6034    5.1542   -3.3264 C   0  0  0  0  0  0
   29.2038    3.9677   -4.2391 C   0  0  0  0  0  0
   30.2102    3.5566   -5.3166 C   0  0  0  0  0  0
   31.3442    4.3207   -5.6149 C   0  0  0  0  0  0
   30.8879    1.9042   -6.9641 C   0  0  0  0  0  0
   29.9909    2.3606   -6.0014 C   0  0  0  0  0  0
   32.0516    2.6504   -7.2683 C   0  0  0  0  0  0
   32.2808    3.8819   -6.5832 C   0  0  0  0  0  0
   33.4346    4.6438   -6.9003 C   0  0  0  0  0  0
   34.3333    4.1920   -7.8625 C   0  0  0  0  0  0
   34.1153    2.9879   -8.5244 C   0  0  0  0  0  0
   32.9902    2.2165   -8.2391 C   0  0  0  0  0  0
   22.9118    3.4886    2.6023 H   0  0  0  0  0  0
   24.0833    3.3003    0.4821 H   0  0  0  0  0  0
   25.9487    5.6891    5.4604 H   0  0  0  0  0  0
   29.5040    6.1806    3.4226 H   0  0  0  0  0  0
   28.5456    5.2763    1.4158 H   0  0  0  0  0  0
   22.8568    4.5763    4.6554 H   0  0  0  0  0  0
   27.6371    3.8478    0.0247 H   0  0  0  0  0  0
   26.9792    6.2947   -0.3261 H   0  0  0  0  0  0
   25.5911    5.7535   -1.2151 H   0  0  0  0  0  0
   25.6042    3.4970   -1.7272 H   0  0  0  0  0  0
   26.9812    4.8626   -2.8748 H   0  0  0  0  0  0
   28.9732    4.2588   -1.5017 H   0  0  0  0  0  0
   29.2577    5.9906   -1.3599 H   0  0  0  0  0  0
   30.6543    5.0534   -3.0538 H   0  0  0  0  0  0
   29.5152    6.0992   -3.8652 H   0  0  0  0  0  0
   28.2394    4.1674   -4.7082 H   0  0  0  0  0  0
   29.0569    3.0871   -3.6151 H   0  0  0  0  0  0
   31.5314    5.2606   -5.1187 H   0  0  0  0  0  0
   30.7032    0.9749   -7.4805 H   0  0  0  0  0  0
   29.1151    1.7689   -5.7752 H   0  0  0  0  0  0
   33.6157    5.5840   -6.3976 H   0  0  0  0  0  0
   35.2075    4.7852   -8.0934 H   0  0  0  0  0  0
   34.8220    2.6540   -9.2701 H   0  0  0  0  0  0
   32.8250    1.2873   -8.7635 H   0  0  0  0  0  0
  1  2  2  0  0  0
  1  4  1  0  0  0
  1 30  1  0  0  0
  2  6  1  0  0  0
  2 12  1  0  0  0
  3  5  1  0  0  0
  3  4  2  0  0  0
  3 13  1  0  0  0
  4 31  1  0  0  0
  5  6  2  0  0  0
  5 10  1  0  0  0
  6  7  1  0  0  0
  7  8  1  0  0  0
  7 32  1  0  0  0
  8  9  1  0  0  0
  8 11  2  0  0  0
  9 10  2  0  0  0
  9 33  1  0  0  0
 10 34  1  0  0  0
 12 35  1  0  0  0
 13 14  1  0  0  0
 13 15  1  0  0  0
 13 36  1  0  0  0
 14 16  1  0  0  0
 14 37  1  0  0  0
 14 38  1  0  0  0
 15 39  1  0  0  0
 16 17  1  0  0  0
 16 40  1  0  0  0
 17 18  1  0  0  0
 17 41  1  0  0  0
 17 42  1  0  0  0
 18 19  1  0  0  0
 18 43  1  0  0  0
 18 44  1  0  0  0
 19 20  1  0  0  0
 19 45  1  0  0  0
 19 46  1  0  0  0
 20 21  2  0  0  0
 20 23  1  0  0  0
 21 25  1  0  0  0
 21 47  1  0  0  0
 22 24  1  0  0  0
 22 23  2  0  0  0
 22 48  1  0  0  0
 23 49  1  0  0  0
 24 25  1  0  0  0
 24 29  2  0  0  0
 25 26  2  0  0  0
 26 27  1  0  0  0
 26 50  1  0  0  0
 27 28  2  0  0  0
 27 51  1  0  0  0
 28 29  1  0  0  0
 28 52  1  0  0  0
 29 53  1  0  0  0
M  END
> <s_m_entry_id>
3047

> <s_m_entry_name>
dock_pv.139

> <s_m_Source_Path>
/home/csk/Desktop/cluster/DUD-E-result/adrb1

> <s_m_Source_File>
dock_pv.maegz

> <i_m_Source_File_Index>
139

> <chembl_id>
CHEMBL4550290

> <chembl_pref_name>
None

> <i_lp_mmshare_version>
53161

> <i_f3d_flags>
0

> <r_lp_tautomer_probability>
1

> <s_lp_Force_Field>
OPLS_2005

> <r_lp_Energy>
34.909744

> <b_lp_Chiralities_Consistent>
1

> <s_lp_Variant>
CHEMBL213_lig1219 -1

> <s_i_glide_gridfile>
glide-grid_2vt4

> <i_i_glide_lignum>
1449

> <i_i_glide_rotatable_bonds>
9

> <r_i_docking_score>
-7.83062239310565

> <r_i_glide_ligand_efficiency>
-0.270021461831229

> <r_i_glide_ligand_efficiency_sa>
-0.829591479549214

> <r_i_glide_ligand_efficiency_ln>
-1.79301396057017

> <r_i_glide_gscore>
-7.83062239310565

> <r_i_glide_lipo>
-3.38381107069625

> <r_i_glide_hbond>
-0.471009302408104

> <r_i_glide_metal>
0

> <r_i_glide_rewards>
-1.87263822507711

> <r_i_glide_evdw>
-40.0017318725586

> <r_i_glide_ecoul>
-5.85197353363037

> <r_i_glide_erotb>
0.7747188287483

> <r_i_glide_esite>
0

> <r_i_glide_emodel>
-64.4888072256099

> <r_i_glide_energy>
-45.853705406189

> <r_i_glide_einternal>
7.83241415023804

> <i_i_glide_confnum>
29

> <i_i_glide_posenum>
44

> <r_i_glide_eff_state_penalty>
0

> <s_user_duplicate_titles>
CHEMBL213_lig1219 

> <s_m_subgroup_title>
dock_pv

> <s_m_subgroupid>
dock_pv

> <b_m_subgroup_collapsed>
1

$$$$
CHEMBL213_lig425
                    3D
 Schrodinger Suite 2021-1.
 65 67  0  0  1  0            999 V2000
   29.1758    6.1171   -3.3993 C   0  0  0  0  0  0
   28.3322    5.1286   -3.8784 C   0  0  0  0  0  0
   31.0658    4.5890   -3.4659 C   0  0  0  0  0  0
   30.5240    5.8500   -3.1982 C   0  0  0  0  0  0
   30.2149    3.6173   -4.0194 C   0  0  0  0  0  0
   28.8615    3.8817   -4.2380 C   0  0  0  0  0  0
   28.2081    2.8274   -4.8641 N   0  0  0  0  0  0
   28.9578    1.7220   -5.2150 C   0  0  0  0  0  0
   30.6269    1.9988   -4.5583 S   0  0  0  0  0  0
   28.6043    0.7178   -5.8262 O   0  0  0  0  0  0
   27.0081    5.4499   -4.0151 O   0  0  0  0  0  0
   32.5555    4.3302   -3.2026 C   0  0  2  0  0  0
   33.1266    5.0947   -1.9703 C   0  0  0  0  0  0
   33.3240    4.6575   -4.3453 O   0  0  0  0  0  0
   34.4509    4.6104   -1.5782 N   0  0  1  0  0  0
   35.1475    5.4652   -0.6172 C   0  0  0  0  0  0
   34.4512    5.5737    0.7559 C   0  0  0  0  0  0
   35.5950    5.8500    2.1446 S   0  0  0  0  0  0
   34.9097    7.2963    3.0101 C   0  0  0  0  0  0
   33.7988    7.0250    4.0436 C   0  0  0  0  0  0
   32.3941    6.8967    3.4324 C   0  0  0  0  0  0
   31.3978    6.6508    4.4745 N   0  0  1  0  0  0
   30.3875    7.7019    4.5563 C   0  0  0  0  0  0
   29.1215    7.2548    5.3201 C   0  0  0  0  0  0
   28.1087    6.4041    4.5458 C   0  0  0  0  0  0
   26.8262    6.2503    5.0763 C   0  0  0  0  0  0
   25.8609    5.5240    4.3845 C   0  0  0  0  0  0
   26.1658    4.9369    3.1546 C   0  0  0  0  0  0
   27.4510    5.0845    2.6261 C   0  0  0  0  0  0
   28.4173    5.8052    3.3191 C   0  0  0  0  0  0
   25.0849    4.1202    2.4436 C   0  0  0  0  0  0
   25.3183    3.8290    0.9469 C   0  0  0  0  0  0
   28.7707    7.0941   -3.1843 H   0  0  0  0  0  0
   31.1373    6.6499   -2.8240 H   0  0  0  0  0  0
   27.2140    2.8353   -5.0582 H   0  0  0  0  0  0
   26.3544    4.7670   -3.7952 H   0  0  0  0  0  0
   32.6721    3.2637   -3.0052 H   0  0  0  0  0  0
   32.4486    4.9784   -1.1238 H   0  0  0  0  0  0
   33.1850    6.1600   -2.1924 H   0  0  0  0  0  0
   33.0987    4.0519   -5.0556 H   0  0  0  0  0  0
   34.4148    3.6592   -1.2366 H   0  0  0  0  0  0
   35.3176    6.4531   -1.0461 H   0  0  0  0  0  0
   36.1387    5.0290   -0.4803 H   0  0  0  0  0  0
   33.9209    4.6501    0.9744 H   0  0  0  0  0  0
   33.6945    6.3538    0.7279 H   0  0  0  0  0  0
   34.6013    8.0533    2.2907 H   0  0  0  0  0  0
   35.7574    7.7365    3.5363 H   0  0  0  0  0  0
   33.8080    7.8327    4.7771 H   0  0  0  0  0  0
   34.0348    6.1159    4.5985 H   0  0  0  0  0  0
   32.3715    6.0606    2.7310 H   0  0  0  0  0  0
   32.1641    7.7862    2.8405 H   0  0  0  0  0  0
   31.0094    5.7119    4.3849 H   0  0  0  0  0  0
   30.0845    7.9840    3.5464 H   0  0  0  0  0  0
   30.7927    8.6020    5.0168 H   0  0  0  0  0  0
   28.6016    8.1657    5.6218 H   0  0  0  0  0  0
   29.3851    6.7569    6.2516 H   0  0  0  0  0  0
   26.5687    6.7079    6.0213 H   0  0  0  0  0  0
   24.8723    5.4209    4.8075 H   0  0  0  0  0  0
   27.7183    4.6457    1.6773 H   0  0  0  0  0  0
   29.3960    5.8980    2.8759 H   0  0  0  0  0  0
   24.1336    4.6465    2.5437 H   0  0  0  0  0  0
   24.9791    3.1739    2.9784 H   0  0  0  0  0  0
   24.4550    3.3217    0.5136 H   0  0  0  0  0  0
   26.1831    3.1829    0.7871 H   0  0  0  0  0  0
   25.4679    4.7480    0.3781 H   0  0  0  0  0  0
  1  4  1  0  0  0
  1  2  2  0  0  0
  1 33  1  0  0  0
  2 11  1  0  0  0
  2  6  1  0  0  0
  3  4  2  0  0  0
  3 12  1  0  0  0
  3  5  1  0  0  0
  4 34  1  0  0  0
  5  9  1  0  0  0
  5  6  2  0  0  0
  6  7  1  0  0  0
  7  8  1  0  0  0
  7 35  1  0  0  0
  8  9  1  0  0  0
  8 10  2  0  0  0
 11 36  1  0  0  0
 12 13  1  0  0  0
 12 14  1  0  0  0
 12 37  1  0  0  0
 13 15  1  0  0  0
 13 38  1  0  0  0
 13 39  1  0  0  0
 14 40  1  0  0  0
 15 16  1  0  0  0
 15 41  1  0  0  0
 16 17  1  0  0  0
 16 42  1  0  0  0
 16 43  1  0  0  0
 17 18  1  0  0  0
 17 44  1  0  0  0
 17 45  1  0  0  0
 18 19  1  0  0  0
 19 20  1  0  0  0
 19 46  1  0  0  0
 19 47  1  0  0  0
 20 21  1  0  0  0
 20 48  1  0  0  0
 20 49  1  0  0  0
 21 22  1  0  0  0
 21 50  1  0  0  0
 21 51  1  0  0  0
 22 23  1  0  0  0
 22 52  1  0  0  0
 23 24  1  0  0  0
 23 53  1  0  0  0
 23 54  1  0  0  0
 24 25  1  0  0  0
 24 55  1  0  0  0
 24 56  1  0  0  0
 25 26  2  0  0  0
 25 30  1  0  0  0
 26 27  1  0  0  0
 26 57  1  0  0  0
 27 28  2  0  0  0
 27 58  1  0  0  0
 28 29  1  0  0  0
 28 31  1  0  0  0
 29 30  2  0  0  0
 29 59  1  0  0  0
 30 60  1  0  0  0
 31 32  1  0  0  0
 31 61  1  0  0  0
 31 62  1  0  0  0
 32 63  1  0  0  0
 32 64  1  0  0  0
 32 65  1  0  0  0
M  END
> <s_m_entry_id>
3048

> <s_m_entry_name>
dock_pv.140

> <s_m_Source_Path>
/home/csk/Desktop/cluster/DUD-E-result/adrb1

> <s_m_Source_File>
dock_pv.maegz

> <i_m_Source_File_Index>
140

> <chembl_id>
CHEMBL1807824

> <chembl_pref_name>
None

> <i_lp_mmshare_version>
53161

> <i_f3d_flags>
0

> <r_lp_tautomer_probability>
1

> <s_lp_Force_Field>
OPLS_2005

> <r_lp_Energy>
21.660861

> <b_lp_Chiralities_Consistent>
1

> <s_lp_Variant>
CHEMBL213_lig425-1

> <s_i_glide_gridfile>
glide-grid_2vt4

> <i_i_glide_lignum>
499

> <i_i_glide_rotatable_bonds>
16

> <r_i_docking_score>
-7.82972992944766

> <r_i_glide_ligand_efficiency>
-0.244679060295239

> <r_i_glide_ligand_efficiency_sa>
-0.776807594517104

> <r_i_glide_ligand_efficiency_ln>
-1.75328996158034

> <r_i_glide_gscore>
-7.82972992944766

> <r_i_glide_lipo>
-3.43880603482464

> <r_i_glide_hbond>
-0.702180170063099

> <r_i_glide_metal>
0

> <r_i_glide_rewards>
-0.906096575616496

> <r_i_glide_evdw>
-49.3856773376465

> <r_i_glide_ecoul>
-9.48104095458984

> <r_i_glide_erotb>
1.16313880395181

> <r_i_glide_esite>
-0.0543459428244272

> <r_i_glide_emodel>
-75.4868210583237

> <r_i_glide_energy>
-58.8667182922363

> <r_i_glide_einternal>
19.5310535430908

> <i_i_glide_confnum>
322

> <i_i_glide_posenum>
196

> <r_i_glide_eff_state_penalty>
0

> <s_user_duplicate_titles>
CHEMBL213_lig425

> <s_m_subgroup_title>
dock_pv

> <s_m_subgroupid>
dock_pv

> <b_m_subgroup_collapsed>
1

$$$$
CHEMBL213_lig600
                    3D
 Schrodinger Suite 2021-1.
 79 82  0  0  1  0            999 V2000
   32.9371    3.7197   -4.8454 C   0  0  0  0  0  0
   33.2944    4.6227   -3.8929 N   0  0  0  0  0  0
   31.7468    3.1232   -4.6263 N   0  0  0  0  0  0
   33.6352    3.4516   -5.8254 O   0  0  0  0  0  0
   34.6619    5.1899   -3.8205 C   0  0  0  0  0  0
   32.3433    5.1236   -2.8790 C   0  0  0  0  0  0
   34.7925    5.0513    0.0448 N   0  0  0  0  0  0
   35.2096    4.9773   -2.3766 C   0  0  0  0  0  0
   32.8900    4.6096   -1.5501 C   0  0  0  0  0  0
   34.2060    5.3686   -1.2587 C   0  0  0  0  0  0
   26.7925    5.6261    3.8928 O   0  0  0  0  0  0
   34.2540    5.4579    1.2865 C   0  0  0  0  0  0
   26.3635    4.9732    2.7527 C   0  0  0  0  0  0
   28.2014    7.1874    5.0942 C   0  0  1  0  0  0
   25.4116    3.4637    0.6063 C   0  0  0  0  0  0
   28.1267    6.1376    3.9694 C   0  0  0  0  0  0
   30.9437    2.3602   -5.5677 C   0  0  0  0  0  0
   30.7191    7.8349    4.7262 N   0  0  2  0  0  0
   33.2913    6.2084    3.8313 C   0  0  0  0  0  0
   32.9260    5.8503    1.4670 C   0  0  0  0  0  0
   35.0982    5.4513    2.3995 C   0  0  0  0  0  0
   27.0441    4.9789    1.5223 C   0  0  0  0  0  0
   25.1730    4.2504    2.8677 C   0  0  0  0  0  0
   24.6989    3.4880    1.8017 C   0  0  0  0  0  0
   26.5644    4.2275    0.4520 C   0  0  0  0  0  0
   32.4545    6.2418    2.7132 C   0  0  0  0  0  0
   34.6227    5.8180    3.6622 C   0  0  0  0  0  0
   28.2080    6.6410    6.3887 O   0  0  0  0  0  0
   25.0072    2.6492   -0.4144 O   0  0  0  0  0  0
   29.3348    8.2202    4.9456 C   0  0  0  0  0  0
   31.2613    6.7115    5.4565 C   0  0  0  0  0  0
   32.7922    6.5664    5.2392 C   0  0  0  0  0  0
   30.0631    1.3130   -4.8524 C   0  0  0  0  0  0
   30.0963    3.2259   -6.5079 C   0  0  0  0  0  0
   29.2306    2.3998   -7.4854 C   0  0  0  0  0  0
   29.1719    0.4957   -5.8048 C   0  0  0  0  0  0
   28.3458    1.3880   -6.7443 C   0  0  0  0  0  0
   31.2802    3.3499   -3.7630 H   0  0  0  0  0  0
   34.6084    6.2498   -4.0299 H   0  0  0  0  0  0
   35.3415    4.7336   -4.5428 H   0  0  0  0  0  0
   32.3599    6.2115   -2.9063 H   0  0  0  0  0  0
   31.2971    4.8778   -3.0594 H   0  0  0  0  0  0
   35.7926    4.9311    0.0348 H   0  0  0  0  0  0
   36.1369    5.5419   -2.2719 H   0  0  0  0  0  0
   35.4986    3.9300   -2.2622 H   0  0  0  0  0  0
   33.0638    3.5314   -1.6140 H   0  0  0  0  0  0
   32.1106    4.7228   -0.8147 H   0  0  0  0  0  0
   34.0378    6.4479   -1.2737 H   0  0  0  0  0  0
   27.2743    7.7605    5.0373 H   0  0  0  0  0  0
   28.8374    5.3226    4.1168 H   0  0  0  0  0  0
   28.4087    6.6494    3.0528 H   0  0  0  0  0  0
   31.6395    1.8422   -6.2254 H   0  0  0  0  0  0
   31.3672    8.6248    4.7747 H   0  0  0  0  0  0
   32.2358    5.9686    0.6599 H   0  0  0  0  0  0
   36.1269    5.1424    2.2899 H   0  0  0  0  0  0
   27.9589    5.5269    1.3736 H   0  0  0  0  0  0
   24.6360    4.2527    3.8050 H   0  0  0  0  0  0
   23.8010    2.8991    1.9140 H   0  0  0  0  0  0
   27.1040    4.2046   -0.4847 H   0  0  0  0  0  0
   31.4229    6.5394    2.7776 H   0  0  0  0  0  0
   35.2844    5.7903    4.5139 H   0  0  0  0  0  0
   27.6886    7.2425    6.9395 H   0  0  0  0  0  0
   24.3363    3.0490   -0.9974 H   0  0  0  0  0  0
   29.1046    8.6526    3.9861 H   0  0  0  0  0  0
   29.2766    8.9907    5.7132 H   0  0  0  0  0  0
   31.0107    6.7458    6.5148 H   0  0  0  0  0  0
   30.7726    5.8502    5.0191 H   0  0  0  0  0  0
   33.3023    7.4711    5.5683 H   0  0  0  0  0  0
   33.1367    5.7745    5.9087 H   0  0  0  0  0  0
   30.6833    0.6528   -4.2530 H   0  0  0  0  0  0
   29.4129    1.8354   -4.1499 H   0  0  0  0  0  0
   29.4374    3.8498   -5.9009 H   0  0  0  0  0  0
   30.7712    3.8837   -7.0457 H   0  0  0  0  0  0
   29.8807    1.8746   -8.1887 H   0  0  0  0  0  0
   28.5918    3.0495   -8.0878 H   0  0  0  0  0  0
   29.8066   -0.1504   -6.4079 H   0  0  0  0  0  0
   28.5165   -0.1570   -5.2246 H   0  0  0  0  0  0
   27.8090    0.7741   -7.4696 H   0  0  0  0  0  0
   27.5847    1.9166   -6.1677 H   0  0  0  0  0  0
  1  2  1  0  0  0
  1  3  1  0  0  0
  1  4  2  0  0  0
  2  5  1  0  0  0
  2  6  1  0  0  0
  3 17  1  0  0  0
  3 38  1  0  0  0
  5  8  1  0  0  0
  5 39  1  0  0  0
  5 40  1  0  0  0
  6  9  1  0  0  0
  6 41  1  0  0  0
  6 42  1  0  0  0
  7 10  1  0  0  0
  7 12  1  0  0  0
  7 43  1  0  0  0
  8 10  1  0  0  0
  8 44  1  0  0  0
  8 45  1  0  0  0
  9 10  1  0  0  0
  9 46  1  0  0  0
  9 47  1  0  0  0
 10 48  1  0  0  0
 11 16  1  0  0  0
 11 13  1  0  0  0
 12 20  2  0  0  0
 12 21  1  0  0  0
 13 22  1  0  0  0
 13 23  2  0  0  0
 14 30  1  0  0  0
 14 16  1  0  0  0
 14 28  1  0  0  0
 14 49  1  0  0  0
 15 24  2  0  0  0
 15 29  1  0  0  0
 15 25  1  0  0  0
 16 50  1  0  0  0
 16 51  1  0  0  0
 17 33  1  0  0  0
 17 34  1  0  0  0
 17 52  1  0  0  0
 18 31  1  0  0  0
 18 30  1  0  0  0
 18 53  1  0  0  0
 19 27  1  0  0  0
 19 32  1  0  0  0
 19 26  2  0  0  0
 20 26  1  0  0  0
 20 54  1  0  0  0
 21 27  2  0  0  0
 21 55  1  0  0  0
 22 25  2  0  0  0
 22 56  1  0  0  0
 23 24  1  0  0  0
 23 57  1  0  0  0
 24 58  1  0  0  0
 25 59  1  0  0  0
 26 60  1  0  0  0
 27 61  1  0  0  0
 28 62  1  0  0  0
 29 63  1  0  0  0
 30 64  1  0  0  0
 30 65  1  0  0  0
 31 32  1  0  0  0
 31 66  1  0  0  0
 31 67  1  0  0  0
 32 68  1  0  0  0
 32 69  1  0  0  0
 33 36  1  0  0  0
 33 70  1  0  0  0
 33 71  1  0  0  0
 34 35  1  0  0  0
 34 72  1  0  0  0
 34 73  1  0  0  0
 35 37  1  0  0  0
 35 74  1  0  0  0
 35 75  1  0  0  0
 36 37  1  0  0  0
 36 76  1  0  0  0
 36 77  1  0  0  0
 37 78  1  0  0  0
 37 79  1  0  0  0
M  END
> <s_m_entry_id>
3049

> <s_m_entry_name>
dock_pv.141

> <s_m_Source_Path>
/home/csk/Desktop/cluster/DUD-E-result/adrb1

> <s_m_Source_File>
dock_pv.maegz

> <i_m_Source_File_Index>
141

> <chembl_id>
CHEMBL104481

> <chembl_pref_name>
None

> <i_lp_mmshare_version>
53161

> <i_f3d_flags>
0

> <r_lp_tautomer_probability>
1

> <s_lp_Force_Field>
OPLS_2005

> <r_lp_Energy>
56.646779

> <b_lp_Chiralities_Consistent>
1

> <s_lp_Variant>
CHEMBL213_lig600-1

> <s_i_glide_gridfile>
glide-grid_2vt4

> <i_i_glide_lignum>
700

> <i_i_glide_rotatable_bonds>
15

> <r_i_docking_score>
-7.82629458352215

> <r_i_glide_ligand_efficiency>
-0.211521475230328

> <r_i_glide_ligand_efficiency_sa>
-0.704836481006519

> <r_i_glide_ligand_efficiency_ln>
-1.69733982078939

> <r_i_glide_gscore>
-7.82629458352215

> <r_i_glide_lipo>
-3.94948676737335

> <r_i_glide_hbond>
-0.628823570861491

> <r_i_glide_metal>
0

> <r_i_glide_rewards>
-0.552700879844239

> <r_i_glide_evdw>
-47.7814331054688

> <r_i_glide_ecoul>
-8.850266456604

> <r_i_glide_erotb>
1.02132825832097

> <r_i_glide_esite>
0

> <r_i_glide_emodel>
-72.4562237491199

> <r_i_glide_energy>
-56.6316995620728

> <r_i_glide_einternal>
11.7955503463745

> <i_i_glide_confnum>
61

> <i_i_glide_posenum>
163

> <r_i_glide_eff_state_penalty>
0

> <s_user_duplicate_titles>
CHEMBL213_lig600,174077

> <s_m_subgroup_title>
dock_pv

> <s_m_subgroupid>
dock_pv

> <b_m_subgroup_collapsed>
1

$$$$
CHEMBL213_lig612
                    3D
 Schrodinger Suite 2021-1.
 79 82  0  0  1  0            999 V2000
   33.0453    3.9917   -6.2716 S   0  0  0  0  0  0
   31.3779    4.1833   -5.6792 N   0  0  3  0  0  0
   36.2722    4.8445   -0.2358 C   0  0  0  0  0  0
   34.0703    4.0218   -4.8033 C   0  0  0  0  0  0
   33.1654    2.6498   -6.8472 O   0  0  0  0  0  0
   33.4005    5.1759   -7.0599 O   0  0  0  0  0  0
   36.0543    7.0387    5.5819 S   0  0  0  0  0  0
   36.5266    4.2327   -1.4086 N   0  0  0  0  0  0
   35.7842    7.3498    3.8835 C   0  0  0  0  0  0
   30.8088    3.1439   -4.7847 C   0  0  0  0  0  0
   30.7204    5.5211   -5.7102 C   0  0  0  0  0  0
   34.5165    6.2605    5.7519 C   0  0  0  0  0  0
   35.1486    5.1579    0.1649 O   0  0  0  0  0  0
   34.5147    6.8854    3.5271 C   0  0  0  0  0  0
   33.8079    6.2714    4.5640 C   0  0  0  0  0  0
   37.3993    5.1367    0.4328 N   0  0  0  0  0  0
   35.0546    3.0566   -4.5791 C   0  0  0  0  0  0
   33.8827    5.0497   -3.8856 C   0  0  0  0  0  0
   28.4928    4.5638   -1.2448 N   0  0  2  0  0  0
   35.6599    4.1634   -2.5134 C   0  0  0  0  0  0
   27.3652    4.7915    1.3662 O   0  0  0  0  0  0
   27.4663    5.2857    2.6429 C   0  0  0  0  0  0
   26.5197    3.4096   -0.3824 C   0  0  1  0  0  0
   27.9377    6.2504    5.1975 C   0  0  0  0  0  0
   26.1526    4.2414    0.8650 C   0  0  0  0  0  0
   34.6724    5.1280   -2.7505 C   0  0  0  0  0  0
   35.8489    3.1271   -3.4329 C   0  0  0  0  0  0
   30.2452    6.0257   -4.3345 C   0  0  0  0  0  0
   30.4674    3.7184   -3.3986 C   0  0  0  0  0  0
   26.3976    5.4357    3.5352 C   0  0  0  0  0  0
   28.7537    5.6487    3.0311 C   0  0  0  0  0  0
   28.9906    6.1577    4.2975 C   0  0  0  0  0  0
   26.6365    5.9173    4.8211 C   0  0  0  0  0  0
   25.4061    2.6529   -0.8149 O   0  0  0  0  0  0
   28.2075    6.6500    6.4724 O   0  0  0  0  0  0
   29.5181    4.9389   -3.5167 C   0  0  0  0  0  0
   27.0975    4.2502   -1.5463 C   0  0  0  0  0  0
   29.0974    5.5235   -2.1526 C   0  0  0  0  0  0
   36.8450    8.0157    3.0197 C   0  0  0  0  0  0
   37.4275    5.8629    1.7033 C   0  0  0  0  0  0
   37.0139    7.3529    1.6315 C   0  0  0  0  0  0
   37.3946    3.7198   -1.4919 H   0  0  0  0  0  0
   29.9392    2.7043   -5.2759 H   0  0  0  0  0  0
   31.5331    2.3353   -4.6813 H   0  0  0  0  0  0
   29.8974    5.4717   -6.4154 H   0  0  0  0  0  0
   31.4188    6.2429   -6.1310 H   0  0  0  0  0  0
   34.2117    5.8414    6.7026 H   0  0  0  0  0  0
   34.1156    6.9717    2.5254 H   0  0  0  0  0  0
   32.8189    5.8495    4.4493 H   0  0  0  0  0  0
   38.2825    4.8275    0.0505 H   0  0  0  0  0  0
   35.2128    2.2556   -5.2899 H   0  0  0  0  0  0
   33.1392    5.8060   -4.0600 H   0  0  0  0  0  0
   29.0087    3.6944   -1.3005 H   0  0  0  0  0  0
   27.2476    2.6503   -0.1001 H   0  0  0  0  0  0
   25.6826    3.5923    1.6066 H   0  0  0  0  0  0
   25.4529    5.0375    0.6094 H   0  0  0  0  0  0
   34.5258    5.9619   -2.0799 H   0  0  0  0  0  0
   36.6082    2.3795   -3.2627 H   0  0  0  0  0  0
   29.6078    6.9031   -4.4565 H   0  0  0  0  0  0
   31.0956    6.4005   -3.7661 H   0  0  0  0  0  0
   31.3759    3.9878   -2.8569 H   0  0  0  0  0  0
   30.0170    2.9428   -2.7845 H   0  0  0  0  0  0
   25.3918    5.1704    3.2494 H   0  0  0  0  0  0
   29.5767    5.5288    2.3420 H   0  0  0  0  0  0
   29.9971    6.4238    4.5917 H   0  0  0  0  0  0
   25.8226    6.0094    5.5268 H   0  0  0  0  0  0
   24.8042    3.2120   -1.3314 H   0  0  0  0  0  0
   27.5324    7.2642    6.7977 H   0  0  0  0  0  0
   28.6306    4.6285   -4.0732 H   0  0  0  0  0  0
   27.0503    3.6823   -2.4778 H   0  0  0  0  0  0
   26.5101    5.1621   -1.6795 H   0  0  0  0  0  0
   28.4896    6.4226   -2.2555 H   0  0  0  0  0  0
   30.0063    5.8504   -1.6484 H   0  0  0  0  0  0
   37.8085    7.9988    3.5268 H   0  0  0  0  0  0
   36.6069    9.0716    2.8886 H   0  0  0  0  0  0
   36.7507    5.3507    2.3852 H   0  0  0  0  0  0
   38.4136    5.7786    2.1624 H   0  0  0  0  0  0
   37.7590    7.9035    1.0554 H   0  0  0  0  0  0
   36.0790    7.4542    1.0764 H   0  0  0  0  0  0
  1  2  1  0  0  0
  1  4  1  0  0  0
  1  5  2  0  0  0
  1  6  2  0  0  0
  2 10  1  0  0  0
  2 11  1  0  0  0
  3  8  1  0  0  0
  3 13  2  0  0  0
  3 16  1  0  0  0
  4 17  2  0  0  0
  4 18  1  0  0  0
  7  9  1  0  0  0
  7 12  1  0  0  0
  8 20  1  0  0  0
  8 42  1  0  0  0
  9 39  1  0  0  0
  9 14  2  0  0  0
 10 29  1  0  0  0
 10 43  1  0  0  0
 10 44  1  0  0  0
 11 28  1  0  0  0
 11 45  1  0  0  0
 11 46  1  0  0  0
 12 15  2  0  0  0
 12 47  1  0  0  0
 14 15  1  0  0  0
 14 48  1  0  0  0
 15 49  1  0  0  0
 16 40  1  0  0  0
 16 50  1  0  0  0
 17 27  1  0  0  0
 17 51  1  0  0  0
 18 26  2  0  0  0
 18 52  1  0  0  0
 19 38  1  0  0  0
 19 37  1  0  0  0
 19 53  1  0  0  0
 20 26  1  0  0  0
 20 27  2  0  0  0
 21 25  1  0  0  0
 21 22  1  0  0  0
 22 30  2  0  0  0
 22 31  1  0  0  0
 23 37  1  0  0  0
 23 25  1  0  0  0
 23 34  1  0  0  0
 23 54  1  0  0  0
 24 32  1  0  0  0
 24 35  1  0  0  0
 24 33  2  0  0  0
 25 55  1  0  0  0
 25 56  1  0  0  0
 26 57  1  0  0  0
 27 58  1  0  0  0
 28 36  1  0  0  0
 28 59  1  0  0  0
 28 60  1  0  0  0
 29 36  1  0  0  0
 29 61  1  0  0  0
 29 62  1  0  0  0
 30 33  1  0  0  0
 30 63  1  0  0  0
 31 32  2  0  0  0
 31 64  1  0  0  0
 32 65  1  0  0  0
 33 66  1  0  0  0
 34 67  1  0  0  0
 35 68  1  0  0  0
 36 38  1  0  0  0
 36 69  1  0  0  0
 37 70  1  0  0  0
 37 71  1  0  0  0
 38 72  1  0  0  0
 38 73  1  0  0  0
 39 41  1  0  0  0
 39 74  1  0  0  0
 39 75  1  0  0  0
 40 41  1  0  0  0
 40 76  1  0  0  0
 40 77  1  0  0  0
 41 78  1  0  0  0
 41 79  1  0  0  0
M  END
> <s_m_entry_id>
3050

> <s_m_entry_name>
dock_pv.142

> <s_m_Source_Path>
/home/csk/Desktop/cluster/DUD-E-result/adrb1

> <s_m_Source_File>
dock_pv.maegz

> <i_m_Source_File_Index>
142

> <chembl_id>
CHEMBL100124

> <chembl_pref_name>
None

> <i_lp_mmshare_version>
53161

> <i_f3d_flags>
0

> <r_lp_tautomer_probability>
1

> <s_lp_Force_Field>
OPLS_2005

> <r_lp_Energy>
28.1937

> <b_lp_Chiralities_Consistent>
1

> <s_lp_Variant>
CHEMBL213_lig612-1

> <s_i_glide_gridfile>
glide-grid_2vt4

> <i_i_glide_lignum>
713

> <i_i_glide_rotatable_bonds>
18

> <r_i_docking_score>
-7.81814029747764

> <r_i_glide_ligand_efficiency>
-0.190686348718967

> <r_i_glide_ligand_efficiency_sa>
-0.657527954344449

> <r_i_glide_ligand_efficiency_ln>
-1.65864448168797

> <r_i_glide_gscore>
-7.81814029747764

> <r_i_glide_lipo>
-2.82281328408323

> <r_i_glide_hbond>
-1.04386287114957

> <r_i_glide_metal>
0

> <r_i_glide_rewards>
0.386381035963306

> <r_i_glide_evdw>
-59.1812744140625

> <r_i_glide_ecoul>
-13.8991394042969

> <r_i_glide_erotb>
0.748678673829607

> <r_i_glide_esite>
-0.0425892206901011

> <r_i_glide_emodel>
-97.9063529200017

> <r_i_glide_energy>
-73.0804138183594

> <r_i_glide_einternal>
13.1387033462524

> <i_i_glide_confnum>
34

> <i_i_glide_posenum>
381

> <r_i_glide_eff_state_penalty>
0

> <s_user_duplicate_titles>
CHEMBL213_lig612

> <s_m_subgroup_title>
dock_pv

> <s_m_subgroupid>
dock_pv

> <b_m_subgroup_collapsed>
1

$$$$
CHEMBL213_lig116
                    3D
 Schrodinger Suite 2021-1.
 67 71  0  0  1  0            999 V2000
   35.3217    6.7879    3.9918 S   0  0  0  0  0  0
   27.3365    5.8499    3.3984 C   0  0  0  0  0  0
   27.0797    6.5074    4.5079 N   0  0  0  0  0  0
   28.6450    5.8500    3.0436 O   0  0  0  0  0  0
   29.2651    6.5530    4.0167 C   0  0  0  0  0  0
   28.2627    6.9616    4.8890 C   0  0  0  0  0  0
   35.9098    7.2083    2.3722 N   0  0  0  0  0  0
   33.5339    6.7077    3.9367 C   0  0  0  0  0  0
   35.8074    5.4502    4.3324 O   0  0  0  0  0  0
   35.6709    7.9287    4.8470 O   0  0  0  0  0  0
   26.4180    5.0300    2.5653 C   0  0  0  0  0  0
   30.7477    6.6520    3.9487 C   0  0  0  0  0  0
   31.5226    3.7212   -5.3916 C   0  0  0  0  0  0
   31.1367    1.9738   -7.0337 N   0  0  0  0  0  0
   32.8434    6.3207    2.7870 C   0  0  0  0  0  0
   32.8337    7.0411    5.0927 C   0  0  0  0  0  0
   31.4429    7.0499    5.0901 C   0  0  0  0  0  0
   31.4520    6.2884    2.7958 C   0  0  0  0  0  0
   35.9217    6.3793    1.2382 C   0  0  0  0  0  0
   25.2532    4.4833    3.1133 C   0  0  0  0  0  0
   26.7712    4.7378    1.2426 C   0  0  0  0  0  0
   32.3082    4.9722   -4.9820 C   0  0  1  0  0  0
   24.8899    3.2603    1.0727 C   0  0  0  0  0  0
   26.0051    3.8515    0.4938 C   0  0  0  0  0  0
   24.4895    3.5899    2.3647 C   0  0  0  0  0  0
   33.6136    3.8899   -3.1205 N   0  0  2  0  0  0
   24.2082    2.3253    0.3841 F   0  0  0  0  0  0
   35.9787    4.8999   -1.1440 C   0  0  0  0  0  0
   31.8033    3.0760   -6.6029 C   0  0  0  0  0  0
   35.7812    4.9868    1.2680 C   0  0  0  0  0  0
   36.0937    7.0172    0.0138 C   0  0  0  0  0  0
   36.1234    6.2867   -1.1715 C   0  0  0  0  0  0
   35.8105    4.2528    0.0824 C   0  0  0  0  0  0
   31.5695    5.8508   -4.1414 O   0  0  0  0  0  0
   33.6991    4.6518   -4.3669 C   0  0  0  0  0  0
   30.5004    3.1876   -4.5927 C   0  0  0  0  0  0
   30.1542    1.4790   -6.2398 C   0  0  0  0  0  0
   34.8527    3.1993   -2.7631 C   0  0  0  0  0  0
   36.0660    4.1063   -2.4463 C   0  0  0  0  0  0
   29.8070    2.0544   -5.0182 C   0  0  0  0  0  0
   28.3809    7.5400    5.7949 H   0  0  0  0  0  0
   36.0447    8.1932    2.2143 H   0  0  0  0  0  0
   33.3608    6.0525    1.8799 H   0  0  0  0  0  0
   33.3704    7.3345    5.9819 H   0  0  0  0  0  0
   30.9123    7.3299    5.9841 H   0  0  0  0  0  0
   30.9288    5.9742    1.9062 H   0  0  0  0  0  0
   24.9671    4.7073    4.1295 H   0  0  0  0  0  0
   27.6625    5.1634    0.8040 H   0  0  0  0  0  0
   32.4870    5.5462   -5.8942 H   0  0  0  0  0  0
   26.2912    3.5973   -0.5159 H   0  0  0  0  0  0
   23.6116    3.1256    2.7848 H   0  0  0  0  0  0
   32.8345    3.2470   -3.1681 H   0  0  0  0  0  0
   32.5774    3.4465   -7.2619 H   0  0  0  0  0  0
   35.6363    4.4479    2.1883 H   0  0  0  0  0  0
   36.2085    8.0869   -0.0171 H   0  0  0  0  0  0
   36.2843    6.7985   -2.1056 H   0  0  0  0  0  0
   35.7145    3.1781    0.1227 H   0  0  0  0  0  0
   30.9872    6.3745   -4.7038 H   0  0  0  0  0  0
   34.2756    4.0897   -5.1043 H   0  0  0  0  0  0
   34.2437    5.5786   -4.1844 H   0  0  0  0  0  0
   30.2388    3.6458   -3.6490 H   0  0  0  0  0  0
   29.6359    0.6017   -6.5961 H   0  0  0  0  0  0
   34.6094    2.6494   -1.8576 H   0  0  0  0  0  0
   35.1121    2.4328   -3.4986 H   0  0  0  0  0  0
   36.9587    3.4821   -2.3787 H   0  0  0  0  0  0
   36.2654    4.7745   -3.2853 H   0  0  0  0  0  0
   29.0133    1.6405   -4.4152 H   0  0  0  0  0  0
  1  7  1  0  0  0
  1  8  1  0  0  0
  1  9  2  0  0  0
  1 10  2  0  0  0
  2  4  1  0  0  0
  2 11  1  0  0  0
  2  3  2  0  0  0
  3  6  1  0  0  0
  4  5  1  0  0  0
  5 12  1  0  0  0
  5  6  2  0  0  0
  6 41  1  0  0  0
  7 19  1  0  0  0
  7 42  1  0  0  0
  8 15  2  0  0  0
  8 16  1  0  0  0
 11 20  2  0  0  0
 11 21  1  0  0  0
 12 17  1  0  0  0
 12 18  2  0  0  0
 13 22  1  0  0  0
 13 29  2  0  0  0
 13 36  1  0  0  0
 14 29  1  0  0  0
 14 37  2  0  0  0
 15 18  1  0  0  0
 15 43  1  0  0  0
 16 17  2  0  0  0
 16 44  1  0  0  0
 17 45  1  0  0  0
 18 46  1  0  0  0
 19 30  1  0  0  0
 19 31  2  0  0  0
 20 25  1  0  0  0
 20 47  1  0  0  0
 21 24  2  0  0  0
 21 48  1  0  0  0
 22 35  1  0  0  0
 22 34  1  0  0  0
 22 49  1  0  0  0
 23 24  1  0  0  0
 23 27  1  0  0  0
 23 25  2  0  0  0
 24 50  1  0  0  0
 25 51  1  0  0  0
 26 38  1  0  0  0
 26 35  1  0  0  0
 26 52  1  0  0  0
 28 32  2  0  0  0
 28 39  1  0  0  0
 28 33  1  0  0  0
 29 53  1  0  0  0
 30 33  2  0  0  0
 30 54  1  0  0  0
 31 32  1  0  0  0
 31 55  1  0  0  0
 32 56  1  0  0  0
 33 57  1  0  0  0
 34 58  1  0  0  0
 35 59  1  0  0  0
 35 60  1  0  0  0
 36 40  2  0  0  0
 36 61  1  0  0  0
 37 40  1  0  0  0
 37 62  1  0  0  0
 38 39  1  0  0  0
 38 63  1  0  0  0
 38 64  1  0  0  0
 39 65  1  0  0  0
 39 66  1  0  0  0
 40 67  1  0  0  0
M  END
> <s_m_entry_id>
3051

> <s_m_entry_name>
dock_pv.143

> <s_m_Source_Path>
/home/csk/Desktop/cluster/DUD-E-result/adrb1

> <s_m_Source_File>
dock_pv.maegz

> <i_m_Source_File_Index>
143

> <chembl_id>
CHEMBL38562

> <chembl_pref_name>
None

> <i_lp_mmshare_version>
53161

> <i_f3d_flags>
0

> <r_lp_tautomer_probability>
1

> <s_lp_Force_Field>
OPLS_2005

> <r_lp_Energy>
22.434257

> <b_lp_Chiralities_Consistent>
1

> <s_lp_Variant>
CHEMBL213_lig116-1

> <s_i_glide_gridfile>
glide-grid_2vt4

> <i_i_glide_lignum>
139

> <i_i_glide_rotatable_bonds>
12

> <r_i_docking_score>
-7.81166301606887

> <r_i_glide_ligand_efficiency>
-0.195291575401722

> <r_i_glide_ligand_efficiency_sa>
-0.667887792229833

> <r_i_glide_ligand_efficiency_ln>
-1.66599783434719

> <r_i_glide_gscore>
-7.81166301606887

> <r_i_glide_lipo>
-3.69251361669089

> <r_i_glide_hbond>
-0.0627902818838311

> <r_i_glide_metal>
0

> <r_i_glide_rewards>
-0.507790142347077

> <r_i_glide_evdw>
-60.055347442627

> <r_i_glide_ecoul>
-6.4577784538269

> <r_i_glide_erotb>
0.587823858453846

> <r_i_glide_esite>
-0.164958693395533

> <r_i_glide_emodel>
-91.6593803022767

> <r_i_glide_energy>
-66.5131258964539

> <r_i_glide_einternal>
8.38518810272217

> <i_i_glide_confnum>
4

> <i_i_glide_posenum>
68

> <r_i_glide_eff_state_penalty>
0

> <s_user_duplicate_titles>
CHEMBL213_lig116

> <s_m_subgroup_title>
dock_pv

> <s_m_subgroupid>
dock_pv

> <b_m_subgroup_collapsed>
1

$$$$
CHEMBL213_lig169
                    3D
 Schrodinger Suite 2021-1.
 67 71  0  0  1  0            999 V2000
   35.3027    6.7890    3.6770 S   0  0  0  0  0  0
   29.3267    6.2475    3.6319 N   0  0  0  0  0  0
   28.7168    5.4503    2.7374 N   0  0  0  0  0  0
   28.5249    6.6949    4.6145 N   0  0  0  0  0  0
   27.4580    5.4505    3.1070 C   0  0  0  0  0  0
   27.3569    6.1995    4.2884 C   0  0  0  0  0  0
   35.9067    7.1130    2.0390 N   0  0  0  0  0  0
   33.5172    6.6852    3.5975 C   0  0  0  0  0  0
   30.7258    6.5026    3.5852 C   0  0  0  0  0  0
   26.3926    4.7692    2.3091 C   0  0  0  0  0  0
   35.8050    5.4808    4.1088 O   0  0  0  0  0  0
   35.6231    7.9920    4.4552 O   0  0  0  0  0  0
   31.6291    3.8177   -5.2781 C   0  0  0  0  0  0
   25.1915    4.3902    2.9174 C   0  0  0  0  0  0
   31.0261    2.2702   -7.0498 N   0  0  0  0  0  0
   32.8561    6.2495    2.4502 C   0  0  0  0  0  0
   32.7865    7.0464    4.7279 C   0  0  0  0  0  0
   31.3969    6.9935    4.7125 C   0  0  0  0  0  0
   31.4682    6.1617    2.4416 C   0  0  0  0  0  0
   35.9500    6.2147    0.9601 C   0  0  0  0  0  0
   32.4735    5.0101   -4.8221 C   0  0  1  0  0  0
   24.1825    3.7807    2.1712 C   0  0  0  0  0  0
   33.7713    3.6540   -3.1527 N   0  0  2  0  0  0
   23.0161    3.4506    2.7719 F   0  0  0  0  0  0
   36.1114    4.5926   -1.3166 C   0  0  0  0  0  0
   31.7240    3.3407   -6.5922 C   0  0  0  0  0  0
   36.0549    6.7805   -0.3097 C   0  0  0  0  0  0
   35.9112    4.8201    1.0842 C   0  0  0  0  0  0
   36.1339    5.9808   -1.4425 C   0  0  0  0  0  0
   36.0028    4.0136   -0.0485 C   0  0  0  0  0  0
   31.8076    5.8436   -3.8839 O   0  0  0  0  0  0
   26.5707    4.5089    0.9419 C   0  0  0  0  0  0
   25.5685    3.8857    0.1994 C   0  0  0  0  0  0
   33.8646    4.5791   -4.2862 C   0  0  0  0  0  0
   30.7714    3.1405   -4.3987 C   0  0  0  0  0  0
   30.2078    1.6305   -6.1767 C   0  0  0  0  0  0
   24.3707    3.5260    0.8120 C   0  0  0  0  0  0
   34.9866    2.8830   -2.9009 C   0  0  0  0  0  0
   36.2336    3.7261   -2.5622 C   0  0  0  0  0  0
   30.0602    2.0261   -4.8476 C   0  0  0  0  0  0
   26.4646    6.3982    4.8618 H   0  0  0  0  0  0
   35.9933    8.0884    1.8044 H   0  0  0  0  0  0
   25.0239    4.5775    3.9661 H   0  0  0  0  0  0
   33.3983    5.9676    1.5593 H   0  0  0  0  0  0
   33.2958    7.3940    5.6138 H   0  0  0  0  0  0
   30.8593    7.2828    5.6020 H   0  0  0  0  0  0
   30.9868    5.7879    1.5502 H   0  0  0  0  0  0
   32.6444    5.6477   -5.6930 H   0  0  0  0  0  0
   32.9746    3.0440   -3.2828 H   0  0  0  0  0  0
   32.3755    3.8215   -7.3086 H   0  0  0  0  0  0
   36.0780    7.8510   -0.4174 H   0  0  0  0  0  0
   35.8153    4.3336    2.0405 H   0  0  0  0  0  0
   36.2276    6.4395   -2.4137 H   0  0  0  0  0  0
   35.9860    2.9398    0.0598 H   0  0  0  0  0  0
   31.0149    6.1837   -4.3114 H   0  0  0  0  0  0
   27.4859    4.7936    0.4404 H   0  0  0  0  0  0
   25.7075    3.6988   -0.8551 H   0  0  0  0  0  0
   34.4099    4.0989   -5.1015 H   0  0  0  0  0  0
   34.4406    5.4583   -3.9950 H   0  0  0  0  0  0
   30.6643    3.4607   -3.3725 H   0  0  0  0  0  0
   29.6612    0.7798   -6.5572 H   0  0  0  0  0  0
   23.5856    3.0575    0.2339 H   0  0  0  0  0  0
   34.7640    2.2402   -2.0492 H   0  0  0  0  0  0
   35.1940    2.2195   -3.7408 H   0  0  0  0  0  0
   37.0754    3.0478   -2.4186 H   0  0  0  0  0  0
   36.5174    4.3394   -3.4188 H   0  0  0  0  0  0
   29.4079    1.4890   -4.1779 H   0  0  0  0  0  0
  1  7  1  0  0  0
  1  8  1  0  0  0
  1 11  2  0  0  0
  1 12  2  0  0  0
  2  9  1  0  0  0
  2  3  1  0  0  0
  2  4  1  0  0  0
  3  5  2  0  0  0
  4  6  2  0  0  0
  5 10  1  0  0  0
  5  6  1  0  0  0
  6 41  1  0  0  0
  7 20  1  0  0  0
  7 42  1  0  0  0
  8 16  2  0  0  0
  8 17  1  0  0  0
  9 18  1  0  0  0
  9 19  2  0  0  0
 10 14  2  0  0  0
 10 32  1  0  0  0
 13 21  1  0  0  0
 13 26  1  0  0  0
 13 35  2  0  0  0
 14 22  1  0  0  0
 14 43  1  0  0  0
 15 26  2  0  0  0
 15 36  1  0  0  0
 16 19  1  0  0  0
 16 44  1  0  0  0
 17 18  2  0  0  0
 17 45  1  0  0  0
 18 46  1  0  0  0
 19 47  1  0  0  0
 20 27  2  0  0  0
 20 28  1  0  0  0
 21 34  1  0  0  0
 21 31  1  0  0  0
 21 48  1  0  0  0
 22 24  1  0  0  0
 22 37  2  0  0  0
 23 38  1  0  0  0
 23 34  1  0  0  0
 23 49  1  0  0  0
 25 30  1  0  0  0
 25 39  1  0  0  0
 25 29  2  0  0  0
 26 50  1  0  0  0
 27 29  1  0  0  0
 27 51  1  0  0  0
 28 30  2  0  0  0
 28 52  1  0  0  0
 29 53  1  0  0  0
 30 54  1  0  0  0
 31 55  1  0  0  0
 32 33  2  0  0  0
 32 56  1  0  0  0
 33 37  1  0  0  0
 33 57  1  0  0  0
 34 58  1  0  0  0
 34 59  1  0  0  0
 35 40  1  0  0  0
 35 60  1  0  0  0
 36 40  2  0  0  0
 36 61  1  0  0  0
 37 62  1  0  0  0
 38 39  1  0  0  0
 38 63  1  0  0  0
 38 64  1  0  0  0
 39 65  1  0  0  0
 39 66  1  0  0  0
 40 67  1  0  0  0
M  END
> <s_m_entry_id>
3052

> <s_m_entry_name>
dock_pv.144

> <s_m_Source_Path>
/home/csk/Desktop/cluster/DUD-E-result/adrb1

> <s_m_Source_File>
dock_pv.maegz

> <i_m_Source_File_Index>
144

> <chembl_id>
CHEMBL66908

> <chembl_pref_name>
None

> <i_lp_mmshare_version>
53161

> <i_f3d_flags>
0

> <r_lp_tautomer_probability>
1

> <s_lp_Force_Field>
OPLS_2005

> <r_lp_Energy>
27.180772

> <b_lp_Chiralities_Consistent>
1

> <s_lp_Variant>
CHEMBL213_lig169-1

> <s_i_glide_gridfile>
glide-grid_2vt4

> <i_i_glide_lignum>
204

> <i_i_glide_rotatable_bonds>
12

> <r_i_docking_score>
-7.80930583106991

> <r_i_glide_ligand_efficiency>
-0.195232645776748

> <r_i_glide_ligand_efficiency_sa>
-0.667686255747576

> <r_i_glide_ligand_efficiency_ln>
-1.66549511615577

> <r_i_glide_gscore>
-7.80930583106991

> <r_i_glide_lipo>
-3.11506455898585

> <r_i_glide_hbond>
-0.228601336510862

> <r_i_glide_metal>
0

> <r_i_glide_rewards>
-0.825021804299615

> <r_i_glide_evdw>
-59.8742141723633

> <r_i_glide_ecoul>
-7.56480312347412

> <r_i_glide_erotb>
0.587813045865701

> <r_i_glide_esite>
-0.1

> <r_i_glide_emodel>
-95.7593351400652

> <r_i_glide_energy>
-67.4390172958374

> <r_i_glide_einternal>
5.60010814666748

> <i_i_glide_confnum>
10

> <i_i_glide_posenum>
281

> <r_i_glide_eff_state_penalty>
0

> <s_user_duplicate_titles>
CHEMBL213_lig169

> <s_m_subgroup_title>
dock_pv

> <s_m_subgroupid>
dock_pv

> <b_m_subgroup_collapsed>
1

$$$$
CHEMBL213_lig342
                    3D
 Schrodinger Suite 2021-1.
 66 70  0  0  1  0            999 V2000
   35.0967    6.8985    2.7867 S   0  0  0  0  0  0
   28.3464    5.4501    2.7853 N   0  0  0  0  0  0
   27.0791    5.3719    3.1543 C   0  0  0  0  0  0
   29.1071    6.1189    3.6174 C   0  0  0  0  0  0
   28.2510    6.7053    5.0171 S   0  0  0  0  0  0
   26.8065    5.9885    4.3783 C   0  0  0  0  0  0
   35.4084    7.0501    1.0437 N   0  0  0  0  0  0
   33.3454    6.6087    3.0142 C   0  0  0  0  0  0
   35.8081    5.7305    3.3128 O   0  0  0  0  0  0
   35.3693    8.2321    3.3347 O   0  0  0  0  0  0
   30.5833    6.3282    3.4025 C   0  0  0  0  0  0
   26.1055    4.6500    2.2789 C   0  0  0  0  0  0
   24.9476    4.2504    2.8767 N   0  0  0  0  0  0
   32.4148    3.5964   -6.7894 C   0  0  0  0  0  0
   31.0626    1.6300   -7.2362 N   0  0  0  0  0  0
   32.5685    5.9887    2.0371 C   0  0  0  0  0  0
   32.7546    7.0495    4.1936 C   0  0  0  0  0  0
   31.3807    6.9438    4.3747 C   0  0  0  0  0  0
   31.1975    5.8494    2.2348 C   0  0  0  0  0  0
   35.4977    6.0164    0.1012 C   0  0  0  0  0  0
   33.6178    4.4735   -7.1612 C   0  0  1  0  0  0
   34.8522    3.8482   -5.0607 N   0  0  2  0  0  0
   35.8123    4.1278   -1.9433 C   0  0  0  0  0  0
   32.1163    2.4398   -7.5214 C   0  0  0  0  0  0
   35.1529    6.3352   -1.2131 C   0  0  0  0  0  0
   35.9801    4.7390    0.3959 C   0  0  0  0  0  0
   35.3081    5.3999   -2.2318 C   0  0  0  0  0  0
   36.1338    3.8023   -0.6229 C   0  0  0  0  0  0
   33.4082    5.8494   -6.9028 O   0  0  0  0  0  0
   24.0397    3.5692    2.1313 C   0  0  0  0  0  0
   34.9506    4.0287   -6.5087 C   0  0  0  0  0  0
   31.5758    3.9190   -5.7124 C   0  0  0  0  0  0
   30.2674    1.9665   -6.1897 C   0  0  0  0  0  0
   26.3724    4.3803    0.9277 C   0  0  0  0  0  0
   36.1575    3.5422   -4.4908 C   0  0  0  0  0  0
   36.0491    3.0708   -3.0253 C   0  0  0  0  0  0
   30.4894    3.0975   -5.4045 C   0  0  0  0  0  0
   24.2432    3.2665    0.7852 C   0  0  0  0  0  0
   25.4290    3.6782    0.1803 C   0  0  0  0  0  0
   25.8641    6.0630    4.9014 H   0  0  0  0  0  0
   35.1789    7.9582    0.6728 H   0  0  0  0  0  0
   33.0124    5.6286    1.1215 H   0  0  0  0  0  0
   33.3597    7.5007    4.9650 H   0  0  0  0  0  0
   30.9575    7.3212    5.2921 H   0  0  0  0  0  0
   30.6159    5.3603    1.4674 H   0  0  0  0  0  0
   33.7390    4.4156   -8.2442 H   0  0  0  0  0  0
   34.1767    3.1314   -4.8334 H   0  0  0  0  0  0
   32.7259    2.1436   -8.3619 H   0  0  0  0  0  0
   34.7901    7.3219   -1.4603 H   0  0  0  0  0  0
   36.2762    4.4574    1.3915 H   0  0  0  0  0  0
   35.0576    5.6841   -3.2429 H   0  0  0  0  0  0
   36.5332    2.8255   -0.3860 H   0  0  0  0  0  0
   34.2648    6.2998   -6.8155 H   0  0  0  0  0  0
   23.1282    3.2743    2.6300 H   0  0  0  0  0  0
   35.2523    3.0800   -6.9550 H   0  0  0  0  0  0
   35.7346    4.7502   -6.7516 H   0  0  0  0  0  0
   31.7655    4.8023   -5.1195 H   0  0  0  0  0  0
   29.4362    1.3089   -5.9810 H   0  0  0  0  0  0
   27.2899    4.7048    0.4587 H   0  0  0  0  0  0
   36.6977    2.7934   -5.0736 H   0  0  0  0  0  0
   36.7572    4.4542   -4.5262 H   0  0  0  0  0  0
   35.3004    2.2832   -2.9273 H   0  0  0  0  0  0
   37.0062    2.6035   -2.7978 H   0  0  0  0  0  0
   29.8348    3.3327   -4.5777 H   0  0  0  0  0  0
   23.5025    2.7368    0.2047 H   0  0  0  0  0  0
   25.6067    3.4659   -0.8645 H   0  0  0  0  0  0
  1  7  1  0  0  0
  1  8  1  0  0  0
  1  9  2  0  0  0
  1 10  2  0  0  0
  2  4  2  0  0  0
  2  3  1  0  0  0
  3 12  1  0  0  0
  3  6  2  0  0  0
  4 11  1  0  0  0
  4  5  1  0  0  0
  5  6  1  0  0  0
  6 40  1  0  0  0
  7 20  1  0  0  0
  7 41  1  0  0  0
  8 16  2  0  0  0
  8 17  1  0  0  0
 11 18  1  0  0  0
 11 19  2  0  0  0
 12 13  1  0  0  0
 12 34  2  0  0  0
 13 30  2  0  0  0
 14 21  1  0  0  0
 14 24  2  0  0  0
 14 32  1  0  0  0
 15 24  1  0  0  0
 15 33  2  0  0  0
 16 19  1  0  0  0
 16 42  1  0  0  0
 17 18  2  0  0  0
 17 43  1  0  0  0
 18 44  1  0  0  0
 19 45  1  0  0  0
 20 25  1  0  0  0
 20 26  2  0  0  0
 21 31  1  0  0  0
 21 29  1  0  0  0
 21 46  1  0  0  0
 22 35  1  0  0  0
 22 31  1  0  0  0
 22 47  1  0  0  0
 23 28  2  0  0  0
 23 36  1  0  0  0
 23 27  1  0  0  0
 24 48  1  0  0  0
 25 27  2  0  0  0
 25 49  1  0  0  0
 26 28  1  0  0  0
 26 50  1  0  0  0
 27 51  1  0  0  0
 28 52  1  0  0  0
 29 53  1  0  0  0
 30 38  1  0  0  0
 30 54  1  0  0  0
 31 55  1  0  0  0
 31 56  1  0  0  0
 32 37  2  0  0  0
 32 57  1  0  0  0
 33 37  1  0  0  0
 33 58  1  0  0  0
 34 39  1  0  0  0
 34 59  1  0  0  0
 35 36  1  0  0  0
 35 60  1  0  0  0
 35 61  1  0  0  0
 36 62  1  0  0  0
 36 63  1  0  0  0
 37 64  1  0  0  0
 38 39  2  0  0  0
 38 65  1  0  0  0
 39 66  1  0  0  0
M  END
> <s_m_entry_id>
3053

> <s_m_entry_name>
dock_pv.145

> <s_m_Source_Path>
/home/csk/Desktop/cluster/DUD-E-result/adrb1

> <s_m_Source_File>
dock_pv.maegz

> <i_m_Source_File_Index>
145

> <chembl_id>
CHEMBL433248

> <chembl_pref_name>
None

> <i_lp_mmshare_version>
53161

> <i_f3d_flags>
0

> <r_lp_tautomer_probability>
1

> <s_lp_Force_Field>
OPLS_2005

> <r_lp_Energy>
29.106818

> <b_lp_Chiralities_Consistent>
1

> <s_lp_Variant>
CHEMBL213_lig342-1

> <s_i_glide_gridfile>
glide-grid_2vt4

> <i_i_glide_lignum>
403

> <i_i_glide_rotatable_bonds>
12

> <r_i_docking_score>
-7.80551057858824

> <r_i_glide_ligand_efficiency>
-0.200141296886878

> <r_i_glide_ligand_efficiency_sa>
-0.67872145539363

> <r_i_glide_ligand_efficiency_ln>
-1.67372304064344

> <r_i_glide_gscore>
-7.80551057858824

> <r_i_glide_lipo>
-3.38359344862137

> <r_i_glide_hbond>
-0.197303120026391

> <r_i_glide_metal>
0

> <r_i_glide_rewards>
-0.482754685781821

> <r_i_glide_evdw>
-62.3092193603516

> <r_i_glide_ecoul>
-7.44864368438721

> <r_i_glide_erotb>
0.590898196517003

> <r_i_glide_esite>
-0.1

> <r_i_glide_emodel>
-98.0622029483829

> <r_i_glide_energy>
-69.7578630447388

> <r_i_glide_einternal>
7.37455558776855

> <i_i_glide_confnum>
14

> <i_i_glide_posenum>
44

> <r_i_glide_eff_state_penalty>
0

> <s_user_duplicate_titles>
CHEMBL213_lig342

> <s_m_subgroup_title>
dock_pv

> <s_m_subgroupid>
dock_pv

> <b_m_subgroup_collapsed>
1

$$$$
CHEMBL213_lig264
                    3D
 Schrodinger Suite 2021-1.
 69 73  0  0  1  0            999 V2000
   35.8576    6.5820    2.8452 S   0  0  0  0  0  0
   28.9738    6.2506    3.5943 N   0  0  0  0  0  0
   29.9714    6.6514    4.3368 C   0  0  0  0  0  0
   27.9348    6.4299    4.3851 C   0  0  0  0  0  0
   28.2079    6.8894    5.5851 N   0  0  0  0  0  0
   29.5903    7.0503    5.5752 O   0  0  0  0  0  0
   36.1684    5.2549    1.6955 N   0  0  0  0  0  0
   34.1232    6.5327    3.2988 C   0  0  0  0  0  0
   36.6079    6.2501    4.0603 O   0  0  0  0  0  0
   36.1135    7.8499    2.1614 O   0  0  0  0  0  0
   31.4189    6.6500    3.9849 C   0  0  0  0  0  0
   25.0080    3.3745    1.9047 C   0  0  0  0  0  0
   25.6495    3.5210    0.6734 C   0  0  0  0  0  0
   29.4588    4.5911   -4.0147 C   0  0  0  0  0  0
   25.2943    4.2500    2.9527 C   0  0  0  0  0  0
   26.2255    5.2799    2.7840 C   0  0  0  0  0  0
   29.4625    7.0074   -4.2167 N   0  0  0  0  0  0
   26.4892    6.2646    3.9263 C   0  0  0  0  0  0
   33.7494    6.8213    4.6133 C   0  0  0  0  0  0
   33.1444    6.2500    2.3485 C   0  0  0  0  0  0
   31.8024    6.3210    2.6838 C   0  0  0  0  0  0
   32.3996    6.8693    4.9566 C   0  0  0  0  0  0
   35.8263    5.2110    0.3358 C   0  0  0  0  0  0
   26.5603    4.5595    0.4864 C   0  0  0  0  0  0
   30.1567    3.2494   -4.2368 C   0  0  1  0  0  0
   24.1376    2.3628    2.1014 F   0  0  0  0  0  0
   26.8423    5.4361    1.5340 C   0  0  0  0  0  0
   25.4079    2.6499   -0.3319 F   0  0  0  0  0  0
   32.3073    3.8931   -3.0276 N   0  0  2  0  0  0
   35.0265    4.8916   -2.3202 C   0  0  0  0  0  0
   30.0473    5.7985   -4.4138 C   0  0  0  0  0  0
   36.0834    4.0151   -0.3386 C   0  0  0  0  0  0
   35.2162    6.2682   -0.3456 C   0  0  0  0  0  0
   35.6971    3.8569   -1.6656 C   0  0  0  0  0  0
   34.7933    6.0988   -1.6584 C   0  0  0  0  0  0
   30.6944    3.1135   -5.5420 O   0  0  0  0  0  0
   31.2161    2.9199   -3.1456 C   0  0  0  0  0  0
   28.2057    4.6506   -3.3917 C   0  0  0  0  0  0
   28.2473    7.0371   -3.6150 C   0  0  0  0  0  0
   33.4430    3.6109   -3.9019 C   0  0  0  0  0  0
   34.5293    4.6973   -3.7482 C   0  0  0  0  0  0
   27.5867    5.8846   -3.1907 C   0  0  0  0  0  0
   36.5167    4.3958    2.0874 H   0  0  0  0  0  0
   24.7888    4.1203    3.8986 H   0  0  0  0  0  0
   25.8513    6.0207    4.7766 H   0  0  0  0  0  0
   26.1271    7.2310    3.5770 H   0  0  0  0  0  0
   34.4972    7.0327    5.3629 H   0  0  0  0  0  0
   33.3933    6.0047    1.3335 H   0  0  0  0  0  0
   31.0638    6.1125    1.9234 H   0  0  0  0  0  0
   32.1196    7.0928    5.9745 H   0  0  0  0  0  0
   27.0451    4.6807   -0.4718 H   0  0  0  0  0  0
   29.3900    2.4757   -4.1831 H   0  0  0  0  0  0
   27.5332    6.2471    1.3659 H   0  0  0  0  0  0
   32.6238    3.9829   -2.0713 H   0  0  0  0  0  0
   31.0140    5.8092   -4.8963 H   0  0  0  0  0  0
   36.5692    3.1897    0.1625 H   0  0  0  0  0  0
   35.0081    7.2112    0.1350 H   0  0  0  0  0  0
   35.8959    2.9230   -2.1715 H   0  0  0  0  0  0
   34.2673    6.9030   -2.1506 H   0  0  0  0  0  0
   31.3693    2.4325   -5.5183 H   0  0  0  0  0  0
   30.6917    2.9197   -2.1886 H   0  0  0  0  0  0
   31.6015    1.9054   -3.2579 H   0  0  0  0  0  0
   27.7001    3.7500   -3.0771 H   0  0  0  0  0  0
   27.8076    8.0145   -3.4890 H   0  0  0  0  0  0
   33.8566    2.6406   -3.6192 H   0  0  0  0  0  0
   33.1307    3.5667   -4.9436 H   0  0  0  0  0  0
   35.3850    4.4554   -4.3788 H   0  0  0  0  0  0
   34.1511    5.6411   -4.1375 H   0  0  0  0  0  0
   26.6096    5.9358   -2.7329 H   0  0  0  0  0  0
  1  7  1  0  0  0
  1  8  1  0  0  0
  1  9  2  0  0  0
  1 10  2  0  0  0
  2  3  2  0  0  0
  2  4  1  0  0  0
  3 11  1  0  0  0
  3  6  1  0  0  0
  4 18  1  0  0  0
  4  5  2  0  0  0
  5  6  1  0  0  0
  7 23  1  0  0  0
  7 43  1  0  0  0
  8 19  1  0  0  0
  8 20  2  0  0  0
 11 21  2  0  0  0
 11 22  1  0  0  0
 12 15  1  0  0  0
 12 26  1  0  0  0
 12 13  2  0  0  0
 13 24  1  0  0  0
 13 28  1  0  0  0
 14 25  1  0  0  0
 14 31  1  0  0  0
 14 38  2  0  0  0
 15 16  2  0  0  0
 15 44  1  0  0  0
 16 18  1  0  0  0
 16 27  1  0  0  0
 17 31  2  0  0  0
 17 39  1  0  0  0
 18 45  1  0  0  0
 18 46  1  0  0  0
 19 22  2  0  0  0
 19 47  1  0  0  0
 20 21  1  0  0  0
 20 48  1  0  0  0
 21 49  1  0  0  0
 22 50  1  0  0  0
 23 32  2  0  0  0
 23 33  1  0  0  0
 24 27  2  0  0  0
 24 51  1  0  0  0
 25 37  1  0  0  0
 25 36  1  0  0  0
 25 52  1  0  0  0
 27 53  1  0  0  0
 29 40  1  0  0  0
 29 37  1  0  0  0
 29 54  1  0  0  0
 30 35  1  0  0  0
 30 41  1  0  0  0
 30 34  2  0  0  0
 31 55  1  0  0  0
 32 34  1  0  0  0
 32 56  1  0  0  0
 33 35  2  0  0  0
 33 57  1  0  0  0
 34 58  1  0  0  0
 35 59  1  0  0  0
 36 60  1  0  0  0
 37 61  1  0  0  0
 37 62  1  0  0  0
 38 42  1  0  0  0
 38 63  1  0  0  0
 39 42  2  0  0  0
 39 64  1  0  0  0
 40 41  1  0  0  0
 40 65  1  0  0  0
 40 66  1  0  0  0
 41 67  1  0  0  0
 41 68  1  0  0  0
 42 69  1  0  0  0
M  END
> <s_m_entry_id>
3055

> <s_m_entry_name>
dock_pv.147

> <s_m_Source_Path>
/home/csk/Desktop/cluster/DUD-E-result/adrb1

> <s_m_Source_File>
dock_pv.maegz

> <i_m_Source_File_Index>
147

> <chembl_id>
CHEMBL28405

> <chembl_pref_name>
None

> <i_lp_mmshare_version>
53161

> <i_f3d_flags>
0

> <r_lp_tautomer_probability>
1

> <s_lp_Force_Field>
OPLS_2005

> <r_lp_Energy>
19.984542

> <b_lp_Chiralities_Consistent>
1

> <s_lp_Variant>
CHEMBL213_lig264-1

> <s_i_glide_gridfile>
glide-grid_2vt4

> <i_i_glide_lignum>
299

> <i_i_glide_rotatable_bonds>
13

> <r_i_docking_score>
-7.79593714974931

> <r_i_glide_ligand_efficiency>
-0.185617551184507

> <r_i_glide_ligand_efficiency_sa>
-0.645211552872059

> <r_i_glide_ligand_efficiency_ln>
-1.64552148585111

> <r_i_glide_gscore>
-7.79593714974931

> <r_i_glide_lipo>
-3.27590140448492

> <r_i_glide_hbond>
0

> <r_i_glide_metal>
0

> <r_i_glide_rewards>
-1.2246638479948

> <r_i_glide_evdw>
-62.563533782959

> <r_i_glide_ecoul>
-4.38949155807495

> <r_i_glide_erotb>
0.548895795224277

> <r_i_glide_esite>
-0.0576672696346797

> <r_i_glide_emodel>
-96.0123138459502

> <r_i_glide_energy>
-66.9530253410339

> <r_i_glide_einternal>
5.73133897781372

> <i_i_glide_confnum>
30

> <i_i_glide_posenum>
225

> <r_i_glide_eff_state_penalty>
0

> <s_user_duplicate_titles>
CHEMBL213_lig264

> <s_m_subgroup_title>
dock_pv

> <s_m_subgroupid>
dock_pv

> <b_m_subgroup_collapsed>
1

$$$$
CHEMBL213_lig180
                    3D
 Schrodinger Suite 2021-1.
 57 59  0  0  1  0            999 V2000
   30.3625    5.0809   -3.9094 S   0  0  0  0  0  0
   30.4652    4.1186   -2.4335 N   0  0  0  0  0  0
   31.5195    4.3563   -5.0646 C   0  0  0  0  0  0
   29.0079    4.8529   -4.4153 O   0  0  0  0  0  0
   30.8518    6.4297   -3.6151 O   0  0  0  0  0  0
   31.0756    3.4400   -6.0210 C   0  0  0  0  0  0
   30.9869    4.6500   -1.2516 C   0  0  0  0  0  0
   26.5165    5.6211    3.8387 O   0  0  0  0  0  0
   31.9673    2.9379   -6.9693 C   0  0  0  0  0  0
   25.9825    4.8512    2.8210 C   0  0  0  0  0  0
   28.3010    7.0466    4.7851 C   0  0  1  0  0  0
   24.7722    3.2241    0.9051 C   0  0  0  0  0  0
   27.9091    5.9198    3.8065 C   0  0  0  0  0  0
   30.7324    6.6556    4.1144 N   0  0  2  0  0  0
   31.4070    1.8503   -8.1800 Cl  0  0  0  0  0  0
   31.9956    5.5946    1.1844 C   0  0  0  0  0  0
   30.1853    4.6501   -0.1110 C   0  0  0  0  0  0
   32.2989    5.1199   -1.1824 C   0  0  0  0  0  0
   24.7516    4.2501    3.0823 C   0  0  0  0  0  0
   26.5873    4.6514    1.5658 C   0  0  0  0  0  0
   24.1502    3.4284    2.1331 C   0  0  0  0  0  0
   25.9767    3.8484    0.6083 C   0  0  0  0  0  0
   30.6915    5.0936    1.1093 C   0  0  0  0  0  0
   32.7978    5.5921    0.0327 C   0  0  0  0  0  0
   28.2181    6.6409    6.1377 O   0  0  0  0  0  0
   24.2081    2.3892   -0.0150 O   0  0  0  0  0  0
   32.8652    4.7376   -5.0418 C   0  0  0  0  0  0
   33.7563    4.2292   -5.9865 C   0  0  0  0  0  0
   29.6971    7.6361    4.4565 C   0  0  0  0  0  0
   33.3060    3.3317   -6.9539 C   0  0  0  0  0  0
   31.7605    7.2049    3.2287 C   0  0  0  0  0  0
   32.5764    6.1116    2.5098 C   0  0  0  0  0  0
   29.6694    3.5035   -2.3328 H   0  0  0  0  0  0
   30.0377    3.1395   -6.0502 H   0  0  0  0  0  0
   27.5689    7.8491    4.6823 H   0  0  0  0  0  0
   28.4856    5.0127    4.0009 H   0  0  0  0  0  0
   28.1970    6.2765    2.8203 H   0  0  0  0  0  0
   30.4266    5.7171    3.8843 H   0  0  0  0  0  0
   29.1749    4.2721   -0.1661 H   0  0  0  0  0  0
   32.9350    5.1074   -2.0532 H   0  0  0  0  0  0
   24.2705    4.4072    4.0357 H   0  0  0  0  0  0
   27.5236    5.1069    1.2945 H   0  0  0  0  0  0
   23.2097    2.9470    2.3549 H   0  0  0  0  0  0
   26.4463    3.6922   -0.3526 H   0  0  0  0  0  0
   30.0679    5.0549    1.9877 H   0  0  0  0  0  0
   33.8124    5.9608    0.0751 H   0  0  0  0  0  0
   27.6442    7.2662    6.6016 H   0  0  0  0  0  0
   23.7912    2.8614   -0.7600 H   0  0  0  0  0  0
   33.2222    5.4492   -4.3132 H   0  0  0  0  0  0
   34.7906    4.5456   -5.9790 H   0  0  0  0  0  0
   29.5430    8.2608    3.5849 H   0  0  0  0  0  0
   30.0456    8.3025    5.2460 H   0  0  0  0  0  0
   33.9941    2.9491   -7.6934 H   0  0  0  0  0  0
   31.3064    7.8405    2.4650 H   0  0  0  0  0  0
   32.4353    7.8485    3.7893 H   0  0  0  0  0  0
   33.5568    6.5416    2.2992 H   0  0  0  0  0  0
   32.7767    5.2910    3.1956 H   0  0  0  0  0  0
  1  2  1  0  0  0
  1  3  1  0  0  0
  1  4  2  0  0  0
  1  5  2  0  0  0
  2  7  1  0  0  0
  2 33  1  0  0  0
  3  6  2  0  0  0
  3 27  1  0  0  0
  6  9  1  0  0  0
  6 34  1  0  0  0
  7 17  2  0  0  0
  7 18  1  0  0  0
  8 13  1  0  0  0
  8 10  1  0  0  0
  9 15  1  0  0  0
  9 30  2  0  0  0
 10 19  1  0  0  0
 10 20  2  0  0  0
 11 29  1  0  0  0
 11 13  1  0  0  0
 11 25  1  0  0  0
 11 35  1  0  0  0
 12 22  2  0  0  0
 12 26  1  0  0  0
 12 21  1  0  0  0
 13 36  1  0  0  0
 13 37  1  0  0  0
 14 31  1  0  0  0
 14 29  1  0  0  0
 14 38  1  0  0  0
 16 24  1  0  0  0
 16 32  1  0  0  0
 16 23  2  0  0  0
 17 23  1  0  0  0
 17 39  1  0  0  0
 18 24  2  0  0  0
 18 40  1  0  0  0
 19 21  2  0  0  0
 19 41  1  0  0  0
 20 22  1  0  0  0
 20 42  1  0  0  0
 21 43  1  0  0  0
 22 44  1  0  0  0
 23 45  1  0  0  0
 24 46  1  0  0  0
 25 47  1  0  0  0
 26 48  1  0  0  0
 27 28  2  0  0  0
 27 49  1  0  0  0
 28 30  1  0  0  0
 28 50  1  0  0  0
 29 51  1  0  0  0
 29 52  1  0  0  0
 30 53  1  0  0  0
 31 32  1  0  0  0
 31 54  1  0  0  0
 31 55  1  0  0  0
 32 56  1  0  0  0
 32 57  1  0  0  0
M  END
> <s_m_entry_id>
3056

> <s_m_entry_name>
dock_pv.148

> <s_m_Source_Path>
/home/csk/Desktop/cluster/DUD-E-result/adrb1

> <s_m_Source_File>
dock_pv.maegz

> <i_m_Source_File_Index>
148

> <chembl_id>
CHEMBL12813

> <chembl_pref_name>
None

> <i_lp_mmshare_version>
53161

> <i_f3d_flags>
0

> <r_lp_tautomer_probability>
1

> <s_lp_Force_Field>
OPLS_2005

> <r_lp_Energy>
17.22249

> <b_lp_Chiralities_Consistent>
1

> <s_lp_Variant>
CHEMBL213_lig180-1

> <s_i_glide_gridfile>
glide-grid_2vt4

> <i_i_glide_lignum>
215

> <i_i_glide_rotatable_bonds>
13

> <r_i_docking_score>
-7.79581014591175

> <r_i_glide_ligand_efficiency>
-0.243619067059742

> <r_i_glide_ligand_efficiency_sa>
-0.773442325766776

> <r_i_glide_ligand_efficiency_ln>
-1.74569439742827

> <r_i_glide_gscore>
-7.79581014591175

> <r_i_glide_lipo>
-3.90706428553653

> <r_i_glide_hbond>
-0.293462822319922

> <r_i_glide_metal>
0

> <r_i_glide_rewards>
-0.270023714786158

> <r_i_glide_evdw>
-42.0727729797363

> <r_i_glide_ecoul>
-14.3841209411621

> <r_i_glide_erotb>
0.979283234142283

> <r_i_glide_esite>
-0.0432857672502892

> <r_i_glide_emodel>
-71.5843650719541

> <r_i_glide_energy>
-56.4568939208984

> <r_i_glide_einternal>
20.6605072021484

> <i_i_glide_confnum>
223

> <i_i_glide_posenum>
58

> <r_i_glide_eff_state_penalty>
0

> <s_user_duplicate_titles>
CHEMBL213_lig180

> <s_m_subgroup_title>
dock_pv

> <s_m_subgroupid>
dock_pv

> <b_m_subgroup_collapsed>
1

$$$$
CHEMBL213_lig470
                    3D
 Schrodinger Suite 2021-1.
 59 62  0  0  1  0            999 V2000
   29.8131    5.8524    3.1847 C   0  0  0  0  0  0
   29.0987    6.3976    4.2452 C   0  0  0  0  0  0
   27.7492    5.0464    2.1544 C   0  0  0  0  0  0
   29.1485    5.1723    2.1641 C   0  0  0  0  0  0
   27.0695    5.4835    3.3056 C   0  0  0  0  0  0
   27.7201    6.1933    4.3164 C   0  0  0  0  0  0
   26.8598    6.6402    5.3097 N   0  0  0  0  0  0
   25.5446    6.2498    5.2336 C   0  0  0  0  0  0
   25.4081    5.1947    3.7563 S   0  0  0  0  0  0
   24.6255    6.5260    5.9970 O   0  0  0  0  0  0
   29.7593    7.1044    5.2171 O   0  0  0  0  0  0
   27.0545    4.3419    0.9498 C   0  0  2  0  0  0
   27.7571    4.4708   -0.4348 C   0  0  0  0  0  0
   27.8818    5.8512   -0.9022 N   0  0  2  0  0  0
   26.7196    6.2696   -1.6853 C   0  0  0  0  0  0
   27.0896    6.5222   -3.1674 C   0  0  0  0  0  0
   28.1423    5.5742   -3.7359 C   0  0  0  0  0  0
   27.8324    4.2414   -4.0151 C   0  0  0  0  0  0
   28.8118    3.3682   -4.4840 C   0  0  0  0  0  0
   30.1186    3.8112   -4.6568 C   0  0  0  0  0  0
   30.4369    5.1392   -4.3708 C   0  0  0  0  0  0
   29.4481    6.0216   -3.9344 C   0  0  0  0  0  0
   25.6941    4.6499    0.7601 O   0  0  0  0  0  0
   31.8512    5.6314   -4.5166 C   0  0  0  0  0  0
   32.4829    5.6507   -3.2015 N   0  0  2  0  0  0
   33.6094    4.7219   -3.1399 C   0  0  0  0  0  0
   34.4265    4.7914   -1.8457 C   0  0  0  0  0  0
   34.1935    5.7671   -0.8619 C   0  0  0  0  0  0
   34.9598    5.8011    0.3035 C   0  0  0  0  0  0
   35.9724    4.8640    0.4997 C   0  0  0  0  0  0
   36.2160    3.8927   -0.4694 C   0  0  0  0  0  0
   35.4521    3.8529   -1.6362 C   0  0  0  0  0  0
   35.8073    2.6288   -2.8091 Cl  0  0  0  0  0  0
   30.8868    5.9630    3.1353 H   0  0  0  0  0  0
   29.7486    4.7931    1.3513 H   0  0  0  0  0  0
   27.1550    7.2566    6.0581 H   0  0  0  0  0  0
   30.6720    7.2861    4.9740 H   0  0  0  0  0  0
   27.0078    3.2876    1.1846 H   0  0  0  0  0  0
   28.7628    4.0550   -0.3832 H   0  0  0  0  0  0
   27.2622    3.8473   -1.1841 H   0  0  0  0  0  0
   28.6869    5.9138   -1.5100 H   0  0  0  0  0  0
   25.8690    5.5900   -1.6144 H   0  0  0  0  0  0
   26.3936    7.2052   -1.2315 H   0  0  0  0  0  0
   26.1929    6.4545   -3.7846 H   0  0  0  0  0  0
   27.4337    7.5516   -3.2870 H   0  0  0  0  0  0
   26.8381    3.8593   -3.8687 H   0  0  0  0  0  0
   28.5544    2.3390   -4.6849 H   0  0  0  0  0  0
   30.8791    3.1230   -4.9978 H   0  0  0  0  0  0
   29.7058    7.0494   -3.7229 H   0  0  0  0  0  0
   25.4421    4.3918   -0.1310 H   0  0  0  0  0  0
   32.4049    5.0193   -5.2322 H   0  0  0  0  0  0
   31.8079    6.6495   -4.8913 H   0  0  0  0  0  0
   31.7785    5.3151   -2.5546 H   0  0  0  0  0  0
   33.2238    3.7039   -3.2365 H   0  0  0  0  0  0
   34.2919    4.9035   -3.9746 H   0  0  0  0  0  0
   33.4225    6.5121   -0.9867 H   0  0  0  0  0  0
   34.7680    6.5604    1.0470 H   0  0  0  0  0  0
   36.5724    4.8897    1.3967 H   0  0  0  0  0  0
   37.0080    3.1708   -0.3211 H   0  0  0  0  0  0
  1  4  1  0  0  0
  1  2  2  0  0  0
  1 34  1  0  0  0
  2 11  1  0  0  0
  2  6  1  0  0  0
  3 12  1  0  0  0
  3  5  1  0  0  0
  3  4  2  0  0  0
  4 35  1  0  0  0
  5  9  1  0  0  0
  5  6  2  0  0  0
  6  7  1  0  0  0
  7  8  1  0  0  0
  7 36  1  0  0  0
  8  9  1  0  0  0
  8 10  2  0  0  0
 11 37  1  0  0  0
 12 23  1  0  0  0
 12 13  1  0  0  0
 12 38  1  0  0  0
 13 14  1  0  0  0
 13 39  1  0  0  0
 13 40  1  0  0  0
 14 15  1  0  0  0
 14 41  1  0  0  0
 15 16  1  0  0  0
 15 42  1  0  0  0
 15 43  1  0  0  0
 16 17  1  0  0  0
 16 44  1  0  0  0
 16 45  1  0  0  0
 17 18  2  0  0  0
 17 22  1  0  0  0
 18 19  1  0  0  0
 18 46  1  0  0  0
 19 20  2  0  0  0
 19 47  1  0  0  0
 20 21  1  0  0  0
 20 48  1  0  0  0
 21 22  2  0  0  0
 21 24  1  0  0  0
 22 49  1  0  0  0
 23 50  1  0  0  0
 24 25  1  0  0  0
 24 51  1  0  0  0
 24 52  1  0  0  0
 25 26  1  0  0  0
 25 53  1  0  0  0
 26 27  1  0  0  0
 26 54  1  0  0  0
 26 55  1  0  0  0
 27 28  2  0  0  0
 27 32  1  0  0  0
 28 29  1  0  0  0
 28 56  1  0  0  0
 29 30  2  0  0  0
 29 57  1  0  0  0
 30 31  1  0  0  0
 30 58  1  0  0  0
 31 32  2  0  0  0
 31 59  1  0  0  0
 32 33  1  0  0  0
M  END
> <s_m_entry_id>
3057

> <s_m_entry_name>
dock_pv.149

> <s_m_Source_Path>
/home/csk/Desktop/cluster/DUD-E-result/adrb1

> <s_m_Source_File>
dock_pv.maegz

> <i_m_Source_File_Index>
149

> <chembl_id>
CHEMBL1945041

> <chembl_pref_name>
None

> <i_lp_mmshare_version>
53161

> <i_f3d_flags>
0

> <r_lp_tautomer_probability>
1

> <s_lp_Force_Field>
OPLS_2005

> <r_lp_Energy>
34.871179

> <b_lp_Chiralities_Consistent>
1

> <s_lp_Variant>
CHEMBL213_lig470-1

> <s_i_glide_gridfile>
glide-grid_2vt4

> <i_i_glide_lignum>
559

> <i_i_glide_rotatable_bonds>
12

> <r_i_docking_score>
-7.78565654286747

> <r_i_glide_ligand_efficiency>
-0.235928986147499

> <r_i_glide_ligand_efficiency_sa>
-0.756750321627219

> <r_i_glide_ligand_efficiency_ln>
-1.7314897031616

> <r_i_glide_gscore>
-7.78565654286747

> <r_i_glide_lipo>
-3.18081004027882

> <r_i_glide_hbond>
-0.835983677723359

> <r_i_glide_metal>
0

> <r_i_glide_rewards>
-0.692051633017526

> <r_i_glide_evdw>
-47.0116577148438

> <r_i_glide_ecoul>
-10.0419750213623

> <r_i_glide_erotb>
0.780067947098771

> <r_i_glide_esite>
0

> <r_i_glide_emodel>
-74.0444844063646

> <r_i_glide_energy>
-57.0536327362061

> <r_i_glide_einternal>
15.9583282470703

> <i_i_glide_confnum>
24

> <i_i_glide_posenum>
209

> <r_i_glide_eff_state_penalty>
0

> <s_user_duplicate_titles>
CHEMBL213_lig470

> <s_m_subgroup_title>
dock_pv

> <s_m_subgroupid>
dock_pv

> <b_m_subgroup_collapsed>
1

$$$$
CHEMBL213_lig1128
                    3D
 Schrodinger Suite 2021-1.
 73 74  0  0  1  0            999 V2000
   27.2736    6.2440    4.5865 C   0  0  0  0  0  0
   28.1098    5.8249    3.5441 C   0  0  0  0  0  0
   27.5670    5.0545    2.5033 C   0  0  0  0  0  0
   26.2158    4.6805    2.4888 C   0  0  0  0  0  0
   25.4125    5.0657    3.5741 C   0  0  0  0  0  0
   25.9311    5.8575    4.6028 C   0  0  0  0  0  0
   27.7667    7.0479    5.5846 O   0  0  0  0  0  0
   29.5771    6.2546    3.5219 C   0  0  0  0  0  0
   30.4170    5.4507    2.7275 O   0  0  0  0  0  0
   25.6663    3.8517    1.3041 C   0  0  2  0  0  0
   25.6299    4.5867   -0.0612 C   0  0  0  0  0  0
   24.3668    3.3301    1.5256 O   0  0  0  0  0  0
   26.9506    4.9692   -0.5553 N   0  0  2  0  0  0
   26.8488    6.1053   -1.4638 C   0  0  0  0  0  0
   28.2079    6.4190   -2.1082 C   0  0  0  0  0  0
   28.7216    5.3073   -3.0434 C   0  0  0  0  0  0
   30.0297    5.6694   -3.7702 C   0  0  0  0  0  0
   30.4704    4.5643   -4.7464 C   0  0  0  0  0  0
   31.7871    4.8553   -5.4728 C   0  0  0  0  0  0
   32.8374    4.8409   -4.5215 O   0  0  0  0  0  0
   34.1284    4.9237   -5.1033 C   0  0  0  0  0  0
   35.1781    4.8954   -3.9854 C   0  0  0  0  0  0
   35.1827    3.5774   -3.1855 C   0  0  0  0  0  0
   36.2006    3.5673   -2.0274 C   0  0  0  0  0  0
   35.9103    4.4764   -0.8309 C   0  0  0  0  0  0
   36.9413    4.6888    0.0876 C   0  0  0  0  0  0
   36.7169    5.4487    1.2295 C   0  0  0  0  0  0
   35.4548    5.9886    1.4719 C   0  0  0  0  0  0
   34.4302    5.8241    0.5377 C   0  0  0  0  0  0
   34.6578    5.0647   -0.6105 C   0  0  0  0  0  0
   35.1877    6.8549    3.0213 S   0  0  0  0  0  0
   33.3416    6.8037    3.3555 C   0  0  0  0  0  0
   35.8500    6.0549    4.0592 O   0  0  0  0  0  0
   35.5834    8.2501    2.8092 O   0  0  0  0  0  0
   28.2054    4.7598    1.6849 H   0  0  0  0  0  0
   24.3700    4.7793    3.6082 H   0  0  0  0  0  0
   25.2830    6.1655    5.4090 H   0  0  0  0  0  0
   27.1133    7.5083    6.1296 H   0  0  0  0  0  0
   29.6413    7.2856    3.1852 H   0  0  0  0  0  0
   29.9863    6.2510    4.5335 H   0  0  0  0  0  0
   30.6106    4.6529    3.2363 H   0  0  0  0  0  0
   26.3030    2.9770    1.1855 H   0  0  0  0  0  0
   25.1914    3.9225   -0.8026 H   0  0  0  0  0  0
   24.9698    5.4478   -0.0150 H   0  0  0  0  0  0
   23.9757    3.1199    0.6714 H   0  0  0  0  0  0
   27.3330    4.1971   -1.0878 H   0  0  0  0  0  0
   26.1305    5.8869   -2.2547 H   0  0  0  0  0  0
   26.4880    6.9818   -0.9214 H   0  0  0  0  0  0
   28.1027    7.3412   -2.6841 H   0  0  0  0  0  0
   28.9389    6.6366   -1.3263 H   0  0  0  0  0  0
   28.8724    4.3850   -2.4761 H   0  0  0  0  0  0
   27.9505    5.0837   -3.7852 H   0  0  0  0  0  0
   29.9021    6.6074   -4.3134 H   0  0  0  0  0  0
   30.8166    5.8470   -3.0357 H   0  0  0  0  0  0
   30.5663    3.6183   -4.2124 H   0  0  0  0  0  0
   29.6930    4.4028   -5.4901 H   0  0  0  0  0  0
   31.9526    4.0860   -6.2303 H   0  0  0  0  0  0
   31.7443    5.8161   -5.9893 H   0  0  0  0  0  0
   34.2977    4.0945   -5.7910 H   0  0  0  0  0  0
   34.2118    5.8429   -5.6800 H   0  0  0  0  0  0
   36.1652    5.0500   -4.4223 H   0  0  0  0  0  0
   35.0154    5.7478   -3.3261 H   0  0  0  0  0  0
   34.1862    3.3444   -2.8114 H   0  0  0  0  0  0
   35.4245    2.7600   -3.8661 H   0  0  0  0  0  0
   36.2963    2.5505   -1.6447 H   0  0  0  0  0  0
   37.1830    3.8203   -2.4294 H   0  0  0  0  0  0
   37.9117    4.2455   -0.0781 H   0  0  0  0  0  0
   37.5189    5.5958    1.9368 H   0  0  0  0  0  0
   33.4511    6.2495    0.6939 H   0  0  0  0  0  0
   33.8448    4.9250   -1.3048 H   0  0  0  0  0  0
   33.1475    7.3089    4.3000 H   0  0  0  0  0  0
   32.8104    7.3199    2.5571 H   0  0  0  0  0  0
   33.0269    5.7639    3.4198 H   0  0  0  0  0  0
  1  2  1  0  0  0
  1  6  2  0  0  0
  1  7  1  0  0  0
  2  3  2  0  0  0
  2  8  1  0  0  0
  3  4  1  0  0  0
  3 35  1  0  0  0
  4  5  2  0  0  0
  4 10  1  0  0  0
  5  6  1  0  0  0
  5 36  1  0  0  0
  6 37  1  0  0  0
  7 38  1  0  0  0
  8  9  1  0  0  0
  8 39  1  0  0  0
  8 40  1  0  0  0
  9 41  1  0  0  0
 10 11  1  0  0  0
 10 12  1  0  0  0
 10 42  1  0  0  0
 11 13  1  0  0  0
 11 43  1  0  0  0
 11 44  1  0  0  0
 12 45  1  0  0  0
 13 14  1  0  0  0
 13 46  1  0  0  0
 14 15  1  0  0  0
 14 47  1  0  0  0
 14 48  1  0  0  0
 15 16  1  0  0  0
 15 49  1  0  0  0
 15 50  1  0  0  0
 16 17  1  0  0  0
 16 51  1  0  0  0
 16 52  1  0  0  0
 17 18  1  0  0  0
 17 53  1  0  0  0
 17 54  1  0  0  0
 18 19  1  0  0  0
 18 55  1  0  0  0
 18 56  1  0  0  0
 19 20  1  0  0  0
 19 57  1  0  0  0
 19 58  1  0  0  0
 20 21  1  0  0  0
 21 22  1  0  0  0
 21 59  1  0  0  0
 21 60  1  0  0  0
 22 23  1  0  0  0
 22 61  1  0  0  0
 22 62  1  0  0  0
 23 24  1  0  0  0
 23 63  1  0  0  0
 23 64  1  0  0  0
 24 25  1  0  0  0
 24 65  1  0  0  0
 24 66  1  0  0  0
 25 26  1  0  0  0
 25 30  2  0  0  0
 26 27  2  0  0  0
 26 67  1  0  0  0
 27 28  1  0  0  0
 27 68  1  0  0  0
 28 29  2  0  0  0
 28 31  1  0  0  0
 29 30  1  0  0  0
 29 69  1  0  0  0
 30 70  1  0  0  0
 31 32  1  0  0  0
 31 33  2  0  0  0
 31 34  2  0  0  0
 32 71  1  0  0  0
 32 72  1  0  0  0
 32 73  1  0  0  0
M  END
> <s_m_entry_id>
3058

> <s_m_entry_name>
dock_pv.150

> <s_m_Source_Path>
/home/csk/Desktop/cluster/DUD-E-result/adrb1

> <s_m_Source_File>
dock_pv.maegz

> <i_m_Source_File_Index>
150

> <chembl_id>
CHEMBL3126381

> <chembl_pref_name>
None

> <i_lp_mmshare_version>
53161

> <i_f3d_flags>
0

> <r_lp_tautomer_probability>
0.999999999997365

> <s_lp_Force_Field>
OPLS_2005

> <r_lp_Energy>
18.047108

> <b_lp_Chiralities_Consistent>
1

> <s_lp_Variant>
CHEMBL213_lig1128-1

> <s_i_glide_gridfile>
glide-grid_2vt4

> <i_i_glide_lignum>
1323

> <i_i_glide_rotatable_bonds>
20

> <r_i_docking_score>
-7.78507080051765

> <r_i_glide_ligand_efficiency>
-0.22897267060346

> <r_i_glide_ligand_efficiency_sa>
-0.741782564985061

> <r_i_glide_ligand_efficiency_ln>
-1.71994050367383

> <r_i_glide_gscore>
-7.78507080051765

> <r_i_glide_lipo>
-2.87735332697351

> <r_i_glide_hbond>
-0.589598875978668

> <r_i_glide_metal>
0

> <r_i_glide_rewards>
-0.544622024773996

> <r_i_glide_evdw>
-49.7445755004883

> <r_i_glide_ecoul>
-16.9131031036377

> <r_i_glide_erotb>
1.33759685435008

> <r_i_glide_esite>
-0.0868991865714871

> <r_i_glide_emodel>
-93.1077215581699

> <r_i_glide_energy>
-66.657678604126

> <r_i_glide_einternal>
11.0499324798584

> <i_i_glide_confnum>
11

> <i_i_glide_posenum>
344

> <r_i_glide_eff_state_penalty>
0

> <s_user_duplicate_titles>
CHEMBL213_lig1128

> <s_m_subgroup_title>
dock_pv

> <s_m_subgroupid>
dock_pv

> <b_m_subgroup_collapsed>
1

$$$$
CHEMBL213_lig699
                    3D
 Schrodinger Suite 2021-1.
 51 53  0  0  1  0            999 V2000
   30.6080    1.4053   -4.0938 C   0  0  0  0  0  0
   29.8458    1.1440   -5.2305 C   0  0  0  0  0  0
   29.7009    2.1287   -6.2058 C   0  0  0  0  0  0
   30.3073    3.3736   -6.0328 C   0  0  0  0  0  0
   31.0318    3.6641   -4.8682 C   0  0  0  0  0  0
   31.2001    2.6492   -3.9140 C   0  0  0  0  0  0
   28.7548    1.8176   -7.6147 Cl  0  0  0  0  0  0
   31.6173    5.0709   -4.6809 C   0  0  2  0  0  0
   32.4321    5.2953   -3.3772 C   0  0  0  0  0  0
   30.6328    6.0876   -4.8160 O   0  0  0  0  0  0
   31.6218    5.2426   -2.1525 N   0  0  2  0  0  0
   32.3236    5.4906   -0.8909 C   0  0  1  0  0  0
   31.3240    5.3227    0.3011 C   0  0  0  0  0  0
   33.6436    4.6957   -0.8037 C   0  0  0  0  0  0
   31.8474    5.8527    1.5609 N   0  0  0  0  0  0
   31.0098    6.1367    2.6564 C   0  0  0  0  0  0
   29.6939    5.6629    2.7853 C   0  0  0  0  0  0
   28.8501    6.1300    3.8108 C   0  0  0  0  0  0
   29.3782    7.0247    4.7539 C   0  0  0  0  0  0
   30.6984    7.4497    4.6675 C   0  0  0  0  0  0
   31.5054    7.0175    3.6185 C   0  0  0  0  0  0
   27.4025    5.7190    3.8614 C   0  0  0  0  0  0
   26.8205    4.9559    2.9624 N   0  0  0  0  0  0
   25.5436    4.7104    3.2218 C   0  0  0  0  0  0
   25.0644    5.3279    4.3850 C   0  0  0  0  0  0
   26.3300    6.2481    5.1296 S   0  0  0  0  0  0
   24.8076    3.8501    2.3146 C   0  0  0  0  0  0
   23.4851    3.7635    2.6374 O   0  0  0  0  0  0
   25.3166    3.2590    1.3638 O   0  0  0  0  0  0
   30.7026    0.6508   -3.3274 H   0  0  0  0  0  0
   29.3665    0.1832   -5.3500 H   0  0  0  0  0  0
   30.2062    4.1171   -6.8122 H   0  0  0  0  0  0
   31.7716    2.8003   -3.0126 H   0  0  0  0  0  0
   32.3124    5.2072   -5.5114 H   0  0  0  0  0  0
   33.2228    4.5449   -3.3476 H   0  0  0  0  0  0
   32.9397    6.2496   -3.4213 H   0  0  0  0  0  0
   31.0077    6.8513   -5.2763 H   0  0  0  0  0  0
   30.9763    4.4631   -2.1303 H   0  0  0  0  0  0
   32.6084    6.5432   -0.9145 H   0  0  0  0  0  0
   30.4034    5.8499    0.0572 H   0  0  0  0  0  0
   30.9705    4.3065    0.4537 H   0  0  0  0  0  0
   34.0159    4.6498    0.2196 H   0  0  0  0  0  0
   33.5493    3.6893   -1.2146 H   0  0  0  0  0  0
   34.4225    5.1880   -1.3869 H   0  0  0  0  0  0
   32.5882    6.5341    1.4459 H   0  0  0  0  0  0
   29.3038    4.9839    2.0432 H   0  0  0  0  0  0
   28.7728    7.4185    5.5571 H   0  0  0  0  0  0
   31.0865    8.1488    5.3928 H   0  0  0  0  0  0
   32.5123    7.4018    3.5421 H   0  0  0  0  0  0
   24.0880    5.2938    4.8453 H   0  0  0  0  0  0
   23.2579    4.3283    3.3743 H   0  0  0  0  0  0
  1  6  1  0  0  0
  1  2  2  0  0  0
  1 30  1  0  0  0
  2  3  1  0  0  0
  2 31  1  0  0  0
  3  7  1  0  0  0
  3  4  2  0  0  0
  4  5  1  0  0  0
  4 32  1  0  0  0
  5  8  1  0  0  0
  5  6  2  0  0  0
  6 33  1  0  0  0
  8  9  1  0  0  0
  8 10  1  0  0  0
  8 34  1  0  0  0
  9 11  1  0  0  0
  9 35  1  0  0  0
  9 36  1  0  0  0
 10 37  1  0  0  0
 11 12  1  0  0  0
 11 38  1  0  0  0
 12 13  1  0  0  0
 12 14  1  0  0  0
 12 39  1  0  0  0
 13 15  1  0  0  0
 13 40  1  0  0  0
 13 41  1  0  0  0
 14 42  1  0  0  0
 14 43  1  0  0  0
 14 44  1  0  0  0
 15 16  1  0  0  0
 15 45  1  0  0  0
 16 17  2  0  0  0
 16 21  1  0  0  0
 17 18  1  0  0  0
 17 46  1  0  0  0
 18 19  2  0  0  0
 18 22  1  0  0  0
 19 20  1  0  0  0
 19 47  1  0  0  0
 20 21  2  0  0  0
 20 48  1  0  0  0
 21 49  1  0  0  0
 22 23  2  0  0  0
 22 26  1  0  0  0
 23 24  1  0  0  0
 24 25  2  0  0  0
 24 27  1  0  0  0
 25 26  1  0  0  0
 25 50  1  0  0  0
 27 28  1  0  0  0
 27 29  2  0  0  0
 28 51  1  0  0  0
M  END
> <s_m_entry_id>
3059

> <s_m_entry_name>
dock_pv.151

> <s_m_Source_Path>
/home/csk/Desktop/cluster/DUD-E-result/adrb1

> <s_m_Source_File>
dock_pv.maegz

> <i_m_Source_File_Index>
151

> <chembl_id>
CHEMBL247315

> <chembl_pref_name>
None

> <i_lp_mmshare_version>
53161

> <i_f3d_flags>
0

> <r_lp_tautomer_probability>
1

> <s_lp_Force_Field>
OPLS_2005

> <r_lp_Energy>
20.488533

> <b_lp_Chiralities_Consistent>
1

> <s_lp_Variant>
CHEMBL213_lig699-1

> <s_i_glide_gridfile>
glide-grid_2vt4

> <i_i_glide_lignum>
801

> <i_i_glide_rotatable_bonds>
11

> <r_i_docking_score>
-7.778925591504

> <r_i_glide_ligand_efficiency>
-0.268238813500138

> <r_i_glide_ligand_efficiency_sa>
-0.824114619093469

> <r_i_glide_ligand_efficiency_ln>
-1.78117670392117

> <r_i_glide_gscore>
-7.778925591504

> <r_i_glide_lipo>
-3.65948237821942

> <r_i_glide_hbond>
-0.460650861543572

> <r_i_glide_metal>
0

> <r_i_glide_rewards>
-1.57246300625457

> <r_i_glide_evdw>
-44.7975578308105

> <r_i_glide_ecoul>
-4.66337060928345

> <r_i_glide_erotb>
0.853054137446619

> <r_i_glide_esite>
0

> <r_i_glide_emodel>
-74.4053169158082

> <r_i_glide_energy>
-49.460928440094

> <r_i_glide_einternal>
8.0662956237793

> <i_i_glide_confnum>
71

> <i_i_glide_posenum>
254

> <r_i_glide_eff_state_penalty>
0

> <s_user_duplicate_titles>
CHEMBL213_lig699

> <s_m_subgroup_title>
dock_pv

> <s_m_subgroupid>
dock_pv

> <b_m_subgroup_collapsed>
1

$$$$
CHEMBL213_lig885
                    3D
 Schrodinger Suite 2021-1.
 55 58  0  0  1  0            999 V2000
   34.0422    1.8501   -8.6151 C   0  0  0  0  0  0
   34.6541    3.0923   -8.4592 C   0  0  0  0  0  0
   34.0085    4.0966   -7.7407 C   0  0  0  0  0  0
   32.7507    3.8570   -7.1874 C   0  0  0  0  0  0
   32.1130    2.6162   -7.3390 C   0  0  0  0  0  0
   32.7854    1.6189   -8.0562 C   0  0  0  0  0  0
   34.8425    0.5933   -9.4853 Cl  0  0  0  0  0  0
   30.7111    2.3652   -6.7425 C   0  0  2  0  0  0
   30.6133    2.6960   -5.2343 C   0  0  0  0  0  0
   30.2084    1.0500   -6.9203 O   0  0  0  0  0  0
   30.3439    4.1162   -5.0532 N   0  0  1  0  0  0
   30.9287    4.7108   -3.8572 C   0  0  1  0  0  0
   30.7924    6.2390   -3.8803 C   0  0  0  0  0  0
   29.3078    6.6472   -3.9142 C   0  0  0  0  0  0
   30.3621    4.1980   -2.5122 C   0  0  0  0  0  0
   29.0125    4.8269   -2.1426 C   0  0  0  0  0  0
   28.5424    6.0102   -2.7589 C   0  0  0  0  0  0
   27.3374    6.5707   -2.3228 C   0  0  0  0  0  0
   26.6080    5.9993   -1.2838 C   0  0  0  0  0  0
   27.0596    4.8261   -0.6879 C   0  0  0  0  0  0
   28.2456    4.2500   -1.1314 C   0  0  0  0  0  0
   26.3652    4.2526    0.3499 O   0  0  0  0  0  0
   26.6441    4.6580    1.6369 C   0  0  0  0  0  0
   27.9209    5.0641    2.0433 C   0  0  0  0  0  0
   28.1369    5.5215    3.3349 C   0  0  0  0  0  0
   27.0731    5.5889    4.2407 C   0  0  0  0  0  0
   25.8081    5.1252    3.8516 C   0  0  0  0  0  0
   25.6042    4.6492    2.5612 C   0  0  0  0  0  0
   27.2938    6.1994    5.5967 C   0  0  0  0  0  0
   26.1875    6.2499    6.3850 O   0  0  0  0  0  0
   28.3814    6.6497    5.9542 O   0  0  0  0  0  0
   35.6296    3.2757   -8.8856 H   0  0  0  0  0  0
   34.4820    5.0602   -7.6096 H   0  0  0  0  0  0
   32.2838    4.6657   -6.6491 H   0  0  0  0  0  0
   32.3362    0.6499   -8.1727 H   0  0  0  0  0  0
   30.0045    2.9794   -7.3033 H   0  0  0  0  0  0
   31.5197    2.3689   -4.7190 H   0  0  0  0  0  0
   29.7769    2.1707   -4.7664 H   0  0  0  0  0  0
   29.4152    0.9624   -6.3824 H   0  0  0  0  0  0
   30.5709    4.6643   -5.8705 H   0  0  0  0  0  0
   31.9925    4.4684   -3.8942 H   0  0  0  0  0  0
   31.3387    6.6502   -4.7296 H   0  0  0  0  0  0
   31.2477    6.6493   -2.9811 H   0  0  0  0  0  0
   28.8449    6.2908   -4.8288 H   0  0  0  0  0  0
   29.1969    7.7325   -3.9257 H   0  0  0  0  0  0
   31.0875    4.3675   -1.7146 H   0  0  0  0  0  0
   30.2080    3.1180   -2.5650 H   0  0  0  0  0  0
   26.9572    7.4499   -2.8161 H   0  0  0  0  0  0
   25.6807    6.4476   -0.9609 H   0  0  0  0  0  0
   28.5887    3.3414   -0.6659 H   0  0  0  0  0  0
   28.7538    5.0501    1.3571 H   0  0  0  0  0  0
   29.1294    5.8548    3.6096 H   0  0  0  0  0  0
   24.9645    5.1512    4.5253 H   0  0  0  0  0  0
   24.6232    4.3142    2.2577 H   0  0  0  0  0  0
   26.3803    6.8478    7.1157 H   0  0  0  0  0  0
  1  6  1  0  0  0
  1  2  2  0  0  0
  1  7  1  0  0  0
  2  3  1  0  0  0
  2 32  1  0  0  0
  3  4  2  0  0  0
  3 33  1  0  0  0
  4  5  1  0  0  0
  4 34  1  0  0  0
  5  8  1  0  0  0
  5  6  2  0  0  0
  6 35  1  0  0  0
  8  9  1  0  0  0
  8 10  1  0  0  0
  8 36  1  0  0  0
  9 11  1  0  0  0
  9 37  1  0  0  0
  9 38  1  0  0  0
 10 39  1  0  0  0
 11 12  1  0  0  0
 11 40  1  0  0  0
 12 13  1  0  0  0
 12 15  1  0  0  0
 12 41  1  0  0  0
 13 14  1  0  0  0
 13 42  1  0  0  0
 13 43  1  0  0  0
 14 17  1  0  0  0
 14 44  1  0  0  0
 14 45  1  0  0  0
 15 16  1  0  0  0
 15 46  1  0  0  0
 15 47  1  0  0  0
 16 17  2  0  0  0
 16 21  1  0  0  0
 17 18  1  0  0  0
 18 19  2  0  0  0
 18 48  1  0  0  0
 19 20  1  0  0  0
 19 49  1  0  0  0
 20 21  2  0  0  0
 20 22  1  0  0  0
 21 50  1  0  0  0
 22 23  1  0  0  0
 23 24  2  0  0  0
 23 28  1  0  0  0
 24 25  1  0  0  0
 24 51  1  0  0  0
 25 26  2  0  0  0
 25 52  1  0  0  0
 26 27  1  0  0  0
 26 29  1  0  0  0
 27 28  2  0  0  0
 27 53  1  0  0  0
 28 54  1  0  0  0
 29 30  1  0  0  0
 29 31  2  0  0  0
 30 55  1  0  0  0
M  END
> <s_m_entry_id>
3060

> <s_m_entry_name>
dock_pv.152

> <s_m_Source_Path>
/home/csk/Desktop/cluster/DUD-E-result/adrb1

> <s_m_Source_File>
dock_pv.maegz

> <i_m_Source_File_Index>
152

> <chembl_id>
CHEMBL498519

> <chembl_pref_name>
None

> <i_lp_mmshare_version>
53161

> <i_f3d_flags>
0

> <r_lp_tautomer_probability>
1

> <s_lp_Force_Field>
OPLS_2005

> <r_lp_Energy>
28.814743

> <b_lp_Chiralities_Consistent>
1

> <s_lp_Variant>
CHEMBL213_lig885-1

> <s_i_glide_gridfile>
glide-grid_2vt4

> <i_i_glide_lignum>
993

> <i_i_glide_rotatable_bonds>
9

> <r_i_docking_score>
-7.77845704939876

> <r_i_glide_ligand_efficiency>
-0.250917969335444

> <r_i_glide_ligand_efficiency_sa>
-0.788228853305444

> <r_i_glide_ligand_efficiency_ln>
-1.7542804457195

> <r_i_glide_gscore>
-7.77845704939876

> <r_i_glide_lipo>
-3.2484973781622

> <r_i_glide_hbond>
-0.210721788066957

> <r_i_glide_metal>
0

> <r_i_glide_rewards>
-1.7405644815973

> <r_i_glide_evdw>
-46.7505989074707

> <r_i_glide_ecoul>
-5.76790237426758

> <r_i_glide_erotb>
0.624041899941376

> <r_i_glide_esite>
0

> <r_i_glide_emodel>
-71.7649713740294

> <r_i_glide_energy>
-52.5185012817383

> <r_i_glide_einternal>
8.11270904541016

> <i_i_glide_confnum>
101

> <i_i_glide_posenum>
296

> <r_i_glide_eff_state_penalty>
0

> <s_user_duplicate_titles>
CHEMBL213_lig885

> <s_m_subgroup_title>
dock_pv

> <s_m_subgroupid>
dock_pv

> <b_m_subgroup_collapsed>
1

$$$$
CHEMBL213_lig379
                    3D
 Schrodinger Suite 2021-1.
 58 61  0  0  1  0            999 V2000
   31.4956    4.7438   -3.2208 C   0  0  0  0  0  0
   30.2757    4.6156   -3.8759 N   0  0  0  0  0  0
   30.6775    2.2666   -4.3227 C   0  0  0  0  0  0
   29.8191    3.3683   -4.4148 C   0  0  0  0  0  0
   28.5721    3.1751   -5.0308 C   0  0  0  0  0  0
   28.2417    1.9622   -5.6322 C   0  0  0  0  0  0
   29.1273    0.8944   -5.5721 C   0  0  0  0  0  0
   30.3328    1.0490   -4.8977 C   0  0  0  0  0  0
   31.3848    6.8907    3.1695 C   0  0  0  0  0  0
   31.2110    5.8506    2.2561 C   0  0  0  0  0  0
   30.1115    5.0560    2.2472 N   0  0  0  0  0  0
   29.1546    5.2872    3.1842 C   0  0  0  0  0  0
   29.2439    6.3033    4.1488 C   0  0  0  0  0  0
   30.3875    7.1148    4.1193 C   0  0  0  0  0  0
   28.1830    6.5364    5.2360 C   0  0  2  0  0  0
   27.0187    5.5110    5.3288 C   0  0  0  0  0  0
   27.6723    7.8500    5.1850 O   0  0  0  0  0  0
   26.1536    5.5605    4.1534 N   0  0  1  0  0  0
   25.4091    4.3317    3.9244 C   0  0  0  0  0  0
   24.8081    4.2539    2.5101 C   0  0  0  0  0  0
   25.7993    4.3228    1.3427 C   0  0  0  0  0  0
   26.6080    5.4513    1.1565 C   0  0  0  0  0  0
   27.3688    5.5965    0.0119 C   0  0  0  0  0  0
   27.3438    4.6044   -0.9624 C   0  0  0  0  0  0
   26.5763    3.4589   -0.7672 C   0  0  0  0  0  0
   25.8040    3.3146    0.3798 C   0  0  0  0  0  0
   28.1040    4.7069   -2.1292 N   0  0  0  0  0  0
   28.3459    5.8360   -2.8368 C   0  0  0  0  0  0
   27.7856    6.9092   -2.6253 O   0  0  0  0  0  0
   29.3757    5.7951   -3.9814 C   0  0  0  0  0  0
   31.8309    5.8502   -2.8033 O   0  0  0  0  0  0
   32.2773    3.5854   -3.0683 N   0  0  0  0  0  0
   31.9156    2.4720   -3.5764 C   0  0  0  0  0  0
   27.8338    3.9590   -5.0695 H   0  0  0  0  0  0
   27.3028    1.8524   -6.1454 H   0  0  0  0  0  0
   28.8670   -0.0557   -6.0152 H   0  0  0  0  0  0
   31.0081    0.2247   -4.8197 H   0  0  0  0  0  0
   32.2636    7.5186    3.1342 H   0  0  0  0  0  0
   31.9557    5.6521    1.4990 H   0  0  0  0  0  0
   28.3219    4.6034    3.1522 H   0  0  0  0  0  0
   30.5078    7.9199    4.8300 H   0  0  0  0  0  0
   28.7184    6.4725    6.1835 H   0  0  0  0  0  0
   26.4216    5.6921    6.2242 H   0  0  0  0  0  0
   27.4523    4.5153    5.4439 H   0  0  0  0  0  0
   27.2757    8.0854    6.0447 H   0  0  0  0  0  0
   25.5304    6.3544    4.2167 H   0  0  0  0  0  0
   24.6079    4.2501    4.6583 H   0  0  0  0  0  0
   26.0931    3.4898    4.0153 H   0  0  0  0  0  0
   24.0677    5.0428    2.3857 H   0  0  0  0  0  0
   24.2353    3.3278    2.4392 H   0  0  0  0  0  0
   26.6069    6.2718    1.8548 H   0  0  0  0  0  0
   27.9509    6.4920   -0.1247 H   0  0  0  0  0  0
   26.5297    2.7022   -1.5302 H   0  0  0  0  0  0
   25.1718    2.4455    0.4864 H   0  0  0  0  0  0
   28.4309    3.8263   -2.5037 H   0  0  0  0  0  0
   29.9554    6.7175   -3.9230 H   0  0  0  0  0  0
   28.8714    5.8421   -4.9437 H   0  0  0  0  0  0
   32.5971    1.6439   -3.4031 H   0  0  0  0  0  0
  1  2  1  0  0  0
  1 32  1  0  0  0
  1 31  2  0  0  0
  2  4  1  0  0  0
  2 30  1  0  0  0
  3 33  1  0  0  0
  3  8  1  0  0  0
  3  4  2  0  0  0
  4  5  1  0  0  0
  5  6  2  0  0  0
  5 34  1  0  0  0
  6  7  1  0  0  0
  6 35  1  0  0  0
  7  8  2  0  0  0
  7 36  1  0  0  0
  8 37  1  0  0  0
  9 14  1  0  0  0
  9 10  2  0  0  0
  9 38  1  0  0  0
 10 11  1  0  0  0
 10 39  1  0  0  0
 11 12  2  0  0  0
 12 13  1  0  0  0
 12 40  1  0  0  0
 13 15  1  0  0  0
 13 14  2  0  0  0
 14 41  1  0  0  0
 15 16  1  0  0  0
 15 17  1  0  0  0
 15 42  1  0  0  0
 16 18  1  0  0  0
 16 43  1  0  0  0
 16 44  1  0  0  0
 17 45  1  0  0  0
 18 19  1  0  0  0
 18 46  1  0  0  0
 19 20  1  0  0  0
 19 47  1  0  0  0
 19 48  1  0  0  0
 20 21  1  0  0  0
 20 49  1  0  0  0
 20 50  1  0  0  0
 21 22  2  0  0  0
 21 26  1  0  0  0
 22 23  1  0  0  0
 22 51  1  0  0  0
 23 24  2  0  0  0
 23 52  1  0  0  0
 24 25  1  0  0  0
 24 27  1  0  0  0
 25 26  2  0  0  0
 25 53  1  0  0  0
 26 54  1  0  0  0
 27 28  1  0  0  0
 27 55  1  0  0  0
 28 29  2  0  0  0
 28 30  1  0  0  0
 30 56  1  0  0  0
 30 57  1  0  0  0
 32 33  2  0  0  0
 33 58  1  0  0  0
M  END
> <s_m_entry_id>
3061

> <s_m_entry_name>
dock_pv.153

> <s_m_Source_Path>
/home/csk/Desktop/cluster/DUD-E-result/adrb1

> <s_m_Source_File>
dock_pv.maegz

> <i_m_Source_File_Index>
153

> <chembl_id>
CHEMBL1084144

> <chembl_pref_name>
None

> <i_lp_mmshare_version>
53161

> <i_f3d_flags>
0

> <r_lp_tautomer_probability>
1

> <s_lp_Force_Field>
OPLS_2005

> <r_lp_Energy>
29.301372

> <b_lp_Chiralities_Consistent>
1

> <s_lp_Variant>
CHEMBL213_lig379-1

> <s_i_glide_gridfile>
glide-grid_2vt4

> <i_i_glide_lignum>
447

> <i_i_glide_rotatable_bonds>
11

> <r_i_docking_score>
-7.77052373364712

> <r_i_glide_ligand_efficiency>
-0.235470416171125

> <r_i_glide_ligand_efficiency_sa>
-0.755279442687008

> <r_i_glide_ligand_efficiency_ln>
-1.72812424474448

> <r_i_glide_gscore>
-7.77052373364712

> <r_i_glide_lipo>
-3.07671647462297

> <r_i_glide_hbond>
-0.707036390842951

> <r_i_glide_metal>
0

> <r_i_glide_rewards>
-1.33538718402504

> <r_i_glide_evdw>
-40.9676704406738

> <r_i_glide_ecoul>
-9.13423824310303

> <r_i_glide_erotb>
0.813143114586272

> <r_i_glide_esite>
-0.0460075402432905

> <r_i_glide_emodel>
-59.1281603648002

> <r_i_glide_energy>
-50.1019086837769

> <r_i_glide_einternal>
10.5831689834595

> <i_i_glide_confnum>
6

> <i_i_glide_posenum>
289

> <r_i_glide_eff_state_penalty>
0

> <s_user_duplicate_titles>
CHEMBL213_lig379

> <s_m_subgroup_title>
dock_pv

> <s_m_subgroupid>
dock_pv

> <b_m_subgroup_collapsed>
1

$$$$
CHEMBL213_lig339
                    3D
 Schrodinger Suite 2021-1.
 66 70  0  0  1  0            999 V2000
   35.2526    6.7665    3.3984 S   0  0  0  0  0  0
   28.4814    5.6370    3.0524 N   0  0  0  0  0  0
   29.1991    6.3753    3.8711 C   0  0  0  0  0  0
   27.1993    5.5703    3.3695 C   0  0  0  0  0  0
   28.2829    7.0495    5.1849 S   0  0  0  0  0  0
   35.7855    5.4491    2.3415 N   0  0  0  0  0  0
   26.8707    6.2703    4.5324 C   0  0  0  0  0  0
   33.4680    6.6666    3.4870 C   0  0  0  0  0  0
   35.7645    6.4131    4.7284 O   0  0  0  0  0  0
   35.6125    8.0510    2.7863 O   0  0  0  0  0  0
   26.2528    4.8131    2.4899 C   0  0  0  0  0  0
   30.6778    6.5880    3.7058 C   0  0  0  0  0  0
   30.4937    3.9731   -3.3060 C   0  0  0  0  0  0
   24.1712    3.5769    2.2444 N   0  0  0  0  0  0
   28.7254    5.4545   -2.5453 N   0  0  0  0  0  0
   32.7007    6.2482    2.3992 C   0  0  0  0  0  0
   32.8470    7.0494    4.6707 C   0  0  0  0  0  0
   31.4602    7.0484    4.7711 C   0  0  0  0  0  0
   31.3155    6.2062    2.5157 C   0  0  0  0  0  0
   35.7883    5.4288    0.9420 C   0  0  0  0  0  0
   31.2893    2.6854   -3.0800 C   0  0  1  0  0  0
   33.5242    3.8047   -3.2345 N   0  0  2  0  0  0
   25.0752    4.2509    3.0025 C   0  0  0  0  0  0
   35.7389    5.1661   -1.8366 C   0  0  0  0  0  0
   29.4828    4.3376   -2.4062 C   0  0  0  0  0  0
   36.2136    4.2433    0.3388 C   0  0  0  0  0  0
   35.3616    6.4942    0.1481 C   0  0  0  0  0  0
   36.2076    4.1152   -1.0443 C   0  0  0  0  0  0
   35.3214    6.3536   -1.2344 C   0  0  0  0  0  0
   30.6080    1.5669   -3.6160 O   0  0  0  0  0  0
   26.5004    4.6466    1.1180 C   0  0  0  0  0  0
   32.7272    2.6588   -3.6551 C   0  0  0  0  0  0
   30.7310    4.8193   -4.3998 C   0  0  0  0  0  0
   24.4318    3.4480    0.9211 C   0  0  0  0  0  0
   28.9726    6.2523   -3.6150 C   0  0  0  0  0  0
   34.8659    3.7593   -3.8019 C   0  0  0  0  0  0
   35.6499    5.0065   -3.3492 C   0  0  0  0  0  0
   25.5811    3.9614    0.3216 C   0  0  0  0  0  0
   29.9678    5.9767   -4.5532 C   0  0  0  0  0  0
   35.9360    4.5576    2.7838 H   0  0  0  0  0  0
   25.9075    6.3875    5.0030 H   0  0  0  0  0  0
   33.1515    5.9486    1.4691 H   0  0  0  0  0  0
   33.4362    7.3804    5.5095 H   0  0  0  0  0  0
   31.0151    7.3460    5.7056 H   0  0  0  0  0  0
   30.7411    5.8479    1.6755 H   0  0  0  0  0  0
   31.3723    2.5276   -2.0024 H   0  0  0  0  0  0
   33.5972    3.8523   -2.2257 H   0  0  0  0  0  0
   24.8281    4.3463    4.0490 H   0  0  0  0  0  0
   29.2442    3.7137   -1.5578 H   0  0  0  0  0  0
   36.5449    3.4076    0.9360 H   0  0  0  0  0  0
   35.0080    7.4199    0.5720 H   0  0  0  0  0  0
   36.5535    3.1928   -1.4912 H   0  0  0  0  0  0
   34.9365    7.1642   -1.8332 H   0  0  0  0  0  0
   29.7138    1.5675   -3.2492 H   0  0  0  0  0  0
   27.3871    5.0625    0.6584 H   0  0  0  0  0  0
   33.2220    1.7464   -3.3231 H   0  0  0  0  0  0
   32.6839    2.6502   -4.7445 H   0  0  0  0  0  0
   31.4975    4.5937   -5.1263 H   0  0  0  0  0  0
   23.6908    2.9351    0.3255 H   0  0  0  0  0  0
   28.3572    7.1382   -3.7109 H   0  0  0  0  0  0
   35.3658    2.8555   -3.4501 H   0  0  0  0  0  0
   34.8216    3.7293   -4.8918 H   0  0  0  0  0  0
   36.6607    4.9899   -3.7629 H   0  0  0  0  0  0
   35.1651    5.8793   -3.7835 H   0  0  0  0  0  0
   25.7443    3.8448   -0.7433 H   0  0  0  0  0  0
   30.1406    6.6443   -5.3859 H   0  0  0  0  0  0
  1  6  1  0  0  0
  1  8  1  0  0  0
  1  9  2  0  0  0
  1 10  2  0  0  0
  2  3  2  0  0  0
  2  4  1  0  0  0
  3 12  1  0  0  0
  3  5  1  0  0  0
  4 11  1  0  0  0
  4  7  2  0  0  0
  5  7  1  0  0  0
  6 20  1  0  0  0
  6 40  1  0  0  0
  7 41  1  0  0  0
  8 16  2  0  0  0
  8 17  1  0  0  0
 11 23  1  0  0  0
 11 31  2  0  0  0
 12 18  1  0  0  0
 12 19  2  0  0  0
 13 21  1  0  0  0
 13 25  2  0  0  0
 13 33  1  0  0  0
 14 23  2  0  0  0
 14 34  1  0  0  0
 15 25  1  0  0  0
 15 35  2  0  0  0
 16 19  1  0  0  0
 16 42  1  0  0  0
 17 18  2  0  0  0
 17 43  1  0  0  0
 18 44  1  0  0  0
 19 45  1  0  0  0
 20 26  1  0  0  0
 20 27  2  0  0  0
 21 32  1  0  0  0
 21 30  1  0  0  0
 21 46  1  0  0  0
 22 36  1  0  0  0
 22 32  1  0  0  0
 22 47  1  0  0  0
 23 48  1  0  0  0
 24 29  2  0  0  0
 24 37  1  0  0  0
 24 28  1  0  0  0
 25 49  1  0  0  0
 26 28  2  0  0  0
 26 50  1  0  0  0
 27 29  1  0  0  0
 27 51  1  0  0  0
 28 52  1  0  0  0
 29 53  1  0  0  0
 30 54  1  0  0  0
 31 38  1  0  0  0
 31 55  1  0  0  0
 32 56  1  0  0  0
 32 57  1  0  0  0
 33 39  2  0  0  0
 33 58  1  0  0  0
 34 38  2  0  0  0
 34 59  1  0  0  0
 35 39  1  0  0  0
 35 60  1  0  0  0
 36 37  1  0  0  0
 36 61  1  0  0  0
 36 62  1  0  0  0
 37 63  1  0  0  0
 37 64  1  0  0  0
 38 65  1  0  0  0
 39 66  1  0  0  0
M  END
> <s_m_entry_id>
3062

> <s_m_entry_name>
dock_pv.154

> <s_m_Source_Path>
/home/csk/Desktop/cluster/DUD-E-result/adrb1

> <s_m_Source_File>
dock_pv.maegz

> <i_m_Source_File_Index>
154

> <chembl_id>
CHEMBL294492

> <chembl_pref_name>
None

> <i_lp_mmshare_version>
53161

> <i_f3d_flags>
0

> <r_lp_tautomer_probability>
1

> <s_lp_Force_Field>
OPLS_2005

> <r_lp_Energy>
27.704073

> <b_lp_Chiralities_Consistent>
1

> <s_lp_Variant>
CHEMBL213_lig339-1

> <s_i_glide_gridfile>
glide-grid_2vt4

> <i_i_glide_lignum>
400

> <i_i_glide_rotatable_bonds>
12

> <r_i_docking_score>
-7.76613690109894

> <r_i_glide_ligand_efficiency>
-0.199131715412793

> <r_i_glide_ligand_efficiency_sa>
-0.67529775115024

> <r_i_glide_ligand_efficiency_ln>
-1.66528020650143

> <r_i_glide_gscore>
-7.76613690109894

> <r_i_glide_lipo>
-3.27828533154919

> <r_i_glide_hbond>
-0.32

> <r_i_glide_metal>
0

> <r_i_glide_rewards>
-0.535399182804979

> <r_i_glide_evdw>
-63.3278503417969

> <r_i_glide_ecoul>
-6.69180917739868

> <r_i_glide_erotb>
0.590898196517003

> <r_i_glide_esite>
-0.0531866895621274

> <r_i_glide_emodel>
-99.0528751495397

> <r_i_glide_energy>
-70.0196595191956

> <r_i_glide_einternal>
6.87348031997681

> <i_i_glide_confnum>
8

> <i_i_glide_posenum>
154

> <r_i_glide_eff_state_penalty>
0

> <s_user_duplicate_titles>
CHEMBL213_lig339

> <s_m_subgroup_title>
dock_pv

> <s_m_subgroupid>
dock_pv

> <b_m_subgroup_collapsed>
1

$$$$
CHEMBL213_lig759
                    3D
 Schrodinger Suite 2021-1.
 51 53  0  0  1  0            999 V2000
   33.7933    2.2732   -8.3965 C   0  0  0  0  0  0
   34.4133    3.3883   -7.8385 C   0  0  0  0  0  0
   33.7535    4.1355   -6.8663 C   0  0  0  0  0  0
   32.4713    3.7706   -6.4573 C   0  0  0  0  0  0
   31.8243    2.6506   -7.0060 C   0  0  0  0  0  0
   32.5114    1.9097   -7.9810 C   0  0  0  0  0  0
   34.6085    1.3495   -9.6042 Cl  0  0  0  0  0  0
   30.3733    2.2953   -6.6069 C   0  0  2  0  0  0
   30.0768    2.1484   -5.0807 C   0  0  0  0  0  0
   30.2092    3.3411   -4.2406 N   0  0  1  0  0  0
   29.4913    4.5066   -4.7457 C   0  0  0  0  0  0
   29.6952    5.7130   -3.8143 C   0  0  0  0  0  0
   28.6041    5.8505   -2.7678 C   0  0  0  0  0  0
   27.4080    6.4871   -3.1107 C   0  0  0  0  0  0
   26.4087    6.6500   -2.1590 C   0  0  0  0  0  0
   26.6016    6.1952   -0.8621 C   0  0  0  0  0  0
   27.7806    5.5263   -0.5052 C   0  0  0  0  0  0
   28.7805    5.3640   -1.4684 C   0  0  0  0  0  0
   29.8735    1.1115   -7.2102 O   0  0  0  0  0  0
   28.0218    5.0521    0.7691 O   0  0  0  0  0  0
   27.0142    4.9726    1.7041 C   0  0  0  0  0  0
   25.8574    4.2248    1.4633 C   0  0  0  0  0  0
   24.8730    4.1139    2.4423 C   0  0  0  0  0  0
   25.0303    4.7657    3.6636 C   0  0  0  0  0  0
   26.1822    5.5285    3.9157 C   0  0  0  0  0  0
   27.1738    5.6163    2.9307 C   0  0  0  0  0  0
   26.3658    6.2487    5.2160 C   0  0  0  0  0  0
   26.0020    7.5581    5.1850 O   0  0  0  0  0  0
   26.8345    5.7009    6.2094 O   0  0  0  0  0  0
   24.0507    4.6501    4.5911 F   0  0  0  0  0  0
   35.4039    3.6771   -8.1578 H   0  0  0  0  0  0
   34.2338    5.0055   -6.4384 H   0  0  0  0  0  0
   31.9946    4.3882   -5.7168 H   0  0  0  0  0  0
   32.0489    1.0501   -8.4321 H   0  0  0  0  0  0
   29.7410    3.0738   -7.0302 H   0  0  0  0  0  0
   30.7206    1.3749   -4.6610 H   0  0  0  0  0  0
   29.0551    1.7926   -4.9398 H   0  0  0  0  0  0
   29.8415    3.1224   -3.3202 H   0  0  0  0  0  0
   28.4280    4.2659   -4.8135 H   0  0  0  0  0  0
   29.8096    4.7952   -5.7461 H   0  0  0  0  0  0
   29.6865    6.6241   -4.4152 H   0  0  0  0  0  0
   30.6843    5.7120   -3.3519 H   0  0  0  0  0  0
   27.2464    6.8599   -4.1128 H   0  0  0  0  0  0
   25.4762    7.1286   -2.4153 H   0  0  0  0  0  0
   25.8129    6.3576   -0.1459 H   0  0  0  0  0  0
   29.7000    4.8655   -1.1968 H   0  0  0  0  0  0
   29.0113    0.9326   -6.8252 H   0  0  0  0  0  0
   25.7321    3.7154    0.5178 H   0  0  0  0  0  0
   23.9848    3.5284    2.2509 H   0  0  0  0  0  0
   28.0772    6.1853    3.1036 H   0  0  0  0  0  0
   26.2080    7.9676    6.0413 H   0  0  0  0  0  0
  1  6  1  0  0  0
  1  2  2  0  0  0
  1  7  1  0  0  0
  2  3  1  0  0  0
  2 31  1  0  0  0
  3  4  2  0  0  0
  3 32  1  0  0  0
  4  5  1  0  0  0
  4 33  1  0  0  0
  5  8  1  0  0  0
  5  6  2  0  0  0
  6 34  1  0  0  0
  8  9  1  0  0  0
  8 19  1  0  0  0
  8 35  1  0  0  0
  9 10  1  0  0  0
  9 36  1  0  0  0
  9 37  1  0  0  0
 10 11  1  0  0  0
 10 38  1  0  0  0
 11 12  1  0  0  0
 11 39  1  0  0  0
 11 40  1  0  0  0
 12 13  1  0  0  0
 12 41  1  0  0  0
 12 42  1  0  0  0
 13 18  1  0  0  0
 13 14  2  0  0  0
 14 15  1  0  0  0
 14 43  1  0  0  0
 15 16  2  0  0  0
 15 44  1  0  0  0
 16 17  1  0  0  0
 16 45  1  0  0  0
 17 18  2  0  0  0
 17 20  1  0  0  0
 18 46  1  0  0  0
 19 47  1  0  0  0
 20 21  1  0  0  0
 21 22  2  0  0  0
 21 26  1  0  0  0
 22 23  1  0  0  0
 22 48  1  0  0  0
 23 24  2  0  0  0
 23 49  1  0  0  0
 24 25  1  0  0  0
 24 30  1  0  0  0
 25 26  2  0  0  0
 25 27  1  0  0  0
 26 50  1  0  0  0
 27 28  1  0  0  0
 27 29  2  0  0  0
 28 51  1  0  0  0
M  END
> <s_m_entry_id>
3063

> <s_m_entry_name>
dock_pv.155

> <s_m_Source_Path>
/home/csk/Desktop/cluster/DUD-E-result/adrb1

> <s_m_Source_File>
dock_pv.maegz

> <i_m_Source_File_Index>
155

> <chembl_id>
CHEMBL521611

> <chembl_pref_name>
None

> <i_lp_mmshare_version>
53161

> <i_f3d_flags>
0

> <r_lp_tautomer_probability>
1

> <s_lp_Force_Field>
OPLS_2005

> <r_lp_Energy>
29.969691

> <b_lp_Chiralities_Consistent>
1

> <s_lp_Variant>
CHEMBL213_lig759-1

> <s_i_glide_gridfile>
glide-grid_2vt4

> <i_i_glide_lignum>
865

> <i_i_glide_rotatable_bonds>
11

> <r_i_docking_score>
-7.75912864420376

> <r_i_glide_ligand_efficiency>
-0.258637621473459

> <r_i_glide_ligand_efficiency_sa>
-0.8036472237938

> <r_i_glide_ligand_efficiency_ln>
-1.76295857044099

> <r_i_glide_gscore>
-7.75912864420376

> <r_i_glide_lipo>
-3.25202901498206

> <r_i_glide_hbond>
-0.0735683893764707

> <r_i_glide_metal>
0

> <r_i_glide_rewards>
-1.46175202194998

> <r_i_glide_evdw>
-45.473274230957

> <r_i_glide_ecoul>
-10.3907957077026

> <r_i_glide_erotb>
0.860503849807997

> <r_i_glide_esite>
0

> <r_i_glide_emodel>
-78.5717751194766

> <r_i_glide_energy>
-55.8640699386597

> <r_i_glide_einternal>
7.60651874542236

> <i_i_glide_confnum>
119

> <i_i_glide_posenum>
28

> <r_i_glide_eff_state_penalty>
0

> <s_user_duplicate_titles>
CHEMBL213_lig759,492734

> <s_m_subgroup_title>
dock_pv

> <s_m_subgroupid>
dock_pv

> <b_m_subgroup_collapsed>
1

$$$$
CHEMBL213_lig472
                    3D
 Schrodinger Suite 2021-1.
 58 61  0  0  1  0            999 V2000
   28.6657    2.4793   -5.7293 C   0  0  0  0  0  0
   29.4794    1.9490   -6.7250 C   0  0  0  0  0  0
   30.5304    3.7948   -4.8732 C   0  0  0  0  0  0
   29.1806    3.4120   -4.8295 C   0  0  0  0  0  0
   31.3338    3.2660   -5.9015 C   0  0  0  0  0  0
   30.8106    2.3547   -6.8157 C   0  0  0  0  0  0
   31.7335    1.9506   -7.7681 N   0  0  0  0  0  0
   33.0023    2.4806   -7.7027 C   0  0  0  0  0  0
   33.0246    3.6111   -6.2668 S   0  0  0  0  0  0
   33.9494    2.2494   -8.4489 O   0  0  0  0  0  0
   28.9538    1.0524   -7.6162 O   0  0  0  0  0  0
   31.0880    4.7675   -3.8220 C   0  0  2  0  0  0
   30.9003    4.3117   -2.3430 C   0  0  0  0  0  0
   29.4970    4.2501   -1.9274 N   0  0  2  0  0  0
   29.1949    5.0014   -0.7225 C   0  0  0  0  0  0
   27.7355    5.4947   -0.7725 C   0  0  0  0  0  0
   26.7905    4.6805    0.0933 C   0  0  0  0  0  0
   26.0881    3.5895   -0.4153 C   0  0  0  0  0  0
   25.1836    2.8964    0.3903 C   0  0  0  0  0  0
   25.0076    3.2702    1.7240 C   0  0  0  0  0  0
   25.7354    4.3416    2.2568 C   0  0  0  0  0  0
   26.6071    5.0510    1.4222 C   0  0  0  0  0  0
   30.6301    6.0995   -4.0083 O   0  0  0  0  0  0
   25.5932    4.6905    3.7366 C   0  0  0  0  0  0
   25.7936    6.1082    4.0488 N   0  0  2  0  0  0
   26.7270    6.3609    5.1490 C   0  0  0  0  0  0
   28.1926    6.4646    4.7155 C   0  0  0  0  0  0
   29.0147    7.4495    5.2636 C   0  0  0  0  0  0
   30.3144    7.5884    4.7706 C   0  0  0  0  0  0
   30.7378    6.7984    3.7000 C   0  0  0  0  0  0
   29.8548    5.8500    3.1861 C   0  0  0  0  0  0
   28.6150    5.6583    3.7010 N   0  0  0  0  0  0
   27.6281    2.1906   -5.6527 H   0  0  0  0  0  0
   28.4999    3.8261   -4.1025 H   0  0  0  0  0  0
   31.4928    1.3055   -8.5029 H   0  0  0  0  0  0
   28.0101    0.9420   -7.4792 H   0  0  0  0  0  0
   32.1679    4.8303   -3.9555 H   0  0  0  0  0  0
   31.3399    3.3214   -2.2093 H   0  0  0  0  0  0
   31.4800    4.9708   -1.6951 H   0  0  0  0  0  0
   29.1718    3.2870   -1.8445 H   0  0  0  0  0  0
   29.3851    4.3806    0.1509 H   0  0  0  0  0  0
   29.8598    5.8501   -0.6197 H   0  0  0  0  0  0
   27.7059    6.5262   -0.4179 H   0  0  0  0  0  0
   27.3522    5.5597   -1.7948 H   0  0  0  0  0  0
   26.2139    3.2985   -1.4489 H   0  0  0  0  0  0
   24.6193    2.0705   -0.0203 H   0  0  0  0  0  0
   24.3200    2.7113    2.3437 H   0  0  0  0  0  0
   27.1279    5.9191    1.7903 H   0  0  0  0  0  0
   30.8607    6.3918   -4.8963 H   0  0  0  0  0  0
   24.6457    4.3244    4.1347 H   0  0  0  0  0  0
   26.3580    4.0955    4.2402 H   0  0  0  0  0  0
   24.9082    6.5543    4.2448 H   0  0  0  0  0  0
   26.4434    7.3215    5.5843 H   0  0  0  0  0  0
   26.6206    5.6167    5.9408 H   0  0  0  0  0  0
   28.6546    8.1008    6.0456 H   0  0  0  0  0  0
   30.9831    8.3272    5.1867 H   0  0  0  0  0  0
   31.7310    6.9127    3.2908 H   0  0  0  0  0  0
   30.1519    5.1974    2.3788 H   0  0  0  0  0  0
  1  4  1  0  0  0
  1  2  2  0  0  0
  1 33  1  0  0  0
  2 11  1  0  0  0
  2  6  1  0  0  0
  3  4  2  0  0  0
  3 12  1  0  0  0
  3  5  1  0  0  0
  4 34  1  0  0  0
  5  9  1  0  0  0
  5  6  2  0  0  0
  6  7  1  0  0  0
  7  8  1  0  0  0
  7 35  1  0  0  0
  8  9  1  0  0  0
  8 10  2  0  0  0
 11 36  1  0  0  0
 12 23  1  0  0  0
 12 13  1  0  0  0
 12 37  1  0  0  0
 13 14  1  0  0  0
 13 38  1  0  0  0
 13 39  1  0  0  0
 14 15  1  0  0  0
 14 40  1  0  0  0
 15 16  1  0  0  0
 15 41  1  0  0  0
 15 42  1  0  0  0
 16 17  1  0  0  0
 16 43  1  0  0  0
 16 44  1  0  0  0
 17 18  2  0  0  0
 17 22  1  0  0  0
 18 19  1  0  0  0
 18 45  1  0  0  0
 19 20  2  0  0  0
 19 46  1  0  0  0
 20 21  1  0  0  0
 20 47  1  0  0  0
 21 22  2  0  0  0
 21 24  1  0  0  0
 22 48  1  0  0  0
 23 49  1  0  0  0
 24 25  1  0  0  0
 24 50  1  0  0  0
 24 51  1  0  0  0
 25 26  1  0  0  0
 25 52  1  0  0  0
 26 27  1  0  0  0
 26 53  1  0  0  0
 26 54  1  0  0  0
 27 28  2  0  0  0
 27 32  1  0  0  0
 28 29  1  0  0  0
 28 55  1  0  0  0
 29 30  2  0  0  0
 29 56  1  0  0  0
 30 31  1  0  0  0
 30 57  1  0  0  0
 31 32  2  0  0  0
 31 58  1  0  0  0
M  END
> <s_m_entry_id>
3064

> <s_m_entry_name>
dock_pv.156

> <s_m_Source_Path>
/home/csk/Desktop/cluster/DUD-E-result/adrb1

> <s_m_Source_File>
dock_pv.maegz

> <i_m_Source_File_Index>
156

> <chembl_id>
CHEMBL1945043

> <chembl_pref_name>
None

> <i_lp_mmshare_version>
53161

> <i_f3d_flags>
0

> <r_lp_tautomer_probability>
1

> <s_lp_Force_Field>
OPLS_2005

> <r_lp_Energy>
37.178194

> <b_lp_Chiralities_Consistent>
1

> <s_lp_Variant>
CHEMBL213_lig472-1

> <s_i_glide_gridfile>
glide-grid_2vt4

> <i_i_glide_lignum>
561

> <i_i_glide_rotatable_bonds>
12

> <r_i_docking_score>
-7.75574800085568

> <r_i_glide_ligand_efficiency>
-0.24236712502674

> <r_i_glide_ligand_efficiency_sa>
-0.769467657570986

> <r_i_glide_ligand_efficiency_ln>
-1.73672339109738

> <r_i_glide_gscore>
-7.75574800085568

> <r_i_glide_lipo>
-3.49159420871975

> <r_i_glide_hbond>
-0.54310639252991

> <r_i_glide_metal>
0

> <r_i_glide_rewards>
-0.904372941438416

> <r_i_glide_evdw>
-53.9592704772949

> <r_i_glide_ecoul>
-6.71752214431763

> <r_i_glide_erotb>
0.888917387344795

> <r_i_glide_esite>
0

> <r_i_glide_emodel>
-81.7742609379199

> <r_i_glide_energy>
-60.6767926216125

> <r_i_glide_einternal>
16.4793395996094

> <i_i_glide_confnum>
212

> <i_i_glide_posenum>
176

> <r_i_glide_eff_state_penalty>
0

> <s_user_duplicate_titles>
CHEMBL213_lig472

> <s_m_subgroup_title>
dock_pv

> <s_m_subgroupid>
dock_pv

> <b_m_subgroup_collapsed>
1

$$$$
CHEMBL213_lig396
                    3D
 Schrodinger Suite 2021-1.
 66 69  0  0  1  0            999 V2000
   35.1553    5.7923    0.4786 C   0  0  0  0  0  0
   33.7720    5.8497    0.3054 C   0  0  0  0  0  0
   33.1513    5.4501   -0.8319 N   0  0  0  0  0  0
   33.9293    4.9816   -1.8390 C   0  0  0  0  0  0
   35.3256    4.8910   -1.7622 C   0  0  0  0  0  0
   35.9344    5.3014   -0.5699 C   0  0  0  0  0  0
   36.1905    4.3676   -2.9109 C   0  0  2  0  0  0
   35.5800    4.4830   -4.3353 C   0  0  0  0  0  0
   36.6080    3.0341   -2.6730 O   0  0  0  0  0  0
   34.5705    3.4536   -4.5941 N   0  0  1  0  0  0
   33.8923    3.5988   -5.8761 C   0  0  0  0  0  0
   32.8200    4.7131   -5.8413 C   0  0  0  0  0  0
   31.7156    4.5773   -4.7892 C   0  0  0  0  0  0
   31.0012    5.7157   -4.4218 C   0  0  0  0  0  0
   29.9947    5.6545   -3.4662 C   0  0  0  0  0  0
   29.7005    4.4344   -2.8486 C   0  0  0  0  0  0
   30.4190    3.2941   -3.2135 C   0  0  0  0  0  0
   31.4116    3.3576   -4.1832 C   0  0  0  0  0  0
   28.6896    4.2502   -1.8877 N   0  0  0  0  0  0
   28.0048    5.1614   -1.1638 C   0  0  0  0  0  0
   28.1870    6.3757   -1.2160 O   0  0  0  0  0  0
   27.0010    4.5928   -0.1862 C   0  0  0  0  0  0
   26.8319    5.1810    1.0725 C   0  0  0  0  0  0
   25.9335    4.6500    2.0042 C   0  0  0  0  0  0
   25.1516    3.5417    1.6482 C   0  0  0  0  0  0
   25.2866    2.9657    0.3887 C   0  0  0  0  0  0
   26.2111    3.4830   -0.5169 C   0  0  0  0  0  0
   25.7562    5.3022    3.3706 C   0  0  0  0  0  0
   26.8709    4.9884    4.3934 C   0  0  0  0  0  0
   28.1310    5.8317    4.2373 C   0  0  0  0  0  0
   29.1100    5.4809    3.3058 C   0  0  0  0  0  0
   30.2643    6.2499    3.1858 C   0  0  0  0  0  0
   30.4506    7.3493    4.0189 C   0  0  0  0  0  0
   29.4796    7.7047    4.9500 C   0  0  0  0  0  0
   28.3156    6.9499    5.0542 C   0  0  0  0  0  0
   35.6127    6.1218    1.3986 H   0  0  0  0  0  0
   33.1361    6.2448    1.0852 H   0  0  0  0  0  0
   33.3934    4.6709   -2.7198 H   0  0  0  0  0  0
   37.0062    5.2396   -0.4594 H   0  0  0  0  0  0
   37.0849    4.9921   -2.9310 H   0  0  0  0  0  0
   36.3769    4.3748   -5.0701 H   0  0  0  0  0  0
   35.1630    5.4805   -4.4663 H   0  0  0  0  0  0
   37.3201    3.0333   -2.0191 H   0  0  0  0  0  0
   35.0017    2.5470   -4.4744 H   0  0  0  0  0  0
   33.4005    2.6497   -6.0821 H   0  0  0  0  0  0
   34.6129    3.7523   -6.6815 H   0  0  0  0  0  0
   32.3428    4.7748   -6.8157 H   0  0  0  0  0  0
   33.3231    5.6704   -5.7011 H   0  0  0  0  0  0
   31.2294    6.6510   -4.8883 H   0  0  0  0  0  0
   29.4530    6.5586   -3.2334 H   0  0  0  0  0  0
   30.2086    2.3413   -2.7522 H   0  0  0  0  0  0
   31.9406    2.4538   -4.4421 H   0  0  0  0  0  0
   28.4500    3.2765   -1.7272 H   0  0  0  0  0  0
   27.4022    6.0613    1.3334 H   0  0  0  0  0  0
   24.4308    3.1357    2.3425 H   0  0  0  0  0  0
   24.6638    2.1314    0.1063 H   0  0  0  0  0  0
   26.2809    3.0487   -1.5032 H   0  0  0  0  0  0
   24.7967    4.9869    3.7835 H   0  0  0  0  0  0
   25.6529    6.3826    3.2437 H   0  0  0  0  0  0
   27.1255    3.9271    4.3853 H   0  0  0  0  0  0
   26.4789    5.1594    5.3976 H   0  0  0  0  0  0
   28.9850    4.6087    2.6826 H   0  0  0  0  0  0
   31.0247    5.9768    2.4662 H   0  0  0  0  0  0
   31.3571    7.9328    3.9348 H   0  0  0  0  0  0
   29.6253    8.5655    5.5849 H   0  0  0  0  0  0
   27.5629    7.2279    5.7762 H   0  0  0  0  0  0
  1  6  1  0  0  0
  1  2  2  0  0  0
  1 36  1  0  0  0
  2  3  1  0  0  0
  2 37  1  0  0  0
  3  4  2  0  0  0
  4  5  1  0  0  0
  4 38  1  0  0  0
  5  6  2  0  0  0
  5  7  1  0  0  0
  6 39  1  0  0  0
  7  9  1  0  0  0
  7  8  1  0  0  0
  7 40  1  0  0  0
  8 10  1  0  0  0
  8 41  1  0  0  0
  8 42  1  0  0  0
  9 43  1  0  0  0
 10 11  1  0  0  0
 10 44  1  0  0  0
 11 12  1  0  0  0
 11 45  1  0  0  0
 11 46  1  0  0  0
 12 13  1  0  0  0
 12 47  1  0  0  0
 12 48  1  0  0  0
 13 18  1  0  0  0
 13 14  2  0  0  0
 14 15  1  0  0  0
 14 49  1  0  0  0
 15 16  2  0  0  0
 15 50  1  0  0  0
 16 19  1  0  0  0
 16 17  1  0  0  0
 17 18  2  0  0  0
 17 51  1  0  0  0
 18 52  1  0  0  0
 19 20  1  0  0  0
 19 53  1  0  0  0
 20 21  2  0  0  0
 20 22  1  0  0  0
 22 23  2  0  0  0
 22 27  1  0  0  0
 23 24  1  0  0  0
 23 54  1  0  0  0
 24 25  2  0  0  0
 24 28  1  0  0  0
 25 26  1  0  0  0
 25 55  1  0  0  0
 26 27  2  0  0  0
 26 56  1  0  0  0
 27 57  1  0  0  0
 28 29  1  0  0  0
 28 58  1  0  0  0
 28 59  1  0  0  0
 29 30  1  0  0  0
 29 60  1  0  0  0
 29 61  1  0  0  0
 30 31  2  0  0  0
 30 35  1  0  0  0
 31 32  1  0  0  0
 31 62  1  0  0  0
 32 33  2  0  0  0
 32 63  1  0  0  0
 33 34  1  0  0  0
 33 64  1  0  0  0
 34 35  2  0  0  0
 34 65  1  0  0  0
 35 66  1  0  0  0
M  END
> <s_m_entry_id>
3065

> <s_m_entry_name>
dock_pv.157

> <s_m_Source_Path>
/home/csk/Desktop/cluster/DUD-E-result/adrb1

> <s_m_Source_File>
dock_pv.maegz

> <i_m_Source_File_Index>
157

> <chembl_id>
CHEMBL1078749

> <chembl_pref_name>
None

> <i_lp_mmshare_version>
53161

> <i_f3d_flags>
0

> <r_lp_tautomer_probability>
1

> <s_lp_Force_Field>
OPLS_2005

> <r_lp_Energy>
33.651621

> <b_lp_Chiralities_Consistent>
1

> <s_lp_Variant>
CHEMBL213_lig396-1

> <s_i_glide_gridfile>
glide-grid_2vt4

> <i_i_glide_lignum>
464

> <i_i_glide_rotatable_bonds>
13

> <r_i_docking_score>
-7.7497381569262

> <r_i_glide_ligand_efficiency>
-0.221421090197891

> <r_i_glide_ligand_efficiency_sa>
-0.724283067653192

> <r_i_glide_ligand_efficiency_ln>
-1.70123952161679

> <r_i_glide_gscore>
-7.7497381569262

> <r_i_glide_lipo>
-3.42271411860809

> <r_i_glide_hbond>
-0.437660063772517

> <r_i_glide_metal>
0

> <r_i_glide_rewards>
-1.02837054805325

> <r_i_glide_evdw>
-49.7560844421387

> <r_i_glide_ecoul>
-9.02820205688477

> <r_i_glide_erotb>
1.02343470026355

> <r_i_glide_esite>
-0.0423935961162519

> <r_i_glide_emodel>
-83.5114070127419

> <r_i_glide_energy>
-58.7842864990234

> <r_i_glide_einternal>
7.96223211288452

> <i_i_glide_confnum>
66

> <i_i_glide_posenum>
377

> <r_i_glide_eff_state_penalty>
0

> <s_user_duplicate_titles>
CHEMBL213_lig396

> <s_m_subgroup_title>
dock_pv

> <s_m_subgroupid>
dock_pv

> <b_m_subgroup_collapsed>
1

$$$$
CHEMBL213_lig711
                    3D
 Schrodinger Suite 2021-1.
 79 83  0  0  1  0            999 V2000
   30.3439    4.8503   -4.1674 C   0  0  0  0  0  0
   31.5437    5.4716   -4.5149 C   0  0  0  0  0  0
   32.7553    4.9647   -4.0582 C   0  0  0  0  0  0
   32.7713    3.8339   -3.2434 C   0  0  0  0  0  0
   31.5847    3.1616   -2.9575 C   0  0  0  0  0  0
   30.3754    3.6631   -3.4313 C   0  0  0  0  0  0
   29.0105    5.4355   -4.6480 C   0  0  0  0  0  0
   28.3117    6.5537   -3.8008 C   0  0  0  0  0  0
   28.4987    6.2501   -2.3962 N   0  0  2  0  0  0
   28.9727    7.9355   -4.0161 C   0  0  0  0  0  0
   26.7876    6.7024   -4.0749 C   0  0  0  0  0  0
   27.7004    5.1581   -1.8545 C   0  0  0  0  0  0
   28.1627    4.9618   -0.4170 C   0  0  1  0  0  0
   27.0835    4.3080    0.4484 C   0  0  0  0  0  0
   27.4234    4.6490    1.7852 O   0  0  0  0  0  0
   26.4398    4.7112    2.7341 C   0  0  0  0  0  0
   24.5629    5.0517    4.7771 C   0  0  0  0  0  0
   24.2078    4.3899    3.5933 C   0  0  0  0  0  0
   25.1293    4.2437    2.5637 C   0  0  0  0  0  0
   25.8771    5.4931    4.9268 C   0  0  0  0  0  0
   26.8209    5.2781    3.9489 C   0  0  0  0  0  0
   28.1675    5.6768    4.4904 C   0  0  2  0  0  0
   27.8078    6.2434    5.8678 C   0  0  0  0  0  0
   26.4789    6.1044    6.0116 N   0  0  0  0  0  0
   28.6080    6.6502    6.7001 O   0  0  0  0  0  0
   29.3898    4.2501   -0.4151 O   0  0  0  0  0  0
   33.9604    3.3559   -2.7442 O   0  0  0  0  0  0
   34.7058    4.0751   -1.8253 C   0  0  0  0  0  0
   34.2170    5.2474   -1.3205 N   0  0  0  0  0  0
   34.9743    5.9232   -0.4182 C   0  0  0  0  0  0
   36.2258    5.4760    0.0261 C   0  0  0  0  0  0
   36.6980    4.2622   -0.5000 C   0  0  0  0  0  0
   35.9380    3.5588   -1.4336 C   0  0  0  0  0  0
   37.0169    6.2806    1.0283 C   0  0  0  0  0  0
   38.3219    6.0204    1.1249 N   0  0  0  0  0  0
   36.4927    7.1498    1.7211 O   0  0  0  0  0  0
   28.9482    6.7164    3.6612 C   0  0  0  0  0  0
   30.4583    6.5472    3.5821 C   0  0  0  0  0  0
   31.0200    5.9278    2.4585 C   0  0  0  0  0  0
   32.4022    5.8500    2.3251 C   0  0  0  0  0  0
   33.2229    6.3316    3.3407 C   0  0  0  0  0  0
   32.6693    6.9127    4.4787 C   0  0  0  0  0  0
   31.2863    7.0500    4.5892 C   0  0  0  0  0  0
   31.5387    6.3497   -5.1402 H   0  0  0  0  0  0
   33.6845    5.4496   -4.3168 H   0  0  0  0  0  0
   31.6013    2.2617   -2.3617 H   0  0  0  0  0  0
   29.4622    3.1320   -3.2155 H   0  0  0  0  0  0
   29.2474    5.8500   -5.6151 H   0  0  0  0  0  0
   28.3240    4.6039   -4.8150 H   0  0  0  0  0  0
   28.3497    7.0953   -1.8640 H   0  0  0  0  0  0
   28.7121    8.3704   -4.9764 H   0  0  0  0  0  0
   28.6080    8.6638   -3.2858 H   0  0  0  0  0  0
   30.0621    7.8974   -4.0114 H   0  0  0  0  0  0
   26.5742    7.4624   -4.8150 H   0  0  0  0  0  0
   26.3281    5.7755   -4.4143 H   0  0  0  0  0  0
   26.2356    7.0503   -3.2022 H   0  0  0  0  0  0
   26.6483    5.4445   -1.8489 H   0  0  0  0  0  0
   27.7689    4.2379   -2.4331 H   0  0  0  0  0  0
   28.3437    5.9405    0.0240 H   0  0  0  0  0  0
   26.1191    4.7406    0.1764 H   0  0  0  0  0  0
   27.0076    3.2307    0.2931 H   0  0  0  0  0  0
   23.8276    5.1913    5.5563 H   0  0  0  0  0  0
   23.1970    4.0307    3.4615 H   0  0  0  0  0  0
   24.8150    3.7582    1.6525 H   0  0  0  0  0  0
   28.7671    4.7753    4.6179 H   0  0  0  0  0  0
   25.9904    6.4424    6.8273 H   0  0  0  0  0  0
   29.2978    3.4945   -1.0042 H   0  0  0  0  0  0
   34.5515    6.8487   -0.0502 H   0  0  0  0  0  0
   37.6521    3.8497   -0.2035 H   0  0  0  0  0  0
   36.3033    2.6292   -1.8443 H   0  0  0  0  0  0
   38.8797    6.5448    1.7791 H   0  0  0  0  0  0
   38.7659    5.3756    0.4869 H   0  0  0  0  0  0
   28.5596    6.6500    2.6532 H   0  0  0  0  0  0
   28.7501    7.7382    3.9850 H   0  0  0  0  0  0
   30.3911    5.5259    1.6780 H   0  0  0  0  0  0
   32.8327    5.3995    1.4443 H   0  0  0  0  0  0
   34.2957    6.2576    3.2410 H   0  0  0  0  0  0
   33.3129    7.2939    5.2563 H   0  0  0  0  0  0
   30.8651    7.5419    5.4528 H   0  0  0  0  0  0
  1  6  1  0  0  0
  1  2  2  0  0  0
  1  7  1  0  0  0
  2  3  1  0  0  0
  2 44  1  0  0  0
  3  4  2  0  0  0
  3 45  1  0  0  0
  4 27  1  0  0  0
  4  5  1  0  0  0
  5  6  2  0  0  0
  5 46  1  0  0  0
  6 47  1  0  0  0
  7  8  1  0  0  0
  7 48  1  0  0  0
  7 49  1  0  0  0
  8 10  1  0  0  0
  8 11  1  0  0  0
  8  9  1  0  0  0
  9 12  1  0  0  0
  9 50  1  0  0  0
 10 51  1  0  0  0
 10 52  1  0  0  0
 10 53  1  0  0  0
 11 54  1  0  0  0
 11 55  1  0  0  0
 11 56  1  0  0  0
 12 13  1  0  0  0
 12 57  1  0  0  0
 12 58  1  0  0  0
 13 26  1  0  0  0
 13 14  1  0  0  0
 13 59  1  0  0  0
 14 15  1  0  0  0
 14 60  1  0  0  0
 14 61  1  0  0  0
 15 16  1  0  0  0
 16 21  2  0  0  0
 16 19  1  0  0  0
 17 20  2  0  0  0
 17 18  1  0  0  0
 17 62  1  0  0  0
 18 19  2  0  0  0
 18 63  1  0  0  0
 19 64  1  0  0  0
 20 24  1  0  0  0
 20 21  1  0  0  0
 21 22  1  0  0  0
 22 23  1  0  0  0
 22 37  1  0  0  0
 22 65  1  0  0  0
 23 24  1  0  0  0
 23 25  2  0  0  0
 24 66  1  0  0  0
 26 67  1  0  0  0
 27 28  1  0  0  0
 28 29  2  0  0  0
 28 33  1  0  0  0
 29 30  1  0  0  0
 30 31  2  0  0  0
 30 68  1  0  0  0
 31 32  1  0  0  0
 31 34  1  0  0  0
 32 33  2  0  0  0
 32 69  1  0  0  0
 33 70  1  0  0  0
 34 35  1  0  0  0
 34 36  2  0  0  0
 35 71  1  0  0  0
 35 72  1  0  0  0
 37 38  1  0  0  0
 37 73  1  0  0  0
 37 74  1  0  0  0
 38 39  2  0  0  0
 38 43  1  0  0  0
 39 40  1  0  0  0
 39 75  1  0  0  0
 40 41  2  0  0  0
 40 76  1  0  0  0
 41 42  1  0  0  0
 41 77  1  0  0  0
 42 43  2  0  0  0
 42 78  1  0  0  0
 43 79  1  0  0  0
M  END
> <s_m_entry_id>
3066

> <s_m_entry_name>
dock_pv.158

> <s_m_Source_Path>
/home/csk/Desktop/cluster/DUD-E-result/adrb1

> <s_m_Source_File>
dock_pv.maegz

> <i_m_Source_File_Index>
158

> <chembl_id>
CHEMBL401335

> <chembl_pref_name>
None

> <i_lp_mmshare_version>
53161

> <i_f3d_flags>
0

> <r_lp_tautomer_probability>
1

> <s_lp_Force_Field>
OPLS_2005

> <r_lp_Energy>
56.666717

> <b_lp_Chiralities_Consistent>
1

> <s_lp_Variant>
CHEMBL213_lig711-1

> <s_i_glide_gridfile>
glide-grid_2vt4

> <i_i_glide_lignum>
813

> <i_i_glide_rotatable_bonds>
14

> <r_i_docking_score>
-7.74240436187625

> <r_i_glide_ligand_efficiency>
-0.180055915392471

> <r_i_glide_ligand_efficiency_sa>
-0.630807543956274

> <r_i_glide_ligand_efficiency_ln>
-1.62614554602656

> <r_i_glide_gscore>
-7.74240436187625

> <r_i_glide_lipo>
-3.63104674107033

> <r_i_glide_hbond>
-0.214003303300988

> <r_i_glide_metal>
0

> <r_i_glide_rewards>
-1.21321826237241

> <r_i_glide_evdw>
-42.3377075195312

> <r_i_glide_ecoul>
-8.07381820678711

> <r_i_glide_erotb>
0.643822051862113

> <r_i_glide_esite>
0

> <r_i_glide_emodel>
-60.2014309210479

> <r_i_glide_energy>
-50.4115257263184

> <r_i_glide_einternal>
10.6428108215332

> <i_i_glide_confnum>
14

> <i_i_glide_posenum>
178

> <r_i_glide_eff_state_penalty>
0

> <s_user_duplicate_titles>
CHEMBL213_lig711

> <s_m_subgroup_title>
dock_pv

> <s_m_subgroupid>
dock_pv

> <b_m_subgroup_collapsed>
1

$$$$
CHEMBL213_lig112
                    3D
 Schrodinger Suite 2021-1.
 67 71  0  0  1  0            999 V2000
   37.3816    6.9714    1.4811 S   0  0  0  0  0  0
   30.7220    6.2501    3.1735 N   0  0  0  0  0  0
   29.6935    6.4043    3.9809 C   0  0  0  0  0  0
   31.7808    6.6583    3.8598 C   0  0  0  0  0  0
   30.0186    6.9308    5.1866 O   0  0  0  0  0  0
   37.2862    6.8123   -0.2744 N   0  0  0  0  0  0
   31.3630    7.0521    5.1220 C   0  0  0  0  0  0
   28.2843    5.9767    3.7469 C   0  0  0  0  0  0
   35.7268    6.8373    2.1610 C   0  0  0  0  0  0
   38.1738    5.8499    1.9864 O   0  0  0  0  0  0
   37.8083    8.3491    1.7317 O   0  0  0  0  0  0
   26.0062    5.7042    4.5358 C   0  0  0  0  0  0
   27.3068    6.1670    4.7320 C   0  0  0  0  0  0
   33.1669    6.6840    3.2912 C   0  0  0  0  0  0
   25.6701    5.0502    3.3487 C   0  0  0  0  0  0
   30.2401    5.5320   -3.1370 C   0  0  0  0  0  0
   28.3778    5.3167   -1.5901 N   0  0  0  0  0  0
   27.9251    5.3556    2.5447 C   0  0  0  0  0  0
   34.6950    6.1838    1.4788 C   0  0  0  0  0  0
   35.4806    7.4100    3.4102 C   0  0  0  0  0  0
   34.2057    7.3389    3.9657 C   0  0  0  0  0  0
   33.4318    6.0948    2.0512 C   0  0  0  0  0  0
   26.6226    4.9001    2.3423 C   0  0  0  0  0  0
   36.9542    5.6437   -0.9726 C   0  0  0  0  0  0
   31.6930    5.2187   -3.4800 C   0  0  1  0  0  0
   25.0784    5.8723    5.5060 F   0  0  0  0  0  0
   24.4273    4.5508    3.1694 F   0  0  0  0  0  0
   33.2295    3.3818   -4.2690 N   0  0  2  0  0  0
   35.9585    3.5175   -2.4713 C   0  0  0  0  0  0
   29.6556    5.0492   -1.9558 C   0  0  0  0  0  0
   36.7132    4.4097   -0.3603 C   0  0  0  0  0  0
   36.7772    5.7760   -2.3455 C   0  0  0  0  0  0
   36.2770    4.7206   -3.1006 C   0  0  0  0  0  0
   36.2076    3.3526   -1.1084 C   0  0  0  0  0  0
   32.5499    5.4516   -2.3741 O   0  0  0  0  0  0
   31.8383    3.7719   -4.0171 C   0  0  0  0  0  0
   29.4496    6.3256   -3.9790 C   0  0  0  0  0  0
   27.6344    6.0886   -2.4230 C   0  0  0  0  0  0
   33.7468    2.5265   -3.2058 C   0  0  0  0  0  0
   35.2836    2.4023   -3.2534 C   0  0  0  0  0  0
   28.1321    6.6157   -3.6159 C   0  0  0  0  0  0
   37.3067    7.6712   -0.8019 H   0  0  0  0  0  0
   31.8617    7.4598    5.9837 H   0  0  0  0  0  0
   27.5518    6.6566    5.6638 H   0  0  0  0  0  0
   28.6576    5.2031    1.7631 H   0  0  0  0  0  0
   34.8310    5.7613    0.4996 H   0  0  0  0  0  0
   36.2688    7.9286    3.9382 H   0  0  0  0  0  0
   34.0256    7.8414    4.9048 H   0  0  0  0  0  0
   32.6457    5.5995    1.5004 H   0  0  0  0  0  0
   26.3608    4.4024    1.4200 H   0  0  0  0  0  0
   32.0159    5.9043   -4.2645 H   0  0  0  0  0  0
   33.8339    4.1756   -4.4433 H   0  0  0  0  0  0
   30.2231    4.4293   -1.2763 H   0  0  0  0  0  0
   36.8592    4.2613    0.6973 H   0  0  0  0  0  0
   37.0059    6.7178   -2.8157 H   0  0  0  0  0  0
   36.1172    4.8574   -4.1604 H   0  0  0  0  0  0
   35.9971    2.4146   -0.6173 H   0  0  0  0  0  0
   33.3412    4.9179   -2.4997 H   0  0  0  0  0  0
   31.3446    3.0629   -3.3464 H   0  0  0  0  0  0
   31.2995    3.6994   -4.9645 H   0  0  0  0  0  0
   29.8522    6.7277   -4.8983 H   0  0  0  0  0  0
   26.6127    6.2736   -2.1228 H   0  0  0  0  0  0
   33.4736    2.9681   -2.2467 H   0  0  0  0  0  0
   33.2759    1.5429   -3.2149 H   0  0  0  0  0  0
   35.5854    1.4497   -2.8147 H   0  0  0  0  0  0
   35.6564    2.3632   -4.2803 H   0  0  0  0  0  0
   27.5064    7.2306   -4.2470 H   0  0  0  0  0  0
  1  6  1  0  0  0
  1  9  1  0  0  0
  1 10  2  0  0  0
  1 11  2  0  0  0
  2  4  1  0  0  0
  2  3  2  0  0  0
  3  8  1  0  0  0
  3  5  1  0  0  0
  4 14  1  0  0  0
  4  7  2  0  0  0
  5  7  1  0  0  0
  6 24  1  0  0  0
  6 42  1  0  0  0
  7 43  1  0  0  0
  8 13  1  0  0  0
  8 18  2  0  0  0
  9 19  2  0  0  0
  9 20  1  0  0  0
 12 13  2  0  0  0
 12 26  1  0  0  0
 12 15  1  0  0  0
 13 44  1  0  0  0
 14 21  1  0  0  0
 14 22  2  0  0  0
 15 23  2  0  0  0
 15 27  1  0  0  0
 16 25  1  0  0  0
 16 30  2  0  0  0
 16 37  1  0  0  0
 17 30  1  0  0  0
 17 38  2  0  0  0
 18 23  1  0  0  0
 18 45  1  0  0  0
 19 22  1  0  0  0
 19 46  1  0  0  0
 20 21  2  0  0  0
 20 47  1  0  0  0
 21 48  1  0  0  0
 22 49  1  0  0  0
 23 50  1  0  0  0
 24 31  2  0  0  0
 24 32  1  0  0  0
 25 36  1  0  0  0
 25 35  1  0  0  0
 25 51  1  0  0  0
 28 39  1  0  0  0
 28 36  1  0  0  0
 28 52  1  0  0  0
 29 33  1  0  0  0
 29 40  1  0  0  0
 29 34  2  0  0  0
 30 53  1  0  0  0
 31 34  1  0  0  0
 31 54  1  0  0  0
 32 33  2  0  0  0
 32 55  1  0  0  0
 33 56  1  0  0  0
 34 57  1  0  0  0
 35 58  1  0  0  0
 36 59  1  0  0  0
 36 60  1  0  0  0
 37 41  2  0  0  0
 37 61  1  0  0  0
 38 41  1  0  0  0
 38 62  1  0  0  0
 39 40  1  0  0  0
 39 63  1  0  0  0
 39 64  1  0  0  0
 40 65  1  0  0  0
 40 66  1  0  0  0
 41 67  1  0  0  0
M  END
> <s_m_entry_id>
3067

> <s_m_entry_name>
dock_pv.159

> <s_m_Source_Path>
/home/csk/Desktop/cluster/DUD-E-result/adrb1

> <s_m_Source_File>
dock_pv.maegz

> <i_m_Source_File_Index>
159

> <chembl_id>
CHEMBL40898

> <chembl_pref_name>
None

> <i_lp_mmshare_version>
53161

> <i_f3d_flags>
0

> <r_lp_tautomer_probability>
1

> <s_lp_Force_Field>
OPLS_2005

> <r_lp_Energy>
29.553404

> <b_lp_Chiralities_Consistent>
1

> <s_lp_Variant>
CHEMBL213_lig112-1

> <s_i_glide_gridfile>
glide-grid_2vt4

> <i_i_glide_lignum>
135

> <i_i_glide_rotatable_bonds>
12

> <r_i_docking_score>
-7.73707837670564

> <r_i_glide_ligand_efficiency>
-0.188709228700138

> <r_i_glide_ligand_efficiency_sa>
-0.650710415017655

> <r_i_glide_ligand_efficiency_ln>
-1.64144692543448

> <r_i_glide_gscore>
-7.73707837670564

> <r_i_glide_lipo>
-3.5385529435564

> <r_i_glide_hbond>
-0.486622012948778

> <r_i_glide_metal>
0

> <r_i_glide_rewards>
-0.809849929343186

> <r_i_glide_evdw>
-58.121395111084

> <r_i_glide_ecoul>
-3.5182032585144

> <r_i_glide_erotb>
0.531746753474087

> <r_i_glide_esite>
0

> <r_i_glide_emodel>
-81.8167254557508

> <r_i_glide_energy>
-61.6395983695984

> <r_i_glide_einternal>
12.084753036499

> <i_i_glide_confnum>
19

> <i_i_glide_posenum>
368

> <r_i_glide_eff_state_penalty>
0

> <s_user_duplicate_titles>
CHEMBL213_lig112

> <s_m_subgroup_title>
dock_pv

> <s_m_subgroupid>
dock_pv

> <b_m_subgroup_collapsed>
1

$$$$
CHEMBL213_lig1210 
                    3D
 Schrodinger Suite 2021-1.
 60 62  0  0  1  0            999 V2000
   24.0126    3.8773    2.3783 C   0  0  0  0  0  0
   24.6011    4.4852    3.4874 C   0  0  0  0  0  0
   25.9649    4.3986    1.0192 C   0  0  0  0  0  0
   24.6808    3.8500    1.1538 C   0  0  0  0  0  0
   26.6084    4.8954    2.1747 C   0  0  0  0  0  0
   25.9114    4.9620    3.3984 C   0  0  0  0  0  0
   26.5407    5.5282    4.5274 N   0  0  0  0  0  0
   27.8087    5.9799    4.6105 C   0  0  0  0  0  0
   28.5501    5.8503    3.3690 C   0  0  0  0  0  0
   28.0092    5.3754    2.2230 C   0  0  0  0  0  0
   28.2550    6.4601    5.6458 O   0  0  0  0  0  0
   23.8555    4.6500    4.6354 O   0  0  0  0  0  0
   26.5685    4.5107   -0.3891 C   0  0  1  0  0  0
   26.6960    5.9990   -0.8322 C   0  0  0  0  0  0
   27.8083    3.8503   -0.4787 O   0  0  0  0  0  0
   26.9597    6.2176   -2.2547 N   0  0  1  0  0  0
   28.3481    5.9850   -2.6280 C   0  0  0  0  0  0
   28.5174    6.2197   -4.1337 C   0  0  0  0  0  0
   29.9829    6.1765   -4.6170 C   0  0  0  0  0  0
   30.7667    4.9324   -4.2070 C   0  0  0  0  0  0
   32.0268    5.0763   -3.6212 C   0  0  0  0  0  0
   32.7721    3.9555   -3.2241 C   0  0  0  0  0  0
   32.2461    2.6798   -3.4503 C   0  0  0  0  0  0
   30.9904    2.5267   -4.0377 C   0  0  0  0  0  0
   30.2524    3.6486   -4.4159 C   0  0  0  0  0  0
   34.0468    4.0265   -2.6313 N   0  0  0  0  0  0
   34.6478    5.0752   -2.0248 C   0  0  0  0  0  0
   36.0704    4.8077   -1.4891 C   0  0  0  0  0  0
   34.1264    6.1803   -1.8511 O   0  0  0  0  0  0
   36.0343    4.4350    0.0081 C   0  0  0  0  0  0
   37.0220    5.9969   -1.7484 C   0  0  0  0  0  0
   23.0082    3.4851    2.4377 H   0  0  0  0  0  0
   24.1659    3.4488    0.2895 H   0  0  0  0  0  0
   26.0134    5.6179    5.3808 H   0  0  0  0  0  0
   29.5827    6.1678    3.3807 H   0  0  0  0  0  0
   28.6361    5.3196    1.3454 H   0  0  0  0  0  0
   22.9072    4.5909    4.4886 H   0  0  0  0  0  0
   25.8984    4.0031   -1.0855 H   0  0  0  0  0  0
   27.4100    6.5516   -0.2206 H   0  0  0  0  0  0
   25.7336    6.4742   -0.6481 H   0  0  0  0  0  0
   27.8091    3.2689   -1.2496 H   0  0  0  0  0  0
   26.3432    5.6194   -2.8045 H   0  0  0  0  0  0
   28.6630    4.9681   -2.4075 H   0  0  0  0  0  0
   29.0011    6.6499   -2.0660 H   0  0  0  0  0  0
   28.0938    7.1887   -4.4074 H   0  0  0  0  0  0
   27.9333    5.4711   -4.6676 H   0  0  0  0  0  0
   30.4919    7.0694   -4.2505 H   0  0  0  0  0  0
   30.0168    6.2487   -5.7041 H   0  0  0  0  0  0
   32.4200    6.0701   -3.4972 H   0  0  0  0  0  0
   32.8044    1.7962   -3.1758 H   0  0  0  0  0  0
   30.5845    1.5382   -4.1972 H   0  0  0  0  0  0
   29.2803    3.5148   -4.8677 H   0  0  0  0  0  0
   34.5596    3.1585   -2.6230 H   0  0  0  0  0  0
   36.4855    3.9525   -2.0278 H   0  0  0  0  0  0
   35.4070    3.5606    0.1904 H   0  0  0  0  0  0
   35.6438    5.2509    0.6191 H   0  0  0  0  0  0
   37.0325    4.1928    0.3767 H   0  0  0  0  0  0
   37.0729    6.2417   -2.8111 H   0  0  0  0  0  0
   36.7031    6.8992   -1.2235 H   0  0  0  0  0  0
   38.0373    5.7654   -1.4233 H   0  0  0  0  0  0
  1  2  2  0  0  0
  1  4  1  0  0  0
  1 32  1  0  0  0
  2  6  1  0  0  0
  2 12  1  0  0  0
  3  5  1  0  0  0
  3  4  2  0  0  0
  3 13  1  0  0  0
  4 33  1  0  0  0
  5  6  2  0  0  0
  5 10  1  0  0  0
  6  7  1  0  0  0
  7  8  1  0  0  0
  7 34  1  0  0  0
  8  9  1  0  0  0
  8 11  2  0  0  0
  9 10  2  0  0  0
  9 35  1  0  0  0
 10 36  1  0  0  0
 12 37  1  0  0  0
 13 14  1  0  0  0
 13 15  1  0  0  0
 13 38  1  0  0  0
 14 16  1  0  0  0
 14 39  1  0  0  0
 14 40  1  0  0  0
 15 41  1  0  0  0
 16 17  1  0  0  0
 16 42  1  0  0  0
 17 18  1  0  0  0
 17 43  1  0  0  0
 17 44  1  0  0  0
 18 19  1  0  0  0
 18 45  1  0  0  0
 18 46  1  0  0  0
 19 20  1  0  0  0
 19 47  1  0  0  0
 19 48  1  0  0  0
 20 21  2  0  0  0
 20 25  1  0  0  0
 21 22  1  0  0  0
 21 49  1  0  0  0
 22 23  2  0  0  0
 22 26  1  0  0  0
 23 24  1  0  0  0
 23 50  1  0  0  0
 24 25  2  0  0  0
 24 51  1  0  0  0
 25 52  1  0  0  0
 26 27  1  0  0  0
 26 53  1  0  0  0
 27 28  1  0  0  0
 27 29  2  0  0  0
 28 30  1  0  0  0
 28 31  1  0  0  0
 28 54  1  0  0  0
 30 55  1  0  0  0
 30 56  1  0  0  0
 30 57  1  0  0  0
 31 58  1  0  0  0
 31 59  1  0  0  0
 31 60  1  0  0  0
M  END
> <s_m_entry_id>
3068

> <s_m_entry_name>
dock_pv.160

> <s_m_Source_Path>
/home/csk/Desktop/cluster/DUD-E-result/adrb1

> <s_m_Source_File>
dock_pv.maegz

> <i_m_Source_File_Index>
160

> <chembl_id>
CHEMBL4541169

> <chembl_pref_name>
None

> <i_lp_mmshare_version>
53161

> <i_f3d_flags>
0

> <r_lp_tautomer_probability>
1

> <s_lp_Force_Field>
OPLS_2005

> <r_lp_Energy>
32.568582

> <b_lp_Chiralities_Consistent>
1

> <s_lp_Variant>
CHEMBL213_lig1210 -2

> <s_i_glide_gridfile>
glide-grid_2vt4

> <i_i_glide_lignum>
1432

> <i_i_glide_rotatable_bonds>
12

> <r_i_docking_score>
-7.7351585258027

> <r_i_glide_ligand_efficiency>
-0.249521242767829

> <r_i_glide_ligand_efficiency_sa>
-0.783841203494281

> <r_i_glide_ligand_efficiency_ln>
-1.7445153017082

> <r_i_glide_gscore>
-7.7351585258027

> <r_i_glide_lipo>
-3.01199465080298

> <r_i_glide_hbond>
-0.56046679917149

> <r_i_glide_metal>
0

> <r_i_glide_rewards>
-1.76805206550603

> <r_i_glide_evdw>
-43.6405220031738

> <r_i_glide_ecoul>
-8.04783916473389

> <r_i_glide_erotb>
0.994556964546572

> <r_i_glide_esite>
0

> <r_i_glide_emodel>
-68.835668273152

> <r_i_glide_energy>
-51.6883611679077

> <r_i_glide_einternal>
11.6826820373535

> <i_i_glide_confnum>
104

> <i_i_glide_posenum>
224

> <r_i_glide_eff_state_penalty>
0

> <s_user_duplicate_titles>
CHEMBL213_lig1210 

> <s_m_subgroup_title>
dock_pv

> <s_m_subgroupid>
dock_pv

> <b_m_subgroup_collapsed>
1

$$$$
CHEMBL213_lig1048
                    3D
 Schrodinger Suite 2021-1.
 73 74  0  0  1  0            999 V2000
   26.3784    4.5878    1.0874 C   0  0  0  0  0  0
   25.2274    3.8215    1.3353 C   0  0  0  0  0  0
   24.6273    3.8503    2.5886 C   0  0  0  0  0  0
   25.1450    4.6603    3.5944 C   0  0  0  0  0  0
   26.2855    5.4433    3.3747 C   0  0  0  0  0  0
   26.9043    5.3841    2.1171 C   0  0  0  0  0  0
   27.0733    4.5631   -0.2718 C   0  0  0  0  0  0
   26.5311    5.5001   -1.1815 O   0  0  0  0  0  0
   24.6481    3.0255    0.3830 O   0  0  0  0  0  0
   26.8423    6.3853    4.4589 C   0  0  2  0  0  0
   28.2133    5.9311    5.0230 C   0  0  0  0  0  0
   25.9587    6.6205    5.5481 O   0  0  0  0  0  0
   28.9349    7.0499    5.6381 N   0  0  2  0  0  0
   29.6911    7.9023    4.7312 C   0  0  0  0  0  0
   30.8942    7.2298    4.0370 C   0  0  0  0  0  0
   32.0469    6.8019    4.9660 C   0  0  0  0  0  0
   33.3948    6.6711    4.2322 C   0  0  0  0  0  0
   34.5395    6.1232    5.1119 C   0  0  0  0  0  0
   35.9417    6.4756    4.5811 C   0  0  0  0  0  0
   36.0524    6.0834    3.2198 O   0  0  0  0  0  0
   37.1693    6.6385    2.5314 C   0  0  0  0  0  0
   37.0721    6.3008    1.0348 C   0  0  0  0  0  0
   35.9433    6.9739    0.4814 O   0  0  0  0  0  0
   35.8585    6.9914   -0.9435 C   0  0  0  0  0  0
   35.5087    5.6269   -1.5336 C   0  0  0  0  0  0
   34.1846    5.3117   -1.8626 C   0  0  0  0  0  0
   33.8726    4.0950   -2.4859 C   0  0  0  0  0  0
   34.8940    3.1802   -2.7425 C   0  0  0  0  0  0
   36.2082    3.4746   -2.3899 C   0  0  0  0  0  0
   36.5202    4.6995   -1.8029 C   0  0  0  0  0  0
   32.5780    3.7488   -2.8987 N   0  0  0  0  0  0
   31.1444    4.7452   -2.6173 S   0  0  0  0  0  0
   29.8294    3.8385   -3.5993 C   0  0  0  0  0  0
   30.8347    4.6532   -1.1902 O   0  0  0  0  0  0
   31.4043    6.0465   -3.2463 O   0  0  0  0  0  0
   23.7424    3.2609    2.7752 H   0  0  0  0  0  0
   24.6393    4.6877    4.5487 H   0  0  0  0  0  0
   27.7875    5.9779    1.9305 H   0  0  0  0  0  0
   28.1355    4.7895   -0.1525 H   0  0  0  0  0  0
   27.0314    3.5616   -0.7068 H   0  0  0  0  0  0
   26.1123    5.0324   -1.9176 H   0  0  0  0  0  0
   24.5247    3.4528   -0.4753 H   0  0  0  0  0  0
   26.9454    7.3575    3.9849 H   0  0  0  0  0  0
   28.0440    5.1373    5.7490 H   0  0  0  0  0  0
   28.8351    5.4886    4.2458 H   0  0  0  0  0  0
   26.3938    7.2389    6.1508 H   0  0  0  0  0  0
   29.3086    6.9392    6.5683 H   0  0  0  0  0  0
   29.0153    8.3177    3.9878 H   0  0  0  0  0  0
   30.0612    8.7453    5.3135 H   0  0  0  0  0  0
   30.5672    6.3961    3.4160 H   0  0  0  0  0  0
   31.2942    7.9570    3.3325 H   0  0  0  0  0  0
   32.1562    7.5261    5.7668 H   0  0  0  0  0  0
   31.8077    5.8681    5.4630 H   0  0  0  0  0  0
   33.2833    6.0331    3.3533 H   0  0  0  0  0  0
   33.6697    7.6545    3.8476 H   0  0  0  0  0  0
   34.4499    6.5186    6.1242 H   0  0  0  0  0  0
   34.4363    5.0411    5.2024 H   0  0  0  0  0  0
   36.1042    7.5496    4.6899 H   0  0  0  0  0  0
   36.7081    5.9707    5.1721 H   0  0  0  0  0  0
   37.1818    7.7248    2.6429 H   0  0  0  0  0  0
   38.1035    6.2608    2.9496 H   0  0  0  0  0  0
   37.9896    6.6122    0.5325 H   0  0  0  0  0  0
   36.9747    5.2222    0.9010 H   0  0  0  0  0  0
   35.0754    7.7016   -1.2129 H   0  0  0  0  0  0
   36.7742    7.3858   -1.3887 H   0  0  0  0  0  0
   33.4109    6.0306   -1.6475 H   0  0  0  0  0  0
   34.6788    2.2366   -3.2218 H   0  0  0  0  0  0
   36.9990    2.7627   -2.5865 H   0  0  0  0  0  0
   37.5536    4.9217   -1.5674 H   0  0  0  0  0  0
   32.4374    2.8569   -3.3480 H   0  0  0  0  0  0
   28.8710    4.3177   -3.4097 H   0  0  0  0  0  0
   30.0790    3.8931   -4.6546 H   0  0  0  0  0  0
   29.8095    2.8075   -3.2595 H   0  0  0  0  0  0
  1  6  1  0  0  0
  1  2  2  0  0  0
  1  7  1  0  0  0
  2  9  1  0  0  0
  2  3  1  0  0  0
  3  4  2  0  0  0
  3 36  1  0  0  0
  4  5  1  0  0  0
  4 37  1  0  0  0
  5 10  1  0  0  0
  5  6  2  0  0  0
  6 38  1  0  0  0
  7  8  1  0  0  0
  7 39  1  0  0  0
  7 40  1  0  0  0
  8 41  1  0  0  0
  9 42  1  0  0  0
 10 11  1  0  0  0
 10 12  1  0  0  0
 10 43  1  0  0  0
 11 13  1  0  0  0
 11 44  1  0  0  0
 11 45  1  0  0  0
 12 46  1  0  0  0
 13 14  1  0  0  0
 13 47  1  0  0  0
 14 15  1  0  0  0
 14 48  1  0  0  0
 14 49  1  0  0  0
 15 16  1  0  0  0
 15 50  1  0  0  0
 15 51  1  0  0  0
 16 17  1  0  0  0
 16 52  1  0  0  0
 16 53  1  0  0  0
 17 18  1  0  0  0
 17 54  1  0  0  0
 17 55  1  0  0  0
 18 19  1  0  0  0
 18 56  1  0  0  0
 18 57  1  0  0  0
 19 20  1  0  0  0
 19 58  1  0  0  0
 19 59  1  0  0  0
 20 21  1  0  0  0
 21 22  1  0  0  0
 21 60  1  0  0  0
 21 61  1  0  0  0
 22 23  1  0  0  0
 22 62  1  0  0  0
 22 63  1  0  0  0
 23 24  1  0  0  0
 24 25  1  0  0  0
 24 64  1  0  0  0
 24 65  1  0  0  0
 25 26  2  0  0  0
 25 30  1  0  0  0
 26 27  1  0  0  0
 26 66  1  0  0  0
 27 28  2  0  0  0
 27 31  1  0  0  0
 28 29  1  0  0  0
 28 67  1  0  0  0
 29 30  2  0  0  0
 29 68  1  0  0  0
 30 69  1  0  0  0
 31 32  1  0  0  0
 31 70  1  0  0  0
 32 33  1  0  0  0
 32 34  2  0  0  0
 32 35  2  0  0  0
 33 71  1  0  0  0
 33 72  1  0  0  0
 33 73  1  0  0  0
M  END
> <s_m_entry_id>
3069

> <s_m_entry_name>
dock_pv.161

> <s_m_Source_Path>
/home/csk/Desktop/cluster/DUD-E-result/adrb1

> <s_m_Source_File>
dock_pv.maegz

> <i_m_Source_File_Index>
161

> <chembl_id>
CHEMBL1085399

> <chembl_pref_name>
None

> <i_lp_mmshare_version>
53161

> <i_f3d_flags>
0

> <r_lp_tautomer_probability>
0.999999999997365

> <s_lp_Force_Field>
OPLS_2005

> <r_lp_Energy>
12.884695

> <b_lp_Chiralities_Consistent>
1

> <s_lp_Variant>
CHEMBL213_lig1048-1

> <s_i_glide_gridfile>
glide-grid_2vt4

> <i_i_glide_lignum>
1216

> <i_i_glide_rotatable_bonds>
21

> <r_i_docking_score>
-7.73270230074231

> <r_i_glide_ligand_efficiency>
-0.22093435144978

> <r_i_glide_ligand_efficiency_sa>
-0.722690912934269

> <r_i_glide_ligand_efficiency_ln>
-1.69749977309396

> <r_i_glide_gscore>
-7.73270230074231

> <r_i_glide_lipo>
-3.26630812709198

> <r_i_glide_hbond>
-0.897596981987602

> <r_i_glide_metal>
0

> <r_i_glide_rewards>
-0.573918171033164

> <r_i_glide_evdw>
-54.9874153137207

> <r_i_glide_ecoul>
-10.3487787246704

> <r_i_glide_erotb>
1.33569722054733

> <r_i_glide_esite>
-0.0288886667902983

> <r_i_glide_emodel>
-87.7407060764711

> <r_i_glide_energy>
-65.3361940383911

> <r_i_glide_einternal>
15.9527349472046

> <i_i_glide_confnum>
122

> <i_i_glide_posenum>
209

> <r_i_glide_eff_state_penalty>
0

> <s_user_duplicate_titles>
CHEMBL213_lig1048,631572

> <s_m_subgroup_title>
dock_pv

> <s_m_subgroupid>
dock_pv

> <b_m_subgroup_collapsed>
1

$$$$
CHEMBL213_lig1024
                    3D
 Schrodinger Suite 2021-1.
 72 74  0  0  1  0            999 V2000
   36.0025    2.3470   -2.9658 C   0  0  0  0  0  0
   36.1015    3.5934   -3.8652 C   0  0  0  0  0  0
   37.1415    3.3243   -4.9799 C   0  0  0  0  0  0
   30.0079    2.3479   -5.8798 C   0  0  0  0  0  0
   30.9512    1.9181   -6.8154 C   0  0  0  0  0  0
   32.1197    2.6499   -7.0367 C   0  0  0  0  0  0
   32.3708    3.8326   -6.3273 C   0  0  0  0  0  0
   28.8862    1.5787   -5.6863 O   0  0  0  0  0  0
   33.6642    4.6180   -6.5846 C   0  0  2  0  0  0
   34.5459    4.8970   -5.3385 C   0  0  0  0  0  0
   33.4084    5.8499   -7.2293 O   0  0  0  0  0  0
   34.7790    3.7185   -4.4956 N   0  0  1  0  0  0
   36.5249    4.8454   -3.0325 C   0  0  0  0  0  0
   35.8225    5.0655   -1.6949 C   0  0  0  0  0  0
   36.4901    4.7842   -0.4977 C   0  0  0  0  0  0
   35.8847    5.0687    0.7260 C   0  0  0  0  0  0
   34.5978    5.6264    0.7536 C   0  0  0  0  0  0
   33.9168    5.8498   -0.4447 C   0  0  0  0  0  0
   34.5297    5.5829   -1.6627 C   0  0  0  0  0  0
   33.9062    6.0154    1.9137 N   0  0  0  0  0  0
   34.2479    5.9353    3.2167 C   0  0  0  0  0  0
   30.2313    3.5395   -5.1746 C   0  0  0  0  0  0
   31.4048    4.2678   -5.4091 C   0  0  0  0  0  0
   31.5791    5.4796   -4.7769 O   0  0  0  0  0  0
   31.0027    5.5996   -3.4619 C   0  0  0  0  0  0
   29.5708    5.0149   -3.3321 C   0  0  0  0  0  0
   29.3258    4.0439   -4.2291 N   0  0  0  0  0  0
   28.7467    5.3984   -2.5069 O   0  0  0  0  0  0
   33.2368    6.5132    4.2293 C   0  0  0  0  0  0
   35.2995    5.4521    3.6409 O   0  0  0  0  0  0
   31.7957    6.7684    3.7001 C   0  0  0  0  0  0
   30.8377    7.2512    4.8019 C   0  0  0  0  0  0
   29.4356    7.2466    4.3850 N   0  0  0  0  0  0
   28.4136    6.9662    5.2104 C   0  0  0  0  0  0
   28.6079    6.6502    6.3863 O   0  0  0  0  0  0
   26.9837    7.0810    4.6327 C   0  0  0  0  0  0
   25.9795    6.6490    5.5850 N   0  0  0  0  0  0
   36.9197    2.1954   -2.3971 H   0  0  0  0  0  0
   35.1851    2.4250   -2.2472 H   0  0  0  0  0  0
   35.8161    1.4499   -3.5513 H   0  0  0  0  0  0
   38.1278    3.1224   -4.5602 H   0  0  0  0  0  0
   36.8677    2.4616   -5.5902 H   0  0  0  0  0  0
   37.2625    4.1702   -5.6557 H   0  0  0  0  0  0
   30.7806    1.0056   -7.3686 H   0  0  0  0  0  0
   32.8344    2.2904   -7.7641 H   0  0  0  0  0  0
   28.3428    1.8518   -4.9410 H   0  0  0  0  0  0
   34.2749    4.0390   -7.2794 H   0  0  0  0  0  0
   35.4845    5.3325   -5.6762 H   0  0  0  0  0  0
   34.0763    5.6497   -4.7115 H   0  0  0  0  0  0
   34.1710    6.4349   -7.1131 H   0  0  0  0  0  0
   34.5567    2.8683   -4.9896 H   0  0  0  0  0  0
   37.5978    4.7895   -2.8378 H   0  0  0  0  0  0
   36.4139    5.7564   -3.6147 H   0  0  0  0  0  0
   37.4882    4.3639   -0.5124 H   0  0  0  0  0  0
   36.4371    4.8617    1.6277 H   0  0  0  0  0  0
   32.9151    6.2527   -0.4411 H   0  0  0  0  0  0
   34.0056    5.7897   -2.5805 H   0  0  0  0  0  0
   33.0283    6.4753    1.7266 H   0  0  0  0  0  0
   30.9740    6.6501   -3.1841 H   0  0  0  0  0  0
   31.6211    5.0485   -2.7541 H   0  0  0  0  0  0
   28.4118    3.6285   -4.1218 H   0  0  0  0  0  0
   33.1884    5.8079    5.0626 H   0  0  0  0  0  0
   33.6581    7.4400    4.6207 H   0  0  0  0  0  0
   31.8159    7.5157    2.9047 H   0  0  0  0  0  0
   31.4037    5.8469    3.2678 H   0  0  0  0  0  0
   30.9926    6.6251    5.6812 H   0  0  0  0  0  0
   31.0967    8.2498    5.1397 H   0  0  0  0  0  0
   29.2410    7.5249    3.4358 H   0  0  0  0  0  0
   26.7981    8.1264    4.3887 H   0  0  0  0  0  0
   26.9055    6.5041    3.7109 H   0  0  0  0  0  0
   26.0771    7.2326    6.4130 H   0  0  0  0  0  0
   25.0462    6.8182    5.2335 H   0  0  0  0  0  0
  1  2  1  0  0  0
  1 38  1  0  0  0
  1 39  1  0  0  0
  1 40  1  0  0  0
  2  3  1  0  0  0
  2 12  1  0  0  0
  2 13  1  0  0  0
  3 41  1  0  0  0
  3 42  1  0  0  0
  3 43  1  0  0  0
  4  5  1  0  0  0
  4 22  2  0  0  0
  4  8  1  0  0  0
  5  6  2  0  0  0
  5 44  1  0  0  0
  6  7  1  0  0  0
  6 45  1  0  0  0
  7  9  1  0  0  0
  7 23  2  0  0  0
  8 46  1  0  0  0
  9 10  1  0  0  0
  9 11  1  0  0  0
  9 47  1  0  0  0
 10 12  1  0  0  0
 10 48  1  0  0  0
 10 49  1  0  0  0
 11 50  1  0  0  0
 12 51  1  0  0  0
 13 14  1  0  0  0
 13 52  1  0  0  0
 13 53  1  0  0  0
 14 19  1  0  0  0
 14 15  2  0  0  0
 15 16  1  0  0  0
 15 54  1  0  0  0
 16 17  2  0  0  0
 16 55  1  0  0  0
 17 18  1  0  0  0
 17 20  1  0  0  0
 18 19  2  0  0  0
 18 56  1  0  0  0
 19 57  1  0  0  0
 20 21  1  0  0  0
 20 58  1  0  0  0
 21 29  1  0  0  0
 21 30  2  0  0  0
 22 23  1  0  0  0
 22 27  1  0  0  0
 23 24  1  0  0  0
 24 25  1  0  0  0
 25 26  1  0  0  0
 25 59  1  0  0  0
 25 60  1  0  0  0
 26 27  1  0  0  0
 26 28  2  0  0  0
 27 61  1  0  0  0
 29 31  1  0  0  0
 29 62  1  0  0  0
 29 63  1  0  0  0
 31 32  1  0  0  0
 31 64  1  0  0  0
 31 65  1  0  0  0
 32 33  1  0  0  0
 32 66  1  0  0  0
 32 67  1  0  0  0
 33 34  1  0  0  0
 33 68  1  0  0  0
 34 35  2  0  0  0
 34 36  1  0  0  0
 36 37  1  0  0  0
 36 69  1  0  0  0
 36 70  1  0  0  0
 37 71  1  0  0  0
 37 72  1  0  0  0
M  END
> <s_m_entry_id>
3070

> <s_m_entry_name>
dock_pv.162

> <s_m_Source_Path>
/home/csk/Desktop/cluster/DUD-E-result/adrb1

> <s_m_Source_File>
dock_pv.maegz

> <i_m_Source_File_Index>
162

> <chembl_id>
CHEMBL583235

> <chembl_pref_name>
None

> <i_lp_mmshare_version>
53161

> <i_f3d_flags>
0

> <r_lp_tautomer_probability>
1

> <s_lp_Force_Field>
OPLS_2005

> <r_lp_Energy>
34.271563

> <b_lp_Chiralities_Consistent>
1

> <s_lp_Variant>
CHEMBL213_lig1024-1

> <s_i_glide_gridfile>
glide-grid_2vt4

> <i_i_glide_lignum>
1169

> <i_i_glide_rotatable_bonds>
16

> <r_i_docking_score>
-7.73131780399633

> <r_i_glide_ligand_efficiency>
-0.208954535243144

> <r_i_glide_ligand_efficiency_sa>
-0.696282867499655

> <r_i_glide_ligand_efficiency_ln>
-1.67674158388186

> <r_i_glide_gscore>
-7.73131780399633

> <r_i_glide_lipo>
-2.53247451052464

> <r_i_glide_hbond>
-0.9092911197521

> <r_i_glide_metal>
0

> <r_i_glide_rewards>
-0.468870971566571

> <r_i_glide_evdw>
-57.8008651733398

> <r_i_glide_ecoul>
-12.8497838973999

> <r_i_glide_erotb>
1.01069663117348

> <r_i_glide_esite>
-0.0138669900495232

> <r_i_glide_emodel>
-97.0365610201065

> <r_i_glide_energy>
-70.6506490707397

> <r_i_glide_einternal>
14.8306818008423

> <i_i_glide_confnum>
56

> <i_i_glide_posenum>
365

> <r_i_glide_eff_state_penalty>
0

> <s_user_duplicate_titles>
CHEMBL213_lig1024,576205

> <s_m_subgroup_title>
dock_pv

> <s_m_subgroupid>
dock_pv

> <b_m_subgroup_collapsed>
1

$$$$
CHEMBL213_lig221
                    3D
 Schrodinger Suite 2021-1.
 62 63  0  0  1  0            999 V2000
   31.1702    4.8444   -3.5804 S   0  0  0  0  0  0
   30.4027    4.6862   -2.0034 N   0  0  0  0  0  0
   31.5567    6.2500   -3.6953 O   0  0  0  0  0  0
   32.1737    3.7780   -3.6538 O   0  0  0  0  0  0
   31.0264    5.0500   -0.8034 C   0  0  0  0  0  0
   26.6052    5.7349    3.8605 O   0  0  0  0  0  0
   29.7659    4.4903   -4.7854 C   0  0  0  0  0  0
   26.0617    4.9722    2.8432 C   0  0  0  0  0  0
   28.3979    7.1027    4.8508 C   0  0  1  0  0  0
   24.8146    3.3837    0.9125 C   0  0  0  0  0  0
   28.0056    6.0053    3.8388 C   0  0  0  0  0  0
   30.8696    6.6500    4.5244 N   0  0  2  0  0  0
   32.1492    5.7481    1.6684 C   0  0  0  0  0  0
   30.2606    4.9900    0.3569 C   0  0  0  0  0  0
   32.3686    5.4500   -0.7268 C   0  0  0  0  0  0
   26.5737    4.9084    1.5345 C   0  0  0  0  0  0
   24.9089    4.2508    3.1565 C   0  0  0  0  0  0
   25.9452    4.1202    0.5703 C   0  0  0  0  0  0
   24.2913    3.4500    2.1993 C   0  0  0  0  0  0
   30.8285    5.3043    1.5867 C   0  0  0  0  0  0
   32.9186    5.8167    0.5018 C   0  0  0  0  0  0
   28.2602    6.6500    6.1859 O   0  0  0  0  0  0
   24.2122    2.5786   -0.0134 O   0  0  0  0  0  0
   29.8202    7.6704    4.5941 C   0  0  0  0  0  0
   32.1098    7.1029    3.8975 C   0  0  0  0  0  0
   32.7920    6.0243    3.0310 C   0  0  0  0  0  0
   29.0764    3.1559   -4.4378 C   0  0  0  0  0  0
   29.0860    2.1632   -6.8154 C   0  0  0  0  0  0
   28.2596    2.5086   -5.5660 C   0  0  0  0  0  0
   28.2260    1.5661   -7.9227 C   0  0  0  0  0  0
   29.4460    4.3680   -1.9789 H   0  0  0  0  0  0
   29.0673    5.3234   -4.7073 H   0  0  0  0  0  0
   30.2097    4.5176   -5.7773 H   0  0  0  0  0  0
   27.6870    7.9223    4.7469 H   0  0  0  0  0  0
   28.5552    5.0827    4.0334 H   0  0  0  0  0  0
   28.3164    6.3647    2.8612 H   0  0  0  0  0  0
   30.5993    5.7078    4.2591 H   0  0  0  0  0  0
   29.2385    4.6501    0.3097 H   0  0  0  0  0  0
   32.9930    5.4879   -1.6063 H   0  0  0  0  0  0
   27.4279    5.4857    1.2293 H   0  0  0  0  0  0
   24.4976    4.3060    4.1530 H   0  0  0  0  0  0
   26.3357    4.0758   -0.4369 H   0  0  0  0  0  0
   23.4080    2.8811    2.4510 H   0  0  0  0  0  0
   30.2414    5.1735    2.4780 H   0  0  0  0  0  0
   33.9520    6.1291    0.5440 H   0  0  0  0  0  0
   27.6592    7.2536    6.6440 H   0  0  0  0  0  0
   23.8315    3.0498   -0.7788 H   0  0  0  0  0  0
   29.7919    8.2012    3.6413 H   0  0  0  0  0  0
   30.0743    8.4144    5.3504 H   0  0  0  0  0  0
   31.9045    7.9517    3.2443 H   0  0  0  0  0  0
   32.8042    7.4502    4.6615 H   0  0  0  0  0  0
   33.8217    6.3446    2.8657 H   0  0  0  0  0  0
   32.8751    5.0896    3.5851 H   0  0  0  0  0  0
   29.8080    2.4322   -4.0727 H   0  0  0  0  0  0
   28.3932    3.3472   -3.6148 H   0  0  0  0  0  0
   29.5725    3.0500   -7.2148 H   0  0  0  0  0  0
   29.8854    1.4684   -6.5532 H   0  0  0  0  0  0
   27.8155    1.5900   -5.1769 H   0  0  0  0  0  0
   27.4101    3.1424   -5.8261 H   0  0  0  0  0  0
   28.8197    1.4031   -8.8150 H   0  0  0  0  0  0
   27.8074    0.6134   -7.6150 H   0  0  0  0  0  0
   27.4081    2.2339   -8.1860 H   0  0  0  0  0  0
  1  2  1  0  0  0
  1  3  2  0  0  0
  1  4  2  0  0  0
  1  7  1  0  0  0
  2  5  1  0  0  0
  2 31  1  0  0  0
  5 14  1  0  0  0
  5 15  2  0  0  0
  6 11  1  0  0  0
  6  8  1  0  0  0
  7 27  1  0  0  0
  7 32  1  0  0  0
  7 33  1  0  0  0
  8 16  2  0  0  0
  8 17  1  0  0  0
  9 24  1  0  0  0
  9 11  1  0  0  0
  9 22  1  0  0  0
  9 34  1  0  0  0
 10 19  1  0  0  0
 10 23  1  0  0  0
 10 18  2  0  0  0
 11 35  1  0  0  0
 11 36  1  0  0  0
 12 25  1  0  0  0
 12 24  1  0  0  0
 12 37  1  0  0  0
 13 21  2  0  0  0
 13 26  1  0  0  0
 13 20  1  0  0  0
 14 20  2  0  0  0
 14 38  1  0  0  0
 15 21  1  0  0  0
 15 39  1  0  0  0
 16 18  1  0  0  0
 16 40  1  0  0  0
 17 19  2  0  0  0
 17 41  1  0  0  0
 18 42  1  0  0  0
 19 43  1  0  0  0
 20 44  1  0  0  0
 21 45  1  0  0  0
 22 46  1  0  0  0
 23 47  1  0  0  0
 24 48  1  0  0  0
 24 49  1  0  0  0
 25 26  1  0  0  0
 25 50  1  0  0  0
 25 51  1  0  0  0
 26 52  1  0  0  0
 26 53  1  0  0  0
 27 29  1  0  0  0
 27 54  1  0  0  0
 27 55  1  0  0  0
 28 29  1  0  0  0
 28 30  1  0  0  0
 28 56  1  0  0  0
 28 57  1  0  0  0
 29 58  1  0  0  0
 29 59  1  0  0  0
 30 60  1  0  0  0
 30 61  1  0  0  0
 30 62  1  0  0  0
M  END
> <s_m_entry_id>
3071

> <s_m_entry_name>
dock_pv.163

> <s_m_Source_Path>
/home/csk/Desktop/cluster/DUD-E-result/adrb1

> <s_m_Source_File>
dock_pv.maegz

> <i_m_Source_File_Index>
163

> <chembl_id>
CHEMBL12498

> <chembl_pref_name>
None

> <i_lp_mmshare_version>
53161

> <i_f3d_flags>
0

> <r_lp_tautomer_probability>
1

> <s_lp_Force_Field>
OPLS_2005

> <r_lp_Energy>
18.34571

> <b_lp_Chiralities_Consistent>
1

> <s_lp_Variant>
CHEMBL213_lig221-1

> <s_i_glide_gridfile>
glide-grid_2vt4

> <i_i_glide_lignum>
256

> <i_i_glide_rotatable_bonds>
16

> <r_i_docking_score>
-7.72799730447489

> <r_i_glide_ligand_efficiency>
-0.257599910149163

> <r_i_glide_ligand_efficiency_sa>
-0.800422813438807

> <r_i_glide_ligand_efficiency_ln>
-1.75588519085148

> <r_i_glide_gscore>
-7.72799730447489

> <r_i_glide_lipo>
-3.41614847771431

> <r_i_glide_hbond>
-0.371625381071674

> <r_i_glide_metal>
0

> <r_i_glide_rewards>
-0.787371626007965

> <r_i_glide_evdw>
-36.3640060424805

> <r_i_glide_ecoul>
-17.6939067840576

> <r_i_glide_erotb>
1.35967963817899

> <r_i_glide_esite>
-0.0402451381272647

> <r_i_glide_emodel>
-69.9280577224047

> <r_i_glide_energy>
-54.0579128265381

> <r_i_glide_einternal>
17.7324371337891

> <i_i_glide_confnum>
27

> <i_i_glide_posenum>
294

> <r_i_glide_eff_state_penalty>
0

> <s_user_duplicate_titles>
CHEMBL213_lig221

> <s_m_subgroup_title>
dock_pv

> <s_m_subgroupid>
dock_pv

> <b_m_subgroup_collapsed>
1

$$$$
CHEMBL213_lig760
                    3D
 Schrodinger Suite 2021-1.
 51 53  0  0  1  0            999 V2000
   33.8778    2.2112   -8.3503 C   0  0  0  0  0  0
   34.5043    3.3258   -7.7973 C   0  0  0  0  0  0
   33.8078    4.1428   -6.9085 C   0  0  0  0  0  0
   32.4835    3.8480   -6.5816 C   0  0  0  0  0  0
   31.8306    2.7358   -7.1347 C   0  0  0  0  0  0
   32.5565    1.9176   -8.0141 C   0  0  0  0  0  0
   34.7284    1.1964   -9.4578 Cl  0  0  0  0  0  0
   30.3424    2.4686   -6.8305 C   0  0  2  0  0  0
   29.9924    2.1739   -5.3409 C   0  0  0  0  0  0
   30.1991    3.2670   -4.3829 N   0  0  1  0  0  0
   29.5044    4.5008   -4.7439 C   0  0  0  0  0  0
   29.7700    5.6176   -3.7191 C   0  0  0  0  0  0
   28.6555    5.7848   -2.7008 C   0  0  0  0  0  0
   27.4852    6.4538   -3.0678 C   0  0  0  0  0  0
   26.4724    6.6496   -2.1340 C   0  0  0  0  0  0
   26.6268    6.1916   -0.8307 C   0  0  0  0  0  0
   27.7861    5.4996   -0.4505 C   0  0  0  0  0  0
   28.7963    5.3030   -1.3955 C   0  0  0  0  0  0
   29.7705    1.4303   -7.6120 O   0  0  0  0  0  0
   28.0174    5.0505    0.8346 O   0  0  0  0  0  0
   27.0061    4.9713    1.7643 C   0  0  0  0  0  0
   25.8370    4.2474    1.5140 C   0  0  0  0  0  0
   24.8479    4.1523    2.4892 C   0  0  0  0  0  0
   25.0089    4.7862    3.7215 C   0  0  0  0  0  0
   26.1864    5.5127    3.9885 C   0  0  0  0  0  0
   27.1789    5.5882    3.0024 C   0  0  0  0  0  0
   26.4032    6.2305    5.2898 C   0  0  0  0  0  0
   26.3726    7.5852    5.1848 O   0  0  0  0  0  0
   26.6084    5.6394    6.3463 O   0  0  0  0  0  0
   23.7175    4.6500    4.8705 Cl  0  0  0  0  0  0
   35.5271    3.5613   -8.0550 H   0  0  0  0  0  0
   34.2926    5.0100   -6.4814 H   0  0  0  0  0  0
   31.9711    4.5104   -5.9030 H   0  0  0  0  0  0
   32.0981    1.0507   -8.4551 H   0  0  0  0  0  0
   29.7834    3.3422   -7.1537 H   0  0  0  0  0  0
   30.5703    1.3142   -4.9998 H   0  0  0  0  0  0
   28.9435    1.8784   -5.2648 H   0  0  0  0  0  0
   29.8584    2.9656   -3.4753 H   0  0  0  0  0  0
   28.4327    4.3025   -4.8145 H   0  0  0  0  0  0
   29.8127    4.8749   -5.7173 H   0  0  0  0  0  0
   29.8550    6.5661   -4.2533 H   0  0  0  0  0  0
   30.7392    5.5015   -3.2301 H   0  0  0  0  0  0
   27.3550    6.8255   -4.0743 H   0  0  0  0  0  0
   25.5612    7.1533   -2.4147 H   0  0  0  0  0  0
   25.8336    6.3791   -0.1262 H   0  0  0  0  0  0
   29.6988    4.7871   -1.1037 H   0  0  0  0  0  0
   29.6598    1.7598   -8.5083 H   0  0  0  0  0  0
   25.7021    3.7517    0.5630 H   0  0  0  0  0  0
   23.9475    3.5925    2.2817 H   0  0  0  0  0  0
   28.0949    6.1347    3.1818 H   0  0  0  0  0  0
   26.5397    7.9904    6.0577 H   0  0  0  0  0  0
  1  6  1  0  0  0
  1  2  2  0  0  0
  1  7  1  0  0  0
  2  3  1  0  0  0
  2 31  1  0  0  0
  3  4  2  0  0  0
  3 32  1  0  0  0
  4  5  1  0  0  0
  4 33  1  0  0  0
  5  8  1  0  0  0
  5  6  2  0  0  0
  6 34  1  0  0  0
  8  9  1  0  0  0
  8 19  1  0  0  0
  8 35  1  0  0  0
  9 10  1  0  0  0
  9 36  1  0  0  0
  9 37  1  0  0  0
 10 11  1  0  0  0
 10 38  1  0  0  0
 11 12  1  0  0  0
 11 39  1  0  0  0
 11 40  1  0  0  0
 12 13  1  0  0  0
 12 41  1  0  0  0
 12 42  1  0  0  0
 13 18  1  0  0  0
 13 14  2  0  0  0
 14 15  1  0  0  0
 14 43  1  0  0  0
 15 16  2  0  0  0
 15 44  1  0  0  0
 16 17  1  0  0  0
 16 45  1  0  0  0
 17 18  2  0  0  0
 17 20  1  0  0  0
 18 46  1  0  0  0
 19 47  1  0  0  0
 20 21  1  0  0  0
 21 22  2  0  0  0
 21 26  1  0  0  0
 22 23  1  0  0  0
 22 48  1  0  0  0
 23 24  2  0  0  0
 23 49  1  0  0  0
 24 25  1  0  0  0
 24 30  1  0  0  0
 25 26  2  0  0  0
 25 27  1  0  0  0
 26 50  1  0  0  0
 27 28  1  0  0  0
 27 29  2  0  0  0
 28 51  1  0  0  0
M  END
> <s_m_entry_id>
3072

> <s_m_entry_name>
dock_pv.164

> <s_m_Source_Path>
/home/csk/Desktop/cluster/DUD-E-result/adrb1

> <s_m_Source_File>
dock_pv.maegz

> <i_m_Source_File_Index>
164

> <chembl_id>
CHEMBL484265

> <chembl_pref_name>
None

> <i_lp_mmshare_version>
53161

> <i_f3d_flags>
0

> <r_lp_tautomer_probability>
1

> <s_lp_Force_Field>
OPLS_2005

> <r_lp_Energy>
32.122456

> <b_lp_Chiralities_Consistent>
1

> <s_lp_Variant>
CHEMBL213_lig760-1

> <s_i_glide_gridfile>
glide-grid_2vt4

> <i_i_glide_lignum>
866

> <i_i_glide_rotatable_bonds>
11

> <r_i_docking_score>
-7.72791054759478

> <r_i_glide_ligand_efficiency>
-0.257597018253159

> <r_i_glide_ligand_efficiency_sa>
-0.800413827645551

> <r_i_glide_ligand_efficiency_ln>
-1.75586547874303

> <r_i_glide_gscore>
-7.72791054759478

> <r_i_glide_lipo>
-3.34303863443434

> <r_i_glide_hbond>
0

> <r_i_glide_metal>
0

> <r_i_glide_rewards>
-1.20517845256899

> <r_i_glide_evdw>
-43.2869987487793

> <r_i_glide_ecoul>
-12.1277484893799

> <r_i_glide_erotb>
0.803818750254508

> <r_i_glide_esite>
0

> <r_i_glide_emodel>
-77.4172816615483

> <r_i_glide_energy>
-55.4147472381592

> <r_i_glide_einternal>
6.93682670593262

> <i_i_glide_confnum>
85

> <i_i_glide_posenum>
356

> <r_i_glide_eff_state_penalty>
0

> <s_user_duplicate_titles>
CHEMBL213_lig760,492623

> <s_m_subgroup_title>
dock_pv

> <s_m_subgroupid>
dock_pv

> <b_m_subgroup_collapsed>
1

$$$$
CHEMBL213_lig778
                    3D
 Schrodinger Suite 2021-1.
 72 73  0  0  1  0            999 V2000
   26.2529    5.8504    4.6169 C   0  0  0  0  0  0
   27.6212    6.1108    4.7892 C   0  0  0  0  0  0
   28.5153    5.8131    3.7632 C   0  0  0  0  0  0
   28.0549    5.2629    2.5687 C   0  0  0  0  0  0
   26.6951    4.9942    2.3743 C   0  0  0  0  0  0
   25.8068    5.2859    3.4182 C   0  0  0  0  0  0
   28.1148    6.6517    5.9522 O   0  0  0  0  0  0
   25.2343    6.1523    5.7071 C   0  0  0  0  0  0
   24.7020    7.4482    5.5868 O   0  0  0  0  0  0
   26.2082    4.3442    1.0619 C   0  0  2  0  0  0
   26.3304    5.2504   -0.1899 C   0  0  0  0  0  0
   24.8770    3.8486    1.1205 O   0  0  0  0  0  0
   27.7287    5.4318   -0.5808 N   0  0  2  0  0  0
   27.9127    6.5226   -1.5318 C   0  0  0  0  0  0
   27.2959    6.2546   -2.9204 C   0  0  0  0  0  0
   27.8170    4.9764   -3.6212 C   0  0  0  0  0  0
   29.2871    5.0858   -4.0849 C   0  0  0  0  0  0
   29.8194    3.7879   -4.7236 C   0  0  0  0  0  0
   31.1736    3.9585   -5.4346 C   0  0  0  0  0  0
   32.2021    4.3128   -4.5127 O   0  0  0  0  0  0
   33.4274    4.6454   -5.1596 C   0  0  0  0  0  0
   34.5314    4.9515   -4.1323 C   0  0  0  0  0  0
   35.0847    3.7044   -3.4117 C   0  0  0  0  0  0
   36.3730    3.9676   -2.5988 C   0  0  0  0  0  0
   36.1492    4.6879   -1.2738 C   0  0  0  0  0  0
   36.0571    6.0787   -1.2270 C   0  0  0  0  0  0
   35.8490    6.7312   -0.0128 C   0  0  0  0  0  0
   35.7507    5.9843    1.1655 C   0  0  0  0  0  0
   35.8578    4.5945    1.1237 C   0  0  0  0  0  0
   36.0571    3.9490   -0.0929 C   0  0  0  0  0  0
   35.4743    6.8019    2.7376 S   0  0  0  0  0  0
   33.7517    7.0506    2.7868 N   0  0  0  0  0  0
   35.8074    5.8514    3.8023 O   0  0  0  0  0  0
   36.1064    8.1234    2.6787 O   0  0  0  0  0  0
   29.5702    6.0103    3.8917 H   0  0  0  0  0  0
   28.7745    5.0441    1.7938 H   0  0  0  0  0  0
   24.7544    5.0702    3.2967 H   0  0  0  0  0  0
   27.4674    7.1782    6.4401 H   0  0  0  0  0  0
   24.4068    5.4432    5.6439 H   0  0  0  0  0  0
   25.6628    6.0220    6.7029 H   0  0  0  0  0  0
   25.3900    8.0841    5.8103 H   0  0  0  0  0  0
   26.8101    3.4507    0.8987 H   0  0  0  0  0  0
   25.8154    4.7822   -1.0314 H   0  0  0  0  0  0
   25.8384    6.2086   -0.0151 H   0  0  0  0  0  0
   24.5609    3.6836    0.2260 H   0  0  0  0  0  0
   28.0479    4.5841   -1.0345 H   0  0  0  0  0  0
   27.5344    7.4503   -1.1046 H   0  0  0  0  0  0
   28.9866    6.6499   -1.6421 H   0  0  0  0  0  0
   26.2083    6.2239   -2.8378 H   0  0  0  0  0  0
   27.4920    7.1146   -3.5636 H   0  0  0  0  0  0
   27.6941    4.1094   -2.9674 H   0  0  0  0  0  0
   27.1796    4.7681   -4.4823 H   0  0  0  0  0  0
   29.3700    5.9049   -4.8035 H   0  0  0  0  0  0
   29.9334    5.3505   -3.2470 H   0  0  0  0  0  0
   29.8974    3.0073   -3.9641 H   0  0  0  0  0  0
   29.0920    3.4254   -5.4518 H   0  0  0  0  0  0
   31.4425    3.0247   -5.9327 H   0  0  0  0  0  0
   31.0723    4.7188   -6.2131 H   0  0  0  0  0  0
   33.7472    3.8357   -5.8193 H   0  0  0  0  0  0
   33.2732    5.5242   -5.7909 H   0  0  0  0  0  0
   35.3514    5.4439   -4.6587 H   0  0  0  0  0  0
   34.1632    5.6752   -3.4062 H   0  0  0  0  0  0
   34.3179    3.2605   -2.7744 H   0  0  0  0  0  0
   35.3197    2.9452   -4.1598 H   0  0  0  0  0  0
   36.8698    3.0169   -2.3933 H   0  0  0  0  0  0
   37.1001    4.5280   -3.1917 H   0  0  0  0  0  0
   36.1526    6.6497   -2.1391 H   0  0  0  0  0  0
   35.7670    7.8065    0.0074 H   0  0  0  0  0  0
   35.7890    4.0001    2.0211 H   0  0  0  0  0  0
   36.1380    2.8714   -0.1156 H   0  0  0  0  0  0
   33.4082    7.6880    2.0535 H   0  0  0  0  0  0
   33.2017    6.1904    2.8439 H   0  0  0  0  0  0
  1  2  2  0  0  0
  1  6  1  0  0  0
  1  8  1  0  0  0
  2  3  1  0  0  0
  2  7  1  0  0  0
  3  4  2  0  0  0
  3 35  1  0  0  0
  4  5  1  0  0  0
  4 36  1  0  0  0
  5 10  1  0  0  0
  5  6  2  0  0  0
  6 37  1  0  0  0
  7 38  1  0  0  0
  8  9  1  0  0  0
  8 39  1  0  0  0
  8 40  1  0  0  0
  9 41  1  0  0  0
 10 11  1  0  0  0
 10 12  1  0  0  0
 10 42  1  0  0  0
 11 13  1  0  0  0
 11 43  1  0  0  0
 11 44  1  0  0  0
 12 45  1  0  0  0
 13 14  1  0  0  0
 13 46  1  0  0  0
 14 15  1  0  0  0
 14 47  1  0  0  0
 14 48  1  0  0  0
 15 16  1  0  0  0
 15 49  1  0  0  0
 15 50  1  0  0  0
 16 17  1  0  0  0
 16 51  1  0  0  0
 16 52  1  0  0  0
 17 18  1  0  0  0
 17 53  1  0  0  0
 17 54  1  0  0  0
 18 19  1  0  0  0
 18 55  1  0  0  0
 18 56  1  0  0  0
 19 20  1  0  0  0
 19 57  1  0  0  0
 19 58  1  0  0  0
 20 21  1  0  0  0
 21 22  1  0  0  0
 21 59  1  0  0  0
 21 60  1  0  0  0
 22 23  1  0  0  0
 22 61  1  0  0  0
 22 62  1  0  0  0
 23 24  1  0  0  0
 23 63  1  0  0  0
 23 64  1  0  0  0
 24 25  1  0  0  0
 24 65  1  0  0  0
 24 66  1  0  0  0
 25 26  2  0  0  0
 25 30  1  0  0  0
 26 27  1  0  0  0
 26 67  1  0  0  0
 27 28  2  0  0  0
 27 68  1  0  0  0
 28 29  1  0  0  0
 28 31  1  0  0  0
 29 30  2  0  0  0
 29 69  1  0  0  0
 30 70  1  0  0  0
 31 32  1  0  0  0
 31 33  2  0  0  0
 31 34  2  0  0  0
 32 71  1  0  0  0
 32 72  1  0  0  0
M  END
> <s_m_entry_id>
3073

> <s_m_entry_name>
dock_pv.165

> <s_m_Source_Path>
/home/csk/Desktop/cluster/DUD-E-result/adrb1

> <s_m_Source_File>
dock_pv.maegz

> <i_m_Source_File_Index>
165

> <chembl_id>
CHEMBL475389

> <chembl_pref_name>
None

> <i_lp_mmshare_version>
53161

> <i_f3d_flags>
0

> <r_lp_tautomer_probability>
0.999999999997365

> <s_lp_Force_Field>
OPLS_2005

> <r_lp_Energy>
31.847412

> <b_lp_Chiralities_Consistent>
1

> <s_lp_Variant>
CHEMBL213_lig778-1

> <s_i_glide_gridfile>
glide-grid_2vt4

> <i_i_glide_lignum>
886

> <i_i_glide_rotatable_bonds>
20

> <r_i_docking_score>
-7.72438036214762

> <r_i_glide_ligand_efficiency>
-0.227187657710224

> <r_i_glide_ligand_efficiency_sa>
-0.735999816157498

> <r_i_glide_ligand_efficiency_ln>
-1.70653228352875

> <r_i_glide_gscore>
-7.72438036214762

> <r_i_glide_lipo>
-2.73127024612108

> <r_i_glide_hbond>
-0.798663612107157

> <r_i_glide_metal>
0

> <r_i_glide_rewards>
-0.555276137896603

> <r_i_glide_evdw>
-53.2096214294434

> <r_i_glide_ecoul>
-14.6723527908325

> <r_i_glide_erotb>
1.33270688036291

> <r_i_glide_esite>
-0.110543256288648

> <r_i_glide_emodel>
-98.6375354641911

> <r_i_glide_energy>
-67.8819742202759

> <r_i_glide_einternal>
6.2468523979187

> <i_i_glide_confnum>
69

> <i_i_glide_posenum>
139

> <r_i_glide_eff_state_penalty>
0

> <s_user_duplicate_titles>
CHEMBL213_lig778,476133

> <s_m_subgroup_title>
dock_pv

> <s_m_subgroupid>
dock_pv

> <b_m_subgroup_collapsed>
1

$$$$
CHEMBL213_lig1307
                    3D
 Schrodinger Suite 2021-1.
 52 55  0  0  1  0            999 V2000
   26.8251    6.2285    5.1840 C   0  0  0  0  0  0
   26.5196    5.3489    4.1468 C   0  0  0  0  0  0
   27.3929    5.0499    3.1554 N   0  0  0  0  0  0
   28.6137    5.6434    3.1837 C   0  0  0  0  0  0
   29.0090    6.5558    4.1727 C   0  0  0  0  0  0
   28.0817    6.8375    5.1886 C   0  0  0  0  0  0
   30.3600    7.2777    4.0780 C   0  0  2  0  0  0
   31.5782    6.3367    3.8931 C   0  0  0  0  0  0
   30.6077    8.1269    5.1848 O   0  0  0  0  0  0
   32.7353    7.0498    3.3571 N   0  0  2  0  0  0
   33.8368    6.1326    3.0753 C   0  0  0  0  0  0
   34.9708    6.8498    2.3114 C   0  0  0  0  0  0
   35.7091    5.9746    1.4534 O   0  0  0  0  0  0
   35.1837    5.6019    0.2252 C   0  0  0  0  0  0
   36.0601    4.9921   -0.6752 C   0  0  0  0  0  0
   35.6263    4.6153   -1.9443 C   0  0  0  0  0  0
   34.2958    4.8232   -2.3278 C   0  0  0  0  0  0
   33.4085    5.4089   -1.4215 C   0  0  0  0  0  0
   33.8485    5.7985   -0.1605 C   0  0  0  0  0  0
   33.8431    4.4204   -3.6953 C   0  0  0  0  0  0
   34.6065    4.5131   -4.8605 C   0  0  0  0  0  0
   33.6983    3.9342   -6.2215 S   0  0  0  0  0  0
   32.3779    3.5999   -5.1365 C   0  0  0  0  0  0
   32.6257    3.9303   -3.8874 N   0  0  0  0  0  0
   31.0841    2.9912   -5.6107 C   0  0  0  0  0  0
   30.9389    2.4333   -6.8936 C   0  0  0  0  0  0
   29.7869    1.8726   -7.3465 N   0  0  0  0  0  0
   28.7203    1.8571   -6.5104 C   0  0  0  0  0  0
   28.7684    2.3759   -5.2169 C   0  0  0  0  0  0
   29.9622    2.9430   -4.7686 C   0  0  0  0  0  0
   26.1033    6.4510    5.9575 H   0  0  0  0  0  0
   25.5529    4.8685    4.0961 H   0  0  0  0  0  0
   29.2650    5.3926    2.3594 H   0  0  0  0  0  0
   28.3172    7.5395    5.9752 H   0  0  0  0  0  0
   30.2691    7.9079    3.1912 H   0  0  0  0  0  0
   31.8347    5.8561    4.8389 H   0  0  0  0  0  0
   31.3206    5.5479    3.1850 H   0  0  0  0  0  0
   31.3467    8.7110    4.9594 H   0  0  0  0  0  0
   33.0148    7.7972    3.9793 H   0  0  0  0  0  0
   34.2207    5.6949    3.9984 H   0  0  0  0  0  0
   33.4697    5.3100    2.4644 H   0  0  0  0  0  0
   34.6081    7.7009    1.7360 H   0  0  0  0  0  0
   35.6681    7.2736    3.0339 H   0  0  0  0  0  0
   37.0906    4.8253   -0.3961 H   0  0  0  0  0  0
   36.3268    4.1542   -2.6266 H   0  0  0  0  0  0
   32.3742    5.5730   -1.6921 H   0  0  0  0  0  0
   33.1324    6.2498    0.5068 H   0  0  0  0  0  0
   35.6104    4.8978   -4.9854 H   0  0  0  0  0  0
   31.7588    2.4271   -7.5952 H   0  0  0  0  0  0
   27.8082    1.4241   -6.8904 H   0  0  0  0  0  0
   27.8991    2.3435   -4.5739 H   0  0  0  0  0  0
   30.0058    3.3447   -3.7654 H   0  0  0  0  0  0
  1  6  1  0  0  0
  1  2  2  0  0  0
  1 31  1  0  0  0
  2  3  1  0  0  0
  2 32  1  0  0  0
  3  4  2  0  0  0
  4  5  1  0  0  0
  4 33  1  0  0  0
  5  6  2  0  0  0
  5  7  1  0  0  0
  6 34  1  0  0  0
  7  8  1  0  0  0
  7  9  1  0  0  0
  7 35  1  0  0  0
  8 10  1  0  0  0
  8 36  1  0  0  0
  8 37  1  0  0  0
  9 38  1  0  0  0
 10 11  1  0  0  0
 10 39  1  0  0  0
 11 12  1  0  0  0
 11 40  1  0  0  0
 11 41  1  0  0  0
 12 13  1  0  0  0
 12 42  1  0  0  0
 12 43  1  0  0  0
 13 14  1  0  0  0
 14 15  2  0  0  0
 14 19  1  0  0  0
 15 16  1  0  0  0
 15 44  1  0  0  0
 16 17  2  0  0  0
 16 45  1  0  0  0
 17 18  1  0  0  0
 17 20  1  0  0  0
 18 19  2  0  0  0
 18 46  1  0  0  0
 19 47  1  0  0  0
 20 21  2  0  0  0
 20 24  1  0  0  0
 21 22  1  0  0  0
 21 48  1  0  0  0
 22 23  1  0  0  0
 23 24  2  0  0  0
 23 25  1  0  0  0
 25 26  2  0  0  0
 25 30  1  0  0  0
 26 27  1  0  0  0
 26 49  1  0  0  0
 27 28  2  0  0  0
 28 29  1  0  0  0
 28 50  1  0  0  0
 29 30  2  0  0  0
 29 51  1  0  0  0
 30 52  1  0  0  0
M  END
> <s_m_entry_id>
3074

> <s_m_entry_name>
dock_pv.166

> <s_m_Source_Path>
/home/csk/Desktop/cluster/DUD-E-result/adrb1

> <s_m_Source_File>
dock_pv.maegz

> <i_m_Source_File_Index>
166

> <chembl_id>
CHEMBL250146

> <chembl_pref_name>
None

> <i_lp_mmshare_version>
53161

> <i_f3d_flags>
0

> <r_lp_tautomer_probability>
1

> <s_lp_Force_Field>
OPLS_2005

> <r_lp_Energy>
27.074398

> <b_lp_Chiralities_Consistent>
1

> <s_lp_Variant>
CHEMBL213_lig1307-1

> <s_i_glide_gridfile>
glide-grid_2vt4

> <i_i_glide_lignum>
1559

> <i_i_glide_rotatable_bonds>
10

> <r_i_docking_score>
-7.72381393993451

> <r_i_glide_ligand_efficiency>
-0.257460464664484

> <r_i_glide_ligand_efficiency_sa>
-0.799989523896495

> <r_i_glide_ligand_efficiency_ln>
-1.7549346848465

> <r_i_glide_gscore>
-7.72381393993451

> <r_i_glide_lipo>
-3.09849963295734

> <r_i_glide_hbond>
-0.52486196674796

> <r_i_glide_metal>
0

> <r_i_glide_rewards>
-1.10731536130736

> <r_i_glide_evdw>
-46.1893157958984

> <r_i_glide_ecoul>
-10.5792064666748

> <r_i_glide_erotb>
0.90320978087429

> <r_i_glide_esite>
0

> <r_i_glide_emodel>
-78.6857100052426

> <r_i_glide_energy>
-56.7685222625732

> <r_i_glide_einternal>
8.39767265319824

> <i_i_glide_confnum>
6

> <i_i_glide_posenum>
108

> <r_i_glide_eff_state_penalty>
0

> <s_user_duplicate_titles>
CHEMBL213_lig1307,417433

> <s_m_subgroup_title>
dock_pv

> <s_m_subgroupid>
dock_pv

> <b_m_subgroup_collapsed>
1

$$$$
CHEMBL213_lig466
                    3D
 Schrodinger Suite 2021-1.
 65 68  0  0  1  0            999 V2000
   23.7897    4.0432    2.9268 C   0  0  0  0  0  0
   24.4651    4.6500    3.9850 C   0  0  0  0  0  0
   25.7643    4.2499    1.5253 C   0  0  0  0  0  0
   24.4319    3.8494    1.7079 C   0  0  0  0  0  0
   26.4361    4.8550    2.6053 C   0  0  0  0  0  0
   25.7866    5.0638    3.8174 C   0  0  0  0  0  0
   26.5676    5.7285    4.7513 N   0  0  0  0  0  0
   27.8556    6.0609    4.3961 C   0  0  0  0  0  0
   28.0936    5.4498    2.6903 S   0  0  0  0  0  0
   28.6961    6.6500    5.0727 O   0  0  0  0  0  0
   23.8080    4.9248    5.1682 O   0  0  0  0  0  0
   26.4391    4.0371    0.1687 C   0  0  2  0  0  0
   26.6294    5.3641   -0.5960 C   0  0  0  0  0  0
   27.4080    5.1608   -1.8126 N   0  0  1  0  0  0
   27.8094    6.4190   -2.4202 C   0  0  0  0  0  0
   28.2613    6.2042   -3.8749 C   0  0  0  0  0  0
   29.3564    5.1615   -4.0774 C   0  0  0  0  0  0
   29.0081    3.8500   -4.4150 C   0  0  0  0  0  0
   29.9959    2.8902   -4.6237 C   0  0  0  0  0  0
   31.3388    3.2329   -4.4818 C   0  0  0  0  0  0
   31.7038    4.5355   -4.1306 C   0  0  0  0  0  0
   30.7062    5.5023   -3.9427 C   0  0  0  0  0  0
   25.8080    3.0744   -0.6593 O   0  0  0  0  0  0
   33.1824    4.8658   -3.9345 C   0  0  0  0  0  0
   33.4752    5.6166   -2.7139 N   0  0  1  0  0  0
   33.1302    4.8526   -1.5186 C   0  0  0  0  0  0
   33.5052    5.6296   -0.2482 C   0  0  0  0  0  0
   35.0185    5.6434    0.0668 C   0  0  0  0  0  0
   35.4326    6.4697    1.2869 C   0  0  0  0  0  0
   36.7041    7.0500    1.3020 C   0  0  0  0  0  0
   37.1095    7.8253    2.3849 C   0  0  0  0  0  0
   36.2444    8.0198    3.4589 C   0  0  0  0  0  0
   34.9826    7.4319    3.4649 C   0  0  0  0  0  0
   34.5805    6.6500    2.3850 C   0  0  0  0  0  0
   22.7583    3.7431    3.0369 H   0  0  0  0  0  0
   23.8770    3.3947    0.8985 H   0  0  0  0  0  0
   26.2070    5.9939    5.6558 H   0  0  0  0  0  0
   22.8733    4.7051    5.1371 H   0  0  0  0  0  0
   27.4080    3.6166    0.3840 H   0  0  0  0  0  0
   27.1425    6.0837    0.0436 H   0  0  0  0  0  0
   25.6551    5.7892   -0.8458 H   0  0  0  0  0  0
   28.1911    4.5317   -1.6832 H   0  0  0  0  0  0
   28.6080    6.8500   -1.8180 H   0  0  0  0  0  0
   26.9554    7.0957   -2.4233 H   0  0  0  0  0  0
   28.5868    7.1529   -4.3041 H   0  0  0  0  0  0
   27.3851    5.9139   -4.4553 H   0  0  0  0  0  0
   27.9676    3.5708   -4.5103 H   0  0  0  0  0  0
   29.7163    1.8783   -4.8774 H   0  0  0  0  0  0
   32.0957    2.4778   -4.6259 H   0  0  0  0  0  0
   30.9813    6.5139   -3.6833 H   0  0  0  0  0  0
   25.6676    3.4862   -1.5249 H   0  0  0  0  0  0
   33.5078    5.4500   -4.7959 H   0  0  0  0  0  0
   33.7944    3.9628   -3.9772 H   0  0  0  0  0  0
   34.4610    5.8455   -2.6922 H   0  0  0  0  0  0
   33.6444    3.8894   -1.5260 H   0  0  0  0  0  0
   32.0580    4.6498   -1.5002 H   0  0  0  0  0  0
   32.9732    5.1676    0.5829 H   0  0  0  0  0  0
   33.1277    6.6495   -0.3293 H   0  0  0  0  0  0
   35.5471    6.0318   -0.8053 H   0  0  0  0  0  0
   35.3742    4.6223    0.2137 H   0  0  0  0  0  0
   37.3779    6.9091    0.4688 H   0  0  0  0  0  0
   38.0911    8.2743    2.3857 H   0  0  0  0  0  0
   36.5541    8.6303    4.2943 H   0  0  0  0  0  0
   34.3131    7.5860    4.2991 H   0  0  0  0  0  0
   33.5963    6.2079    2.4086 H   0  0  0  0  0  0
  1  4  1  0  0  0
  1  2  2  0  0  0
  1 35  1  0  0  0
  2 11  1  0  0  0
  2  6  1  0  0  0
  3 12  1  0  0  0
  3  5  1  0  0  0
  3  4  2  0  0  0
  4 36  1  0  0  0
  5  9  1  0  0  0
  5  6  2  0  0  0
  6  7  1  0  0  0
  7  8  1  0  0  0
  7 37  1  0  0  0
  8  9  1  0  0  0
  8 10  2  0  0  0
 11 38  1  0  0  0
 12 23  1  0  0  0
 12 13  1  0  0  0
 12 39  1  0  0  0
 13 14  1  0  0  0
 13 40  1  0  0  0
 13 41  1  0  0  0
 14 15  1  0  0  0
 14 42  1  0  0  0
 15 16  1  0  0  0
 15 43  1  0  0  0
 15 44  1  0  0  0
 16 17  1  0  0  0
 16 45  1  0  0  0
 16 46  1  0  0  0
 17 18  2  0  0  0
 17 22  1  0  0  0
 18 19  1  0  0  0
 18 47  1  0  0  0
 19 20  2  0  0  0
 19 48  1  0  0  0
 20 21  1  0  0  0
 20 49  1  0  0  0
 21 22  2  0  0  0
 21 24  1  0  0  0
 22 50  1  0  0  0
 23 51  1  0  0  0
 24 25  1  0  0  0
 24 52  1  0  0  0
 24 53  1  0  0  0
 25 26  1  0  0  0
 25 54  1  0  0  0
 26 27  1  0  0  0
 26 55  1  0  0  0
 26 56  1  0  0  0
 27 28  1  0  0  0
 27 57  1  0  0  0
 27 58  1  0  0  0
 28 29  1  0  0  0
 28 59  1  0  0  0
 28 60  1  0  0  0
 29 30  2  0  0  0
 29 34  1  0  0  0
 30 31  1  0  0  0
 30 61  1  0  0  0
 31 32  2  0  0  0
 31 62  1  0  0  0
 32 33  1  0  0  0
 32 63  1  0  0  0
 33 34  2  0  0  0
 33 64  1  0  0  0
 34 65  1  0  0  0
M  END
> <s_m_entry_id>
3075

> <s_m_entry_name>
dock_pv.167

> <s_m_Source_Path>
/home/csk/Desktop/cluster/DUD-E-result/adrb1

> <s_m_Source_File>
dock_pv.maegz

> <i_m_Source_File_Index>
167

> <chembl_id>
CHEMBL1945037

> <chembl_pref_name>
None

> <i_lp_mmshare_version>
53161

> <i_f3d_flags>
0

> <r_lp_tautomer_probability>
1

> <s_lp_Force_Field>
OPLS_2005

> <r_lp_Energy>
39.713797

> <b_lp_Chiralities_Consistent>
1

> <s_lp_Variant>
CHEMBL213_lig466-1

> <s_i_glide_gridfile>
glide-grid_2vt4

> <i_i_glide_lignum>
555

> <i_i_glide_rotatable_bonds>
14

> <r_i_docking_score>
-7.72212239243745

> <r_i_glide_ligand_efficiency>
-0.227121246836396

> <r_i_glide_ligand_efficiency_sa>
-0.735784670707163

> <r_i_glide_ligand_efficiency_ln>
-1.70603343468587

> <r_i_glide_gscore>
-7.72212239243745

> <r_i_glide_lipo>
-3.4792292280413

> <r_i_glide_hbond>
-0.493661708311431

> <r_i_glide_metal>
0

> <r_i_glide_rewards>
-1.25259540909091

> <r_i_glide_evdw>
-49.4827308654785

> <r_i_glide_ecoul>
-6.66243886947632

> <r_i_glide_erotb>
0.976866326701563

> <r_i_glide_esite>
0

> <r_i_glide_emodel>
-77.6061806218082

> <r_i_glide_energy>
-56.1451697349548

> <r_i_glide_einternal>
8.77487754821777

> <i_i_glide_confnum>
107

> <i_i_glide_posenum>
334

> <r_i_glide_eff_state_penalty>
0

> <s_user_duplicate_titles>
CHEMBL213_lig466

> <s_m_subgroup_title>
dock_pv

> <s_m_subgroupid>
dock_pv

> <b_m_subgroup_collapsed>
1

$$$$
CHEMBL213_lig694
                    3D
 Schrodinger Suite 2021-1.
 52 54  0  0  1  0            999 V2000
   30.9731    1.4505   -3.7196 C   0  0  0  0  0  0
   30.2081    1.0410   -4.8181 C   0  0  0  0  0  0
   30.0684    1.8795   -5.9223 C   0  0  0  0  0  0
   30.6774    3.1267   -5.9197 C   0  0  0  0  0  0
   31.3937    3.5657   -4.7995 C   0  0  0  0  0  0
   31.5729    2.7066   -3.7116 C   0  0  0  0  0  0
   29.0774    1.4383   -7.2623 Cl  0  0  0  0  0  0
   31.8079    5.0261   -4.6891 C   0  0  2  0  0  0
   30.7682    5.8832   -3.8987 C   0  0  0  0  0  0
   32.0804    5.5973   -5.9570 O   0  0  0  0  0  0
   29.3658    5.6727   -4.2883 N   0  0  2  0  0  0
   28.6469    4.6302   -3.5398 C   0  0  1  0  0  0
   28.1309    5.1801   -2.1986 C   0  0  0  0  0  0
   27.5304    4.0574   -4.4145 C   0  0  0  0  0  0
   27.2733    4.2549   -1.4385 N   0  0  0  0  0  0
   26.9528    4.5285   -0.1004 C   0  0  0  0  0  0
   27.7355    5.3929    0.6522 C   0  0  0  0  0  0
   27.4066    5.6895    1.9567 C   0  0  0  0  0  0
   26.3361    5.0696    2.5880 C   0  0  0  0  0  0
   25.5447    4.1809    1.8445 C   0  0  0  0  0  0
   25.8480    3.9174    0.5021 C   0  0  0  0  0  0
   26.0372    5.4570    4.0052 C   0  0  0  0  0  0
   26.7540    6.0281    5.0807 C   0  0  0  0  0  0
   25.7974    6.2499    6.0849 C   0  0  0  0  0  0
   24.5779    5.8494    5.5973 C   0  0  0  0  0  0
   24.7453    5.2813    4.3844 O   0  0  0  0  0  0
   28.1702    6.2984    5.1830 C   0  0  0  0  0  0
   28.5020    7.0499    6.2695 O   0  0  0  0  0  0
   29.0082    5.8500    4.4119 O   0  0  0  0  0  0
   31.0606    0.8119   -2.8521 H   0  0  0  0  0  0
   29.7214    0.0776   -4.8152 H   0  0  0  0  0  0
   30.5204    3.7859   -6.7602 H   0  0  0  0  0  0
   32.1077    3.0363   -2.8324 H   0  0  0  0  0  0
   32.7610    5.0678   -4.1588 H   0  0  0  0  0  0
   30.8838    5.6935   -2.8308 H   0  0  0  0  0  0
   31.0059    6.9399   -4.0298 H   0  0  0  0  0  0
   31.8221    6.5287   -5.9663 H   0  0  0  0  0  0
   29.3159    5.4593   -5.2738 H   0  0  0  0  0  0
   29.3052    3.7970   -3.3112 H   0  0  0  0  0  0
   29.0180    5.4386   -1.6280 H   0  0  0  0  0  0
   27.5911    6.1185   -2.3368 H   0  0  0  0  0  0
   27.0081    3.2863   -3.8564 H   0  0  0  0  0  0
   26.8031    4.8096   -4.7229 H   0  0  0  0  0  0
   27.9197    3.5477   -5.2907 H   0  0  0  0  0  0
   26.4894    3.8952   -1.9759 H   0  0  0  0  0  0
   28.6149    5.8501    0.2481 H   0  0  0  0  0  0
   28.0030    6.4348    2.4450 H   0  0  0  0  0  0
   24.6872    3.7044    2.2969 H   0  0  0  0  0  0
   25.2236    3.2433   -0.0667 H   0  0  0  0  0  0
   25.9668    6.6500    7.0718 H   0  0  0  0  0  0
   23.5729    5.8253    5.9911 H   0  0  0  0  0  0
   27.7340    7.4994    6.6484 H   0  0  0  0  0  0
  1  6  1  0  0  0
  1  2  2  0  0  0
  1 30  1  0  0  0
  2  3  1  0  0  0
  2 31  1  0  0  0
  3  7  1  0  0  0
  3  4  2  0  0  0
  4  5  1  0  0  0
  4 32  1  0  0  0
  5  8  1  0  0  0
  5  6  2  0  0  0
  6 33  1  0  0  0
  8  9  1  0  0  0
  8 10  1  0  0  0
  8 34  1  0  0  0
  9 11  1  0  0  0
  9 35  1  0  0  0
  9 36  1  0  0  0
 10 37  1  0  0  0
 11 12  1  0  0  0
 11 38  1  0  0  0
 12 13  1  0  0  0
 12 14  1  0  0  0
 12 39  1  0  0  0
 13 15  1  0  0  0
 13 40  1  0  0  0
 13 41  1  0  0  0
 14 42  1  0  0  0
 14 43  1  0  0  0
 14 44  1  0  0  0
 15 16  1  0  0  0
 15 45  1  0  0  0
 16 17  2  0  0  0
 16 21  1  0  0  0
 17 18  1  0  0  0
 17 46  1  0  0  0
 18 19  2  0  0  0
 18 47  1  0  0  0
 19 20  1  0  0  0
 19 22  1  0  0  0
 20 21  2  0  0  0
 20 48  1  0  0  0
 21 49  1  0  0  0
 22 23  2  0  0  0
 22 26  1  0  0  0
 23 24  1  0  0  0
 23 27  1  0  0  0
 24 25  2  0  0  0
 24 50  1  0  0  0
 25 26  1  0  0  0
 25 51  1  0  0  0
 27 28  1  0  0  0
 27 29  2  0  0  0
 28 52  1  0  0  0
M  END
> <s_m_entry_id>
3076

> <s_m_entry_name>
dock_pv.168

> <s_m_Source_Path>
/home/csk/Desktop/cluster/DUD-E-result/adrb1

> <s_m_Source_File>
dock_pv.maegz

> <i_m_Source_File_Index>
168

> <chembl_id>
CHEMBL247520

> <chembl_pref_name>
None

> <i_lp_mmshare_version>
53161

> <i_f3d_flags>
0

> <r_lp_tautomer_probability>
1

> <s_lp_Force_Field>
OPLS_2005

> <r_lp_Energy>
19.907157

> <b_lp_Chiralities_Consistent>
1

> <s_lp_Variant>
CHEMBL213_lig694-1

> <s_i_glide_gridfile>
glide-grid_2vt4

> <i_i_glide_lignum>
796

> <i_i_glide_rotatable_bonds>
11

> <r_i_docking_score>
-7.71782667355289

> <r_i_glide_ligand_efficiency>
-0.266131954260445

> <r_i_glide_ligand_efficiency_sa>
-0.817641680009273

> <r_i_glide_ligand_efficiency_ln>
-1.76718660104525

> <r_i_glide_gscore>
-7.71782667355289

> <r_i_glide_lipo>
-3.3288986450862

> <r_i_glide_hbond>
-0.431800642026659

> <r_i_glide_metal>
0

> <r_i_glide_rewards>
-1.75326660194774

> <r_i_glide_evdw>
-39.5661926269531

> <r_i_glide_ecoul>
-7.22367906570435

> <r_i_glide_erotb>
0.917538503993194

> <r_i_glide_esite>
-0.05953779728218

> <r_i_glide_emodel>
-62.6760031022267

> <r_i_glide_energy>
-46.7898716926575

> <r_i_glide_einternal>
10.7365484237671

> <i_i_glide_confnum>
69

> <i_i_glide_posenum>
15

> <r_i_glide_eff_state_penalty>
0

> <s_user_duplicate_titles>
CHEMBL213_lig694

> <s_m_subgroup_title>
dock_pv

> <s_m_subgroupid>
dock_pv

> <b_m_subgroup_collapsed>
1

$$$$
CHEMBL213_lig1055
                    3D
 Schrodinger Suite 2021-1.
 66 67  0  0  1  0            999 V2000
   26.2459    6.0541    4.6160 C   0  0  0  0  0  0
   27.6266    6.2937    4.6084 C   0  0  0  0  0  0
   28.4125    5.7791    3.5795 C   0  0  0  0  0  0
   27.8282    5.0615    2.5343 C   0  0  0  0  0  0
   26.4469    4.8322    2.4990 C   0  0  0  0  0  0
   25.6760    5.3161    3.5662 C   0  0  0  0  0  0
   25.3669    6.6130    5.7329 C   0  0  0  0  0  0
   24.2080    5.8517    5.9850 O   0  0  0  0  0  0
   28.2310    7.0499    5.5845 O   0  0  0  0  0  0
   25.8085    4.0631    1.3161 C   0  0  2  0  0  0
   26.0530    4.7157   -0.0715 C   0  0  0  0  0  0
   24.4098    3.8501    1.4461 O   0  0  0  0  0  0
   27.3897    4.4394   -0.5960 N   0  0  2  0  0  0
   27.6722    5.3146   -1.7266 C   0  0  0  0  0  0
   29.0454    5.0011   -2.3467 C   0  0  0  0  0  0
   30.2273    5.0458   -1.3556 C   0  0  0  0  0  0
   31.5789    5.3026   -2.0486 C   0  0  0  0  0  0
   32.7815    5.3046   -1.0826 C   0  0  0  0  0  0
   34.0613    5.9347   -1.6614 C   0  0  0  0  0  0
   34.3507    5.4106   -2.9488 O   0  0  0  0  0  0
   34.9450    4.1144   -2.9597 C   0  0  0  0  0  0
   34.7920    3.5155   -4.3606 C   0  0  0  0  0  0
   33.4109    3.2901   -4.6416 O   0  0  0  0  0  0
   33.1709    3.0525   -6.0222 C   0  0  0  0  0  0
   31.7192    2.6906   -6.3182 C   0  0  0  0  0  0
   31.3743    2.5190   -7.6566 C   0  0  0  0  0  0
   30.0592    2.2500   -8.0178 C   0  0  0  0  0  0
   29.0778    2.1047   -7.0524 C   0  0  0  0  0  0
   29.4127    2.2461   -5.7134 C   0  0  0  0  0  0
   30.7286    2.5419   -5.3321 C   0  0  0  0  0  0
   28.3998    2.1122   -4.8150 O   0  0  0  0  0  0
   29.4793    5.9517    3.5777 H   0  0  0  0  0  0
   28.4631    4.6923    1.7438 H   0  0  0  0  0  0
   24.6117    5.1319    3.5702 H   0  0  0  0  0  0
   25.9234    6.6508    6.6695 H   0  0  0  0  0  0
   25.0795    7.6339    5.4782 H   0  0  0  0  0  0
   23.5476    6.4231    6.3882 H   0  0  0  0  0  0
   27.6104    7.5411    6.1383 H   0  0  0  0  0  0
   26.2096    3.0500    1.3058 H   0  0  0  0  0  0
   25.3494    4.3128   -0.8022 H   0  0  0  0  0  0
   25.8684    5.7901   -0.0113 H   0  0  0  0  0  0
   24.0586    3.5684    0.5950 H   0  0  0  0  0  0
   27.4350    3.4860   -0.9373 H   0  0  0  0  0  0
   26.9024    5.2069   -2.4921 H   0  0  0  0  0  0
   27.6624    6.3513   -1.3839 H   0  0  0  0  0  0
   29.0173    4.0266   -2.8341 H   0  0  0  0  0  0
   29.2096    5.7215   -3.1494 H   0  0  0  0  0  0
   30.0374    5.8170   -0.6083 H   0  0  0  0  0  0
   30.2651    4.1070   -0.8014 H   0  0  0  0  0  0
   31.7438    4.5491   -2.8204 H   0  0  0  0  0  0
   31.5274    6.2505   -2.5791 H   0  0  0  0  0  0
   32.5260    5.8211   -0.1560 H   0  0  0  0  0  0
   33.0069    4.2760   -0.8149 H   0  0  0  0  0  0
   33.9245    7.0107   -1.7565 H   0  0  0  0  0  0
   34.9081    5.8037   -0.9850 H   0  0  0  0  0  0
   35.9993    4.1938   -2.6905 H   0  0  0  0  0  0
   34.4788    3.4379   -2.2429 H   0  0  0  0  0  0
   35.2329    4.2083   -5.0812 H   0  0  0  0  0  0
   35.3421    2.5754   -4.4323 H   0  0  0  0  0  0
   33.4126    3.9595   -6.5813 H   0  0  0  0  0  0
   33.8098    2.2515   -6.4024 H   0  0  0  0  0  0
   32.1196    2.6458   -8.4279 H   0  0  0  0  0  0
   29.7843    2.2500   -9.0610 H   0  0  0  0  0  0
   28.0537    1.9163   -7.3407 H   0  0  0  0  0  0
   30.9740    2.6697   -4.2881 H   0  0  0  0  0  0
   28.6347    2.1079   -3.8774 H   0  0  0  0  0  0
  1  6  1  0  0  0
  1  2  2  0  0  0
  1  7  1  0  0  0
  2  9  1  0  0  0
  2  3  1  0  0  0
  3  4  2  0  0  0
  3 32  1  0  0  0
  4  5  1  0  0  0
  4 33  1  0  0  0
  5 10  1  0  0  0
  5  6  2  0  0  0
  6 34  1  0  0  0
  7  8  1  0  0  0
  7 35  1  0  0  0
  7 36  1  0  0  0
  8 37  1  0  0  0
  9 38  1  0  0  0
 10 11  1  0  0  0
 10 12  1  0  0  0
 10 39  1  0  0  0
 11 13  1  0  0  0
 11 40  1  0  0  0
 11 41  1  0  0  0
 12 42  1  0  0  0
 13 14  1  0  0  0
 13 43  1  0  0  0
 14 15  1  0  0  0
 14 44  1  0  0  0
 14 45  1  0  0  0
 15 16  1  0  0  0
 15 46  1  0  0  0
 15 47  1  0  0  0
 16 17  1  0  0  0
 16 48  1  0  0  0
 16 49  1  0  0  0
 17 18  1  0  0  0
 17 50  1  0  0  0
 17 51  1  0  0  0
 18 19  1  0  0  0
 18 52  1  0  0  0
 18 53  1  0  0  0
 19 20  1  0  0  0
 19 54  1  0  0  0
 19 55  1  0  0  0
 20 21  1  0  0  0
 21 22  1  0  0  0
 21 56  1  0  0  0
 21 57  1  0  0  0
 22 23  1  0  0  0
 22 58  1  0  0  0
 22 59  1  0  0  0
 23 24  1  0  0  0
 24 25  1  0  0  0
 24 60  1  0  0  0
 24 61  1  0  0  0
 25 26  2  0  0  0
 25 30  1  0  0  0
 26 27  1  0  0  0
 26 62  1  0  0  0
 27 28  2  0  0  0
 27 63  1  0  0  0
 28 29  1  0  0  0
 28 64  1  0  0  0
 29 30  2  0  0  0
 29 31  1  0  0  0
 30 65  1  0  0  0
 31 66  1  0  0  0
M  END
> <s_m_entry_id>
3077

> <s_m_entry_name>
dock_pv.169

> <s_m_Source_Path>
/home/csk/Desktop/cluster/DUD-E-result/adrb1

> <s_m_Source_File>
dock_pv.maegz

> <i_m_Source_File_Index>
169

> <chembl_id>
CHEMBL1086536

> <chembl_pref_name>
None

> <i_lp_mmshare_version>
53161

> <i_f3d_flags>
0

> <r_lp_tautomer_probability>
0.99999999999473

> <s_lp_Force_Field>
OPLS_2005

> <r_lp_Energy>
25.369319

> <b_lp_Chiralities_Consistent>
1

> <s_lp_Variant>
CHEMBL213_lig1055-1

> <s_i_glide_gridfile>
glide-grid_2vt4

> <i_i_glide_lignum>
1223

> <i_i_glide_rotatable_bonds>
20

> <r_i_docking_score>
-7.71359138451927

> <r_i_glide_ligand_efficiency>
-0.24882552853288

> <r_i_glide_ligand_efficiency_sa>
-0.781655700259518

> <r_i_glide_ligand_efficiency_ln>
-1.73965125039528

> <r_i_glide_gscore>
-7.71359138451927

> <r_i_glide_lipo>
-3.54045004653737

> <r_i_glide_hbond>
-0.627030993386863

> <r_i_glide_metal>
0

> <r_i_glide_rewards>
-1.10315136363636

> <r_i_glide_evdw>
-44.5539321899414

> <r_i_glide_ecoul>
-12.7331104278564

> <r_i_glide_erotb>
1.69470419271687

> <r_i_glide_esite>
0

> <r_i_glide_emodel>
-79.491865280555

> <r_i_glide_energy>
-57.2870426177979

> <r_i_glide_einternal>
9.90082931518555

> <i_i_glide_confnum>
109

> <i_i_glide_posenum>
132

> <r_i_glide_eff_state_penalty>
0

> <s_user_duplicate_titles>
CHEMBL213_lig1055,631737

> <s_m_subgroup_title>
dock_pv

> <s_m_subgroupid>
dock_pv

> <b_m_subgroup_collapsed>
1

$$$$
CHEMBL213_lig937
                    3D
 Schrodinger Suite 2021-1.
 60 62  0  0  1  0            999 V2000
   29.1839    6.4377   -4.0132 C   0  0  0  0  0  0
   30.3453    5.6973   -3.8121 C   0  0  0  0  0  0
   30.4363    4.7985   -2.7530 C   0  0  0  0  0  0
   29.3473    4.6194   -1.9025 C   0  0  0  0  0  0
   28.1552    5.3247   -2.1231 C   0  0  0  0  0  0
   28.0900    6.2411   -3.1733 C   0  0  0  0  0  0
   31.4079    5.8511   -4.6604 O   0  0  0  0  0  0
   27.0077    5.1779   -1.3699 O   0  0  0  0  0  0
   26.9647    4.2540   -0.2837 C   0  0  0  0  0  0
   25.4937    4.0372    0.1685 C   0  0  2  0  0  0
   25.3076    3.8926    1.6947 C   0  0  0  0  0  0
   25.8144    5.0437    2.4493 N   0  0  1  0  0  0
   25.9532    4.7644    3.8720 C   0  0  0  0  0  0
   26.6461    5.9433    4.5952 C   0  0  0  0  0  0
   28.1197    6.2217    4.2712 C   0  0  0  0  0  0
   28.8112    5.5434    3.2609 C   0  0  0  0  0  0
   30.1385    5.8474    2.9866 C   0  0  0  0  0  0
   30.8219    6.7857    3.7639 C   0  0  0  0  0  0
   30.1354    7.4670    4.7700 C   0  0  0  0  0  0
   28.7904    7.1955    5.0147 C   0  0  0  0  0  0
   32.2024    7.0490    3.6693 N   0  0  0  0  0  0
   33.1311    6.5635    2.8077 C   0  0  0  0  0  0
   34.6228    6.9045    3.1226 C   0  0  1  0  0  0
   32.8496    5.8500    1.8454 O   0  0  0  0  0  0
   35.6651    6.5212    2.0446 C   0  0  0  0  0  0
   35.7214    5.2097    1.5505 C   0  0  0  0  0  0
   36.6805    4.8390    0.6124 C   0  0  0  0  0  0
   37.6066    5.7788    0.1711 C   0  0  0  0  0  0
   37.5812    7.0814    0.6626 C   0  0  0  0  0  0
   36.6223    7.4487    1.6011 C   0  0  0  0  0  0
   25.0081    2.8321   -0.4147 O   0  0  0  0  0  0
   34.7484    8.2500    3.5841 O   0  0  0  0  0  0
   29.1196    7.1589   -4.8139 H   0  0  0  0  0  0
   31.3421    4.2338   -2.5962 H   0  0  0  0  0  0
   29.4400    3.9058   -1.0977 H   0  0  0  0  0  0
   27.1781    6.7951   -3.3426 H   0  0  0  0  0  0
   31.2978    6.5751   -5.2925 H   0  0  0  0  0  0
   27.5697    4.6799    0.5142 H   0  0  0  0  0  0
   27.4199    3.2952   -0.5320 H   0  0  0  0  0  0
   24.8719    4.8647   -0.1804 H   0  0  0  0  0  0
   25.8080    2.9762    1.9866 H   0  0  0  0  0  0
   24.2472    3.7705    1.9226 H   0  0  0  0  0  0
   26.6657    5.4255    2.0592 H   0  0  0  0  0  0
   26.5526    3.8594    3.9989 H   0  0  0  0  0  0
   24.9759    4.5771    4.3215 H   0  0  0  0  0  0
   26.5797    5.7599    5.6677 H   0  0  0  0  0  0
   26.0775    6.8571    4.4182 H   0  0  0  0  0  0
   28.3514    4.7581    2.6858 H   0  0  0  0  0  0
   30.6253    5.2712    2.2175 H   0  0  0  0  0  0
   30.6418    8.2122    5.3663 H   0  0  0  0  0  0
   28.2731    7.7359    5.7955 H   0  0  0  0  0  0
   32.5272    7.6780    4.3853 H   0  0  0  0  0  0
   34.8837    6.2870    3.9816 H   0  0  0  0  0  0
   35.0170    4.4648    1.8916 H   0  0  0  0  0  0
   36.7108    3.8283    0.2336 H   0  0  0  0  0  0
   38.3505    5.4919   -0.5587 H   0  0  0  0  0  0
   38.3085    7.8016    0.3180 H   0  0  0  0  0  0
   36.6336    8.4580    1.9814 H   0  0  0  0  0  0
   24.3686    3.0515   -1.1172 H   0  0  0  0  0  0
   33.9271    8.5545    3.9848 H   0  0  0  0  0  0
  1  6  1  0  0  0
  1  2  2  0  0  0
  1 33  1  0  0  0
  2  3  1  0  0  0
  2  7  1  0  0  0
  3  4  2  0  0  0
  3 34  1  0  0  0
  4  5  1  0  0  0
  4 35  1  0  0  0
  5  8  1  0  0  0
  5  6  2  0  0  0
  6 36  1  0  0  0
  7 37  1  0  0  0
  8  9  1  0  0  0
  9 10  1  0  0  0
  9 38  1  0  0  0
  9 39  1  0  0  0
 10 11  1  0  0  0
 10 31  1  0  0  0
 10 40  1  0  0  0
 11 12  1  0  0  0
 11 41  1  0  0  0
 11 42  1  0  0  0
 12 13  1  0  0  0
 12 43  1  0  0  0
 13 14  1  0  0  0
 13 44  1  0  0  0
 13 45  1  0  0  0
 14 15  1  0  0  0
 14 46  1  0  0  0
 14 47  1  0  0  0
 15 16  2  0  0  0
 15 20  1  0  0  0
 16 17  1  0  0  0
 16 48  1  0  0  0
 17 18  2  0  0  0
 17 49  1  0  0  0
 18 19  1  0  0  0
 18 21  1  0  0  0
 19 20  2  0  0  0
 19 50  1  0  0  0
 20 51  1  0  0  0
 21 22  1  0  0  0
 21 52  1  0  0  0
 22 23  1  0  0  0
 22 24  2  0  0  0
 23 25  1  0  0  0
 23 32  1  0  0  0
 23 53  1  0  0  0
 25 26  2  0  0  0
 25 30  1  0  0  0
 26 27  1  0  0  0
 26 54  1  0  0  0
 27 28  2  0  0  0
 27 55  1  0  0  0
 28 29  1  0  0  0
 28 56  1  0  0  0
 29 30  2  0  0  0
 29 57  1  0  0  0
 30 58  1  0  0  0
 31 59  1  0  0  0
 32 60  1  0  0  0
M  END
> <s_m_entry_id>
3078

> <s_m_entry_name>
dock_pv.170

> <s_m_Source_Path>
/home/csk/Desktop/cluster/DUD-E-result/adrb1

> <s_m_Source_File>
dock_pv.maegz

> <i_m_Source_File_Index>
170

> <chembl_id>
CHEMBL551832

> <chembl_pref_name>
None

> <i_lp_mmshare_version>
53161

> <i_f3d_flags>
0

> <r_lp_tautomer_probability>
0.999999999999998

> <s_lp_Force_Field>
OPLS_2005

> <r_lp_Energy>
36.70092

> <b_lp_Chiralities_Consistent>
1

> <s_lp_Variant>
CHEMBL213_lig937-2

> <s_i_glide_gridfile>
glide-grid_2vt4

> <i_i_glide_lignum>
1047

> <i_i_glide_rotatable_bonds>
15

> <r_i_docking_score>
-7.70846983592185

> <r_i_glide_ligand_efficiency>
-0.240889682372558

> <r_i_glide_ligand_efficiency_sa>
-0.764777069529462

> <r_i_glide_ligand_efficiency_ln>
-1.7261365212146

> <r_i_glide_gscore>
-7.70846983592185

> <r_i_glide_lipo>
-2.54979219943369

> <r_i_glide_hbond>
-1.15720259022268

> <r_i_glide_metal>
0

> <r_i_glide_rewards>
-0.854871165621432

> <r_i_glide_evdw>
-45.4000816345215

> <r_i_glide_ecoul>
-13.5160789489746

> <r_i_glide_erotb>
1.15081204342822

> <r_i_glide_esite>
0

> <r_i_glide_emodel>
-78.1267190317422

> <r_i_glide_energy>
-58.9161605834961

> <r_i_glide_einternal>
18.9797325134277

> <i_i_glide_confnum>
120

> <i_i_glide_posenum>
354

> <r_i_glide_eff_state_penalty>
0

> <s_user_duplicate_titles>
CHEMBL213_lig937,561253

> <s_m_subgroup_title>
dock_pv

> <s_m_subgroupid>
dock_pv

> <b_m_subgroup_collapsed>
1

$$$$
CHEMBL213_lig684
                    3D
 Schrodinger Suite 2021-1.
 84 88  0  0  1  0            999 V2000
   33.0615    5.6041   -0.7774 C   0  0  0  0  0  0
   32.2753    5.4499    0.3655 C   0  0  0  0  0  0
   30.9256    5.0727    0.2768 C   0  0  0  0  0  0
   30.3444    4.8740   -0.9851 C   0  0  0  0  0  0
   32.4614    5.3870   -2.0105 C   0  0  0  0  0  0
   31.1494    5.0253   -2.1165 C   0  0  0  0  0  0
   30.8805    4.8835   -3.4648 N   0  0  0  0  0  0
   31.9914    5.1983   -4.1956 C   0  0  0  0  0  0
   32.9483    5.4482   -3.2843 N   0  0  0  0  0  0
   32.1391    5.2476   -5.4146 O   0  0  0  0  0  0
   29.0426    4.4992   -1.1953 O   0  0  0  0  0  0
   28.0437    4.9713   -0.3167 C   0  0  0  0  0  0
   26.6825    4.4513   -0.8406 C   0  0  2  0  0  0
   25.4824    4.8496    0.0159 C   0  0  0  0  0  0
   26.6097    3.0500   -0.8149 O   0  0  0  0  0  0
   25.7755    4.4465    1.3920 N   0  0  1  0  0  0
   24.8580    3.6420    2.1920 C   0  0  0  0  0  0
   25.3167    3.8506    3.6767 C   0  0  0  0  0  0
   23.4089    4.0406    2.0716 C   0  0  0  0  0  0
   24.8342    2.1816    1.7110 C   0  0  0  0  0  0
   26.3407    4.9382    4.0559 C   0  0  0  0  0  0
   25.9743    6.2512    4.3768 C   0  0  0  0  0  0
   26.9642    7.1959    4.6777 C   0  0  0  0  0  0
   28.3203    6.8491    4.6045 C   0  0  0  0  0  0
   28.6383    5.5213    4.3604 C   0  0  0  0  0  0
   27.6786    4.5758    4.1230 C   0  0  0  0  0  0
   29.3164    7.8061    4.7272 O   0  0  0  0  0  0
   30.6417    7.4504    4.5213 C   0  0  0  0  0  0
   31.2519    7.4501    3.2691 C   0  0  0  0  0  0
   32.6012    7.1110    3.1850 C   0  0  0  0  0  0
   33.3100    6.6564    4.2955 C   0  0  0  0  0  0
   32.6026    6.6267    5.4952 C   0  0  0  0  0  0
   31.3125    7.0492    5.6198 N   0  0  0  0  0  0
   34.7718    6.2758    4.2319 C   0  0  0  0  0  0
   35.3748    5.8501    5.2139 O   0  0  0  0  0  0
   35.4022    6.4466    3.0694 N   0  0  0  0  0  0
   29.5623    4.5114   -4.0106 C   0  0  0  0  0  0
   29.5028    3.8567   -5.3930 C   0  0  0  0  0  0
   30.3348    2.6085   -5.5710 C   0  0  0  0  0  0
   29.8033    1.4523   -4.7288 C   0  0  0  0  0  0
   30.2985    0.2575   -5.4950 C   0  0  0  0  0  0
   30.1917    0.6396   -6.9804 C   0  0  0  0  0  0
   30.2836    2.1528   -7.0346 C   0  0  0  0  0  0
   34.1073    5.8592   -0.6867 H   0  0  0  0  0  0
   32.7478    5.4745    1.3286 H   0  0  0  0  0  0
   30.3652    4.9115    1.1853 H   0  0  0  0  0  0
   33.9022    5.6660   -3.5350 H   0  0  0  0  0  0
   28.0395    6.0625   -0.3103 H   0  0  0  0  0  0
   28.2376    4.6501    0.7055 H   0  0  0  0  0  0
   26.5715    4.7888   -1.8711 H   0  0  0  0  0  0
   24.5582    4.4395   -0.3966 H   0  0  0  0  0  0
   25.4072    5.9289   -0.0246 H   0  0  0  0  0  0
   27.3185    2.6918   -1.3720 H   0  0  0  0  0  0
   26.6105    3.8825    1.3167 H   0  0  0  0  0  0
   25.7761    2.9212    3.9850 H   0  0  0  0  0  0
   24.4656    3.9904    4.3401 H   0  0  0  0  0  0
   22.7692    3.4772    2.7523 H   0  0  0  0  0  0
   23.4077    5.0502    2.3846 H   0  0  0  0  0  0
   23.0084    3.9371    1.0593 H   0  0  0  0  0  0
   24.2918    1.5350    2.4040 H   0  0  0  0  0  0
   24.3683    2.0878    0.7261 H   0  0  0  0  0  0
   25.8081    1.7621    1.5837 H   0  0  0  0  0  0
   24.9364    6.5435    4.3888 H   0  0  0  0  0  0
   26.6868    8.2157    4.9085 H   0  0  0  0  0  0
   29.6596    5.2060    4.3311 H   0  0  0  0  0  0
   28.0226    3.5664    3.9847 H   0  0  0  0  0  0
   30.7348    7.7895    2.3896 H   0  0  0  0  0  0
   33.1085    7.2293    2.2516 H   0  0  0  0  0  0
   33.0791    6.2503    6.3844 H   0  0  0  0  0  0
   36.3858    6.2463    2.9998 H   0  0  0  0  0  0
   34.9027    6.7820    2.2609 H   0  0  0  0  0  0
   29.1310    3.7789   -3.3295 H   0  0  0  0  0  0
   28.9101    5.3872   -3.9762 H   0  0  0  0  0  0
   28.4731    3.5547   -5.6028 H   0  0  0  0  0  0
   29.8083    4.5907   -6.1395 H   0  0  0  0  0  0
   31.3771    2.7893   -5.3052 H   0  0  0  0  0  0
   30.2054    1.4709   -3.7139 H   0  0  0  0  0  0
   28.7117    1.4481   -4.6693 H   0  0  0  0  0  0
   31.3481    0.1512   -5.2151 H   0  0  0  0  0  0
   29.7768   -0.6587   -5.2195 H   0  0  0  0  0  0
   30.9940    0.2492   -7.5976 H   0  0  0  0  0  0
   29.2469    0.2858   -7.3896 H   0  0  0  0  0  0
   29.4290    2.5649   -7.5750 H   0  0  0  0  0  0
   31.1797    2.4773   -7.5679 H   0  0  0  0  0  0
  1  2  1  0  0  0
  1  5  2  0  0  0
  1 44  1  0  0  0
  2  3  2  0  0  0
  2 45  1  0  0  0
  3  4  1  0  0  0
  3 46  1  0  0  0
  4 11  1  0  0  0
  4  6  2  0  0  0
  5  6  1  0  0  0
  5  9  1  0  0  0
  6  7  1  0  0  0
  7  8  1  0  0  0
  7 37  1  0  0  0
  8 10  2  0  0  0
  8  9  1  0  0  0
  9 47  1  0  0  0
 11 12  1  0  0  0
 12 13  1  0  0  0
 12 48  1  0  0  0
 12 49  1  0  0  0
 13 14  1  0  0  0
 13 15  1  0  0  0
 13 50  1  0  0  0
 14 16  1  0  0  0
 14 51  1  0  0  0
 14 52  1  0  0  0
 15 53  1  0  0  0
 16 17  1  0  0  0
 16 54  1  0  0  0
 17 18  1  0  0  0
 17 19  1  0  0  0
 17 20  1  0  0  0
 18 21  1  0  0  0
 18 55  1  0  0  0
 18 56  1  0  0  0
 19 57  1  0  0  0
 19 58  1  0  0  0
 19 59  1  0  0  0
 20 60  1  0  0  0
 20 61  1  0  0  0
 20 62  1  0  0  0
 21 22  2  0  0  0
 21 26  1  0  0  0
 22 23  1  0  0  0
 22 63  1  0  0  0
 23 24  2  0  0  0
 23 64  1  0  0  0
 24 25  1  0  0  0
 24 27  1  0  0  0
 25 26  2  0  0  0
 25 65  1  0  0  0
 26 66  1  0  0  0
 27 28  1  0  0  0
 28 29  2  0  0  0
 28 33  1  0  0  0
 29 30  1  0  0  0
 29 67  1  0  0  0
 30 31  2  0  0  0
 30 68  1  0  0  0
 31 32  1  0  0  0
 31 34  1  0  0  0
 32 33  2  0  0  0
 32 69  1  0  0  0
 34 35  2  0  0  0
 34 36  1  0  0  0
 36 70  1  0  0  0
 36 71  1  0  0  0
 37 38  1  0  0  0
 37 72  1  0  0  0
 37 73  1  0  0  0
 38 39  1  0  0  0
 38 74  1  0  0  0
 38 75  1  0  0  0
 39 40  1  0  0  0
 39 43  1  0  0  0
 39 76  1  0  0  0
 40 41  1  0  0  0
 40 77  1  0  0  0
 40 78  1  0  0  0
 41 42  1  0  0  0
 41 79  1  0  0  0
 41 80  1  0  0  0
 42 43  1  0  0  0
 42 81  1  0  0  0
 42 82  1  0  0  0
 43 83  1  0  0  0
 43 84  1  0  0  0
M  END
> <s_m_entry_id>
3079

> <s_m_entry_name>
dock_pv.171

> <s_m_Source_Path>
/home/csk/Desktop/cluster/DUD-E-result/adrb1

> <s_m_Source_File>
dock_pv.maegz

> <i_m_Source_File_Index>
171

> <chembl_id>
CHEMBL218210

> <chembl_pref_name>
None

> <i_lp_mmshare_version>
53161

> <i_f3d_flags>
0

> <r_lp_tautomer_probability>
1

> <s_lp_Force_Field>
OPLS_2005

> <r_lp_Energy>
78.588352

> <b_lp_Chiralities_Consistent>
1

> <s_lp_Variant>
CHEMBL213_lig684-1

> <s_i_glide_gridfile>
glide-grid_2vt4

> <i_i_glide_lignum>
786

> <i_i_glide_rotatable_bonds>
15

> <r_i_docking_score>
-7.70408886204361

> <r_i_glide_ligand_efficiency>
-0.179164857256828

> <r_i_glide_ligand_efficiency_sa>
-0.627685812616085

> <r_i_glide_ligand_efficiency_ln>
-1.61809810023525

> <r_i_glide_gscore>
-7.70408886204361

> <r_i_glide_lipo>
-4.0883252968694

> <r_i_glide_hbond>
-0.136844631585518

> <r_i_glide_metal>
0

> <r_i_glide_rewards>
-1.55927058376841

> <r_i_glide_evdw>
-26.4477291107178

> <r_i_glide_ecoul>
-8.52637672424316

> <r_i_glide_erotb>
0.681694614352078

> <r_i_glide_esite>
0

> <r_i_glide_emodel>
-63.292205027153

> <r_i_glide_energy>
-34.9741058349609

> <r_i_glide_einternal>
22.1431980133057

> <i_i_glide_confnum>
68

> <i_i_glide_posenum>
28

> <r_i_glide_eff_state_penalty>
0

> <s_user_duplicate_titles>
CHEMBL213_lig684

> <s_m_subgroup_title>
dock_pv

> <s_m_subgroupid>
dock_pv

> <b_m_subgroup_collapsed>
1

$$$$
CHEMBL213_lig769
                    3D
 Schrodinger Suite 2021-1.
 65 68  0  0  1  0            999 V2000
   25.3352    3.8594    1.7427 C   0  0  0  0  0  0
   26.2611    4.2913    0.7985 C   0  0  0  0  0  0
   27.1695    5.2898    1.1373 C   0  0  0  0  0  0
   27.1370    5.8485    2.4141 C   0  0  0  0  0  0
   26.2044    5.4300    3.3709 C   0  0  0  0  0  0
   25.3053    4.4168    3.0212 C   0  0  0  0  0  0
   24.2080    2.6499    1.3219 Cl  0  0  0  0  0  0
   26.1658    6.1053    4.7550 C   0  0  2  0  0  0
   27.3657    5.7391    5.6603 C   0  0  0  0  0  0
   28.6040    6.2601    5.0889 N   0  0  1  0  0  0
   29.3224    7.1723    5.9620 C   0  0  0  0  0  0
   30.4265    7.9003    5.1775 C   0  0  0  0  0  0
   31.4348    7.0500    4.4156 C   0  0  0  0  0  0
   32.7009    6.7751    4.9389 C   0  0  0  0  0  0
   33.6694    6.1843    4.1333 C   0  0  0  0  0  0
   33.3659    5.8493    2.8139 C   0  0  0  0  0  0
   32.0799    6.0569    2.2859 C   0  0  0  0  0  0
   31.1328    6.6580    3.1177 C   0  0  0  0  0  0
   24.9818    5.8558    5.4934 O   0  0  0  0  0  0
   31.6331    5.6433    1.0349 O   0  0  0  0  0  0
   32.3893    5.4502   -0.1142 C   0  0  0  0  0  0
   31.7254    4.9009   -1.2156 C   0  0  0  0  0  0
   32.3932    4.6294   -2.4138 C   0  0  0  0  0  0
   33.7469    4.9878   -2.5282 C   0  0  0  0  0  0
   34.4141    5.6183   -1.4724 C   0  0  0  0  0  0
   33.7211    5.8497   -0.2776 C   0  0  0  0  0  0
   35.8665    5.9943   -1.6119 C   0  0  0  0  0  0
   36.2539    7.0315   -0.8150 O   0  0  0  0  0  0
   36.6126    5.4359   -2.4122 O   0  0  0  0  0  0
   31.6359    4.0020   -3.4281 N   0  0  0  0  0  0
   32.0462    3.4710   -4.6054 C   0  0  0  0  0  0
   33.2149    3.4548   -4.9935 O   0  0  0  0  0  0
   30.9651    2.8896   -5.4910 C   0  0  0  0  0  0
   31.1948    2.7647   -6.8688 C   0  0  0  0  0  0
   30.2123    2.2500   -7.7086 C   0  0  0  0  0  0
   28.9933    1.8377   -7.1808 C   0  0  0  0  0  0
   28.7512    1.9368   -5.8134 C   0  0  0  0  0  0
   29.7320    2.4587   -4.9742 C   0  0  0  0  0  0
   26.2735    3.8592   -0.1923 H   0  0  0  0  0  0
   27.8889    5.6363    0.4100 H   0  0  0  0  0  0
   27.8264    6.6461    2.6470 H   0  0  0  0  0  0
   24.5683    4.0715    3.7288 H   0  0  0  0  0  0
   26.1605    7.1831    4.5873 H   0  0  0  0  0  0
   27.4448    4.6566    5.7694 H   0  0  0  0  0  0
   27.2090    6.1405    6.6645 H   0  0  0  0  0  0
   29.2062    5.5044    4.7787 H   0  0  0  0  0  0
   29.7376    6.6515    6.8223 H   0  0  0  0  0  0
   28.6101    7.9161    6.3276 H   0  0  0  0  0  0
   31.0049    8.5551    5.8301 H   0  0  0  0  0  0
   29.9327    8.5704    4.4767 H   0  0  0  0  0  0
   32.9572    7.0667    5.9460 H   0  0  0  0  0  0
   34.6497    5.9779    4.5330 H   0  0  0  0  0  0
   34.1194    5.3165    2.2563 H   0  0  0  0  0  0
   30.1269    6.8365    2.7863 H   0  0  0  0  0  0
   24.9657    6.4484    6.2503 H   0  0  0  0  0  0
   30.6834    4.6368   -1.1070 H   0  0  0  0  0  0
   34.2959    4.8104   -3.4420 H   0  0  0  0  0  0
   34.2158    6.3784    0.5175 H   0  0  0  0  0  0
   35.4980    7.4169   -0.3716 H   0  0  0  0  0  0
   30.6501    3.9095   -3.2279 H   0  0  0  0  0  0
   32.1303    3.0873   -7.3045 H   0  0  0  0  0  0
   30.3931    2.2075   -8.7723 H   0  0  0  0  0  0
   28.2241    1.4533   -7.8353 H   0  0  0  0  0  0
   27.8020    1.6186   -5.4030 H   0  0  0  0  0  0
   29.5183    2.5135   -3.9193 H   0  0  0  0  0  0
  1  6  1  0  0  0
  1  2  2  0  0  0
  1  7  1  0  0  0
  2  3  1  0  0  0
  2 39  1  0  0  0
  3  4  2  0  0  0
  3 40  1  0  0  0
  4  5  1  0  0  0
  4 41  1  0  0  0
  5  6  2  0  0  0
  5  8  1  0  0  0
  6 42  1  0  0  0
  8  9  1  0  0  0
  8 19  1  0  0  0
  8 43  1  0  0  0
  9 10  1  0  0  0
  9 44  1  0  0  0
  9 45  1  0  0  0
 10 11  1  0  0  0
 10 46  1  0  0  0
 11 12  1  0  0  0
 11 47  1  0  0  0
 11 48  1  0  0  0
 12 13  1  0  0  0
 12 49  1  0  0  0
 12 50  1  0  0  0
 13 14  2  0  0  0
 13 18  1  0  0  0
 14 15  1  0  0  0
 14 51  1  0  0  0
 15 16  2  0  0  0
 15 52  1  0  0  0
 16 17  1  0  0  0
 16 53  1  0  0  0
 17 20  1  0  0  0
 17 18  2  0  0  0
 18 54  1  0  0  0
 19 55  1  0  0  0
 20 21  1  0  0  0
 21 22  2  0  0  0
 21 26  1  0  0  0
 22 23  1  0  0  0
 22 56  1  0  0  0
 23 24  2  0  0  0
 23 30  1  0  0  0
 24 25  1  0  0  0
 24 57  1  0  0  0
 25 26  2  0  0  0
 25 27  1  0  0  0
 26 58  1  0  0  0
 27 28  1  0  0  0
 27 29  2  0  0  0
 28 59  1  0  0  0
 30 31  1  0  0  0
 30 60  1  0  0  0
 31 32  2  0  0  0
 31 33  1  0  0  0
 33 34  2  0  0  0
 33 38  1  0  0  0
 34 35  1  0  0  0
 34 61  1  0  0  0
 35 36  2  0  0  0
 35 62  1  0  0  0
 36 37  1  0  0  0
 36 63  1  0  0  0
 37 38  2  0  0  0
 37 64  1  0  0  0
 38 65  1  0  0  0
M  END
> <s_m_entry_id>
3080

> <s_m_entry_name>
dock_pv.172

> <s_m_Source_Path>
/home/csk/Desktop/cluster/DUD-E-result/adrb1

> <s_m_Source_File>
dock_pv.maegz

> <i_m_Source_File_Index>
172

> <chembl_id>
CHEMBL524145

> <chembl_pref_name>
None

> <i_lp_mmshare_version>
53161

> <i_f3d_flags>
0

> <r_lp_tautomer_probability>
1

> <s_lp_Force_Field>
OPLS_2005

> <r_lp_Energy>
39.894379

> <b_lp_Chiralities_Consistent>
1

> <s_lp_Variant>
CHEMBL213_lig769-1

> <s_i_glide_gridfile>
glide-grid_2vt4

> <i_i_glide_lignum>
875

> <i_i_glide_rotatable_bonds>
14

> <r_i_docking_score>
-7.69366726735485

> <r_i_glide_ligand_efficiency>
-0.202464928088285

> <r_i_glide_ligand_efficiency_sa>
-0.68068210814679

> <r_i_glide_ligand_efficiency_ln>
-1.65898098760256

> <r_i_glide_gscore>
-7.69366726735485

> <r_i_glide_lipo>
-4.35044432851319

> <r_i_glide_hbond>
-0.188997122524386

> <r_i_glide_metal>
0

> <r_i_glide_rewards>
-1.12915407625311

> <r_i_glide_evdw>
-53.2918014526367

> <r_i_glide_ecoul>
-1.09878039360046

> <r_i_glide_erotb>
0.804335391607748

> <r_i_glide_esite>
0

> <r_i_glide_emodel>
-72.0600345093507

> <r_i_glide_energy>
-54.3905818462372

> <r_i_glide_einternal>
13.0712633132935

> <i_i_glide_confnum>
44

> <i_i_glide_posenum>
99

> <r_i_glide_eff_state_penalty>
0

> <s_user_duplicate_titles>
CHEMBL213_lig769,492875

> <s_m_subgroup_title>
dock_pv

> <s_m_subgroupid>
dock_pv

> <b_m_subgroup_collapsed>
1

$$$$
CHEMBL213_lig646
                    3D
 Schrodinger Suite 2021-1.
 65 67  0  0  1  0            999 V2000
   33.0487    5.0495   -3.5283 C   0  0  0  0  0  0
   33.2824    4.3080   -4.6300 N   0  0  0  0  0  0
   34.1496    5.1256   -2.7490 N   0  0  0  0  0  0
   32.3394    3.6576   -5.4618 C   0  0  0  0  0  0
   31.9535    5.5381   -3.2460 O   0  0  0  0  0  0
   32.7492    3.2791   -6.7546 C   0  0  0  0  0  0
   32.9413    7.4499    3.5849 N   0  0  2  0  0  0
   34.2353    5.4337   -1.3719 C   0  0  0  0  0  0
   28.9831    5.8463    2.7855 O   0  0  0  0  0  0
   30.5243    7.2665    4.0458 C   0  0  1  0  0  0
   31.8884    6.5367    4.0395 C   0  0  0  0  0  0
   34.5449    5.7572    1.4028 C   0  0  0  0  0  0
   29.2785    6.3541    4.0846 C   0  0  0  0  0  0
   34.6776    5.7193    2.9300 C   0  0  0  0  0  0
   27.7271    5.3253    2.5313 C   0  0  0  0  0  0
   35.5086    5.4089   -0.7950 C   0  0  0  0  0  0
   33.1236    5.6770   -0.5527 C   0  0  0  0  0  0
   35.6635    5.5652    0.5848 C   0  0  0  0  0  0
   33.2826    5.8498    0.8157 C   0  0  0  0  0  0
   34.0340    3.6163   -7.1473 O   0  0  0  0  0  0
   30.4817    8.1039    5.1850 O   0  0  0  0  0  0
   34.3268    7.0013    3.7371 C   0  0  1  0  0  0
   36.6068    7.8951    3.5826 O   0  0  0  0  0  0
   31.0457    3.3260   -5.0194 C   0  0  0  0  0  0
   31.8506    2.5730   -7.5761 C   0  0  0  0  0  0
   35.2374    8.2049    3.4100 C   0  0  0  0  0  0
   26.7678    5.0500    3.5205 C   0  0  0  0  0  0
   27.4267    5.0498    1.1958 C   0  0  0  0  0  0
   34.4623    3.3299   -8.4741 C   0  0  0  0  0  0
   30.1689    2.6299   -5.8471 C   0  0  0  0  0  0
   30.5724    2.2501   -7.1246 C   0  0  0  0  0  0
   25.5367    4.4990    3.1692 C   0  0  0  0  0  0
   26.2087    4.4758    0.8438 C   0  0  0  0  0  0
   25.2694    4.1996    1.8344 C   0  0  0  0  0  0
   34.2410    4.2104   -4.9318 H   0  0  0  0  0  0
   35.0206    4.8412   -3.1709 H   0  0  0  0  0  0
   32.8263    8.3912    3.9761 H   0  0  0  0  0  0
   30.4344    7.8891    3.1574 H   0  0  0  0  0  0
   32.1109    6.1425    5.0325 H   0  0  0  0  0  0
   31.8260    5.6806    3.3708 H   0  0  0  0  0  0
   28.4308    6.9500    4.4344 H   0  0  0  0  0  0
   29.4048    5.5336    4.7848 H   0  0  0  0  0  0
   35.6920    5.4131    3.1854 H   0  0  0  0  0  0
   34.0639    4.9015    3.2984 H   0  0  0  0  0  0
   36.3818    5.2210   -1.4049 H   0  0  0  0  0  0
   32.1160    5.6953   -0.9319 H   0  0  0  0  0  0
   36.6505    5.4759    1.0137 H   0  0  0  0  0  0
   32.3982    6.0034    1.4088 H   0  0  0  0  0  0
   31.2176    8.7287    5.1303 H   0  0  0  0  0  0
   34.4690    6.7801    4.7953 H   0  0  0  0  0  0
   36.9137    7.4275    2.8008 H   0  0  0  0  0  0
   30.7119    3.5789   -4.0238 H   0  0  0  0  0  0
   32.1301    2.2563   -8.5688 H   0  0  0  0  0  0
   35.0842    8.5311    2.3851 H   0  0  0  0  0  0
   35.0087    9.0468    4.0647 H   0  0  0  0  0  0
   26.9668    5.2412    4.5634 H   0  0  0  0  0  0
   28.1537    5.2625    0.4275 H   0  0  0  0  0  0
   35.4767    3.7054   -8.6094 H   0  0  0  0  0  0
   34.4810    2.2554   -8.6656 H   0  0  0  0  0  0
   33.8270    3.8162   -9.2160 H   0  0  0  0  0  0
   29.1796    2.3795   -5.4914 H   0  0  0  0  0  0
   29.8911    1.7141   -7.7675 H   0  0  0  0  0  0
   24.7972    4.2886    3.9282 H   0  0  0  0  0  0
   25.9890    4.2510   -0.1917 H   0  0  0  0  0  0
   24.3202    3.7633    1.5592 H   0  0  0  0  0  0
  1  2  1  0  0  0
  1  3  1  0  0  0
  1  5  2  0  0  0
  2  4  1  0  0  0
  2 35  1  0  0  0
  3  8  1  0  0  0
  3 36  1  0  0  0
  4  6  2  0  0  0
  4 24  1  0  0  0
  6 20  1  0  0  0
  6 25  1  0  0  0
  7 22  1  0  0  0
  7 11  1  0  0  0
  7 37  1  0  0  0
  8 16  1  0  0  0
  8 17  2  0  0  0
  9 13  1  0  0  0
  9 15  1  0  0  0
 10 11  1  0  0  0
 10 13  1  0  0  0
 10 21  1  0  0  0
 10 38  1  0  0  0
 11 39  1  0  0  0
 11 40  1  0  0  0
 12 19  2  0  0  0
 12 14  1  0  0  0
 12 18  1  0  0  0
 13 41  1  0  0  0
 13 42  1  0  0  0
 14 22  1  0  0  0
 14 43  1  0  0  0
 14 44  1  0  0  0
 15 27  1  0  0  0
 15 28  2  0  0  0
 16 18  2  0  0  0
 16 45  1  0  0  0
 17 19  1  0  0  0
 17 46  1  0  0  0
 18 47  1  0  0  0
 19 48  1  0  0  0
 20 29  1  0  0  0
 21 49  1  0  0  0
 22 26  1  0  0  0
 22 50  1  0  0  0
 23 26  1  0  0  0
 23 51  1  0  0  0
 24 30  2  0  0  0
 24 52  1  0  0  0
 25 31  2  0  0  0
 25 53  1  0  0  0
 26 54  1  0  0  0
 26 55  1  0  0  0
 27 32  2  0  0  0
 27 56  1  0  0  0
 28 33  1  0  0  0
 28 57  1  0  0  0
 29 58  1  0  0  0
 29 59  1  0  0  0
 29 60  1  0  0  0
 30 31  1  0  0  0
 30 61  1  0  0  0
 31 62  1  0  0  0
 32 34  1  0  0  0
 32 63  1  0  0  0
 33 34  2  0  0  0
 33 64  1  0  0  0
 34 65  1  0  0  0
M  END
> <s_m_entry_id>
3081

> <s_m_entry_name>
dock_pv.173

> <s_m_Source_Path>
/home/csk/Desktop/cluster/DUD-E-result/adrb1

> <s_m_Source_File>
dock_pv.maegz

> <i_m_Source_File_Index>
173

> <chembl_id>
CHEMBL183744

> <chembl_pref_name>
None

> <i_lp_mmshare_version>
53161

> <i_f3d_flags>
0

> <r_lp_tautomer_probability>
1

> <s_lp_Force_Field>
OPLS_2005

> <r_lp_Energy>
46.794082

> <b_lp_Chiralities_Consistent>
1

> <s_lp_Variant>
CHEMBL213_lig646-1

> <s_i_glide_gridfile>
glide-grid_2vt4

> <i_i_glide_lignum>
748

> <i_i_glide_rotatable_bonds>
16

> <r_i_docking_score>
-7.69356273029895

> <r_i_glide_ligand_efficiency>
-0.226281256773499

> <r_i_glide_ligand_efficiency_sa>
-0.733063428989644

> <r_i_glide_ligand_efficiency_ln>
-1.69972380424809

> <r_i_glide_gscore>
-7.69356273029895

> <r_i_glide_lipo>
-3.65675579925167

> <r_i_glide_hbond>
-0.782174790310109

> <r_i_glide_metal>
0

> <r_i_glide_rewards>
-0.809627782985566

> <r_i_glide_evdw>
-44.6394653320312

> <r_i_glide_ecoul>
-8.86466884613037

> <r_i_glide_erotb>
1.11666923576951

> <r_i_glide_esite>
0

> <r_i_glide_emodel>
-72.5404567784015

> <r_i_glide_energy>
-53.5041341781616

> <r_i_glide_einternal>
9.21881008148193

> <i_i_glide_confnum>
41

> <i_i_glide_posenum>
106

> <r_i_glide_eff_state_penalty>
0

> <s_user_duplicate_titles>
CHEMBL213_lig646,305187

> <s_m_subgroup_title>
dock_pv

> <s_m_subgroupid>
dock_pv

> <b_m_subgroup_collapsed>
1

$$$$
CHEMBL213_lig1006
                    3D
 Schrodinger Suite 2021-1.
 56 58  0  0  1  0            999 V2000
   24.3849    4.6500    3.9873 C   0  0  0  0  0  0
   23.5983    4.0509    3.0008 C   0  0  0  0  0  0
   24.1354    3.7278    1.7551 C   0  0  0  0  0  0
   25.4804    3.9913    1.4773 C   0  0  0  0  0  0
   23.8084    5.0325    5.1850 O   0  0  0  0  0  0
   26.0995    3.6501    0.1179 C   0  0  2  0  0  0
   26.3056    4.9263   -0.7268 C   0  0  0  0  0  0
   25.4080    2.6504   -0.6121 O   0  0  0  0  0  0
   27.4152    4.7757   -1.6719 N   0  0  2  0  0  0
   27.7787    5.9245   -2.5182 C   0  0  0  0  0  0
   29.1792    5.6463   -3.1611 C   0  0  0  0  0  0
   29.3401    4.5335   -4.2105 C   0  0  0  0  0  0
   28.4000    3.5117   -4.3733 C   0  0  0  0  0  0
   28.5912    2.5131   -5.3093 C   0  0  0  0  0  0
   29.7012    2.5461   -6.1463 C   0  0  0  0  0  0
   30.6566    3.5543   -5.9998 C   0  0  0  0  0  0
   30.4778    4.5395   -5.0274 C   0  0  0  0  0  0
   26.7306    6.2505   -3.6033 C   0  0  0  0  0  0
   27.8949    7.1574   -1.6149 C   0  0  0  0  0  0
   25.7258    4.9348    3.7170 C   0  0  0  0  0  0
   26.2602    4.6038    2.4731 C   0  0  0  0  0  0
   27.6196    4.7221    2.2713 O   0  0  0  0  0  0
   28.3285    5.7180    3.0370 C   0  0  0  0  0  0
   27.8073    5.9769    4.4775 C   0  0  0  0  0  0
   26.5531    5.5366    4.6641 N   0  0  0  0  0  0
   28.4601    6.5286    5.3609 O   0  0  0  0  0  0
   29.8178    1.4914   -7.2284 C   0  0  0  0  0  0
   28.6094    1.5239   -8.1794 C   0  0  0  0  0  0
   22.5588    3.8499    3.1963 H   0  0  0  0  0  0
   23.5003    3.2764    1.0055 H   0  0  0  0  0  0
   22.8484    5.0494    5.1471 H   0  0  0  0  0  0
   27.0694    3.2165    0.3391 H   0  0  0  0  0  0
   26.5697    5.7148   -0.0241 H   0  0  0  0  0  0
   25.3839    5.2366   -1.2148 H   0  0  0  0  0  0
   24.7871    3.0762   -1.2232 H   0  0  0  0  0  0
   27.2474    3.9587   -2.2439 H   0  0  0  0  0  0
   29.9056    5.4472   -2.3712 H   0  0  0  0  0  0
   29.5127    6.5693   -3.6392 H   0  0  0  0  0  0
   27.5044    3.4490   -3.7804 H   0  0  0  0  0  0
   27.8462    1.7354   -5.3959 H   0  0  0  0  0  0
   31.5247    3.5881   -6.6417 H   0  0  0  0  0  0
   31.2177    5.3202   -4.9234 H   0  0  0  0  0  0
   27.0245    7.1257   -4.1838 H   0  0  0  0  0  0
   26.5990    5.4406   -4.3158 H   0  0  0  0  0  0
   25.7596    6.4777   -3.1673 H   0  0  0  0  0  0
   28.2080    8.0248   -2.1916 H   0  0  0  0  0  0
   26.9545    7.4402   -1.1430 H   0  0  0  0  0  0
   28.6081    6.9770   -0.8151 H   0  0  0  0  0  0
   29.3932    5.4873    3.0837 H   0  0  0  0  0  0
   28.2041    6.6499    2.5047 H   0  0  0  0  0  0
   26.1763    5.7250    5.5814 H   0  0  0  0  0  0
   29.8804    0.5191   -6.7380 H   0  0  0  0  0  0
   30.7445    1.6124   -7.7921 H   0  0  0  0  0  0
   28.6076    0.6500   -8.8154 H   0  0  0  0  0  0
   28.6259    2.4106   -8.8136 H   0  0  0  0  0  0
   27.6556    1.5122   -7.6524 H   0  0  0  0  0  0
  1  2  1  0  0  0
  1  5  1  0  0  0
  1 20  2  0  0  0
  2  3  2  0  0  0
  2 29  1  0  0  0
  3  4  1  0  0  0
  3 30  1  0  0  0
  4  6  1  0  0  0
  4 21  2  0  0  0
  5 31  1  0  0  0
  6  7  1  0  0  0
  6  8  1  0  0  0
  6 32  1  0  0  0
  7  9  1  0  0  0
  7 33  1  0  0  0
  7 34  1  0  0  0
  8 35  1  0  0  0
  9 10  1  0  0  0
  9 36  1  0  0  0
 10 18  1  0  0  0
 10 19  1  0  0  0
 10 11  1  0  0  0
 11 12  1  0  0  0
 11 37  1  0  0  0
 11 38  1  0  0  0
 12 17  1  0  0  0
 12 13  2  0  0  0
 13 14  1  0  0  0
 13 39  1  0  0  0
 14 15  2  0  0  0
 14 40  1  0  0  0
 15 16  1  0  0  0
 15 27  1  0  0  0
 16 17  2  0  0  0
 16 41  1  0  0  0
 17 42  1  0  0  0
 18 43  1  0  0  0
 18 44  1  0  0  0
 18 45  1  0  0  0
 19 46  1  0  0  0
 19 47  1  0  0  0
 19 48  1  0  0  0
 20 21  1  0  0  0
 20 25  1  0  0  0
 21 22  1  0  0  0
 22 23  1  0  0  0
 23 24  1  0  0  0
 23 49  1  0  0  0
 23 50  1  0  0  0
 24 25  1  0  0  0
 24 26  2  0  0  0
 25 51  1  0  0  0
 27 28  1  0  0  0
 27 52  1  0  0  0
 27 53  1  0  0  0
 28 54  1  0  0  0
 28 55  1  0  0  0
 28 56  1  0  0  0
M  END
> <s_m_entry_id>
3082

> <s_m_entry_name>
dock_pv.174

> <s_m_Source_Path>
/home/csk/Desktop/cluster/DUD-E-result/adrb1

> <s_m_Source_File>
dock_pv.maegz

> <i_m_Source_File_Index>
174

> <chembl_id>
CHEMBL567192

> <chembl_pref_name>
None

> <i_lp_mmshare_version>
53161

> <i_f3d_flags>
0

> <r_lp_tautomer_probability>
1

> <s_lp_Force_Field>
OPLS_2005

> <r_lp_Energy>
33.321814

> <b_lp_Chiralities_Consistent>
1

> <s_lp_Variant>
CHEMBL213_lig1006-1

> <s_i_glide_gridfile>
glide-grid_2vt4

> <i_i_glide_lignum>
1131

> <i_i_glide_rotatable_bonds>
9

> <r_i_docking_score>
-7.68995950333288

> <r_i_glide_ligand_efficiency>
-0.274641410833317

> <r_i_glide_ligand_efficiency_sa>
-0.833973078430501

> <r_i_glide_ligand_efficiency_ln>
-1.7750684403913

> <r_i_glide_gscore>
-7.68995950333288

> <r_i_glide_lipo>
-2.78250642328356

> <r_i_glide_hbond>
-0.557453727790933

> <r_i_glide_metal>
0

> <r_i_glide_rewards>
-2.51782698902223

> <r_i_glide_evdw>
-32.7296905517578

> <r_i_glide_ecoul>
-6.5659613609314

> <r_i_glide_erotb>
0.789206368491451

> <r_i_glide_esite>
0

> <r_i_glide_emodel>
-50.4851242547855

> <r_i_glide_energy>
-39.2956519126892

> <r_i_glide_einternal>
10.98291015625

> <i_i_glide_confnum>
114

> <i_i_glide_posenum>
241

> <r_i_glide_eff_state_penalty>
0

> <s_user_duplicate_titles>
CHEMBL213_lig1006,573853

> <s_m_subgroup_title>
dock_pv

> <s_m_subgroupid>
dock_pv

> <b_m_subgroup_collapsed>
1

$$$$
CHEMBL213_lig1238
                    3D
 Schrodinger Suite 2021-1.
 54 56  0  0  1  0            999 V2000
   27.0549    6.0962    4.4920 S   0  0  0  0  0  0
   26.3099    5.1991    3.1126 C   0  0  0  0  0  0
   26.9780    5.1811    1.8826 C   0  0  0  0  0  0
   25.0638    4.5555    3.2155 C   0  0  0  0  0  0
   27.0081    5.2439    5.6827 O   0  0  0  0  0  0
   28.3379    6.6500    4.0489 O   0  0  0  0  0  0
   25.9958    7.4500    4.7851 N   0  0  0  0  0  0
   34.3967    4.6680   -1.6156 C   0  0  0  0  0  0
   33.7803    4.4114   -2.8776 C   0  0  0  0  0  0
   32.6134    5.0966   -3.1814 O   0  0  0  0  0  0
   26.4207    4.5475    0.7613 C   0  0  0  0  0  0
   24.5486    3.8496    2.1247 C   0  0  0  0  0  0
   35.5875    3.9630   -1.2541 C   0  0  0  0  0  0
   32.0262    4.9359   -4.4709 C   0  0  0  0  0  0
   24.0957    4.6500    4.6436 Cl  0  0  0  0  0  0
   26.9903    4.6179   -0.5197 N   0  0  0  0  0  0
   30.5939    5.5015   -4.5014 C   0  0  1  0  0  0
   25.2207    3.8501    0.9041 C   0  0  0  0  0  0
   29.2345    4.5539   -2.6058 N   0  0  1  0  0  0
   30.2905    5.8500   -5.8315 O   0  0  0  0  0  0
   35.5286    2.7876   -3.3796 C   0  0  0  0  0  0
   29.5139    4.4889   -4.0356 C   0  0  0  0  0  0
   34.3825    3.4808   -3.7420 C   0  0  0  0  0  0
   33.8700    5.6127   -0.6939 C   0  0  0  0  0  0
   36.1237    3.0124   -2.1489 C   0  0  0  0  0  0
   27.9643    5.6672   -0.8169 C   0  0  0  0  0  0
   28.3984    5.7066   -2.2843 C   0  0  0  0  0  0
   36.2081    4.2258   -0.0080 C   0  0  0  0  0  0
   34.5041    5.8497    0.5237 C   0  0  0  0  0  0
   35.6640    5.1636    0.8642 C   0  0  0  0  0  0
   27.9169    5.7019    1.7945 H   0  0  0  0  0  0
   25.1180    7.1270    5.1970 H   0  0  0  0  0  0
   26.4280    8.0927    5.4588 H   0  0  0  0  0  0
   23.5949    3.3479    2.2045 H   0  0  0  0  0  0
   31.9816    3.8945   -4.7922 H   0  0  0  0  0  0
   32.6660    5.4536   -5.1880 H   0  0  0  0  0  0
   26.3670    4.3815   -1.2864 H   0  0  0  0  0  0
   30.5413    6.4341   -3.9393 H   0  0  0  0  0  0
   24.7731    3.3508    0.0556 H   0  0  0  0  0  0
   28.7853    3.6955   -2.2930 H   0  0  0  0  0  0
   30.6885    6.7142   -6.0264 H   0  0  0  0  0  0
   35.9609    2.0700   -4.0616 H   0  0  0  0  0  0
   29.8276    3.4739   -4.2840 H   0  0  0  0  0  0
   28.5727    4.6318   -4.5726 H   0  0  0  0  0  0
   33.9790    3.2663   -4.7168 H   0  0  0  0  0  0
   32.9718    6.1581   -0.9417 H   0  0  0  0  0  0
   37.0079    2.4621   -1.8730 H   0  0  0  0  0  0
   27.5128    6.6274   -0.5595 H   0  0  0  0  0  0
   28.8352    5.5693   -0.1677 H   0  0  0  0  0  0
   27.5087    5.7277   -2.9177 H   0  0  0  0  0  0
   28.9469    6.6308   -2.4616 H   0  0  0  0  0  0
   37.1112    3.6923    0.2554 H   0  0  0  0  0  0
   34.0918    6.5784    1.2060 H   0  0  0  0  0  0
   36.1469    5.3619    1.8092 H   0  0  0  0  0  0
  1  2  1  0  0  0
  1  5  2  0  0  0
  1  6  2  0  0  0
  1  7  1  0  0  0
  2  3  2  0  0  0
  2  4  1  0  0  0
  3 11  1  0  0  0
  3 31  1  0  0  0
  4 12  2  0  0  0
  4 15  1  0  0  0
  7 32  1  0  0  0
  7 33  1  0  0  0
  8  9  2  0  0  0
  8 13  1  0  0  0
  8 24  1  0  0  0
  9 10  1  0  0  0
  9 23  1  0  0  0
 10 14  1  0  0  0
 11 16  1  0  0  0
 11 18  2  0  0  0
 12 18  1  0  0  0
 12 34  1  0  0  0
 13 28  1  0  0  0
 13 25  2  0  0  0
 14 17  1  0  0  0
 14 35  1  0  0  0
 14 36  1  0  0  0
 16 26  1  0  0  0
 16 37  1  0  0  0
 17 22  1  0  0  0
 17 20  1  0  0  0
 17 38  1  0  0  0
 18 39  1  0  0  0
 19 27  1  0  0  0
 19 22  1  0  0  0
 19 40  1  0  0  0
 20 41  1  0  0  0
 21 23  2  0  0  0
 21 25  1  0  0  0
 21 42  1  0  0  0
 22 43  1  0  0  0
 22 44  1  0  0  0
 23 45  1  0  0  0
 24 29  2  0  0  0
 24 46  1  0  0  0
 25 47  1  0  0  0
 26 27  1  0  0  0
 26 48  1  0  0  0
 26 49  1  0  0  0
 27 50  1  0  0  0
 27 51  1  0  0  0
 28 30  2  0  0  0
 28 52  1  0  0  0
 29 30  1  0  0  0
 29 53  1  0  0  0
 30 54  1  0  0  0
M  END
> <s_m_entry_id>
3083

> <s_m_entry_name>
dock_pv.175

> <s_m_Source_Path>
/home/csk/Desktop/cluster/DUD-E-result/adrb1

> <s_m_Source_File>
dock_pv.maegz

> <i_m_Source_File_Index>
175

> <chembl_id>
CHEMBL40297

> <chembl_pref_name>
None

> <i_lp_mmshare_version>
53161

> <i_f3d_flags>
0

> <r_lp_tautomer_probability>
1

> <s_lp_Force_Field>
OPLS_2005

> <r_lp_Energy>
28.789851

> <b_lp_Chiralities_Consistent>
1

> <s_lp_Variant>
CHEMBL213_lig1238-1

> <s_i_glide_gridfile>
glide-grid_2vt4

> <i_i_glide_lignum>
1480

> <i_i_glide_rotatable_bonds>
11

> <r_i_docking_score>
-7.6814420457395

> <r_i_glide_ligand_efficiency>
-0.256048068191317

> <r_i_glide_ligand_efficiency_sa>
-0.795600879668751

> <r_i_glide_ligand_efficiency_ln>
-1.74530732880663

> <r_i_glide_gscore>
-7.6814420457395

> <r_i_glide_lipo>
-2.82726093659854

> <r_i_glide_hbond>
-0.7599370579646

> <r_i_glide_metal>
0

> <r_i_glide_rewards>
-0.707633712937608

> <r_i_glide_evdw>
-44.8684463500977

> <r_i_glide_ecoul>
-12.8446664810181

> <r_i_glide_erotb>
0.792073886871952

> <r_i_glide_esite>
-0.00856193545310941

> <r_i_glide_emodel>
-78.9862523324591

> <r_i_glide_energy>
-57.7131128311157

> <r_i_glide_einternal>
8.61900901794434

> <i_i_glide_confnum>
34

> <i_i_glide_posenum>
339

> <r_i_glide_eff_state_penalty>
0

> <s_user_duplicate_titles>
CHEMBL213_lig1238,61628

> <s_m_subgroup_title>
dock_pv

> <s_m_subgroupid>
dock_pv

> <b_m_subgroup_collapsed>
1

$$$$
CHEMBL213_lig1479
                    3D
 Schrodinger Suite 2021-1.
 60 62  0  0  1  0            999 V2000
   25.1600    4.2499    2.3875 C   0  0  0  0  0  0
   25.9473    4.3190    1.2423 C   0  0  0  0  0  0
   27.1909    4.9630    1.2891 C   0  0  0  0  0  0
   27.6453    5.4975    2.5064 C   0  0  0  0  0  0
   26.8774    5.4162    3.6770 C   0  0  0  0  0  0
   25.6219    4.7958    3.5857 C   0  0  0  0  0  0
   25.4833    3.7657    0.0752 O   0  0  0  0  0  0
   28.0632    5.0533    0.0387 C   0  0  0  0  0  0
   27.4918    5.8590   -0.9685 O   0  0  0  0  0  0
   27.4011    5.9230    5.0461 C   0  0  1  0  0  0
   28.4301    7.1023    5.0519 C   0  0  0  0  0  0
   26.3644    6.2601    5.9544 O   0  0  0  0  0  0
   29.7901    6.6467    4.7860 N   0  0  2  0  0  0
   30.8955    7.5889    4.7017 C   0  0  0  0  0  0
   32.2386    6.8233    4.5448 C   0  0  0  0  0  0
   32.6400    6.4245    3.1192 C   0  0  0  0  0  0
   31.7161    5.8505    2.2477 C   0  0  0  0  0  0
   32.0866    5.4849    0.9563 C   0  0  0  0  0  0
   33.3933    5.7073    0.5030 C   0  0  0  0  0  0
   34.3331    6.2444    1.3926 C   0  0  0  0  0  0
   33.9594    6.6015    2.6896 C   0  0  0  0  0  0
   33.8174    5.3668   -0.7981 N   0  0  0  0  0  0
   33.1402    4.9016   -1.9432 C   0  0  0  0  0  0
   33.8560    4.1347   -2.8645 C   0  0  0  0  0  0
   33.2234    3.6002   -3.9873 C   0  0  0  0  0  0
   31.8566    3.8260   -4.2086 C   0  0  0  0  0  0
   31.7977    5.1877   -2.2044 C   0  0  0  0  0  0
   31.1553    4.6461   -3.3127 C   0  0  0  0  0  0
   31.1739    3.1991   -5.3886 C   0  0  0  0  0  0
   31.7787    2.6517   -6.3184 O   0  0  0  0  0  0
   29.8200    3.2254   -5.2891 O   0  0  0  0  0  0
   28.9984    2.5966   -6.2629 C   0  0  0  0  0  0
   24.1944    3.7684    2.3581 H   0  0  0  0  0  0
   28.6053    5.9828    2.5342 H   0  0  0  0  0  0
   24.9897    4.7129    4.4571 H   0  0  0  0  0  0
   24.5645    3.4824    0.0947 H   0  0  0  0  0  0
   29.0479    5.4493    0.2829 H   0  0  0  0  0  0
   28.2311    4.0588   -0.3843 H   0  0  0  0  0  0
   26.6578    5.4542   -1.2313 H   0  0  0  0  0  0
   27.8728    5.0594    5.5207 H   0  0  0  0  0  0
   28.4731    7.5287    6.0558 H   0  0  0  0  0  0
   28.1213    7.9000    4.3850 H   0  0  0  0  0  0
   26.5809    7.1020    6.3817 H   0  0  0  0  0  0
   29.9313    5.7405    4.3484 H   0  0  0  0  0  0
   30.9417    8.2293    5.5845 H   0  0  0  0  0  0
   30.7386    8.2483    3.8458 H   0  0  0  0  0  0
   32.2532    5.9356    5.1780 H   0  0  0  0  0  0
   33.0297    7.4498    4.9506 H   0  0  0  0  0  0
   30.7090    5.6475    2.5678 H   0  0  0  0  0  0
   31.3441    5.0226    0.3335 H   0  0  0  0  0  0
   35.3505    6.4030    1.0706 H   0  0  0  0  0  0
   34.6973    7.0303    3.3520 H   0  0  0  0  0  0
   34.8178    5.4174   -0.9201 H   0  0  0  0  0  0
   34.9031    3.9208   -2.6992 H   0  0  0  0  0  0
   33.8017    2.9913   -4.6688 H   0  0  0  0  0  0
   31.2302    5.8444   -1.5710 H   0  0  0  0  0  0
   30.1090    4.8758   -3.4602 H   0  0  0  0  0  0
   27.9500    2.7013   -5.9850 H   0  0  0  0  0  0
   29.2237    1.5316   -6.3341 H   0  0  0  0  0  0
   29.1391    3.0476   -7.2451 H   0  0  0  0  0  0
  1  2  2  0  0  0
  1  6  1  0  0  0
  1 33  1  0  0  0
  2  3  1  0  0  0
  2  7  1  0  0  0
  3  4  2  0  0  0
  3  8  1  0  0  0
  4  5  1  0  0  0
  4 34  1  0  0  0
  5  6  2  0  0  0
  5 10  1  0  0  0
  6 35  1  0  0  0
  7 36  1  0  0  0
  8  9  1  0  0  0
  8 37  1  0  0  0
  8 38  1  0  0  0
  9 39  1  0  0  0
 10 11  1  0  0  0
 10 12  1  0  0  0
 10 40  1  0  0  0
 11 13  1  0  0  0
 11 41  1  0  0  0
 11 42  1  0  0  0
 12 43  1  0  0  0
 13 14  1  0  0  0
 13 44  1  0  0  0
 14 15  1  0  0  0
 14 45  1  0  0  0
 14 46  1  0  0  0
 15 16  1  0  0  0
 15 47  1  0  0  0
 15 48  1  0  0  0
 16 17  2  0  0  0
 16 21  1  0  0  0
 17 18  1  0  0  0
 17 49  1  0  0  0
 18 19  2  0  0  0
 18 50  1  0  0  0
 19 20  1  0  0  0
 19 22  1  0  0  0
 20 21  2  0  0  0
 20 51  1  0  0  0
 21 52  1  0  0  0
 22 23  1  0  0  0
 22 53  1  0  0  0
 23 24  2  0  0  0
 23 27  1  0  0  0
 24 25  1  0  0  0
 24 54  1  0  0  0
 25 26  2  0  0  0
 25 55  1  0  0  0
 26 28  1  0  0  0
 26 29  1  0  0  0
 27 28  2  0  0  0
 27 56  1  0  0  0
 28 57  1  0  0  0
 29 30  2  0  0  0
 29 31  1  0  0  0
 31 32  1  0  0  0
 32 58  1  0  0  0
 32 59  1  0  0  0
 32 60  1  0  0  0
M  END
> <s_m_entry_id>
3084

> <s_m_entry_name>
dock_pv.176

> <s_m_Source_Path>
/home/csk/Desktop/cluster/DUD-E-result/adrb1

> <s_m_Source_File>
dock_pv.maegz

> <i_m_Source_File_Index>
176

> <chembl_id>
CHEMBL3290996

> <chembl_pref_name>
None

> <i_lp_mmshare_version>
53161

> <i_f3d_flags>
0

> <r_lp_tautomer_probability>
0.999999999997365

> <s_lp_Force_Field>
OPLS_2005

> <r_lp_Energy>
26.904282

> <b_lp_Chiralities_Consistent>
1

> <s_lp_Variant>
CHEMBL213_lig1479-2

> <s_i_glide_gridfile>
glide-grid_2vt4

> <i_i_glide_lignum>
1827

> <i_i_glide_rotatable_bonds>
14

> <r_i_docking_score>
-7.67991874995416

> <r_i_glide_ligand_efficiency>
-0.239997460936068

> <r_i_glide_ligand_efficiency_sa>
-0.761944443038988

> <r_i_glide_ligand_efficiency_ln>
-1.71974315479322

> <r_i_glide_gscore>
-7.67991874995416

> <r_i_glide_lipo>
-3.72450747853652

> <r_i_glide_hbond>
-0.677759014016584

> <r_i_glide_metal>
0

> <r_i_glide_rewards>
-0.983810777709279

> <r_i_glide_evdw>
-45.0321998596191

> <r_i_glide_ecoul>
-7.2561616897583

> <r_i_glide_erotb>
1.04619276675293

> <r_i_glide_esite>
0

> <r_i_glide_emodel>
-70.4598624790667

> <r_i_glide_energy>
-52.2883615493774

> <r_i_glide_einternal>
9.86768341064453

> <i_i_glide_confnum>
38

> <i_i_glide_posenum>
217

> <r_i_glide_eff_state_penalty>
0

> <s_user_duplicate_titles>
CHEMBL213_lig1479

> <s_m_subgroup_title>
dock_pv

> <s_m_subgroupid>
dock_pv

> <b_m_subgroup_collapsed>
1

$$$$
CHEMBL213_lig701
                    3D
 Schrodinger Suite 2021-1.
 51 53  0  0  1  0            999 V2000
   35.4911    3.4914   -3.1496 C   0  0  0  0  0  0
   35.5992    4.4814   -2.1784 C   0  0  0  0  0  0
   34.4507    5.0303   -1.6115 C   0  0  0  0  0  0
   33.1863    4.5915   -2.0167 C   0  0  0  0  0  0
   33.0683    3.5923   -2.9912 C   0  0  0  0  0  0
   34.2319    3.0513   -3.5555 C   0  0  0  0  0  0
   34.6089    6.2497   -0.4060 Cl  0  0  0  0  0  0
   31.7003    3.0833   -3.4499 C   0  0  2  0  0  0
   30.8542    4.1574   -4.1932 C   0  0  0  0  0  0
   31.0081    2.3906   -2.4243 O   0  0  0  0  0  0
   30.0472    5.0858   -3.3840 N   0  0  2  0  0  0
   28.8073    4.5572   -2.7954 C   0  0  1  0  0  0
   28.0678    5.7238   -2.0949 C   0  0  0  0  0  0
   27.9128    3.8505   -3.8473 C   0  0  0  0  0  0
   26.7593    5.3450   -1.5577 N   0  0  0  0  0  0
   26.5275    4.9131   -0.2436 C   0  0  0  0  0  0
   27.3193    5.3028    0.8319 C   0  0  0  0  0  0
   26.9425    5.0149    2.1486 C   0  0  0  0  0  0
   25.7947    4.2509    2.3832 C   0  0  0  0  0  0
   25.0416    3.7812    1.3084 C   0  0  0  0  0  0
   25.4075    4.1191    0.0060 C   0  0  0  0  0  0
   27.7668    5.5605    3.2567 C   0  0  0  0  0  0
   29.0347    5.8835    3.1849 N   0  0  0  0  0  0
   29.3004    6.5254    4.3062 C   0  0  0  0  0  0
   28.1669    6.5181    5.1135 C   0  0  0  0  0  0
   27.1751    5.8967    4.4313 O   0  0  0  0  0  0
   30.5877    7.0497    4.6488 C   0  0  0  0  0  0
   31.3095    7.4501    3.5675 O   0  0  0  0  0  0
   31.0076    7.0501    5.7968 O   0  0  0  0  0  0
   36.3843    3.0652   -3.5847 H   0  0  0  0  0  0
   36.5782    4.8191   -1.8670 H   0  0  0  0  0  0
   32.2989    5.0195   -1.5735 H   0  0  0  0  0  0
   34.1724    2.2827   -4.3097 H   0  0  0  0  0  0
   31.8947    2.3119   -4.1959 H   0  0  0  0  0  0
   31.5521    4.7706   -4.7657 H   0  0  0  0  0  0
   30.2408    3.6885   -4.9629 H   0  0  0  0  0  0
   30.0634    2.3782   -2.6150 H   0  0  0  0  0  0
   29.8530    5.9295   -3.9064 H   0  0  0  0  0  0
   29.0653    3.8493   -2.0105 H   0  0  0  0  0  0
   28.7070    6.1588   -1.3278 H   0  0  0  0  0  0
   27.8917    6.5330   -2.8060 H   0  0  0  0  0  0
   27.0085    3.4537   -3.3857 H   0  0  0  0  0  0
   27.6006    4.5291   -4.6386 H   0  0  0  0  0  0
   28.3911    2.9881   -4.3042 H   0  0  0  0  0  0
   26.0702    5.0280   -2.2469 H   0  0  0  0  0  0
   28.2085    5.8719    0.6545 H   0  0  0  0  0  0
   25.4889    4.0174    3.3933 H   0  0  0  0  0  0
   24.1603    3.1790    1.4788 H   0  0  0  0  0  0
   24.8037    3.7721   -0.8149 H   0  0  0  0  0  0
   27.9282    6.8969    6.0980 H   0  0  0  0  0  0
   32.1394    7.8434    3.8536 H   0  0  0  0  0  0
  1  6  1  0  0  0
  1  2  2  0  0  0
  1 30  1  0  0  0
  2  3  1  0  0  0
  2 31  1  0  0  0
  3  7  1  0  0  0
  3  4  2  0  0  0
  4  5  1  0  0  0
  4 32  1  0  0  0
  5  8  1  0  0  0
  5  6  2  0  0  0
  6 33  1  0  0  0
  8  9  1  0  0  0
  8 10  1  0  0  0
  8 34  1  0  0  0
  9 11  1  0  0  0
  9 35  1  0  0  0
  9 36  1  0  0  0
 10 37  1  0  0  0
 11 12  1  0  0  0
 11 38  1  0  0  0
 12 13  1  0  0  0
 12 14  1  0  0  0
 12 39  1  0  0  0
 13 15  1  0  0  0
 13 40  1  0  0  0
 13 41  1  0  0  0
 14 42  1  0  0  0
 14 43  1  0  0  0
 14 44  1  0  0  0
 15 16  1  0  0  0
 15 45  1  0  0  0
 16 17  2  0  0  0
 16 21  1  0  0  0
 17 18  1  0  0  0
 17 46  1  0  0  0
 18 19  2  0  0  0
 18 22  1  0  0  0
 19 20  1  0  0  0
 19 47  1  0  0  0
 20 21  2  0  0  0
 20 48  1  0  0  0
 21 49  1  0  0  0
 22 23  2  0  0  0
 22 26  1  0  0  0
 23 24  1  0  0  0
 24 25  2  0  0  0
 24 27  1  0  0  0
 25 26  1  0  0  0
 25 50  1  0  0  0
 27 28  1  0  0  0
 27 29  2  0  0  0
 28 51  1  0  0  0
M  END
> <s_m_entry_id>
3085

> <s_m_entry_name>
dock_pv.177

> <s_m_Source_Path>
/home/csk/Desktop/cluster/DUD-E-result/adrb1

> <s_m_Source_File>
dock_pv.maegz

> <i_m_Source_File_Index>
177

> <chembl_id>
CHEMBL393469

> <chembl_pref_name>
None

> <i_lp_mmshare_version>
53161

> <i_f3d_flags>
0

> <r_lp_tautomer_probability>
1

> <s_lp_Force_Field>
OPLS_2005

> <r_lp_Energy>
18.573701

> <b_lp_Chiralities_Consistent>
1

> <s_lp_Variant>
CHEMBL213_lig701-1

> <s_i_glide_gridfile>
glide-grid_2vt4

> <i_i_glide_lignum>
803

> <i_i_glide_rotatable_bonds>
11

> <r_i_docking_score>
-7.66692357605212

> <r_i_glide_ligand_efficiency>
-0.26437667503628

> <r_i_glide_ligand_efficiency_sa>
-0.812248906121148

> <r_i_glide_ligand_efficiency_ln>
-1.75553108250875

> <r_i_glide_gscore>
-7.66692357605212

> <r_i_glide_lipo>
-2.42826503979702

> <r_i_glide_hbond>
-0.653895011915976

> <r_i_glide_metal>
0

> <r_i_glide_rewards>
-1.83240006548446

> <r_i_glide_evdw>
-41.2107162475586

> <r_i_glide_ecoul>
-10.2932710647583

> <r_i_glide_erotb>
0.913605323188546

> <r_i_glide_esite>
-0.0614423099515305

> <r_i_glide_emodel>
-70.4073953319192

> <r_i_glide_energy>
-51.5039873123169

> <r_i_glide_einternal>
13.9335975646973

> <i_i_glide_confnum>
31

> <i_i_glide_posenum>
381

> <r_i_glide_eff_state_penalty>
0

> <s_user_duplicate_titles>
CHEMBL213_lig701

> <s_m_subgroup_title>
dock_pv

> <s_m_subgroupid>
dock_pv

> <b_m_subgroup_collapsed>
1

$$$$
CHEMBL213_lig455
                    3D
 Schrodinger Suite 2021-1.
 62 65  0  0  1  0            999 V2000
   24.2080    5.0500    4.7850 C   0  0  0  0  0  0
   25.1772    5.8860    5.3090 C   0  0  0  0  0  0
   25.6872    4.4879    2.9365 C   0  0  0  0  0  0
   24.4514    4.3790    3.5850 C   0  0  0  0  0  0
   26.7003    5.2405    3.5568 C   0  0  0  0  0  0
   26.4370    5.9547    4.7215 C   0  0  0  0  0  0
   27.5120    6.6993    5.1693 N   0  0  0  0  0  0
   28.6941    6.5952    4.4704 C   0  0  0  0  0  0
   28.3787    5.4500    3.0719 S   0  0  0  0  0  0
   29.7623    7.1445    4.7239 O   0  0  0  0  0  0
   24.8707    6.6545    6.3850 O   0  0  0  0  0  0
   25.8962    3.7898    1.5919 C   0  0  2  0  0  0
   25.7146    4.7316    0.3963 C   0  0  0  0  0  0
   26.2080    4.0999   -0.8150 N   0  0  2  0  0  0
   27.5925    4.3995   -1.1637 C   0  0  0  0  0  0
   27.6842    4.4025   -2.6998 C   0  0  0  0  0  0
   29.0295    4.7961   -3.2718 C   0  0  0  0  0  0
   29.2710    6.1359   -3.5677 C   0  0  0  0  0  0
   30.4539    6.5035   -4.1912 C   0  0  0  0  0  0
   31.3931    5.5381   -4.5485 C   0  0  0  0  0  0
   31.1824    4.1917   -4.2277 C   0  0  0  0  0  0
   29.9940    3.8326   -3.5835 C   0  0  0  0  0  0
   25.0411    2.6721    1.3815 O   0  0  0  0  0  0
   32.1870    3.0905   -4.5757 C   0  0  0  0  0  0
   33.5677    3.5023   -4.8423 N   0  0  2  0  0  0
   34.2615    4.2128   -3.7685 C   0  0  0  0  0  0
   34.2535    3.4788   -2.4150 C   0  0  0  0  0  0
   34.9685    4.2724   -1.3315 C   0  0  0  0  0  0
   36.2159    3.8500   -0.8652 C   0  0  0  0  0  0
   36.8859    4.5808    0.1156 C   0  0  0  0  0  0
   36.3079    5.7350    0.6442 C   0  0  0  0  0  0
   35.0581    6.1569    0.1897 C   0  0  0  0  0  0
   34.3879    5.4295   -0.7947 C   0  0  0  0  0  0
   33.1756    5.8501   -1.2266 F   0  0  0  0  0  0
   23.2340    4.9748    5.2470 H   0  0  0  0  0  0
   23.6540    3.7928    3.1512 H   0  0  0  0  0  0
   27.4322    7.3154    5.9695 H   0  0  0  0  0  0
   23.9441    6.6172    6.6346 H   0  0  0  0  0  0
   26.9268    3.4500    1.5797 H   0  0  0  0  0  0
   24.6535    4.9418    0.2578 H   0  0  0  0  0  0
   26.2080    5.6918    0.5606 H   0  0  0  0  0  0
   25.6078    4.2500   -1.6381 H   0  0  0  0  0  0
   27.9151    5.3722   -0.7879 H   0  0  0  0  0  0
   28.2782    3.6693   -0.7328 H   0  0  0  0  0  0
   27.3743    3.4500   -3.1253 H   0  0  0  0  0  0
   26.9717    5.1201   -3.1020 H   0  0  0  0  0  0
   28.5350    6.8925   -3.3349 H   0  0  0  0  0  0
   30.6249    7.5448   -4.4150 H   0  0  0  0  0  0
   32.2792    5.8500   -5.0790 H   0  0  0  0  0  0
   29.8080    2.7941   -3.3514 H   0  0  0  0  0  0
   25.0382    2.5227    0.4299 H   0  0  0  0  0  0
   32.1362    2.2637   -3.8654 H   0  0  0  0  0  0
   31.8302    2.6582   -5.5114 H   0  0  0  0  0  0
   33.6491    3.9874   -5.7262 H   0  0  0  0  0  0
   35.2936    4.3897   -4.0760 H   0  0  0  0  0  0
   33.8622    5.2188   -3.6454 H   0  0  0  0  0  0
   33.2321    3.3004   -2.0775 H   0  0  0  0  0  0
   34.7062    2.4922   -2.5274 H   0  0  0  0  0  0
   36.6822    2.9623   -1.2692 H   0  0  0  0  0  0
   37.8585    4.2493    0.4510 H   0  0  0  0  0  0
   36.8289    6.3038    1.3997 H   0  0  0  0  0  0
   34.6080    7.0500    0.5965 H   0  0  0  0  0  0
  1  4  1  0  0  0
  1  2  2  0  0  0
  1 35  1  0  0  0
  2 11  1  0  0  0
  2  6  1  0  0  0
  3 12  1  0  0  0
  3  5  1  0  0  0
  3  4  2  0  0  0
  4 36  1  0  0  0
  5  9  1  0  0  0
  5  6  2  0  0  0
  6  7  1  0  0  0
  7  8  1  0  0  0
  7 37  1  0  0  0
  8  9  1  0  0  0
  8 10  2  0  0  0
 11 38  1  0  0  0
 12 23  1  0  0  0
 12 13  1  0  0  0
 12 39  1  0  0  0
 13 14  1  0  0  0
 13 40  1  0  0  0
 13 41  1  0  0  0
 14 15  1  0  0  0
 14 42  1  0  0  0
 15 16  1  0  0  0
 15 43  1  0  0  0
 15 44  1  0  0  0
 16 17  1  0  0  0
 16 45  1  0  0  0
 16 46  1  0  0  0
 17 18  2  0  0  0
 17 22  1  0  0  0
 18 19  1  0  0  0
 18 47  1  0  0  0
 19 20  2  0  0  0
 19 48  1  0  0  0
 20 21  1  0  0  0
 20 49  1  0  0  0
 21 22  2  0  0  0
 21 24  1  0  0  0
 22 50  1  0  0  0
 23 51  1  0  0  0
 24 25  1  0  0  0
 24 52  1  0  0  0
 24 53  1  0  0  0
 25 26  1  0  0  0
 25 54  1  0  0  0
 26 27  1  0  0  0
 26 55  1  0  0  0
 26 56  1  0  0  0
 27 28  1  0  0  0
 27 57  1  0  0  0
 27 58  1  0  0  0
 28 29  2  0  0  0
 28 33  1  0  0  0
 29 30  1  0  0  0
 29 59  1  0  0  0
 30 31  2  0  0  0
 30 60  1  0  0  0
 31 32  1  0  0  0
 31 61  1  0  0  0
 32 33  2  0  0  0
 32 62  1  0  0  0
 33 34  1  0  0  0
M  END
> <s_m_entry_id>
3086

> <s_m_entry_name>
dock_pv.178

> <s_m_Source_Path>
/home/csk/Desktop/cluster/DUD-E-result/adrb1

> <s_m_Source_File>
dock_pv.maegz

> <i_m_Source_File_Index>
178

> <chembl_id>
CHEMBL1944691

> <chembl_pref_name>
None

> <i_lp_mmshare_version>
53161

> <i_f3d_flags>
0

> <r_lp_tautomer_probability>
1

> <s_lp_Force_Field>
OPLS_2005

> <r_lp_Energy>
37.916249

> <b_lp_Chiralities_Consistent>
1

> <s_lp_Variant>
CHEMBL213_lig455-1

> <s_i_glide_gridfile>
glide-grid_2vt4

> <i_i_glide_lignum>
543

> <i_i_glide_rotatable_bonds>
13

> <r_i_docking_score>
-7.65856044103846

> <r_i_glide_ligand_efficiency>
-0.225251777677602

> <r_i_glide_ligand_efficiency_sa>
-0.729728316365329

> <r_i_glide_ligand_efficiency_ln>
-1.69199081676949

> <r_i_glide_gscore>
-7.65856044103846

> <r_i_glide_lipo>
-3.07306744831939

> <r_i_glide_hbond>
-0.411845123578135

> <r_i_glide_metal>
0

> <r_i_glide_rewards>
-1.65097764231334

> <r_i_glide_evdw>
-42.6021575927734

> <r_i_glide_ecoul>
-6.69923877716064

> <r_i_glide_erotb>
0.612323469385169

> <r_i_glide_esite>
0

> <r_i_glide_emodel>
-62.8691913060912

> <r_i_glide_energy>
-49.3013963699341

> <r_i_glide_einternal>
12.5712051391602

> <i_i_glide_confnum>
97

> <i_i_glide_posenum>
138

> <r_i_glide_eff_state_penalty>
0

> <s_user_duplicate_titles>
CHEMBL213_lig455

> <s_m_subgroup_title>
dock_pv

> <s_m_subgroupid>
dock_pv

> <b_m_subgroup_collapsed>
1

$$$$
CHEMBL213_lig1081
                    3D
 Schrodinger Suite 2021-1.
 77 79  0  0  1  0            999 V2000
   34.8153    6.4837    4.8217 C   0  0  0  0  0  0
   35.2234    6.4960    3.4805 C   0  0  0  0  0  0
   34.2716    6.5734    2.4692 C   0  0  0  0  0  0
   32.9167    6.6501    2.7849 C   0  0  0  0  0  0
   32.4825    6.6503    4.1133 C   0  0  0  0  0  0
   33.4484    6.5503    5.1236 C   0  0  0  0  0  0
   35.8277    6.4138    5.9562 C   0  0  0  0  0  0
   36.2131    7.6986    6.4008 O   0  0  0  0  0  0
   36.5479    6.4306    3.1321 O   0  0  0  0  0  0
   30.9920    6.7355    4.4751 C   0  0  2  0  0  0
   30.0224    6.1200    3.4107 C   0  0  0  0  0  0
   30.6060    8.0488    4.7871 O   0  0  0  0  0  0
   28.5848    6.2500    3.6722 N   0  0  2  0  0  0
   28.0938    5.5943    4.8745 C   0  0  0  0  0  0
   26.6111    5.9379    5.1182 C   0  0  0  0  0  0
   25.6015    5.6344    3.9866 C   0  0  0  0  0  0
   25.7806    4.2831    3.2718 C   0  0  0  0  0  0
   24.5693    3.8287    2.4303 C   0  0  0  0  0  0
   24.9184    2.6630    1.4932 C   0  0  0  0  0  0
   26.0055    3.0489    0.6597 O   0  0  0  0  0  0
   25.6568    3.7724   -0.5090 C   0  0  0  0  0  0
   26.6689    4.8876   -0.8401 C   0  0  0  0  0  0
   28.1271    4.5897   -0.4486 C   0  0  0  0  0  0
   29.1260    5.6954   -0.8356 C   0  0  0  0  0  0
   30.0023    5.4202   -2.0515 C   0  0  0  0  0  0
   31.3372    5.0346   -1.8677 C   0  0  0  0  0  0
   32.1935    4.8790   -2.9631 C   0  0  0  0  0  0
   31.7010    5.1128   -4.2541 C   0  0  0  0  0  0
   30.3690    5.4905   -4.4426 C   0  0  0  0  0  0
   29.5200    5.6410   -3.3446 C   0  0  0  0  0  0
   33.5328    4.4428   -2.7796 N   0  0  0  0  0  0
   33.7705    3.0998   -3.0170 C   0  0  0  0  0  0
   35.1765    2.7334   -2.9538 C   0  0  0  0  0  0
   36.0882    3.6692   -2.6378 C   0  0  0  0  0  0
   35.7595    4.9676   -2.3950 N   0  0  0  0  0  0
   34.4633    5.3876   -2.3569 C   0  0  0  0  0  0
   34.2084    6.4692   -1.8315 O   0  0  0  0  0  0
   32.9013    2.2494   -3.2154 O   0  0  0  0  0  0
   34.5691    6.5871    1.4287 H   0  0  0  0  0  0
   32.2177    6.7191    1.9658 H   0  0  0  0  0  0
   33.1343    6.5232    6.1535 H   0  0  0  0  0  0
   35.4031    5.8537    6.7871 H   0  0  0  0  0  0
   36.7192    5.8569    5.6547 H   0  0  0  0  0  0
   35.4143    8.2221    6.5064 H   0  0  0  0  0  0
   36.6727    6.4875    2.1808 H   0  0  0  0  0  0
   30.8744    6.2487    5.4333 H   0  0  0  0  0  0
   30.2084    6.6359    2.4761 H   0  0  0  0  0  0
   30.2581    5.0796    3.1858 H   0  0  0  0  0  0
   31.3974    8.6084    4.7870 H   0  0  0  0  0  0
   28.0464    5.9418    2.8761 H   0  0  0  0  0  0
   28.2260    4.5142    4.7844 H   0  0  0  0  0  0
   28.6439    5.9463    5.7456 H   0  0  0  0  0  0
   26.2918    5.4311    6.0284 H   0  0  0  0  0  0
   26.5425    6.9998    5.3636 H   0  0  0  0  0  0
   24.6084    5.6755    4.4286 H   0  0  0  0  0  0
   25.6366    6.4324    3.2445 H   0  0  0  0  0  0
   26.6688    4.3543    2.6446 H   0  0  0  0  0  0
   25.9944    3.4951    3.9850 H   0  0  0  0  0  0
   23.7492    3.5421    3.0860 H   0  0  0  0  0  0
   24.1892    4.6490    1.8306 H   0  0  0  0  0  0
   25.2236    1.8007    2.0843 H   0  0  0  0  0  0
   24.0565    2.3350    0.9079 H   0  0  0  0  0  0
   25.6108    3.0486   -1.3219 H   0  0  0  0  0  0
   24.6666    4.2238   -0.4157 H   0  0  0  0  0  0
   26.6097    5.1066   -1.9073 H   0  0  0  0  0  0
   26.3553    5.8004   -0.3325 H   0  0  0  0  0  0
   28.1374    4.5288    0.6380 H   0  0  0  0  0  0
   28.4482    3.6134   -0.8161 H   0  0  0  0  0  0
   28.6147    6.6505   -0.9657 H   0  0  0  0  0  0
   29.8039    5.8479    0.0005 H   0  0  0  0  0  0
   31.7177    4.8686   -0.8696 H   0  0  0  0  0  0
   32.3460    4.9973   -5.1153 H   0  0  0  0  0  0
   29.9995    5.6752   -5.4407 H   0  0  0  0  0  0
   28.4964    5.9519   -3.5003 H   0  0  0  0  0  0
   35.4728    1.7149   -3.1581 H   0  0  0  0  0  0
   37.1547    3.4898   -2.5681 H   0  0  0  0  0  0
   36.4612    5.6765   -2.2437 H   0  0  0  0  0  0
  1  6  1  0  0  0
  1  2  2  0  0  0
  1  7  1  0  0  0
  2  3  1  0  0  0
  2  9  1  0  0  0
  3  4  2  0  0  0
  3 39  1  0  0  0
  4  5  1  0  0  0
  4 40  1  0  0  0
  5 10  1  0  0  0
  5  6  2  0  0  0
  6 41  1  0  0  0
  7  8  1  0  0  0
  7 42  1  0  0  0
  7 43  1  0  0  0
  8 44  1  0  0  0
  9 45  1  0  0  0
 10 11  1  0  0  0
 10 12  1  0  0  0
 10 46  1  0  0  0
 11 13  1  0  0  0
 11 47  1  0  0  0
 11 48  1  0  0  0
 12 49  1  0  0  0
 13 14  1  0  0  0
 13 50  1  0  0  0
 14 15  1  0  0  0
 14 51  1  0  0  0
 14 52  1  0  0  0
 15 16  1  0  0  0
 15 53  1  0  0  0
 15 54  1  0  0  0
 16 17  1  0  0  0
 16 55  1  0  0  0
 16 56  1  0  0  0
 17 18  1  0  0  0
 17 57  1  0  0  0
 17 58  1  0  0  0
 18 19  1  0  0  0
 18 59  1  0  0  0
 18 60  1  0  0  0
 19 20  1  0  0  0
 19 61  1  0  0  0
 19 62  1  0  0  0
 20 21  1  0  0  0
 21 22  1  0  0  0
 21 63  1  0  0  0
 21 64  1  0  0  0
 22 23  1  0  0  0
 22 65  1  0  0  0
 22 66  1  0  0  0
 23 24  1  0  0  0
 23 67  1  0  0  0
 23 68  1  0  0  0
 24 25  1  0  0  0
 24 69  1  0  0  0
 24 70  1  0  0  0
 25 26  2  0  0  0
 25 30  1  0  0  0
 26 27  1  0  0  0
 26 71  1  0  0  0
 27 28  2  0  0  0
 27 31  1  0  0  0
 28 29  1  0  0  0
 28 72  1  0  0  0
 29 30  2  0  0  0
 29 73  1  0  0  0
 30 74  1  0  0  0
 31 32  1  0  0  0
 31 36  1  0  0  0
 32 33  1  0  0  0
 32 38  2  0  0  0
 33 34  2  0  0  0
 33 75  1  0  0  0
 34 35  1  0  0  0
 34 76  1  0  0  0
 35 36  1  0  0  0
 35 77  1  0  0  0
 36 37  2  0  0  0
M  END
> <s_m_entry_id>
3087

> <s_m_entry_name>
dock_pv.179

> <s_m_Source_Path>
/home/csk/Desktop/cluster/DUD-E-result/adrb1

> <s_m_Source_File>
dock_pv.maegz

> <i_m_Source_File_Index>
179

> <chembl_id>
CHEMBL1814277

> <chembl_pref_name>
None

> <i_lp_mmshare_version>
53161

> <i_f3d_flags>
0

> <r_lp_tautomer_probability>
0.999981847600517

> <s_lp_Force_Field>
OPLS_2005

> <r_lp_Energy>
42.894104

> <b_lp_Chiralities_Consistent>
1

> <s_lp_Variant>
CHEMBL213_lig1081-1

> <s_i_glide_gridfile>
glide-grid_2vt4

> <i_i_glide_lignum>
1263

> <i_i_glide_rotatable_bonds>
20

> <r_i_docking_score>
-7.65457210933615

> <r_i_glide_ligand_efficiency>
-0.201436108140425

> <r_i_glide_ligand_efficiency_sa>
-0.677223240788252

> <r_i_glide_ligand_efficiency_ln>
-1.6505509214707

> <r_i_glide_gscore>
-7.65457210933615

> <r_i_glide_lipo>
-3.79595650418188

> <r_i_glide_hbond>
-0.488721358230052

> <r_i_glide_metal>
0

> <r_i_glide_rewards>
-0.632037318722283

> <r_i_glide_evdw>
-53.1222076416016

> <r_i_glide_ecoul>
-8.89685726165771

> <r_i_glide_erotb>
1.26650664843313

> <r_i_glide_esite>
-0.0137246053063257

> <r_i_glide_emodel>
-78.4983297258893

> <r_i_glide_energy>
-62.0190649032593

> <r_i_glide_einternal>
18.4451866149902

> <i_i_glide_confnum>
25

> <i_i_glide_posenum>
383

> <r_i_glide_eff_state_penalty>
0

> <s_user_duplicate_titles>
CHEMBL213_lig1081

> <s_m_subgroup_title>
dock_pv

> <s_m_subgroupid>
dock_pv

> <b_m_subgroup_collapsed>
1

$$$$
CHEMBL213_lig1036
                    3D
 Schrodinger Suite 2021-1.
 53 55  0  0  1  0            999 V2000
   27.8831    7.1755   -1.6005 C   0  0  0  0  0  0
   27.7434    5.9641   -2.5249 C   0  0  0  0  0  0
   26.6734    6.3147   -3.5841 C   0  0  0  0  0  0
   24.7914    4.9302    4.0660 C   0  0  0  0  0  0
   23.9247    4.2500    3.2094 C   0  0  0  0  0  0
   24.3729    3.8050    1.9646 C   0  0  0  0  0  0
   25.6945    4.0514    1.5550 C   0  0  0  0  0  0
   26.0983    5.1828    3.6767 C   0  0  0  0  0  0
   26.5515    4.7359    2.4360 C   0  0  0  0  0  0
   27.8403    5.0636    2.0528 O   0  0  0  0  0  0
   28.8056    5.1633    3.1322 C   0  0  0  0  0  0
   28.2962    5.9886    4.3510 C   0  0  0  0  0  0
   26.9634    5.9012    4.4955 N   0  0  0  0  0  0
   29.0080    6.6500    5.1042 O   0  0  0  0  0  0
   22.6138    4.0996    3.5850 O   0  0  0  0  0  0
   26.1917    3.6587    0.1600 C   0  0  2  0  0  0
   26.3042    4.9123   -0.7384 C   0  0  0  0  0  0
   25.4080    2.6622   -0.4775 O   0  0  0  0  0  0
   27.4080    4.7939   -1.6972 N   0  0  1  0  0  0
   29.1364    5.7173   -3.1833 C   0  0  0  0  0  0
   29.3292    4.5747   -4.1862 C   0  0  0  0  0  0
   28.3644    3.5879   -4.4150 C   0  0  0  0  0  0
   28.5980    2.5756   -5.3302 C   0  0  0  0  0  0
   29.7921    2.5392   -6.0450 C   0  0  0  0  0  0
   30.7666    3.5171   -5.8241 C   0  0  0  0  0  0
   30.5334    4.5280   -4.8958 C   0  0  0  0  0  0
   29.9866    1.4264   -7.0578 C   0  0  0  0  0  0
   31.1985    1.4501   -7.6151 F   0  0  0  0  0  0
   29.8080    0.2529   -6.4521 F   0  0  0  0  0  0
   29.0684    1.5500   -8.0150 F   0  0  0  0  0  0
   28.2080    8.0499   -2.1606 H   0  0  0  0  0  0
   26.9502    7.4500   -1.1118 H   0  0  0  0  0  0
   28.6079    6.9707   -0.8157 H   0  0  0  0  0  0
   26.9676    7.1935   -4.1595 H   0  0  0  0  0  0
   26.5069    5.5206   -4.3083 H   0  0  0  0  0  0
   25.7161    6.5538   -3.1226 H   0  0  0  0  0  0
   24.4345    5.2891    5.0206 H   0  0  0  0  0  0
   23.6776    3.3057    1.3054 H   0  0  0  0  0  0
   29.0023    4.1613    3.5177 H   0  0  0  0  0  0
   29.7481    5.5858    2.7846 H   0  0  0  0  0  0
   26.6022    6.3823    5.3057 H   0  0  0  0  0  0
   22.3680    4.6176    4.3552 H   0  0  0  0  0  0
   27.1901    3.2530    0.2928 H   0  0  0  0  0  0
   26.5271    5.7398   -0.0695 H   0  0  0  0  0  0
   25.3579    5.1567   -1.2150 H   0  0  0  0  0  0
   24.7761    3.0881   -1.0751 H   0  0  0  0  0  0
   27.2402    3.9891   -2.2863 H   0  0  0  0  0  0
   29.8787    5.5676   -2.3971 H   0  0  0  0  0  0
   29.4337    6.6333   -3.6978 H   0  0  0  0  0  0
   27.4168    3.5690   -3.9044 H   0  0  0  0  0  0
   27.8333    1.8275   -5.4882 H   0  0  0  0  0  0
   31.6998    3.5061   -6.3689 H   0  0  0  0  0  0
   31.2901    5.2826   -4.7358 H   0  0  0  0  0  0
  1  2  1  0  0  0
  1 31  1  0  0  0
  1 32  1  0  0  0
  1 33  1  0  0  0
  2 19  1  0  0  0
  2  3  1  0  0  0
  2 20  1  0  0  0
  3 34  1  0  0  0
  3 35  1  0  0  0
  3 36  1  0  0  0
  4  8  2  0  0  0
  4  5  1  0  0  0
  4 37  1  0  0  0
  5 15  1  0  0  0
  5  6  2  0  0  0
  6  7  1  0  0  0
  6 38  1  0  0  0
  7 16  1  0  0  0
  7  9  2  0  0  0
  8  9  1  0  0  0
  8 13  1  0  0  0
  9 10  1  0  0  0
 10 11  1  0  0  0
 11 12  1  0  0  0
 11 39  1  0  0  0
 11 40  1  0  0  0
 12 13  1  0  0  0
 12 14  2  0  0  0
 13 41  1  0  0  0
 15 42  1  0  0  0
 16 17  1  0  0  0
 16 18  1  0  0  0
 16 43  1  0  0  0
 17 19  1  0  0  0
 17 44  1  0  0  0
 17 45  1  0  0  0
 18 46  1  0  0  0
 19 47  1  0  0  0
 20 21  1  0  0  0
 20 48  1  0  0  0
 20 49  1  0  0  0
 21 22  2  0  0  0
 21 26  1  0  0  0
 22 23  1  0  0  0
 22 50  1  0  0  0
 23 24  2  0  0  0
 23 51  1  0  0  0
 24 25  1  0  0  0
 24 27  1  0  0  0
 25 26  2  0  0  0
 25 52  1  0  0  0
 26 53  1  0  0  0
 27 28  1  0  0  0
 27 29  1  0  0  0
 27 30  1  0  0  0
M  END
> <s_m_entry_id>
3088

> <s_m_entry_name>
dock_pv.180

> <s_m_Source_Path>
/home/csk/Desktop/cluster/DUD-E-result/adrb1

> <s_m_Source_File>
dock_pv.maegz

> <i_m_Source_File_Index>
180

> <chembl_id>
CHEMBL601430

> <chembl_pref_name>
None

> <i_lp_mmshare_version>
53161

> <i_f3d_flags>
0

> <r_lp_tautomer_probability>
0.999999999999998

> <s_lp_Force_Field>
OPLS_2005

> <r_lp_Energy>
30.390365

> <b_lp_Chiralities_Consistent>
1

> <s_lp_Variant>
CHEMBL213_lig1036-1

> <s_i_glide_gridfile>
glide-grid_2vt4

> <i_i_glide_lignum>
1192

> <i_i_glide_rotatable_bonds>
9

> <r_i_docking_score>
-7.65242612340339

> <r_i_glide_ligand_efficiency>
-0.255080870780113

> <r_i_glide_ligand_efficiency_sa>
-0.792595572436392

> <r_i_glide_ligand_efficiency_ln>
-1.73871459509807

> <r_i_glide_gscore>
-7.65242612340339

> <r_i_glide_lipo>
-2.42463474735558

> <r_i_glide_hbond>
-0.603045336948637

> <r_i_glide_metal>
0

> <r_i_glide_rewards>
-2.2675356855824

> <r_i_glide_evdw>
-33.711555480957

> <r_i_glide_ecoul>
-8.88069534301758

> <r_i_glide_erotb>
0.660471721983722

> <r_i_glide_esite>
0

> <r_i_glide_emodel>
-53.2850213695502

> <r_i_glide_energy>
-42.5922508239746

> <r_i_glide_einternal>
11.6789684295654

> <i_i_glide_confnum>
44

> <i_i_glide_posenum>
207

> <r_i_glide_eff_state_penalty>
0

> <s_user_duplicate_titles>
CHEMBL213_lig1036,602982

> <s_m_subgroup_title>
dock_pv

> <s_m_subgroupid>
dock_pv

> <b_m_subgroup_collapsed>
1

$$$$
CHEMBL213_lig801
                    3D
 Schrodinger Suite 2021-1.
 60 62  0  0  1  0            999 V2000
   24.9148    3.8499    1.8670 C   0  0  0  0  0  0
   25.4449    4.2352    0.6367 C   0  0  0  0  0  0
   26.5759    5.0502    0.5964 C   0  0  0  0  0  0
   27.1776    5.4662    1.7847 C   0  0  0  0  0  0
   26.6918    5.0499    3.0294 C   0  0  0  0  0  0
   25.5324    4.2577    3.0499 C   0  0  0  0  0  0
   27.4010    5.3817    4.3589 C   0  0  2  0  0  0
   28.6238    6.3525    4.3523 C   0  0  0  0  0  0
   27.8077    4.2073    5.0310 O   0  0  0  0  0  0
   29.7623    5.8501    3.5816 N   0  0  1  0  0  0
   30.8091    6.8312    3.3347 C   0  0  0  0  0  0
   31.9990    6.2164    2.5447 C   0  0  0  0  0  0
   31.7773    5.6987    1.1060 C   0  0  0  0  0  0
   32.8012    5.8498    0.1648 C   0  0  0  0  0  0
   32.6268    5.4499   -1.1612 C   0  0  0  0  0  0
   31.4382    4.8336   -1.5863 C   0  0  0  0  0  0
   30.4300    4.6499   -0.6260 C   0  0  0  0  0  0
   30.6072    5.0500    0.6973 C   0  0  0  0  0  0
   31.2694    4.3134   -2.9867 C   0  0  0  0  0  0
   30.0022    4.0378   -3.5137 C   0  0  0  0  0  0
   29.8502    3.4160   -4.7471 C   0  0  0  0  0  0
   30.9649    3.0676   -5.5254 C   0  0  0  0  0  0
   32.2485    3.4502   -5.0765 C   0  0  0  0  0  0
   32.3745    4.0319   -3.8026 C   0  0  0  0  0  0
   30.7617    2.3140   -6.8231 C   0  0  0  0  0  0
   31.5599    2.3369   -7.7568 O   0  0  0  0  0  0
   29.6235    1.5614   -6.8557 O   0  0  0  0  0  0
   33.3488    3.1941   -5.8825 O   0  0  0  0  0  0
   34.6046    3.8403   -5.6520 C   0  0  0  0  0  0
   35.2299    4.0880   -7.0295 C   0  0  0  0  0  0
   35.5026    2.9512   -4.7724 C   0  0  0  0  0  0
   23.8081    3.0738    1.9195 F   0  0  0  0  0  0
   24.9699    3.9196   -0.2823 H   0  0  0  0  0  0
   26.9762    5.3672   -0.3559 H   0  0  0  0  0  0
   28.0379    6.1055    1.7253 H   0  0  0  0  0  0
   25.1181    3.9231    3.9853 H   0  0  0  0  0  0
   26.6439    5.8505    4.9901 H   0  0  0  0  0  0
   28.9442    6.5304    5.3796 H   0  0  0  0  0  0
   28.3090    7.3261    3.9852 H   0  0  0  0  0  0
   28.6162    3.8999    4.6117 H   0  0  0  0  0  0
   30.1991    5.0274    4.0025 H   0  0  0  0  0  0
   31.1781    7.2318    4.2807 H   0  0  0  0  0  0
   30.3835    7.6657    2.7850 H   0  0  0  0  0  0
   32.4499    5.4270    3.1403 H   0  0  0  0  0  0
   32.7587    6.9972    2.4978 H   0  0  0  0  0  0
   33.7350    6.3124    0.4508 H   0  0  0  0  0  0
   33.4444    5.6221   -1.8443 H   0  0  0  0  0  0
   29.5119    4.1376   -0.8713 H   0  0  0  0  0  0
   29.8147    4.8310    1.3898 H   0  0  0  0  0  0
   29.1051    4.2633   -2.9571 H   0  0  0  0  0  0
   28.8396    3.2048   -5.0699 H   0  0  0  0  0  0
   33.3599    4.2299   -3.4208 H   0  0  0  0  0  0
   29.1696    1.6016   -6.0125 H   0  0  0  0  0  0
   34.4753    4.8210   -5.1885 H   0  0  0  0  0  0
   36.1888    4.5985   -6.9392 H   0  0  0  0  0  0
   34.5837    4.7177   -7.6410 H   0  0  0  0  0  0
   35.3928    3.1543   -7.5687 H   0  0  0  0  0  0
   36.4344    3.4616   -4.5263 H   0  0  0  0  0  0
   35.0187    2.6870   -3.8332 H   0  0  0  0  0  0
   35.7672    2.0223   -5.2795 H   0  0  0  0  0  0
  1  6  1  0  0  0
  1  2  2  0  0  0
  1 32  1  0  0  0
  2  3  1  0  0  0
  2 33  1  0  0  0
  3  4  2  0  0  0
  3 34  1  0  0  0
  4  5  1  0  0  0
  4 35  1  0  0  0
  5  6  2  0  0  0
  5  7  1  0  0  0
  6 36  1  0  0  0
  7  8  1  0  0  0
  7  9  1  0  0  0
  7 37  1  0  0  0
  8 10  1  0  0  0
  8 38  1  0  0  0
  8 39  1  0  0  0
  9 40  1  0  0  0
 10 11  1  0  0  0
 10 41  1  0  0  0
 11 12  1  0  0  0
 11 42  1  0  0  0
 11 43  1  0  0  0
 12 13  1  0  0  0
 12 44  1  0  0  0
 12 45  1  0  0  0
 13 18  1  0  0  0
 13 14  2  0  0  0
 14 15  1  0  0  0
 14 46  1  0  0  0
 15 16  2  0  0  0
 15 47  1  0  0  0
 16 17  1  0  0  0
 16 19  1  0  0  0
 17 18  2  0  0  0
 17 48  1  0  0  0
 18 49  1  0  0  0
 19 20  2  0  0  0
 19 24  1  0  0  0
 20 21  1  0  0  0
 20 50  1  0  0  0
 21 22  2  0  0  0
 21 51  1  0  0  0
 22 23  1  0  0  0
 22 25  1  0  0  0
 23 24  2  0  0  0
 23 28  1  0  0  0
 24 52  1  0  0  0
 25 26  2  0  0  0
 25 27  1  0  0  0
 27 53  1  0  0  0
 28 29  1  0  0  0
 29 30  1  0  0  0
 29 31  1  0  0  0
 29 54  1  0  0  0
 30 55  1  0  0  0
 30 56  1  0  0  0
 30 57  1  0  0  0
 31 58  1  0  0  0
 31 59  1  0  0  0
 31 60  1  0  0  0
M  END
> <s_m_entry_id>
3089

> <s_m_entry_name>
dock_pv.181

> <s_m_Source_Path>
/home/csk/Desktop/cluster/DUD-E-result/adrb1

> <s_m_Source_File>
dock_pv.maegz

> <i_m_Source_File_Index>
181

> <chembl_id>
CHEMBL516804

> <chembl_pref_name>
None

> <i_lp_mmshare_version>
53161

> <i_f3d_flags>
0

> <r_lp_tautomer_probability>
1

> <s_lp_Force_Field>
OPLS_2005

> <r_lp_Energy>
36.931623

> <b_lp_Chiralities_Consistent>
1

> <s_lp_Variant>
CHEMBL213_lig801-1

> <s_i_glide_gridfile>
glide-grid_2vt4

> <i_i_glide_lignum>
909

> <i_i_glide_rotatable_bonds>
12

> <r_i_docking_score>
-7.64280505770175

> <r_i_glide_ligand_efficiency>
-0.23883765805318

> <r_i_glide_ligand_efficiency_sa>
-0.758262298410498

> <r_i_glide_ligand_efficiency_ln>
-1.71143238741687

> <r_i_glide_gscore>
-7.64280505770175

> <r_i_glide_lipo>
-2.96286356526973

> <r_i_glide_hbond>
-0.32

> <r_i_glide_metal>
0

> <r_i_glide_rewards>
-1.97292598217262

> <r_i_glide_evdw>
-38.6092529296875

> <r_i_glide_ecoul>
-8.60020065307617

> <r_i_glide_erotb>
0.833477234186394

> <r_i_glide_esite>
0

> <r_i_glide_emodel>
-61.953893761785

> <r_i_glide_energy>
-47.2094535827637

> <r_i_glide_einternal>
10.0252637863159

> <i_i_glide_confnum>
57

> <i_i_glide_posenum>
212

> <r_i_glide_eff_state_penalty>
0

> <s_user_duplicate_titles>
CHEMBL213_lig801,447576

> <s_m_subgroup_title>
dock_pv

> <s_m_subgroupid>
dock_pv

> <b_m_subgroup_collapsed>
1

$$$$
CHEMBL213_lig1066
                    3D
 Schrodinger Suite 2021-1.
 66 70  0  0  1  0            999 V2000
   27.4513    4.6309   -0.2222 N   0  0  1  0  0  0
   28.3980    4.4444   -1.3047 C   0  0  0  0  0  0
   28.9401    5.8052   -1.7007 C   0  0  0  0  0  0
   29.8657    5.6965   -2.9222 C   0  0  0  0  0  0
   30.9327    4.6700   -2.8688 N   0  0  0  0  0  0
   30.5204    3.4152   -2.2243 C   0  0  0  0  0  0
   29.6526    3.6242   -0.9650 C   0  0  0  0  0  0
   32.2801    4.9787   -2.9607 C   0  0  0  0  0  0
   32.7712    5.6170   -1.8665 N   0  0  0  0  0  0
   34.1025    5.8282   -1.8163 C   0  0  0  0  0  0
   35.0212    5.4502   -2.7315 N   0  0  0  0  0  0
   33.1282    4.5641   -4.0452 C   0  0  0  0  0  0
   34.5196    4.8394   -3.8078 C   0  0  0  0  0  0
   35.5691    4.2502   -5.0723 S   0  0  0  0  0  0
   34.1742    3.7532   -5.9720 C   0  0  0  0  0  0
   32.9447    3.9071   -5.3444 C   0  0  0  0  0  0
   26.4250    3.5901   -0.1168 C   0  0  0  0  0  0
   25.2710    4.1490    0.7546 C   0  0  2  0  0  0
   24.7478    3.2754    1.9198 C   0  0  0  0  0  0
   24.2086    4.6494   -0.0149 O   0  0  0  0  0  0
   24.4815    4.0329    3.1112 O   0  0  0  0  0  0
   25.4699    4.7683    3.7513 C   0  0  0  0  0  0
   26.8274    4.8108    3.3857 C   0  0  0  0  0  0
   27.7537    5.5975    4.0791 C   0  0  0  0  0  0
   27.3251    6.3007    5.2079 C   0  0  0  0  0  0
   25.9848    6.2583    5.5927 C   0  0  0  0  0  0
   25.0646    5.5170    4.8557 C   0  0  0  0  0  0
   31.6898    3.3658   -5.9847 C   0  0  0  0  0  0
   30.4434    3.8443   -5.6202 C   0  0  0  0  0  0
   29.3107    3.0490   -5.7382 C   0  0  0  0  0  0
   29.3801    1.8676   -6.4664 C   0  0  0  0  0  0
   30.5825    1.4918   -7.0555 C   0  0  0  0  0  0
   31.7308    2.2459   -6.8211 C   0  0  0  0  0  0
   28.2066    7.0500    5.9410 O   0  0  0  0  0  0
   29.1928    5.7542    3.5868 C   0  0  0  0  0  0
   29.6740    4.6991    2.7850 O   0  0  0  0  0  0
   27.9851    4.6500    0.6366 H   0  0  0  0  0  0
   27.9013    3.9911   -2.1657 H   0  0  0  0  0  0
   28.1212    6.4854   -1.9432 H   0  0  0  0  0  0
   29.4282    6.2508   -0.8431 H   0  0  0  0  0  0
   29.1953    5.4567   -3.7464 H   0  0  0  0  0  0
   30.3095    6.6508   -3.1861 H   0  0  0  0  0  0
   29.9531    2.8565   -2.9680 H   0  0  0  0  0  0
   31.3894    2.7989   -1.9900 H   0  0  0  0  0  0
   30.2200    4.0832   -0.1558 H   0  0  0  0  0  0
   29.3849    2.6500   -0.5847 H   0  0  0  0  0  0
   34.4788    6.3368   -0.9396 H   0  0  0  0  0  0
   34.3526    3.3187   -6.9442 H   0  0  0  0  0  0
   26.8611    2.6977    0.3303 H   0  0  0  0  0  0
   26.0536    3.2993   -1.1012 H   0  0  0  0  0  0
   25.6341    5.0501    1.2175 H   0  0  0  0  0  0
   25.4080    2.4506    2.1615 H   0  0  0  0  0  0
   23.8223    2.7793    1.6241 H   0  0  0  0  0  0
   23.9078    3.9927   -0.6648 H   0  0  0  0  0  0
   27.1826    4.2500    2.5404 H   0  0  0  0  0  0
   25.6490    6.8071    6.4590 H   0  0  0  0  0  0
   24.0317    5.4934    5.1721 H   0  0  0  0  0  0
   30.3868    4.8202   -5.1924 H   0  0  0  0  0  0
   28.3805    3.3666   -5.2807 H   0  0  0  0  0  0
   28.4962    1.2572   -6.5856 H   0  0  0  0  0  0
   30.6441    0.5759   -7.6177 H   0  0  0  0  0  0
   32.6701    1.8548   -7.1798 H   0  0  0  0  0  0
   27.7175    7.6715    6.5032 H   0  0  0  0  0  0
   29.8737    5.8496    4.4306 H   0  0  0  0  0  0
   29.2706    6.6850    3.0301 H   0  0  0  0  0  0
   30.3164    4.2180    3.3305 H   0  0  0  0  0  0
  1 17  1  0  0  0
  1  2  1  0  0  0
  1 37  1  0  0  0
  2  3  1  0  0  0
  2  7  1  0  0  0
  2 38  1  0  0  0
  3  4  1  0  0  0
  3 39  1  0  0  0
  3 40  1  0  0  0
  4  5  1  0  0  0
  4 41  1  0  0  0
  4 42  1  0  0  0
  5  6  1  0  0  0
  5  8  1  0  0  0
  6  7  1  0  0  0
  6 43  1  0  0  0
  6 44  1  0  0  0
  7 45  1  0  0  0
  7 46  1  0  0  0
  8  9  2  0  0  0
  8 12  1  0  0  0
  9 10  1  0  0  0
 10 11  2  0  0  0
 10 47  1  0  0  0
 11 13  1  0  0  0
 12 13  2  0  0  0
 12 16  1  0  0  0
 13 14  1  0  0  0
 14 15  1  0  0  0
 15 16  2  0  0  0
 15 48  1  0  0  0
 16 28  1  0  0  0
 17 18  1  0  0  0
 17 49  1  0  0  0
 17 50  1  0  0  0
 18 19  1  0  0  0
 18 20  1  0  0  0
 18 51  1  0  0  0
 19 21  1  0  0  0
 19 52  1  0  0  0
 19 53  1  0  0  0
 20 54  1  0  0  0
 21 22  1  0  0  0
 22 23  2  0  0  0
 22 27  1  0  0  0
 23 24  1  0  0  0
 23 55  1  0  0  0
 24 25  2  0  0  0
 24 35  1  0  0  0
 25 26  1  0  0  0
 25 34  1  0  0  0
 26 27  2  0  0  0
 26 56  1  0  0  0
 27 57  1  0  0  0
 28 29  2  0  0  0
 28 33  1  0  0  0
 29 30  1  0  0  0
 29 58  1  0  0  0
 30 31  2  0  0  0
 30 59  1  0  0  0
 31 32  1  0  0  0
 31 60  1  0  0  0
 32 33  2  0  0  0
 32 61  1  0  0  0
 33 62  1  0  0  0
 34 63  1  0  0  0
 35 36  1  0  0  0
 35 64  1  0  0  0
 35 65  1  0  0  0
 36 66  1  0  0  0
M  END
> <s_m_entry_id>
3090

> <s_m_entry_name>
dock_pv.182

> <s_m_Source_Path>
/home/csk/Desktop/cluster/DUD-E-result/adrb1

> <s_m_Source_File>
dock_pv.maegz

> <i_m_Source_File_Index>
182

> <chembl_id>
CHEMBL1257555

> <chembl_pref_name>
None

> <i_lp_mmshare_version>
53161

> <i_f3d_flags>
0

> <r_lp_tautomer_probability>
1

> <s_lp_Force_Field>
OPLS_2005

> <r_lp_Energy>
41.999082

> <b_lp_Chiralities_Consistent>
1

> <s_lp_Variant>
CHEMBL213_lig1066-1

> <s_i_glide_gridfile>
glide-grid_2vt4

> <i_i_glide_lignum>
1242

> <i_i_glide_rotatable_bonds>
12

> <r_i_docking_score>
-7.63491514865206

> <r_i_glide_ligand_efficiency>
-0.212080976351446

> <r_i_glide_ligand_efficiency_sa>
-0.700275953950533

> <r_i_glide_ligand_efficiency_ln>
-1.66573221386618

> <r_i_glide_gscore>
-7.63491514865206

> <r_i_glide_lipo>
-3.22964704912979

> <r_i_glide_hbond>
-0.694644374443308

> <r_i_glide_metal>
0

> <r_i_glide_rewards>
-0.485551264418145

> <r_i_glide_evdw>
-39.2062644958496

> <r_i_glide_ecoul>
-13.2149686813354

> <r_i_glide_erotb>
0.717486066331974

> <r_i_glide_esite>
0

> <r_i_glide_emodel>
-49.1941711839289

> <r_i_glide_energy>
-52.4212331771851

> <r_i_glide_einternal>
34.9144630432129

> <i_i_glide_confnum>
176

> <i_i_glide_posenum>
385

> <r_i_glide_eff_state_penalty>
0

> <s_user_duplicate_titles>
CHEMBL213_lig1066

> <s_m_subgroup_title>
dock_pv

> <s_m_subgroupid>
dock_pv

> <b_m_subgroup_collapsed>
1

$$$$
CHEMBL213_lig484
                    3D
 Schrodinger Suite 2021-1.
 63 65  0  0  1  0            999 V2000
   28.7070    5.8503    4.0973 C   0  0  0  0  0  0
   27.7616    6.2152    5.0514 C   0  0  0  0  0  0
   26.9501    5.2502    2.5412 C   0  0  0  0  0  0
   28.3058    5.3697    2.8544 C   0  0  0  0  0  0
   26.0013    5.6333    3.4994 C   0  0  0  0  0  0
   26.3915    6.1290    4.7537 C   0  0  0  0  0  0
   28.2110    6.6507    6.2706 O   0  0  0  0  0  0
   26.5537    4.7090    1.1600 C   0  0  2  0  0  0
   26.7000    5.7826    0.0541 C   0  0  0  0  0  0
   27.0076    5.1763   -1.2335 N   0  0  2  0  0  0
   27.2359    6.1774   -2.2652 C   0  0  0  0  0  0
   27.7919    5.5104   -3.5389 C   0  0  0  0  0  0
   29.2996    5.2730   -3.5083 C   0  0  0  0  0  0
   30.1132    5.9065   -4.4488 C   0  0  0  0  0  0
   31.4829    5.6784   -4.4547 C   0  0  0  0  0  0
   32.0689    4.8428   -3.5013 C   0  0  0  0  0  0
   31.2554    4.2025   -2.5593 C   0  0  0  0  0  0
   29.8751    4.4088   -2.5691 C   0  0  0  0  0  0
   25.2612    4.1243    1.1171 O   0  0  0  0  0  0
   33.5829    4.6207   -3.5612 C   0  0  0  0  0  0
   25.3317    6.5873    5.7588 C   0  0  0  0  0  0
   24.2043    5.7409    5.8296 O   0  0  0  0  0  0
   34.2242    4.1823   -2.3230 N   0  0  2  0  0  0
   34.4388    5.2718   -1.3788 C   0  0  0  0  0  0
   35.3078    4.7711   -0.2081 C   0  0  0  0  0  0
   35.5761    5.8322    0.8506 C   0  0  0  0  0  0
   36.7798    6.5442    0.8366 C   0  0  0  0  0  0
   37.0342    7.4983    1.8207 C   0  0  0  0  0  0
   36.0831    7.7439    2.8099 C   0  0  0  0  0  0
   34.8788    7.0404    2.8262 C   0  0  0  0  0  0
   34.6243    6.0820    1.8461 C   0  0  0  0  0  0
   29.7616    5.9212    4.3230 H   0  0  0  0  0  0
   29.0612    5.0833    2.1333 H   0  0  0  0  0  0
   24.9518    5.5445    3.2656 H   0  0  0  0  0  0
   27.5787    7.2381    6.7078 H   0  0  0  0  0  0
   27.2492    3.8934    0.9607 H   0  0  0  0  0  0
   25.8091    6.4055   -0.0157 H   0  0  0  0  0  0
   27.5259    6.4453    0.3115 H   0  0  0  0  0  0
   26.2372    4.6022   -1.5662 H   0  0  0  0  0  0
   26.3278    6.7384   -2.4914 H   0  0  0  0  0  0
   27.9658    6.9054   -1.9038 H   0  0  0  0  0  0
   27.2849    4.5641   -3.7442 H   0  0  0  0  0  0
   27.5478    6.1498   -4.3910 H   0  0  0  0  0  0
   29.6912    6.5691   -5.1906 H   0  0  0  0  0  0
   32.0830    6.1569   -5.2159 H   0  0  0  0  0  0
   31.6847    3.5276   -1.8342 H   0  0  0  0  0  0
   29.2532    3.8924   -1.8512 H   0  0  0  0  0  0
   25.0463    3.9256    0.2004 H   0  0  0  0  0  0
   33.7109    3.7911   -4.2595 H   0  0  0  0  0  0
   34.1082    5.4515   -4.0382 H   0  0  0  0  0  0
   25.7418    6.6500    6.7687 H   0  0  0  0  0  0
   25.0053    7.5901    5.4838 H   0  0  0  0  0  0
   23.4616    6.2450    6.1772 H   0  0  0  0  0  0
   35.0940    3.7059   -2.5231 H   0  0  0  0  0  0
   34.9385    6.1167   -1.8572 H   0  0  0  0  0  0
   33.4918    5.6621   -1.0028 H   0  0  0  0  0  0
   34.8396    3.9111    0.2732 H   0  0  0  0  0  0
   36.2622    4.3924   -0.5847 H   0  0  0  0  0  0
   37.5170    6.3570    0.0687 H   0  0  0  0  0  0
   37.9628    8.0490    1.8101 H   0  0  0  0  0  0
   36.2780    8.4871    3.5690 H   0  0  0  0  0  0
   34.1402    7.2407    3.5889 H   0  0  0  0  0  0
   33.6908    5.5384    1.8565 H   0  0  0  0  0  0
  1  2  2  0  0  0
  1  4  1  0  0  0
  1 32  1  0  0  0
  2  6  1  0  0  0
  2  7  1  0  0  0
  3  8  1  0  0  0
  3  4  2  0  0  0
  3  5  1  0  0  0
  4 33  1  0  0  0
  5  6  2  0  0  0
  5 34  1  0  0  0
  6 21  1  0  0  0
  7 35  1  0  0  0
  8  9  1  0  0  0
  8 19  1  0  0  0
  8 36  1  0  0  0
  9 10  1  0  0  0
  9 37  1  0  0  0
  9 38  1  0  0  0
 10 11  1  0  0  0
 10 39  1  0  0  0
 11 12  1  0  0  0
 11 40  1  0  0  0
 11 41  1  0  0  0
 12 13  1  0  0  0
 12 42  1  0  0  0
 12 43  1  0  0  0
 13 18  1  0  0  0
 13 14  2  0  0  0
 14 15  1  0  0  0
 14 44  1  0  0  0
 15 16  2  0  0  0
 15 45  1  0  0  0
 16 17  1  0  0  0
 16 20  1  0  0  0
 17 18  2  0  0  0
 17 46  1  0  0  0
 18 47  1  0  0  0
 19 48  1  0  0  0
 20 23  1  0  0  0
 20 49  1  0  0  0
 20 50  1  0  0  0
 21 22  1  0  0  0
 21 51  1  0  0  0
 21 52  1  0  0  0
 22 53  1  0  0  0
 23 24  1  0  0  0
 23 54  1  0  0  0
 24 25  1  0  0  0
 24 55  1  0  0  0
 24 56  1  0  0  0
 25 26  1  0  0  0
 25 57  1  0  0  0
 25 58  1  0  0  0
 26 27  2  0  0  0
 26 31  1  0  0  0
 27 28  1  0  0  0
 27 59  1  0  0  0
 28 29  2  0  0  0
 28 60  1  0  0  0
 29 30  1  0  0  0
 29 61  1  0  0  0
 30 31  2  0  0  0
 30 62  1  0  0  0
 31 63  1  0  0  0
M  END
> <s_m_entry_id>
3091

> <s_m_entry_name>
dock_pv.183

> <s_m_Source_Path>
/home/csk/Desktop/cluster/DUD-E-result/adrb1

> <s_m_Source_File>
dock_pv.maegz

> <i_m_Source_File_Index>
183

> <chembl_id>
CHEMBL1945300

> <chembl_pref_name>
None

> <i_lp_mmshare_version>
53161

> <i_f3d_flags>
0

> <r_lp_tautomer_probability>
0.999999999997365

> <s_lp_Force_Field>
OPLS_2005

> <r_lp_Energy>
29.881978

> <b_lp_Chiralities_Consistent>
1

> <s_lp_Variant>
CHEMBL213_lig484-1

> <s_i_glide_gridfile>
glide-grid_2vt4

> <i_i_glide_lignum>
574

> <i_i_glide_rotatable_bonds>
15

> <r_i_docking_score>
-7.63285817349145

> <r_i_glide_ligand_efficiency>
-0.24622123140295

> <r_i_glide_ligand_efficiency_sa>
-0.773474611651844

> <r_i_glide_ligand_efficiency_ln>
-1.72144343713273

> <r_i_glide_gscore>
-7.63285817349145

> <r_i_glide_lipo>
-3.23084028674641

> <r_i_glide_hbond>
-0.491452311896475

> <r_i_glide_metal>
0

> <r_i_glide_rewards>
-1.05250467210876

> <r_i_glide_evdw>
-48.7908401489258

> <r_i_glide_ecoul>
-10.9973983764648

> <r_i_glide_erotb>
1.23109086117622

> <r_i_glide_esite>
0

> <r_i_glide_emodel>
-82.7478935784729

> <r_i_glide_energy>
-59.7882385253906

> <r_i_glide_einternal>
9.99819755554199

> <i_i_glide_confnum>
147

> <i_i_glide_posenum>
277

> <r_i_glide_eff_state_penalty>
0

> <s_user_duplicate_titles>
CHEMBL213_lig484

> <s_m_subgroup_title>
dock_pv

> <s_m_subgroupid>
dock_pv

> <b_m_subgroup_collapsed>
1

$$$$
CHEMBL213_lig1299
                    3D
 Schrodinger Suite 2021-1.
 70 72  0  0  1  0            999 V2000
   27.7519    5.8847   -0.5372 N   0  0  1  0  0  0
   28.2558    4.9243    0.4467 C   0  0  1  0  0  0
   29.8266    4.9570    0.4867 C   0  0  0  0  0  0
   30.6133    4.6534    1.7861 C   0  0  0  0  0  0
   30.9986    3.6852   -5.8344 C   0  0  0  0  0  0
   32.2926    4.1172   -5.5144 C   0  0  0  0  0  0
   32.4650    5.1354   -4.5833 C   0  0  0  0  0  0
   31.3629    5.7667   -4.0098 C   0  0  0  0  0  0
   30.0728    5.3340   -4.3120 C   0  0  0  0  0  0
   29.8997    4.2814   -5.2135 C   0  0  0  0  0  0
   33.4014    3.5523   -6.0936 O   0  0  0  0  0  0
   30.8233    2.6478   -6.7486 N   0  0  0  0  0  0
   29.5450    1.4467   -6.5998 S   0  0  0  0  0  0
   28.2003    2.1184   -7.7270 C   0  0  0  0  0  0
   29.0723    1.4168   -5.2132 O   0  0  0  0  0  0
   30.0996    0.2500   -7.2154 O   0  0  0  0  0  0
   28.8709    5.8842   -3.5417 C   0  0  0  0  0  0
   28.0814    4.7746   -2.8051 C   0  0  2  0  0  0
   27.1081    5.2851   -1.7116 C   0  0  0  0  0  0
   29.0085    3.8505   -2.2717 O   0  0  0  0  0  0
   27.4574    5.0948    1.7475 C   0  0  0  0  0  0
   26.2038    4.4954    1.8397 C   0  0  0  0  0  0
   25.3960    4.6502    2.9779 C   0  0  0  0  0  0
   25.8509    5.4336    4.0495 C   0  0  0  0  0  0
   27.1173    6.0239    3.9691 C   0  0  0  0  0  0
   27.9033    5.8502    2.8325 C   0  0  0  0  0  0
   31.8035    5.5789    2.0489 C   0  0  0  0  0  0
   32.9067    5.5938    1.1857 C   0  0  0  0  0  0
   34.0840    6.2468    1.5657 C   0  0  0  0  0  0
   34.1362    6.9184    2.7860 C   0  0  0  0  0  0
   33.0239    6.9447    3.6211 C   0  0  0  0  0  0
   31.8581    6.2866    3.2500 C   0  0  0  0  0  0
   24.1357    4.1080    3.0970 O   0  0  0  0  0  0
   23.6078    3.3413    2.0306 C   0  0  0  0  0  0
   25.0001    5.5780    5.1301 O   0  0  0  0  0  0
   25.3691    6.4133    6.2176 C   0  0  0  0  0  0
   35.5785    7.7396    3.2560 Cl  0  0  0  0  0  0
   27.1165    6.5274   -0.0855 H   0  0  0  0  0  0
   27.9936    3.9304    0.0706 H   0  0  0  0  0  0
   30.1811    4.2071   -0.2128 H   0  0  0  0  0  0
   30.2081    5.8498    0.0211 H   0  0  0  0  0  0
   29.9930    4.5710    2.6723 H   0  0  0  0  0  0
   31.0056    3.6401    1.7331 H   0  0  0  0  0  0
   33.4594    5.4495   -4.3096 H   0  0  0  0  0  0
   31.4915    6.5654   -3.2920 H   0  0  0  0  0  0
   28.9186    3.8712   -5.3685 H   0  0  0  0  0  0
   34.2163    3.9754   -5.8183 H   0  0  0  0  0  0
   31.6435    2.3673   -7.2683 H   0  0  0  0  0  0
   27.4098    1.3792   -7.7742 H   0  0  0  0  0  0
   28.6140    2.2774   -8.7209 H   0  0  0  0  0  0
   27.8100    3.0499   -7.3211 H   0  0  0  0  0  0
   29.2128    6.6211   -2.8174 H   0  0  0  0  0  0
   28.2178    6.4245   -4.2257 H   0  0  0  0  0  0
   27.4825    4.2399   -3.5447 H   0  0  0  0  0  0
   26.4668    6.0427   -2.1643 H   0  0  0  0  0  0
   26.4218    4.4912   -1.4062 H   0  0  0  0  0  0
   28.6217    2.9464   -2.2864 H   0  0  0  0  0  0
   25.8531    3.9142    0.9988 H   0  0  0  0  0  0
   27.5035    6.6427    4.7653 H   0  0  0  0  0  0
   28.8465    6.3734    2.7962 H   0  0  0  0  0  0
   32.8751    5.0477    0.2534 H   0  0  0  0  0  0
   34.9430    6.2292    0.9105 H   0  0  0  0  0  0
   33.0718    7.4493    4.5745 H   0  0  0  0  0  0
   31.0244    6.2652    3.9346 H   0  0  0  0  0  0
   22.6081    3.0492    2.3310 H   0  0  0  0  0  0
   23.5295    3.9144    1.1052 H   0  0  0  0  0  0
   24.1869    2.4335    1.8554 H   0  0  0  0  0  0
   24.5969    6.3506    6.9846 H   0  0  0  0  0  0
   26.3148    6.1082    6.6715 H   0  0  0  0  0  0
   25.4346    7.4520    5.8941 H   0  0  0  0  0  0
  1 19  1  0  0  0
  1  2  1  0  0  0
  1 38  1  0  0  0
  2 21  1  0  0  0
  2  3  1  0  0  0
  2 39  1  0  0  0
  3  4  1  0  0  0
  3 40  1  0  0  0
  3 41  1  0  0  0
  4 27  1  0  0  0
  4 42  1  0  0  0
  4 43  1  0  0  0
  5 10  1  0  0  0
  5  6  2  0  0  0
  5 12  1  0  0  0
  6 11  1  0  0  0
  6  7  1  0  0  0
  7  8  2  0  0  0
  7 44  1  0  0  0
  8  9  1  0  0  0
  8 45  1  0  0  0
  9 17  1  0  0  0
  9 10  2  0  0  0
 10 46  1  0  0  0
 11 47  1  0  0  0
 12 13  1  0  0  0
 12 48  1  0  0  0
 13 14  1  0  0  0
 13 15  2  0  0  0
 13 16  2  0  0  0
 14 49  1  0  0  0
 14 50  1  0  0  0
 14 51  1  0  0  0
 17 18  1  0  0  0
 17 52  1  0  0  0
 17 53  1  0  0  0
 18 19  1  0  0  0
 18 20  1  0  0  0
 18 54  1  0  0  0
 19 55  1  0  0  0
 19 56  1  0  0  0
 20 57  1  0  0  0
 21 22  2  0  0  0
 21 26  1  0  0  0
 22 23  1  0  0  0
 22 58  1  0  0  0
 23 24  2  0  0  0
 23 33  1  0  0  0
 24 25  1  0  0  0
 24 35  1  0  0  0
 25 26  2  0  0  0
 25 59  1  0  0  0
 26 60  1  0  0  0
 27 28  2  0  0  0
 27 32  1  0  0  0
 28 29  1  0  0  0
 28 61  1  0  0  0
 29 30  2  0  0  0
 29 62  1  0  0  0
 30 31  1  0  0  0
 30 37  1  0  0  0
 31 32  2  0  0  0
 31 63  1  0  0  0
 32 64  1  0  0  0
 33 34  1  0  0  0
 34 65  1  0  0  0
 34 66  1  0  0  0
 34 67  1  0  0  0
 35 36  1  0  0  0
 36 68  1  0  0  0
 36 69  1  0  0  0
 36 70  1  0  0  0
M  END
> <s_m_entry_id>
3092

> <s_m_entry_name>
dock_pv.184

> <s_m_Source_Path>
/home/csk/Desktop/cluster/DUD-E-result/adrb1

> <s_m_Source_File>
dock_pv.maegz

> <i_m_Source_File_Index>
184

> <chembl_id>
CHEMBL251764

> <chembl_pref_name>
None

> <i_lp_mmshare_version>
53161

> <i_f3d_flags>
0

> <r_lp_tautomer_probability>
1

> <s_lp_Force_Field>
OPLS_2005

> <r_lp_Energy>
22.308114

> <b_lp_Chiralities_Consistent>
1

> <s_lp_Variant>
CHEMBL213_lig1299-1

> <s_i_glide_gridfile>
glide-grid_2vt4

> <i_i_glide_lignum>
1551

> <i_i_glide_rotatable_bonds>
15

> <r_i_docking_score>
-7.62974755212725

> <r_i_glide_ligand_efficiency>
-0.206209393300737

> <r_i_glide_ligand_efficiency_sa>
-0.687135445544306

> <r_i_glide_ligand_efficiency_ln>
-1.654713377396

> <r_i_glide_gscore>
-7.62974755212725

> <r_i_glide_lipo>
-3.83774302105144

> <r_i_glide_hbond>
-0.212116792506345

> <r_i_glide_metal>
0

> <r_i_glide_rewards>
-0.61198322701583

> <r_i_glide_evdw>
-36.517391204834

> <r_i_glide_ecoul>
-11.3416500091553

> <r_i_glide_erotb>
0.618693549557269

> <r_i_glide_esite>
-0.0594809994959148

> <r_i_glide_emodel>
-47.8235925141788

> <r_i_glide_energy>
-47.8590412139893

> <r_i_glide_einternal>
17.432731628418

> <i_i_glide_confnum>
42

> <i_i_glide_posenum>
31

> <r_i_glide_eff_state_penalty>
0

> <s_user_duplicate_titles>
CHEMBL213_lig1299

> <s_m_subgroup_title>
dock_pv

> <s_m_subgroupid>
dock_pv

> <b_m_subgroup_collapsed>
1

$$$$
CHEMBL213_lig690
                    3D
 Schrodinger Suite 2021-1.
 49 51  0  0  1  0            999 V2000
   25.9187    5.3968    3.9770 C   0  0  0  0  0  0
   33.0117    4.4537   -6.2279 C   0  0  0  0  0  0
   33.5801    3.6055   -7.1770 C   0  0  0  0  0  0
   32.8611    2.5063   -7.6450 C   0  0  0  0  0  0
   31.5737    2.2599   -7.1689 C   0  0  0  0  0  0
   30.9887    3.1027   -6.2148 C   0  0  0  0  0  0
   31.7247    4.2047   -5.7485 C   0  0  0  0  0  0
   33.5618    1.4503   -8.8147 Cl  0  0  0  0  0  0
   29.5508    2.8167   -5.7617 C   0  0  2  0  0  0
   28.8803    3.8486   -4.8154 C   0  0  0  0  0  0
   29.3814    1.5012   -5.2543 O   0  0  0  0  0  0
   29.4061    3.8500   -3.4588 N   0  0  1  0  0  0
   28.6306    4.7860   -2.6609 C   0  0  0  0  0  0
   29.0598    4.6264   -1.2055 C   0  0  0  0  0  0
   28.2838    5.4496   -0.2936 N   0  0  0  0  0  0
   27.2197    4.9169    0.4435 C   0  0  0  0  0  0
   27.0081    5.4393    1.7160 C   0  0  0  0  0  0
   26.0662    4.8792    2.5810 C   0  0  0  0  0  0
   25.2438    3.8501    2.0995 C   0  0  0  0  0  0
   25.4067    3.3563    0.8040 C   0  0  0  0  0  0
   26.4106    3.8722   -0.0159 C   0  0  0  0  0  0
   24.6666    5.2729    4.4934 O   0  0  0  0  0  0
   24.6538    5.8500    5.7132 C   0  0  0  0  0  0
   25.9268    6.2453    6.0420 C   0  0  0  0  0  0
   26.7555    6.0088    4.9338 C   0  0  0  0  0  0
   28.1735    6.2817    4.8588 C   0  0  0  0  0  0
   28.6080    7.0986    5.8636 O   0  0  0  0  0  0
   28.9201    5.7945    4.0176 O   0  0  0  0  0  0
   33.5692    5.3074   -5.8696 H   0  0  0  0  0  0
   34.5760    3.8036   -7.5475 H   0  0  0  0  0  0
   31.0228    1.4103   -7.5451 H   0  0  0  0  0  0
   31.3128    4.8842   -5.0180 H   0  0  0  0  0  0
   28.9700    2.8474   -6.6847 H   0  0  0  0  0  0
   27.8066    3.6444   -4.7934 H   0  0  0  0  0  0
   29.0092    4.8546   -5.2143 H   0  0  0  0  0  0
   28.6071    1.4948   -4.6834 H   0  0  0  0  0  0
   29.2757    2.9233   -3.0552 H   0  0  0  0  0  0
   27.5612    4.5780   -2.7465 H   0  0  0  0  0  0
   28.8053    5.8105   -2.9965 H   0  0  0  0  0  0
   30.1105    4.8949   -1.0941 H   0  0  0  0  0  0
   28.9941    3.5798   -0.9001 H   0  0  0  0  0  0
   28.4887    6.4358   -0.2265 H   0  0  0  0  0  0
   27.6260    6.2554    2.0467 H   0  0  0  0  0  0
   24.4807    3.4190    2.7324 H   0  0  0  0  0  0
   24.7692    2.5631    0.4410 H   0  0  0  0  0  0
   26.5474    3.4599   -1.0051 H   0  0  0  0  0  0
   23.7129    5.8412    6.2378 H   0  0  0  0  0  0
   26.2141    6.6499    6.9996 H   0  0  0  0  0  0
   27.8788    7.5056    6.3435 H   0  0  0  0  0  0
  1 18  1  0  0  0
  1 22  1  0  0  0
  1 25  2  0  0  0
  2  3  2  0  0  0
  2  7  1  0  0  0
  2 29  1  0  0  0
  3  4  1  0  0  0
  3 30  1  0  0  0
  4  8  1  0  0  0
  4  5  2  0  0  0
  5  6  1  0  0  0
  5 31  1  0  0  0
  6  9  1  0  0  0
  6  7  2  0  0  0
  7 32  1  0  0  0
  9 10  1  0  0  0
  9 11  1  0  0  0
  9 33  1  0  0  0
 10 12  1  0  0  0
 10 34  1  0  0  0
 10 35  1  0  0  0
 11 36  1  0  0  0
 12 13  1  0  0  0
 12 37  1  0  0  0
 13 14  1  0  0  0
 13 38  1  0  0  0
 13 39  1  0  0  0
 14 15  1  0  0  0
 14 40  1  0  0  0
 14 41  1  0  0  0
 15 16  1  0  0  0
 15 42  1  0  0  0
 16 17  2  0  0  0
 16 21  1  0  0  0
 17 18  1  0  0  0
 17 43  1  0  0  0
 18 19  2  0  0  0
 19 20  1  0  0  0
 19 44  1  0  0  0
 20 21  2  0  0  0
 20 45  1  0  0  0
 21 46  1  0  0  0
 22 23  1  0  0  0
 23 24  2  0  0  0
 23 47  1  0  0  0
 24 25  1  0  0  0
 24 48  1  0  0  0
 25 26  1  0  0  0
 26 27  1  0  0  0
 26 28  2  0  0  0
 27 49  1  0  0  0
M  END
> <s_m_entry_id>
3093

> <s_m_entry_name>
dock_pv.185

> <s_m_Source_Path>
/home/csk/Desktop/cluster/DUD-E-result/adrb1

> <s_m_Source_File>
dock_pv.maegz

> <i_m_Source_File_Index>
185

> <chembl_id>
CHEMBL245874

> <chembl_pref_name>
None

> <i_lp_mmshare_version>
53161

> <i_f3d_flags>
0

> <r_lp_tautomer_probability>
1

> <s_lp_Force_Field>
OPLS_2005

> <r_lp_Energy>
21.830799

> <b_lp_Chiralities_Consistent>
1

> <s_lp_Variant>
CHEMBL213_lig690-1

> <s_i_glide_gridfile>
glide-grid_2vt4

> <i_i_glide_lignum>
792

> <i_i_glide_rotatable_bonds>
11

> <r_i_docking_score>
-7.62741619161421

> <r_i_glide_ligand_efficiency>
-0.272407721129079

> <r_i_glide_ligand_efficiency_sa>
-0.827190280915553

> <r_i_glide_ligand_efficiency_ln>
-1.76063160769521

> <r_i_glide_gscore>
-7.62741619161421

> <r_i_glide_lipo>
-3.2065574149428

> <r_i_glide_hbond>
-0.297051439753722

> <r_i_glide_metal>
0

> <r_i_glide_rewards>
-1.59682746557428

> <r_i_glide_evdw>
-43.8959999084473

> <r_i_glide_ecoul>
-8.72279739379883

> <r_i_glide_erotb>
0.976239733148769

> <r_i_glide_esite>
0

> <r_i_glide_emodel>
-70.8597649732887

> <r_i_glide_energy>
-52.6187973022461

> <r_i_glide_einternal>
10.3879461288452

> <i_i_glide_confnum>
75

> <i_i_glide_posenum>
383

> <r_i_glide_eff_state_penalty>
0

> <s_user_duplicate_titles>
CHEMBL213_lig690

> <s_m_subgroup_title>
dock_pv

> <s_m_subgroupid>
dock_pv

> <b_m_subgroup_collapsed>
1

$$$$
CHEMBL213_lig1215 
                    3D
 Schrodinger Suite 2021-1.
 48 50  0  0  1  0            999 V2000
   33.1452    4.3020   -5.9437 C   0  0  0  0  0  0
   32.4736    3.4426   -6.8124 C   0  0  0  0  0  0
   31.3312    4.1441   -4.3257 C   0  0  0  0  0  0
   32.5785    4.6493   -4.7176 C   0  0  0  0  0  0
   30.6546    3.2709   -5.2006 C   0  0  0  0  0  0
   31.2194    2.9357   -6.4483 C   0  0  0  0  0  0
   30.4829    2.1203   -7.3382 N   0  0  0  0  0  0
   29.2337    1.6390   -7.1479 C   0  0  0  0  0  0
   28.6978    1.9046   -5.8334 C   0  0  0  0  0  0
   29.3303    2.6687   -4.9233 C   0  0  0  0  0  0
   28.6080    1.0500   -8.0150 O   0  0  0  0  0  0
   33.0589    3.1097   -8.0103 O   0  0  0  0  0  0
   30.7584    4.5628   -2.9661 C   0  0  1  0  0  0
   29.4447    5.3802   -3.1016 C   0  0  0  0  0  0
   30.6077    3.4500   -2.0937 O   0  0  0  0  0  0
   28.9358    5.7910   -1.7992 N   0  0  1  0  0  0
   27.5055    6.0662   -1.8532 C   0  0  0  0  0  0
   27.0095    6.6500   -0.5161 C   0  0  0  0  0  0
   27.3903    5.8960    0.7892 C   0  0  0  0  0  0
   26.3877    4.8693    1.2782 C   0  0  0  0  0  0
   25.7867    3.9715    0.3950 C   0  0  0  0  0  0
   24.8035    3.1054    0.8546 C   0  0  0  0  0  0
   24.4080    3.1218    2.1883 C   0  0  0  0  0  0
   25.0080    4.0128    3.0747 C   0  0  0  0  0  0
   26.0130    4.8665    2.6285 C   0  0  0  0  0  0
   24.2080    2.2500   -0.0150 O   0  0  0  0  0  0
   34.1100    4.7109   -6.2120 H   0  0  0  0  0  0
   33.1278    5.3165   -4.0686 H   0  0  0  0  0  0
   30.8720    1.9340   -8.2484 H   0  0  0  0  0  0
   27.7374    1.4731   -5.5923 H   0  0  0  0  0  0
   28.8382    2.7990   -3.9800 H   0  0  0  0  0  0
   33.8689    3.5980   -8.1812 H   0  0  0  0  0  0
   31.4856    5.2121   -2.4740 H   0  0  0  0  0  0
   28.6820    4.8249   -3.6431 H   0  0  0  0  0  0
   29.6357    6.2777   -3.6926 H   0  0  0  0  0  0
   29.7724    3.0024   -2.2728 H   0  0  0  0  0  0
   29.1306    5.0603   -1.1263 H   0  0  0  0  0  0
   26.9746    5.1459   -2.0941 H   0  0  0  0  0  0
   27.2954    6.7799   -2.6527 H   0  0  0  0  0  0
   25.9293    6.7895   -0.5665 H   0  0  0  0  0  0
   27.4080    7.6608   -0.4535 H   0  0  0  0  0  0
   27.4282    6.6500    1.5725 H   0  0  0  0  0  0
   28.3839    5.4500    0.7484 H   0  0  0  0  0  0
   26.0585    3.9452   -0.6476 H   0  0  0  0  0  0
   23.6307    2.4538    2.5276 H   0  0  0  0  0  0
   24.6916    4.0479    4.1045 H   0  0  0  0  0  0
   26.4631    5.5575    3.3263 H   0  0  0  0  0  0
   23.9122    2.6791   -0.8399 H   0  0  0  0  0  0
  1  2  2  0  0  0
  1  4  1  0  0  0
  1 27  1  0  0  0
  2  6  1  0  0  0
  2 12  1  0  0  0
  3  5  1  0  0  0
  3  4  2  0  0  0
  3 13  1  0  0  0
  4 28  1  0  0  0
  5  6  2  0  0  0
  5 10  1  0  0  0
  6  7  1  0  0  0
  7  8  1  0  0  0
  7 29  1  0  0  0
  8  9  1  0  0  0
  8 11  2  0  0  0
  9 10  2  0  0  0
  9 30  1  0  0  0
 10 31  1  0  0  0
 12 32  1  0  0  0
 13 14  1  0  0  0
 13 15  1  0  0  0
 13 33  1  0  0  0
 14 16  1  0  0  0
 14 34  1  0  0  0
 14 35  1  0  0  0
 15 36  1  0  0  0
 16 17  1  0  0  0
 16 37  1  0  0  0
 17 18  1  0  0  0
 17 38  1  0  0  0
 17 39  1  0  0  0
 18 19  1  0  0  0
 18 40  1  0  0  0
 18 41  1  0  0  0
 19 20  1  0  0  0
 19 42  1  0  0  0
 19 43  1  0  0  0
 20 21  2  0  0  0
 20 25  1  0  0  0
 21 22  1  0  0  0
 21 44  1  0  0  0
 22 23  2  0  0  0
 22 26  1  0  0  0
 23 24  1  0  0  0
 23 45  1  0  0  0
 24 25  2  0  0  0
 24 46  1  0  0  0
 25 47  1  0  0  0
 26 48  1  0  0  0
M  END
> <s_m_entry_id>
3094

> <s_m_entry_name>
dock_pv.186

> <s_m_Source_Path>
/home/csk/Desktop/cluster/DUD-E-result/adrb1

> <s_m_Source_File>
dock_pv.maegz

> <i_m_Source_File_Index>
186

> <chembl_id>
CHEMBL4473515

> <chembl_pref_name>
None

> <i_lp_mmshare_version>
53161

> <i_f3d_flags>
0

> <r_lp_tautomer_probability>
0.999999999997365

> <s_lp_Force_Field>
OPLS_2005

> <r_lp_Energy>
27.705327

> <b_lp_Chiralities_Consistent>
1

> <s_lp_Variant>
CHEMBL213_lig1215 -2

> <s_i_glide_gridfile>
glide-grid_2vt4

> <i_i_glide_lignum>
1442

> <i_i_glide_rotatable_bonds>
10

> <r_i_docking_score>
-7.62610582070308

> <r_i_glide_ligand_efficiency>
-0.293311762334734

> <r_i_glide_ligand_efficiency_sa>
-0.868934941790595

> <r_i_glide_ligand_efficiency_ln>
-1.79096592869793

> <r_i_glide_gscore>
-7.62610582070308

> <r_i_glide_lipo>
-2.78954852248506

> <r_i_glide_hbond>
-0.612743478786831

> <r_i_glide_metal>
0

> <r_i_glide_rewards>
-1.6526512970229

> <r_i_glide_evdw>
-37.741756439209

> <r_i_glide_ecoul>
-11.6602230072021

> <r_i_glide_erotb>
1.06495875063248

> <r_i_glide_esite>
0

> <r_i_glide_emodel>
-67.9953765417877

> <r_i_glide_energy>
-49.4019794464111

> <r_i_glide_einternal>
12.0071878433228

> <i_i_glide_confnum>
74

> <i_i_glide_posenum>
286

> <r_i_glide_eff_state_penalty>
0

> <s_user_duplicate_titles>
CHEMBL213_lig1215 

> <s_m_subgroup_title>
dock_pv

> <s_m_subgroupid>
dock_pv

> <b_m_subgroup_collapsed>
1

$$$$
CHEMBL213_lig160
                    3D
 Schrodinger Suite 2021-1.
 67 71  0  0  1  0            999 V2000
   35.6607    6.7603    3.2882 S   0  0  0  0  0  0
   29.6933    6.4990    3.8941 N   0  0  0  0  0  0
   28.9890    5.6556    3.1232 N   0  0  0  0  0  0
   28.9805    7.0894    4.8682 N   0  0  0  0  0  0
   27.7583    5.7585    3.5565 C   0  0  0  0  0  0
   27.7686    6.6216    4.6641 C   0  0  0  0  0  0
   36.1878    5.4501    2.2085 N   0  0  0  0  0  0
   26.6319    5.0587    2.8591 C   0  0  0  0  0  0
   33.8806    6.6635    3.4509 C   0  0  0  0  0  0
   31.0968    6.6476    3.7245 C   0  0  0  0  0  0
   36.2133    6.4094    4.6023 O   0  0  0  0  0  0
   35.9897    8.0465    2.6701 O   0  0  0  0  0  0
   24.3422    4.2501    2.8177 C   0  0  0  0  0  0
   25.4111    4.8348    3.5045 C   0  0  0  0  0  0
   24.4900    3.8738    1.4842 C   0  0  0  0  0  0
   30.3322    2.6041   -5.3282 C   0  0  0  0  0  0
   30.2583    1.7890   -7.6103 N   0  0  0  0  0  0
   26.7696    4.6524    1.5202 C   0  0  0  0  0  0
   33.0831    6.2500    2.3850 C   0  0  0  0  0  0
   33.2932    7.0478    4.6566 C   0  0  0  0  0  0
   31.9056    7.0499    4.7921 C   0  0  0  0  0  0
   31.6995    6.2525    2.5197 C   0  0  0  0  0  0
   25.7087    4.0587    0.8378 C   0  0  0  0  0  0
   36.0379    5.3511    0.8251 C   0  0  0  0  0  0
   31.1328    3.0873   -4.1197 C   0  0  1  0  0  0
   23.1402    4.1285    3.4240 F   0  0  0  0  0  0
   23.4201    3.4487    0.7862 F   0  0  0  0  0  0
   33.0259    4.5868   -3.4915 N   0  0  2  0  0  0
   35.7327    4.9184   -1.9132 C   0  0  0  0  0  0
   30.9487    2.1743   -6.5106 C   0  0  0  0  0  0
   36.2037    4.0731    0.2905 C   0  0  0  0  0  0
   35.7407    6.4266   -0.0110 C   0  0  0  0  0  0
   36.0589    3.8557   -1.0731 C   0  0  0  0  0  0
   35.5908    6.2066   -1.3763 C   0  0  0  0  0  0
   31.2737    2.0654   -3.1485 O   0  0  0  0  0  0
   32.5204    3.6641   -4.5033 C   0  0  0  0  0  0
   28.9320    2.6175   -5.2955 C   0  0  0  0  0  0
   28.9052    1.8231   -7.5599 C   0  0  0  0  0  0
   34.2296    5.2604   -3.9667 C   0  0  0  0  0  0
   35.5291    4.6581   -3.4033 C   0  0  0  0  0  0
   28.2080    2.2270   -6.4234 C   0  0  0  0  0  0
   26.9253    6.9317    5.2641 H   0  0  0  0  0  0
   36.3422    4.5584    2.6493 H   0  0  0  0  0  0
   25.2672    5.1500    4.5269 H   0  0  0  0  0  0
   27.6954    4.8209    0.9888 H   0  0  0  0  0  0
   33.5129    5.9580    1.4403 H   0  0  0  0  0  0
   33.9063    7.3746    5.4853 H   0  0  0  0  0  0
   31.4725    7.3465    5.7357 H   0  0  0  0  0  0
   31.1057    5.9246    1.6782 H   0  0  0  0  0  0
   25.8117    3.7904   -0.2054 H   0  0  0  0  0  0
   30.5512    3.8984   -3.6744 H   0  0  0  0  0  0
   33.2450    4.0637   -2.6535 H   0  0  0  0  0  0
   32.0228    2.1414   -6.6127 H   0  0  0  0  0  0
   36.4447    3.2319    0.9266 H   0  0  0  0  0  0
   35.6075    7.4269    0.3706 H   0  0  0  0  0  0
   36.1907    2.8570   -1.4643 H   0  0  0  0  0  0
   35.3617    7.0481   -2.0073 H   0  0  0  0  0  0
   30.3951    1.8491   -2.8179 H   0  0  0  0  0  0
   33.2339    2.8602   -4.6930 H   0  0  0  0  0  0
   32.4096    4.2297   -5.4309 H   0  0  0  0  0  0
   28.4003    2.9441   -4.4129 H   0  0  0  0  0  0
   28.3796    1.5233   -8.4550 H   0  0  0  0  0  0
   34.2741    5.4347   -5.0456 H   0  0  0  0  0  0
   34.1374    6.2503   -3.5460 H   0  0  0  0  0  0
   35.5553    3.5882   -3.6177 H   0  0  0  0  0  0
   36.3818    5.0782   -3.9384 H   0  0  0  0  0  0
   27.1283    2.2492   -6.4161 H   0  0  0  0  0  0
  1  7  1  0  0  0
  1  9  1  0  0  0
  1 11  2  0  0  0
  1 12  2  0  0  0
  2 10  1  0  0  0
  2  3  1  0  0  0
  2  4  1  0  0  0
  3  5  2  0  0  0
  4  6  2  0  0  0
  5  8  1  0  0  0
  5  6  1  0  0  0
  6 42  1  0  0  0
  7 24  1  0  0  0
  7 43  1  0  0  0
  8 14  2  0  0  0
  8 18  1  0  0  0
  9 19  1  0  0  0
  9 20  2  0  0  0
 10 21  2  0  0  0
 10 22  1  0  0  0
 13 14  1  0  0  0
 13 26  1  0  0  0
 13 15  2  0  0  0
 14 44  1  0  0  0
 15 23  1  0  0  0
 15 27  1  0  0  0
 16 25  1  0  0  0
 16 30  1  0  0  0
 16 37  2  0  0  0
 17 30  2  0  0  0
 17 38  1  0  0  0
 18 23  2  0  0  0
 18 45  1  0  0  0
 19 22  2  0  0  0
 19 46  1  0  0  0
 20 21  1  0  0  0
 20 47  1  0  0  0
 21 48  1  0  0  0
 22 49  1  0  0  0
 23 50  1  0  0  0
 24 31  2  0  0  0
 24 32  1  0  0  0
 25 36  1  0  0  0
 25 35  1  0  0  0
 25 51  1  0  0  0
 28 39  1  0  0  0
 28 36  1  0  0  0
 28 52  1  0  0  0
 29 34  1  0  0  0
 29 40  1  0  0  0
 29 33  2  0  0  0
 30 53  1  0  0  0
 31 33  1  0  0  0
 31 54  1  0  0  0
 32 34  2  0  0  0
 32 55  1  0  0  0
 33 56  1  0  0  0
 34 57  1  0  0  0
 35 58  1  0  0  0
 36 59  1  0  0  0
 36 60  1  0  0  0
 37 41  1  0  0  0
 37 61  1  0  0  0
 38 41  2  0  0  0
 38 62  1  0  0  0
 39 40  1  0  0  0
 39 63  1  0  0  0
 39 64  1  0  0  0
 40 65  1  0  0  0
 40 66  1  0  0  0
 41 67  1  0  0  0
M  END
> <s_m_entry_id>
3095

> <s_m_entry_name>
dock_pv.187

> <s_m_Source_Path>
/home/csk/Desktop/cluster/DUD-E-result/adrb1

> <s_m_Source_File>
dock_pv.maegz

> <i_m_Source_File_Index>
187

> <chembl_id>
CHEMBL63138

> <chembl_pref_name>
None

> <i_lp_mmshare_version>
53161

> <i_f3d_flags>
0

> <r_lp_tautomer_probability>
1

> <s_lp_Force_Field>
OPLS_2005

> <r_lp_Energy>
27.34706

> <b_lp_Chiralities_Consistent>
1

> <s_lp_Variant>
CHEMBL213_lig160-1

> <s_i_glide_gridfile>
glide-grid_2vt4

> <i_i_glide_lignum>
195

> <i_i_glide_rotatable_bonds>
12

> <r_i_docking_score>
-7.62597789599011

> <r_i_glide_ligand_efficiency>
-0.185999460877808

> <r_i_glide_ligand_efficiency_sa>
-0.641366546906829

> <r_i_glide_ligand_efficiency_ln>
-1.61787658872523

> <r_i_glide_gscore>
-7.62597789599011

> <r_i_glide_lipo>
-3.07213077467157

> <r_i_glide_hbond>
-0.188055728203589

> <r_i_glide_metal>
0

> <r_i_glide_rewards>
-1.1952552147874

> <r_i_glide_evdw>
-62.2086982727051

> <r_i_glide_ecoul>
-3.74932312965393

> <r_i_glide_erotb>
0.531736972294275

> <r_i_glide_esite>
-0.0294397675384842

> <r_i_glide_emodel>
-87.3793215191614

> <r_i_glide_energy>
-65.958021402359

> <r_i_glide_einternal>
12.8200407028198

> <i_i_glide_confnum>
23

> <i_i_glide_posenum>
359

> <r_i_glide_eff_state_penalty>
0

> <s_user_duplicate_titles>
CHEMBL213_lig160

> <s_m_subgroup_title>
dock_pv

> <s_m_subgroupid>
dock_pv

> <b_m_subgroup_collapsed>
1

$$$$
CHEMBL213_lig1217 
                    3D
 Schrodinger Suite 2021-1.
 50 52  0  0  1  0            999 V2000
   24.1226    3.7713    1.3428 C   0  0  0  0  0  0
   24.5283    4.2137    2.5949 C   0  0  0  0  0  0
   26.3068    4.2977    0.4097 C   0  0  0  0  0  0
   25.0080    3.8008    0.2744 C   0  0  0  0  0  0
   26.7398    4.6897    1.6922 C   0  0  0  0  0  0
   25.8450    4.6500    2.7825 C   0  0  0  0  0  0
   26.2853    5.0833    4.0508 N   0  0  0  0  0  0
   27.5229    5.5093    4.3848 C   0  0  0  0  0  0
   28.4490    5.5231    3.2660 C   0  0  0  0  0  0
   28.1054    5.1640    2.0078 C   0  0  0  0  0  0
   27.8071    5.8500    5.5282 O   0  0  0  0  0  0
   23.6030    4.2500    3.6024 O   0  0  0  0  0  0
   27.1375    4.4802   -0.8684 C   0  0  1  0  0  0
   27.2716    5.9840   -1.2434 C   0  0  0  0  0  0
   28.4002    3.8500   -0.8150 O   0  0  0  0  0  0
   27.0080    6.2507   -2.6581 N   0  0  1  0  0  0
   28.1639    6.5471   -3.4961 C   0  0  0  0  0  0
   29.1930    5.4053   -3.5528 C   0  0  0  0  0  0
   30.3822    5.6715   -4.4969 C   0  0  0  0  0  0
   31.3905    4.4996   -4.5670 C   0  0  0  0  0  0
   30.9362    3.3544   -5.4667 C   0  0  0  0  0  0
   31.4581    3.2412   -6.7582 C   0  0  0  0  0  0
   30.9895    2.2500   -7.6150 C   0  0  0  0  0  0
   29.9950    1.3805   -7.1793 C   0  0  0  0  0  0
   29.5036    1.4507   -5.8785 C   0  0  0  0  0  0
   29.9853    2.4324   -5.0180 C   0  0  0  0  0  0
   23.1059    3.4500    1.1706 H   0  0  0  0  0  0
   24.6500    3.4808   -0.6916 H   0  0  0  0  0  0
   25.6269    5.0812    4.8124 H   0  0  0  0  0  0
   29.4608    5.8393    3.4736 H   0  0  0  0  0  0
   28.8598    5.1985    1.2358 H   0  0  0  0  0  0
   22.6985    4.1540    3.2931 H   0  0  0  0  0  0
   26.6080    3.9638   -1.6708 H   0  0  0  0  0  0
   28.2237    6.4032   -0.9138 H   0  0  0  0  0  0
   26.5082    6.5508   -0.7081 H   0  0  0  0  0  0
   28.3264    2.9879   -1.2576 H   0  0  0  0  0  0
   26.3979    5.5432   -3.0692 H   0  0  0  0  0  0
   28.6080    7.4918   -3.1887 H   0  0  0  0  0  0
   27.7857    6.7328   -4.4988 H   0  0  0  0  0  0
   28.6714    4.4972   -3.8502 H   0  0  0  0  0  0
   29.5998    5.2317   -2.5582 H   0  0  0  0  0  0
   30.9057    6.5629   -4.1476 H   0  0  0  0  0  0
   30.0278    5.9162   -5.4999 H   0  0  0  0  0  0
   31.6073    4.1153   -3.5690 H   0  0  0  0  0  0
   32.3473    4.8745   -4.9353 H   0  0  0  0  0  0
   32.2038    3.9393   -7.1113 H   0  0  0  0  0  0
   31.3724    2.1800   -8.6227 H   0  0  0  0  0  0
   29.6007    0.6500   -7.8639 H   0  0  0  0  0  0
   28.7416    0.7624   -5.5422 H   0  0  0  0  0  0
   29.5933    2.4895   -4.0144 H   0  0  0  0  0  0
  1  2  2  0  0  0
  1  4  1  0  0  0
  1 27  1  0  0  0
  2  6  1  0  0  0
  2 12  1  0  0  0
  3  5  1  0  0  0
  3  4  2  0  0  0
  3 13  1  0  0  0
  4 28  1  0  0  0
  5  6  2  0  0  0
  5 10  1  0  0  0
  6  7  1  0  0  0
  7  8  1  0  0  0
  7 29  1  0  0  0
  8  9  1  0  0  0
  8 11  2  0  0  0
  9 10  2  0  0  0
  9 30  1  0  0  0
 10 31  1  0  0  0
 12 32  1  0  0  0
 13 14  1  0  0  0
 13 15  1  0  0  0
 13 33  1  0  0  0
 14 16  1  0  0  0
 14 34  1  0  0  0
 14 35  1  0  0  0
 15 36  1  0  0  0
 16 17  1  0  0  0
 16 37  1  0  0  0
 17 18  1  0  0  0
 17 38  1  0  0  0
 17 39  1  0  0  0
 18 19  1  0  0  0
 18 40  1  0  0  0
 18 41  1  0  0  0
 19 20  1  0  0  0
 19 42  1  0  0  0
 19 43  1  0  0  0
 20 21  1  0  0  0
 20 44  1  0  0  0
 20 45  1  0  0  0
 21 22  2  0  0  0
 21 26  1  0  0  0
 22 23  1  0  0  0
 22 46  1  0  0  0
 23 24  2  0  0  0
 23 47  1  0  0  0
 24 25  1  0  0  0
 24 48  1  0  0  0
 25 26  2  0  0  0
 25 49  1  0  0  0
 26 50  1  0  0  0
M  END
> <s_m_entry_id>
3096

> <s_m_entry_name>
dock_pv.188

> <s_m_Source_Path>
/home/csk/Desktop/cluster/DUD-E-result/adrb1

> <s_m_Source_File>
dock_pv.maegz

> <i_m_Source_File_Index>
188

> <chembl_id>
CHEMBL4541263

> <chembl_pref_name>
None

> <i_lp_mmshare_version>
53161

> <i_f3d_flags>
0

> <r_lp_tautomer_probability>
1

> <s_lp_Force_Field>
OPLS_2005

> <r_lp_Energy>
31.371054

> <b_lp_Chiralities_Consistent>
1

> <s_lp_Variant>
CHEMBL213_lig1217 -2

> <s_i_glide_gridfile>
glide-grid_2vt4

> <i_i_glide_lignum>
1446

> <i_i_glide_rotatable_bonds>
10

> <r_i_docking_score>
-7.6256929288766

> <r_i_glide_ligand_efficiency>
-0.293295881879869

> <r_i_glide_ligand_efficiency_sa>
-0.868887896005545

> <r_i_glide_ligand_efficiency_ln>
-1.79086896240729

> <r_i_glide_gscore>
-7.6256929288766

> <r_i_glide_lipo>
-3.23518039897857

> <r_i_glide_hbond>
-0.455618616796168

> <r_i_glide_metal>
0

> <r_i_glide_rewards>
-1.72541160323133

> <r_i_glide_evdw>
-38.9489097595215

> <r_i_glide_ecoul>
-8.91751194000244

> <r_i_glide_erotb>
1.07558996910591

> <r_i_glide_esite>
0

> <r_i_glide_emodel>
-62.5871232066146

> <r_i_glide_energy>
-47.8664216995239

> <r_i_glide_einternal>
13.0587749481201

> <i_i_glide_confnum>
64

> <i_i_glide_posenum>
10

> <r_i_glide_eff_state_penalty>
0

> <s_user_duplicate_titles>
CHEMBL213_lig1217 

> <s_m_subgroup_title>
dock_pv

> <s_m_subgroupid>
dock_pv

> <b_m_subgroup_collapsed>
1

$$$$
CHEMBL213_lig678
                    3D
 Schrodinger Suite 2021-1.
 58 60  0  0  1  0            999 V2000
   24.6080    3.4820    2.1346 C   0  0  0  0  0  0
   25.2520    3.5536    0.9003 C   0  0  0  0  0  0
   26.3073    4.4461    0.7219 C   0  0  0  0  0  0
   26.7104    5.2700    1.7730 C   0  0  0  0  0  0
   26.0733    5.2186    3.0217 C   0  0  0  0  0  0
   25.0155    4.3079    3.1850 C   0  0  0  0  0  0
   27.1093    4.5511   -0.8016 Cl  0  0  0  0  0  0
   26.4826    6.2059    4.1355 C   0  0  2  0  0  0
   27.9644    6.1019    4.5847 C   0  0  0  0  0  0
   25.6850    6.1285    5.3082 O   0  0  0  0  0  0
   28.8875    6.6500    3.5850 N   0  0  2  0  0  0
   30.2847    6.3300    3.8013 C   0  0  1  0  0  0
   31.1704    6.4480    2.5394 C   0  0  0  0  0  0
   30.8707    7.1017    5.0006 C   0  0  0  0  0  0
   30.8685    5.4511    1.5068 N   0  0  0  0  0  0
   31.6072    5.4500    0.3119 C   0  0  0  0  0  0
   31.0126    4.8580   -0.8148 C   0  0  0  0  0  0
   31.7671    4.5924   -1.9642 C   0  0  0  0  0  0
   33.0857    5.0506   -2.0369 C   0  0  0  0  0  0
   33.6716    5.6869   -0.9459 C   0  0  0  0  0  0
   32.9477    5.8500    0.2340 C   0  0  0  0  0  0
   31.2159    3.7289   -3.0397 C   0  0  0  0  0  0
   31.1049    2.3611   -2.7850 C   0  0  0  0  0  0
   30.6080    1.4891   -3.7466 C   0  0  0  0  0  0
   30.1958    1.9650   -4.9894 C   0  0  0  0  0  0
   30.3251    3.3234   -5.2676 C   0  0  0  0  0  0
   30.8358    4.2048   -4.3069 C   0  0  0  0  0  0
   30.9244    5.6504   -4.6594 C   0  0  0  0  0  0
   31.4373    5.8500   -5.8906 O   0  0  0  0  0  0
   30.5969    6.5635   -3.9089 O   0  0  0  0  0  0
   29.5202    1.0532   -5.9625 C   0  0  0  0  0  0
   29.9574    1.1967   -7.2425 O   0  0  0  0  0  0
   28.6630    0.2500   -5.6150 O   0  0  0  0  0  0
   23.7853    2.7956    2.2728 H   0  0  0  0  0  0
   24.9260    2.9293    0.0803 H   0  0  0  0  0  0
   27.5044    5.9762    1.5908 H   0  0  0  0  0  0
   24.4852    4.2501    4.1236 H   0  0  0  0  0  0
   26.2860    7.2077    3.7504 H   0  0  0  0  0  0
   28.1014    6.6637    5.5098 H   0  0  0  0  0  0
   28.1954    5.0563    4.7993 H   0  0  0  0  0  0
   25.9301    6.8471    5.8996 H   0  0  0  0  0  0
   28.8175    7.6575    3.5785 H   0  0  0  0  0  0
   30.2080    5.2872    3.9850 H   0  0  0  0  0  0
   31.1124    7.4530    2.1202 H   0  0  0  0  0  0
   32.2144    6.3314    2.8304 H   0  0  0  0  0  0
   31.8501    6.7050    5.2695 H   0  0  0  0  0  0
   31.0068    8.1562    4.7594 H   0  0  0  0  0  0
   30.2496    7.0500    5.8930 H   0  0  0  0  0  0
   29.8868    5.2299    1.4206 H   0  0  0  0  0  0
   29.9996    4.4869   -0.7554 H   0  0  0  0  0  0
   33.6775    4.8617   -2.9215 H   0  0  0  0  0  0
   34.7025    6.0054   -0.9957 H   0  0  0  0  0  0
   33.4512    6.2712    1.0888 H   0  0  0  0  0  0
   31.3824    1.9688   -1.8184 H   0  0  0  0  0  0
   30.4830    0.4529   -3.4836 H   0  0  0  0  0  0
   29.9870    3.7104   -6.2207 H   0  0  0  0  0  0
   31.4080    6.8217   -6.0150 H   0  0  0  0  0  0
   30.6589    1.8492   -7.2759 H   0  0  0  0  0  0
  1  6  1  0  0  0
  1  2  2  0  0  0
  1 34  1  0  0  0
  2  3  1  0  0  0
  2 35  1  0  0  0
  3  7  1  0  0  0
  3  4  2  0  0  0
  4  5  1  0  0  0
  4 36  1  0  0  0
  5  8  1  0  0  0
  5  6  2  0  0  0
  6 37  1  0  0  0
  8  9  1  0  0  0
  8 10  1  0  0  0
  8 38  1  0  0  0
  9 11  1  0  0  0
  9 39  1  0  0  0
  9 40  1  0  0  0
 10 41  1  0  0  0
 11 12  1  0  0  0
 11 42  1  0  0  0
 12 13  1  0  0  0
 12 14  1  0  0  0
 12 43  1  0  0  0
 13 15  1  0  0  0
 13 44  1  0  0  0
 13 45  1  0  0  0
 14 46  1  0  0  0
 14 47  1  0  0  0
 14 48  1  0  0  0
 15 16  1  0  0  0
 15 49  1  0  0  0
 16 17  2  0  0  0
 16 21  1  0  0  0
 17 18  1  0  0  0
 17 50  1  0  0  0
 18 19  2  0  0  0
 18 22  1  0  0  0
 19 20  1  0  0  0
 19 51  1  0  0  0
 20 21  2  0  0  0
 20 52  1  0  0  0
 21 53  1  0  0  0
 22 23  2  0  0  0
 22 27  1  0  0  0
 23 24  1  0  0  0
 23 54  1  0  0  0
 24 25  2  0  0  0
 24 55  1  0  0  0
 25 26  1  0  0  0
 25 31  1  0  0  0
 26 27  2  0  0  0
 26 56  1  0  0  0
 27 28  1  0  0  0
 28 29  1  0  0  0
 28 30  2  0  0  0
 29 57  1  0  0  0
 31 32  1  0  0  0
 31 33  2  0  0  0
 32 58  1  0  0  0
M  END
> <s_m_entry_id>
3097

> <s_m_entry_name>
dock_pv.189

> <s_m_Source_Path>
/home/csk/Desktop/cluster/DUD-E-result/adrb1

> <s_m_Source_File>
dock_pv.maegz

> <i_m_Source_File_Index>
189

> <chembl_id>
CHEMBL206002

> <chembl_pref_name>
None

> <i_lp_mmshare_version>
53161

> <i_f3d_flags>
0

> <r_lp_tautomer_probability>
1

> <s_lp_Force_Field>
OPLS_2005

> <r_lp_Energy>
37.825935

> <b_lp_Chiralities_Consistent>
1

> <s_lp_Variant>
CHEMBL213_lig678-1

> <s_i_glide_gridfile>
glide-grid_2vt4

> <i_i_glide_lignum>
780

> <i_i_glide_rotatable_bonds>
13

> <r_i_docking_score>
-7.61816726467051

> <r_i_glide_ligand_efficiency>
-0.230853553474864

> <r_i_glide_ligand_efficiency_sa>
-0.740470697109133

> <r_i_glide_ligand_efficiency_ln>
-1.69424095490366

> <r_i_glide_gscore>
-7.61816726467051

> <r_i_glide_lipo>
-3.51480657465289

> <r_i_glide_hbond>
-0.0437081073712873

> <r_i_glide_metal>
0

> <r_i_glide_rewards>
-1.34058455089461

> <r_i_glide_evdw>
-35.5846290588379

> <r_i_glide_ecoul>
-11.7755823135376

> <r_i_glide_erotb>
0.826500768220812

> <r_i_glide_esite>
0

> <r_i_glide_emodel>
-62.0414705643441

> <r_i_glide_energy>
-47.3602113723755

> <r_i_glide_einternal>
8.84716606140137

> <i_i_glide_confnum>
1

> <i_i_glide_posenum>
150

> <r_i_glide_eff_state_penalty>
0

> <s_user_duplicate_titles>
CHEMBL213_lig678

> <s_m_subgroup_title>
dock_pv

> <s_m_subgroupid>
dock_pv

> <b_m_subgroup_collapsed>
1

$$$$
CHEMBL213_lig1121
                    3D
 Schrodinger Suite 2021-1.
 77 79  0  0  1  0            999 V2000
   27.5502    6.0241    4.5754 C   0  0  0  0  0  0
   26.1868    5.7381    4.4173 C   0  0  0  0  0  0
   25.7468    5.1127    3.2393 C   0  0  0  0  0  0
   26.6473    4.7750    2.2163 C   0  0  0  0  0  0
   28.0037    5.0561    2.4015 C   0  0  0  0  0  0
   28.4450    5.6663    3.5734 C   0  0  0  0  0  0
   25.1783    6.0719    5.5085 C   0  0  0  0  0  0
   24.8865    7.4484    5.5848 O   0  0  0  0  0  0
   26.1923    4.0814    0.9162 C   0  0  2  0  0  0
   25.8404    5.0314   -0.2564 C   0  0  0  0  0  0
   25.0850    3.2175    1.1101 O   0  0  0  0  0  0
   26.7702    6.1493   -0.4292 N   0  0  2  0  0  0
   27.9097    5.8483   -1.2919 C   0  0  0  0  0  0
   27.4974    5.8337   -2.7799 C   0  0  0  0  0  0
   28.6337    6.1305   -3.7791 C   0  0  0  0  0  0
   29.7966    5.1164   -3.8093 C   0  0  0  0  0  0
   30.7746    5.4189   -4.9653 C   0  0  0  0  0  0
   31.8850    4.3788   -5.1815 C   0  0  0  0  0  0
   32.8418    4.4314   -4.1314 O   0  0  0  0  0  0
   33.9731    3.5942   -4.3661 C   0  0  0  0  0  0
   34.9663    3.6848   -3.1966 C   0  0  0  0  0  0
   35.5729    5.0958   -3.0068 C   0  0  0  0  0  0
   36.0398    5.4012   -1.5658 C   0  0  0  0  0  0
   35.3062    5.8486    0.8098 C   0  0  0  0  0  0
   34.9420    5.5550   -0.5074 C   0  0  0  0  0  0
   33.5841    5.4394   -0.8149 C   0  0  0  0  0  0
   32.6247    5.5488    0.1811 C   0  0  0  0  0  0
   28.0555    6.6490    5.6898 O   0  0  0  0  0  0
   32.9699    5.8503    1.5016 C   0  0  0  0  0  0
   34.3381    6.0254    1.8029 C   0  0  0  0  0  0
   34.9067    6.6386    3.3891 S   0  0  0  0  0  0
   33.4440    6.2456    4.4883 C   0  0  0  0  0  0
   32.2016    6.8039    3.7958 C   0  0  0  0  0  0
   31.8429    6.0282    2.5193 C   0  0  0  0  0  0
   36.0651    5.8512    3.8294 O   0  0  0  0  0  0
   35.0582    8.0946    3.2824 O   0  0  0  0  0  0
   24.6992    4.8862    3.1104 H   0  0  0  0  0  0
   28.7262    4.8026    1.6403 H   0  0  0  0  0  0
   29.4933    5.8661    3.7120 H   0  0  0  0  0  0
   24.2416    5.5394    5.3301 H   0  0  0  0  0  0
   25.5385    5.7284    6.4778 H   0  0  0  0  0  0
   25.5801    7.9111    6.0680 H   0  0  0  0  0  0
   27.0075    3.4411    0.5831 H   0  0  0  0  0  0
   25.7479    4.4701   -1.1849 H   0  0  0  0  0  0
   24.8539    5.4500   -0.0715 H   0  0  0  0  0  0
   24.6676    3.0561    0.2576 H   0  0  0  0  0  0
   27.0786    6.4958    0.4691 H   0  0  0  0  0  0
   28.6304    6.6503   -1.1446 H   0  0  0  0  0  0
   28.4183    4.9280   -0.9980 H   0  0  0  0  0  0
   27.0185    4.8847   -3.0237 H   0  0  0  0  0  0
   26.7253    6.5881   -2.9428 H   0  0  0  0  0  0
   28.1883    6.1691   -4.7728 H   0  0  0  0  0  0
   29.0240    7.1348   -3.6047 H   0  0  0  0  0  0
   30.3333    5.1310   -2.8589 H   0  0  0  0  0  0
   29.3937    4.1089   -3.9232 H   0  0  0  0  0  0
   30.2091    5.4967   -5.8959 H   0  0  0  0  0  0
   31.2285    6.3997   -4.8151 H   0  0  0  0  0  0
   31.4559    3.3762   -5.2608 H   0  0  0  0  0  0
   32.3751    4.5930   -6.1343 H   0  0  0  0  0  0
   33.6408    2.5616   -4.4642 H   0  0  0  0  0  0
   34.4726    3.8722   -5.2955 H   0  0  0  0  0  0
   34.4637    3.3463   -2.2914 H   0  0  0  0  0  0
   35.7766    2.9694   -3.3512 H   0  0  0  0  0  0
   36.4208    5.2015   -3.6845 H   0  0  0  0  0  0
   34.8682    5.8647   -3.3219 H   0  0  0  0  0  0
   36.7357    4.6240   -1.2398 H   0  0  0  0  0  0
   36.6114    6.3294   -1.5795 H   0  0  0  0  0  0
   36.3499    5.9845    1.0527 H   0  0  0  0  0  0
   33.2450    5.2379   -1.8179 H   0  0  0  0  0  0
   31.5844    5.4328   -0.0883 H   0  0  0  0  0  0
   27.4058    7.1228    6.2177 H   0  0  0  0  0  0
   33.3910    5.1671    4.6192 H   0  0  0  0  0  0
   33.6149    6.7135    5.4551 H   0  0  0  0  0  0
   31.3633    6.7864    4.4925 H   0  0  0  0  0  0
   32.3556    7.8488    3.5460 H   0  0  0  0  0  0
   31.0098    6.5362    2.0348 H   0  0  0  0  0  0
   31.4594    5.0497    2.7851 H   0  0  0  0  0  0
  1  2  1  0  0  0
  1  6  2  0  0  0
  1 28  1  0  0  0
  2  3  2  0  0  0
  2  7  1  0  0  0
  3  4  1  0  0  0
  3 37  1  0  0  0
  4  5  2  0  0  0
  4  9  1  0  0  0
  5  6  1  0  0  0
  5 38  1  0  0  0
  6 39  1  0  0  0
  7  8  1  0  0  0
  7 40  1  0  0  0
  7 41  1  0  0  0
  8 42  1  0  0  0
  9 10  1  0  0  0
  9 11  1  0  0  0
  9 43  1  0  0  0
 10 12  1  0  0  0
 10 44  1  0  0  0
 10 45  1  0  0  0
 11 46  1  0  0  0
 12 13  1  0  0  0
 12 47  1  0  0  0
 13 14  1  0  0  0
 13 48  1  0  0  0
 13 49  1  0  0  0
 14 15  1  0  0  0
 14 50  1  0  0  0
 14 51  1  0  0  0
 15 16  1  0  0  0
 15 52  1  0  0  0
 15 53  1  0  0  0
 16 17  1  0  0  0
 16 54  1  0  0  0
 16 55  1  0  0  0
 17 18  1  0  0  0
 17 56  1  0  0  0
 17 57  1  0  0  0
 18 19  1  0  0  0
 18 58  1  0  0  0
 18 59  1  0  0  0
 19 20  1  0  0  0
 20 21  1  0  0  0
 20 60  1  0  0  0
 20 61  1  0  0  0
 21 22  1  0  0  0
 21 62  1  0  0  0
 21 63  1  0  0  0
 22 23  1  0  0  0
 22 64  1  0  0  0
 22 65  1  0  0  0
 23 25  1  0  0  0
 23 66  1  0  0  0
 23 67  1  0  0  0
 24 30  2  0  0  0
 24 25  1  0  0  0
 24 68  1  0  0  0
 25 26  2  0  0  0
 26 27  1  0  0  0
 26 69  1  0  0  0
 27 29  2  0  0  0
 27 70  1  0  0  0
 28 71  1  0  0  0
 29 30  1  0  0  0
 29 34  1  0  0  0
 30 31  1  0  0  0
 31 32  1  0  0  0
 31 35  2  0  0  0
 31 36  2  0  0  0
 32 33  1  0  0  0
 32 72  1  0  0  0
 32 73  1  0  0  0
 33 34  1  0  0  0
 33 74  1  0  0  0
 33 75  1  0  0  0
 34 76  1  0  0  0
 34 77  1  0  0  0
M  END
> <s_m_entry_id>
3098

> <s_m_entry_name>
dock_pv.190

> <s_m_Source_Path>
/home/csk/Desktop/cluster/DUD-E-result/adrb1

> <s_m_Source_File>
dock_pv.maegz

> <i_m_Source_File_Index>
190

> <chembl_id>
CHEMBL3126387

> <chembl_pref_name>
None

> <i_lp_mmshare_version>
53161

> <i_f3d_flags>
0

> <r_lp_tautomer_probability>
0.999999999997365

> <s_lp_Force_Field>
OPLS_2005

> <r_lp_Energy>
26.720546

> <b_lp_Chiralities_Consistent>
1

> <s_lp_Variant>
CHEMBL213_lig1121-1

> <s_i_glide_gridfile>
glide-grid_2vt4

> <i_i_glide_lignum>
1316

> <i_i_glide_rotatable_bonds>
19

> <r_i_docking_score>
-7.6123182029422

> <r_i_glide_ligand_efficiency>
-0.211453283415061

> <r_i_glide_ligand_efficiency_sa>
-0.69820335754242

> <r_i_glide_ligand_efficiency_ln>
-1.66080217081121

> <r_i_glide_gscore>
-7.6123182029422

> <r_i_glide_lipo>
-3.78094889800189

> <r_i_glide_hbond>
0

> <r_i_glide_metal>
0

> <r_i_glide_rewards>
-0.564323421661329

> <r_i_glide_evdw>
-51.1525115966797

> <r_i_glide_ecoul>
-12.3343935012817

> <r_i_glide_erotb>
1.14112174322414

> <r_i_glide_esite>
-0.00038302147687363

> <r_i_glide_emodel>
-87.0498687039379

> <r_i_glide_energy>
-63.4869050979614

> <r_i_glide_einternal>
9.83969497680664

> <i_i_glide_confnum>
166

> <i_i_glide_posenum>
143

> <r_i_glide_eff_state_penalty>
0

> <s_user_duplicate_titles>
CHEMBL213_lig1121

> <s_m_subgroup_title>
dock_pv

> <s_m_subgroupid>
dock_pv

> <b_m_subgroup_collapsed>
1

$$$$
CHEMBL213_lig782
                    3D
 Schrodinger Suite 2021-1.
 88 90  0  0  1  0            999 V2000
   26.7785    5.9546    5.1332 C   0  0  0  0  0  0
   26.4453    5.2228    3.9840 C   0  0  0  0  0  0
   27.3731    5.0794    2.9547 C   0  0  0  0  0  0
   28.6186    5.6978    3.0452 C   0  0  0  0  0  0
   28.9393    6.5088    4.1388 C   0  0  0  0  0  0
   28.0126    6.6117    5.1874 C   0  0  0  0  0  0
   25.2085    4.6501    3.8385 O   0  0  0  0  0  0
   25.8304    6.0481    6.3240 C   0  0  0  0  0  0
   24.5711    6.5815    5.9849 O   0  0  0  0  0  0
   30.2604    7.2927    4.1404 C   0  0  2  0  0  0
   31.4931    6.3641    4.2223 C   0  0  0  0  0  0
   30.3279    8.2493    5.1850 O   0  0  0  0  0  0
   32.7684    7.0500    4.0587 N   0  0  2  0  0  0
   33.8990    6.2572    4.5236 C   0  0  0  0  0  0
   34.6874    5.6974    3.3323 C   0  0  0  0  0  0
   35.3853    6.7941    2.5048 C   0  0  0  0  0  0
   36.3738    6.2365    1.4718 C   0  0  0  0  0  0
   37.0065    7.3487    0.6150 C   0  0  0  0  0  0
   38.0556    6.8267   -0.3735 C   0  0  0  0  0  0
   37.3880    6.0006   -1.3106 O   0  0  0  0  0  0
   38.2605    5.2890   -2.1717 C   0  0  0  0  0  0
   37.4204    4.4487   -3.1408 C   0  0  0  0  0  0
   36.4501    3.4646   -2.4501 C   0  0  0  0  0  0
   35.6203    2.6195   -3.4314 C   0  0  0  0  0  0
   34.6253    3.4530   -4.2196 C   0  0  0  0  0  0
   34.9983    4.0592   -5.4242 C   0  0  0  0  0  0
   34.0922    4.8608   -6.1166 C   0  0  0  0  0  0
   32.8048    5.0500   -5.6184 C   0  0  0  0  0  0
   32.4193    4.4197   -4.4329 C   0  0  0  0  0  0
   33.3320    3.6350   -3.7284 C   0  0  0  0  0  0
   30.7346    4.4875   -3.8635 S   0  0  0  0  0  0
   30.2126    2.8008   -3.9440 N   0  0  2  0  0  0
   30.7845    4.8581   -2.4448 O   0  0  0  0  0  0
   29.9482    5.2804   -4.8143 O   0  0  0  0  0  0
   29.8958    2.1047   -5.2217 C   0  0  0  0  0  0
   28.4128    2.3816   -5.5041 C   0  0  0  0  0  0
   27.9801    1.6243   -6.7733 C   0  0  0  0  0  0
   28.8493    1.9658   -7.9962 C   0  0  0  0  0  0
   30.3610    1.8499   -7.7020 C   0  0  0  0  0  0
   30.7385    2.6087   -6.4180 C   0  0  0  0  0  0
   27.1323    4.4999    2.0756 H   0  0  0  0  0  0
   29.3195    5.5766    2.2330 H   0  0  0  0  0  0
   28.2435    7.2159    6.0518 H   0  0  0  0  0  0
   25.1052    4.2138    2.9898 H   0  0  0  0  0  0
   25.6937    5.0701    6.7830 H   0  0  0  0  0  0
   26.2660    6.6500    7.1162 H   0  0  0  0  0  0
   24.2453    6.0816    5.2296 H   0  0  0  0  0  0
   30.2913    7.8500    3.2025 H   0  0  0  0  0  0
   31.4733    5.8500    5.1840 H   0  0  0  0  0  0
   31.4367    5.6160    3.4299 H   0  0  0  0  0  0
   31.1465    8.7518    5.0806 H   0  0  0  0  0  0
   32.7769    8.0130    4.3890 H   0  0  0  0  0  0
   34.5500    6.9126    5.1035 H   0  0  0  0  0  0
   33.5996    5.4561    5.2026 H   0  0  0  0  0  0
   35.4207    4.9974    3.7215 H   0  0  0  0  0  0
   34.0345    5.1051    2.6913 H   0  0  0  0  0  0
   34.6293    7.3960    1.9975 H   0  0  0  0  0  0
   35.9171    7.4739    3.1719 H   0  0  0  0  0  0
   37.1590    5.6781    1.9832 H   0  0  0  0  0  0
   35.8616    5.5236    0.8217 H   0  0  0  0  0  0
   36.2193    7.8500    0.0518 H   0  0  0  0  0  0
   37.4646    8.1030    1.2573 H   0  0  0  0  0  0
   38.5407    7.6563   -0.8902 H   0  0  0  0  0  0
   38.8294    6.2745    0.1641 H   0  0  0  0  0  0
   38.8847    5.9843   -2.7365 H   0  0  0  0  0  0
   38.9271    4.6505   -1.5917 H   0  0  0  0  0  0
   36.8616    5.1361   -3.7751 H   0  0  0  0  0  0
   38.0912    3.8996   -3.8026 H   0  0  0  0  0  0
   37.0078    2.7930   -1.8005 H   0  0  0  0  0  0
   35.7775    4.0128   -1.7878 H   0  0  0  0  0  0
   36.2620    2.0706   -4.1208 H   0  0  0  0  0  0
   35.0800    1.8498   -2.8762 H   0  0  0  0  0  0
   35.9994    3.9361   -5.8119 H   0  0  0  0  0  0
   34.3960    5.3521   -7.0312 H   0  0  0  0  0  0
   32.1075    5.6673   -6.1675 H   0  0  0  0  0  0
   33.0298    3.1537   -2.8086 H   0  0  0  0  0  0
   29.5306    2.5898   -3.2050 H   0  0  0  0  0  0
   29.9628    1.0239   -5.0869 H   0  0  0  0  0  0
   27.8073    2.0604   -4.6570 H   0  0  0  0  0  0
   28.2260    3.4490   -5.6143 H   0  0  0  0  0  0
   28.0432    0.5525   -6.5837 H   0  0  0  0  0  0
   26.9426    1.8507   -7.0061 H   0  0  0  0  0  0
   28.5809    1.3027   -8.8150 H   0  0  0  0  0  0
   28.6081    2.9769   -8.3291 H   0  0  0  0  0  0
   30.6379    0.7999   -7.6006 H   0  0  0  0  0  0
   30.9344    2.2378   -8.5449 H   0  0  0  0  0  0
   30.5756    3.6693   -6.6025 H   0  0  0  0  0  0
   31.8012    2.4737   -6.2176 H   0  0  0  0  0  0
  1  2  2  0  0  0
  1  8  1  0  0  0
  1  6  1  0  0  0
  2  7  1  0  0  0
  2  3  1  0  0  0
  3  4  2  0  0  0
  3 41  1  0  0  0
  4  5  1  0  0  0
  4 42  1  0  0  0
  5 10  1  0  0  0
  5  6  2  0  0  0
  6 43  1  0  0  0
  7 44  1  0  0  0
  8  9  1  0  0  0
  8 45  1  0  0  0
  8 46  1  0  0  0
  9 47  1  0  0  0
 10 11  1  0  0  0
 10 12  1  0  0  0
 10 48  1  0  0  0
 11 13  1  0  0  0
 11 49  1  0  0  0
 11 50  1  0  0  0
 12 51  1  0  0  0
 13 14  1  0  0  0
 13 52  1  0  0  0
 14 15  1  0  0  0
 14 53  1  0  0  0
 14 54  1  0  0  0
 15 16  1  0  0  0
 15 55  1  0  0  0
 15 56  1  0  0  0
 16 17  1  0  0  0
 16 57  1  0  0  0
 16 58  1  0  0  0
 17 18  1  0  0  0
 17 59  1  0  0  0
 17 60  1  0  0  0
 18 19  1  0  0  0
 18 61  1  0  0  0
 18 62  1  0  0  0
 19 20  1  0  0  0
 19 63  1  0  0  0
 19 64  1  0  0  0
 20 21  1  0  0  0
 21 22  1  0  0  0
 21 65  1  0  0  0
 21 66  1  0  0  0
 22 23  1  0  0  0
 22 67  1  0  0  0
 22 68  1  0  0  0
 23 24  1  0  0  0
 23 69  1  0  0  0
 23 70  1  0  0  0
 24 25  1  0  0  0
 24 71  1  0  0  0
 24 72  1  0  0  0
 25 26  2  0  0  0
 25 30  1  0  0  0
 26 27  1  0  0  0
 26 73  1  0  0  0
 27 28  2  0  0  0
 27 74  1  0  0  0
 28 29  1  0  0  0
 28 75  1  0  0  0
 29 30  2  0  0  0
 29 31  1  0  0  0
 30 76  1  0  0  0
 31 32  1  0  0  0
 31 33  2  0  0  0
 31 34  2  0  0  0
 32 35  1  0  0  0
 32 77  1  0  0  0
 35 36  1  0  0  0
 35 40  1  0  0  0
 35 78  1  0  0  0
 36 37  1  0  0  0
 36 79  1  0  0  0
 36 80  1  0  0  0
 37 38  1  0  0  0
 37 81  1  0  0  0
 37 82  1  0  0  0
 38 39  1  0  0  0
 38 83  1  0  0  0
 38 84  1  0  0  0
 39 40  1  0  0  0
 39 85  1  0  0  0
 39 86  1  0  0  0
 40 87  1  0  0  0
 40 88  1  0  0  0
M  END
> <s_m_entry_id>
3099

> <s_m_entry_name>
dock_pv.191

> <s_m_Source_Path>
/home/csk/Desktop/cluster/DUD-E-result/adrb1

> <s_m_Source_File>
dock_pv.maegz

> <i_m_Source_File_Index>
191

> <chembl_id>
CHEMBL500782

> <chembl_pref_name>
None

> <i_lp_mmshare_version>
53161

> <i_f3d_flags>
0

> <r_lp_tautomer_probability>
0.999999999997365

> <s_lp_Force_Field>
OPLS_2005

> <r_lp_Energy>
27.339564

> <b_lp_Chiralities_Consistent>
1

> <s_lp_Variant>
CHEMBL213_lig782-1

> <s_i_glide_gridfile>
glide-grid_2vt4

> <i_i_glide_lignum>
890

> <i_i_glide_rotatable_bonds>
22

> <r_i_docking_score>
-7.59308714054684

> <r_i_glide_ligand_efficiency>
-0.189827178513671

> <r_i_glide_ligand_efficiency_sa>
-0.649199817769489

> <r_i_glide_ligand_efficiency_ln>
-1.61938203249922

> <r_i_glide_gscore>
-7.59308714054684

> <r_i_glide_lipo>
-3.51798385703534

> <r_i_glide_hbond>
-0.864

> <r_i_glide_metal>
0

> <r_i_glide_rewards>
-0.0383278746864758

> <r_i_glide_evdw>
-53.2168083190918

> <r_i_glide_ecoul>
-10.511209487915

> <r_i_glide_erotb>
1.09608879026059

> <r_i_glide_esite>
-0.0313423599437757

> <r_i_glide_emodel>
-81.2804572972254

> <r_i_glide_energy>
-63.7280178070068

> <r_i_glide_einternal>
13.1845273971558

> <i_i_glide_confnum>
22

> <i_i_glide_posenum>
15

> <r_i_glide_eff_state_penalty>
0

> <s_user_duplicate_titles>
CHEMBL213_lig782,476136

> <s_m_subgroup_title>
dock_pv

> <s_m_subgroupid>
dock_pv

> <b_m_subgroup_collapsed>
1

$$$$
CHEMBL213_lig1292
                    3D
 Schrodinger Suite 2021-1.
 64 66  0  0  1  0            999 V2000
   31.5314    5.2919   -2.7238 N   0  0  1  0  0  0
   32.3032    4.0675   -3.0095 C   0  0  2  0  0  0
   33.8112    4.4485   -3.0830 C   0  0  0  0  0  0
   31.8118    3.2967   -4.2529 C   0  0  0  0  0  0
   34.5171    4.6412   -1.7405 C   0  0  0  0  0  0
   30.8098    2.3271   -4.1149 C   0  0  0  0  0  0
   30.2716    1.6844   -5.2253 C   0  0  0  0  0  0
   30.7680    1.9579   -6.5037 C   0  0  0  0  0  0
   31.8410    2.8501   -6.6406 C   0  0  0  0  0  0
   32.3312    3.5397   -5.5305 C   0  0  0  0  0  0
   34.1772    5.7014   -0.8931 C   0  0  0  0  0  0
   34.8323    5.8579    0.3255 C   0  0  0  0  0  0
   35.8430    4.9703    0.6873 C   0  0  0  0  0  0
   36.2073    3.9279   -0.1605 C   0  0  0  0  0  0
   35.5440    3.7641   -1.3725 C   0  0  0  0  0  0
   26.6372    4.6953    2.3982 C   0  0  0  0  0  0
   25.4606    4.2500    1.7741 C   0  0  0  0  0  0
   25.3654    4.2495    0.3852 C   0  0  0  0  0  0
   26.4330    4.6897   -0.3911 C   0  0  0  0  0  0
   27.6253    5.1072    0.2065 C   0  0  0  0  0  0
   27.7177    5.1088    1.6058 C   0  0  0  0  0  0
   24.3807    3.8152    2.5013 O   0  0  0  0  0  0
   26.7326    4.6512    3.7977 N   0  0  0  0  0  0
   27.1801    6.0435    4.7941 S   0  0  0  0  0  0
   25.8081    7.2725    4.4334 C   0  0  0  0  0  0
   28.4502    6.5768    4.2911 O   0  0  0  0  0  0
   27.0441    5.5993    6.1835 O   0  0  0  0  0  0
   28.7900    5.5878   -0.6666 C   0  0  0  0  0  0
   29.2181    4.6032   -1.7829 C   0  0  1  0  0  0
   30.0747    5.2378   -2.9154 C   0  0  0  0  0  0
   29.8081    3.4503   -1.2132 O   0  0  0  0  0  0
   30.2448    1.3372   -7.6147 O   0  0  0  0  0  0
   28.8348    1.4492   -7.7862 C   0  0  0  0  0  0
   32.4404    3.0497   -7.8551 O   0  0  0  0  0  0
   31.6730    5.4512   -1.7369 H   0  0  0  0  0  0
   32.1929    3.3772   -2.1725 H   0  0  0  0  0  0
   34.3486    3.6649   -3.6181 H   0  0  0  0  0  0
   33.9546    5.3503   -3.6795 H   0  0  0  0  0  0
   30.4190    2.0758   -3.1442 H   0  0  0  0  0  0
   29.4776    0.9660   -5.0852 H   0  0  0  0  0  0
   33.1226    4.2621   -5.6678 H   0  0  0  0  0  0
   33.4154    6.4124   -1.1746 H   0  0  0  0  0  0
   34.5619    6.6706    0.9834 H   0  0  0  0  0  0
   36.3553    5.0944    1.6291 H   0  0  0  0  0  0
   36.9986    3.2454    0.1155 H   0  0  0  0  0  0
   35.8362    2.9497   -2.0201 H   0  0  0  0  0  0
   24.4592    3.9170   -0.1008 H   0  0  0  0  0  0
   26.3146    4.7019   -1.4647 H   0  0  0  0  0  0
   28.6401    5.4146    2.0755 H   0  0  0  0  0  0
   23.6550    3.5380    1.9376 H   0  0  0  0  0  0
   26.0806    4.0222    4.2416 H   0  0  0  0  0  0
   26.0273    8.1930    4.9743 H   0  0  0  0  0  0
   24.8678    6.8520    4.7856 H   0  0  0  0  0  0
   25.7741    7.4506    3.3611 H   0  0  0  0  0  0
   28.4552    6.5213   -1.1202 H   0  0  0  0  0  0
   29.6563    5.8457   -0.0557 H   0  0  0  0  0  0
   28.3152    4.2574   -2.2862 H   0  0  0  0  0  0
   29.8326    4.7739   -3.8716 H   0  0  0  0  0  0
   29.7379    6.2655   -3.0478 H   0  0  0  0  0  0
   29.2710    2.6928   -1.4963 H   0  0  0  0  0  0
   28.5740    1.1423   -8.7980 H   0  0  0  0  0  0
   28.2926    0.8007   -7.0941 H   0  0  0  0  0  0
   28.4851    2.4764   -7.6535 H   0  0  0  0  0  0
   33.1616    3.6829   -7.8210 H   0  0  0  0  0  0
  1  2  1  0  0  0
  1 30  1  0  0  0
  1 35  1  0  0  0
  2  3  1  0  0  0
  2  4  1  0  0  0
  2 36  1  0  0  0
  3  5  1  0  0  0
  3 37  1  0  0  0
  3 38  1  0  0  0
  4 10  1  0  0  0
  4  6  2  0  0  0
  5 11  2  0  0  0
  5 15  1  0  0  0
  6  7  1  0  0  0
  6 39  1  0  0  0
  7  8  2  0  0  0
  7 40  1  0  0  0
  8  9  1  0  0  0
  8 32  1  0  0  0
  9 10  2  0  0  0
  9 34  1  0  0  0
 10 41  1  0  0  0
 11 12  1  0  0  0
 11 42  1  0  0  0
 12 13  2  0  0  0
 12 43  1  0  0  0
 13 14  1  0  0  0
 13 44  1  0  0  0
 14 15  2  0  0  0
 14 45  1  0  0  0
 15 46  1  0  0  0
 16 17  2  0  0  0
 16 21  1  0  0  0
 16 23  1  0  0  0
 17 18  1  0  0  0
 17 22  1  0  0  0
 18 19  2  0  0  0
 18 47  1  0  0  0
 19 20  1  0  0  0
 19 48  1  0  0  0
 20 21  2  0  0  0
 20 28  1  0  0  0
 21 49  1  0  0  0
 22 50  1  0  0  0
 23 24  1  0  0  0
 23 51  1  0  0  0
 24 25  1  0  0  0
 24 26  2  0  0  0
 24 27  2  0  0  0
 25 52  1  0  0  0
 25 53  1  0  0  0
 25 54  1  0  0  0
 28 29  1  0  0  0
 28 55  1  0  0  0
 28 56  1  0  0  0
 29 30  1  0  0  0
 29 31  1  0  0  0
 29 57  1  0  0  0
 30 58  1  0  0  0
 30 59  1  0  0  0
 31 60  1  0  0  0
 32 33  1  0  0  0
 33 61  1  0  0  0
 33 62  1  0  0  0
 33 63  1  0  0  0
 34 64  1  0  0  0
M  END
> <s_m_entry_id>
3100

> <s_m_entry_name>
dock_pv.192

> <s_m_Source_Path>
/home/csk/Desktop/cluster/DUD-E-result/adrb1

> <s_m_Source_File>
dock_pv.maegz

> <i_m_Source_File_Index>
192

> <chembl_id>
CHEMBL400947

> <chembl_pref_name>
None

> <i_lp_mmshare_version>
53161

> <i_f3d_flags>
0

> <r_lp_tautomer_probability>
1

> <s_lp_Force_Field>
OPLS_2005

> <r_lp_Energy>
15.331265

> <b_lp_Chiralities_Consistent>
1

> <s_lp_Variant>
CHEMBL213_lig1292-1

> <s_i_glide_gridfile>
glide-grid_2vt4

> <i_i_glide_lignum>
1544

> <i_i_glide_rotatable_bonds>
14

> <r_i_docking_score>
-7.59305321424354

> <r_i_glide_ligand_efficiency>
-0.223325094536575

> <r_i_glide_ligand_efficiency_sa>
-0.723486610931672

> <r_i_glide_ligand_efficiency_ln>
-1.67751843295501

> <r_i_glide_gscore>
-7.59305321424354

> <r_i_glide_lipo>
-3.09020901110549

> <r_i_glide_hbond>
-0.32

> <r_i_glide_metal>
0

> <r_i_glide_rewards>
-0.888376026402915

> <r_i_glide_evdw>
-51.3997573852539

> <r_i_glide_ecoul>
-9.98017883300781

> <r_i_glide_erotb>
0.772546517478738

> <r_i_glide_esite>
0

> <r_i_glide_emodel>
-81.996859517178

> <r_i_glide_energy>
-61.3799362182617

> <r_i_glide_einternal>
18.0223541259766

> <i_i_glide_confnum>
3

> <i_i_glide_posenum>
387

> <r_i_glide_eff_state_penalty>
0

> <s_user_duplicate_titles>
CHEMBL213_lig1292

> <s_m_subgroup_title>
dock_pv

> <s_m_subgroupid>
dock_pv

> <b_m_subgroup_collapsed>
1

$$$$
CHEMBL213_lig1196
                    3D
 Schrodinger Suite 2021-1.
 48 50  0  0  1  0            999 V2000
   31.8273    5.2653   -3.9619 C   0  0  0  0  0  0
   31.9561    4.1833   -4.8282 C   0  0  0  0  0  0
   29.4392    4.8417   -3.7259 C   0  0  0  0  0  0
   30.5817    5.5981   -3.4311 C   0  0  0  0  0  0
   29.5765    3.7298   -4.5690 C   0  0  0  0  0  0
   30.8279    3.4154   -5.1343 C   0  0  0  0  0  0
   30.9189    2.3316   -6.0261 N   0  0  0  0  0  0
   29.9134    1.5273   -6.4209 C   0  0  0  0  0  0
   28.6380    1.8190   -5.8026 C   0  0  0  0  0  0
   28.4532    2.8426   -4.9476 C   0  0  0  0  0  0
   30.0842    0.6497   -7.2438 O   0  0  0  0  0  0
   33.1851    3.8959   -5.3705 O   0  0  0  0  0  0
   28.0599    5.2033   -3.1456 C   0  0  1  0  0  0
   27.7280    4.3117   -2.0381 N   0  0  2  0  0  0
   27.7962    6.6955   -2.8440 C   0  0  0  0  0  0
   28.0473    7.4500   -4.0144 O   0  0  0  0  0  0
   28.4477    4.4645   -0.7816 C   0  0  0  0  0  0
   27.6972    5.2763    0.3040 C   0  0  0  0  0  0
   26.4778    4.6226    0.9802 C   0  0  0  0  0  0
   26.2095    4.8533    2.3459 C   0  0  0  0  0  0
   25.0823    4.2499    2.9348 C   0  0  0  0  0  0
   24.2224    3.4524    2.1843 C   0  0  0  0  0  0
   24.4783    3.2445    0.8351 C   0  0  0  0  0  0
   25.5928    3.8255    0.2407 C   0  0  0  0  0  0
   27.0750    5.6796    3.0457 O   0  0  0  0  0  0
   26.8342    5.9558    4.4210 C   0  0  0  0  0  0
   32.6974    5.8499   -3.7052 H   0  0  0  0  0  0
   30.5107    6.4577   -2.7903 H   0  0  0  0  0  0
   31.8102    2.1354   -6.4533 H   0  0  0  0  0  0
   27.8084    1.1743   -6.0453 H   0  0  0  0  0  0
   27.4656    2.9777   -4.5271 H   0  0  0  0  0  0
   33.8242    4.6088   -5.2872 H   0  0  0  0  0  0
   27.3273    4.9826   -3.9250 H   0  0  0  0  0  0
   27.7594    3.3346   -2.3321 H   0  0  0  0  0  0
   26.7519    6.8430   -2.5616 H   0  0  0  0  0  0
   28.4152    7.0502   -2.0254 H   0  0  0  0  0  0
   27.6505    8.3302   -3.9434 H   0  0  0  0  0  0
   28.5250    3.4449   -0.4152 H   0  0  0  0  0  0
   29.4806    4.7927   -0.9104 H   0  0  0  0  0  0
   28.4469    5.4495    1.0751 H   0  0  0  0  0  0
   27.4052    6.2601   -0.0619 H   0  0  0  0  0  0
   24.8474    4.4013    3.9762 H   0  0  0  0  0  0
   23.3525    3.0074    2.6417 H   0  0  0  0  0  0
   23.8078    2.6462    0.2331 H   0  0  0  0  0  0
   25.7290    3.6604   -0.8151 H   0  0  0  0  0  0
   27.6016    6.6356    4.7885 H   0  0  0  0  0  0
   25.8670    6.4382    4.5733 H   0  0  0  0  0  0
   26.8819    5.0484    5.0244 H   0  0  0  0  0  0
  1  2  2  0  0  0
  1  4  1  0  0  0
  1 27  1  0  0  0
  2  6  1  0  0  0
  2 12  1  0  0  0
  3  5  1  0  0  0
  3  4  2  0  0  0
  3 13  1  0  0  0
  4 28  1  0  0  0
  5  6  2  0  0  0
  5 10  1  0  0  0
  6  7  1  0  0  0
  7  8  1  0  0  0
  7 29  1  0  0  0
  8  9  1  0  0  0
  8 11  2  0  0  0
  9 10  2  0  0  0
  9 30  1  0  0  0
 10 31  1  0  0  0
 12 32  1  0  0  0
 13 14  1  0  0  0
 13 15  1  0  0  0
 13 33  1  0  0  0
 14 17  1  0  0  0
 14 34  1  0  0  0
 15 16  1  0  0  0
 15 35  1  0  0  0
 15 36  1  0  0  0
 16 37  1  0  0  0
 17 18  1  0  0  0
 17 38  1  0  0  0
 17 39  1  0  0  0
 18 19  1  0  0  0
 18 40  1  0  0  0
 18 41  1  0  0  0
 19 20  2  0  0  0
 19 24  1  0  0  0
 20 21  1  0  0  0
 20 25  1  0  0  0
 21 22  2  0  0  0
 21 42  1  0  0  0
 22 23  1  0  0  0
 22 43  1  0  0  0
 23 24  2  0  0  0
 23 44  1  0  0  0
 24 45  1  0  0  0
 25 26  1  0  0  0
 26 46  1  0  0  0
 26 47  1  0  0  0
 26 48  1  0  0  0
M  END
> <s_m_entry_id>
3101

> <s_m_entry_name>
dock_pv.193

> <s_m_Source_Path>
/home/csk/Desktop/cluster/DUD-E-result/adrb1

> <s_m_Source_File>
dock_pv.maegz

> <i_m_Source_File_Index>
193

> <chembl_id>
CHEMBL4281324

> <chembl_pref_name>
None

> <i_lp_mmshare_version>
53161

> <i_f3d_flags>
0

> <r_lp_tautomer_probability>
1

> <s_lp_Force_Field>
OPLS_2005

> <r_lp_Energy>
33.973014

> <b_lp_Chiralities_Consistent>
1

> <s_lp_Variant>
CHEMBL213_lig1196-2

> <s_i_glide_gridfile>
glide-grid_2vt4

> <i_i_glide_lignum>
1405

> <i_i_glide_rotatable_bonds>
9

> <r_i_docking_score>
-7.59226749268299

> <r_i_glide_ligand_efficiency>
-0.292010288180115

> <r_i_glide_ligand_efficiency_sa>
-0.86507932972859

> <r_i_glide_ligand_efficiency_ln>
-1.78301910839502

> <r_i_glide_gscore>
-7.59226749268299

> <r_i_glide_lipo>
-2.51842231762121

> <r_i_glide_hbond>
-0.84908364015554

> <r_i_glide_metal>
0

> <r_i_glide_rewards>
-1.68919045312067

> <r_i_glide_evdw>
-39.9940147399902

> <r_i_glide_ecoul>
-9.6579475402832

> <r_i_glide_erotb>
0.912821786256415

> <r_i_glide_esite>
0

> <r_i_glide_emodel>
-62.9197288932546

> <r_i_glide_energy>
-49.6519622802734

> <r_i_glide_einternal>
17.5210189819336

> <i_i_glide_confnum>
85

> <i_i_glide_posenum>
150

> <r_i_glide_eff_state_penalty>
0

> <s_user_duplicate_titles>
CHEMBL213_lig1196

> <s_m_subgroup_title>
dock_pv

> <s_m_subgroupid>
dock_pv

> <b_m_subgroup_collapsed>
1

$$$$
CHEMBL213_lig283
                    3D
 Schrodinger Suite 2021-1.
 69 73  0  0  1  0            999 V2000
   35.2470    6.5022    3.7789 S   0  0  0  0  0  0
   28.4817    5.9844    3.7942 N   0  0  0  0  0  0
   29.2791    6.8447    4.3954 C   0  0  0  0  0  0
   28.7121    7.6953    5.2185 N   0  0  0  0  0  0
   27.3110    6.3519    4.2413 C   0  0  0  0  0  0
   35.8065    7.1614    2.2280 N   0  0  0  0  0  0
   27.3647    7.3776    5.1189 O   0  0  0  0  0  0
   33.5016    6.7352    3.8978 C   0  0  0  0  0  0
   35.4080    5.0501    3.7690 O   0  0  0  0  0  0
   35.8762    7.3227    4.8204 O   0  0  0  0  0  0
   30.7470    6.8463    4.1928 C   0  0  0  0  0  0
   26.3763    4.0952    0.5026 C   0  0  0  0  0  0
   25.3813    3.1196    0.5900 C   0  0  0  0  0  0
   31.7517    3.8536   -5.4094 C   0  0  0  0  0  0
   26.5941    4.9621    1.5742 C   0  0  0  0  0  0
   25.8077    4.8629    2.7337 C   0  0  0  0  0  0
   30.2043    1.9978   -5.1587 N   0  0  0  0  0  0
   25.9319    5.8427    3.8947 C   0  0  0  0  0  0
   32.6835    6.5935    2.7832 C   0  0  0  0  0  0
   32.9542    6.9304    5.1581 C   0  0  0  0  0  0
   31.5779    7.0173    5.2991 C   0  0  0  0  0  0
   31.3054    6.6300    2.9330 C   0  0  0  0  0  0
   35.9287    6.4514    1.0218 C   0  0  0  0  0  0
   24.5872    3.0275    1.7271 C   0  0  0  0  0  0
   32.4218    5.1133   -4.8500 C   0  0  1  0  0  0
   27.1385    4.2002   -0.6091 F   0  0  0  0  0  0
   24.7904    3.9057    2.7850 C   0  0  0  0  0  0
   25.1756    2.2534   -0.4184 F   0  0  0  0  0  0
   34.0726    3.8563   -3.4189 N   0  0  2  0  0  0
   36.2369    5.1806   -1.4604 C   0  0  0  0  0  0
   30.8180    3.1082   -4.6734 C   0  0  0  0  0  0
   36.7670    6.9940    0.0492 C   0  0  0  0  0  0
   35.2558    5.2563    0.7519 C   0  0  0  0  0  0
   36.9191    6.3667   -1.1850 C   0  0  0  0  0  0
   35.4082    4.6258   -0.4806 C   0  0  0  0  0  0
   31.6934    5.7384   -3.8029 O   0  0  0  0  0  0
   33.9023    4.8992   -4.4345 C   0  0  0  0  0  0
   32.0630    3.4104   -6.7021 C   0  0  0  0  0  0
   30.5155    1.5997   -6.4170 C   0  0  0  0  0  0
   35.4590    3.4124   -3.2608 C   0  0  0  0  0  0
   36.4552    4.5185   -2.8238 C   0  0  0  0  0  0
   31.4381    2.2730   -7.2187 C   0  0  0  0  0  0
   36.2538    8.0621    2.2788 H   0  0  0  0  0  0
   27.3524    5.7241    1.4746 H   0  0  0  0  0  0
   25.4786    5.4185    4.7907 H   0  0  0  0  0  0
   25.3076    6.6997    3.6429 H   0  0  0  0  0  0
   33.0959    6.4293    1.8008 H   0  0  0  0  0  0
   33.5952    7.0045    6.0225 H   0  0  0  0  0  0
   31.1586    7.1354    6.2851 H   0  0  0  0  0  0
   30.6789    6.4561    2.0746 H   0  0  0  0  0  0
   23.8114    2.2792    1.7801 H   0  0  0  0  0  0
   32.4206    5.8495   -5.6562 H   0  0  0  0  0  0
   24.1411    3.8494    3.6447 H   0  0  0  0  0  0
   33.4635    3.0750   -3.6242 H   0  0  0  0  0  0
   30.5411    3.3929   -3.6679 H   0  0  0  0  0  0
   37.3149    7.9009    0.2493 H   0  0  0  0  0  0
   34.6078    4.7970    1.4803 H   0  0  0  0  0  0
   37.5724    6.8012   -1.9293 H   0  0  0  0  0  0
   34.8747    3.7050   -0.6604 H   0  0  0  0  0  0
   30.8584    6.0406   -4.1675 H   0  0  0  0  0  0
   34.4739    4.6339   -5.3259 H   0  0  0  0  0  0
   34.3148    5.8408   -4.0656 H   0  0  0  0  0  0
   32.7780    3.9488   -7.3081 H   0  0  0  0  0  0
   30.0103    0.7154   -6.7744 H   0  0  0  0  0  0
   35.4450    2.6305   -2.5005 H   0  0  0  0  0  0
   35.8096    2.9230   -4.1708 H   0  0  0  0  0  0
   37.4587    4.0898   -2.8154 H   0  0  0  0  0  0
   36.4820    5.2987   -3.5870 H   0  0  0  0  0  0
   31.6642    1.9258   -8.2161 H   0  0  0  0  0  0
  1  6  1  0  0  0
  1  8  1  0  0  0
  1  9  2  0  0  0
  1 10  2  0  0  0
  2  3  1  0  0  0
  2  5  2  0  0  0
  3 11  1  0  0  0
  3  4  2  0  0  0
  4  7  1  0  0  0
  5 18  1  0  0  0
  5  7  1  0  0  0
  6 23  1  0  0  0
  6 43  1  0  0  0
  8 19  1  0  0  0
  8 20  2  0  0  0
 11 21  2  0  0  0
 11 22  1  0  0  0
 12 15  2  0  0  0
 12 26  1  0  0  0
 12 13  1  0  0  0
 13 24  2  0  0  0
 13 28  1  0  0  0
 14 25  1  0  0  0
 14 31  1  0  0  0
 14 38  2  0  0  0
 15 16  1  0  0  0
 15 44  1  0  0  0
 16 18  1  0  0  0
 16 27  2  0  0  0
 17 31  2  0  0  0
 17 39  1  0  0  0
 18 45  1  0  0  0
 18 46  1  0  0  0
 19 22  2  0  0  0
 19 47  1  0  0  0
 20 21  1  0  0  0
 20 48  1  0  0  0
 21 49  1  0  0  0
 22 50  1  0  0  0
 23 32  1  0  0  0
 23 33  2  0  0  0
 24 27  1  0  0  0
 24 51  1  0  0  0
 25 37  1  0  0  0
 25 36  1  0  0  0
 25 52  1  0  0  0
 27 53  1  0  0  0
 29 40  1  0  0  0
 29 37  1  0  0  0
 29 54  1  0  0  0
 30 35  2  0  0  0
 30 41  1  0  0  0
 30 34  1  0  0  0
 31 55  1  0  0  0
 32 34  2  0  0  0
 32 56  1  0  0  0
 33 35  1  0  0  0
 33 57  1  0  0  0
 34 58  1  0  0  0
 35 59  1  0  0  0
 36 60  1  0  0  0
 37 61  1  0  0  0
 37 62  1  0  0  0
 38 42  1  0  0  0
 38 63  1  0  0  0
 39 42  2  0  0  0
 39 64  1  0  0  0
 40 41  1  0  0  0
 40 65  1  0  0  0
 40 66  1  0  0  0
 41 67  1  0  0  0
 41 68  1  0  0  0
 42 69  1  0  0  0
M  END
> <s_m_entry_id>
3102

> <s_m_entry_name>
dock_pv.194

> <s_m_Source_Path>
/home/csk/Desktop/cluster/DUD-E-result/adrb1

> <s_m_Source_File>
dock_pv.maegz

> <i_m_Source_File_Index>
194

> <chembl_id>
CHEMBL285001

> <chembl_pref_name>
None

> <i_lp_mmshare_version>
53161

> <i_f3d_flags>
0

> <r_lp_tautomer_probability>
1

> <s_lp_Force_Field>
OPLS_2005

> <r_lp_Energy>
25.430104

> <b_lp_Chiralities_Consistent>
1

> <s_lp_Variant>
CHEMBL213_lig283-1

> <s_i_glide_gridfile>
glide-grid_2vt4

> <i_i_glide_lignum>
321

> <i_i_glide_rotatable_bonds>
13

> <r_i_docking_score>
-7.58028658531609

> <r_i_glide_ligand_efficiency>
-0.180483013936097

> <r_i_glide_ligand_efficiency_sa>
-0.627363764609661

> <r_i_glide_ligand_efficiency_ln>
-1.60000320749734

> <r_i_glide_gscore>
-7.58028658531609

> <r_i_glide_lipo>
-3.78595709509946

> <r_i_glide_hbond>
-0.162065702306627

> <r_i_glide_metal>
0

> <r_i_glide_rewards>
-0.496935424251943

> <r_i_glide_evdw>
-60.141414642334

> <r_i_glide_ecoul>
-3.3481330871582

> <r_i_glide_erotb>
0.548895795224277

> <r_i_glide_esite>
-0.174933463691916

> <r_i_glide_emodel>
-75.5872763272596

> <r_i_glide_energy>
-63.4895477294922

> <r_i_glide_einternal>
9.23003101348877

> <i_i_glide_confnum>
10

> <i_i_glide_posenum>
297

> <r_i_glide_eff_state_penalty>
0

> <s_user_duplicate_titles>
CHEMBL213_lig283

> <s_m_subgroup_title>
dock_pv

> <s_m_subgroupid>
dock_pv

> <b_m_subgroup_collapsed>
1

$$$$
CHEMBL213_lig1320
                    3D
 Schrodinger Suite 2021-1.
 49 51  0  0  1  0            999 V2000
   27.5500    5.0501    3.2129 C   0  0  0  0  0  0
   26.7394    5.3994    4.2918 C   0  0  0  0  0  0
   27.1407    6.2497    5.2671 N   0  0  0  0  0  0
   28.3830    6.7865    5.1652 C   0  0  0  0  0  0
   29.2764    6.4874    4.1217 C   0  0  0  0  0  0
   28.8340    5.5914    3.1395 C   0  0  0  0  0  0
   30.6408    7.1847    4.0004 C   0  0  2  0  0  0
   31.8409    6.2778    3.6288 C   0  0  0  0  0  0
   31.0080    7.8500    5.1849 O   0  0  0  0  0  0
   32.9313    7.0282    2.9951 N   0  0  1  0  0  0
   33.7220    6.2500    2.0362 C   0  0  0  0  0  0
   32.8853    5.8461    0.8022 C   0  0  0  0  0  0
   33.6920    5.5319   -0.3345 O   0  0  0  0  0  0
   33.0656    5.0812   -1.4855 C   0  0  0  0  0  0
   31.6758    4.9298   -1.6151 C   0  0  0  0  0  0
   31.1269    4.3968   -2.7749 C   0  0  0  0  0  0
   31.9519    4.0160   -3.8366 C   0  0  0  0  0  0
   33.3325    4.2149   -3.7336 C   0  0  0  0  0  0
   33.8820    4.7417   -2.5646 C   0  0  0  0  0  0
   31.3577    3.3666   -5.0477 C   0  0  0  0  0  0
   30.1835    2.7526   -5.0042 N   0  0  0  0  0  0
   29.9959    2.2733   -6.2095 C   0  0  0  0  0  0
   31.0020    2.5425   -7.0791 O   0  0  0  0  0  0
   31.8769    3.2584   -6.3330 C   0  0  0  0  0  0
   28.8257    1.4328   -6.6728 C   0  0  0  0  0  0
   28.2535    1.8866   -8.0242 C   0  0  0  0  0  0
   27.1924    4.3761    2.4482 H   0  0  0  0  0  0
   25.7392    5.0013    4.3838 H   0  0  0  0  0  0
   28.6385    7.4915    5.9430 H   0  0  0  0  0  0
   29.4600    5.3375    2.2968 H   0  0  0  0  0  0
   30.4912    7.9253    3.2138 H   0  0  0  0  0  0
   31.5083    5.4565    2.9995 H   0  0  0  0  0  0
   32.2423    5.8327    4.5362 H   0  0  0  0  0  0
   31.7485    8.4468    4.9789 H   0  0  0  0  0  0
   32.5961    7.8601    2.5219 H   0  0  0  0  0  0
   34.1691    5.3804    2.5192 H   0  0  0  0  0  0
   34.5490    6.8797    1.7054 H   0  0  0  0  0  0
   32.2078    6.6496    0.5338 H   0  0  0  0  0  0
   32.2594    4.9982    1.0637 H   0  0  0  0  0  0
   31.0002    5.1861   -0.8144 H   0  0  0  0  0  0
   30.0562    4.2610   -2.8328 H   0  0  0  0  0  0
   33.9899    3.9356   -4.5444 H   0  0  0  0  0  0
   34.9533    4.8659   -2.4859 H   0  0  0  0  0  0
   32.7817    3.5972   -6.8160 H   0  0  0  0  0  0
   28.0287    1.4490   -5.9269 H   0  0  0  0  0  0
   29.1400    0.3927   -6.7430 H   0  0  0  0  0  0
   27.4238    1.2495   -8.3319 H   0  0  0  0  0  0
   29.0062    1.8503   -8.8145 H   0  0  0  0  0  0
   27.8851    2.9117   -7.9752 H   0  0  0  0  0  0
  1  2  2  0  0  0
  1  6  1  0  0  0
  1 27  1  0  0  0
  2  3  1  0  0  0
  2 28  1  0  0  0
  3  4  2  0  0  0
  4  5  1  0  0  0
  4 29  1  0  0  0
  5  7  1  0  0  0
  5  6  2  0  0  0
  6 30  1  0  0  0
  7  8  1  0  0  0
  7  9  1  0  0  0
  7 31  1  0  0  0
  8 10  1  0  0  0
  8 32  1  0  0  0
  8 33  1  0  0  0
  9 34  1  0  0  0
 10 11  1  0  0  0
 10 35  1  0  0  0
 11 12  1  0  0  0
 11 36  1  0  0  0
 11 37  1  0  0  0
 12 13  1  0  0  0
 12 38  1  0  0  0
 12 39  1  0  0  0
 13 14  1  0  0  0
 14 15  2  0  0  0
 14 19  1  0  0  0
 15 16  1  0  0  0
 15 40  1  0  0  0
 16 17  2  0  0  0
 16 41  1  0  0  0
 17 18  1  0  0  0
 17 20  1  0  0  0
 18 19  2  0  0  0
 18 42  1  0  0  0
 19 43  1  0  0  0
 20 21  1  0  0  0
 20 24  2  0  0  0
 21 22  2  0  0  0
 22 23  1  0  0  0
 22 25  1  0  0  0
 23 24  1  0  0  0
 24 44  1  0  0  0
 25 26  1  0  0  0
 25 45  1  0  0  0
 25 46  1  0  0  0
 26 47  1  0  0  0
 26 48  1  0  0  0
 26 49  1  0  0  0
M  END
> <s_m_entry_id>
3103

> <s_m_entry_name>
dock_pv.195

> <s_m_Source_Path>
/home/csk/Desktop/cluster/DUD-E-result/adrb1

> <s_m_Source_File>
dock_pv.maegz

> <i_m_Source_File_Index>
195

> <chembl_id>
CHEMBL400049

> <chembl_pref_name>
None

> <i_lp_mmshare_version>
53161

> <i_f3d_flags>
0

> <r_lp_tautomer_probability>
1

> <s_lp_Force_Field>
OPLS_2005

> <r_lp_Energy>
22.198468

> <b_lp_Chiralities_Consistent>
1

> <s_lp_Variant>
CHEMBL213_lig1320-1

> <s_i_glide_gridfile>
glide-grid_2vt4

> <i_i_glide_lignum>
1572

> <i_i_glide_rotatable_bonds>
10

> <r_i_docking_score>
-7.56575273883338

> <r_i_glide_ligand_efficiency>
-0.29099048995513

> <r_i_glide_ligand_efficiency_sa>
-0.862058181499784

> <r_i_glide_ligand_efficiency_ln>
-1.77679220545544

> <r_i_glide_gscore>
-7.56575273883338

> <r_i_glide_lipo>
-3.2020220884348

> <r_i_glide_hbond>
-0.51030747710784

> <r_i_glide_metal>
0

> <r_i_glide_rewards>
-1.64054806008804

> <r_i_glide_evdw>
-38.1718139648438

> <r_i_glide_ecoul>
-9.16353321075439

> <r_i_glide_erotb>
1.07024556665265

> <r_i_glide_esite>
0

> <r_i_glide_emodel>
-62.1917822877426

> <r_i_glide_energy>
-47.3353471755981

> <r_i_glide_einternal>
11.847806930542

> <i_i_glide_confnum>
28

> <i_i_glide_posenum>
395

> <r_i_glide_eff_state_penalty>
0

> <s_user_duplicate_titles>
CHEMBL213_lig1320,417446

> <s_m_subgroup_title>
dock_pv

> <s_m_subgroupid>
dock_pv

> <b_m_subgroup_collapsed>
1

$$$$
CHEMBL213_lig598
                    3D
 Schrodinger Suite 2021-1.
 76 79  0  0  1  0            999 V2000
   34.3126    3.0568   -7.0983 C   0  0  0  0  0  0
   35.0413    3.9748   -6.4061 N   0  0  0  0  0  0
   30.7427    2.6392   -6.5329 C   0  0  0  0  0  0
   33.0232    3.3895   -7.2818 N   0  0  0  0  0  0
   29.7008    1.7032   -6.5475 C   0  0  0  0  0  0
   31.9096    2.4706   -7.5080 C   0  0  0  0  0  0
   36.4918    3.7809   -6.1907 C   0  0  0  0  0  0
   34.4211    4.9538   -5.4838 C   0  0  0  0  0  0
   34.7959    2.0483   -7.6156 O   0  0  0  0  0  0
   30.6753    3.7120   -5.6266 C   0  0  0  0  0  0
   36.2799    3.7800   -2.3563 N   0  0  0  0  0  0
   36.7128    3.2970   -4.7322 C   0  0  0  0  0  0
   34.5890    4.4501   -4.0381 C   0  0  0  0  0  0
   28.6088    1.8503   -5.6930 C   0  0  0  0  0  0
   36.0922    4.2794   -3.7183 C   0  0  0  0  0  0
   28.7028    5.8492    2.7848 O   0  0  0  0  0  0
   36.0043    4.5699   -1.2228 C   0  0  0  0  0  0
   29.5877    3.8540   -4.7703 C   0  0  0  0  0  0
   27.4629    5.2748    2.5585 C   0  0  0  0  0  0
   30.3873    7.1471    3.9715 C   0  0  1  0  0  0
   29.7439    0.6505   -7.3944 F   0  0  0  0  0  0
   25.0337    4.0338    1.9085 C   0  0  0  0  0  0
   29.0656    6.3399    4.0734 C   0  0  0  0  0  0
   28.5480    2.9310   -4.8150 C   0  0  0  0  0  0
   32.7861    7.0460    3.1850 N   0  0  2  0  0  0
   29.5387    4.8945   -3.9082 F   0  0  0  0  0  0
   35.4496    6.0155    1.1208 C   0  0  0  0  0  0
   36.0882    3.9509    0.0228 C   0  0  0  0  0  0
   35.6777    5.9313   -1.2852 C   0  0  0  0  0  0
   27.1862    4.8890    1.2434 C   0  0  0  0  0  0
   26.4959    5.0500    3.5490 C   0  0  0  0  0  0
   25.2852    4.4355    3.2195 C   0  0  0  0  0  0
   25.9868    4.2539    0.9166 C   0  0  0  0  0  0
   35.8027    4.6638    1.1845 C   0  0  0  0  0  0
   35.4102    6.6494   -0.1222 C   0  0  0  0  0  0
   30.5678    7.8505    5.1850 O   0  0  0  0  0  0
   23.8317    3.4564    1.5870 O   0  0  0  0  0  0
   31.6554    6.2936    3.7358 C   0  0  0  0  0  0
   34.0100    6.2487    3.2749 C   0  0  0  0  0  0
   35.1638    6.8035    2.4024 C   0  0  0  0  0  0
   32.7800    4.3624   -7.1790 H   0  0  0  0  0  0
   31.5334    2.6389   -8.5161 H   0  0  0  0  0  0
   32.2461    1.4305   -7.4853 H   0  0  0  0  0  0
   36.9578    4.7589   -6.3258 H   0  0  0  0  0  0
   36.9529    3.1471   -6.9492 H   0  0  0  0  0  0
   35.0078    5.8500   -5.5984 H   0  0  0  0  0  0
   33.4249    5.2929   -5.7600 H   0  0  0  0  0  0
   31.4507    4.4582   -5.5748 H   0  0  0  0  0  0
   37.0448    3.1255   -2.2274 H   0  0  0  0  0  0
   37.7856    3.2155   -4.5522 H   0  0  0  0  0  0
   36.3052    2.2918   -4.6063 H   0  0  0  0  0  0
   34.0429    3.5153   -3.8932 H   0  0  0  0  0  0
   34.1249    5.1686   -3.3651 H   0  0  0  0  0  0
   27.8091    1.1263   -5.7043 H   0  0  0  0  0  0
   36.6102    5.2370   -3.8023 H   0  0  0  0  0  0
   30.2714    7.8665    3.1641 H   0  0  0  0  0  0
   28.2760    6.9993    4.4389 H   0  0  0  0  0  0
   29.1531    5.5171    4.7822 H   0  0  0  0  0  0
   27.7018    3.0463   -4.1517 H   0  0  0  0  0  0
   32.8968    7.9388    3.6536 H   0  0  0  0  0  0
   36.3494    2.9043    0.0934 H   0  0  0  0  0  0
   35.6392    6.4502   -2.2293 H   0  0  0  0  0  0
   27.9215    5.0652    0.4710 H   0  0  0  0  0  0
   26.6711    5.3403    4.5731 H   0  0  0  0  0  0
   24.5393    4.2715    3.9828 H   0  0  0  0  0  0
   25.7966    3.9581   -0.1059 H   0  0  0  0  0  0
   35.8371    4.1526    2.1337 H   0  0  0  0  0  0
   35.1550    7.6955   -0.1941 H   0  0  0  0  0  0
   31.3019    8.4678    5.0700 H   0  0  0  0  0  0
   23.6948    3.3739    0.6371 H   0  0  0  0  0  0
   31.9480    5.8500    4.6872 H   0  0  0  0  0  0
   31.4217    5.4813    3.0447 H   0  0  0  0  0  0
   34.3290    6.2074    4.3177 H   0  0  0  0  0  0
   33.8060    5.2161    2.9862 H   0  0  0  0  0  0
   35.0069    7.8591    2.1796 H   0  0  0  0  0  0
   36.0851    6.7761    2.9859 H   0  0  0  0  0  0
  1  2  1  0  0  0
  1  4  1  0  0  0
  1  9  2  0  0  0
  2  7  1  0  0  0
  2  8  1  0  0  0
  3  6  1  0  0  0
  3  5  1  0  0  0
  3 10  2  0  0  0
  4  6  1  0  0  0
  4 41  1  0  0  0
  5 14  2  0  0  0
  5 21  1  0  0  0
  6 42  1  0  0  0
  6 43  1  0  0  0
  7 12  1  0  0  0
  7 44  1  0  0  0
  7 45  1  0  0  0
  8 13  1  0  0  0
  8 46  1  0  0  0
  8 47  1  0  0  0
 10 18  1  0  0  0
 10 48  1  0  0  0
 11 15  1  0  0  0
 11 17  1  0  0  0
 11 49  1  0  0  0
 12 15  1  0  0  0
 12 50  1  0  0  0
 12 51  1  0  0  0
 13 15  1  0  0  0
 13 52  1  0  0  0
 13 53  1  0  0  0
 14 24  1  0  0  0
 14 54  1  0  0  0
 15 55  1  0  0  0
 16 23  1  0  0  0
 16 19  1  0  0  0
 17 28  2  0  0  0
 17 29  1  0  0  0
 18 24  2  0  0  0
 18 26  1  0  0  0
 19 30  2  0  0  0
 19 31  1  0  0  0
 20 38  1  0  0  0
 20 23  1  0  0  0
 20 36  1  0  0  0
 20 56  1  0  0  0
 22 32  1  0  0  0
 22 37  1  0  0  0
 22 33  2  0  0  0
 23 57  1  0  0  0
 23 58  1  0  0  0
 24 59  1  0  0  0
 25 39  1  0  0  0
 25 38  1  0  0  0
 25 60  1  0  0  0
 27 35  1  0  0  0
 27 40  1  0  0  0
 27 34  2  0  0  0
 28 34  1  0  0  0
 28 61  1  0  0  0
 29 35  2  0  0  0
 29 62  1  0  0  0
 30 33  1  0  0  0
 30 63  1  0  0  0
 31 32  2  0  0  0
 31 64  1  0  0  0
 32 65  1  0  0  0
 33 66  1  0  0  0
 34 67  1  0  0  0
 35 68  1  0  0  0
 36 69  1  0  0  0
 37 70  1  0  0  0
 38 71  1  0  0  0
 38 72  1  0  0  0
 39 40  1  0  0  0
 39 73  1  0  0  0
 39 74  1  0  0  0
 40 75  1  0  0  0
 40 76  1  0  0  0
M  END
> <s_m_entry_id>
3104

> <s_m_entry_name>
dock_pv.196

> <s_m_Source_Path>
/home/csk/Desktop/cluster/DUD-E-result/adrb1

> <s_m_Source_File>
dock_pv.maegz

> <i_m_Source_File_Index>
196

> <chembl_id>
CHEMBL107382

> <chembl_pref_name>
None

> <i_lp_mmshare_version>
53161

> <i_f3d_flags>
0

> <r_lp_tautomer_probability>
1

> <s_lp_Force_Field>
OPLS_2005

> <r_lp_Energy>
55.204786

> <b_lp_Chiralities_Consistent>
1

> <s_lp_Variant>
CHEMBL213_lig598-1

> <s_i_glide_gridfile>
glide-grid_2vt4

> <i_i_glide_lignum>
698

> <i_i_glide_rotatable_bonds>
16

> <r_i_docking_score>
-7.56276545268816

> <r_i_glide_ligand_efficiency>
-0.189069136317204

> <r_i_glide_ligand_efficiency_sa>
-0.646607349927627

> <r_i_glide_ligand_efficiency_ln>
-1.6129153088064

> <r_i_glide_gscore>
-7.56276545268816

> <r_i_glide_lipo>
-3.33970958838859

> <r_i_glide_hbond>
-0.514518191835069

> <r_i_glide_metal>
0

> <r_i_glide_rewards>
-0.162266332339798

> <r_i_glide_evdw>
-54.167163848877

> <r_i_glide_ecoul>
-10.4284791946411

> <r_i_glide_erotb>
0.803503953708879

> <r_i_glide_esite>
-0.0771452221935618

> <r_i_glide_emodel>
-84.503804284214

> <r_i_glide_energy>
-64.5956430435181

> <r_i_glide_einternal>
18.8643321990967

> <i_i_glide_confnum>
4

> <i_i_glide_posenum>
216

> <r_i_glide_eff_state_penalty>
0

> <s_user_duplicate_titles>
CHEMBL213_lig598,173861

> <s_m_subgroup_title>
dock_pv

> <s_m_subgroupid>
dock_pv

> <b_m_subgroup_collapsed>
1

$$$$
CHEMBL213_lig1439
                    3D
 Schrodinger Suite 2021-1.
 57 60  0  0  1  0            999 V2000
   31.8573    5.0592   -2.3423 C   0  0  0  0  0  0
   33.1027    5.2639   -2.9272 C   0  0  0  0  0  0
   33.3480    4.8382   -4.2294 C   0  0  0  0  0  0
   30.8182    4.4307   -3.0413 C   0  0  0  0  0  0
   31.0539    4.0122   -4.3692 C   0  0  0  0  0  0
   32.3288    4.2013   -4.9533 C   0  0  0  0  0  0
   32.5915    3.6476   -6.2287 N   0  0  0  0  0  0
   31.7681    2.8608   -6.9555 C   0  0  0  0  0  0
   30.4240    2.7758   -6.4142 C   0  0  0  0  0  0
   30.0698    3.2847   -5.2128 C   0  0  0  0  0  0
   32.1550    2.2532   -7.9472 O   0  0  0  0  0  0
   34.6053    5.0498   -4.7450 O   0  0  0  0  0  0
   29.5178    4.1263   -2.2834 C   0  0  2  0  0  0
   28.6349    5.3670   -1.9967 C   0  0  0  0  0  0
   27.2834    5.0873   -1.4783 N   0  0  2  0  0  0
   27.1611    4.5656   -0.1130 C   0  0  0  0  0  0
   27.8122    5.4497    0.9394 C   0  0  0  0  0  0
   25.7307    4.3584    0.3855 C   0  0  0  0  0  0
   25.8083    4.6137    1.8902 C   0  0  0  0  0  0
   27.0191    5.2254    2.2067 C   0  0  0  0  0  0
   27.2766    5.6876    3.5023 C   0  0  0  0  0  0
   26.2539    5.6277    4.4698 C   0  0  0  0  0  0
   25.0080    5.0498    4.1436 C   0  0  0  0  0  0
   24.8089    4.4801    2.8634 C   0  0  0  0  0  0
   26.4682    6.2326    5.8618 C   0  0  0  0  0  0
   29.8081    3.4501   -1.0800 O   0  0  0  0  0  0
   28.6502    6.2578    3.8505 C   0  0  0  0  0  0
   23.8688    5.0477    5.1864 C   0  0  0  0  0  0
   23.4881    3.8124    2.4804 C   0  0  0  0  0  0
   31.7120    5.3450   -1.3107 H   0  0  0  0  0  0
   33.8938    5.7321   -2.3576 H   0  0  0  0  0  0
   33.5236    3.6964   -6.6061 H   0  0  0  0  0  0
   29.6863    2.2710   -7.0201 H   0  0  0  0  0  0
   29.0372    3.1822   -4.9136 H   0  0  0  0  0  0
   34.6487    5.3371   -5.6619 H   0  0  0  0  0  0
   28.9149    3.4501   -2.8755 H   0  0  0  0  0  0
   29.1498    6.0837   -1.3568 H   0  0  0  0  0  0
   28.4871    5.8852   -2.9448 H   0  0  0  0  0  0
   26.6519    4.6437   -2.1407 H   0  0  0  0  0  0
   27.6160    3.5825   -0.0184 H   0  0  0  0  0  0
   28.8880    5.2890    1.0066 H   0  0  0  0  0  0
   27.6357    6.4882    0.6639 H   0  0  0  0  0  0
   25.0740    5.1173   -0.0403 H   0  0  0  0  0  0
   25.3351    3.3825    0.1021 H   0  0  0  0  0  0
   27.3024    6.9300    5.9134 H   0  0  0  0  0  0
   25.5980    6.8155    6.1641 H   0  0  0  0  0  0
   26.6180    5.4491    6.6037 H   0  0  0  0  0  0
   29.2313    2.6760   -1.0708 H   0  0  0  0  0  0
   28.6077    7.3358    4.0010 H   0  0  0  0  0  0
   29.0148    5.8080    4.7735 H   0  0  0  0  0  0
   29.4031    6.0394    3.0941 H   0  0  0  0  0  0
   24.2085    4.9041    6.2096 H   0  0  0  0  0  0
   23.3316    5.9920    5.1853 H   0  0  0  0  0  0
   23.1480    4.2499    5.0330 H   0  0  0  0  0  0
   22.6237    4.2986    2.9275 H   0  0  0  0  0  0
   23.3128    3.8477    1.4051 H   0  0  0  0  0  0
   23.4897    2.7660    2.7844 H   0  0  0  0  0  0
  1  4  1  0  0  0
  1  2  2  0  0  0
  1 30  1  0  0  0
  2  3  1  0  0  0
  2 31  1  0  0  0
  3 12  1  0  0  0
  3  6  2  0  0  0
  4  5  2  0  0  0
  4 13  1  0  0  0
  5 10  1  0  0  0
  5  6  1  0  0  0
  6  7  1  0  0  0
  7  8  1  0  0  0
  7 32  1  0  0  0
  8  9  1  0  0  0
  8 11  2  0  0  0
  9 10  2  0  0  0
  9 33  1  0  0  0
 10 34  1  0  0  0
 12 35  1  0  0  0
 13 26  1  0  0  0
 13 14  1  0  0  0
 13 36  1  0  0  0
 14 15  1  0  0  0
 14 37  1  0  0  0
 14 38  1  0  0  0
 15 16  1  0  0  0
 15 39  1  0  0  0
 16 17  1  0  0  0
 16 18  1  0  0  0
 16 40  1  0  0  0
 17 20  1  0  0  0
 17 41  1  0  0  0
 17 42  1  0  0  0
 18 19  1  0  0  0
 18 43  1  0  0  0
 18 44  1  0  0  0
 19 20  2  0  0  0
 19 24  1  0  0  0
 20 21  1  0  0  0
 21 22  2  0  0  0
 21 27  1  0  0  0
 22 23  1  0  0  0
 22 25  1  0  0  0
 23 24  2  0  0  0
 23 28  1  0  0  0
 24 29  1  0  0  0
 25 45  1  0  0  0
 25 46  1  0  0  0
 25 47  1  0  0  0
 26 48  1  0  0  0
 27 49  1  0  0  0
 27 50  1  0  0  0
 27 51  1  0  0  0
 28 52  1  0  0  0
 28 53  1  0  0  0
 28 54  1  0  0  0
 29 55  1  0  0  0
 29 56  1  0  0  0
 29 57  1  0  0  0
M  END
> <s_m_entry_id>
3105

> <s_m_entry_name>
dock_pv.197

> <s_m_Source_Path>
/home/csk/Desktop/cluster/DUD-E-result/adrb1

> <s_m_Source_File>
dock_pv.maegz

> <i_m_Source_File_Index>
197

> <chembl_id>
CHEMBL2088200

> <chembl_pref_name>
None

> <i_lp_mmshare_version>
53161

> <i_f3d_flags>
0

> <r_lp_tautomer_probability>
1

> <s_lp_Force_Field>
OPLS_2005

> <r_lp_Energy>
43.321673

> <b_lp_Chiralities_Consistent>
1

> <s_lp_Variant>
CHEMBL213_lig1439-1

> <s_i_glide_gridfile>
glide-grid_2vt4

> <i_i_glide_lignum>
1773

> <i_i_glide_rotatable_bonds>
6

> <r_i_docking_score>
-7.5571350356993

> <r_i_glide_ligand_efficiency>
-0.260590863299976

> <r_i_glide_ligand_efficiency_sa>
-0.800617693037877

> <r_i_glide_ligand_efficiency_ln>
-1.73039229076513

> <r_i_glide_gscore>
-7.5571350356993

> <r_i_glide_lipo>
-3.16372883593173

> <r_i_glide_hbond>
-0.352024434660778

> <r_i_glide_metal>
0

> <r_i_glide_rewards>
-1.49371732648961

> <r_i_glide_evdw>
-37.367488861084

> <r_i_glide_ecoul>
-7.90852737426758

> <r_i_glide_erotb>
0.50698911057716

> <r_i_glide_esite>
0

> <r_i_glide_emodel>
-58.204633483194

> <r_i_glide_energy>
-45.2760162353516

> <r_i_glide_einternal>
7.34252262115479

> <i_i_glide_confnum>
51

> <i_i_glide_posenum>
373

> <r_i_glide_eff_state_penalty>
0

> <s_user_duplicate_titles>
CHEMBL213_lig1439

> <s_m_subgroup_title>
dock_pv

> <s_m_subgroupid>
dock_pv

> <b_m_subgroup_collapsed>
1

$$$$
CHEMBL213_lig734
                    3D
 Schrodinger Suite 2021-1.
 50 52  0  0  1  0            999 V2000
   29.5417    1.7135   -6.6847 C   0  0  0  0  0  0
   29.3685    1.0083   -5.4968 C   0  0  0  0  0  0
   30.2082    1.2665   -4.4152 C   0  0  0  0  0  0
   31.1878    2.2506   -4.4996 C   0  0  0  0  0  0
   31.3835    2.9513   -5.6936 C   0  0  0  0  0  0
   30.5679    2.6504   -6.7922 C   0  0  0  0  0  0
   32.4524    4.0437   -5.7672 C   0  0  2  0  0  0
   31.9619    5.3907   -5.1683 C   0  0  0  0  0  0
   32.9646    4.2562   -7.0728 O   0  0  0  0  0  0
   28.4734    1.4502   -8.0105 Cl  0  0  0  0  0  0
   32.2076    5.4499   -3.7250 N   0  0  1  0  0  0
   31.0155    5.3066   -2.9010 C   0  0  0  0  0  0
   31.4667    5.0703   -1.4445 C   0  0  0  0  0  0
   30.3764    5.0488   -0.3709 C   0  0  0  0  0  0
   29.0149    5.0267   -0.6819 C   0  0  0  0  0  0
   28.0699    5.0501    0.3396 C   0  0  0  0  0  0
   28.4589    5.0912    1.6906 C   0  0  0  0  0  0
   29.8263    5.0500    1.9881 C   0  0  0  0  0  0
   30.7710    5.0500    0.9688 C   0  0  0  0  0  0
   27.4343    5.2560    2.7631 C   0  0  0  0  0  0
   26.1884    4.6500    2.5961 C   0  0  0  0  0  0
   25.1792    4.8041    3.5305 C   0  0  0  0  0  0
   25.3620    5.6296    4.6428 C   0  0  0  0  0  0
   26.6072    6.2358    4.8408 C   0  0  0  0  0  0
   27.6390    6.0385    3.9192 C   0  0  0  0  0  0
   24.2079    5.8267    5.5851 C   0  0  0  0  0  0
   23.2552    5.0500    5.5854 O   0  0  0  0  0  0
   24.2381    6.9593    6.3361 O   0  0  0  0  0  0
   28.8221    6.6532    4.1510 F   0  0  0  0  0  0
   28.5828    0.2718   -5.4085 H   0  0  0  0  0  0
   30.1013    0.7202   -3.4933 H   0  0  0  0  0  0
   31.8072    2.4533   -3.6379 H   0  0  0  0  0  0
   30.7224    3.1521   -7.7306 H   0  0  0  0  0  0
   33.3302    3.6900   -5.2221 H   0  0  0  0  0  0
   30.9172    5.5816   -5.4235 H   0  0  0  0  0  0
   32.5161    6.2181   -5.6150 H   0  0  0  0  0  0
   33.5983    4.9798   -7.0430 H   0  0  0  0  0  0
   32.9036    4.7682   -3.4520 H   0  0  0  0  0  0
   30.3841    4.4808   -3.2309 H   0  0  0  0  0  0
   30.3990    6.2047   -2.9669 H   0  0  0  0  0  0
   32.1820    5.8483   -1.1654 H   0  0  0  0  0  0
   32.0181    4.1329   -1.3960 H   0  0  0  0  0  0
   28.6709    5.0105   -1.7055 H   0  0  0  0  0  0
   27.0268    5.0865    0.0608 H   0  0  0  0  0  0
   30.1721    5.0510    3.0111 H   0  0  0  0  0  0
   31.8205    5.0539    1.2260 H   0  0  0  0  0  0
   25.9902    4.0257    1.7363 H   0  0  0  0  0  0
   24.2348    4.3072    3.3506 H   0  0  0  0  0  0
   26.7842    6.8711    5.6989 H   0  0  0  0  0  0
   23.4019    7.0502    6.8044 H   0  0  0  0  0  0
  1 10  1  0  0  0
  1  6  1  0  0  0
  1  2  2  0  0  0
  2  3  1  0  0  0
  2 30  1  0  0  0
  3  4  2  0  0  0
  3 31  1  0  0  0
  4  5  1  0  0  0
  4 32  1  0  0  0
  5  7  1  0  0  0
  5  6  2  0  0  0
  6 33  1  0  0  0
  7  8  1  0  0  0
  7  9  1  0  0  0
  7 34  1  0  0  0
  8 11  1  0  0  0
  8 35  1  0  0  0
  8 36  1  0  0  0
  9 37  1  0  0  0
 11 12  1  0  0  0
 11 38  1  0  0  0
 12 13  1  0  0  0
 12 39  1  0  0  0
 12 40  1  0  0  0
 13 14  1  0  0  0
 13 41  1  0  0  0
 13 42  1  0  0  0
 14 15  2  0  0  0
 14 19  1  0  0  0
 15 16  1  0  0  0
 15 43  1  0  0  0
 16 17  2  0  0  0
 16 44  1  0  0  0
 17 18  1  0  0  0
 17 20  1  0  0  0
 18 19  2  0  0  0
 18 45  1  0  0  0
 19 46  1  0  0  0
 20 21  2  0  0  0
 20 25  1  0  0  0
 21 22  1  0  0  0
 21 47  1  0  0  0
 22 23  2  0  0  0
 22 48  1  0  0  0
 23 24  1  0  0  0
 23 26  1  0  0  0
 24 25  2  0  0  0
 24 49  1  0  0  0
 25 29  1  0  0  0
 26 27  2  0  0  0
 26 28  1  0  0  0
 28 50  1  0  0  0
M  END
> <s_m_entry_id>
3106

> <s_m_entry_name>
dock_pv.198

> <s_m_Source_Path>
/home/csk/Desktop/cluster/DUD-E-result/adrb1

> <s_m_Source_File>
dock_pv.maegz

> <i_m_Source_File_Index>
198

> <chembl_id>
CHEMBL408145

> <chembl_pref_name>
None

> <i_lp_mmshare_version>
53161

> <i_f3d_flags>
0

> <r_lp_tautomer_probability>
1

> <s_lp_Force_Field>
OPLS_2005

> <r_lp_Energy>
29.405816

> <b_lp_Chiralities_Consistent>
1

> <s_lp_Variant>
CHEMBL213_lig734-1

> <s_i_glide_gridfile>
glide-grid_2vt4

> <i_i_glide_lignum>
840

> <i_i_glide_rotatable_bonds>
10

> <r_i_docking_score>
-7.55626529015681

> <r_i_glide_ligand_efficiency>
-0.260560872074373

> <r_i_glide_ligand_efficiency_sa>
-0.800525550490937

> <r_i_glide_ligand_efficiency_ln>
-1.73019314109074

> <r_i_glide_gscore>
-7.55626529015681

> <r_i_glide_lipo>
-3.40054216114283

> <r_i_glide_hbond>
-0.0612374833435671

> <r_i_glide_metal>
0

> <r_i_glide_rewards>
-2.06972338094833

> <r_i_glide_evdw>
-35.244945526123

> <r_i_glide_ecoul>
-7.12608242034912

> <r_i_glide_erotb>
0.806397374636441

> <r_i_glide_esite>
0

> <r_i_glide_emodel>
-57.0608553979372

> <r_i_glide_energy>
-42.3710279464722

> <r_i_glide_einternal>
12.6975679397583

> <i_i_glide_confnum>
27

> <i_i_glide_posenum>
342

> <r_i_glide_eff_state_penalty>
0

> <s_user_duplicate_titles>
CHEMBL213_lig734,439400

> <s_m_subgroup_title>
dock_pv

> <s_m_subgroupid>
dock_pv

> <b_m_subgroup_collapsed>
1

$$$$
CHEMBL213_lig377
                    3D
 Schrodinger Suite 2021-1.
 64 67  0  0  1  0            999 V2000
   32.1397    4.5117   -3.5103 N   0  0  0  0  0  0
   31.2320    5.4685   -3.8260 C   0  0  0  0  0  0
   31.5299    3.2183   -3.2299 C   0  0  0  0  0  0
   30.1180    3.3719   -3.7734 C   0  0  1  0  0  0
   29.8624    4.8466   -3.8503 C   0  0  0  0  0  0
   24.8246    3.8502    2.5630 C   0  0  0  0  0  0
   25.6006    3.8651    1.4048 C   0  0  0  0  0  0
   26.6507    4.7080    1.2398 N   0  0  0  0  0  0
   26.9335    5.5789    2.2431 C   0  0  0  0  0  0
   26.2017    5.6559    3.4366 C   0  0  0  0  0  0
   25.1363    4.7509    3.5850 C   0  0  0  0  0  0
   26.5229    6.7296    4.4954 C   0  0  2  0  0  0
   27.9121    6.5654    5.1615 C   0  0  0  0  0  0
   25.5709    6.8102    5.5458 O   0  0  0  0  0  0
   29.0081    7.1882    4.4117 N   0  0  1  0  0  0
   30.2774    6.7216    4.9450 C   0  0  0  0  0  0
   31.5449    7.1963    4.2061 C   0  0  0  0  0  0
   31.9599    6.4177    2.9536 C   0  0  0  0  0  0
   30.9908    5.8501    2.1342 C   0  0  0  0  0  0
   31.3085    5.4498    0.8529 C   0  0  0  0  0  0
   32.6274    5.4782    0.4172 C   0  0  0  0  0  0
   33.6494    5.8500    1.3012 C   0  0  0  0  0  0
   33.3052    6.3472    2.5643 C   0  0  0  0  0  0
   32.7816    5.1412   -0.9275 N   0  0  0  0  0  0
   33.8237    5.2476   -1.7691 C   0  0  0  0  0  0
   34.9317    5.6750   -1.4551 O   0  0  0  0  0  0
   33.5689    4.8035   -3.2321 C   0  0  0  0  0  0
   31.4080    6.6500   -4.0150 O   0  0  0  0  0  0
   29.8900    2.6490   -5.0928 C   0  0  0  0  0  0
   28.8188    1.7664   -5.2185 C   0  0  0  0  0  0
   28.6086    1.1100   -6.4175 C   0  0  0  0  0  0
   29.4343    1.3720   -7.4976 C   0  0  0  0  0  0
   30.5062    2.2499   -7.3942 C   0  0  0  0  0  0
   30.7369    2.8891   -6.1830 C   0  0  0  0  0  0
   31.4931    3.0985   -2.1463 H   0  0  0  0  0  0
   32.0598    2.3488   -3.6219 H   0  0  0  0  0  0
   29.4080    3.0500   -3.0307 H   0  0  0  0  0  0
   29.3182    5.1517   -4.7456 H   0  0  0  0  0  0
   29.3164    5.2178   -2.9812 H   0  0  0  0  0  0
   23.9942    3.1664    2.6612 H   0  0  0  0  0  0
   25.3864    3.1952    0.5840 H   0  0  0  0  0  0
   27.7503    6.2502    2.0426 H   0  0  0  0  0  0
   24.5256    4.7623    4.4756 H   0  0  0  0  0  0
   26.4532    7.7028    4.0078 H   0  0  0  0  0  0
   28.0870    5.5014    5.3358 H   0  0  0  0  0  0
   27.9128    7.0498    6.1399 H   0  0  0  0  0  0
   25.8736    7.4795    6.1744 H   0  0  0  0  0  0
   28.9524    6.9698    3.4288 H   0  0  0  0  0  0
   30.2080    5.6575    4.7849 H   0  0  0  0  0  0
   30.3704    6.9103    6.0154 H   0  0  0  0  0  0
   32.3760    7.1573    4.9113 H   0  0  0  0  0  0
   31.4106    8.2451    3.9372 H   0  0  0  0  0  0
   29.9560    5.8237    2.4234 H   0  0  0  0  0  0
   30.5119    5.1207    0.2002 H   0  0  0  0  0  0
   34.6839    5.8545    0.9943 H   0  0  0  0  0  0
   34.0775    6.7491    3.2028 H   0  0  0  0  0  0
   31.9352    4.8168   -1.3673 H   0  0  0  0  0  0
   34.1739    3.9199   -3.4356 H   0  0  0  0  0  0
   33.9202    5.5865   -3.9051 H   0  0  0  0  0  0
   28.1269    1.5897   -4.4150 H   0  0  0  0  0  0
   27.8081    0.4008   -6.5163 H   0  0  0  0  0  0
   29.2244    0.8658   -8.4150 H   0  0  0  0  0  0
   31.1465    2.4380   -8.2437 H   0  0  0  0  0  0
   31.5645    3.5786   -6.0999 H   0  0  0  0  0  0
  1 27  1  0  0  0
  1  3  1  0  0  0
  1  2  1  0  0  0
  2  5  1  0  0  0
  2 28  2  0  0  0
  3  4  1  0  0  0
  3 35  1  0  0  0
  3 36  1  0  0  0
  4  5  1  0  0  0
  4 29  1  0  0  0
  4 37  1  0  0  0
  5 38  1  0  0  0
  5 39  1  0  0  0
  6 11  1  0  0  0
  6  7  2  0  0  0
  6 40  1  0  0  0
  7  8  1  0  0  0
  7 41  1  0  0  0
  8  9  2  0  0  0
  9 10  1  0  0  0
  9 42  1  0  0  0
 10 11  2  0  0  0
 10 12  1  0  0  0
 11 43  1  0  0  0
 12 13  1  0  0  0
 12 14  1  0  0  0
 12 44  1  0  0  0
 13 15  1  0  0  0
 13 45  1  0  0  0
 13 46  1  0  0  0
 14 47  1  0  0  0
 15 16  1  0  0  0
 15 48  1  0  0  0
 16 17  1  0  0  0
 16 49  1  0  0  0
 16 50  1  0  0  0
 17 18  1  0  0  0
 17 51  1  0  0  0
 17 52  1  0  0  0
 18 19  2  0  0  0
 18 23  1  0  0  0
 19 20  1  0  0  0
 19 53  1  0  0  0
 20 21  2  0  0  0
 20 54  1  0  0  0
 21 22  1  0  0  0
 21 24  1  0  0  0
 22 23  2  0  0  0
 22 55  1  0  0  0
 23 56  1  0  0  0
 24 25  1  0  0  0
 24 57  1  0  0  0
 25 26  2  0  0  0
 25 27  1  0  0  0
 27 58  1  0  0  0
 27 59  1  0  0  0
 29 30  2  0  0  0
 29 34  1  0  0  0
 30 31  1  0  0  0
 30 60  1  0  0  0
 31 32  2  0  0  0
 31 61  1  0  0  0
 32 33  1  0  0  0
 32 62  1  0  0  0
 33 34  2  0  0  0
 33 63  1  0  0  0
 34 64  1  0  0  0
M  END
> <s_m_entry_id>
3107

> <s_m_entry_name>
dock_pv.199

> <s_m_Source_Path>
/home/csk/Desktop/cluster/DUD-E-result/adrb1

> <s_m_Source_File>
dock_pv.maegz

> <i_m_Source_File_Index>
199

> <chembl_id>
CHEMBL1085444

> <chembl_pref_name>
None

> <i_lp_mmshare_version>
53161

> <i_f3d_flags>
0

> <r_lp_tautomer_probability>
1

> <s_lp_Force_Field>
OPLS_2005

> <r_lp_Energy>
33.830704

> <b_lp_Chiralities_Consistent>
1

> <s_lp_Variant>
CHEMBL213_lig377-1

> <s_i_glide_gridfile>
glide-grid_2vt4

> <i_i_glide_lignum>
444

> <i_i_glide_rotatable_bonds>
12

> <r_i_docking_score>
-7.55250925366052

> <r_i_glide_ligand_efficiency>
-0.222132625107662

> <r_i_glide_ligand_efficiency_sa>
-0.719623472901646

> <r_i_glide_ligand_efficiency_ln>
-1.66856113484265

> <r_i_glide_gscore>
-7.55250925366052

> <r_i_glide_lipo>
-3.68953825247316

> <r_i_glide_hbond>
-0.503376570504783

> <r_i_glide_metal>
0

> <r_i_glide_rewards>
-1.73277513524709

> <r_i_glide_evdw>
-39.1685676574707

> <r_i_glide_ecoul>
-4.1663613319397

> <r_i_glide_erotb>
0.956563287229002

> <r_i_glide_esite>
0

> <r_i_glide_emodel>
-58.6391210327812

> <r_i_glide_energy>
-43.3349289894104

> <r_i_glide_einternal>
13.572546005249

> <i_i_glide_confnum>
26

> <i_i_glide_posenum>
73

> <r_i_glide_eff_state_penalty>
0

> <s_user_duplicate_titles>
CHEMBL213_lig377

> <s_m_subgroup_title>
dock_pv

> <s_m_subgroupid>
dock_pv

> <b_m_subgroup_collapsed>
1

$$$$
CHEMBL213_lig918
                    3D
 Schrodinger Suite 2021-1.
 67 71  0  0  1  0            999 V2000
   31.5632    3.0528   -6.7774 C   0  0  0  0  0  0
   31.3333    3.7114   -5.5635 C   0  0  0  0  0  0
   30.2639    3.4004   -4.7745 N   0  0  0  0  0  0
   29.4067    2.4333   -5.1886 C   0  0  0  0  0  0
   29.5764    1.7382   -6.3852 C   0  0  0  0  0  0
   30.6762    2.0538   -7.1859 C   0  0  0  0  0  0
   32.2951    4.8316   -5.1249 C   0  0  0  0  0  0
   32.1604    5.3498   -3.6785 C   0  0  0  0  0  0
   33.2449    5.2114   -2.8842 N   0  0  0  0  0  0
   31.1170    5.9020   -3.3262 O   0  0  0  0  0  0
   33.3357    5.4518   -1.5002 C   0  0  0  0  0  0
   32.2312    5.3519   -0.6466 C   0  0  0  0  0  0
   32.3959    5.4548    0.7281 C   0  0  0  0  0  0
   33.6532    5.7410    1.2651 C   0  0  0  0  0  0
   34.7557    5.8675    0.4144 C   0  0  0  0  0  0
   34.5996    5.7103   -0.9640 C   0  0  0  0  0  0
   33.8123    5.8603    2.7809 C   0  0  0  0  0  0
   33.3273    7.1946    3.3722 C   0  0  0  0  0  0
   31.9038    7.4475    3.1856 N   0  0  2  0  0  0
   30.9756    6.6165    3.9630 C   0  0  0  0  0  0
   29.7495    7.4812    4.3207 C   0  0  1  0  0  0
   28.5220    6.8326    4.9834 C   0  0  0  0  0  0
   30.2103    8.4721    5.1854 O   0  0  0  0  0  0
   27.8311    6.0572    4.0156 O   0  0  0  0  0  0
   26.5245    5.6755    4.2469 C   0  0  0  0  0  0
   25.7631    5.9334    5.3950 C   0  0  0  0  0  0
   24.4578    5.4536    5.5092 C   0  0  0  0  0  0
   23.8756    4.6500    4.5257 C   0  0  0  0  0  0
   25.9279    4.9564    3.1987 C   0  0  0  0  0  0
   24.6280    4.4145    3.3663 C   0  0  0  0  0  0
   24.3314    3.7023    2.2191 N   0  0  0  0  0  0
   26.3410    4.6617    1.8879 C   0  0  0  0  0  0
   25.3467    3.8472    1.2932 C   0  0  0  0  0  0
   25.4761    3.3779   -0.0155 C   0  0  0  0  0  0
   26.5920    3.8078   -0.7418 C   0  0  0  0  0  0
   27.5571    4.6429   -0.1895 C   0  0  0  0  0  0
   27.4616    5.0508    1.1368 C   0  0  0  0  0  0
   32.4115    3.3127   -7.3937 H   0  0  0  0  0  0
   28.5694    2.2230   -4.5377 H   0  0  0  0  0  0
   28.8699    0.9763   -6.6805 H   0  0  0  0  0  0
   30.8405    1.5331   -8.1170 H   0  0  0  0  0  0
   33.3152    4.4892   -5.3066 H   0  0  0  0  0  0
   32.1659    5.6734   -5.8060 H   0  0  0  0  0  0
   34.1023    4.9106   -3.3239 H   0  0  0  0  0  0
   31.2484    5.1109   -1.0230 H   0  0  0  0  0  0
   31.5406    5.3175    1.3706 H   0  0  0  0  0  0
   35.7368    6.0683    0.8183 H   0  0  0  0  0  0
   35.4653    5.7828   -1.6075 H   0  0  0  0  0  0
   33.2834    5.0530    3.2797 H   0  0  0  0  0  0
   34.8574    5.7071    3.0484 H   0  0  0  0  0  0
   33.6229    7.3176    4.4140 H   0  0  0  0  0  0
   33.8254    7.9967    2.8264 H   0  0  0  0  0  0
   31.7134    7.4204    2.1893 H   0  0  0  0  0  0
   30.6755    5.7480    3.3772 H   0  0  0  0  0  0
   31.4474    6.2452    4.8738 H   0  0  0  0  0  0
   29.4089    7.9708    3.4243 H   0  0  0  0  0  0
   28.7938    6.2498    5.8602 H   0  0  0  0  0  0
   27.8675    7.6346    5.3322 H   0  0  0  0  0  0
   31.0704    8.7619    4.8353 H   0  0  0  0  0  0
   26.1703    6.5088    6.2128 H   0  0  0  0  0  0
   23.8909    5.6900    6.3938 H   0  0  0  0  0  0
   22.8688    4.2757    4.6406 H   0  0  0  0  0  0
   23.4735    3.1977    2.0520 H   0  0  0  0  0  0
   24.7191    2.7624   -0.4806 H   0  0  0  0  0  0
   26.6980    3.4960   -1.7712 H   0  0  0  0  0  0
   28.3983    4.9531   -0.7932 H   0  0  0  0  0  0
   28.2198    5.6865    1.5654 H   0  0  0  0  0  0
  1  6  1  0  0  0
  1  2  2  0  0  0
  1 38  1  0  0  0
  2  3  1  0  0  0
  2  7  1  0  0  0
  3  4  2  0  0  0
  4  5  1  0  0  0
  4 39  1  0  0  0
  5  6  2  0  0  0
  5 40  1  0  0  0
  6 41  1  0  0  0
  7  8  1  0  0  0
  7 42  1  0  0  0
  7 43  1  0  0  0
  8  9  1  0  0  0
  8 10  2  0  0  0
  9 11  1  0  0  0
  9 44  1  0  0  0
 11 12  2  0  0  0
 11 16  1  0  0  0
 12 13  1  0  0  0
 12 45  1  0  0  0
 13 14  2  0  0  0
 13 46  1  0  0  0
 14 15  1  0  0  0
 14 17  1  0  0  0
 15 16  2  0  0  0
 15 47  1  0  0  0
 16 48  1  0  0  0
 17 18  1  0  0  0
 17 49  1  0  0  0
 17 50  1  0  0  0
 18 19  1  0  0  0
 18 51  1  0  0  0
 18 52  1  0  0  0
 19 20  1  0  0  0
 19 53  1  0  0  0
 20 21  1  0  0  0
 20 54  1  0  0  0
 20 55  1  0  0  0
 21 22  1  0  0  0
 21 23  1  0  0  0
 21 56  1  0  0  0
 22 24  1  0  0  0
 22 57  1  0  0  0
 22 58  1  0  0  0
 23 59  1  0  0  0
 24 25  1  0  0  0
 25 26  2  0  0  0
 25 29  1  0  0  0
 26 27  1  0  0  0
 26 60  1  0  0  0
 27 28  2  0  0  0
 27 61  1  0  0  0
 28 30  1  0  0  0
 28 62  1  0  0  0
 29 30  2  0  0  0
 29 32  1  0  0  0
 30 31  1  0  0  0
 31 33  1  0  0  0
 31 63  1  0  0  0
 32 33  2  0  0  0
 32 37  1  0  0  0
 33 34  1  0  0  0
 34 35  2  0  0  0
 34 64  1  0  0  0
 35 36  1  0  0  0
 35 65  1  0  0  0
 36 37  2  0  0  0
 36 66  1  0  0  0
 37 67  1  0  0  0
M  END
> <s_m_entry_id>
3108

> <s_m_entry_name>
dock_pv.200

> <s_m_Source_Path>
/home/csk/Desktop/cluster/DUD-E-result/adrb1

> <s_m_Source_File>
dock_pv.maegz

> <i_m_Source_File_Index>
200

> <chembl_id>
CHEMBL466923

> <chembl_pref_name>
None

> <i_lp_mmshare_version>
53161

> <i_f3d_flags>
0

> <r_lp_tautomer_probability>
1

> <s_lp_Force_Field>
OPLS_2005

> <r_lp_Energy>
40.707678

> <b_lp_Chiralities_Consistent>
1

> <s_lp_Variant>
CHEMBL213_lig918-1

> <s_i_glide_gridfile>
glide-grid_2vt4

> <i_i_glide_lignum>
1026

> <i_i_glide_rotatable_bonds>
13

> <r_i_docking_score>
-7.55039967751045

> <r_i_glide_ligand_efficiency>
-0.204064856148931

> <r_i_glide_ligand_efficiency_sa>
-0.679989371993995

> <r_i_glide_ligand_efficiency_ln>
-1.63750468356972

> <r_i_glide_gscore>
-7.55039967751045

> <r_i_glide_lipo>
-4.19276050006004

> <r_i_glide_hbond>
-0.5571153919335

> <r_i_glide_metal>
0

> <r_i_glide_rewards>
-0.72279261630986

> <r_i_glide_evdw>
-39.2904968261719

> <r_i_glide_ecoul>
-6.30890512466431

> <r_i_glide_erotb>
0.833129440801187

> <r_i_glide_esite>
0

> <r_i_glide_emodel>
-59.2991292590458

> <r_i_glide_energy>
-45.5994019508362

> <r_i_glide_einternal>
6.01638269424438

> <i_i_glide_confnum>
8

> <i_i_glide_posenum>
12

> <r_i_glide_eff_state_penalty>
0

> <s_user_duplicate_titles>
CHEMBL213_lig918,480389

> <s_m_subgroup_title>
dock_pv

> <s_m_subgroupid>
dock_pv

> <b_m_subgroup_collapsed>
1

$$$$
CHEMBL213_lig460
                    3D
 Schrodinger Suite 2021-1.
 69 73  0  0  1  0            999 V2000
   33.0803    4.4759   -5.3582 C   0  0  0  0  0  0
   32.6607    3.7601   -6.4794 C   0  0  0  0  0  0
   31.0593    3.8241   -4.1659 C   0  0  0  0  0  0
   32.2894    4.4986   -4.2078 C   0  0  0  0  0  0
   30.6560    3.0982   -5.2986 C   0  0  0  0  0  0
   31.4519    3.0585   -6.4393 C   0  0  0  0  0  0
   30.8963    2.2961   -7.4539 N   0  0  0  0  0  0
   29.6619    1.7278   -7.2281 C   0  0  0  0  0  0
   29.1838    2.1560   -5.5287 S   0  0  0  0  0  0
   28.9912    1.0505   -7.9992 O   0  0  0  0  0  0
   33.4320    3.7490   -7.6115 O   0  0  0  0  0  0
   30.1935    3.8713   -2.9077 C   0  0  2  0  0  0
   30.1088    5.2647   -2.2346 C   0  0  0  0  0  0
   29.0129    5.4059   -1.2717 N   0  0  1  0  0  0
   27.7017    5.3216   -1.9134 C   0  0  0  0  0  0
   26.6142    5.9332   -1.0213 C   0  0  0  0  0  0
   26.2676    5.1234    0.2225 C   0  0  0  0  0  0
   25.3926    4.0389    0.1407 C   0  0  0  0  0  0
   24.9368    3.4115    1.2972 C   0  0  0  0  0  0
   25.3790    3.8500    2.5425 C   0  0  0  0  0  0
   26.3148    4.8856    2.6470 C   0  0  0  0  0  0
   26.7405    5.5275    1.4739 C   0  0  0  0  0  0
   30.6081    2.9088   -1.9623 O   0  0  0  0  0  0
   26.8048    5.2652    4.0482 C   0  0  0  0  0  0
   27.9360    6.1864    4.1406 N   0  0  1  0  0  0
   29.1844    5.6831    3.5783 C   0  0  0  0  0  0
   30.3180    6.6776    3.8892 C   0  0  0  0  0  0
   31.6215    6.3534    3.1846 C   0  0  0  0  0  0
   31.8096    5.9820    1.8655 C   0  0  0  0  0  0
   33.1484    5.8501    1.5981 N   0  0  0  0  0  0
   32.9424    6.3926    3.7655 C   0  0  0  0  0  0
   33.8868    6.1007    2.7345 C   0  0  0  0  0  0
   35.2742    6.0970    2.9478 C   0  0  0  0  0  0
   35.6945    6.3769    4.2527 C   0  0  0  0  0  0
   34.7988    6.6378    5.2848 C   0  0  0  0  0  0
   33.4253    6.6501    5.0569 C   0  0  0  0  0  0
   36.3153    5.8130    1.8779 C   0  0  0  0  0  0
   34.0179    5.0157   -5.3753 H   0  0  0  0  0  0
   32.6400    5.0471   -3.3457 H   0  0  0  0  0  0
   31.3591    2.1810   -8.3426 H   0  0  0  0  0  0
   34.2072    4.3144   -7.5385 H   0  0  0  0  0  0
   29.1893    3.5958   -3.2177 H   0  0  0  0  0  0
   30.0073    6.0447   -2.9904 H   0  0  0  0  0  0
   31.0490    5.4676   -1.7207 H   0  0  0  0  0  0
   29.0781    4.6346   -0.6187 H   0  0  0  0  0  0
   27.4662    4.2675   -2.0691 H   0  0  0  0  0  0
   27.6809    5.7932   -2.8985 H   0  0  0  0  0  0
   25.7024    6.0486   -1.6097 H   0  0  0  0  0  0
   26.8881    6.9530   -0.7411 H   0  0  0  0  0  0
   25.0142    3.7112   -0.8149 H   0  0  0  0  0  0
   24.2305    2.5966    1.2257 H   0  0  0  0  0  0
   25.0092    3.3628    3.4322 H   0  0  0  0  0  0
   27.4020    6.3777    1.5217 H   0  0  0  0  0  0
   29.9474    2.2048   -1.9961 H   0  0  0  0  0  0
   26.9863    4.3744    4.6533 H   0  0  0  0  0  0
   25.9696    5.7801    4.5240 H   0  0  0  0  0  0
   27.6909    7.1017    3.7941 H   0  0  0  0  0  0
   29.1181    5.5405    2.5016 H   0  0  0  0  0  0
   29.4080    4.6984    3.9846 H   0  0  0  0  0  0
   30.4688    6.7052    4.9687 H   0  0  0  0  0  0
   30.0182    7.6881    3.6063 H   0  0  0  0  0  0
   31.0917    5.8350    1.0699 H   0  0  0  0  0  0
   33.5011    5.6130    0.6834 H   0  0  0  0  0  0
   36.7509    6.3968    4.4821 H   0  0  0  0  0  0
   35.1746    6.8379    6.2798 H   0  0  0  0  0  0
   32.7405    6.8632    5.8616 H   0  0  0  0  0  0
   36.1828    4.8053    1.4849 H   0  0  0  0  0  0
   36.2035    6.5157    1.0519 H   0  0  0  0  0  0
   37.3355    5.9002    2.2544 H   0  0  0  0  0  0
  1  2  2  0  0  0
  1  4  1  0  0  0
  1 38  1  0  0  0
  2 11  1  0  0  0
  2  6  1  0  0  0
  3 12  1  0  0  0
  3  5  1  0  0  0
  3  4  2  0  0  0
  4 39  1  0  0  0
  5  6  2  0  0  0
  5  9  1  0  0  0
  6  7  1  0  0  0
  7  8  1  0  0  0
  7 40  1  0  0  0
  8  9  1  0  0  0
  8 10  2  0  0  0
 11 41  1  0  0  0
 12 23  1  0  0  0
 12 13  1  0  0  0
 12 42  1  0  0  0
 13 14  1  0  0  0
 13 43  1  0  0  0
 13 44  1  0  0  0
 14 15  1  0  0  0
 14 45  1  0  0  0
 15 16  1  0  0  0
 15 46  1  0  0  0
 15 47  1  0  0  0
 16 17  1  0  0  0
 16 48  1  0  0  0
 16 49  1  0  0  0
 17 22  1  0  0  0
 17 18  2  0  0  0
 18 19  1  0  0  0
 18 50  1  0  0  0
 19 20  2  0  0  0
 19 51  1  0  0  0
 20 21  1  0  0  0
 20 52  1  0  0  0
 21 22  2  0  0  0
 21 24  1  0  0  0
 22 53  1  0  0  0
 23 54  1  0  0  0
 24 25  1  0  0  0
 24 55  1  0  0  0
 24 56  1  0  0  0
 25 26  1  0  0  0
 25 57  1  0  0  0
 26 27  1  0  0  0
 26 58  1  0  0  0
 26 59  1  0  0  0
 27 28  1  0  0  0
 27 60  1  0  0  0
 27 61  1  0  0  0
 28 29  2  0  0  0
 28 31  1  0  0  0
 29 30  1  0  0  0
 29 62  1  0  0  0
 30 32  1  0  0  0
 30 63  1  0  0  0
 31 32  2  0  0  0
 31 36  1  0  0  0
 32 33  1  0  0  0
 33 34  2  0  0  0
 33 37  1  0  0  0
 34 35  1  0  0  0
 34 64  1  0  0  0
 35 36  2  0  0  0
 35 65  1  0  0  0
 36 66  1  0  0  0
 37 67  1  0  0  0
 37 68  1  0  0  0
 37 69  1  0  0  0
M  END
> <s_m_entry_id>
3109

> <s_m_entry_name>
dock_pv.201

> <s_m_Source_Path>
/home/csk/Desktop/cluster/DUD-E-result/adrb1

> <s_m_Source_File>
dock_pv.maegz

> <i_m_Source_File_Index>
201

> <chembl_id>
CHEMBL1945031

> <chembl_pref_name>
None

> <i_lp_mmshare_version>
53161

> <i_f3d_flags>
0

> <r_lp_tautomer_probability>
1

> <s_lp_Force_Field>
OPLS_2005

> <r_lp_Energy>
34.103372

> <b_lp_Chiralities_Consistent>
1

> <s_lp_Variant>
CHEMBL213_lig460-1

> <s_i_glide_gridfile>
glide-grid_2vt4

> <i_i_glide_lignum>
548

> <i_i_glide_rotatable_bonds>
13

> <r_i_docking_score>
-7.54690367647566

> <r_i_glide_ligand_efficiency>
-0.203970369634477

> <r_i_glide_ligand_efficiency_sa>
-0.679674521966224

> <r_i_glide_ligand_efficiency_ln>
-1.63674648290317

> <r_i_glide_gscore>
-7.54690367647566

> <r_i_glide_lipo>
-3.37393479572684

> <r_i_glide_hbond>
-0.561986192938765

> <r_i_glide_metal>
0

> <r_i_glide_rewards>
-0.683333333333333

> <r_i_glide_evdw>
-57.6438217163086

> <r_i_glide_ecoul>
-5.84388494491577

> <r_i_glide_erotb>
0.845892722435558

> <r_i_glide_esite>
-0.0147682493594757

> <r_i_glide_emodel>
-87.734753604663

> <r_i_glide_energy>
-63.4877066612244

> <r_i_glide_einternal>
11.0167055130005

> <i_i_glide_confnum>
236

> <i_i_glide_posenum>
111

> <r_i_glide_eff_state_penalty>
0

> <s_user_duplicate_titles>
CHEMBL213_lig460

> <s_m_subgroup_title>
dock_pv

> <s_m_subgroupid>
dock_pv

> <b_m_subgroup_collapsed>
1

$$$$
CHEMBL213_lig1415
                    3D
 Schrodinger Suite 2021-1.
 61 65  0  0  1  0            999 V2000
   27.6189    6.6502   -2.7880 N   0  0  1  0  0  0
   27.6886    6.0806   -1.4456 C   0  0  0  0  0  0
   26.8629    6.8525   -0.4055 C   0  0  0  0  0  0
   27.0934    6.2948    1.0221 C   0  0  0  0  0  0
   26.7820    4.8854    1.1731 N   0  0  0  0  0  0
   27.4079    4.1023    0.0999 C   0  0  0  0  0  0
   27.2355    4.6179   -1.3257 C   0  0  0  0  0  0
   25.8080    4.4624    2.0551 C   0  0  0  0  0  0
   24.8167    3.7664    1.4480 N   0  0  0  0  0  0
   23.6518    3.6777    2.1118 C   0  0  0  0  0  0
   23.3710    4.1305    3.3501 N   0  0  0  0  0  0
   25.6969    4.9239    3.4119 C   0  0  0  0  0  0
   24.4137    4.6501    4.0021 C   0  0  0  0  0  0
   24.2080    5.4500    5.5830 S   0  0  0  0  0  0
   25.8620    5.9563    5.5087 C   0  0  0  0  0  0
   26.5628    5.6448    4.3462 C   0  0  0  0  0  0
   28.3565    5.9577   -3.8540 C   0  0  0  0  0  0
   29.8785    6.2521   -3.9695 C   0  0  1  0  0  0
   30.7849    5.5240   -2.9458 C   0  0  0  0  0  0
   30.2670    5.8500   -5.2714 O   0  0  0  0  0  0
   32.1680    5.8201   -3.1792 O   0  0  0  0  0  0
   33.1096    5.6782   -2.1724 C   0  0  0  0  0  0
   34.4414    5.8442   -2.5553 C   0  0  0  0  0  0
   35.4649    5.8215   -1.6115 C   0  0  0  0  0  0
   35.1568    5.6343   -0.2682 C   0  0  0  0  0  0
   33.8369    5.4501    0.1296 C   0  0  0  0  0  0
   32.8159    5.4498   -0.8182 C   0  0  0  0  0  0
   28.0033    6.0704    4.2057 C   0  0  0  0  0  0
   28.4521    7.2330    4.8547 C   0  0  0  0  0  0
   29.7557    7.6914    4.6877 C   0  0  0  0  0  0
   30.6160    7.0131    3.8330 C   0  0  0  0  0  0
   30.1921    5.8563    3.1850 C   0  0  0  0  0  0
   28.9070    5.3658    3.4070 C   0  0  0  0  0  0
   36.1431    5.6312    0.6568 F   0  0  0  0  0  0
   26.6474    6.7453   -3.0562 H   0  0  0  0  0  0
   28.7142    6.1544   -1.1003 H   0  0  0  0  0  0
   27.1077    7.9110   -0.4149 H   0  0  0  0  0  0
   25.8074    6.8011   -0.6638 H   0  0  0  0  0  0
   28.1486    6.2500    1.2458 H   0  0  0  0  0  0
   26.6080    6.9183    1.7739 H   0  0  0  0  0  0
   28.4702    4.2500    0.3060 H   0  0  0  0  0  0
   27.1576    3.0438    0.1635 H   0  0  0  0  0  0
   26.2034    4.5046   -1.6150 H   0  0  0  0  0  0
   27.7969    3.9616   -1.9887 H   0  0  0  0  0  0
   22.8012    3.3880    1.5211 H   0  0  0  0  0  0
   26.2401    6.5000    6.3640 H   0  0  0  0  0  0
   27.8956    6.3417   -4.7626 H   0  0  0  0  0  0
   28.1500    4.8879   -3.8704 H   0  0  0  0  0  0
   30.0401    7.3299   -3.9279 H   0  0  0  0  0  0
   30.6321    4.4444   -2.9885 H   0  0  0  0  0  0
   30.4897    5.8501   -1.9604 H   0  0  0  0  0  0
   31.0062    6.4031   -5.5508 H   0  0  0  0  0  0
   34.6851    6.0034   -3.5955 H   0  0  0  0  0  0
   36.4918    5.9567   -1.9202 H   0  0  0  0  0  0
   33.6075    5.3020    1.1743 H   0  0  0  0  0  0
   31.8092    5.3036   -0.4634 H   0  0  0  0  0  0
   27.7903    7.8138    5.4790 H   0  0  0  0  0  0
   30.0885    8.5908    5.1852 H   0  0  0  0  0  0
   31.6199    7.3827    3.6773 H   0  0  0  0  0  0
   30.8718    5.3147    2.5439 H   0  0  0  0  0  0
   28.6161    4.4418    2.9322 H   0  0  0  0  0  0
  1 17  1  0  0  0
  1  2  1  0  0  0
  1 35  1  0  0  0
  2  3  1  0  0  0
  2  7  1  0  0  0
  2 36  1  0  0  0
  3  4  1  0  0  0
  3 37  1  0  0  0
  3 38  1  0  0  0
  4  5  1  0  0  0
  4 39  1  0  0  0
  4 40  1  0  0  0
  5  6  1  0  0  0
  5  8  1  0  0  0
  6  7  1  0  0  0
  6 41  1  0  0  0
  6 42  1  0  0  0
  7 43  1  0  0  0
  7 44  1  0  0  0
  8  9  2  0  0  0
  8 12  1  0  0  0
  9 10  1  0  0  0
 10 11  2  0  0  0
 10 45  1  0  0  0
 11 13  1  0  0  0
 12 16  1  0  0  0
 12 13  2  0  0  0
 13 14  1  0  0  0
 14 15  1  0  0  0
 15 16  2  0  0  0
 15 46  1  0  0  0
 16 28  1  0  0  0
 17 18  1  0  0  0
 17 47  1  0  0  0
 17 48  1  0  0  0
 18 19  1  0  0  0
 18 20  1  0  0  0
 18 49  1  0  0  0
 19 21  1  0  0  0
 19 50  1  0  0  0
 19 51  1  0  0  0
 20 52  1  0  0  0
 21 22  1  0  0  0
 22 23  2  0  0  0
 22 27  1  0  0  0
 23 24  1  0  0  0
 23 53  1  0  0  0
 24 25  2  0  0  0
 24 54  1  0  0  0
 25 26  1  0  0  0
 25 34  1  0  0  0
 26 27  2  0  0  0
 26 55  1  0  0  0
 27 56  1  0  0  0
 28 29  2  0  0  0
 28 33  1  0  0  0
 29 30  1  0  0  0
 29 57  1  0  0  0
 30 31  2  0  0  0
 30 58  1  0  0  0
 31 32  1  0  0  0
 31 59  1  0  0  0
 32 33  2  0  0  0
 32 60  1  0  0  0
 33 61  1  0  0  0
M  END
> <s_m_entry_id>
3110

> <s_m_entry_name>
dock_pv.202

> <s_m_Source_Path>
/home/csk/Desktop/cluster/DUD-E-result/adrb1

> <s_m_Source_File>
dock_pv.maegz

> <i_m_Source_File_Index>
202

> <chembl_id>
CHEMBL1258370

> <chembl_pref_name>
None

> <i_lp_mmshare_version>
53161

> <i_f3d_flags>
0

> <r_lp_tautomer_probability>
1

> <s_lp_Force_Field>
OPLS_2005

> <r_lp_Energy>
34.794583

> <b_lp_Chiralities_Consistent>
1

> <s_lp_Variant>
CHEMBL213_lig1415-2

> <s_i_glide_gridfile>
glide-grid_2vt4

> <i_i_glide_lignum>
1734

> <i_i_glide_rotatable_bonds>
9

> <r_i_docking_score>
-7.53962515905874

> <r_i_glide_ligand_efficiency>
-0.221753681148787

> <r_i_glide_ligand_efficiency_sa>
-0.718395841581892

> <r_i_glide_ligand_efficiency_ln>
-1.66571467695851

> <r_i_glide_gscore>
-7.53962515905874

> <r_i_glide_lipo>
-3.94207732925542

> <r_i_glide_hbond>
-0.307646190808983

> <r_i_glide_metal>
0

> <r_i_glide_rewards>
-1.25327942451376

> <r_i_glide_evdw>
-33.4433975219727

> <r_i_glide_ecoul>
-6.55873680114746

> <r_i_glide_erotb>
0.619358181790172

> <r_i_glide_esite>
0

> <r_i_glide_emodel>
-33.8714633861687

> <r_i_glide_energy>
-40.0021343231201

> <r_i_glide_einternal>
13.0495920181274

> <i_i_glide_confnum>
65

> <i_i_glide_posenum>
186

> <r_i_glide_eff_state_penalty>
0

> <s_user_duplicate_titles>
CHEMBL213_lig1415

> <s_m_subgroup_title>
dock_pv

> <s_m_subgroupid>
dock_pv

> <b_m_subgroup_collapsed>
1

$$$$
CHEMBL213_lig1350
                    3D
 Schrodinger Suite 2021-1.
 65 69  0  0  1  0            999 V2000
   34.2591    5.4306   -0.0326 C   0  0  0  0  0  0
   33.1815    5.7366   -0.8577 C   0  0  0  0  0  0
   33.2078    5.4340   -2.2176 C   0  0  0  0  0  0
   32.1412    5.7302   -3.0329 O   0  0  0  0  0  0
   31.2836    4.6250   -3.3121 C   0  0  0  0  0  0
   30.1295    5.0204   -4.2656 C   0  0  1  0  0  0
   29.1092    6.0545   -3.7073 C   0  0  0  0  0  0
   30.6466    5.4551   -5.5117 O   0  0  0  0  0  0
   28.5051    5.6820   -2.4132 N   0  0  1  0  0  0
   27.5602    6.7068   -1.9614 C   0  0  0  0  0  0
   26.9806    6.4372   -0.5505 C   0  0  0  0  0  0
   26.4902    4.9936   -0.2886 C   0  0  0  0  0  0
   27.3106    3.9616   -1.0775 C   0  0  0  0  0  0
   27.8103    4.3941   -2.4657 C   0  0  0  0  0  0
   26.2027    4.5465    1.1845 C   0  0  0  0  0  0
   35.4018    4.7993   -0.5219 C   0  0  0  0  0  0
   35.4378    4.5144   -1.8913 C   0  0  0  0  0  0
   34.3634    4.8383   -2.7644 C   0  0  0  0  0  0
   36.4182    3.9145   -2.6520 N   0  0  0  0  0  0
   36.0504    3.8897   -3.9803 C   0  0  0  0  0  0
   34.7581    4.4683   -4.0688 C   0  0  0  0  0  0
   34.1488    4.5802   -5.3297 C   0  0  0  0  0  0
   34.8248    4.1047   -6.4515 C   0  0  0  0  0  0
   36.0927    3.5419   -6.3368 C   0  0  0  0  0  0
   36.7369    3.4256   -5.1061 C   0  0  0  0  0  0
   27.0718    5.1647    2.2871 C   0  0  0  0  0  0
   26.4791    5.7651    3.4031 C   0  0  0  0  0  0
   27.2712    6.3372    4.3986 C   0  0  0  0  0  0
   28.6630    6.3355    4.2868 C   0  0  0  0  0  0
   29.2519    5.7067    3.1818 C   0  0  0  0  0  0
   28.4643    5.1127    2.2005 C   0  0  0  0  0  0
   29.3767    6.9802    5.2828 O   0  0  0  0  0  0
   30.7772    7.1899    5.1006 C   0  0  0  0  0  0
   34.2017    5.6800    1.0170 H   0  0  0  0  0  0
   32.3150    6.2136   -0.4259 H   0  0  0  0  0  0
   30.8745    4.2427   -2.3753 H   0  0  0  0  0  0
   31.8557    3.8055   -3.7552 H   0  0  0  0  0  0
   29.5906    4.1127   -4.5346 H   0  0  0  0  0  0
   28.3016    6.1843   -4.4316 H   0  0  0  0  0  0
   29.5967    7.0293   -3.6140 H   0  0  0  0  0  0
   30.7325    6.4196   -5.5174 H   0  0  0  0  0  0
   26.7601    6.8399   -2.6931 H   0  0  0  0  0  0
   28.1050    7.6503   -1.9246 H   0  0  0  0  0  0
   26.2175    7.1656   -0.2796 H   0  0  0  0  0  0
   27.8079    6.6467    0.1152 H   0  0  0  0  0  0
   25.5357    4.9699   -0.8167 H   0  0  0  0  0  0
   28.2048    3.7231   -0.5089 H   0  0  0  0  0  0
   26.7341    3.0414   -1.1488 H   0  0  0  0  0  0
   27.0188    4.4187   -3.2103 H   0  0  0  0  0  0
   28.5029    3.6307   -2.8057 H   0  0  0  0  0  0
   26.3362    3.4686    1.2578 H   0  0  0  0  0  0
   25.1445    4.6536    1.4204 H   0  0  0  0  0  0
   36.2273    4.5510    0.1293 H   0  0  0  0  0  0
   37.2969    3.5678   -2.2901 H   0  0  0  0  0  0
   33.1790    5.0292   -5.4433 H   0  0  0  0  0  0
   34.3669    4.1909   -7.4245 H   0  0  0  0  0  0
   36.5962    3.2000   -7.2278 H   0  0  0  0  0  0
   37.7289    3.0062   -5.0364 H   0  0  0  0  0  0
   25.4046    5.7993    3.4978 H   0  0  0  0  0  0
   26.8014    6.8088    5.2485 H   0  0  0  0  0  0
   30.3236    5.6673    3.0602 H   0  0  0  0  0  0
   28.9507    4.6560    1.3537 H   0  0  0  0  0  0
   31.1957    7.6689    5.9837 H   0  0  0  0  0  0
   30.9731    7.8396    4.2466 H   0  0  0  0  0  0
   31.3227    6.2557    4.9702 H   0  0  0  0  0  0
  1  2  2  0  0  0
  1 16  1  0  0  0
  1 34  1  0  0  0
  2  3  1  0  0  0
  2 35  1  0  0  0
  3 18  2  0  0  0
  3  4  1  0  0  0
  4  5  1  0  0  0
  5  6  1  0  0  0
  5 36  1  0  0  0
  5 37  1  0  0  0
  6  7  1  0  0  0
  6  8  1  0  0  0
  6 38  1  0  0  0
  7  9  1  0  0  0
  7 39  1  0  0  0
  7 40  1  0  0  0
  8 41  1  0  0  0
  9 10  1  0  0  0
  9 14  1  0  0  0
 10 11  1  0  0  0
 10 42  1  0  0  0
 10 43  1  0  0  0
 11 12  1  0  0  0
 11 44  1  0  0  0
 11 45  1  0  0  0
 12 13  1  0  0  0
 12 15  1  0  0  0
 12 46  1  0  0  0
 13 14  1  0  0  0
 13 47  1  0  0  0
 13 48  1  0  0  0
 14 49  1  0  0  0
 14 50  1  0  0  0
 15 26  1  0  0  0
 15 51  1  0  0  0
 15 52  1  0  0  0
 16 17  2  0  0  0
 16 53  1  0  0  0
 17 18  1  0  0  0
 17 19  1  0  0  0
 18 21  1  0  0  0
 19 20  1  0  0  0
 19 54  1  0  0  0
 20 21  2  0  0  0
 20 25  1  0  0  0
 21 22  1  0  0  0
 22 23  2  0  0  0
 22 55  1  0  0  0
 23 24  1  0  0  0
 23 56  1  0  0  0
 24 25  2  0  0  0
 24 57  1  0  0  0
 25 58  1  0  0  0
 26 27  2  0  0  0
 26 31  1  0  0  0
 27 28  1  0  0  0
 27 59  1  0  0  0
 28 29  2  0  0  0
 28 60  1  0  0  0
 29 30  1  0  0  0
 29 32  1  0  0  0
 30 31  2  0  0  0
 30 61  1  0  0  0
 31 62  1  0  0  0
 32 33  1  0  0  0
 33 63  1  0  0  0
 33 64  1  0  0  0
 33 65  1  0  0  0
M  END
> <s_m_entry_id>
3111

> <s_m_entry_name>
dock_pv.203

> <s_m_Source_Path>
/home/csk/Desktop/cluster/DUD-E-result/adrb1

> <s_m_Source_File>
dock_pv.maegz

> <i_m_Source_File_Index>
203

> <chembl_id>
CHEMBL1082500

> <chembl_pref_name>
None

> <i_lp_mmshare_version>
53161

> <i_f3d_flags>
0

> <r_lp_tautomer_probability>
1

> <s_lp_Force_Field>
OPLS_2005

> <r_lp_Energy>
51.909311

> <b_lp_Chiralities_Consistent>
1

> <s_lp_Variant>
CHEMBL213_lig1350-2

> <s_i_glide_gridfile>
glide-grid_2vt4

> <i_i_glide_lignum>
1631

> <i_i_glide_rotatable_bonds>
9

> <r_i_docking_score>
-7.533498592909

> <r_i_glide_ligand_efficiency>
-0.228287836148757

> <r_i_glide_ligand_efficiency_sa>
-0.732241070714173

> <r_i_glide_ligand_efficiency_ln>
-1.67541108069482

> <r_i_glide_gscore>
-7.533498592909

> <r_i_glide_lipo>
-3.0424028970438

> <r_i_glide_hbond>
-0.583785151832329

> <r_i_glide_metal>
0

> <r_i_glide_rewards>
-0.931505086732762

> <r_i_glide_evdw>
-44.2927131652832

> <r_i_glide_ecoul>
-9.12246608734131

> <r_i_glide_erotb>
0.607200114065252

> <r_i_glide_esite>
0

> <r_i_glide_emodel>
-64.0937080097101

> <r_i_glide_energy>
-53.4151792526245

> <r_i_glide_einternal>
25.1112308502197

> <i_i_glide_confnum>
6

> <i_i_glide_posenum>
87

> <r_i_glide_eff_state_penalty>
0

> <s_user_duplicate_titles>
CHEMBL213_lig1350,630998

> <s_m_subgroup_title>
dock_pv

> <s_m_subgroupid>
dock_pv

> <b_m_subgroup_collapsed>
1

$$$$
CHEMBL213_lig1221 
                    3D
 Schrodinger Suite 2021-1.
 47 49  0  0  1  0            999 V2000
   23.8092    4.0457    2.9258 C   0  0  0  0  0  0
   24.4908    4.6500    3.9848 C   0  0  0  0  0  0
   25.7600    4.2500    1.4853 C   0  0  0  0  0  0
   24.4331    3.8488    1.6964 C   0  0  0  0  0  0
   26.4594    4.8424    2.5571 C   0  0  0  0  0  0
   25.8206    5.0529    3.7981 C   0  0  0  0  0  0
   26.5322    5.6953    4.8378 N   0  0  0  0  0  0
   27.8178    6.1100    4.8110 C   0  0  0  0  0  0
   28.4832    5.8500    3.5475 C   0  0  0  0  0  0
   27.8731    5.2823    2.4829 C   0  0  0  0  0  0
   28.3579    6.6500    5.7710 O   0  0  0  0  0  0
   23.8080    4.9230    5.1594 O   0  0  0  0  0  0
   26.3965    4.1012    0.0949 C   0  0  2  0  0  0
   26.4271    5.4642   -0.6633 C   0  0  0  0  0  0
   25.8079    3.0816   -0.6983 O   0  0  0  0  0  0
   27.0080    5.4500   -2.0081 N   0  0  1  0  0  0
   28.3558    4.8990   -2.0908 C   0  0  0  0  0  0
   28.7370    4.6262   -3.5535 C   0  0  0  0  0  0
   30.0802    3.8712   -3.6488 C   0  0  0  0  0  0
   30.3961    3.3156   -5.0316 C   0  0  0  0  0  0
   29.5427    2.3766   -5.6212 C   0  0  0  0  0  0
   29.8458    1.8499   -6.8743 C   0  0  0  0  0  0
   31.0109    2.2500   -7.5259 C   0  0  0  0  0  0
   31.8739    3.1709   -6.9364 C   0  0  0  0  0  0
   31.5627    3.7107   -5.6917 C   0  0  0  0  0  0
   22.7772    3.7490    3.0436 H   0  0  0  0  0  0
   23.8620    3.4046    0.8920 H   0  0  0  0  0  0
   26.0581    5.8803    5.7075 H   0  0  0  0  0  0
   29.5205    6.1431    3.4748 H   0  0  0  0  0  0
   28.4510    5.1354    1.5823 H   0  0  0  0  0  0
   22.8523    4.8741    5.0659 H   0  0  0  0  0  0
   27.4080    3.7483    0.2589 H   0  0  0  0  0  0
   26.9575    6.2142   -0.0753 H   0  0  0  0  0  0
   25.4075    5.8406   -0.7573 H   0  0  0  0  0  0
   25.3390    3.4943   -1.4372 H   0  0  0  0  0  0
   26.3653    5.0109   -2.6722 H   0  0  0  0  0  0
   28.4210    3.9478   -1.5640 H   0  0  0  0  0  0
   29.0726    5.5791   -1.6282 H   0  0  0  0  0  0
   28.7894    5.5598   -4.1161 H   0  0  0  0  0  0
   27.9489    4.0273   -4.0134 H   0  0  0  0  0  0
   30.0801    3.0252   -2.9609 H   0  0  0  0  0  0
   30.8873    4.5222   -3.3089 H   0  0  0  0  0  0
   28.6467    2.0551   -5.1086 H   0  0  0  0  0  0
   29.1806    1.1355   -7.3356 H   0  0  0  0  0  0
   31.2494    1.8500   -8.4997 H   0  0  0  0  0  0
   32.7746    3.4768   -7.4487 H   0  0  0  0  0  0
   32.2334    4.4289   -5.2425 H   0  0  0  0  0  0
  1  2  2  0  0  0
  1  4  1  0  0  0
  1 26  1  0  0  0
  2  6  1  0  0  0
  2 12  1  0  0  0
  3  5  1  0  0  0
  3  4  2  0  0  0
  3 13  1  0  0  0
  4 27  1  0  0  0
  5  6  2  0  0  0
  5 10  1  0  0  0
  6  7  1  0  0  0
  7  8  1  0  0  0
  7 28  1  0  0  0
  8  9  1  0  0  0
  8 11  2  0  0  0
  9 10  2  0  0  0
  9 29  1  0  0  0
 10 30  1  0  0  0
 12 31  1  0  0  0
 13 14  1  0  0  0
 13 15  1  0  0  0
 13 32  1  0  0  0
 14 16  1  0  0  0
 14 33  1  0  0  0
 14 34  1  0  0  0
 15 35  1  0  0  0
 16 17  1  0  0  0
 16 36  1  0  0  0
 17 18  1  0  0  0
 17 37  1  0  0  0
 17 38  1  0  0  0
 18 19  1  0  0  0
 18 39  1  0  0  0
 18 40  1  0  0  0
 19 20  1  0  0  0
 19 41  1  0  0  0
 19 42  1  0  0  0
 20 21  2  0  0  0
 20 25  1  0  0  0
 21 22  1  0  0  0
 21 43  1  0  0  0
 22 23  2  0  0  0
 22 44  1  0  0  0
 23 24  1  0  0  0
 23 45  1  0  0  0
 24 25  2  0  0  0
 24 46  1  0  0  0
 25 47  1  0  0  0
M  END
> <s_m_entry_id>
3112

> <s_m_entry_name>
dock_pv.204

> <s_m_Source_Path>
/home/csk/Desktop/cluster/DUD-E-result/adrb1

> <s_m_Source_File>
dock_pv.maegz

> <i_m_Source_File_Index>
204

> <chembl_id>
CHEMBL4536813

> <chembl_pref_name>
None

> <i_lp_mmshare_version>
53161

> <i_f3d_flags>
0

> <r_lp_tautomer_probability>
1

> <s_lp_Force_Field>
OPLS_2005

> <r_lp_Energy>
31.713279

> <b_lp_Chiralities_Consistent>
1

> <s_lp_Variant>
CHEMBL213_lig1221 -1

> <s_i_glide_gridfile>
glide-grid_2vt4

> <i_i_glide_lignum>
1453

> <i_i_glide_rotatable_bonds>
9

> <r_i_docking_score>
-7.52232517202214

> <r_i_glide_ligand_efficiency>
-0.300893006880886

> <r_i_glide_ligand_efficiency_sa>
-0.879816488479909

> <r_i_glide_ligand_efficiency_ln>
-1.7830164916639

> <r_i_glide_gscore>
-7.52232517202214

> <r_i_glide_lipo>
-2.86511681284873

> <r_i_glide_hbond>
-0.561408502109546

> <r_i_glide_metal>
0

> <r_i_glide_rewards>
-2.30780424885102

> <r_i_glide_evdw>
-34.7866287231445

> <r_i_glide_ecoul>
-6.93021440505981

> <r_i_glide_erotb>
0.990867988703354

> <r_i_glide_esite>
0

> <r_i_glide_emodel>
-57.9947968563494

> <r_i_glide_energy>
-41.7168431282043

> <r_i_glide_einternal>
6.645751953125

> <i_i_glide_confnum>
34

> <i_i_glide_posenum>
363

> <r_i_glide_eff_state_penalty>
0

> <s_user_duplicate_titles>
CHEMBL213_lig1221 

> <s_m_subgroup_title>
dock_pv

> <s_m_subgroupid>
dock_pv

> <b_m_subgroup_collapsed>
1

$$$$
CHEMBL213_lig336
                    3D
 Schrodinger Suite 2021-1.
 76 79  0  0  1  0            999 V2000
   35.2631    6.7785    2.9534 S   0  0  0  0  0  0
   28.6080    5.5922    3.9319 C   0  0  0  0  0  0
   29.4365    6.6067    4.3099 N   0  0  0  0  0  0
   27.4280    5.8452    4.5266 N   0  0  0  0  0  0
   35.4058    7.1014    1.2165 N   0  0  0  0  0  0
   33.5321    6.6848    3.3577 C   0  0  0  0  0  0
   28.7997    7.5031    5.2626 C   0  0  0  0  0  0
   30.8107    6.6501    3.9832 C   0  0  0  0  0  0
   35.7907    7.9675    3.6330 O   0  0  0  0  0  0
   35.8079    5.4501    3.2231 O   0  0  0  0  0  0
   28.8604    4.6477    3.1850 O   0  0  0  0  0  0
   27.3438    7.1408    5.1494 C   0  0  0  0  0  0
   30.9298    3.3115   -5.9223 C   0  0  0  0  0  0
   30.0443    1.4553   -7.2142 N   0  0  0  0  0  0
   33.1066    7.0482    4.6347 C   0  0  0  0  0  0
   32.6114    6.2495    2.4143 C   0  0  0  0  0  0
   31.2616    6.2498    2.7165 C   0  0  0  0  0  0
   31.7473    7.0499    4.9421 C   0  0  0  0  0  0
   35.4103    6.1049    0.2373 C   0  0  0  0  0  0
   32.0362    4.3534   -5.7265 C   0  0  1  0  0  0
   34.3982    4.6442   -4.9018 N   0  0  1  0  0  0
   35.5253    4.3123   -1.8997 C   0  0  0  0  0  0
   30.9929    2.3995   -6.9849 C   0  0  0  0  0  0
   26.2363    5.0513    4.2336 C   0  0  0  0  0  0
   36.5272    5.2917    0.0763 C   0  0  0  0  0  0
   34.3486    6.0151   -0.6678 C   0  0  0  0  0  0
   36.5887    4.4153   -1.0004 C   0  0  0  0  0  0
   34.3929    5.1040   -1.7166 C   0  0  0  0  0  0
   31.5925    5.4750   -4.9735 O   0  0  0  0  0  0
   33.2791    3.7126   -5.0601 C   0  0  0  0  0  0
   29.8274    3.2217   -5.0563 C   0  0  0  0  0  0
   28.9850    1.4031   -6.3682 C   0  0  0  0  0  0
   35.6445    4.0096   -4.4692 C   0  0  0  0  0  0
   35.6005    3.3383   -3.0714 C   0  0  0  0  0  0
   25.5343    5.4065    2.9085 C   0  0  0  0  0  0
   26.9890    5.6893    0.7464 C   0  0  0  0  0  0
   28.8408    2.2634   -5.2814 C   0  0  0  0  0  0
   26.0911    4.7743    1.6059 C   0  0  0  0  0  0
   27.2648    5.1093   -0.6488 C   0  0  0  0  0  0
   34.7920    7.8648    0.9686 H   0  0  0  0  0  0
   29.1721    7.3210    6.2712 H   0  0  0  0  0  0
   29.0087    8.5387    5.0029 H   0  0  0  0  0  0
   26.7834    7.8416    4.5303 H   0  0  0  0  0  0
   26.8596    7.0499    6.1198 H   0  0  0  0  0  0
   33.8210    7.3686    5.3788 H   0  0  0  0  0  0
   32.9211    5.9157    1.4407 H   0  0  0  0  0  0
   30.5792    5.9072    1.9557 H   0  0  0  0  0  0
   31.4352    7.3524    5.9293 H   0  0  0  0  0  0
   32.3131    4.7231   -6.7165 H   0  0  0  0  0  0
   34.5573    5.2197   -5.7217 H   0  0  0  0  0  0
   31.8191    2.4187   -7.6823 H   0  0  0  0  0  0
   25.5322    5.1923    5.0542 H   0  0  0  0  0  0
   26.4932    3.9909    4.2368 H   0  0  0  0  0  0
   37.3680    5.3723    0.7497 H   0  0  0  0  0  0
   33.4826    6.6499   -0.5720 H   0  0  0  0  0  0
   37.4810    3.8353   -1.1444 H   0  0  0  0  0  0
   33.5604    5.0376   -2.4018 H   0  0  0  0  0  0
   31.7951    6.2790   -5.4639 H   0  0  0  0  0  0
   33.6059    2.8667   -5.6642 H   0  0  0  0  0  0
   32.9800    3.3207   -4.0864 H   0  0  0  0  0  0
   29.7281    3.8916   -4.2150 H   0  0  0  0  0  0
   28.2360    0.6500   -6.5680 H   0  0  0  0  0  0
   36.3752    4.8199   -4.4246 H   0  0  0  0  0  0
   36.0288    3.3240   -5.2266 H   0  0  0  0  0  0
   36.4973    2.7250   -2.9673 H   0  0  0  0  0  0
   34.7770    2.6284   -2.9975 H   0  0  0  0  0  0
   25.4663    6.4892    2.8068 H   0  0  0  0  0  0
   24.5098    5.0489    3.0058 H   0  0  0  0  0  0
   27.9427    5.8499    1.2401 H   0  0  0  0  0  0
   26.5431    6.6782    0.6385 H   0  0  0  0  0  0
   27.9826    2.1922   -4.6273 H   0  0  0  0  0  0
   25.2392    4.4801    0.9880 H   0  0  0  0  0  0
   26.6167    3.8498    1.8294 H   0  0  0  0  0  0
   27.9496    5.7523   -1.2061 H   0  0  0  0  0  0
   26.3427    5.0234   -1.2266 H   0  0  0  0  0  0
   27.7200    4.1175   -0.5883 H   0  0  0  0  0  0
  1  5  1  0  0  0
  1  6  1  0  0  0
  1  9  2  0  0  0
  1 10  2  0  0  0
  2  3  1  0  0  0
  2  4  1  0  0  0
  2 11  2  0  0  0
  3  8  1  0  0  0
  3  7  1  0  0  0
  4 24  1  0  0  0
  4 12  1  0  0  0
  5 19  1  0  0  0
  5 40  1  0  0  0
  6 15  2  0  0  0
  6 16  1  0  0  0
  7 12  1  0  0  0
  7 41  1  0  0  0
  7 42  1  0  0  0
  8 17  1  0  0  0
  8 18  2  0  0  0
 12 43  1  0  0  0
 12 44  1  0  0  0
 13 20  1  0  0  0
 13 23  1  0  0  0
 13 31  2  0  0  0
 14 23  2  0  0  0
 14 32  1  0  0  0
 15 18  1  0  0  0
 15 45  1  0  0  0
 16 17  2  0  0  0
 16 46  1  0  0  0
 17 47  1  0  0  0
 18 48  1  0  0  0
 19 25  1  0  0  0
 19 26  2  0  0  0
 20 30  1  0  0  0
 20 29  1  0  0  0
 20 49  1  0  0  0
 21 33  1  0  0  0
 21 30  1  0  0  0
 21 50  1  0  0  0
 22 28  2  0  0  0
 22 34  1  0  0  0
 22 27  1  0  0  0
 23 51  1  0  0  0
 24 35  1  0  0  0
 24 52  1  0  0  0
 24 53  1  0  0  0
 25 27  2  0  0  0
 25 54  1  0  0  0
 26 28  1  0  0  0
 26 55  1  0  0  0
 27 56  1  0  0  0
 28 57  1  0  0  0
 29 58  1  0  0  0
 30 59  1  0  0  0
 30 60  1  0  0  0
 31 37  1  0  0  0
 31 61  1  0  0  0
 32 37  2  0  0  0
 32 62  1  0  0  0
 33 34  1  0  0  0
 33 63  1  0  0  0
 33 64  1  0  0  0
 34 65  1  0  0  0
 34 66  1  0  0  0
 35 38  1  0  0  0
 35 67  1  0  0  0
 35 68  1  0  0  0
 36 38  1  0  0  0
 36 39  1  0  0  0
 36 69  1  0  0  0
 36 70  1  0  0  0
 37 71  1  0  0  0
 38 72  1  0  0  0
 38 73  1  0  0  0
 39 74  1  0  0  0
 39 75  1  0  0  0
 39 76  1  0  0  0
M  END
> <s_m_entry_id>
3113

> <s_m_entry_name>
dock_pv.205

> <s_m_Source_Path>
/home/csk/Desktop/cluster/DUD-E-result/adrb1

> <s_m_Source_File>
dock_pv.maegz

> <i_m_Source_File_Index>
205

> <chembl_id>
CHEMBL165015

> <chembl_pref_name>
None

> <i_lp_mmshare_version>
53161

> <i_f3d_flags>
0

> <r_lp_tautomer_probability>
1

> <s_lp_Force_Field>
OPLS_2005

> <r_lp_Energy>
55.024743

> <b_lp_Chiralities_Consistent>
1

> <s_lp_Variant>
CHEMBL213_lig336-1

> <s_i_glide_gridfile>
glide-grid_2vt4

> <i_i_glide_lignum>
397

> <i_i_glide_rotatable_bonds>
15

> <r_i_docking_score>
-7.52136075012124

> <r_i_glide_ligand_efficiency>
-0.192855403849263

> <r_i_glide_ligand_efficiency_sa>
-0.654013451582065

> <r_i_glide_ligand_efficiency_ln>
-1.61279325134757

> <r_i_glide_gscore>
-7.52136075012124

> <r_i_glide_lipo>
-2.99515032553592

> <r_i_glide_hbond>
-0.49683732962861

> <r_i_glide_metal>
0

> <r_i_glide_rewards>
-0.860661104178426

> <r_i_glide_evdw>
-54.3770217895508

> <r_i_glide_ecoul>
-7.31401586532593

> <r_i_glide_erotb>
0.747241478498138

> <r_i_glide_esite>
-0.1

> <r_i_glide_emodel>
-82.5152939568833

> <r_i_glide_energy>
-61.6910376548767

> <r_i_glide_einternal>
13.3869352340698

> <i_i_glide_confnum>
32

> <i_i_glide_posenum>
175

> <r_i_glide_eff_state_penalty>
0

> <s_user_duplicate_titles>
CHEMBL213_lig336

> <s_m_subgroup_title>
dock_pv

> <s_m_subgroupid>
dock_pv

> <b_m_subgroup_collapsed>
1

$$$$
CHEMBL213_lig1434
                    3D
 Schrodinger Suite 2021-1.
 60 63  0  0  1  0            999 V2000
   32.7909    3.7729   -5.2885 C   0  0  0  0  0  0
   34.1076    3.9484   -5.7244 C   0  0  0  0  0  0
   35.0833    4.4760   -4.8878 C   0  0  0  0  0  0
   32.4352    4.0822   -3.9501 C   0  0  0  0  0  0
   33.4249    4.6561   -3.1148 C   0  0  0  0  0  0
   34.7431    4.8459   -3.5829 C   0  0  0  0  0  0
   35.7020    5.4498   -2.7377 N   0  0  0  0  0  0
   35.4985    5.9476   -1.4982 C   0  0  0  0  0  0
   34.1522    5.7273   -1.0038 C   0  0  0  0  0  0
   33.1742    5.1437   -1.7317 C   0  0  0  0  0  0
   36.3651    6.5600   -0.8894 O   0  0  0  0  0  0
   36.3494    4.6500   -5.3964 O   0  0  0  0  0  0
   31.0066    3.8573   -3.3971 C   0  0  1  0  0  0
   30.1500    5.1405   -3.5437 C   0  0  0  0  0  0
   28.7634    5.0514   -3.0895 N   0  0  2  0  0  0
   28.5006    4.5768   -1.7378 C   0  0  0  0  0  0
   30.3432    2.7159   -3.9192 O   0  0  0  0  0  0
   27.0082    4.3820   -1.5039 C   0  0  0  0  0  0
   28.9621    5.4499   -0.5724 C   0  0  0  0  0  0
   28.0050    5.0637    0.5433 C   0  0  0  0  0  0
   26.8780    4.4543   -0.0066 C   0  0  0  0  0  0
   25.7835    4.1513    0.7902 C   0  0  0  0  0  0
   25.8078    4.4218    2.1659 C   0  0  0  0  0  0
   26.9411    5.0503    2.7252 C   0  0  0  0  0  0
   28.0275    5.3708    1.9089 C   0  0  0  0  0  0
   27.0465    5.3838    4.2130 C   0  0  0  0  0  0
   26.3101    6.6706    4.6230 C   0  0  0  0  0  0
   24.6158    4.0506    3.0489 C   0  0  0  0  0  0
   23.4661    3.2779    2.3849 C   0  0  0  0  0  0
   31.7831    3.3009   -6.3296 C   0  0  0  0  0  0
   34.3781    3.7045   -6.7417 H   0  0  0  0  0  0
   36.6374    5.6108   -3.0827 H   0  0  0  0  0  0
   33.9428    6.0745   -0.0033 H   0  0  0  0  0  0
   32.2048    5.0484   -1.2703 H   0  0  0  0  0  0
   36.7213    5.5372   -5.2535 H   0  0  0  0  0  0
   31.1033    3.5905   -2.3457 H   0  0  0  0  0  0
   30.6247    5.9715   -3.0216 H   0  0  0  0  0  0
   30.1281    5.4407   -4.5905 H   0  0  0  0  0  0
   28.1380    4.6285   -3.7637 H   0  0  0  0  0  0
   28.9562    3.5994   -1.5699 H   0  0  0  0  0  0
   29.5429    2.5635   -3.4005 H   0  0  0  0  0  0
   26.4500    5.2287   -1.9088 H   0  0  0  0  0  0
   26.6147    3.4763   -1.9634 H   0  0  0  0  0  0
   30.0199    5.3311   -0.3415 H   0  0  0  0  0  0
   28.7938    6.5021   -0.8152 H   0  0  0  0  0  0
   24.9138    3.7177    0.3189 H   0  0  0  0  0  0
   28.8798    5.8496    2.3742 H   0  0  0  0  0  0
   26.6951    4.5353    4.7893 H   0  0  0  0  0  0
   28.0979    5.4752    4.4884 H   0  0  0  0  0  0
   26.5056    6.9136    5.6693 H   0  0  0  0  0  0
   26.6325    7.5227    4.0239 H   0  0  0  0  0  0
   25.2311    6.5865    4.5102 H   0  0  0  0  0  0
   25.0083    3.4501    3.8659 H   0  0  0  0  0  0
   24.2085    4.9550    3.4892 H   0  0  0  0  0  0
   22.6836    3.0726    3.1135 H   0  0  0  0  0  0
   23.0091    3.8489    1.5766 H   0  0  0  0  0  0
   23.8072    2.3241    1.9857 H   0  0  0  0  0  0
   31.5327    2.2498   -6.1779 H   0  0  0  0  0  0
   30.8639    3.8834   -6.2690 H   0  0  0  0  0  0
   32.1535    3.4289   -7.3495 H   0  0  0  0  0  0
  1  2  2  0  0  0
  1  4  1  0  0  0
  1 30  1  0  0  0
  2  3  1  0  0  0
  2 31  1  0  0  0
  3 12  1  0  0  0
  3  6  2  0  0  0
  4  5  2  0  0  0
  4 13  1  0  0  0
  5 10  1  0  0  0
  5  6  1  0  0  0
  6  7  1  0  0  0
  7  8  1  0  0  0
  7 32  1  0  0  0
  8  9  1  0  0  0
  8 11  2  0  0  0
  9 10  2  0  0  0
  9 33  1  0  0  0
 10 34  1  0  0  0
 12 35  1  0  0  0
 13 14  1  0  0  0
 13 17  1  0  0  0
 13 36  1  0  0  0
 14 15  1  0  0  0
 14 37  1  0  0  0
 14 38  1  0  0  0
 15 16  1  0  0  0
 15 39  1  0  0  0
 16 18  1  0  0  0
 16 19  1  0  0  0
 16 40  1  0  0  0
 17 41  1  0  0  0
 18 21  1  0  0  0
 18 42  1  0  0  0
 18 43  1  0  0  0
 19 20  1  0  0  0
 19 44  1  0  0  0
 19 45  1  0  0  0
 20 21  2  0  0  0
 20 25  1  0  0  0
 21 22  1  0  0  0
 22 23  2  0  0  0
 22 46  1  0  0  0
 23 24  1  0  0  0
 23 28  1  0  0  0
 24 25  2  0  0  0
 24 26  1  0  0  0
 25 47  1  0  0  0
 26 27  1  0  0  0
 26 48  1  0  0  0
 26 49  1  0  0  0
 27 50  1  0  0  0
 27 51  1  0  0  0
 27 52  1  0  0  0
 28 29  1  0  0  0
 28 53  1  0  0  0
 28 54  1  0  0  0
 29 55  1  0  0  0
 29 56  1  0  0  0
 29 57  1  0  0  0
 30 58  1  0  0  0
 30 59  1  0  0  0
 30 60  1  0  0  0
M  END
> <s_m_entry_id>
3114

> <s_m_entry_name>
dock_pv.206

> <s_m_Source_Path>
/home/csk/Desktop/cluster/DUD-E-result/adrb1

> <s_m_Source_File>
dock_pv.maegz

> <i_m_Source_File_Index>
206

> <chembl_id>
CHEMBL2088195

> <chembl_pref_name>
None

> <i_lp_mmshare_version>
53161

> <i_f3d_flags>
0

> <r_lp_tautomer_probability>
1

> <s_lp_Force_Field>
OPLS_2005

> <r_lp_Energy>
49.08462

> <b_lp_Chiralities_Consistent>
1

> <s_lp_Variant>
CHEMBL213_lig1434-2

> <s_i_glide_gridfile>
glide-grid_2vt4

> <i_i_glide_lignum>
1766

> <i_i_glide_rotatable_bonds>
8

> <r_i_docking_score>
-7.51745917100061

> <r_i_glide_ligand_efficiency>
-0.250581972366687

> <r_i_glide_ligand_efficiency_sa>
-0.778616449061058

> <r_i_glide_ligand_efficiency_ln>
-1.70804863292942

> <r_i_glide_gscore>
-7.51745917100061

> <r_i_glide_lipo>
-3.15639625717033

> <r_i_glide_hbond>
-0.456

> <r_i_glide_metal>
0

> <r_i_glide_rewards>
-1.44571537878788

> <r_i_glide_evdw>
-38.8296127319336

> <r_i_glide_ecoul>
-6.43011093139648

> <r_i_glide_erotb>
0.475940606910962

> <r_i_glide_esite>
-0.0292908656472062

> <r_i_glide_emodel>
-62.1142899474636

> <r_i_glide_energy>
-45.2597236633301

> <r_i_glide_einternal>
7.95899677276611

> <i_i_glide_confnum>
3

> <i_i_glide_posenum>
322

> <r_i_glide_eff_state_penalty>
0

> <s_user_duplicate_titles>
CHEMBL213_lig1434

> <s_m_subgroup_title>
dock_pv

> <s_m_subgroupid>
dock_pv

> <b_m_subgroup_collapsed>
1

$$$$
CHEMBL213_lig682
                    3D
 Schrodinger Suite 2021-1.
 54 56  0  0  1  0            999 V2000
   29.8886    7.8423    4.9535 C   0  0  0  0  0  0
   30.8305    7.4022    4.0254 C   0  0  0  0  0  0
   30.5345    6.3361    3.1851 C   0  0  0  0  0  0
   29.3079    5.6848    3.3018 C   0  0  0  0  0  0
   28.3444    6.1072    4.2330 C   0  0  0  0  0  0
   28.6558    7.1993    5.0565 C   0  0  0  0  0  0
   31.6742    5.8500    1.9857 Cl  0  0  0  0  0  0
   26.9948    5.3687    4.3461 C   0  0  2  0  0  0
   26.1353    5.4109    3.0557 C   0  0  0  0  0  0
   26.1618    5.8503    5.3883 O   0  0  0  0  0  0
   26.7817    4.6500    1.9905 N   0  0  2  0  0  0
   26.1711    4.7382    0.6754 C   0  0  1  0  0  0
   27.2872    4.4766   -0.3566 C   0  0  0  0  0  0
   27.0576    5.1884   -1.6060 N   0  0  0  0  0  0
   28.1399    5.5711   -2.4093 C   0  0  0  0  0  0
   29.4184    4.9910   -2.3357 C   0  0  0  0  0  0
   30.4714    5.4501   -3.1449 C   0  0  0  0  0  0
   30.2175    6.5156   -4.0150 C   0  0  0  0  0  0
   28.9667    7.1244   -4.0507 C   0  0  0  0  0  0
   27.9214    6.6314   -3.2823 C   0  0  0  0  0  0
   25.0091    3.7381    0.5921 C   0  0  0  0  0  0
   31.8400    4.8468   -3.0799 C   0  0  0  0  0  0
   32.8283    5.7433   -2.8039 N   0  0  0  0  0  0
   34.1086    5.3082   -2.7006 C   0  0  0  0  0  0
   34.4635    3.9723   -2.8661 C   0  0  0  0  0  0
   33.4575    3.0514   -3.1535 C   0  0  0  0  0  0
   32.1266    3.4784   -3.2686 C   0  0  0  0  0  0
   31.0618    2.4769   -3.5931 C   0  0  0  0  0  0
   31.0080    1.4496   -2.7090 O   0  0  0  0  0  0
   30.2632    2.6230   -4.5147 O   0  0  0  0  0  0
   30.1170    8.6873    5.5848 H   0  0  0  0  0  0
   31.7899    7.8866    3.9394 H   0  0  0  0  0  0
   29.1332    4.8351    2.6631 H   0  0  0  0  0  0
   27.9445    7.5659    5.7792 H   0  0  0  0  0  0
   27.2082    4.3294    4.6013 H   0  0  0  0  0  0
   25.1485    4.9841    3.2475 H   0  0  0  0  0  0
   25.9980    6.4524    2.7617 H   0  0  0  0  0  0
   26.6774    5.8986    6.1965 H   0  0  0  0  0  0
   26.7867    3.6744    2.2497 H   0  0  0  0  0  0
   25.8097    5.7529    0.5078 H   0  0  0  0  0  0
   28.2305    4.8456    0.0516 H   0  0  0  0  0  0
   27.4415    3.4133   -0.5425 H   0  0  0  0  0  0
   26.1681    5.0383   -2.0846 H   0  0  0  0  0  0
   29.5993    4.1710   -1.6564 H   0  0  0  0  0  0
   31.0069    6.8953   -4.6448 H   0  0  0  0  0  0
   28.7996    7.9731   -4.7000 H   0  0  0  0  0  0
   26.9518    7.1039   -3.3425 H   0  0  0  0  0  0
   24.6075    3.7187   -0.4150 H   0  0  0  0  0  0
   25.3250    2.7221    0.8299 H   0  0  0  0  0  0
   24.1935    4.0053    1.2644 H   0  0  0  0  0  0
   34.8599    6.0545   -2.4833 H   0  0  0  0  0  0
   35.4935    3.6584   -2.7744 H   0  0  0  0  0  0
   33.7169    2.0103   -3.2759 H   0  0  0  0  0  0
   30.1527    1.0228   -2.8149 H   0  0  0  0  0  0
  1  6  1  0  0  0
  1  2  2  0  0  0
  1 31  1  0  0  0
  2  3  1  0  0  0
  2 32  1  0  0  0
  3  4  2  0  0  0
  3  7  1  0  0  0
  4  5  1  0  0  0
  4 33  1  0  0  0
  5  8  1  0  0  0
  5  6  2  0  0  0
  6 34  1  0  0  0
  8  9  1  0  0  0
  8 10  1  0  0  0
  8 35  1  0  0  0
  9 11  1  0  0  0
  9 36  1  0  0  0
  9 37  1  0  0  0
 10 38  1  0  0  0
 11 12  1  0  0  0
 11 39  1  0  0  0
 12 21  1  0  0  0
 12 13  1  0  0  0
 12 40  1  0  0  0
 13 14  1  0  0  0
 13 41  1  0  0  0
 13 42  1  0  0  0
 14 15  1  0  0  0
 14 43  1  0  0  0
 15 16  2  0  0  0
 15 20  1  0  0  0
 16 17  1  0  0  0
 16 44  1  0  0  0
 17 18  2  0  0  0
 17 22  1  0  0  0
 18 19  1  0  0  0
 18 45  1  0  0  0
 19 20  2  0  0  0
 19 46  1  0  0  0
 20 47  1  0  0  0
 21 48  1  0  0  0
 21 49  1  0  0  0
 21 50  1  0  0  0
 22 23  2  0  0  0
 22 27  1  0  0  0
 23 24  1  0  0  0
 24 25  2  0  0  0
 24 51  1  0  0  0
 25 26  1  0  0  0
 25 52  1  0  0  0
 26 27  2  0  0  0
 26 53  1  0  0  0
 27 28  1  0  0  0
 28 29  1  0  0  0
 28 30  2  0  0  0
 29 54  1  0  0  0
M  END
> <s_m_entry_id>
3115

> <s_m_entry_name>
dock_pv.207

> <s_m_Source_Path>
/home/csk/Desktop/cluster/DUD-E-result/adrb1

> <s_m_Source_File>
dock_pv.maegz

> <i_m_Source_File_Index>
207

> <chembl_id>
CHEMBL208328

> <chembl_pref_name>
None

> <i_lp_mmshare_version>
53161

> <i_f3d_flags>
0

> <r_lp_tautomer_probability>
1

> <s_lp_Force_Field>
OPLS_2005

> <r_lp_Energy>
35.162724

> <b_lp_Chiralities_Consistent>
1

> <s_lp_Variant>
CHEMBL213_lig682-1

> <s_i_glide_gridfile>
glide-grid_2vt4

> <i_i_glide_lignum>
784

> <i_i_glide_rotatable_bonds>
11

> <r_i_docking_score>
-7.51426948326006

> <r_i_glide_ligand_efficiency>
-0.250475649442002

> <r_i_glide_ligand_efficiency_sa>
-0.778286079013724

> <r_i_glide_ligand_efficiency_ln>
-1.70732390112034

> <r_i_glide_gscore>
-7.51426948326006

> <r_i_glide_lipo>
-3.21376650414066

> <r_i_glide_hbond>
-0.440379283810867

> <r_i_glide_metal>
0

> <r_i_glide_rewards>
-1.47717353730816

> <r_i_glide_evdw>
-45.7987403869629

> <r_i_glide_ecoul>
-6.00163316726685

> <r_i_glide_erotb>
0.875046483536935

> <r_i_glide_esite>
-0.0678146470991366

> <r_i_glide_emodel>
-67.6262065027376

> <r_i_glide_energy>
-51.8003735542297

> <r_i_glide_einternal>
16.6819705963135

> <i_i_glide_confnum>
148

> <i_i_glide_posenum>
40

> <r_i_glide_eff_state_penalty>
0

> <s_user_duplicate_titles>
CHEMBL213_lig682

> <s_m_subgroup_title>
dock_pv

> <s_m_subgroupid>
dock_pv

> <b_m_subgroup_collapsed>
1

$$$$
CHEMBL213_lig1209 
                    3D
 Schrodinger Suite 2021-1.
 75 77  0  0  1  0            999 V2000
   24.0549    4.1362    3.0067 C   0  0  0  0  0  0
   24.8040    4.7897    3.9844 C   0  0  0  0  0  0
   25.9133    4.2498    1.4375 C   0  0  0  0  0  0
   24.6054    3.8514    1.7597 C   0  0  0  0  0  0
   26.6861    4.8799    2.4394 C   0  0  0  0  0  0
   26.1239    5.1609    3.7034 C   0  0  0  0  0  0
   26.9046    5.8132    4.6865 N   0  0  0  0  0  0
   28.2077    6.1559    4.5961 C   0  0  0  0  0  0
   28.7935    5.8475    3.3040 C   0  0  0  0  0  0
   28.1102    5.2588    2.2946 C   0  0  0  0  0  0
   28.8202    6.6500    5.5377 O   0  0  0  0  0  0
   24.2076    5.1015    5.1850 O   0  0  0  0  0  0
   26.4463    4.0018    0.0097 C   0  0  2  0  0  0
   26.5269    5.2820   -0.8713 C   0  0  0  0  0  0
   25.7166    3.0328   -0.7168 O   0  0  0  0  0  0
   27.8098    5.9845   -0.8336 N   0  0  1  0  0  0
   28.9535    5.2527   -1.3838 C   0  0  0  0  0  0
   28.9024    4.9966   -2.9069 C   0  0  0  0  0  0
   29.9659    3.9917   -3.4156 C   0  0  0  0  0  0
   31.4178    4.4600   -3.3477 C   0  0  0  0  0  0
   32.0644    4.5919   -2.1145 C   0  0  0  0  0  0
   33.4001    4.9929   -2.0401 C   0  0  0  0  0  0
   34.1186    5.2161   -3.2232 C   0  0  0  0  0  0
   33.4902    5.0500   -4.4593 C   0  0  0  0  0  0
   32.1407    4.6961   -4.5219 C   0  0  0  0  0  0
   33.9806    5.0501   -0.7648 N   0  0  0  0  0  0
   35.0182    5.8013   -0.3447 C   0  0  0  0  0  0
   35.5636    5.4434    1.0515 C   0  0  0  0  0  0
   35.5316    6.7096   -0.9974 O   0  0  0  0  0  0
   35.5042    6.5785    2.1161 C   0  0  1  0  0  0
   35.4590    5.9904    3.5641 C   0  0  0  0  0  0
   36.6874    7.5575    1.9341 C   0  0  0  0  0  0
   34.6304    6.7400    4.6536 C   0  0  0  0  0  0
   34.7532    5.9512    5.9779 C   0  0  0  0  0  0
   33.1305    6.7977    4.2672 C   0  0  0  0  0  0
   35.1502    8.1718    4.9018 C   0  0  0  0  0  0
   23.0321    3.8500    3.2038 H   0  0  0  0  0  0
   23.9834    3.3608    1.0240 H   0  0  0  0  0  0
   26.4846    6.0242    5.5789 H   0  0  0  0  0  0
   29.8348    6.0972    3.1717 H   0  0  0  0  0  0
   28.6382    5.0501    1.3781 H   0  0  0  0  0  0
   23.2468    5.0547    5.1596 H   0  0  0  0  0  0
   27.4082    3.5116    0.0831 H   0  0  0  0  0  0
   25.7334    5.9695   -0.5767 H   0  0  0  0  0  0
   26.3249    5.0567   -1.9148 H   0  0  0  0  0  0
   25.2542    3.4592   -1.4527 H   0  0  0  0  0  0
   27.7240    6.8926   -1.2730 H   0  0  0  0  0  0
   29.1041    4.3160   -0.8492 H   0  0  0  0  0  0
   29.8367    5.8500   -1.1656 H   0  0  0  0  0  0
   28.9869    5.9386   -3.4515 H   0  0  0  0  0  0
   27.9341    4.5771   -3.1818 H   0  0  0  0  0  0
   29.7270    3.7257   -4.4469 H   0  0  0  0  0  0
   29.8808    3.0544   -2.8628 H   0  0  0  0  0  0
   31.5247    4.3662   -1.2092 H   0  0  0  0  0  0
   35.1641    5.4899   -3.2003 H   0  0  0  0  0  0
   34.0495    5.2188   -5.3688 H   0  0  0  0  0  0
   31.6686    4.5865   -5.4860 H   0  0  0  0  0  0
   33.5648    4.4405   -0.0792 H   0  0  0  0  0  0
   36.5822    5.0671    0.9480 H   0  0  0  0  0  0
   35.0070    4.5761    1.4105 H   0  0  0  0  0  0
   34.5853    7.1395    1.9495 H   0  0  0  0  0  0
   36.4804    5.8512    3.9197 H   0  0  0  0  0  0
   35.0540    4.9773    3.5286 H   0  0  0  0  0  0
   37.6409    7.0568    2.1001 H   0  0  0  0  0  0
   36.7154    7.9727    0.9267 H   0  0  0  0  0  0
   36.6435    8.4030    2.6173 H   0  0  0  0  0  0
   34.2080    6.4384    6.7849 H   0  0  0  0  0  0
   35.7919    5.8599    6.2998 H   0  0  0  0  0  0
   34.3485    4.9415    5.8825 H   0  0  0  0  0  0
   32.9473    7.4577    3.4193 H   0  0  0  0  0  0
   32.7419    5.8124    4.0034 H   0  0  0  0  0  0
   32.5187    7.1738    5.0881 H   0  0  0  0  0  0
   35.0057    8.8140    4.0343 H   0  0  0  0  0  0
   34.6171    8.6444    5.7305 H   0  0  0  0  0  0
   36.2132    8.1812    5.1459 H   0  0  0  0  0  0
  1  2  2  0  0  0
  1  4  1  0  0  0
  1 37  1  0  0  0
  2  6  1  0  0  0
  2 12  1  0  0  0
  3  5  1  0  0  0
  3  4  2  0  0  0
  3 13  1  0  0  0
  4 38  1  0  0  0
  5  6  2  0  0  0
  5 10  1  0  0  0
  6  7  1  0  0  0
  7  8  1  0  0  0
  7 39  1  0  0  0
  8  9  1  0  0  0
  8 11  2  0  0  0
  9 10  2  0  0  0
  9 40  1  0  0  0
 10 41  1  0  0  0
 12 42  1  0  0  0
 13 14  1  0  0  0
 13 15  1  0  0  0
 13 43  1  0  0  0
 14 16  1  0  0  0
 14 44  1  0  0  0
 14 45  1  0  0  0
 15 46  1  0  0  0
 16 17  1  0  0  0
 16 47  1  0  0  0
 17 18  1  0  0  0
 17 48  1  0  0  0
 17 49  1  0  0  0
 18 19  1  0  0  0
 18 50  1  0  0  0
 18 51  1  0  0  0
 19 20  1  0  0  0
 19 52  1  0  0  0
 19 53  1  0  0  0
 20 21  2  0  0  0
 20 25  1  0  0  0
 21 22  1  0  0  0
 21 54  1  0  0  0
 22 23  2  0  0  0
 22 26  1  0  0  0
 23 24  1  0  0  0
 23 55  1  0  0  0
 24 25  2  0  0  0
 24 56  1  0  0  0
 25 57  1  0  0  0
 26 27  1  0  0  0
 26 58  1  0  0  0
 27 28  1  0  0  0
 27 29  2  0  0  0
 28 30  1  0  0  0
 28 59  1  0  0  0
 28 60  1  0  0  0
 30 31  1  0  0  0
 30 32  1  0  0  0
 30 61  1  0  0  0
 31 33  1  0  0  0
 31 62  1  0  0  0
 31 63  1  0  0  0
 32 64  1  0  0  0
 32 65  1  0  0  0
 32 66  1  0  0  0
 33 34  1  0  0  0
 33 35  1  0  0  0
 33 36  1  0  0  0
 34 67  1  0  0  0
 34 68  1  0  0  0
 34 69  1  0  0  0
 35 70  1  0  0  0
 35 71  1  0  0  0
 35 72  1  0  0  0
 36 73  1  0  0  0
 36 74  1  0  0  0
 36 75  1  0  0  0
M  END
> <s_m_entry_id>
3116

> <s_m_entry_name>
dock_pv.208

> <s_m_Source_Path>
/home/csk/Desktop/cluster/DUD-E-result/adrb1

> <s_m_Source_File>
dock_pv.maegz

> <i_m_Source_File_Index>
208

> <chembl_id>
CHEMBL4576089

> <chembl_pref_name>
None

> <i_lp_mmshare_version>
53161

> <i_f3d_flags>
0

> <r_lp_tautomer_probability>
1

> <s_lp_Force_Field>
OPLS_2005

> <r_lp_Energy>
42.919843

> <b_lp_Chiralities_Consistent>
1

> <s_lp_Variant>
CHEMBL213_lig1209 -3

> <s_i_glide_gridfile>
glide-grid_2vt4

> <i_i_glide_lignum>
1429

> <i_i_glide_rotatable_bonds>
15

> <r_i_docking_score>
-7.50932266888785

> <r_i_glide_ligand_efficiency>
-0.208592296357996

> <r_i_glide_ligand_efficiency_sa>
-0.688756586431246

> <r_i_glide_ligand_efficiency_ln>
-1.63833132789831

> <r_i_glide_gscore>
-7.50932266888785

> <r_i_glide_lipo>
-3.23445514307799

> <r_i_glide_hbond>
-0.602787903626156

> <r_i_glide_metal>
0

> <r_i_glide_rewards>
-0.879267034629082

> <r_i_glide_evdw>
-49.508903503418

> <r_i_glide_ecoul>
-8.8042459487915

> <r_i_glide_erotb>
1.00326947993501

> <r_i_glide_esite>
0

> <r_i_glide_emodel>
-79.4128421468232

> <r_i_glide_energy>
-58.3131494522095

> <r_i_glide_einternal>
10.4461860656738

> <i_i_glide_confnum>
157

> <i_i_glide_posenum>
220

> <r_i_glide_eff_state_penalty>
0

> <s_user_duplicate_titles>
CHEMBL213_lig1209 

> <s_m_subgroup_title>
dock_pv

> <s_m_subgroupid>
dock_pv

> <b_m_subgroup_collapsed>
1

$$$$
CHEMBL213_lig602
                    3D
 Schrodinger Suite 2021-1.
 76 79  0  0  1  0            999 V2000
   34.4455    3.5730   -3.5750 C   0  0  0  0  0  0
   31.6330    4.2961   -4.9011 C   0  0  0  0  0  0
   35.6985    3.6358   -3.0386 N   0  0  0  0  0  0
   34.1397    4.5602   -4.4401 N   0  0  0  0  0  0
   33.0486    4.5653   -5.4201 C   0  0  0  0  0  0
   31.1344    4.9757   -3.7796 C   0  0  0  0  0  0
   30.8016    3.3836   -5.5668 C   0  0  0  0  0  0
   36.6242    4.7832   -3.1807 C   0  0  0  0  0  0
   36.1865    2.5759   -2.1374 C   0  0  0  0  0  0
   33.6614    2.6516   -3.3308 O   0  0  0  0  0  0
   37.1211    5.1553    0.6137 N   0  0  0  0  0  0
   36.3684    3.1522   -0.7135 C   0  0  0  0  0  0
   36.6905    5.4851   -1.8118 C   0  0  0  0  0  0
   37.1383    4.5050   -0.7010 C   0  0  0  0  0  0
   26.1135    5.3403    3.9857 O   0  0  0  0  0  0
   35.9830    5.6233    1.2944 C   0  0  0  0  0  0
   25.9193    4.7721    2.7402 C   0  0  0  0  0  0
   27.7945    7.0491    4.6749 C   0  0  1  0  0  0
   31.2452    2.7162   -6.6586 F   0  0  0  0  0  0
   31.9126    5.8499   -3.1043 F   0  0  0  0  0  0
   25.5480    3.3722    0.3461 C   0  0  0  0  0  0
   26.3855    6.7383    4.0965 C   0  0  0  0  0  0
   30.2356    7.0774    4.1469 N   0  0  2  0  0  0
   33.8009    6.5790    2.7693 C   0  0  0  0  0  0
   36.1860    6.2946    2.5025 C   0  0  0  0  0  0
   34.6780    5.4498    0.8249 C   0  0  0  0  0  0
   26.6091    5.1524    1.5791 C   0  0  0  0  0  0
   25.0079    3.7221    2.6688 C   0  0  0  0  0  0
   24.8174    3.0197    1.4802 C   0  0  0  0  0  0
   26.4254    4.4519    0.3880 C   0  0  0  0  0  0
   35.1026    6.7828    3.2317 C   0  0  0  0  0  0
   33.5959    5.8829    1.5735 C   0  0  0  0  0  0
   27.8889    6.6463    6.0296 O   0  0  0  0  0  0
   25.4080    2.6502   -0.8086 O   0  0  0  0  0  0
   29.0087    3.8504   -4.0149 C   0  0  0  0  0  0
   29.5000    3.1576   -5.1201 C   0  0  0  0  0  0
   29.8285    4.7545   -3.3423 C   0  0  0  0  0  0
   28.9527    6.4489    3.8478 C   0  0  0  0  0  0
   31.2637    6.5467    3.2575 C   0  0  0  0  0  0
   32.6287    7.2070    3.5162 C   0  0  0  0  0  0
   34.8479    5.2646   -4.5875 H   0  0  0  0  0  0
   33.0399    5.5514   -5.8876 H   0  0  0  0  0  0
   33.3126    3.8714   -6.2214 H   0  0  0  0  0  0
   37.6040    4.3675   -3.4278 H   0  0  0  0  0  0
   36.4115    5.4494   -4.0173 H   0  0  0  0  0  0
   37.1537    2.2774   -2.5210 H   0  0  0  0  0  0
   35.5786    1.6731   -2.1752 H   0  0  0  0  0  0
   38.0058    5.5512    0.8997 H   0  0  0  0  0  0
   36.9347    2.4277   -0.1279 H   0  0  0  0  0  0
   35.4074    3.1801   -0.2152 H   0  0  0  0  0  0
   35.7375    5.9681   -1.6012 H   0  0  0  0  0  0
   37.4114    6.3010   -1.8789 H   0  0  0  0  0  0
   38.1909    4.2814   -0.8780 H   0  0  0  0  0  0
   27.9038    8.1338    4.6758 H   0  0  0  0  0  0
   26.2077    7.2606    3.1569 H   0  0  0  0  0  0
   25.6318    7.1468    4.7715 H   0  0  0  0  0  0
   30.4957    6.9335    5.1108 H   0  0  0  0  0  0
   37.1875    6.4557    2.8734 H   0  0  0  0  0  0
   34.4639    4.9837   -0.1213 H   0  0  0  0  0  0
   27.2982    5.9780    1.5790 H   0  0  0  0  0  0
   24.4650    3.4498    3.5577 H   0  0  0  0  0  0
   24.1278    2.1908    1.4444 H   0  0  0  0  0  0
   26.9775    4.7330   -0.4966 H   0  0  0  0  0  0
   35.2765    7.3341    4.1454 H   0  0  0  0  0  0
   32.6092    5.7335    1.1644 H   0  0  0  0  0  0
   27.3536    7.2547    6.5595 H   0  0  0  0  0  0
   24.7578    3.0505   -1.4083 H   0  0  0  0  0  0
   27.9999    3.6704   -3.6681 H   0  0  0  0  0  0
   28.8671    2.4482   -5.6338 H   0  0  0  0  0  0
   29.4556    5.2802   -2.4762 H   0  0  0  0  0  0
   28.9918    5.3631    3.9791 H   0  0  0  0  0  0
   28.7570    6.6483    2.7986 H   0  0  0  0  0  0
   31.3473    5.4600    3.3322 H   0  0  0  0  0  0
   30.9943    6.7433    2.2193 H   0  0  0  0  0  0
   32.5790    8.2498    3.1865 H   0  0  0  0  0  0
   32.8483    7.2017    4.5849 H   0  0  0  0  0  0
  1  3  1  0  0  0
  1  4  1  0  0  0
  1 10  2  0  0  0
  2  5  1  0  0  0
  2  6  2  0  0  0
  2  7  1  0  0  0
  3  8  1  0  0  0
  3  9  1  0  0  0
  4  5  1  0  0  0
  4 41  1  0  0  0
  5 42  1  0  0  0
  5 43  1  0  0  0
  6 20  1  0  0  0
  6 37  1  0  0  0
  7 19  1  0  0  0
  7 36  2  0  0  0
  8 13  1  0  0  0
  8 44  1  0  0  0
  8 45  1  0  0  0
  9 12  1  0  0  0
  9 46  1  0  0  0
  9 47  1  0  0  0
 11 14  1  0  0  0
 11 16  1  0  0  0
 11 48  1  0  0  0
 12 14  1  0  0  0
 12 49  1  0  0  0
 12 50  1  0  0  0
 13 14  1  0  0  0
 13 51  1  0  0  0
 13 52  1  0  0  0
 14 53  1  0  0  0
 15 22  1  0  0  0
 15 17  1  0  0  0
 16 25  1  0  0  0
 16 26  2  0  0  0
 17 27  1  0  0  0
 17 28  2  0  0  0
 18 38  1  0  0  0
 18 22  1  0  0  0
 18 33  1  0  0  0
 18 54  1  0  0  0
 21 29  2  0  0  0
 21 34  1  0  0  0
 21 30  1  0  0  0
 22 55  1  0  0  0
 22 56  1  0  0  0
 23 39  1  0  0  0
 23 38  1  0  0  0
 23 57  1  0  0  0
 24 32  2  0  0  0
 24 40  1  0  0  0
 24 31  1  0  0  0
 25 31  2  0  0  0
 25 58  1  0  0  0
 26 32  1  0  0  0
 26 59  1  0  0  0
 27 30  2  0  0  0
 27 60  1  0  0  0
 28 29  1  0  0  0
 28 61  1  0  0  0
 29 62  1  0  0  0
 30 63  1  0  0  0
 31 64  1  0  0  0
 32 65  1  0  0  0
 33 66  1  0  0  0
 34 67  1  0  0  0
 35 36  1  0  0  0
 35 37  2  0  0  0
 35 68  1  0  0  0
 36 69  1  0  0  0
 37 70  1  0  0  0
 38 71  1  0  0  0
 38 72  1  0  0  0
 39 40  1  0  0  0
 39 73  1  0  0  0
 39 74  1  0  0  0
 40 75  1  0  0  0
 40 76  1  0  0  0
M  END
> <s_m_entry_id>
3117

> <s_m_entry_name>
dock_pv.209

> <s_m_Source_Path>
/home/csk/Desktop/cluster/DUD-E-result/adrb1

> <s_m_Source_File>
dock_pv.maegz

> <i_m_Source_File_Index>
209

> <chembl_id>
CHEMBL106884

> <chembl_pref_name>
None

> <i_lp_mmshare_version>
53161

> <i_f3d_flags>
0

> <r_lp_tautomer_probability>
1

> <s_lp_Force_Field>
OPLS_2005

> <r_lp_Energy>
54.84777

> <b_lp_Chiralities_Consistent>
1

> <s_lp_Variant>
CHEMBL213_lig602-1

> <s_i_glide_gridfile>
glide-grid_2vt4

> <i_i_glide_lignum>
702

> <i_i_glide_rotatable_bonds>
16

> <r_i_docking_score>
-7.50581483101271

> <r_i_glide_ligand_efficiency>
-0.187645370775318

> <r_i_glide_ligand_efficiency_sa>
-0.641738140272949

> <r_i_glide_ligand_efficiency_ln>
-1.600769417185

> <r_i_glide_gscore>
-7.50581483101271

> <r_i_glide_lipo>
-2.94144683310376

> <r_i_glide_hbond>
-0.448067873248954

> <r_i_glide_metal>
0

> <r_i_glide_rewards>
-0.362135212350815

> <r_i_glide_evdw>
-52.7184753417969

> <r_i_glide_ecoul>
-12.6147909164429

> <r_i_glide_erotb>
0.803503953708879

> <r_i_glide_esite>
-0.0295264614617805

> <r_i_glide_emodel>
-87.4261949766575

> <r_i_glide_energy>
-65.3332662582397

> <r_i_glide_einternal>
17.8550415039062

> <i_i_glide_confnum>
54

> <i_i_glide_posenum>
374

> <r_i_glide_eff_state_penalty>
0

> <s_user_duplicate_titles>
CHEMBL213_lig602,173395

> <s_m_subgroup_title>
dock_pv

> <s_m_subgroupid>
dock_pv

> <b_m_subgroup_collapsed>
1

$$$$
CHEMBL213_lig652
                    3D
 Schrodinger Suite 2021-1.
 66 69  0  0  1  0            999 V2000
   27.4080    5.3488    5.0460 S   0  0  0  0  0  0
   35.8277    4.2371   -2.2928 S   0  0  0  0  0  0
   32.0199    4.4632   -2.0150 N   0  0  0  0  0  0
   32.5269    4.3808   -3.2892 C   0  0  0  0  0  0
   30.4336    5.3735   -3.3434 C   0  0  0  0  0  0
   31.5581    4.9725   -4.1510 C   0  0  0  0  0  0
   33.7331    3.8604   -3.7673 C   0  0  0  0  0  0
   30.7826    5.0500   -2.0415 C   0  0  0  0  0  0
   25.9803    5.8291    4.1612 N   0  0  0  0  0  0
   34.6139    3.2719   -2.9023 O   0  0  0  0  0  0
   27.1838    5.8500    6.3980 O   0  0  0  0  0  0
   27.6480    3.9255    4.7850 O   0  0  0  0  0  0
   28.8068    6.2226    4.3767 C   0  0  0  0  0  0
   35.2311    5.4776   -1.7825 O   0  0  0  0  0  0
   36.9287    4.2500   -3.2593 O   0  0  0  0  0  0
   25.7102    3.9993    0.9870 C   0  0  0  0  0  0
   29.1603    6.0170   -3.8769 C   0  0  0  0  0  0
   25.4981    4.9698    3.1850 C   0  0  0  0  0  0
   26.2080    4.8169    1.9989 C   0  0  0  0  0  0
   27.6439    5.0544   -2.1760 N   0  0  1  0  0  0
   26.8055    5.2231   -0.9861 C   0  0  0  0  0  0
   26.4931    3.8663   -0.3086 C   0  0  2  0  0  0
   36.2860    3.1510   -0.8353 C   0  0  0  0  0  0
   28.0315    6.2878   -2.8519 C   0  0  2  0  0  0
   33.9810    3.9640   -5.1354 C   0  0  0  0  0  0
   31.8460    5.0500   -5.5232 C   0  0  0  0  0  0
   25.8126    3.0500   -1.2150 O   0  0  0  0  0  0
   33.0601    4.5533   -5.9982 C   0  0  0  0  0  0
   24.5019    3.3131    1.1926 C   0  0  0  0  0  0
   23.8080    3.4499    2.3850 C   0  0  0  0  0  0
   24.3084    4.2711    3.3853 C   0  0  0  0  0  0
   29.4565    5.7132    3.2484 C   0  0  0  0  0  0
   29.3343    7.3050    5.0795 C   0  0  0  0  0  0
   26.8055    6.8925   -3.5600 C   0  0  0  0  0  0
   30.6800    6.2500    2.8589 C   0  0  0  0  0  0
   30.5585    7.8293    4.6920 C   0  0  0  0  0  0
   31.2253    7.3048    3.5850 C   0  0  0  0  0  0
   32.4706    4.1569   -1.1650 H   0  0  0  0  0  0
   30.2415    5.1914   -1.1163 H   0  0  0  0  0  0
   25.3046    6.2974    4.7452 H   0  0  0  0  0  0
   29.4210    6.9605   -4.3597 H   0  0  0  0  0  0
   28.7588    5.3900   -4.6744 H   0  0  0  0  0  0
   27.1227    5.3666    1.8501 H   0  0  0  0  0  0
   28.3822    4.3669   -2.0991 H   0  0  0  0  0  0
   27.3242    5.8828   -0.2905 H   0  0  0  0  0  0
   25.8581    5.7011   -1.2367 H   0  0  0  0  0  0
   27.4226    3.3581   -0.0667 H   0  0  0  0  0  0
   37.1168    3.6174   -0.3087 H   0  0  0  0  0  0
   36.5993    2.1797   -1.2145 H   0  0  0  0  0  0
   35.4226    3.0501   -0.1810 H   0  0  0  0  0  0
   28.4027    6.9953   -2.1094 H   0  0  0  0  0  0
   34.9151    3.5886   -5.5284 H   0  0  0  0  0  0
   31.1417    5.5131   -6.1973 H   0  0  0  0  0  0
   25.4864    3.6033   -1.9496 H   0  0  0  0  0  0
   33.2948    4.6299   -7.0506 H   0  0  0  0  0  0
   24.0808    2.6722    0.4309 H   0  0  0  0  0  0
   22.8825    2.9199    2.5338 H   0  0  0  0  0  0
   23.7584    4.3826    4.3082 H   0  0  0  0  0  0
   29.0743    4.8444    2.7334 H   0  0  0  0  0  0
   28.8366    7.6977    5.9556 H   0  0  0  0  0  0
   27.0570    7.8494   -4.0152 H   0  0  0  0  0  0
   26.4381    6.2385   -4.3524 H   0  0  0  0  0  0
   25.9748    7.0580   -2.8770 H   0  0  0  0  0  0
   31.2127    5.8403    2.0133 H   0  0  0  0  0  0
   30.9993    8.6390    5.2533 H   0  0  0  0  0  0
   32.1772    7.7234    3.2894 H   0  0  0  0  0  0
  1  9  1  0  0  0
  1 11  2  0  0  0
  1 12  2  0  0  0
  1 13  1  0  0  0
  2 10  1  0  0  0
  2 14  2  0  0  0
  2 15  2  0  0  0
  2 23  1  0  0  0
  3  8  1  0  0  0
  3  4  1  0  0  0
  3 38  1  0  0  0
  4  6  2  0  0  0
  4  7  1  0  0  0
  5 17  1  0  0  0
  5  6  1  0  0  0
  5  8  2  0  0  0
  6 26  1  0  0  0
  7 10  1  0  0  0
  7 25  2  0  0  0
  8 39  1  0  0  0
  9 18  1  0  0  0
  9 40  1  0  0  0
 13 32  2  0  0  0
 13 33  1  0  0  0
 16 19  2  0  0  0
 16 22  1  0  0  0
 16 29  1  0  0  0
 17 24  1  0  0  0
 17 41  1  0  0  0
 17 42  1  0  0  0
 18 19  1  0  0  0
 18 31  2  0  0  0
 19 43  1  0  0  0
 20 21  1  0  0  0
 20 24  1  0  0  0
 20 44  1  0  0  0
 21 22  1  0  0  0
 21 45  1  0  0  0
 21 46  1  0  0  0
 22 27  1  0  0  0
 22 47  1  0  0  0
 23 48  1  0  0  0
 23 49  1  0  0  0
 23 50  1  0  0  0
 24 34  1  0  0  0
 24 51  1  0  0  0
 25 28  1  0  0  0
 25 52  1  0  0  0
 26 28  2  0  0  0
 26 53  1  0  0  0
 27 54  1  0  0  0
 28 55  1  0  0  0
 29 30  2  0  0  0
 29 56  1  0  0  0
 30 31  1  0  0  0
 30 57  1  0  0  0
 31 58  1  0  0  0
 32 35  1  0  0  0
 32 59  1  0  0  0
 33 36  2  0  0  0
 33 60  1  0  0  0
 34 61  1  0  0  0
 34 62  1  0  0  0
 34 63  1  0  0  0
 35 37  2  0  0  0
 35 64  1  0  0  0
 36 37  1  0  0  0
 36 65  1  0  0  0
 37 66  1  0  0  0
M  END
> <s_m_entry_id>
3118

> <s_m_entry_name>
dock_pv.210

> <s_m_Source_Path>
/home/csk/Desktop/cluster/DUD-E-result/adrb1

> <s_m_Source_File>
dock_pv.maegz

> <i_m_Source_File_Index>
210

> <chembl_id>
CHEMBL181440

> <chembl_pref_name>
None

> <i_lp_mmshare_version>
53161

> <i_f3d_flags>
0

> <r_lp_tautomer_probability>
1

> <s_lp_Force_Field>
OPLS_2005

> <r_lp_Energy>
12.621445

> <b_lp_Chiralities_Consistent>
1

> <s_lp_Variant>
CHEMBL213_lig652-1

> <s_i_glide_gridfile>
glide-grid_2vt4

> <i_i_glide_lignum>
754

> <i_i_glide_rotatable_bonds>
12

> <r_i_docking_score>
-7.50226991798528

> <r_i_glide_ligand_efficiency>
-0.20276405183744

> <r_i_glide_ligand_efficiency_sa>
-0.675654803447746

> <r_i_glide_ligand_efficiency_ln>
-1.62706646705037

> <r_i_glide_gscore>
-7.50226991798528

> <r_i_glide_lipo>
-3.30530240192214

> <r_i_glide_hbond>
-0.411373258099839

> <r_i_glide_metal>
0

> <r_i_glide_rewards>
-0.839635687553151

> <r_i_glide_evdw>
-50.8216743469238

> <r_i_glide_ecoul>
-7.36058664321899

> <r_i_glide_erotb>
0.700142856835562

> <r_i_glide_esite>
-0.000929713416672126

> <r_i_glide_emodel>
-75.0444251904604

> <r_i_glide_energy>
-58.1822609901428

> <r_i_glide_einternal>
15.4453563690186

> <i_i_glide_confnum>
48

> <i_i_glide_posenum>
376

> <r_i_glide_eff_state_penalty>
0

> <s_user_duplicate_titles>
CHEMBL213_lig652,305747

> <s_m_subgroup_title>
dock_pv

> <s_m_subgroupid>
dock_pv

> <b_m_subgroup_collapsed>
1

$$$$
CHEMBL213_lig770
                    3D
 Schrodinger Suite 2021-1.
 50 52  0  0  1  0            999 V2000
   28.7522    2.0111   -5.4182 C   0  0  0  0  0  0
   28.6995    1.8437   -6.8005 C   0  0  0  0  0  0
   29.7399    2.1455   -7.6150 N   0  0  0  0  0  0
   30.8658    2.6500   -7.0468 C   0  0  0  0  0  0
   31.0080    2.8650   -5.6680 C   0  0  0  0  0  0
   29.9235    2.5164   -4.8499 C   0  0  0  0  0  0
   32.2996    3.4500   -5.0793 C   0  0  2  0  0  0
   32.2495    4.9940   -4.8712 C   0  0  0  0  0  0
   32.2373    5.4330   -3.4701 N   0  0  1  0  0  0
   31.0288    5.1314   -2.7083 C   0  0  0  0  0  0
   29.7590    5.7459   -3.3367 C   0  0  0  0  0  0
   28.5073    5.7478   -2.4638 C   0  0  0  0  0  0
   27.4711    6.6177   -2.8114 C   0  0  0  0  0  0
   26.3021    6.6500   -2.0588 C   0  0  0  0  0  0
   26.1631    5.8393   -0.9433 C   0  0  0  0  0  0
   27.1718    4.9430   -0.5903 C   0  0  0  0  0  0
   28.3417    4.8977   -1.3573 C   0  0  0  0  0  0
   33.4451    3.1465   -5.8616 O   0  0  0  0  0  0
   27.0080    4.0441    0.4382 O   0  0  0  0  0  0
   26.3424    4.4090    1.5850 C   0  0  0  0  0  0
   25.0657    3.9022    1.8328 C   0  0  0  0  0  0
   24.4041    4.2360    3.0146 C   0  0  0  0  0  0
   25.0185    5.0500    3.9684 C   0  0  0  0  0  0
   26.2986    5.5705    3.7240 C   0  0  0  0  0  0
   26.9601    5.2322    2.5337 C   0  0  0  0  0  0
   26.9722    6.4424    4.7434 C   0  0  0  0  0  0
   26.1875    7.4609    5.1850 O   0  0  0  0  0  0
   28.1211    6.2500    5.1350 O   0  0  0  0  0  0
   24.3580    5.3263    5.1237 F   0  0  0  0  0  0
   27.9018    1.7606   -4.7995 H   0  0  0  0  0  0
   27.8080    1.4607   -7.2753 H   0  0  0  0  0  0
   31.6669    2.8931   -7.7300 H   0  0  0  0  0  0
   29.9666    2.6341   -3.7787 H   0  0  0  0  0  0
   32.4865    2.9444   -4.1298 H   0  0  0  0  0  0
   31.4509    5.4603   -5.4503 H   0  0  0  0  0  0
   33.1604    5.4395   -5.2759 H   0  0  0  0  0  0
   33.0495    5.0661   -2.9886 H   0  0  0  0  0  0
   31.1582    5.5246   -1.6996 H   0  0  0  0  0  0
   30.9222    4.0592   -2.5547 H   0  0  0  0  0  0
   29.5121    5.2400   -4.2698 H   0  0  0  0  0  0
   29.9774    6.7789   -3.6150 H   0  0  0  0  0  0
   27.5604    7.2631   -3.6743 H   0  0  0  0  0  0
   25.4885    7.2977   -2.3455 H   0  0  0  0  0  0
   25.2253    5.8500   -0.4150 H   0  0  0  0  0  0
   29.1019    4.1789   -1.0925 H   0  0  0  0  0  0
   34.1827    3.6824   -5.5577 H   0  0  0  0  0  0
   24.5909    3.2616    1.1033 H   0  0  0  0  0  0
   23.4125    3.8500    3.1978 H   0  0  0  0  0  0
   27.9575    5.5991    2.3333 H   0  0  0  0  0  0
   26.6080    7.9558    5.9033 H   0  0  0  0  0  0
  1  6  1  0  0  0
  1  2  2  0  0  0
  1 30  1  0  0  0
  2  3  1  0  0  0
  2 31  1  0  0  0
  3  4  2  0  0  0
  4  5  1  0  0  0
  4 32  1  0  0  0
  5  7  1  0  0  0
  5  6  2  0  0  0
  6 33  1  0  0  0
  7  8  1  0  0  0
  7 18  1  0  0  0
  7 34  1  0  0  0
  8  9  1  0  0  0
  8 35  1  0  0  0
  8 36  1  0  0  0
  9 10  1  0  0  0
  9 37  1  0  0  0
 10 11  1  0  0  0
 10 38  1  0  0  0
 10 39  1  0  0  0
 11 12  1  0  0  0
 11 40  1  0  0  0
 11 41  1  0  0  0
 12 17  1  0  0  0
 12 13  2  0  0  0
 13 14  1  0  0  0
 13 42  1  0  0  0
 14 15  2  0  0  0
 14 43  1  0  0  0
 15 16  1  0  0  0
 15 44  1  0  0  0
 16 17  2  0  0  0
 16 19  1  0  0  0
 17 45  1  0  0  0
 18 46  1  0  0  0
 19 20  1  0  0  0
 20 21  2  0  0  0
 20 25  1  0  0  0
 21 22  1  0  0  0
 21 47  1  0  0  0
 22 23  2  0  0  0
 22 48  1  0  0  0
 23 24  1  0  0  0
 23 29  1  0  0  0
 24 25  2  0  0  0
 24 26  1  0  0  0
 25 49  1  0  0  0
 26 27  1  0  0  0
 26 28  2  0  0  0
 27 50  1  0  0  0
M  END
> <s_m_entry_id>
3119

> <s_m_entry_name>
dock_pv.211

> <s_m_Source_Path>
/home/csk/Desktop/cluster/DUD-E-result/adrb1

> <s_m_Source_File>
dock_pv.maegz

> <i_m_Source_File_Index>
211

> <chembl_id>
CHEMBL522641

> <chembl_pref_name>
None

> <i_lp_mmshare_version>
53161

> <i_f3d_flags>
0

> <r_lp_tautomer_probability>
1

> <s_lp_Force_Field>
OPLS_2005

> <r_lp_Energy>
27.103192

> <b_lp_Chiralities_Consistent>
1

> <s_lp_Variant>
CHEMBL213_lig770-1

> <s_i_glide_gridfile>
glide-grid_2vt4

> <i_i_glide_lignum>
876

> <i_i_glide_rotatable_bonds>
11

> <r_i_docking_score>
-7.50142317405369

> <r_i_glide_ligand_efficiency>
-0.258669764622541

> <r_i_glide_ligand_efficiency_sa>
-0.794715469254016

> <r_i_glide_ligand_efficiency_ln>
-1.7176356871792

> <r_i_glide_gscore>
-7.50142317405369

> <r_i_glide_lipo>
-2.52991991464189

> <r_i_glide_hbond>
-0.131371573622208

> <r_i_glide_metal>
0

> <r_i_glide_rewards>
-2.11615083312741

> <r_i_glide_evdw>
-42.0791969299316

> <r_i_glide_ecoul>
-10.7736043930054

> <r_i_glide_erotb>
0.996019652785207

> <r_i_glide_esite>
0

> <r_i_glide_emodel>
-71.169519053223

> <r_i_glide_energy>
-52.852801322937

> <r_i_glide_einternal>
11.1779317855835

> <i_i_glide_confnum>
2

> <i_i_glide_posenum>
95

> <r_i_glide_eff_state_penalty>
0

> <s_user_duplicate_titles>
CHEMBL213_lig770

> <s_m_subgroup_title>
dock_pv

> <s_m_subgroupid>
dock_pv

> <b_m_subgroup_collapsed>
1

$$$$
CHEMBL213_lig927
                    3D
 Schrodinger Suite 2021-1.
 68 71  0  0  1  0            999 V2000
   27.6516    4.7080   -1.6778 C   0  0  0  0  0  0
   29.1828    4.8129   -1.5148 C   0  0  0  0  0  0
   29.9067    4.6406   -2.6407 N   0  0  0  0  0  0
   29.6741    5.0505   -0.4097 O   0  0  0  0  0  0
   31.3053    4.7043   -2.8280 C   0  0  0  0  0  0
   32.2306    5.0599   -1.8320 C   0  0  0  0  0  0
   33.5910    5.1073   -2.1206 C   0  0  0  0  0  0
   34.0488    4.7812   -3.3961 C   0  0  0  0  0  0
   33.1356    4.4252   -4.3905 C   0  0  0  0  0  0
   31.7713    4.3915   -4.1078 C   0  0  0  0  0  0
   35.5409    4.8420   -3.7060 C   0  0  0  0  0  0
   36.3962    3.7635   -2.9956 C   0  0  0  0  0  0
   36.6081    3.9651   -1.5622 N   0  0  2  0  0  0
   37.4861    5.1073   -1.3005 C   0  0  0  0  0  0
   37.7522    5.3458    0.2046 C   0  0  1  0  0  0
   36.4836    5.6528    1.0288 C   0  0  0  0  0  0
   38.4502    4.2500    0.7850 O   0  0  0  0  0  0
   36.8658    6.2549    2.2678 O   0  0  0  0  0  0
   35.9882    6.2658    3.3332 C   0  0  0  0  0  0
   36.5155    6.6908    4.5547 C   0  0  0  0  0  0
   35.7318    6.6813    5.7040 C   0  0  0  0  0  0
   34.4100    6.2518    5.6285 C   0  0  0  0  0  0
   33.8633    5.8482    4.4149 C   0  0  0  0  0  0
   34.6480    5.8585    3.2647 C   0  0  0  0  0  0
   26.9128    4.5884   -0.3527 C   0  0  0  0  0  0
   26.1696    3.5300   -0.0644 N   0  0  0  0  0  0
   26.9325    5.4622    0.7233 C   0  0  0  0  0  0
   26.3463    4.8025    1.7719 N   0  0  0  0  0  0
   25.8071    3.6850    1.1859 C   0  0  0  0  0  0
   26.2794    5.2320    3.1726 C   0  0  0  0  0  0
   27.5710    5.8538    3.7333 C   0  0  0  0  0  0
   28.8257    5.5544    3.1818 C   0  0  0  0  0  0
   29.9599    6.2503    3.5853 C   0  0  0  0  0  0
   29.8659    7.1967    4.5982 C   0  0  0  0  0  0
   28.6413    7.4501    5.2068 C   0  0  0  0  0  0
   27.4939    6.7769    4.7836 C   0  0  0  0  0  0
   27.4256    3.8504   -2.3151 H   0  0  0  0  0  0
   27.3015    5.5854   -2.2219 H   0  0  0  0  0  0
   29.3760    4.4117   -3.4660 H   0  0  0  0  0  0
   31.9358    5.3201   -0.8303 H   0  0  0  0  0  0
   34.2897    5.3919   -1.3474 H   0  0  0  0  0  0
   33.4815    4.1782   -5.3834 H   0  0  0  0  0  0
   31.0820    4.1174   -4.8930 H   0  0  0  0  0  0
   35.6852    4.7399   -4.7831 H   0  0  0  0  0  0
   35.9048    5.8472   -3.4952 H   0  0  0  0  0  0
   35.8531    2.8193   -3.0715 H   0  0  0  0  0  0
   37.3336    3.5850   -3.5222 H   0  0  0  0  0  0
   37.1028    3.1474   -1.2152 H   0  0  0  0  0  0
   38.4400    4.9648   -1.8133 H   0  0  0  0  0  0
   37.0486    6.0210   -1.7051 H   0  0  0  0  0  0
   38.4169    6.2088    0.2748 H   0  0  0  0  0  0
   35.8407    6.3486    0.4874 H   0  0  0  0  0  0
   35.9161    4.7294    1.1649 H   0  0  0  0  0  0
   38.8614    3.7221    0.0811 H   0  0  0  0  0  0
   37.5453    7.0106    4.6119 H   0  0  0  0  0  0
   36.1499    6.9893    6.6508 H   0  0  0  0  0  0
   33.8023    6.2231    6.5206 H   0  0  0  0  0  0
   32.8376    5.5141    4.3684 H   0  0  0  0  0  0
   34.2025    5.5414    2.3340 H   0  0  0  0  0  0
   27.4030    6.4213    0.8625 H   0  0  0  0  0  0
   25.2274    2.9875    1.7695 H   0  0  0  0  0  0
   26.0064    4.3713    3.7825 H   0  0  0  0  0  0
   25.4648    5.9512    3.2399 H   0  0  0  0  0  0
   28.9291    4.8244    2.3911 H   0  0  0  0  0  0
   30.9110    6.0430    3.1177 H   0  0  0  0  0  0
   30.7504    7.7380    4.9052 H   0  0  0  0  0  0
   28.5883    8.1939    5.9868 H   0  0  0  0  0  0
   26.5438    7.0115    5.2427 H   0  0  0  0  0  0
  1  2  1  0  0  0
  1 25  1  0  0  0
  1 37  1  0  0  0
  1 38  1  0  0  0
  2  4  2  0  0  0
  2  3  1  0  0  0
  3  5  1  0  0  0
  3 39  1  0  0  0
  5 10  1  0  0  0
  5  6  2  0  0  0
  6  7  1  0  0  0
  6 40  1  0  0  0
  7  8  2  0  0  0
  7 41  1  0  0  0
  8  9  1  0  0  0
  8 11  1  0  0  0
  9 10  2  0  0  0
  9 42  1  0  0  0
 10 43  1  0  0  0
 11 12  1  0  0  0
 11 44  1  0  0  0
 11 45  1  0  0  0
 12 13  1  0  0  0
 12 46  1  0  0  0
 12 47  1  0  0  0
 13 14  1  0  0  0
 13 48  1  0  0  0
 14 15  1  0  0  0
 14 49  1  0  0  0
 14 50  1  0  0  0
 15 16  1  0  0  0
 15 17  1  0  0  0
 15 51  1  0  0  0
 16 18  1  0  0  0
 16 52  1  0  0  0
 16 53  1  0  0  0
 17 54  1  0  0  0
 18 19  1  0  0  0
 19 20  2  0  0  0
 19 24  1  0  0  0
 20 21  1  0  0  0
 20 55  1  0  0  0
 21 22  2  0  0  0
 21 56  1  0  0  0
 22 23  1  0  0  0
 22 57  1  0  0  0
 23 24  2  0  0  0
 23 58  1  0  0  0
 24 59  1  0  0  0
 25 26  1  0  0  0
 25 27  2  0  0  0
 26 29  2  0  0  0
 27 28  1  0  0  0
 27 60  1  0  0  0
 28 29  1  0  0  0
 28 30  1  0  0  0
 29 61  1  0  0  0
 30 31  1  0  0  0
 30 62  1  0  0  0
 30 63  1  0  0  0
 31 32  2  0  0  0
 31 36  1  0  0  0
 32 33  1  0  0  0
 32 64  1  0  0  0
 33 34  2  0  0  0
 33 65  1  0  0  0
 34 35  1  0  0  0
 34 66  1  0  0  0
 35 36  2  0  0  0
 35 67  1  0  0  0
 36 68  1  0  0  0
M  END
> <s_m_entry_id>
3120

> <s_m_entry_name>
dock_pv.212

> <s_m_Source_Path>
/home/csk/Desktop/cluster/DUD-E-result/adrb1

> <s_m_Source_File>
dock_pv.maegz

> <i_m_Source_File_Index>
212

> <chembl_id>
CHEMBL467301

> <chembl_pref_name>
None

> <i_lp_mmshare_version>
53161

> <i_f3d_flags>
0

> <r_lp_tautomer_probability>
1

> <s_lp_Force_Field>
OPLS_2005

> <r_lp_Energy>
33.807748

> <b_lp_Chiralities_Consistent>
1

> <s_lp_Variant>
CHEMBL213_lig927-1

> <s_i_glide_gridfile>
glide-grid_2vt4

> <i_i_glide_lignum>
1035

> <i_i_glide_rotatable_bonds>
15

> <r_i_docking_score>
-7.50022554152717

> <r_i_glide_ligand_efficiency>
-0.208339598375755

> <r_i_glide_ligand_efficiency_sa>
-0.68792219607894

> <r_i_glide_ligand_efficiency_ln>
-1.63634658048419

> <r_i_glide_gscore>
-7.50022554152717

> <r_i_glide_lipo>
-3.22828235833238

> <r_i_glide_hbond>
-0.0599552540111193

> <r_i_glide_metal>
0

> <r_i_glide_rewards>
-0.78690567667304

> <r_i_glide_evdw>
-56.8729400634766

> <r_i_glide_ecoul>
-11.2264595031738

> <r_i_glide_erotb>
1.1243062452962

> <r_i_glide_esite>
-0.021772569156925

> <r_i_glide_emodel>
-96.5340664037957

> <r_i_glide_energy>
-68.0993995666504

> <r_i_glide_einternal>
9.11141681671143

> <i_i_glide_confnum>
30

> <i_i_glide_posenum>
79

> <r_i_glide_eff_state_penalty>
0

> <s_user_duplicate_titles>
CHEMBL213_lig927,480541

> <s_m_subgroup_title>
dock_pv

> <s_m_subgroupid>
dock_pv

> <b_m_subgroup_collapsed>
1

$$$$
CHEMBL213_lig1083
                    3D
 Schrodinger Suite 2021-1.
 79 80  0  0  1  0            999 V2000
   36.3092    5.3438    0.5737 C   0  0  0  0  0  0
   35.1604    5.1239   -0.2006 C   0  0  0  0  0  0
   33.9087    5.4500    0.3141 C   0  0  0  0  0  0
   33.7859    5.9561    1.6061 C   0  0  0  0  0  0
   34.9209    6.2127    2.3847 C   0  0  0  0  0  0
   36.1772    5.9096    1.8469 C   0  0  0  0  0  0
   37.7000    4.9631    0.0853 C   0  0  0  0  0  0
   38.2123    3.8500    0.7850 O   0  0  0  0  0  0
   35.2220    4.5792   -1.4575 O   0  0  0  0  0  0
   34.8466    6.8440    3.7824 C   0  0  2  0  0  0
   33.6348    6.4888    4.6888 C   0  0  0  0  0  0
   35.0081    8.2498    3.7387 O   0  0  0  0  0  0
   32.3658    7.0498    4.2326 N   0  0  1  0  0  0
   31.3963    7.1555    5.3135 C   0  0  0  0  0  0
   29.9868    7.3841    4.7383 C   0  0  0  0  0  0
   29.4408    6.1212    4.0531 C   0  0  0  0  0  0
   28.0439    6.2498    3.4515 C   0  0  0  0  0  0
   27.3419    4.8956    3.3262 C   0  0  0  0  0  0
   26.1313    4.9543    2.3833 C   0  0  0  0  0  0
   26.4703    5.3996    1.0684 O   0  0  0  0  0  0
   27.3280    4.5309    0.3524 C   0  0  0  0  0  0
   27.2707    4.8097   -1.1468 C   0  0  0  0  0  0
   27.9439    6.1220   -1.6029 C   0  0  0  0  0  0
   27.9261    6.3273   -3.1366 C   0  0  0  0  0  0
   28.7347    5.2895   -3.9130 C   0  0  0  0  0  0
   30.0084    5.5895   -4.4108 C   0  0  0  0  0  0
   30.7446    4.6306   -5.1201 C   0  0  0  0  0  0
   30.1995    3.3465   -5.2989 C   0  0  0  0  0  0
   28.9279    3.0499   -4.8168 C   0  0  0  0  0  0
   28.1944    4.0226   -4.1471 C   0  0  0  0  0  0
   31.9839    5.0500   -5.6397 N   0  0  0  0  0  0
   32.8544    4.3728   -6.4151 C   0  0  0  0  0  0
   33.8080    5.1855   -6.8994 N   0  0  0  0  0  0
   32.7664    3.1880   -6.7361 O   0  0  0  0  0  0
   34.6296    4.9160   -8.0906 C   0  0  0  0  0  0
   35.8098    4.0052   -7.7209 C   0  0  0  0  0  0
   36.6935    4.6500   -6.9045 O   0  0  0  0  0  0
   35.9256    2.8716   -8.1359 O   0  0  0  0  0  0
   33.0228    5.2811   -0.2799 H   0  0  0  0  0  0
   32.7944    6.1851    1.9613 H   0  0  0  0  0  0
   37.0680    6.1019    2.4280 H   0  0  0  0  0  0
   37.7157    4.7450   -0.9824 H   0  0  0  0  0  0
   38.3768    5.8062    0.2265 H   0  0  0  0  0  0
   38.6437    3.2639    0.1362 H   0  0  0  0  0  0
   36.1010    4.2760   -1.6956 H   0  0  0  0  0  0
   35.7139    6.4690    4.3288 H   0  0  0  0  0  0
   33.8550    6.8456    5.6977 H   0  0  0  0  0  0
   33.5332    5.4044    4.7598 H   0  0  0  0  0  0
   34.4026    8.6370    4.3801 H   0  0  0  0  0  0
   32.5204    7.9809    3.8546 H   0  0  0  0  0  0
   31.6665    7.9708    5.9839 H   0  0  0  0  0  0
   31.4091    6.2500    5.9163 H   0  0  0  0  0  0
   29.9834    8.2315    4.0499 H   0  0  0  0  0  0
   29.3164    7.6588    5.5538 H   0  0  0  0  0  0
   29.4053    5.3268    4.7850 H   0  0  0  0  0  0
   30.1327    5.7780    3.2806 H   0  0  0  0  0  0
   28.1551    6.6500    2.4498 H   0  0  0  0  0  0
   27.4213    6.9389    4.0237 H   0  0  0  0  0  0
   27.0275    4.5470    4.3106 H   0  0  0  0  0  0
   28.0602    4.1639    2.9615 H   0  0  0  0  0  0
   25.4078    5.6516    2.7995 H   0  0  0  0  0  0
   25.6275    3.9864    2.3377 H   0  0  0  0  0  0
   27.0082    3.4967    0.5082 H   0  0  0  0  0  0
   28.3517    4.6500    0.7116 H   0  0  0  0  0  0
   26.2322    4.7863   -1.4775 H   0  0  0  0  0  0
   27.7636    3.9621   -1.6172 H   0  0  0  0  0  0
   28.9741    6.1513   -1.2457 H   0  0  0  0  0  0
   27.4380    6.9626   -1.1261 H   0  0  0  0  0  0
   28.2926    7.3263   -3.3786 H   0  0  0  0  0  0
   26.8964    6.3123   -3.4998 H   0  0  0  0  0  0
   30.4134    6.5803   -4.2610 H   0  0  0  0  0  0
   30.7206    2.5621   -5.8217 H   0  0  0  0  0  0
   28.5003    2.0691   -4.9665 H   0  0  0  0  0  0
   27.1998    3.7812   -3.7989 H   0  0  0  0  0  0
   32.1927    6.0230   -5.4792 H   0  0  0  0  0  0
   33.9673    6.0808   -6.4560 H   0  0  0  0  0  0
   35.0145    5.8544   -8.4907 H   0  0  0  0  0  0
   34.0370    4.4482   -8.8796 H   0  0  0  0  0  0
   36.4579    5.5703   -6.7221 H   0  0  0  0  0  0
  1  6  1  0  0  0
  1  2  2  0  0  0
  1  7  1  0  0  0
  2  3  1  0  0  0
  2  9  1  0  0  0
  3  4  2  0  0  0
  3 39  1  0  0  0
  4  5  1  0  0  0
  4 40  1  0  0  0
  5 10  1  0  0  0
  5  6  2  0  0  0
  6 41  1  0  0  0
  7  8  1  0  0  0
  7 42  1  0  0  0
  7 43  1  0  0  0
  8 44  1  0  0  0
  9 45  1  0  0  0
 10 11  1  0  0  0
 10 12  1  0  0  0
 10 46  1  0  0  0
 11 13  1  0  0  0
 11 47  1  0  0  0
 11 48  1  0  0  0
 12 49  1  0  0  0
 13 14  1  0  0  0
 13 50  1  0  0  0
 14 15  1  0  0  0
 14 51  1  0  0  0
 14 52  1  0  0  0
 15 16  1  0  0  0
 15 53  1  0  0  0
 15 54  1  0  0  0
 16 17  1  0  0  0
 16 55  1  0  0  0
 16 56  1  0  0  0
 17 18  1  0  0  0
 17 57  1  0  0  0
 17 58  1  0  0  0
 18 19  1  0  0  0
 18 59  1  0  0  0
 18 60  1  0  0  0
 19 20  1  0  0  0
 19 61  1  0  0  0
 19 62  1  0  0  0
 20 21  1  0  0  0
 21 22  1  0  0  0
 21 63  1  0  0  0
 21 64  1  0  0  0
 22 23  1  0  0  0
 22 65  1  0  0  0
 22 66  1  0  0  0
 23 24  1  0  0  0
 23 67  1  0  0  0
 23 68  1  0  0  0
 24 25  1  0  0  0
 24 69  1  0  0  0
 24 70  1  0  0  0
 25 26  2  0  0  0
 25 30  1  0  0  0
 26 27  1  0  0  0
 26 71  1  0  0  0
 27 28  2  0  0  0
 27 31  1  0  0  0
 28 29  1  0  0  0
 28 72  1  0  0  0
 29 30  2  0  0  0
 29 73  1  0  0  0
 30 74  1  0  0  0
 31 32  1  0  0  0
 31 75  1  0  0  0
 32 33  1  0  0  0
 32 34  2  0  0  0
 33 35  1  0  0  0
 33 76  1  0  0  0
 35 36  1  0  0  0
 35 77  1  0  0  0
 35 78  1  0  0  0
 36 37  1  0  0  0
 36 38  2  0  0  0
 37 79  1  0  0  0
M  END
> <s_m_entry_id>
3121

> <s_m_entry_name>
dock_pv.213

> <s_m_Source_Path>
/home/csk/Desktop/cluster/DUD-E-result/adrb1

> <s_m_Source_File>
dock_pv.maegz

> <i_m_Source_File_Index>
213

> <chembl_id>
CHEMBL1814279

> <chembl_pref_name>
None

> <i_lp_mmshare_version>
53161

> <i_f3d_flags>
0

> <r_lp_tautomer_probability>
0.999999999997365

> <s_lp_Force_Field>
OPLS_2005

> <r_lp_Energy>
18.214882

> <b_lp_Chiralities_Consistent>
1

> <s_lp_Variant>
CHEMBL213_lig1083-1

> <s_i_glide_gridfile>
glide-grid_2vt4

> <i_i_glide_lignum>
1265

> <i_i_glide_rotatable_bonds>
25

> <r_i_docking_score>
-7.49968921656313

> <r_i_glide_ligand_efficiency>
-0.197360242541135

> <r_i_glide_ligand_efficiency_sa>
-0.663520280898637

> <r_i_glide_ligand_efficiency_ln>
-1.61715361359574

> <r_i_glide_gscore>
-7.49968921656313

> <r_i_glide_lipo>
-2.68482833263922

> <r_i_glide_hbond>
-1.18898090694651

> <r_i_glide_metal>
0

> <r_i_glide_rewards>
-0.498388219938763

> <r_i_glide_evdw>
-46.8425979614258

> <r_i_glide_ecoul>
-14.8056297302246

> <r_i_glide_erotb>
1.53213325926424

> <r_i_glide_esite>
-0.0966506586978804

> <r_i_glide_emodel>
-86.3412919695956

> <r_i_glide_energy>
-61.6482276916504

> <r_i_glide_einternal>
10.5676298141479

> <i_i_glide_confnum>
72

> <i_i_glide_posenum>
185

> <r_i_glide_eff_state_penalty>
0

> <s_user_duplicate_titles>
CHEMBL213_lig1083

> <s_m_subgroup_title>
dock_pv

> <s_m_subgroupid>
dock_pv

> <b_m_subgroup_collapsed>
1

$$$$
CHEMBL213_lig680
                    3D
 Schrodinger Suite 2021-1.
 51 53  0  0  1  0            999 V2000
   33.1260    5.4499   -1.2597 C   0  0  0  0  0  0
   34.4916    5.4380   -1.5335 C   0  0  0  0  0  0
   34.9890    4.6216   -2.5474 C   0  0  0  0  0  0
   34.1180    3.8287   -3.2981 C   0  0  0  0  0  0
   32.7394    3.8399   -3.0418 C   0  0  0  0  0  0
   32.2568    4.6541   -2.0065 C   0  0  0  0  0  0
   36.6834    4.5898   -2.8668 Cl  0  0  0  0  0  0
   31.8062    2.9539   -3.8818 C   0  0  2  0  0  0
   30.5358    3.6619   -4.4214 C   0  0  0  0  0  0
   31.4447    1.7587   -3.2151 O   0  0  0  0  0  0
   29.5303    3.8500   -3.3808 N   0  0  1  0  0  0
   28.5417    4.8676   -3.6917 C   0  0  0  0  0  0
   27.4080    4.7526   -2.6619 C   0  0  0  0  0  0
   27.8088    5.0186   -1.2851 N   0  0  0  0  0  0
   26.9650    4.7391   -0.1970 C   0  0  0  0  0  0
   27.3471    5.2649    1.0299 C   0  0  0  0  0  0
   26.6270    5.0411    2.2120 C   0  0  0  0  0  0
   25.4693    4.2500    2.1217 C   0  0  0  0  0  0
   25.0635    3.7129    0.8981 C   0  0  0  0  0  0
   25.8103    3.9511   -0.2540 C   0  0  0  0  0  0
   27.1166    5.6092    3.5112 C   0  0  0  0  0  0
   26.3139    5.7215    4.6542 C   0  0  0  0  0  0
   26.8704    6.2338    5.8251 C   0  0  0  0  0  0
   28.2037    6.6503    5.8356 C   0  0  0  0  0  0
   28.9410    6.5823    4.6481 C   0  0  0  0  0  0
   28.4123    6.0367    3.5251 N   0  0  0  0  0  0
   30.3741    7.0502    4.5887 C   0  0  0  0  0  0
   30.8280    7.4291    3.3636 O   0  0  0  0  0  0
   31.0856    7.0721    5.5852 O   0  0  0  0  0  0
   32.7445    6.0709   -0.4621 H   0  0  0  0  0  0
   35.1655    6.0529   -0.9538 H   0  0  0  0  0  0
   34.5252    3.1989   -4.0760 H   0  0  0  0  0  0
   31.2072    4.6691   -1.7546 H   0  0  0  0  0  0
   32.3667    2.6499   -4.7677 H   0  0  0  0  0  0
   30.0978    3.0722   -5.2301 H   0  0  0  0  0  0
   30.8225    4.6223   -4.8558 H   0  0  0  0  0  0
   30.5852    1.9089   -2.8068 H   0  0  0  0  0  0
   29.0319    2.9941   -3.1401 H   0  0  0  0  0  0
   28.1308    4.7080   -4.6888 H   0  0  0  0  0  0
   28.9922    5.8602   -3.6633 H   0  0  0  0  0  0
   26.9931    3.7473   -2.7282 H   0  0  0  0  0  0
   26.6081    5.4496   -2.9182 H   0  0  0  0  0  0
   28.4816    5.7575   -1.1595 H   0  0  0  0  0  0
   28.2477    5.8485    1.0576 H   0  0  0  0  0  0
   24.8788    4.0271    2.9973 H   0  0  0  0  0  0
   24.1728    3.1038    0.8401 H   0  0  0  0  0  0
   25.4835    3.5089   -1.1824 H   0  0  0  0  0  0
   25.2786    5.4148    4.6485 H   0  0  0  0  0  0
   26.2711    6.3189    6.7222 H   0  0  0  0  0  0
   28.6319    7.0557    6.7410 H   0  0  0  0  0  0
   31.7333    7.7408    3.4312 H   0  0  0  0  0  0
  1  6  1  0  0  0
  1  2  2  0  0  0
  1 30  1  0  0  0
  2  3  1  0  0  0
  2 31  1  0  0  0
  3  7  1  0  0  0
  3  4  2  0  0  0
  4  5  1  0  0  0
  4 32  1  0  0  0
  5  8  1  0  0  0
  5  6  2  0  0  0
  6 33  1  0  0  0
  8  9  1  0  0  0
  8 10  1  0  0  0
  8 34  1  0  0  0
  9 11  1  0  0  0
  9 35  1  0  0  0
  9 36  1  0  0  0
 10 37  1  0  0  0
 11 12  1  0  0  0
 11 38  1  0  0  0
 12 13  1  0  0  0
 12 39  1  0  0  0
 12 40  1  0  0  0
 13 14  1  0  0  0
 13 41  1  0  0  0
 13 42  1  0  0  0
 14 15  1  0  0  0
 14 43  1  0  0  0
 15 16  2  0  0  0
 15 20  1  0  0  0
 16 17  1  0  0  0
 16 44  1  0  0  0
 17 18  2  0  0  0
 17 21  1  0  0  0
 18 19  1  0  0  0
 18 45  1  0  0  0
 19 20  2  0  0  0
 19 46  1  0  0  0
 20 47  1  0  0  0
 21 22  2  0  0  0
 21 26  1  0  0  0
 22 23  1  0  0  0
 22 48  1  0  0  0
 23 24  2  0  0  0
 23 49  1  0  0  0
 24 25  1  0  0  0
 24 50  1  0  0  0
 25 26  2  0  0  0
 25 27  1  0  0  0
 27 28  1  0  0  0
 27 29  2  0  0  0
 28 51  1  0  0  0
M  END
> <s_m_entry_id>
3122

> <s_m_entry_name>
dock_pv.214

> <s_m_Source_Path>
/home/csk/Desktop/cluster/DUD-E-result/adrb1

> <s_m_Source_File>
dock_pv.maegz

> <i_m_Source_File_Index>
214

> <chembl_id>
CHEMBL424866

> <chembl_pref_name>
None

> <i_lp_mmshare_version>
53161

> <i_f3d_flags>
0

> <r_lp_tautomer_probability>
1

> <s_lp_Force_Field>
OPLS_2005

> <r_lp_Energy>
30.749902

> <b_lp_Chiralities_Consistent>
1

> <s_lp_Variant>
CHEMBL213_lig680-1

> <s_i_glide_gridfile>
glide-grid_2vt4

> <i_i_glide_lignum>
782

> <i_i_glide_rotatable_bonds>
11

> <r_i_docking_score>
-7.49602175922217

> <r_i_glide_ligand_efficiency>
-0.258483508938696

> <r_i_glide_ligand_efficiency_sa>
-0.794143232783301

> <r_i_glide_ligand_efficiency_ln>
-1.71639890015085

> <r_i_glide_gscore>
-7.49602175922217

> <r_i_glide_lipo>
-2.5037502008225

> <r_i_glide_hbond>
-0.555670263638626

> <r_i_glide_metal>
0

> <r_i_glide_rewards>
-1.93739218169374

> <r_i_glide_evdw>
-45.9940185546875

> <r_i_glide_ecoul>
-7.39592123031616

> <r_i_glide_erotb>
0.92964074689004

> <r_i_glide_esite>
-0.0197607476755421

> <r_i_glide_emodel>
-73.9161201334893

> <r_i_glide_energy>
-53.3899397850037

> <r_i_glide_einternal>
7.41847991943359

> <i_i_glide_confnum>
58

> <i_i_glide_posenum>
170

> <r_i_glide_eff_state_penalty>
0

> <s_user_duplicate_titles>
CHEMBL213_lig680

> <s_m_subgroup_title>
dock_pv

> <s_m_subgroupid>
dock_pv

> <b_m_subgroup_collapsed>
1

$$$$
CHEMBL213_lig923
                    3D
 Schrodinger Suite 2021-1.
 55 57  0  0  1  0            999 V2000
   30.5589    4.2609   -5.6044 C   0  0  0  0  0  0
   31.3469    4.6244   -4.3418 C   0  0  0  0  0  0
   30.6760    4.4816   -3.1799 N   0  0  0  0  0  0
   32.4957    5.0490   -4.4514 O   0  0  0  0  0  0
   31.0658    4.7994   -1.8696 C   0  0  0  0  0  0
   30.0567    4.7208   -0.9080 C   0  0  0  0  0  0
   30.3267    5.0482    0.4170 C   0  0  0  0  0  0
   31.6104    5.4501    0.7958 C   0  0  0  0  0  0
   32.6298    5.4962   -0.1592 C   0  0  0  0  0  0
   32.3629    5.1786   -1.4892 C   0  0  0  0  0  0
   31.9204    5.7102    2.2653 C   0  0  0  0  0  0
   31.4961    7.0988    2.8084 C   0  0  0  0  0  0
   30.6594    7.0503    4.0154 N   0  0  2  0  0  0
   29.4303    6.2786    3.8256 C   0  0  0  0  0  0
   28.2079    6.7367    4.6489 C   0  0  1  0  0  0
   26.9774    5.8732    4.2947 C   0  0  0  0  0  0
   28.4435    6.6505    6.0440 O   0  0  0  0  0  0
   26.8537    5.8659    2.8746 O   0  0  0  0  0  0
   26.1221    4.8797    2.2557 C   0  0  0  0  0  0
   26.4021    4.6514    0.9079 C   0  0  0  0  0  0
   25.6564    3.7308    0.1791 C   0  0  0  0  0  0
   24.6174    3.0443    0.8006 C   0  0  0  0  0  0
   24.3240    3.2648    2.1444 C   0  0  0  0  0  0
   25.0771    4.1811    2.8768 C   0  0  0  0  0  0
   29.9402    2.8731   -5.5645 C   0  0  0  0  0  0
   28.6099    2.6497   -5.3112 N   0  0  0  0  0  0
   28.4467    1.2948   -5.3167 C   0  0  0  0  0  0
   29.7109    0.7886   -5.5600 C   0  0  0  0  0  0
   30.6077    1.7491   -5.7097 N   0  0  0  0  0  0
   31.2308    4.3390   -6.4596 H   0  0  0  0  0  0
   29.8095    5.0376   -5.7509 H   0  0  0  0  0  0
   29.7426    4.1063   -3.2572 H   0  0  0  0  0  0
   29.0568    4.4110   -1.1796 H   0  0  0  0  0  0
   29.5389    4.9690    1.1503 H   0  0  0  0  0  0
   33.6326    5.7783    0.1277 H   0  0  0  0  0  0
   33.1794    5.2254   -2.1921 H   0  0  0  0  0  0
   31.4086    4.9066    2.7850 H   0  0  0  0  0  0
   32.9802    5.5426    2.4613 H   0  0  0  0  0  0
   32.3927    7.6511    3.0954 H   0  0  0  0  0  0
   31.0122    7.6995    2.0398 H   0  0  0  0  0  0
   30.4779    7.9784    4.3724 H   0  0  0  0  0  0
   29.1460    6.3732    2.7843 H   0  0  0  0  0  0
   29.6049    5.2175    3.9872 H   0  0  0  0  0  0
   27.9951    7.7731    4.3860 H   0  0  0  0  0  0
   27.1253    4.8551    4.6634 H   0  0  0  0  0  0
   26.0721    6.2701    4.7564 H   0  0  0  0  0  0
   27.7688    7.1707    6.4981 H   0  0  0  0  0  0
   27.1859    5.2102    0.4195 H   0  0  0  0  0  0
   25.8623    3.5689   -0.8700 H   0  0  0  0  0  0
   24.0236    2.3485    0.2252 H   0  0  0  0  0  0
   23.5070    2.7345    2.6111 H   0  0  0  0  0  0
   24.8247    4.3608    3.9104 H   0  0  0  0  0  0
   27.8925    3.3427   -5.1413 H   0  0  0  0  0  0
   27.4844    0.8447   -5.1192 H   0  0  0  0  0  0
   29.9740   -0.2567   -5.6046 H   0  0  0  0  0  0
  1  2  1  0  0  0
  1 25  1  0  0  0
  1 30  1  0  0  0
  1 31  1  0  0  0
  2  4  2  0  0  0
  2  3  1  0  0  0
  3  5  1  0  0  0
  3 32  1  0  0  0
  5 10  1  0  0  0
  5  6  2  0  0  0
  6  7  1  0  0  0
  6 33  1  0  0  0
  7  8  2  0  0  0
  7 34  1  0  0  0
  8  9  1  0  0  0
  8 11  1  0  0  0
  9 10  2  0  0  0
  9 35  1  0  0  0
 10 36  1  0  0  0
 11 12  1  0  0  0
 11 37  1  0  0  0
 11 38  1  0  0  0
 12 13  1  0  0  0
 12 39  1  0  0  0
 12 40  1  0  0  0
 13 14  1  0  0  0
 13 41  1  0  0  0
 14 15  1  0  0  0
 14 42  1  0  0  0
 14 43  1  0  0  0
 15 16  1  0  0  0
 15 17  1  0  0  0
 15 44  1  0  0  0
 16 18  1  0  0  0
 16 45  1  0  0  0
 16 46  1  0  0  0
 17 47  1  0  0  0
 18 19  1  0  0  0
 19 20  2  0  0  0
 19 24  1  0  0  0
 20 21  1  0  0  0
 20 48  1  0  0  0
 21 22  2  0  0  0
 21 49  1  0  0  0
 22 23  1  0  0  0
 22 50  1  0  0  0
 23 24  2  0  0  0
 23 51  1  0  0  0
 24 52  1  0  0  0
 25 26  1  0  0  0
 25 29  2  0  0  0
 26 27  1  0  0  0
 26 53  1  0  0  0
 27 28  2  0  0  0
 27 54  1  0  0  0
 28 29  1  0  0  0
 28 55  1  0  0  0
M  END
> <s_m_entry_id>
3123

> <s_m_entry_name>
dock_pv.215

> <s_m_Source_Path>
/home/csk/Desktop/cluster/DUD-E-result/adrb1

> <s_m_Source_File>
dock_pv.maegz

> <i_m_Source_File_Index>
215

> <chembl_id>
CHEMBL466879

> <chembl_pref_name>
None

> <i_lp_mmshare_version>
53161

> <i_f3d_flags>
0

> <r_lp_tautomer_probability>
0.499999999999999

> <s_lp_Force_Field>
OPLS_2005

> <r_lp_Energy>
32.974209

> <b_lp_Chiralities_Consistent>
1

> <s_lp_Variant>
CHEMBL213_lig923-1

> <s_i_glide_gridfile>
glide-grid_2vt4

> <i_i_glide_lignum>
1031

> <i_i_glide_rotatable_bonds>
13

> <r_i_docking_score>
-7.49460795219786

> <r_i_glide_ligand_efficiency>
-0.25843475697234

> <r_i_glide_ligand_efficiency_sa>
-0.793993451296949

> <r_i_glide_ligand_efficiency_ln>
-1.71607517419333

> <r_i_glide_gscore>
-7.49460795219786

> <r_i_glide_lipo>
-3.2196716072664

> <r_i_glide_hbond>
-0.527952696199992

> <r_i_glide_metal>
0

> <r_i_glide_rewards>
-1.49676643165325

> <r_i_glide_evdw>
-43.4901580810547

> <r_i_glide_ecoul>
-8.63583087921143

> <r_i_glide_erotb>
1.25608321189506

> <r_i_glide_esite>
-0.0364178930388343

> <r_i_glide_emodel>
-66.7603512535657

> <r_i_glide_energy>
-52.1259889602661

> <r_i_glide_einternal>
17.3587551116943

> <i_i_glide_confnum>
1

> <i_i_glide_posenum>
292

> <r_i_glide_eff_state_penalty>
0

> <s_user_duplicate_titles>
CHEMBL213_lig923

> <s_m_subgroup_title>
dock_pv

> <s_m_subgroupid>
dock_pv

> <b_m_subgroup_collapsed>
1

$$$$
CHEMBL213_lig1097
                    3D
 Schrodinger Suite 2021-1.
 61 63  0  0  1  0            999 V2000
   31.2958    6.8596    2.9293 C   0  0  0  0  0  0
   31.9048    5.4054   -3.4202 N   0  0  0  0  0  0
   30.7965    4.9324   -4.2566 C   0  0  0  0  0  0
   30.8675    3.4242   -4.6197 C   0  0  2  0  0  0
   31.8066    3.1261   -5.8020 C   0  0  0  0  0  0
   29.5420    2.9455   -4.8032 O   0  0  0  0  0  0
   33.1667    3.4516   -5.7090 C   0  0  0  0  0  0
   34.0291    3.2016   -6.7734 C   0  0  0  0  0  0
   33.5407    2.6019   -7.9305 C   0  0  0  0  0  0
   32.1979    2.2495   -8.0295 C   0  0  0  0  0  0
   31.3319    2.5185   -6.9740 C   0  0  0  0  0  0
   24.5177    4.1212    2.8267 C   0  0  0  0  0  0
   24.7563    3.8500    1.4825 C   0  0  0  0  0  0
   25.9253    4.3096    0.8705 C   0  0  0  0  0  0
   26.8357    5.0477    1.6325 C   0  0  0  0  0  0
   26.6504    5.2646    3.0076 C   0  0  0  0  0  0
   25.4565    4.8184    3.5854 C   0  0  0  0  0  0
   27.7096    6.0052    3.8470 C   0  0  2  0  0  0
   29.1600    5.7440    3.3655 C   0  0  0  0  0  0
   30.2021    6.6349    3.8917 N   0  0  1  0  0  0
   27.6317    5.7361    5.2369 O   0  0  0  0  0  0
   31.9045    5.5663    2.3159 C   0  0  0  0  0  0
   31.8793    5.4935    0.7884 C   0  0  0  0  0  0
   30.7393    5.0500    0.1076 C   0  0  0  0  0  0
   30.7332    5.0034   -1.2852 C   0  0  0  0  0  0
   31.8665    5.3819   -2.0152 C   0  0  0  0  0  0
   33.0146    5.7837   -1.3313 C   0  0  0  0  0  0
   33.0197    5.8489    0.0606 C   0  0  0  0  0  0
   23.8080    3.1614    0.7850 O   0  0  0  0  0  0
   26.2209    4.0378   -0.6019 C   0  0  0  0  0  0
   27.5970    3.8502   -0.8590 O   0  0  0  0  0  0
   31.0080    7.5659    2.1528 H   0  0  0  0  0  0
   32.0743    7.3752    3.4938 H   0  0  0  0  0  0
   32.8162    5.4459   -3.8538 H   0  0  0  0  0  0
   29.8454    5.1667   -3.7791 H   0  0  0  0  0  0
   30.7656    5.5330   -5.1675 H   0  0  0  0  0  0
   31.2437    2.8620   -3.7625 H   0  0  0  0  0  0
   29.1043    2.8932   -3.9472 H   0  0  0  0  0  0
   33.5697    3.8955   -4.8121 H   0  0  0  0  0  0
   35.0734    3.4690   -6.6986 H   0  0  0  0  0  0
   34.2095    2.4085   -8.7567 H   0  0  0  0  0  0
   31.8245    1.7914   -8.9333 H   0  0  0  0  0  0
   30.2901    2.2532   -7.0771 H   0  0  0  0  0  0
   23.5938    3.7978    3.2808 H   0  0  0  0  0  0
   27.6929    5.4377    1.1119 H   0  0  0  0  0  0
   25.2479    5.0204    4.6258 H   0  0  0  0  0  0
   27.4650    7.0500    3.7349 H   0  0  0  0  0  0
   29.4077    4.7004    3.5629 H   0  0  0  0  0  0
   29.1952    5.8500    2.2924 H   0  0  0  0  0  0
   30.6438    6.1372    4.6538 H   0  0  0  0  0  0
   28.1084    6.4362    5.6900 H   0  0  0  0  0  0
   32.9336    5.4576    2.6605 H   0  0  0  0  0  0
   31.4036    4.6750    2.6850 H   0  0  0  0  0  0
   29.8599    4.7302    0.6419 H   0  0  0  0  0  0
   29.8313    4.6834   -1.7771 H   0  0  0  0  0  0
   33.9029    6.0752   -1.8730 H   0  0  0  0  0  0
   33.9090    6.1878    0.5714 H   0  0  0  0  0  0
   23.7928    3.3228   -0.1686 H   0  0  0  0  0  0
   25.6950    3.1483   -0.9503 H   0  0  0  0  0  0
   25.8621    4.8779   -1.1978 H   0  0  0  0  0  0
   27.7068    3.1288   -1.4937 H   0  0  0  0  0  0
  1 20  1  0  0  0
  1 22  1  0  0  0
  1 32  1  0  0  0
  1 33  1  0  0  0
  2  3  1  0  0  0
  2 26  1  0  0  0
  2 34  1  0  0  0
  3  4  1  0  0  0
  3 35  1  0  0  0
  3 36  1  0  0  0
  4  6  1  0  0  0
  4  5  1  0  0  0
  4 37  1  0  0  0
  5 11  1  0  0  0
  5  7  2  0  0  0
  6 38  1  0  0  0
  7  8  1  0  0  0
  7 39  1  0  0  0
  8  9  2  0  0  0
  8 40  1  0  0  0
  9 10  1  0  0  0
  9 41  1  0  0  0
 10 11  2  0  0  0
 10 42  1  0  0  0
 11 43  1  0  0  0
 12 17  1  0  0  0
 12 13  2  0  0  0
 12 44  1  0  0  0
 13 14  1  0  0  0
 13 29  1  0  0  0
 14 15  2  0  0  0
 14 30  1  0  0  0
 15 16  1  0  0  0
 15 45  1  0  0  0
 16 17  2  0  0  0
 16 18  1  0  0  0
 17 46  1  0  0  0
 18 19  1  0  0  0
 18 21  1  0  0  0
 18 47  1  0  0  0
 19 20  1  0  0  0
 19 48  1  0  0  0
 19 49  1  0  0  0
 20 50  1  0  0  0
 21 51  1  0  0  0
 22 23  1  0  0  0
 22 52  1  0  0  0
 22 53  1  0  0  0
 23 24  2  0  0  0
 23 28  1  0  0  0
 24 25  1  0  0  0
 24 54  1  0  0  0
 25 26  2  0  0  0
 25 55  1  0  0  0
 26 27  1  0  0  0
 27 28  2  0  0  0
 27 56  1  0  0  0
 28 57  1  0  0  0
 29 58  1  0  0  0
 30 31  1  0  0  0
 30 59  1  0  0  0
 30 60  1  0  0  0
 31 61  1  0  0  0
M  END
> <s_m_entry_id>
3124

> <s_m_entry_name>
dock_pv.216

> <s_m_Source_Path>
/home/csk/Desktop/cluster/DUD-E-result/adrb1

> <s_m_Source_File>
dock_pv.maegz

> <i_m_Source_File_Index>
216

> <chembl_id>
CHEMBL1940831

> <chembl_pref_name>
None

> <i_lp_mmshare_version>
53161

> <i_f3d_flags>
0

> <r_lp_tautomer_probability>
0.999999999997365

> <s_lp_Force_Field>
OPLS_2005

> <r_lp_Energy>
31.603104

> <b_lp_Chiralities_Consistent>
1

> <s_lp_Variant>
CHEMBL213_lig1097-1

> <s_i_glide_gridfile>
glide-grid_2vt4

> <i_i_glide_lignum>
1279

> <i_i_glide_rotatable_bonds>
15

> <r_i_docking_score>
-7.49269762765957

> <r_i_glide_ligand_efficiency>
-0.241699923472889

> <r_i_glide_ligand_efficiency_sa>
-0.759271462413105

> <r_i_glide_ligand_efficiency_ln>
-1.68983293864277

> <r_i_glide_gscore>
-7.49269762765957

> <r_i_glide_lipo>
-3.53280361249599

> <r_i_glide_hbond>
-0.566566981675646

> <r_i_glide_metal>
0

> <r_i_glide_rewards>
-0.994961293628473

> <r_i_glide_evdw>
-37.8282127380371

> <r_i_glide_ecoul>
-10.7779808044434

> <r_i_glide_erotb>
1.1097420177089

> <r_i_glide_esite>
0

> <r_i_glide_emodel>
-63.1423222428582

> <r_i_glide_energy>
-48.6061935424805

> <r_i_glide_einternal>
18.4356117248535

> <i_i_glide_confnum>
55

> <i_i_glide_posenum>
227

> <r_i_glide_eff_state_penalty>
0

> <s_user_duplicate_titles>
CHEMBL213_lig1097

> <s_m_subgroup_title>
dock_pv

> <s_m_subgroupid>
dock_pv

> <b_m_subgroup_collapsed>
1

$$$$
CHEMBL213_lig868
                    3D
 Schrodinger Suite 2021-1.
 59 62  0  0  1  0            999 V2000
   35.2380    5.4064   -1.7962 C   0  0  0  0  0  0
   36.1129    4.3955   -1.4056 C   0  0  0  0  0  0
   35.9623    3.1138   -1.9244 C   0  0  0  0  0  0
   34.9425    2.8497   -2.8343 C   0  0  0  0  0  0
   34.0522    3.8519   -3.2461 C   0  0  0  0  0  0
   34.2174    5.1384   -2.7103 C   0  0  0  0  0  0
   32.9364    3.4576   -4.2323 C   0  0  2  0  0  0
   32.2470    4.5317   -5.1397 C   0  0  0  0  0  0
   31.9856    2.5948   -3.6420 O   0  0  0  0  0  0
   35.4132    6.9882   -1.1369 Cl  0  0  0  0  0  0
   31.8078    5.8193   -4.5917 N   0  0  2  0  0  0
   30.5638    5.9503   -3.8550 C   0  0  1  0  0  0
   29.3145    5.6468   -4.6764 C   0  0  0  0  0  0
   28.0855    6.2934   -4.0154 C   0  0  0  0  0  0
   30.4523    5.1830   -2.5335 C   0  0  0  0  0  0
   29.1272    5.4500   -1.8380 C   0  0  0  0  0  0
   28.0114    5.9722   -2.5313 C   0  0  0  0  0  0
   26.8314    6.2223   -1.8313 C   0  0  0  0  0  0
   26.7307    5.9222   -0.4811 C   0  0  0  0  0  0
   27.8163    5.3563    0.1896 C   0  0  0  0  0  0
   29.0015    5.1364   -0.4913 C   0  0  0  0  0  0
   27.8426    5.0494    1.5217 O   0  0  0  0  0  0
   26.7050    4.9071    2.2632 C   0  0  0  0  0  0
   25.6194    4.1134    1.8869 C   0  0  0  0  0  0
   24.5306    3.9821    2.7464 C   0  0  0  0  0  0
   24.5146    4.6500    3.9849 C   0  0  0  0  0  0
   25.6179    5.4484    4.3542 C   0  0  0  0  0  0
   26.7040    5.5484    3.4842 C   0  0  0  0  0  0
   25.6486    6.2500    5.6297 C   0  0  0  0  0  0
   26.8972    6.6499    5.9856 O   0  0  0  0  0  0
   24.6512    6.5488    6.2817 O   0  0  0  0  0  0
   23.4300    4.6500    4.8463 O   0  0  0  0  0  0
   22.1590    4.2523    4.3678 C   0  0  0  0  0  0
   36.9073    4.5988   -0.7021 H   0  0  0  0  0  0
   36.6353    2.3257   -1.6188 H   0  0  0  0  0  0
   34.8479    1.8490   -3.2168 H   0  0  0  0  0  0
   33.5682    5.9517   -2.9734 H   0  0  0  0  0  0
   33.4352    2.8153   -4.9605 H   0  0  0  0  0  0
   31.4439    4.0804   -5.7243 H   0  0  0  0  0  0
   32.9968    4.8087   -5.8829 H   0  0  0  0  0  0
   32.4521    1.8820   -3.2006 H   0  0  0  0  0  0
   31.8102    6.5221   -5.3273 H   0  0  0  0  0  0
   30.5568    7.0155   -3.6191 H   0  0  0  0  0  0
   29.1949    4.5722   -4.8226 H   0  0  0  0  0  0
   29.4487    6.0680   -5.6614 H   0  0  0  0  0  0
   27.1680    5.9636   -4.5029 H   0  0  0  0  0  0
   28.1310    7.3774   -4.1332 H   0  0  0  0  0  0
   31.3201    5.3472   -1.8944 H   0  0  0  0  0  0
   30.4228    4.1192   -2.7369 H   0  0  0  0  0  0
   25.9750    6.6344   -2.3456 H   0  0  0  0  0  0
   25.8084    6.1312    0.0269 H   0  0  0  0  0  0
   29.8434    4.7195    0.0418 H   0  0  0  0  0  0
   25.6274    3.5944    0.9393 H   0  0  0  0  0  0
   23.7025    3.3728    2.4205 H   0  0  0  0  0  0
   27.5709    6.1474    3.7264 H   0  0  0  0  0  0
   26.8277    7.3196    6.6837 H   0  0  0  0  0  0
   21.4326    4.2713    5.1804 H   0  0  0  0  0  0
   21.8064    4.9243    3.5852 H   0  0  0  0  0  0
   22.2071    3.2379    3.9844 H   0  0  0  0  0  0
  1 10  1  0  0  0
  1  6  1  0  0  0
  1  2  2  0  0  0
  2  3  1  0  0  0
  2 34  1  0  0  0
  3  4  2  0  0  0
  3 35  1  0  0  0
  4  5  1  0  0  0
  4 36  1  0  0  0
  5  6  2  0  0  0
  5  7  1  0  0  0
  6 37  1  0  0  0
  7  8  1  0  0  0
  7  9  1  0  0  0
  7 38  1  0  0  0
  8 11  1  0  0  0
  8 39  1  0  0  0
  8 40  1  0  0  0
  9 41  1  0  0  0
 11 12  1  0  0  0
 11 42  1  0  0  0
 12 13  1  0  0  0
 12 15  1  0  0  0
 12 43  1  0  0  0
 13 14  1  0  0  0
 13 44  1  0  0  0
 13 45  1  0  0  0
 14 17  1  0  0  0
 14 46  1  0  0  0
 14 47  1  0  0  0
 15 16  1  0  0  0
 15 48  1  0  0  0
 15 49  1  0  0  0
 16 17  2  0  0  0
 16 21  1  0  0  0
 17 18  1  0  0  0
 18 19  2  0  0  0
 18 50  1  0  0  0
 19 20  1  0  0  0
 19 51  1  0  0  0
 20 21  2  0  0  0
 20 22  1  0  0  0
 21 52  1  0  0  0
 22 23  1  0  0  0
 23 24  2  0  0  0
 23 28  1  0  0  0
 24 25  1  0  0  0
 24 53  1  0  0  0
 25 26  2  0  0  0
 25 54  1  0  0  0
 26 27  1  0  0  0
 26 32  1  0  0  0
 27 28  2  0  0  0
 27 29  1  0  0  0
 28 55  1  0  0  0
 29 30  1  0  0  0
 29 31  2  0  0  0
 30 56  1  0  0  0
 32 33  1  0  0  0
 33 57  1  0  0  0
 33 58  1  0  0  0
 33 59  1  0  0  0
M  END
> <s_m_entry_id>
3125

> <s_m_entry_name>
dock_pv.217

> <s_m_Source_Path>
/home/csk/Desktop/cluster/DUD-E-result/adrb1

> <s_m_Source_File>
dock_pv.maegz

> <i_m_Source_File_Index>
217

> <chembl_id>
CHEMBL498145

> <chembl_pref_name>
None

> <i_lp_mmshare_version>
53161

> <i_f3d_flags>
0

> <r_lp_tautomer_probability>
1

> <s_lp_Force_Field>
OPLS_2005

> <r_lp_Energy>
34.576398

> <b_lp_Chiralities_Consistent>
1

> <s_lp_Variant>
CHEMBL213_lig868-1

> <s_i_glide_gridfile>
glide-grid_2vt4

> <i_i_glide_lignum>
976

> <i_i_glide_rotatable_bonds>
10

> <r_i_docking_score>
-7.48874576365095

> <r_i_glide_ligand_efficiency>
-0.226931689807604

> <r_i_glide_ligand_efficiency_sa>
-0.727891184773496

> <r_i_glide_ligand_efficiency_ln>
-1.66545828318558

> <r_i_glide_gscore>
-7.48874576365095

> <r_i_glide_lipo>
-3.4577081266401

> <r_i_glide_hbond>
-0.30028371405322

> <r_i_glide_metal>
0

> <r_i_glide_rewards>
-0.69825336388609

> <r_i_glide_evdw>
-44.0255737304688

> <r_i_glide_ecoul>
-9.22897624969482

> <r_i_glide_erotb>
0.553124564906128

> <r_i_glide_esite>
0

> <r_i_glide_emodel>
-64.7857715513645

> <r_i_glide_energy>
-53.2545499801636

> <r_i_glide_einternal>
14.1982755661011

> <i_i_glide_confnum>
59

> <i_i_glide_posenum>
7

> <r_i_glide_eff_state_penalty>
0

> <s_user_duplicate_titles>
CHEMBL213_lig868

> <s_m_subgroup_title>
dock_pv

> <s_m_subgroupid>
dock_pv

> <b_m_subgroup_collapsed>
1

$$$$
CHEMBL213_lig165
                    3D
 Schrodinger Suite 2021-1.
 70 74  0  0  1  0            999 V2000
   37.9076    4.9951    0.1134 S   0  0  0  0  0  0
   34.8696    3.5493   -4.8544 N   0  0  0  0  0  0
   33.5333    3.4348   -4.8084 N   0  0  0  0  0  0
   35.3939    3.5691   -6.0913 N   0  0  0  0  0  0
   33.1813    3.3644   -6.0734 C   0  0  0  0  0  0
   37.1783    6.5069    0.6470 N   0  0  0  0  0  0
   34.3361    3.4536   -6.8527 C   0  0  0  0  0  0
   37.0100    4.4941   -1.3684 C   0  0  0  0  0  0
   35.6405    3.7802   -3.6910 C   0  0  0  0  0  0
   39.2714    5.3648   -0.2792 O   0  0  0  0  0  0
   37.6587    4.0120    1.1745 O   0  0  0  0  0  0
   27.1160    6.2355    4.5712 C   0  0  0  0  0  0
   24.8415    5.4500    4.7808 N   0  0  0  0  0  0
   31.7403    3.1632   -6.5112 C   0  0  0  0  0  0
   37.3924    5.0364   -2.5949 C   0  0  0  0  0  0
   36.0059    3.5223   -1.3164 C   0  0  0  0  0  0
   35.2990    3.1886   -2.4704 C   0  0  0  0  0  0
   36.7309    4.6487   -3.7537 C   0  0  0  0  0  0
   30.6790    3.8020   -5.6184 C   0  0  0  0  0  0
   36.0314    6.5407    1.4392 C   0  0  0  0  0  0
   28.2673    6.9947    5.2163 C   0  0  1  0  0  0
   30.7883    5.1394   -5.2164 C   0  0  0  0  0  0
   29.8091    5.7143   -4.4072 C   0  0  0  0  0  0
   30.7101    7.4444    5.1850 N   0  0  2  0  0  0
   33.6500    6.8311    2.8140 C   0  0  0  0  0  0
   29.9261    7.0019   -4.0151 F   0  0  0  0  0  0
   25.8806    6.1874    5.2262 C   0  0  0  0  0  0
   35.9548    7.4507    2.4926 C   0  0  0  0  0  0
   34.9434    5.7248    1.1365 C   0  0  0  0  0  0
   34.7561    7.5985    3.1850 C   0  0  0  0  0  0
   33.7576    5.8501    1.8331 C   0  0  0  0  0  0
   28.3754    6.6500    6.5863 O   0  0  0  0  0  0
   28.5838    3.6339   -4.4149 C   0  0  0  0  0  0
   29.6193    6.7381    4.5274 C   0  0  0  0  0  0
   27.2449    5.5353    3.3586 C   0  0  0  0  0  0
   25.0076    4.7545    3.6231 C   0  0  0  0  0  0
   29.5684    3.0531   -5.2138 C   0  0  0  0  0  0
   28.7060    4.9614   -4.0067 C   0  0  0  0  0  0
   32.0255    6.9427    4.8052 C   0  0  0  0  0  0
   32.2731    7.1932    3.3167 C   0  0  0  0  0  0
   26.1775    4.7883    2.8728 C   0  0  0  0  0  0
   37.7857    7.3098    0.6310 H   0  0  0  0  0  0
   34.3989    3.4277   -7.9309 H   0  0  0  0  0  0
   31.6130    3.5857   -7.5079 H   0  0  0  0  0  0
   31.5397    2.0969   -6.6183 H   0  0  0  0  0  0
   38.2089    5.7424   -2.6595 H   0  0  0  0  0  0
   35.7511    3.0465   -0.3805 H   0  0  0  0  0  0
   34.4868    2.4803   -2.4128 H   0  0  0  0  0  0
   37.0486    5.0502   -4.7032 H   0  0  0  0  0  0
   28.0399    8.0600    5.1526 H   0  0  0  0  0  0
   31.6300    5.7407   -5.5301 H   0  0  0  0  0  0
   30.5733    7.4493    6.1855 H   0  0  0  0  0  0
   25.7149    6.7137    6.1560 H   0  0  0  0  0  0
   36.7968    8.0821    2.7351 H   0  0  0  0  0  0
   34.9655    5.0389    0.3157 H   0  0  0  0  0  0
   34.6634    8.3582    3.9478 H   0  0  0  0  0  0
   32.8980    5.2717    1.5279 H   0  0  0  0  0  0
   27.7257    7.1890    7.0578 H   0  0  0  0  0  0
   27.7281    3.0516   -4.1006 H   0  0  0  0  0  0
   29.8074    5.6651    4.4867 H   0  0  0  0  0  0
   29.5533    7.0992    3.5011 H   0  0  0  0  0  0
   28.1627    5.5351    2.7903 H   0  0  0  0  0  0
   24.1582    4.1792    3.2859 H   0  0  0  0  0  0
   29.4602    2.0214   -5.5130 H   0  0  0  0  0  0
   27.9407    5.4061   -3.3875 H   0  0  0  0  0  0
   32.7909    7.4493    5.3931 H   0  0  0  0  0  0
   32.1566    5.8896    5.0557 H   0  0  0  0  0  0
   31.5293    6.6818    2.7061 H   0  0  0  0  0  0
   32.1257    8.2497    3.1090 H   0  0  0  0  0  0
   26.2621    4.2370    1.9472 H   0  0  0  0  0  0
  1  6  1  0  0  0
  1  8  1  0  0  0
  1 10  2  0  0  0
  1 11  2  0  0  0
  2  9  1  0  0  0
  2  3  1  0  0  0
  2  4  1  0  0  0
  3  5  2  0  0  0
  4  7  2  0  0  0
  5 14  1  0  0  0
  5  7  1  0  0  0
  6 20  1  0  0  0
  6 42  1  0  0  0
  7 43  1  0  0  0
  8 15  2  0  0  0
  8 16  1  0  0  0
  9 17  1  0  0  0
  9 18  2  0  0  0
 12 21  1  0  0  0
 12 27  1  0  0  0
 12 35  2  0  0  0
 13 27  2  0  0  0
 13 36  1  0  0  0
 14 19  1  0  0  0
 14 44  1  0  0  0
 14 45  1  0  0  0
 15 18  1  0  0  0
 15 46  1  0  0  0
 16 17  2  0  0  0
 16 47  1  0  0  0
 17 48  1  0  0  0
 18 49  1  0  0  0
 19 22  2  0  0  0
 19 37  1  0  0  0
 20 28  1  0  0  0
 20 29  2  0  0  0
 21 34  1  0  0  0
 21 32  1  0  0  0
 21 50  1  0  0  0
 22 23  1  0  0  0
 22 51  1  0  0  0
 23 26  1  0  0  0
 23 38  2  0  0  0
 24 39  1  0  0  0
 24 34  1  0  0  0
 24 52  1  0  0  0
 25 31  2  0  0  0
 25 40  1  0  0  0
 25 30  1  0  0  0
 27 53  1  0  0  0
 28 30  2  0  0  0
 28 54  1  0  0  0
 29 31  1  0  0  0
 29 55  1  0  0  0
 30 56  1  0  0  0
 31 57  1  0  0  0
 32 58  1  0  0  0
 33 37  2  0  0  0
 33 38  1  0  0  0
 33 59  1  0  0  0
 34 60  1  0  0  0
 34 61  1  0  0  0
 35 41  1  0  0  0
 35 62  1  0  0  0
 36 41  2  0  0  0
 36 63  1  0  0  0
 37 64  1  0  0  0
 38 65  1  0  0  0
 39 40  1  0  0  0
 39 66  1  0  0  0
 39 67  1  0  0  0
 40 68  1  0  0  0
 40 69  1  0  0  0
 41 70  1  0  0  0
M  END
> <s_m_entry_id>
3126

> <s_m_entry_name>
dock_pv.218

> <s_m_Source_Path>
/home/csk/Desktop/cluster/DUD-E-result/adrb1

> <s_m_Source_File>
dock_pv.maegz

> <i_m_Source_File_Index>
218

> <chembl_id>
CHEMBL63963

> <chembl_pref_name>
None

> <i_lp_mmshare_version>
53161

> <i_f3d_flags>
0

> <r_lp_tautomer_probability>
1

> <s_lp_Force_Field>
OPLS_2005

> <r_lp_Energy>
29.604938

> <b_lp_Chiralities_Consistent>
1

> <s_lp_Variant>
CHEMBL213_lig165-1

> <s_i_glide_gridfile>
glide-grid_2vt4

> <i_i_glide_lignum>
200

> <i_i_glide_rotatable_bonds>
13

> <r_i_docking_score>
-7.48815637896951

> <r_i_glide_ligand_efficiency>
-0.182637960462671

> <r_i_glide_ligand_efficiency_sa>
-0.62977536323615

> <r_i_glide_ligand_efficiency_ln>
-1.58863729524033

> <r_i_glide_gscore>
-7.48815637896951

> <r_i_glide_lipo>
-3.05279560977888

> <r_i_glide_hbond>
-0.496383188794329

> <r_i_glide_metal>
0

> <r_i_glide_rewards>
-0.631553011248454

> <r_i_glide_evdw>
-51.6125602722168

> <r_i_glide_ecoul>
-8.84522342681885

> <r_i_glide_erotb>
0.607218779003489

> <r_i_glide_esite>
-0.0072318205176746

> <r_i_glide_emodel>
-83.2650585982915

> <r_i_glide_energy>
-60.4577836990356

> <r_i_glide_einternal>
13.2632827758789

> <i_i_glide_confnum>
6

> <i_i_glide_posenum>
124

> <r_i_glide_eff_state_penalty>
0

> <s_user_duplicate_titles>
CHEMBL213_lig165

> <s_m_subgroup_title>
dock_pv

> <s_m_subgroupid>
dock_pv

> <b_m_subgroup_collapsed>
1

$$$$
CHEMBL213_lig604
                    3D
 Schrodinger Suite 2021-1.
 76 79  0  0  1  0            999 V2000
   32.4914    4.6517   -3.6823 C   0  0  0  0  0  0
   33.7585    4.1656   -3.6767 N   0  0  0  0  0  0
   31.5614    3.6958   -3.8593 N   0  0  0  0  0  0
   29.2838    4.4454   -1.8317 C   0  0  0  0  0  0
   29.3343    4.7549   -3.1999 C   0  0  0  0  0  0
   28.4449    5.1675   -0.9889 C   0  0  0  0  0  0
   34.8614    4.9520   -4.2689 C   0  0  0  0  0  0
   34.1349    3.0111   -2.8212 C   0  0  0  0  0  0
   32.2078    5.8500   -3.6145 O   0  0  0  0  0  0
   30.1492    3.9156   -4.1851 C   0  0  0  0  0  0
   37.2773    4.6492   -1.2837 N   0  0  0  0  0  0
   28.5687    5.8230   -3.6846 C   0  0  0  0  0  0
   35.0646    3.5156   -1.6881 C   0  0  0  0  0  0
   35.8106    5.4330   -3.1545 C   0  0  0  0  0  0
   27.6624    6.2051   -1.4837 C   0  0  0  0  0  0
   36.2723    4.2625   -2.2792 C   0  0  0  0  0  0
   30.2735    6.2497    3.2014 O   0  0  0  0  0  0
   37.1227    5.5004   -0.1793 C   0  0  0  0  0  0
   30.2079    3.1544   -1.1487 Cl  0  0  0  0  0  0
   29.0008    6.1614    3.7266 C   0  0  0  0  0  0
   32.6548    6.4103    3.5377 C   0  0  1  0  0  0
   26.3575    5.8463    4.5695 C   0  0  0  0  0  0
   31.2847    7.0705    3.7896 C   0  0  0  0  0  0
   27.7337    6.5462   -2.8330 C   0  0  0  0  0  0
   35.0170    6.3096    4.2329 N   0  0  2  0  0  0
   26.6079    7.0507   -0.4147 Cl  0  0  0  0  0  0
   36.9674    7.0792    2.1204 C   0  0  0  0  0  0
   38.2018    5.5667    0.7057 C   0  0  0  0  0  0
   35.9733    6.2526    0.0816 C   0  0  0  0  0  0
   28.5524    6.8018    4.8902 C   0  0  0  0  0  0
   28.1166    5.3513    3.0139 C   0  0  0  0  0  0
   26.7922    5.2031    3.4160 C   0  0  0  0  0  0
   27.2405    6.6127    5.3167 C   0  0  0  0  0  0
   38.1274    6.3499    1.8552 C   0  0  0  0  0  0
   35.9061    7.0500    1.2166 C   0  0  0  0  0  0
   32.8783    6.2500    2.1420 O   0  0  0  0  0  0
   25.0609    5.7229    4.9889 O   0  0  0  0  0  0
   33.8378    7.1727    4.1807 C   0  0  0  0  0  0
   36.2540    7.0045    4.5815 C   0  0  0  0  0  0
   36.8172    7.8576    3.4216 C   0  0  0  0  0  0
   31.8861    2.7454   -3.9455 H   0  0  0  0  0  0
   28.3831    4.9020    0.0505 H   0  0  0  0  0  0
   35.4044    4.2698   -4.9238 H   0  0  0  0  0  0
   34.5142    5.7604   -4.9151 H   0  0  0  0  0  0
   34.6731    2.3025   -3.4511 H   0  0  0  0  0  0
   33.2693    2.4851   -2.4182 H   0  0  0  0  0  0
   30.0895    4.3324   -5.1929 H   0  0  0  0  0  0
   29.6648    2.9395   -4.2461 H   0  0  0  0  0  0
   38.0583    3.9963   -1.2168 H   0  0  0  0  0  0
   28.5995    6.0842   -4.7315 H   0  0  0  0  0  0
   35.4128    2.6640   -1.1023 H   0  0  0  0  0  0
   34.4961    4.1351   -0.9954 H   0  0  0  0  0  0
   35.3446    6.2476   -2.6052 H   0  0  0  0  0  0
   36.6980    5.8498   -3.6150 H   0  0  0  0  0  0
   36.8053    3.5601   -2.9244 H   0  0  0  0  0  0
   32.6080    5.4223    3.9841 H   0  0  0  0  0  0
   31.2391    8.0658    3.3527 H   0  0  0  0  0  0
   31.1731    7.1818    4.8674 H   0  0  0  0  0  0
   27.1332    7.3537   -3.2262 H   0  0  0  0  0  0
   35.1064    5.8762    3.3188 H   0  0  0  0  0  0
   39.0966    4.9906    0.5118 H   0  0  0  0  0  0
   35.1109    6.2202   -0.5580 H   0  0  0  0  0  0
   29.1902    7.4380    5.4817 H   0  0  0  0  0  0
   28.4692    4.8283    2.1424 H   0  0  0  0  0  0
   26.1204    4.5849    2.8392 H   0  0  0  0  0  0
   26.8895    7.0499    6.2337 H   0  0  0  0  0  0
   38.9570    6.3637    2.5476 H   0  0  0  0  0  0
   35.0090    7.6165    1.4089 H   0  0  0  0  0  0
   32.7695    7.1065    1.7032 H   0  0  0  0  0  0
   24.5097    5.2463    4.3635 H   0  0  0  0  0  0
   34.0235    8.0941    3.6275 H   0  0  0  0  0  0
   33.5823    7.4482    5.2042 H   0  0  0  0  0  0
   36.1117    7.6013    5.4838 H   0  0  0  0  0  0
   36.9839    6.2293    4.8182 H   0  0  0  0  0  0
   36.1936    8.7356    3.2488 H   0  0  0  0  0  0
   37.7919    8.2511    3.7066 H   0  0  0  0  0  0
  1  2  1  0  0  0
  1  3  1  0  0  0
  1  9  2  0  0  0
  2  7  1  0  0  0
  2  8  1  0  0  0
  3 10  1  0  0  0
  3 41  1  0  0  0
  4  5  1  0  0  0
  4  6  2  0  0  0
  4 19  1  0  0  0
  5 10  1  0  0  0
  5 12  2  0  0  0
  6 15  1  0  0  0
  6 42  1  0  0  0
  7 14  1  0  0  0
  7 43  1  0  0  0
  7 44  1  0  0  0
  8 13  1  0  0  0
  8 45  1  0  0  0
  8 46  1  0  0  0
 10 47  1  0  0  0
 10 48  1  0  0  0
 11 16  1  0  0  0
 11 18  1  0  0  0
 11 49  1  0  0  0
 12 24  1  0  0  0
 12 50  1  0  0  0
 13 16  1  0  0  0
 13 51  1  0  0  0
 13 52  1  0  0  0
 14 16  1  0  0  0
 14 53  1  0  0  0
 14 54  1  0  0  0
 15 24  2  0  0  0
 15 26  1  0  0  0
 16 55  1  0  0  0
 17 23  1  0  0  0
 17 20  1  0  0  0
 18 28  2  0  0  0
 18 29  1  0  0  0
 20 30  2  0  0  0
 20 31  1  0  0  0
 21 38  1  0  0  0
 21 23  1  0  0  0
 21 36  1  0  0  0
 21 56  1  0  0  0
 22 32  1  0  0  0
 22 37  1  0  0  0
 22 33  2  0  0  0
 23 57  1  0  0  0
 23 58  1  0  0  0
 24 59  1  0  0  0
 25 39  1  0  0  0
 25 38  1  0  0  0
 25 60  1  0  0  0
 27 35  1  0  0  0
 27 40  1  0  0  0
 27 34  2  0  0  0
 28 34  1  0  0  0
 28 61  1  0  0  0
 29 35  2  0  0  0
 29 62  1  0  0  0
 30 33  1  0  0  0
 30 63  1  0  0  0
 31 32  2  0  0  0
 31 64  1  0  0  0
 32 65  1  0  0  0
 33 66  1  0  0  0
 34 67  1  0  0  0
 35 68  1  0  0  0
 36 69  1  0  0  0
 37 70  1  0  0  0
 38 71  1  0  0  0
 38 72  1  0  0  0
 39 40  1  0  0  0
 39 73  1  0  0  0
 39 74  1  0  0  0
 40 75  1  0  0  0
 40 76  1  0  0  0
M  END
> <s_m_entry_id>
3127

> <s_m_entry_name>
dock_pv.219

> <s_m_Source_Path>
/home/csk/Desktop/cluster/DUD-E-result/adrb1

> <s_m_Source_File>
dock_pv.maegz

> <i_m_Source_File_Index>
219

> <chembl_id>
CHEMBL319041

> <chembl_pref_name>
None

> <i_lp_mmshare_version>
53161

> <i_f3d_flags>
0

> <r_lp_tautomer_probability>
1

> <s_lp_Force_Field>
OPLS_2005

> <r_lp_Energy>
58.608013

> <b_lp_Chiralities_Consistent>
1

> <s_lp_Variant>
CHEMBL213_lig604-1

> <s_i_glide_gridfile>
glide-grid_2vt4

> <i_i_glide_lignum>
704

> <i_i_glide_rotatable_bonds>
16

> <r_i_docking_score>
-7.48636731730644

> <r_i_glide_ligand_efficiency>
-0.187159182932661

> <r_i_glide_ligand_efficiency_sa>
-0.640075401241974

> <r_i_glide_ligand_efficiency_ln>
-1.59662183482624

> <r_i_glide_gscore>
-7.48636731730644

> <r_i_glide_lipo>
-2.57854302140655

> <r_i_glide_hbond>
-0.432

> <r_i_glide_metal>
0

> <r_i_glide_rewards>
-0.511952848171399

> <r_i_glide_evdw>
-56.1142425537109

> <r_i_glide_ecoul>
-12.2695627212524

> <r_i_glide_erotb>
0.682275088144924

> <r_i_glide_esite>
0

> <r_i_glide_emodel>
-92.2109896302224

> <r_i_glide_energy>
-68.3838052749634

> <r_i_glide_einternal>
11.9545040130615

> <i_i_glide_confnum>
16

> <i_i_glide_posenum>
269

> <r_i_glide_eff_state_penalty>
0

> <s_user_duplicate_titles>
CHEMBL213_lig604,173589

> <s_m_subgroup_title>
dock_pv

> <s_m_subgroupid>
dock_pv

> <b_m_subgroup_collapsed>
1

$$$$
CHEMBL213_lig995
                    3D
 Schrodinger Suite 2021-1.
 50 52  0  0  1  0            999 V2000
   24.7274    4.6500    3.7761 C   0  0  0  0  0  0
   23.9248    3.9573    2.8701 C   0  0  0  0  0  0
   24.4214    3.6069    1.6198 C   0  0  0  0  0  0
   25.7306    3.9464    1.2432 C   0  0  0  0  0  0
   24.2080    5.0500    4.9831 O   0  0  0  0  0  0
   26.2717    3.5565   -0.1366 C   0  0  2  0  0  0
   26.6034    4.8045   -0.9951 C   0  0  0  0  0  0
   25.4112    2.6500   -0.8150 O   0  0  0  0  0  0
   27.7408    4.6178   -1.9065 N   0  0  2  0  0  0
   28.0368    5.7103   -2.8488 C   0  0  0  0  0  0
   29.4900    5.5269   -3.3927 C   0  0  0  0  0  0
   29.8195    4.4081   -4.3964 C   0  0  0  0  0  0
   30.9916    4.5323   -5.1542 C   0  0  0  0  0  0
   31.3622    3.5460   -6.0678 C   0  0  0  0  0  0
   30.5632    2.4192   -6.2403 C   0  0  0  0  0  0
   29.3961    2.2774   -5.4948 C   0  0  0  0  0  0
   29.0278    3.2643   -4.5793 C   0  0  0  0  0  0
   27.0080    5.7924   -3.9933 C   0  0  0  0  0  0
   27.9617    7.0500   -2.0893 C   0  0  0  0  0  0
   26.0300    5.0090    3.4196 C   0  0  0  0  0  0
   26.5274    4.6500    2.1648 C   0  0  0  0  0  0
   27.8080    5.0500    1.8247 O   0  0  0  0  0  0
   28.7501    5.1236    2.9231 C   0  0  0  0  0  0
   28.1931    5.8875    4.1578 C   0  0  0  0  0  0
   26.8615    5.7366    4.2763 N   0  0  0  0  0  0
   28.8672    6.5633    4.9330 O   0  0  0  0  0  0
   28.6244    1.1792   -5.6586 F   0  0  0  0  0  0
   32.4956    3.6837   -6.7909 F   0  0  0  0  0  0
   22.9090    3.6969    3.1281 H   0  0  0  0  0  0
   23.7681    3.0753    0.9427 H   0  0  0  0  0  0
   23.2491    5.0020    5.0090 H   0  0  0  0  0  0
   27.2023    3.0193    0.0326 H   0  0  0  0  0  0
   26.8981    5.5957   -0.3093 H   0  0  0  0  0  0
   25.7271    5.1913   -1.5042 H   0  0  0  0  0  0
   24.8163    3.1486   -1.3983 H   0  0  0  0  0  0
   27.6568    3.7254   -2.3803 H   0  0  0  0  0  0
   30.1788    5.4230   -2.5526 H   0  0  0  0  0  0
   29.7718    6.4609   -3.8832 H   0  0  0  0  0  0
   31.6261    5.3994   -5.0402 H   0  0  0  0  0  0
   30.8505    1.6569   -6.9479 H   0  0  0  0  0  0
   28.1240    3.1041   -4.0150 H   0  0  0  0  0  0
   27.3840    6.4085   -4.8048 H   0  0  0  0  0  0
   26.7653    4.8203   -4.4171 H   0  0  0  0  0  0
   26.0701    6.2500   -3.6737 H   0  0  0  0  0  0
   28.2080    7.8954   -2.7319 H   0  0  0  0  0  0
   26.9576    7.2374   -1.7149 H   0  0  0  0  0  0
   28.6080    7.0500   -1.2150 H   0  0  0  0  0  0
   28.9630    4.1123    3.2732 H   0  0  0  0  0  0
   29.6883    5.5805    2.6082 H   0  0  0  0  0  0
   26.4586    6.1625    5.0984 H   0  0  0  0  0  0
  1  2  1  0  0  0
  1  5  1  0  0  0
  1 20  2  0  0  0
  2  3  2  0  0  0
  2 29  1  0  0  0
  3  4  1  0  0  0
  3 30  1  0  0  0
  4  6  1  0  0  0
  4 21  2  0  0  0
  5 31  1  0  0  0
  6  7  1  0  0  0
  6  8  1  0  0  0
  6 32  1  0  0  0
  7  9  1  0  0  0
  7 33  1  0  0  0
  7 34  1  0  0  0
  8 35  1  0  0  0
  9 10  1  0  0  0
  9 36  1  0  0  0
 10 18  1  0  0  0
 10 19  1  0  0  0
 10 11  1  0  0  0
 11 12  1  0  0  0
 11 37  1  0  0  0
 11 38  1  0  0  0
 12 17  1  0  0  0
 12 13  2  0  0  0
 13 14  1  0  0  0
 13 39  1  0  0  0
 14 15  2  0  0  0
 14 28  1  0  0  0
 15 16  1  0  0  0
 15 40  1  0  0  0
 16 17  2  0  0  0
 16 27  1  0  0  0
 17 41  1  0  0  0
 18 42  1  0  0  0
 18 43  1  0  0  0
 18 44  1  0  0  0
 19 45  1  0  0  0
 19 46  1  0  0  0
 19 47  1  0  0  0
 20 21  1  0  0  0
 20 25  1  0  0  0
 21 22  1  0  0  0
 22 23  1  0  0  0
 23 24  1  0  0  0
 23 48  1  0  0  0
 23 49  1  0  0  0
 24 25  1  0  0  0
 24 26  2  0  0  0
 25 50  1  0  0  0
M  END
> <s_m_entry_id>
3128

> <s_m_entry_name>
dock_pv.220

> <s_m_Source_Path>
/home/csk/Desktop/cluster/DUD-E-result/adrb1

> <s_m_Source_File>
dock_pv.maegz

> <i_m_Source_File_Index>
220

> <chembl_id>
CHEMBL565267

> <chembl_pref_name>
None

> <i_lp_mmshare_version>
53161

> <i_f3d_flags>
0

> <r_lp_tautomer_probability>
1

> <s_lp_Force_Field>
OPLS_2005

> <r_lp_Energy>
33.602162

> <b_lp_Chiralities_Consistent>
1

> <s_lp_Variant>
CHEMBL213_lig995-1

> <s_i_glide_gridfile>
glide-grid_2vt4

> <i_i_glide_lignum>
1109

> <i_i_glide_rotatable_bonds>
8

> <r_i_docking_score>
-7.48024992632843

> <r_i_glide_ligand_efficiency>
-0.267151783083158

> <r_i_glide_ligand_efficiency_sa>
-0.811230157426175

> <r_i_glide_ligand_efficiency_ln>
-1.72666131267794

> <r_i_glide_gscore>
-7.48024992632843

> <r_i_glide_lipo>
-2.34965126125453

> <r_i_glide_hbond>
-0.711018377471433

> <r_i_glide_metal>
0

> <r_i_glide_rewards>
-2.00679199857342

> <r_i_glide_evdw>
-33.0743522644043

> <r_i_glide_ecoul>
-9.28720378875732

> <r_i_glide_erotb>
0.634009892504775

> <r_i_glide_esite>
0

> <r_i_glide_emodel>
-56.1346238664561

> <r_i_glide_energy>
-42.3615560531616

> <r_i_glide_einternal>
12.4349555969238

> <i_i_glide_confnum>
53

> <i_i_glide_posenum>
103

> <r_i_glide_eff_state_penalty>
0

> <s_user_duplicate_titles>
CHEMBL213_lig995,573879

> <s_m_subgroup_title>
dock_pv

> <s_m_subgroupid>
dock_pv

> <b_m_subgroup_collapsed>
1

$$$$
CHEMBL213_lig1194
                    3D
 Schrodinger Suite 2021-1.
 45 47  0  0  1  0            999 V2000
   30.3050    5.0500    0.6998 C   0  0  0  0  0  0
   30.2775    5.3052    2.0661 C   0  0  0  0  0  0
   27.8620    5.0500    0.6218 C   0  0  0  0  0  0
   29.1161    4.9357   -0.0144 C   0  0  0  0  0  0
   27.8363    5.3004    2.0093 C   0  0  0  0  0  0
   29.0462    5.4500    2.7180 C   0  0  0  0  0  0
   29.0054    5.8493    4.0677 N   0  0  0  0  0  0
   27.9096    6.0100    4.8387 C   0  0  0  0  0  0
   26.6629    5.8205    4.1233 C   0  0  0  0  0  0
   26.6052    5.4818    2.8160 C   0  0  0  0  0  0
   28.0076    6.2514    6.0353 O   0  0  0  0  0  0
   31.4643    5.4500    2.7374 O   0  0  0  0  0  0
   26.5616    4.8640   -0.1872 C   0  0  1  0  0  0
   26.7648    5.0708   -1.6149 N   0  0  2  0  0  0
   25.9804    3.4274   -0.0785 C   0  0  0  0  0  0
   25.4074    3.1485    1.1831 O   0  0  0  0  0  0
   27.0245    6.4259   -2.0710 C   0  0  0  0  0  0
   27.2970    6.3818   -3.5902 C   0  0  0  0  0  0
   28.5550    5.5983   -3.9924 C   0  0  0  0  0  0
   29.7342    6.2473   -4.3862 C   0  0  0  0  0  0
   30.8455    5.5058   -4.7937 C   0  0  0  0  0  0
   30.7952    4.1132   -4.8037 C   0  0  0  0  0  0
   29.6282    3.4593   -4.4153 C   0  0  0  0  0  0
   28.5152    4.1982   -4.0161 C   0  0  0  0  0  0
   29.8079    7.6121   -4.4150 O   0  0  0  0  0  0
   31.2506    4.9721    0.1838 H   0  0  0  0  0  0
   29.1814    4.7281   -1.0736 H   0  0  0  0  0  0
   29.8791    6.0032    4.5398 H   0  0  0  0  0  0
   25.7506    5.9421    4.6882 H   0  0  0  0  0  0
   25.6315    5.3301    2.3823 H   0  0  0  0  0  0
   31.4614    4.9340    3.5592 H   0  0  0  0  0  0
   25.8089    5.5860    0.1261 H   0  0  0  0  0  0
   25.9961    4.6717   -2.1746 H   0  0  0  0  0  0
   25.1726    3.2841   -0.7985 H   0  0  0  0  0  0
   26.7403    2.6768   -0.3032 H   0  0  0  0  0  0
   24.9626    2.2985    1.1342 H   0  0  0  0  0  0
   26.1631    7.0543   -1.8506 H   0  0  0  0  0  0
   27.8990    6.8268   -1.5564 H   0  0  0  0  0  0
   26.4436    5.9432   -4.1097 H   0  0  0  0  0  0
   27.3462    7.3997   -3.9785 H   0  0  0  0  0  0
   31.7489    6.0068   -5.1102 H   0  0  0  0  0  0
   31.6573    3.5427   -5.1164 H   0  0  0  0  0  0
   29.5788    2.3800   -4.4196 H   0  0  0  0  0  0
   27.6146    3.6731   -3.7283 H   0  0  0  0  0  0
   30.4771    7.9154   -5.0496 H   0  0  0  0  0  0
  1  2  2  0  0  0
  1  4  1  0  0  0
  1 26  1  0  0  0
  2  6  1  0  0  0
  2 12  1  0  0  0
  3  5  1  0  0  0
  3  4  2  0  0  0
  3 13  1  0  0  0
  4 27  1  0  0  0
  5  6  2  0  0  0
  5 10  1  0  0  0
  6  7  1  0  0  0
  7  8  1  0  0  0
  7 28  1  0  0  0
  8  9  1  0  0  0
  8 11  2  0  0  0
  9 10  2  0  0  0
  9 29  1  0  0  0
 10 30  1  0  0  0
 12 31  1  0  0  0
 13 14  1  0  0  0
 13 15  1  0  0  0
 13 32  1  0  0  0
 14 17  1  0  0  0
 14 33  1  0  0  0
 15 16  1  0  0  0
 15 34  1  0  0  0
 15 35  1  0  0  0
 16 36  1  0  0  0
 17 18  1  0  0  0
 17 37  1  0  0  0
 17 38  1  0  0  0
 18 19  1  0  0  0
 18 39  1  0  0  0
 18 40  1  0  0  0
 19 20  2  0  0  0
 19 24  1  0  0  0
 20 21  1  0  0  0
 20 25  1  0  0  0
 21 22  2  0  0  0
 21 41  1  0  0  0
 22 23  1  0  0  0
 22 42  1  0  0  0
 23 24  2  0  0  0
 23 43  1  0  0  0
 24 44  1  0  0  0
 25 45  1  0  0  0
M  END
> <s_m_entry_id>
3129

> <s_m_entry_name>
dock_pv.221

> <s_m_Source_Path>
/home/csk/Desktop/cluster/DUD-E-result/adrb1

> <s_m_Source_File>
dock_pv.maegz

> <i_m_Source_File_Index>
221

> <chembl_id>
CHEMBL4280227

> <chembl_pref_name>
None

> <i_lp_mmshare_version>
53161

> <i_f3d_flags>
0

> <r_lp_tautomer_probability>
0.999999999997365

> <s_lp_Force_Field>
OPLS_2005

> <r_lp_Energy>
24.69464

> <b_lp_Chiralities_Consistent>
1

> <s_lp_Variant>
CHEMBL213_lig1194-2

> <s_i_glide_gridfile>
glide-grid_2vt4

> <i_i_glide_lignum>
1401

> <i_i_glide_rotatable_bonds>
9

> <r_i_docking_score>
-7.48019858589661

> <r_i_glide_ligand_efficiency>
-0.299207943435864

> <r_i_glide_ligand_efficiency_sa>
-0.874889333081939

> <r_i_glide_ligand_efficiency_ln>
-1.77303122832023

> <r_i_glide_gscore>
-7.48019858589661

> <r_i_glide_lipo>
-2.28709303801547

> <r_i_glide_hbond>
-0.791882520985769

> <r_i_glide_metal>
0

> <r_i_glide_rewards>
-1.57164822298758

> <r_i_glide_evdw>
-27.4968585968018

> <r_i_glide_ecoul>
-16.2362899780273

> <r_i_glide_erotb>
0.980711622636398

> <r_i_glide_esite>
0

> <r_i_glide_emodel>
-63.8978598454476

> <r_i_glide_energy>
-43.7331485748291

> <r_i_glide_einternal>
4.16412973403931

> <i_i_glide_confnum>
31

> <i_i_glide_posenum>
167

> <r_i_glide_eff_state_penalty>
0

> <s_user_duplicate_titles>
CHEMBL213_lig1194

> <s_m_subgroup_title>
dock_pv

> <s_m_subgroupid>
dock_pv

> <b_m_subgroup_collapsed>
1

$$$$
CHEMBL213_lig1295
                    3D
 Schrodinger Suite 2021-1.
 67 69  0  0  1  0            999 V2000
   29.9522    4.9103   -2.5813 N   0  0  1  0  0  0
   31.0762    5.4798   -3.3300 C   0  0  2  0  0  0
   30.9536    5.3449   -4.8845 C   0  0  0  0  0  0
   32.4115    5.0896   -2.6708 C   0  0  0  0  0  0
   30.9434    3.9583   -5.5342 C   0  0  0  0  0  0
   32.6272    5.4215   -1.3264 C   0  0  0  0  0  0
   33.8570    5.2005   -0.7141 C   0  0  0  0  0  0
   34.8807    4.5658   -1.4114 C   0  0  0  0  0  0
   34.6499    4.1375   -2.7298 C   0  0  0  0  0  0
   33.4438    4.4442   -3.3600 C   0  0  0  0  0  0
   29.9387    3.0258   -5.2478 C   0  0  0  0  0  0
   29.8952    1.8146   -5.9316 C   0  0  0  0  0  0
   30.8467    1.5394   -6.9100 C   0  0  0  0  0  0
   31.8490    2.4598   -7.2078 C   0  0  0  0  0  0
   31.9004    3.6635   -6.5120 C   0  0  0  0  0  0
   26.2617    4.7971    2.5305 C   0  0  0  0  0  0
   24.9688    4.2481    2.5129 C   0  0  0  0  0  0
   24.4638    3.6969    1.3359 C   0  0  0  0  0  0
   25.2474    3.6613    0.1848 C   0  0  0  0  0  0
   26.5231    4.2235    0.1811 C   0  0  0  0  0  0
   27.0121    4.8020    1.3536 C   0  0  0  0  0  0
   24.1693    4.2500    3.6210 O   0  0  0  0  0  0
   26.9294    5.1850    3.6974 N   0  0  0  0  0  0
   26.3841    6.4157    4.8365 S   0  0  0  0  0  0
   27.9460    6.4821    5.8737 C   0  0  0  0  0  0
   25.2836    5.8475    5.6166 O   0  0  0  0  0  0
   26.2009    7.6644    4.0946 O   0  0  0  0  0  0
   27.3902    4.1797   -1.0765 C   0  0  0  0  0  0
   27.7641    5.5756   -1.6178 C   0  0  1  0  0  0
   28.6798    5.5792   -2.8583 C   0  0  0  0  0  0
   26.5805    6.2584   -1.9683 O   0  0  0  0  0  0
   36.0610    4.3276   -0.7494 O   0  0  0  0  0  0
   37.2002    4.9994   -1.2785 C   0  0  0  0  0  0
   35.5671    3.3931   -3.4271 O   0  0  0  0  0  0
   35.8192    2.1097   -2.8716 C   0  0  0  0  0  0
   29.8562    3.9452   -2.8750 H   0  0  0  0  0  0
   31.0334    6.5545   -3.1523 H   0  0  0  0  0  0
   30.0401    5.8410   -5.2092 H   0  0  0  0  0  0
   31.7446    5.9445   -5.3339 H   0  0  0  0  0  0
   31.8310    5.8499   -0.7395 H   0  0  0  0  0  0
   34.0064    5.4953    0.3165 H   0  0  0  0  0  0
   33.3231    4.1357   -4.3820 H   0  0  0  0  0  0
   29.1682    3.2367   -4.5243 H   0  0  0  0  0  0
   29.1148    1.1004   -5.7190 H   0  0  0  0  0  0
   30.8077    0.6062   -7.4445 H   0  0  0  0  0  0
   32.5729    2.2455   -7.9803 H   0  0  0  0  0  0
   32.6693    4.3801   -6.7625 H   0  0  0  0  0  0
   23.4557    3.3145    1.3144 H   0  0  0  0  0  0
   24.8543    3.2089   -0.7157 H   0  0  0  0  0  0
   28.0151    5.2034    1.3593 H   0  0  0  0  0  0
   24.5389    4.7556    4.3542 H   0  0  0  0  0  0
   27.9237    5.0171    3.7057 H   0  0  0  0  0  0
   27.7804    7.0458    6.7790 H   0  0  0  0  0  0
   28.7383    6.9392    5.2853 H   0  0  0  0  0  0
   28.1974    5.4575    6.1399 H   0  0  0  0  0  0
   28.2962    3.6173   -0.8438 H   0  0  0  0  0  0
   26.8838    3.6092   -1.8563 H   0  0  0  0  0  0
   28.2538    6.1603   -0.8364 H   0  0  0  0  0  0
   28.1876    5.1074   -3.7093 H   0  0  0  0  0  0
   28.8583    6.6201   -3.1337 H   0  0  0  0  0  0
   26.0013    5.6472   -2.4459 H   0  0  0  0  0  0
   38.0563    4.8220   -0.6316 H   0  0  0  0  0  0
   37.4638    4.6374   -2.2714 H   0  0  0  0  0  0
   37.0441    6.0797   -1.3334 H   0  0  0  0  0  0
   36.1823    1.4582   -3.6626 H   0  0  0  0  0  0
   36.5888    2.1567   -2.0983 H   0  0  0  0  0  0
   34.9307    1.6398   -2.4304 H   0  0  0  0  0  0
  1  2  1  0  0  0
  1 30  1  0  0  0
  1 36  1  0  0  0
  2  3  1  0  0  0
  2  4  1  0  0  0
  2 37  1  0  0  0
  3  5  1  0  0  0
  3 38  1  0  0  0
  3 39  1  0  0  0
  4 10  1  0  0  0
  4  6  2  0  0  0
  5 11  2  0  0  0
  5 15  1  0  0  0
  6  7  1  0  0  0
  6 40  1  0  0  0
  7  8  2  0  0  0
  7 41  1  0  0  0
  8  9  1  0  0  0
  8 32  1  0  0  0
  9 10  2  0  0  0
  9 34  1  0  0  0
 10 42  1  0  0  0
 11 12  1  0  0  0
 11 43  1  0  0  0
 12 13  2  0  0  0
 12 44  1  0  0  0
 13 14  1  0  0  0
 13 45  1  0  0  0
 14 15  2  0  0  0
 14 46  1  0  0  0
 15 47  1  0  0  0
 16 21  1  0  0  0
 16 23  1  0  0  0
 16 17  2  0  0  0
 17 18  1  0  0  0
 17 22  1  0  0  0
 18 19  2  0  0  0
 18 48  1  0  0  0
 19 20  1  0  0  0
 19 49  1  0  0  0
 20 21  2  0  0  0
 20 28  1  0  0  0
 21 50  1  0  0  0
 22 51  1  0  0  0
 23 24  1  0  0  0
 23 52  1  0  0  0
 24 25  1  0  0  0
 24 26  2  0  0  0
 24 27  2  0  0  0
 25 53  1  0  0  0
 25 54  1  0  0  0
 25 55  1  0  0  0
 28 29  1  0  0  0
 28 56  1  0  0  0
 28 57  1  0  0  0
 29 30  1  0  0  0
 29 31  1  0  0  0
 29 58  1  0  0  0
 30 59  1  0  0  0
 30 60  1  0  0  0
 31 61  1  0  0  0
 32 33  1  0  0  0
 33 62  1  0  0  0
 33 63  1  0  0  0
 33 64  1  0  0  0
 34 35  1  0  0  0
 35 65  1  0  0  0
 35 66  1  0  0  0
 35 67  1  0  0  0
M  END
> <s_m_entry_id>
3130

> <s_m_entry_name>
dock_pv.222

> <s_m_Source_Path>
/home/csk/Desktop/cluster/DUD-E-result/adrb1

> <s_m_Source_File>
dock_pv.maegz

> <i_m_Source_File_Index>
222

> <chembl_id>
CHEMBL399329

> <chembl_pref_name>
None

> <i_lp_mmshare_version>
53161

> <i_f3d_flags>
0

> <r_lp_tautomer_probability>
1

> <s_lp_Force_Field>
OPLS_2005

> <r_lp_Energy>
25.916584

> <b_lp_Chiralities_Consistent>
1

> <s_lp_Variant>
CHEMBL213_lig1295-1

> <s_i_glide_gridfile>
glide-grid_2vt4

> <i_i_glide_lignum>
1547

> <i_i_glide_rotatable_bonds>
14

> <r_i_docking_score>
-7.47331142032559

> <r_i_glide_ligand_efficiency>
-0.213523183437874

> <r_i_glide_ligand_efficiency_sa>
-0.698448490960105

> <r_i_glide_ligand_efficiency_ln>
-1.64055771797208

> <r_i_glide_gscore>
-7.47331142032559

> <r_i_glide_lipo>
-3.49449595825558

> <r_i_glide_hbond>
-0.16

> <r_i_glide_metal>
0

> <r_i_glide_rewards>
-0.941839407270593

> <r_i_glide_evdw>
-53.4888496398926

> <r_i_glide_ecoul>
-6.23931694030762

> <r_i_glide_erotb>
0.733363968241355

> <r_i_glide_esite>
0

> <r_i_glide_emodel>
-48.2514785420069

> <r_i_glide_energy>
-59.7281665802002

> <r_i_glide_einternal>
27.382396697998

> <i_i_glide_confnum>
106

> <i_i_glide_posenum>
390

> <r_i_glide_eff_state_penalty>
0

> <s_user_duplicate_titles>
CHEMBL213_lig1295

> <s_m_subgroup_title>
dock_pv

> <s_m_subgroupid>
dock_pv

> <b_m_subgroup_collapsed>
1

$$$$
CHEMBL213_lig477
                    3D
 Schrodinger Suite 2021-1.
 56 58  0  0  1  0            999 V2000
   34.2037    3.9911   -6.4841 C   0  0  0  0  0  0
   33.5108    3.0436   -7.2335 C   0  0  0  0  0  0
   32.1761    4.5274   -5.2453 C   0  0  0  0  0  0
   33.5429    4.7198   -5.4954 C   0  0  0  0  0  0
   31.4943    3.5492   -5.9954 C   0  0  0  0  0  0
   32.1565    2.8189   -6.9781 C   0  0  0  0  0  0
   31.3381    1.9002   -7.6153 N   0  0  0  0  0  0
   30.0266    1.8087   -7.2037 C   0  0  0  0  0  0
   29.8081    3.0496   -5.8894 S   0  0  0  0  0  0
   29.1548    1.0502   -7.6157 O   0  0  0  0  0  0
   34.1585    2.3294   -8.2075 O   0  0  0  0  0  0
   31.4806    5.4143   -4.2056 C   0  0  2  0  0  0
   30.8717    4.6020   -3.0253 C   0  0  0  0  0  0
   30.0031    5.4501   -2.2189 N   0  0  2  0  0  0
   29.1123    4.6938   -1.3545 C   0  0  0  0  0  0
   27.9465    5.5890   -0.9114 C   0  0  0  0  0  0
   27.0064    4.8893    0.0524 C   0  0  0  0  0  0
   26.1747    3.8665   -0.4109 C   0  0  0  0  0  0
   25.2760    3.2524    0.4594 C   0  0  0  0  0  0
   25.2148    3.6466    1.7967 C   0  0  0  0  0  0
   26.0620    4.6501    2.2855 C   0  0  0  0  0  0
   26.9510    5.2747    1.3969 C   0  0  0  0  0  0
   30.5022    6.2498   -4.8150 O   0  0  0  0  0  0
   25.9364    5.0485    3.7616 C   0  0  0  0  0  0
   26.6974    6.2236    4.1939 N   0  0  2  0  0  0
   28.0980    5.9518    4.5150 C   0  0  0  0  0  0
   28.7466    7.2328    5.0847 C   0  0  0  0  0  0
   30.1016    7.0501    5.4793 O   0  0  0  0  0  0
   31.0309    6.9548    4.4034 C   0  0  0  0  0  0
   35.2520    4.1810   -6.6657 H   0  0  0  0  0  0
   34.1091    5.4500   -4.9375 H   0  0  0  0  0  0
   31.6807    1.3162   -8.3626 H   0  0  0  0  0  0
   35.0766    2.5916   -8.3042 H   0  0  0  0  0  0
   32.2100    6.0949   -3.7668 H   0  0  0  0  0  0
   30.2946    3.7596   -3.4000 H   0  0  0  0  0  0
   31.6650    4.1855   -2.4020 H   0  0  0  0  0  0
   29.4667    6.0202   -2.8641 H   0  0  0  0  0  0
   28.6858    3.8495   -1.8920 H   0  0  0  0  0  0
   29.6448    4.2820   -0.4962 H   0  0  0  0  0  0
   28.3068    6.5147   -0.4691 H   0  0  0  0  0  0
   27.3672    5.8997   -1.7834 H   0  0  0  0  0  0
   26.2082    3.5626   -1.4481 H   0  0  0  0  0  0
   24.6169    2.4809    0.0888 H   0  0  0  0  0  0
   24.5062    3.1617    2.4526 H   0  0  0  0  0  0
   27.5859    6.0783    1.7377 H   0  0  0  0  0  0
   30.9415    6.8836   -5.4038 H   0  0  0  0  0  0
   24.8797    5.2473    3.9467 H   0  0  0  0  0  0
   26.2100    4.1978    4.3849 H   0  0  0  0  0  0
   26.2270    6.6949    4.9562 H   0  0  0  0  0  0
   28.1621    5.1558    5.2582 H   0  0  0  0  0  0
   28.6330    5.6201    3.6263 H   0  0  0  0  0  0
   28.6644    8.0686    4.3869 H   0  0  0  0  0  0
   28.2079    7.5316    5.9833 H   0  0  0  0  0  0
   32.0375    6.8453    4.8085 H   0  0  0  0  0  0
   30.8335    6.0942    3.7645 H   0  0  0  0  0  0
   31.0188    7.8497    3.7799 H   0  0  0  0  0  0
  1  2  2  0  0  0
  1  4  1  0  0  0
  1 30  1  0  0  0
  2 11  1  0  0  0
  2  6  1  0  0  0
  3  4  2  0  0  0
  3 12  1  0  0  0
  3  5  1  0  0  0
  4 31  1  0  0  0
  5  9  1  0  0  0
  5  6  2  0  0  0
  6  7  1  0  0  0
  7  8  1  0  0  0
  7 32  1  0  0  0
  8  9  1  0  0  0
  8 10  2  0  0  0
 11 33  1  0  0  0
 12 23  1  0  0  0
 12 13  1  0  0  0
 12 34  1  0  0  0
 13 14  1  0  0  0
 13 35  1  0  0  0
 13 36  1  0  0  0
 14 15  1  0  0  0
 14 37  1  0  0  0
 15 16  1  0  0  0
 15 38  1  0  0  0
 15 39  1  0  0  0
 16 17  1  0  0  0
 16 40  1  0  0  0
 16 41  1  0  0  0
 17 18  2  0  0  0
 17 22  1  0  0  0
 18 19  1  0  0  0
 18 42  1  0  0  0
 19 20  2  0  0  0
 19 43  1  0  0  0
 20 21  1  0  0  0
 20 44  1  0  0  0
 21 22  2  0  0  0
 21 24  1  0  0  0
 22 45  1  0  0  0
 23 46  1  0  0  0
 24 25  1  0  0  0
 24 47  1  0  0  0
 24 48  1  0  0  0
 25 26  1  0  0  0
 25 49  1  0  0  0
 26 27  1  0  0  0
 26 50  1  0  0  0
 26 51  1  0  0  0
 27 28  1  0  0  0
 27 52  1  0  0  0
 27 53  1  0  0  0
 28 29  1  0  0  0
 29 54  1  0  0  0
 29 55  1  0  0  0
 29 56  1  0  0  0
M  END
> <s_m_entry_id>
3131

> <s_m_entry_name>
dock_pv.223

> <s_m_Source_Path>
/home/csk/Desktop/cluster/DUD-E-result/adrb1

> <s_m_Source_File>
dock_pv.maegz

> <i_m_Source_File_Index>
223

> <chembl_id>
CHEMBL1945292

> <chembl_pref_name>
None

> <i_lp_mmshare_version>
53161

> <i_f3d_flags>
0

> <r_lp_tautomer_probability>
1

> <s_lp_Force_Field>
OPLS_2005

> <r_lp_Energy>
29.607585

> <b_lp_Chiralities_Consistent>
1

> <s_lp_Variant>
CHEMBL213_lig477-1

> <s_i_glide_gridfile>
glide-grid_2vt4

> <i_i_glide_lignum>
566

> <i_i_glide_rotatable_bonds>
13

> <r_i_docking_score>
-7.47190414111601

> <r_i_glide_ligand_efficiency>
-0.257651866935035

> <r_i_glide_ligand_efficiency_sa>
-0.791588165065374

> <r_i_glide_ligand_efficiency_ln>
-1.71087657717456

> <r_i_glide_gscore>
-7.47190414111601

> <r_i_glide_lipo>
-2.91208594158911

> <r_i_glide_hbond>
-0.820229918374629

> <r_i_glide_metal>
0

> <r_i_glide_rewards>
-0.984664011546241

> <r_i_glide_evdw>
-47.1959114074707

> <r_i_glide_ecoul>
-10.1932058334351

> <r_i_glide_erotb>
1.13385217578276

> <r_i_glide_esite>
0

> <r_i_glide_emodel>
-76.389213407949

> <r_i_glide_energy>
-57.3891172409058

> <r_i_glide_einternal>
12.3074817657471

> <i_i_glide_confnum>
451

> <i_i_glide_posenum>
75

> <r_i_glide_eff_state_penalty>
0

> <s_user_duplicate_titles>
CHEMBL213_lig477

> <s_m_subgroup_title>
dock_pv

> <s_m_subgroupid>
dock_pv

> <b_m_subgroup_collapsed>
1

$$$$
CHEMBL213_lig317
                    3D
 Schrodinger Suite 2021-1.
 68 72  0  0  1  0            999 V2000
   36.2149    6.2750    0.8614 S   0  0  0  0  0  0
   29.6668    5.8677    3.1880 N   0  0  0  0  0  0
   30.7604    6.4789    3.5841 C   0  0  0  0  0  0
   28.6033    6.1382    3.9366 C   0  0  0  0  0  0
   30.5324    7.4502    5.0043 S   0  0  0  0  0  0
   36.3936    4.8306   -0.1596 N   0  0  0  0  0  0
   28.8596    7.0236    4.9893 C   0  0  0  0  0  0
   34.6197    6.1967    1.6814 C   0  0  0  0  0  0
   37.2242    6.1493    1.9201 O   0  0  0  0  0  0
   36.2070    7.4510   -0.0127 O   0  0  0  0  0  0
   32.1126    6.3277    2.9388 C   0  0  0  0  0  0
   27.2719    5.5207    3.6234 C   0  0  0  0  0  0
   28.8827    5.8472   -2.9064 C   0  0  0  0  0  0
   27.9218    5.1142   -0.8067 N   0  0  0  0  0  0
   34.5249    6.6156    3.0082 C   0  0  0  0  0  0
   33.4659    5.8102    0.9958 C   0  0  0  0  0  0
   32.2229    5.8513    1.6276 C   0  0  0  0  0  0
   33.2823    6.6783    3.6297 C   0  0  0  0  0  0
   35.6904    4.5580   -1.3451 C   0  0  0  0  0  0
   26.2260    5.6278    4.5455 C   0  0  0  0  0  0
   27.0503    4.8298    2.4242 C   0  0  0  0  0  0
   30.0564    5.8624   -3.8786 C   0  0  1  0  0  0
   24.7833    4.3716    3.0753 C   0  0  0  0  0  0
   25.8129    4.2502    2.1506 C   0  0  0  0  0  0
   24.9912    5.0500    4.2761 C   0  0  0  0  0  0
   30.9946    3.5485   -3.6683 N   0  0  2  0  0  0
   34.1697    3.7938   -3.5740 C   0  0  0  0  0  0
   28.9340    5.1269   -1.7070 C   0  0  0  0  0  0
   35.6849    3.2311   -1.7728 C   0  0  0  0  0  0
   35.0066    5.5207   -2.1005 C   0  0  0  0  0  0
   34.9277    2.8586   -2.8774 C   0  0  0  0  0  0
   34.2567    5.1318   -3.2093 C   0  0  0  0  0  0
   31.2527    6.2492   -3.2430 O   0  0  0  0  0  0
   23.5526    3.8514    2.7807 O   0  0  0  0  0  0
   30.3351    4.5051   -4.5686 C   0  0  0  0  0  0
   27.7308    6.5997   -3.1698 C   0  0  0  0  0  0
   26.8166    5.8493   -1.0856 C   0  0  0  0  0  0
   31.9479    2.6787   -4.3480 C   0  0  0  0  0  0
   33.2853    3.3672   -4.7470 C   0  0  0  0  0  0
   26.6867    6.6058   -2.2473 C   0  0  0  0  0  0
   36.8806    4.0539    0.2618 H   0  0  0  0  0  0
   28.1838    7.4226    5.7313 H   0  0  0  0  0  0
   35.4059    6.9312    3.5505 H   0  0  0  0  0  0
   33.5064    5.4884   -0.0295 H   0  0  0  0  0  0
   31.3421    5.5675    1.0711 H   0  0  0  0  0  0
   33.2392    7.0379    4.6471 H   0  0  0  0  0  0
   26.3571    6.1511    5.4807 H   0  0  0  0  0  0
   27.8484    4.7242    1.7078 H   0  0  0  0  0  0
   29.8577    6.6031   -4.6527 H   0  0  0  0  0  0
   25.6540    3.7231    1.2211 H   0  0  0  0  0  0
   24.1919    5.1446    4.9952 H   0  0  0  0  0  0
   30.2842    2.9710   -3.2291 H   0  0  0  0  0  0
   29.8036    4.5441   -1.4419 H   0  0  0  0  0  0
   36.2437    2.4757   -1.2354 H   0  0  0  0  0  0
   35.0214    6.5659   -1.8395 H   0  0  0  0  0  0
   34.9298    1.8422   -3.2022 H   0  0  0  0  0  0
   33.7344    5.8499   -3.8091 H   0  0  0  0  0  0
   31.7037    5.4120   -3.0730 H   0  0  0  0  0  0
   22.8817    4.0774    3.4277 H   0  0  0  0  0  0
   29.4004    4.0823   -4.9441 H   0  0  0  0  0  0
   30.9514    4.6948   -5.4495 H   0  0  0  0  0  0
   27.6420    7.1835   -4.0736 H   0  0  0  0  0  0
   26.0165    5.8150   -0.3624 H   0  0  0  0  0  0
   32.1783    1.8982   -3.6226 H   0  0  0  0  0  0
   31.4827    2.1706   -5.1925 H   0  0  0  0  0  0
   33.8640    2.6841   -5.3699 H   0  0  0  0  0  0
   33.1041    4.2252   -5.3941 H   0  0  0  0  0  0
   25.7807    7.1602   -2.4386 H   0  0  0  0  0  0
  1  6  1  0  0  0
  1  8  1  0  0  0
  1  9  2  0  0  0
  1 10  2  0  0  0
  2  3  2  0  0  0
  2  4  1  0  0  0
  3 11  1  0  0  0
  3  5  1  0  0  0
  4 12  1  0  0  0
  4  7  2  0  0  0
  5  7  1  0  0  0
  6 19  1  0  0  0
  6 41  1  0  0  0
  7 42  1  0  0  0
  8 15  1  0  0  0
  8 16  2  0  0  0
 11 17  2  0  0  0
 11 18  1  0  0  0
 12 20  2  0  0  0
 12 21  1  0  0  0
 13 22  1  0  0  0
 13 28  2  0  0  0
 13 36  1  0  0  0
 14 28  1  0  0  0
 14 37  2  0  0  0
 15 18  2  0  0  0
 15 43  1  0  0  0
 16 17  1  0  0  0
 16 44  1  0  0  0
 17 45  1  0  0  0
 18 46  1  0  0  0
 19 29  1  0  0  0
 19 30  2  0  0  0
 20 25  1  0  0  0
 20 47  1  0  0  0
 21 24  2  0  0  0
 21 48  1  0  0  0
 22 35  1  0  0  0
 22 33  1  0  0  0
 22 49  1  0  0  0
 23 24  1  0  0  0
 23 34  1  0  0  0
 23 25  2  0  0  0
 24 50  1  0  0  0
 25 51  1  0  0  0
 26 38  1  0  0  0
 26 35  1  0  0  0
 26 52  1  0  0  0
 27 32  2  0  0  0
 27 39  1  0  0  0
 27 31  1  0  0  0
 28 53  1  0  0  0
 29 31  2  0  0  0
 29 54  1  0  0  0
 30 32  1  0  0  0
 30 55  1  0  0  0
 31 56  1  0  0  0
 32 57  1  0  0  0
 33 58  1  0  0  0
 34 59  1  0  0  0
 35 60  1  0  0  0
 35 61  1  0  0  0
 36 40  2  0  0  0
 36 62  1  0  0  0
 37 40  1  0  0  0
 37 63  1  0  0  0
 38 39  1  0  0  0
 38 64  1  0  0  0
 38 65  1  0  0  0
 39 66  1  0  0  0
 39 67  1  0  0  0
 40 68  1  0  0  0
M  END
> <s_m_entry_id>
3132

> <s_m_entry_name>
dock_pv.224

> <s_m_Source_Path>
/home/csk/Desktop/cluster/DUD-E-result/adrb1

> <s_m_Source_File>
dock_pv.maegz

> <i_m_Source_File_Index>
224

> <chembl_id>
CHEMBL61962

> <chembl_pref_name>
None

> <i_lp_mmshare_version>
53161

> <i_f3d_flags>
0

> <r_lp_tautomer_probability>
0.999999999997365

> <s_lp_Force_Field>
OPLS_2005

> <r_lp_Energy>
25.431063

> <b_lp_Chiralities_Consistent>
1

> <s_lp_Variant>
CHEMBL213_lig317-1

> <s_i_glide_gridfile>
glide-grid_2vt4

> <i_i_glide_lignum>
378

> <i_i_glide_rotatable_bonds>
13

> <r_i_docking_score>
-7.470311666523

> <r_i_glide_ligand_efficiency>
-0.186757791663075

> <r_i_glide_ligand_efficiency_sa>
-0.638702662411266

> <r_i_glide_ligand_efficiency_ln>
-1.59319763701084

> <r_i_glide_gscore>
-7.470311666523

> <r_i_glide_lipo>
-4.00897326089844

> <r_i_glide_hbond>
-0.295188592601215

> <r_i_glide_metal>
0

> <r_i_glide_rewards>
-0.105397701177715

> <r_i_glide_evdw>
-56.4112815856934

> <r_i_glide_ecoul>
-5.22443246841431

> <r_i_glide_erotb>
0.543476837701184

> <r_i_glide_esite>
0

> <r_i_glide_emodel>
-79.47754186113

> <r_i_glide_energy>
-61.6357140541077

> <r_i_glide_einternal>
8.25811862945557

> <i_i_glide_confnum>
9

> <i_i_glide_posenum>
72

> <r_i_glide_eff_state_penalty>
0

> <s_user_duplicate_titles>
CHEMBL213_lig317

> <s_m_subgroup_title>
dock_pv

> <s_m_subgroupid>
dock_pv

> <b_m_subgroup_collapsed>
1

$$$$
CHEMBL213_lig374
                    3D
 Schrodinger Suite 2021-1.
 52 54  0  0  1  0            999 V2000
   34.1593    4.1871   -2.9813 C   0  0  0  0  0  0
   34.5983    4.3893   -4.6495 S   0  0  0  0  0  0
   33.0826    3.4511   -2.8140 N   0  0  0  0  0  0
   32.5372    3.0504   -3.9455 C   0  0  0  0  0  0
   33.2076    3.4506   -5.0950 C   0  0  0  0  0  0
   24.7875    3.8497    2.5260 C   0  0  0  0  0  0
   25.5067    3.8762    1.3307 C   0  0  0  0  0  0
   26.6087    4.6493    1.1560 N   0  0  0  0  0  0
   27.0091    5.4292    2.1925 C   0  0  0  0  0  0
   26.3508    5.4751    3.4286 C   0  0  0  0  0  0
   25.2196    4.6565    3.5830 C   0  0  0  0  0  0
   26.8551    6.4268    4.5234 C   0  0  2  0  0  0
   28.2007    5.9578    5.1399 C   0  0  0  0  0  0
   25.9111    6.6499    5.5652 O   0  0  0  0  0  0
   28.9446    7.0500    5.7788 N   0  0  1  0  0  0
   29.9071    7.7022    4.8904 C   0  0  0  0  0  0
   31.3297    7.1019    5.0670 C   0  0  0  0  0  0
   32.0842    6.6680    3.8089 C   0  0  0  0  0  0
   33.4823    6.6499    3.8428 C   0  0  0  0  0  0
   34.2125    6.2381    2.7304 C   0  0  0  0  0  0
   33.5487    5.8500    1.5665 C   0  0  0  0  0  0
   32.1457    5.8499    1.5357 C   0  0  0  0  0  0
   31.4198    6.2498    2.6535 C   0  0  0  0  0  0
   34.3340    5.4364    0.4757 N   0  0  0  0  0  0
   34.0394    5.5679   -0.8343 C   0  0  0  0  0  0
   33.1086    6.2487   -1.2651 O   0  0  0  0  0  0
   34.9351    4.8069   -1.8243 C   0  0  0  0  0  0
   31.2806    2.2175   -3.8316 C   0  0  0  0  0  0
   32.9669    3.2540   -6.1289 H   0  0  0  0  0  0
   23.9108    3.2267    2.6270 H   0  0  0  0  0  0
   25.2004    3.2770    0.4845 H   0  0  0  0  0  0
   27.8772    6.0418    2.0046 H   0  0  0  0  0  0
   24.6586    4.6609    4.5056 H   0  0  0  0  0  0
   26.9924    7.3841    4.0222 H   0  0  0  0  0  0
   28.8304    5.4808    4.3859 H   0  0  0  0  0  0
   27.9896    5.1809    5.8754 H   0  0  0  0  0  0
   26.2589    7.3015    6.1862 H   0  0  0  0  0  0
   28.3108    7.7384    6.1696 H   0  0  0  0  0  0
   29.9507    8.7375    5.2287 H   0  0  0  0  0  0
   29.5581    7.7466    3.8588 H   0  0  0  0  0  0
   31.3351    6.2500    5.7400 H   0  0  0  0  0  0
   31.9290    7.8486    5.5851 H   0  0  0  0  0  0
   34.0068    6.9568    4.7355 H   0  0  0  0  0  0
   35.2914    6.2371    2.7736 H   0  0  0  0  0  0
   31.6115    5.5232    0.6562 H   0  0  0  0  0  0
   30.3437    6.2076    2.6136 H   0  0  0  0  0  0
   35.2120    4.9996    0.7089 H   0  0  0  0  0  0
   35.4880    4.0258   -1.3005 H   0  0  0  0  0  0
   35.6848    5.5097   -2.1891 H   0  0  0  0  0  0
   30.9233    1.8835   -4.8059 H   0  0  0  0  0  0
   30.4640    2.7749   -3.3704 H   0  0  0  0  0  0
   31.4371    1.3232   -3.2277 H   0  0  0  0  0  0
  1  3  2  0  0  0
  1  2  1  0  0  0
  1 27  1  0  0  0
  2  5  1  0  0  0
  3  4  1  0  0  0
  4  5  2  0  0  0
  4 28  1  0  0  0
  5 29  1  0  0  0
  6 11  1  0  0  0
  6  7  2  0  0  0
  6 30  1  0  0  0
  7  8  1  0  0  0
  7 31  1  0  0  0
  8  9  2  0  0  0
  9 10  1  0  0  0
  9 32  1  0  0  0
 10 11  2  0  0  0
 10 12  1  0  0  0
 11 33  1  0  0  0
 12 14  1  0  0  0
 12 13  1  0  0  0
 12 34  1  0  0  0
 13 15  1  0  0  0
 13 35  1  0  0  0
 13 36  1  0  0  0
 14 37  1  0  0  0
 15 16  1  0  0  0
 15 38  1  0  0  0
 16 17  1  0  0  0
 16 39  1  0  0  0
 16 40  1  0  0  0
 17 18  1  0  0  0
 17 41  1  0  0  0
 17 42  1  0  0  0
 18 19  2  0  0  0
 18 23  1  0  0  0
 19 20  1  0  0  0
 19 43  1  0  0  0
 20 21  2  0  0  0
 20 44  1  0  0  0
 21 22  1  0  0  0
 21 24  1  0  0  0
 22 23  2  0  0  0
 22 45  1  0  0  0
 23 46  1  0  0  0
 24 25  1  0  0  0
 24 47  1  0  0  0
 25 26  2  0  0  0
 25 27  1  0  0  0
 27 48  1  0  0  0
 27 49  1  0  0  0
 28 50  1  0  0  0
 28 51  1  0  0  0
 28 52  1  0  0  0
M  END
> <s_m_entry_id>
3133

> <s_m_entry_name>
dock_pv.225

> <s_m_Source_Path>
/home/csk/Desktop/cluster/DUD-E-result/adrb1

> <s_m_Source_File>
dock_pv.maegz

> <i_m_Source_File_Index>
225

> <chembl_id>
CHEMBL1084136

> <chembl_pref_name>
None

> <i_lp_mmshare_version>
53161

> <i_f3d_flags>
0

> <r_lp_tautomer_probability>
1

> <s_lp_Force_Field>
OPLS_2005

> <r_lp_Energy>
15.301627

> <b_lp_Chiralities_Consistent>
1

> <s_lp_Variant>
CHEMBL213_lig374-1

> <s_i_glide_gridfile>
glide-grid_2vt4

> <i_i_glide_lignum>
440

> <i_i_glide_rotatable_bonds>
11

> <r_i_docking_score>
-7.46975468726681

> <r_i_glide_ligand_efficiency>
-0.266776953116672

> <r_i_glide_ligand_efficiency_sa>
-0.810091952884878

> <r_i_glide_ligand_efficiency_ln>
-1.72423870334891

> <r_i_glide_gscore>
-7.46975468726681

> <r_i_glide_lipo>
-2.92044012847523

> <r_i_glide_hbond>
-0.843333440242055

> <r_i_glide_metal>
0

> <r_i_glide_rewards>
-1.44529012892856

> <r_i_glide_evdw>
-44.9088287353516

> <r_i_glide_ecoul>
-7.56858158111572

> <r_i_glide_erotb>
1.12003768431397

> <r_i_glide_esite>
0

> <r_i_glide_emodel>
-66.9655846401614

> <r_i_glide_energy>
-52.4774103164673

> <r_i_glide_einternal>
16.460428237915

> <i_i_glide_confnum>
48

> <i_i_glide_posenum>
152

> <r_i_glide_eff_state_penalty>
0

> <s_user_duplicate_titles>
CHEMBL213_lig374

> <s_m_subgroup_title>
dock_pv

> <s_m_subgroupid>
dock_pv

> <b_m_subgroup_collapsed>
1

$$$$
CHEMBL213_lig1375
                    3D
 Schrodinger Suite 2021-1.
 55 58  0  0  1  0            999 V2000
   24.2926    3.8494    2.2864 C   0  0  0  0  0  0
   23.8106    4.2500    3.5278 C   0  0  0  0  0  0
   24.6080    5.0211    4.3817 C   0  0  0  0  0  0
   25.6005    4.1588    1.8857 C   0  0  0  0  0  0
   26.4101    4.8959    2.7797 C   0  0  0  0  0  0
   25.9105    5.3342    4.0042 C   0  0  0  0  0  0
   26.8298    6.0410    4.7621 N   0  0  0  0  0  0
   28.1068    6.1661    4.2680 C   0  0  0  0  0  0
   28.1066    5.3528    2.6289 S   0  0  0  0  0  0
   26.1339    3.6104    0.5492 C   0  0  2  0  0  0
   26.5801    4.6959   -0.4493 C   0  0  0  0  0  0
   28.3868    5.3091   -2.0297 C   0  0  1  0  0  0
   25.2919    2.6643   -0.0992 O   0  0  0  0  0  0
   24.1098    5.4500    5.5850 O   0  0  0  0  0  0
   29.0676    6.7144    4.8019 O   0  0  0  0  0  0
   29.5920    4.8201   -2.8971 C   0  0  1  0  0  0
   30.2971    6.0338   -3.5552 C   0  0  0  0  0  0
   29.3182    6.8676   -4.3911 C   0  0  0  0  0  0
   28.0346    7.2749   -3.6512 C   0  0  0  0  0  0
   27.3922    6.0797   -2.9419 C   0  0  0  0  0  0
   30.5197    4.0080   -2.1581 O   0  0  0  0  0  0
   31.6846    3.5022   -2.8340 C   0  0  0  0  0  0
   31.3614    2.8066   -4.1571 C   0  0  0  0  0  0
   30.5993    1.6390   -4.1509 C   0  0  0  0  0  0
   30.2080    1.0500   -5.3506 C   0  0  0  0  0  0
   30.6080    1.6163   -6.5591 C   0  0  0  0  0  0
   31.4080    2.7573   -6.5753 C   0  0  0  0  0  0
   31.7886    3.3512   -5.3737 C   0  0  0  0  0  0
   27.7569    4.2679   -1.2150 N   0  0  2  0  0  0
   23.6394    3.2727    1.6474 H   0  0  0  0  0  0
   22.7978    3.9966    3.8068 H   0  0  0  0  0  0
   26.5888    6.4466    5.6551 H   0  0  0  0  0  0
   27.0080    3.0500    0.8328 H   0  0  0  0  0  0
   25.7459    4.9662   -1.0968 H   0  0  0  0  0  0
   26.8571    5.5975    0.0975 H   0  0  0  0  0  0
   28.8075    6.0189   -1.3149 H   0  0  0  0  0  0
   24.7490    3.1158   -0.7585 H   0  0  0  0  0  0
   23.1732    5.2631    5.6838 H   0  0  0  0  0  0
   29.1806    4.1797   -3.6799 H   0  0  0  0  0  0
   30.7570    6.6500   -2.7952 H   0  0  0  0  0  0
   31.0858    5.7205   -4.2341 H   0  0  0  0  0  0
   29.8080    7.7442   -4.8150 H   0  0  0  0  0  0
   29.0260    6.2298   -5.2150 H   0  0  0  0  0  0
   28.2080    8.0726   -2.9307 H   0  0  0  0  0  0
   27.3255    7.6884   -4.3688 H   0  0  0  0  0  0
   26.9779    5.3941   -3.6821 H   0  0  0  0  0  0
   26.5448    6.4686   -2.3792 H   0  0  0  0  0  0
   32.4057    4.3070   -2.9829 H   0  0  0  0  0  0
   32.1829    2.7935   -2.1733 H   0  0  0  0  0  0
   30.2676    1.2134   -3.2150 H   0  0  0  0  0  0
   29.5928    0.1620   -5.3409 H   0  0  0  0  0  0
   30.3054    1.1635   -7.4915 H   0  0  0  0  0  0
   31.7241    3.1864   -7.5150 H   0  0  0  0  0  0
   32.3971    4.2437   -5.3964 H   0  0  0  0  0  0
   27.7365    3.3368   -1.6315 H   0  0  0  0  0  0
  1  2  2  0  0  0
  1  4  1  0  0  0
  1 30  1  0  0  0
  2  3  1  0  0  0
  2 31  1  0  0  0
  3 14  1  0  0  0
  3  6  2  0  0  0
  4  5  2  0  0  0
  4 10  1  0  0  0
  5  9  1  0  0  0
  5  6  1  0  0  0
  6  7  1  0  0  0
  7  8  1  0  0  0
  7 32  1  0  0  0
  8 15  2  0  0  0
  8  9  1  0  0  0
 10 11  1  0  0  0
 10 13  1  0  0  0
 10 33  1  0  0  0
 11 29  1  0  0  0
 11 34  1  0  0  0
 11 35  1  0  0  0
 12 16  1  0  0  0
 12 20  1  0  0  0
 12 29  1  0  0  0
 12 36  1  0  0  0
 13 37  1  0  0  0
 14 38  1  0  0  0
 16 17  1  0  0  0
 16 21  1  0  0  0
 16 39  1  0  0  0
 17 18  1  0  0  0
 17 40  1  0  0  0
 17 41  1  0  0  0
 18 19  1  0  0  0
 18 42  1  0  0  0
 18 43  1  0  0  0
 19 20  1  0  0  0
 19 44  1  0  0  0
 19 45  1  0  0  0
 20 46  1  0  0  0
 20 47  1  0  0  0
 21 22  1  0  0  0
 22 23  1  0  0  0
 22 48  1  0  0  0
 22 49  1  0  0  0
 23 24  2  0  0  0
 23 28  1  0  0  0
 24 25  1  0  0  0
 24 50  1  0  0  0
 25 26  2  0  0  0
 25 51  1  0  0  0
 26 27  1  0  0  0
 26 52  1  0  0  0
 27 28  2  0  0  0
 27 53  1  0  0  0
 28 54  1  0  0  0
 29 55  1  0  0  0
M  END
> <s_m_entry_id>
3134

> <s_m_entry_name>
dock_pv.226

> <s_m_Source_Path>
/home/csk/Desktop/cluster/DUD-E-result/adrb1

> <s_m_Source_File>
dock_pv.maegz

> <i_m_Source_File_Index>
226

> <chembl_id>
CHEMBL1221732

> <chembl_pref_name>
None

> <i_lp_mmshare_version>
53161

> <i_f3d_flags>
0

> <r_lp_tautomer_probability>
1

> <s_lp_Force_Field>
OPLS_2005

> <r_lp_Energy>
41.384524

> <b_lp_Chiralities_Consistent>
1

> <s_lp_Variant>
CHEMBL213_lig1375-1

> <s_i_glide_gridfile>
glide-grid_2vt4

> <i_i_glide_lignum>
1661

> <i_i_glide_rotatable_bonds>
9

> <r_i_docking_score>
-7.4659637460912

> <r_i_glide_ligand_efficiency>
-0.257447025727283

> <r_i_glide_ligand_efficiency_sa>
-0.79095882797691

> <r_i_glide_ligand_efficiency_ln>
-1.7095163773493

> <r_i_glide_gscore>
-7.4659637460912

> <r_i_glide_lipo>
-3.22687200995636

> <r_i_glide_hbond>
-0.542135395805685

> <r_i_glide_metal>
0

> <r_i_glide_rewards>
-1.71039637830965

> <r_i_glide_evdw>
-38.9131469726562

> <r_i_glide_ecoul>
-5.63345575332642

> <r_i_glide_erotb>
0.804115749612275

> <r_i_glide_esite>
0

> <r_i_glide_emodel>
-59.0556660660856

> <r_i_glide_energy>
-44.5466027259827

> <r_i_glide_einternal>
10.072793006897

> <i_i_glide_confnum>
222

> <i_i_glide_posenum>
52

> <r_i_glide_eff_state_penalty>
0

> <s_user_duplicate_titles>
CHEMBL213_lig1375,688161

> <s_m_subgroup_title>
dock_pv

> <s_m_subgroupid>
dock_pv

> <b_m_subgroup_collapsed>
1

$$$$
CHEMBL213_lig106
                    3D
 Schrodinger Suite 2021-1.
 57 59  0  0  1  0            999 V2000
   30.1184    5.1899   -3.8269 S   0  0  0  0  0  0
   30.8187    4.1887   -5.1303 C   0  0  0  0  0  0
   30.1921    4.1851   -2.3777 N   0  0  0  0  0  0
   30.0876    3.1154   -5.6455 C   0  0  0  0  0  0
   30.6070    2.3494   -6.6908 C   0  0  0  0  0  0
   25.9844    4.0432    0.9431 N   0  0  0  0  0  0
   28.6929    5.3592   -4.1207 O   0  0  0  0  0  0
   31.0072    6.3389   -3.6282 O   0  0  0  0  0  0
   24.8133    3.4793    1.3076 C   0  0  0  0  0  0
   31.8736    2.6492   -7.2134 C   0  0  0  0  0  0
   32.0867    4.4782   -5.6427 C   0  0  0  0  0  0
   32.6097    3.7080   -6.6804 C   0  0  0  0  0  0
   30.8116    4.6500   -1.2149 C   0  0  0  0  0  0
   26.7061    5.8813    4.0869 O   0  0  0  0  0  0
   26.6078    4.8330    1.8493 C   0  0  0  0  0  0
   29.6548    1.0499   -7.3174 Cl  0  0  0  0  0  0
   24.2080    2.6501    0.3850 N   0  0  0  0  0  0
   26.0915    5.0999    3.1322 C   0  0  0  0  0  0
   28.6165    7.1588    4.9269 C   0  0  1  0  0  0
   32.5562    1.7367   -8.5140 Cl  0  0  0  0  0  0
   24.2038    3.7124    2.5382 C   0  0  0  0  0  0
   28.0983    6.1148    3.9331 C   0  0  0  0  0  0
   30.9929    6.6756    4.1490 N   0  0  2  0  0  0
   32.0130    5.4912    1.1721 C   0  0  0  0  0  0
   32.1498    5.0501   -1.2150 C   0  0  0  0  0  0
   30.0850    4.6501   -0.0252 C   0  0  0  0  0  0
   24.8566    4.5383    3.4545 C   0  0  0  0  0  0
   30.6842    5.0514    1.1696 C   0  0  0  0  0  0
   32.7451    5.4662   -0.0245 C   0  0  0  0  0  0
   28.6080    6.6511    6.2447 O   0  0  0  0  0  0
   30.0022    7.6938    4.4979 C   0  0  0  0  0  0
   31.9578    7.1581    3.1610 C   0  0  0  0  0  0
   32.6874    5.9981    2.4580 C   0  0  0  0  0  0
   29.3280    3.6830   -2.2301 H   0  0  0  0  0  0
   29.1078    2.8854   -5.2466 H   0  0  0  0  0  0
   32.6638    5.3066   -5.2563 H   0  0  0  0  0  0
   33.5863    3.9439   -7.0786 H   0  0  0  0  0  0
   27.5376    5.2444    1.4974 H   0  0  0  0  0  0
   23.2667    2.3525    0.5855 H   0  0  0  0  0  0
   24.4265    2.8530   -0.5860 H   0  0  0  0  0  0
   27.9270    8.0042    4.9291 H   0  0  0  0  0  0
   23.2541    3.2592    2.7831 H   0  0  0  0  0  0
   28.6480    5.1757    4.0283 H   0  0  0  0  0  0
   28.3034    6.5102    2.9398 H   0  0  0  0  0  0
   30.6513    5.7338    3.9848 H   0  0  0  0  0  0
   32.7301    5.0327   -2.1262 H   0  0  0  0  0  0
   29.0574    4.3174   -0.0260 H   0  0  0  0  0  0
   24.4110    4.7309    4.4191 H   0  0  0  0  0  0
   30.1144    5.0319    2.0847 H   0  0  0  0  0  0
   33.7776    5.7856   -0.0393 H   0  0  0  0  0  0
   27.7168    6.7691    6.5941 H   0  0  0  0  0  0
   29.8029    8.2500    3.5881 H   0  0  0  0  0  0
   30.4056    8.4009    5.2233 H   0  0  0  0  0  0
   31.4460    7.7357    2.3880 H   0  0  0  0  0  0
   32.6757    7.8437    3.6108 H   0  0  0  0  0  0
   33.6828    6.3589    2.1954 H   0  0  0  0  0  0
   32.8651    5.1936    3.1709 H   0  0  0  0  0  0
  1  2  1  0  0  0
  1  3  1  0  0  0
  1  7  2  0  0  0
  1  8  2  0  0  0
  2  4  1  0  0  0
  2 11  2  0  0  0
  3 13  1  0  0  0
  3 34  1  0  0  0
  4  5  2  0  0  0
  4 35  1  0  0  0
  5 16  1  0  0  0
  5 10  1  0  0  0
  6 15  2  0  0  0
  6  9  1  0  0  0
  9 21  2  0  0  0
  9 17  1  0  0  0
 10 12  2  0  0  0
 10 20  1  0  0  0
 11 12  1  0  0  0
 11 36  1  0  0  0
 12 37  1  0  0  0
 13 25  1  0  0  0
 13 26  2  0  0  0
 14 22  1  0  0  0
 14 18  1  0  0  0
 15 18  1  0  0  0
 15 38  1  0  0  0
 17 39  1  0  0  0
 17 40  1  0  0  0
 18 27  2  0  0  0
 19 31  1  0  0  0
 19 22  1  0  0  0
 19 30  1  0  0  0
 19 41  1  0  0  0
 21 27  1  0  0  0
 21 42  1  0  0  0
 22 43  1  0  0  0
 22 44  1  0  0  0
 23 32  1  0  0  0
 23 31  1  0  0  0
 23 45  1  0  0  0
 24 28  2  0  0  0
 24 33  1  0  0  0
 24 29  1  0  0  0
 25 29  2  0  0  0
 25 46  1  0  0  0
 26 28  1  0  0  0
 26 47  1  0  0  0
 27 48  1  0  0  0
 28 49  1  0  0  0
 29 50  1  0  0  0
 30 51  1  0  0  0
 31 52  1  0  0  0
 31 53  1  0  0  0
 32 33  1  0  0  0
 32 54  1  0  0  0
 32 55  1  0  0  0
 33 56  1  0  0  0
 33 57  1  0  0  0
M  END
> <s_m_entry_id>
3135

> <s_m_entry_name>
dock_pv.227

> <s_m_Source_Path>
/home/csk/Desktop/cluster/DUD-E-result/adrb1

> <s_m_Source_File>
dock_pv.maegz

> <i_m_Source_File_Index>
227

> <chembl_id>
CHEMBL66859

> <chembl_pref_name>
None

> <i_lp_mmshare_version>
53161

> <i_f3d_flags>
0

> <r_lp_tautomer_probability>
0.9999999981875

> <s_lp_Force_Field>
OPLS_2005

> <r_lp_Energy>
23.937148

> <b_lp_Chiralities_Consistent>
1

> <s_lp_Variant>
CHEMBL213_lig106-1

> <s_i_glide_gridfile>
glide-grid_2vt4

> <i_i_glide_lignum>
129

> <i_i_glide_rotatable_bonds>
12

> <r_i_docking_score>
-7.46160180835538

> <r_i_glide_ligand_efficiency>
-0.226109145707739

> <r_i_glide_ligand_efficiency_sa>
-0.725252846338317

> <r_i_glide_ligand_efficiency_ln>
-1.65942160807173

> <r_i_glide_gscore>
-7.46160180835538

> <r_i_glide_lipo>
-4.23337828579598

> <r_i_glide_hbond>
-0.296595733237117

> <r_i_glide_metal>
0

> <r_i_glide_rewards>
0.26439444350526

> <r_i_glide_evdw>
-46.9248847961426

> <r_i_glide_ecoul>
-10.5106029510498

> <r_i_glide_erotb>
0.861863872127233

> <r_i_glide_esite>
-0.135051422490179

> <r_i_glide_emodel>
-72.6223695752315

> <r_i_glide_energy>
-57.4354877471924

> <r_i_glide_einternal>
16.1484889984131

> <i_i_glide_confnum>
343

> <i_i_glide_posenum>
248

> <r_i_glide_eff_state_penalty>
0

> <s_user_duplicate_titles>
CHEMBL213_lig106

> <s_m_subgroup_title>
dock_pv

> <s_m_subgroupid>
dock_pv

> <b_m_subgroup_collapsed>
1

$$$$
CHEMBL213_lig1339
                    3D
 Schrodinger Suite 2021-1.
 62 65  0  0  1  0            999 V2000
   24.4928    3.1834    0.7838 C   0  0  0  0  0  0
   25.6671    3.6860    0.2293 C   0  0  0  0  0  0
   26.5390    4.4832    0.9891 C   0  0  0  0  0  0
   27.7167    5.0177    0.4922 O   0  0  0  0  0  0
   28.2604    4.5563   -0.7496 C   0  0  0  0  0  0
   27.6966    5.2818   -1.9972 C   0  0  2  0  0  0
   28.1326    4.6931   -3.3698 C   0  0  0  0  0  0
   28.0557    6.6497   -1.9479 O   0  0  0  0  0  0
   29.5931    4.5788   -3.5792 N   0  0  1  0  0  0
   30.0420    3.2147   -3.2806 C   0  0  0  0  0  0
   31.5478    2.9530   -3.4298 C   0  0  0  0  0  0
   32.2520    3.6995   -4.5886 C   0  0  0  0  0  0
   31.4879    4.9181   -5.1677 C   0  0  0  0  0  0
   29.9607    4.8886   -4.9599 C   0  0  0  0  0  0
   33.7927    3.8654   -4.4640 C   0  0  0  0  0  0
   34.3360    4.1829   -3.1235 N   0  0  0  0  0  0
   24.1671    3.4624    2.1066 C   0  0  0  0  0  0
   25.0210    4.2486    2.8765 C   0  0  0  0  0  0
   26.2090    4.7593    2.3307 C   0  0  0  0  0  0
   33.8347    5.1413   -2.2970 C   0  0  0  0  0  0
   35.4060    3.5253   -2.6014 C   0  0  0  0  0  0
   35.6457    4.1618   -1.2803 C   0  0  0  0  0  0
   34.6983    5.1287   -1.1013 C   0  0  0  0  0  0
   34.6503    5.8971    0.0596 C   0  0  0  0  0  0
   35.6271    5.6939    1.0372 C   0  0  0  0  0  0
   36.6073    4.7132    0.8473 C   0  0  0  0  0  0
   36.6087    3.9211   -0.3027 C   0  0  0  0  0  0
   36.0323    2.5995   -3.1163 O   0  0  0  0  0  0
   32.8515    5.8500   -2.4794 O   0  0  0  0  0  0
   27.1904    5.5609    3.1927 C   0  0  0  0  0  0
   26.6254    6.1675    4.4683 C   0  0  0  0  0  0
   27.0270    5.8502    5.7094 C   0  0  0  0  0  0
   23.8219    2.5928    0.1747 H   0  0  0  0  0  0
   25.8695    3.4531   -0.8035 H   0  0  0  0  0  0
   29.3376    4.7141   -0.7016 H   0  0  0  0  0  0
   28.1378    3.4763   -0.8298 H   0  0  0  0  0  0
   26.6081    5.2499   -1.9574 H   0  0  0  0  0  0
   27.6349    3.7333   -3.5216 H   0  0  0  0  0  0
   27.6917    5.3292   -4.1408 H   0  0  0  0  0  0
   27.7855    7.0683   -2.7695 H   0  0  0  0  0  0
   29.8079    3.0476   -2.2343 H   0  0  0  0  0  0
   29.4791    2.4854   -3.8667 H   0  0  0  0  0  0
   31.9285    3.2993   -2.4715 H   0  0  0  0  0  0
   31.7869    1.8881   -3.4345 H   0  0  0  0  0  0
   32.1114    2.9967   -5.4114 H   0  0  0  0  0  0
   31.7481    5.0761   -6.2157 H   0  0  0  0  0  0
   31.8123    5.8373   -4.6857 H   0  0  0  0  0  0
   29.4828    4.1652   -5.6191 H   0  0  0  0  0  0
   29.5665    5.8745   -5.2163 H   0  0  0  0  0  0
   34.2475    2.9357   -4.8081 H   0  0  0  0  0  0
   34.1435    4.6225   -5.1671 H   0  0  0  0  0  0
   23.2522    3.0760    2.5320 H   0  0  0  0  0  0
   24.7551    4.4416    3.9058 H   0  0  0  0  0  0
   33.8865    6.6480    0.2016 H   0  0  0  0  0  0
   35.6220    6.2972    1.9331 H   0  0  0  0  0  0
   37.3773    4.5662    1.5839 H   0  0  0  0  0  0
   37.3652    3.1609   -0.4196 H   0  0  0  0  0  0
   27.5764    6.3869    2.6010 H   0  0  0  0  0  0
   28.0450    4.9223    3.4225 H   0  0  0  0  0  0
   25.8521    6.9109    4.3372 H   0  0  0  0  0  0
   27.8043    5.1194    5.8789 H   0  0  0  0  0  0
   26.5846    6.3231    6.5751 H   0  0  0  0  0  0
  1  2  2  0  0  0
  1 17  1  0  0  0
  1 33  1  0  0  0
  2  3  1  0  0  0
  2 34  1  0  0  0
  3 19  2  0  0  0
  3  4  1  0  0  0
  4  5  1  0  0  0
  5  6  1  0  0  0
  5 35  1  0  0  0
  5 36  1  0  0  0
  6  7  1  0  0  0
  6  8  1  0  0  0
  6 37  1  0  0  0
  7  9  1  0  0  0
  7 38  1  0  0  0
  7 39  1  0  0  0
  8 40  1  0  0  0
  9 10  1  0  0  0
  9 14  1  0  0  0
 10 11  1  0  0  0
 10 41  1  0  0  0
 10 42  1  0  0  0
 11 12  1  0  0  0
 11 43  1  0  0  0
 11 44  1  0  0  0
 12 15  1  0  0  0
 12 13  1  0  0  0
 12 45  1  0  0  0
 13 14  1  0  0  0
 13 46  1  0  0  0
 13 47  1  0  0  0
 14 48  1  0  0  0
 14 49  1  0  0  0
 15 16  1  0  0  0
 15 50  1  0  0  0
 15 51  1  0  0  0
 16 20  1  0  0  0
 16 21  1  0  0  0
 17 18  2  0  0  0
 17 52  1  0  0  0
 18 19  1  0  0  0
 18 53  1  0  0  0
 19 30  1  0  0  0
 20 23  1  0  0  0
 20 29  2  0  0  0
 21 22  1  0  0  0
 21 28  2  0  0  0
 22 23  2  0  0  0
 22 27  1  0  0  0
 23 24  1  0  0  0
 24 25  2  0  0  0
 24 54  1  0  0  0
 25 26  1  0  0  0
 25 55  1  0  0  0
 26 27  2  0  0  0
 26 56  1  0  0  0
 27 57  1  0  0  0
 30 31  1  0  0  0
 30 58  1  0  0  0
 30 59  1  0  0  0
 31 32  2  0  0  0
 31 60  1  0  0  0
 32 61  1  0  0  0
 32 62  1  0  0  0
M  END
> <s_m_entry_id>
3136

> <s_m_entry_name>
dock_pv.228

> <s_m_Source_Path>
/home/csk/Desktop/cluster/DUD-E-result/adrb1

> <s_m_Source_File>
dock_pv.maegz

> <i_m_Source_File_Index>
228

> <chembl_id>
CHEMBL1085016

> <chembl_pref_name>
None

> <i_lp_mmshare_version>
53161

> <i_f3d_flags>
0

> <r_lp_tautomer_probability>
1

> <s_lp_Force_Field>
OPLS_2005

> <r_lp_Energy>
69.062905

> <b_lp_Chiralities_Consistent>
1

> <s_lp_Variant>
CHEMBL213_lig1339-1

> <s_i_glide_gridfile>
glide-grid_2vt4

> <i_i_glide_lignum>
1608

> <i_i_glide_rotatable_bonds>
10

> <r_i_docking_score>
-7.45662738736744

> <r_i_glide_ligand_efficiency>
-0.233019605855232

> <r_i_glide_ligand_efficiency_sa>
-0.739791134072982

> <r_i_glide_ligand_efficiency_ln>
-1.66974213201739

> <r_i_glide_gscore>
-7.45662738736744

> <r_i_glide_lipo>
-3.00022165618279

> <r_i_glide_hbond>
-0.32

> <r_i_glide_metal>
0

> <r_i_glide_rewards>
-1.52178682808639

> <r_i_glide_evdw>
-48.4424057006836

> <r_i_glide_ecoul>
-7.61225271224976

> <r_i_glide_erotb>
0.949339288773386

> <r_i_glide_esite>
0

> <r_i_glide_emodel>
-75.7620398041578

> <r_i_glide_energy>
-56.0546584129333

> <r_i_glide_einternal>
13.0485057830811

> <i_i_glide_confnum>
90

> <i_i_glide_posenum>
271

> <r_i_glide_eff_state_penalty>
0

> <s_user_duplicate_titles>
CHEMBL213_lig1339,630901

> <s_m_subgroup_title>
dock_pv

> <s_m_subgroupid>
dock_pv

> <b_m_subgroup_collapsed>
1

$$$$
CHEMBL213_lig1188
                    3D
 Schrodinger Suite 2021-1.
 62 65  0  0  1  0            999 V2000
   33.6947    5.3675   -1.2836 C   0  0  0  0  0  0
   32.4492    6.6108    3.6014 C   0  0  0  0  0  0
   33.8371    6.6136    3.4335 C   0  0  0  0  0  0
   34.4005    6.2307    2.2160 C   0  0  0  0  0  0
   33.5798    5.8500    1.1507 C   0  0  0  0  0  0
   32.1870    5.8500    1.3223 C   0  0  0  0  0  0
   31.6307    6.2253    2.5391 C   0  0  0  0  0  0
   34.2127    5.4284   -0.0369 N   0  0  0  0  0  0
   31.8384    6.9677    4.9569 C   0  0  0  0  0  0
   30.6081    7.9006    4.8868 C   0  0  0  0  0  0
   29.3981    7.3959    5.5231 N   0  0  2  0  0  0
   28.6296    6.4564    4.7103 C   0  0  0  0  0  0
   27.1343    6.4835    5.1123 C   0  0  1  0  0  0
   26.3049    5.4239    4.3909 C   0  0  0  0  0  0
   26.3958    5.6408    2.9934 O   0  0  0  0  0  0
   26.9559    6.2500    6.4920 O   0  0  0  0  0  0
   25.8987    4.6499    2.1795 C   0  0  0  0  0  0
   24.9518    3.6888    2.5517 C   0  0  0  0  0  0
   24.5335    2.7104    1.6578 C   0  0  0  0  0  0
   25.0216    2.6510    0.3544 C   0  0  0  0  0  0
   26.3953    4.6422    0.8698 C   0  0  0  0  0  0
   25.9531    3.6256   -0.0222 C   0  0  0  0  0  0
   26.6080    3.8500   -1.2149 N   0  0  0  0  0  0
   27.4233    4.9475   -1.1242 C   0  0  0  0  0  0
   27.3118    5.4671    0.1433 C   0  0  0  0  0  0
   32.6082    5.8500   -1.6066 O   0  0  0  0  0  0
   34.5607    4.6544   -2.3397 C   0  0  0  0  0  0
   33.7872    4.2199   -3.5912 C   0  0  0  0  0  0
   32.6592    3.3961   -3.4823 C   0  0  0  0  0  0
   31.9320    3.0500   -4.6182 C   0  0  0  0  0  0
   32.3492    3.5038   -5.8681 C   0  0  0  0  0  0
   33.4876    4.2974   -5.9906 C   0  0  0  0  0  0
   34.2087    4.6501   -4.8527 C   0  0  0  0  0  0
   34.4823    6.9013    4.2499 H   0  0  0  0  0  0
   35.4752    6.2316    2.1062 H   0  0  0  0  0  0
   31.5218    5.5294    0.5361 H   0  0  0  0  0  0
   30.5605    6.1832    2.6556 H   0  0  0  0  0  0
   35.1717    5.1356    0.0683 H   0  0  0  0  0  0
   31.6096    6.0458    5.4828 H   0  0  0  0  0  0
   32.5961    7.4500    5.5760 H   0  0  0  0  0  0
   30.8467    8.7852    5.4742 H   0  0  0  0  0  0
   30.4038    8.2499    3.8744 H   0  0  0  0  0  0
   28.8113    8.1628    5.8248 H   0  0  0  0  0  0
   28.6890    6.7375    3.6583 H   0  0  0  0  0  0
   29.0413    5.4499    4.7851 H   0  0  0  0  0  0
   26.7162    7.4635    4.8733 H   0  0  0  0  0  0
   26.6848    4.4311    4.6422 H   0  0  0  0  0  0
   25.2627    5.4805    4.7129 H   0  0  0  0  0  0
   27.0080    7.1147    6.9316 H   0  0  0  0  0  0
   24.5350    3.6888    3.5456 H   0  0  0  0  0  0
   23.8080    1.9790    1.9832 H   0  0  0  0  0  0
   24.6717    1.8995   -0.3359 H   0  0  0  0  0  0
   26.4837    3.3481   -2.0833 H   0  0  0  0  0  0
   27.9899    5.2740   -1.9859 H   0  0  0  0  0  0
   27.8080    6.3466    0.5070 H   0  0  0  0  0  0
   35.0317    3.7735   -1.9010 H   0  0  0  0  0  0
   35.3693    5.3318   -2.6189 H   0  0  0  0  0  0
   32.3277    3.0501   -2.5141 H   0  0  0  0  0  0
   31.0499    2.4329   -4.5293 H   0  0  0  0  0  0
   31.7855    3.2387   -6.7503 H   0  0  0  0  0  0
   33.8075    4.6486   -6.9612 H   0  0  0  0  0  0
   35.0824    5.2784   -4.9570 H   0  0  0  0  0  0
  1  8  1  0  0  0
  1 26  2  0  0  0
  1 27  1  0  0  0
  2  3  2  0  0  0
  2  7  1  0  0  0
  2  9  1  0  0  0
  3  4  1  0  0  0
  3 34  1  0  0  0
  4  5  2  0  0  0
  4 35  1  0  0  0
  5  6  1  0  0  0
  5  8  1  0  0  0
  6  7  2  0  0  0
  6 36  1  0  0  0
  7 37  1  0  0  0
  8 38  1  0  0  0
  9 10  1  0  0  0
  9 39  1  0  0  0
  9 40  1  0  0  0
 10 11  1  0  0  0
 10 41  1  0  0  0
 10 42  1  0  0  0
 11 12  1  0  0  0
 11 43  1  0  0  0
 12 13  1  0  0  0
 12 44  1  0  0  0
 12 45  1  0  0  0
 13 14  1  0  0  0
 13 16  1  0  0  0
 13 46  1  0  0  0
 14 15  1  0  0  0
 14 47  1  0  0  0
 14 48  1  0  0  0
 15 17  1  0  0  0
 16 49  1  0  0  0
 17 18  2  0  0  0
 17 21  1  0  0  0
 18 19  1  0  0  0
 18 50  1  0  0  0
 19 20  2  0  0  0
 19 51  1  0  0  0
 20 22  1  0  0  0
 20 52  1  0  0  0
 21 22  2  0  0  0
 21 25  1  0  0  0
 22 23  1  0  0  0
 23 24  1  0  0  0
 23 53  1  0  0  0
 24 25  2  0  0  0
 24 54  1  0  0  0
 25 55  1  0  0  0
 27 28  1  0  0  0
 27 56  1  0  0  0
 27 57  1  0  0  0
 28 29  2  0  0  0
 28 33  1  0  0  0
 29 30  1  0  0  0
 29 58  1  0  0  0
 30 31  2  0  0  0
 30 59  1  0  0  0
 31 32  1  0  0  0
 31 60  1  0  0  0
 32 33  2  0  0  0
 32 61  1  0  0  0
 33 62  1  0  0  0
M  END
> <s_m_entry_id>
3137

> <s_m_entry_name>
dock_pv.229

> <s_m_Source_Path>
/home/csk/Desktop/cluster/DUD-E-result/adrb1

> <s_m_Source_File>
dock_pv.maegz

> <i_m_Source_File_Index>
229

> <chembl_id>
CHEMBL4241613

> <chembl_pref_name>
None

> <i_lp_mmshare_version>
53161

> <i_f3d_flags>
0

> <r_lp_tautomer_probability>
1

> <s_lp_Force_Field>
OPLS_2005

> <r_lp_Energy>
36.639837

> <b_lp_Chiralities_Consistent>
1

> <s_lp_Variant>
CHEMBL213_lig1188-1

> <s_i_glide_gridfile>
glide-grid_2vt4

> <i_i_glide_lignum>
1390

> <i_i_glide_rotatable_bonds>
13

> <r_i_docking_score>
-7.45407536941693

> <r_i_glide_ligand_efficiency>
-0.225881071800513

> <r_i_glide_ligand_efficiency_sa>
-0.724521291451967

> <r_i_glide_ligand_efficiency_ln>
-1.65774776702163

> <r_i_glide_gscore>
-7.45407536941693

> <r_i_glide_lipo>
-2.93348977099321

> <r_i_glide_hbond>
-0.631858357264492

> <r_i_glide_metal>
0

> <r_i_glide_rewards>
-0.934499574727278

> <r_i_glide_evdw>
-47.4374885559082

> <r_i_glide_ecoul>
-10.2569007873535

> <r_i_glide_erotb>
1.01626343201546

> <r_i_glide_esite>
-0.060081552548979

> <r_i_glide_emodel>
-75.9236927060452

> <r_i_glide_energy>
-57.6943893432617

> <r_i_glide_einternal>
14.9069843292236

> <i_i_glide_confnum>
9

> <i_i_glide_posenum>
225

> <r_i_glide_eff_state_penalty>
0

> <s_user_duplicate_titles>
CHEMBL213_lig1188

> <s_m_subgroup_title>
dock_pv

> <s_m_subgroupid>
dock_pv

> <b_m_subgroup_collapsed>
1

$$$$
CHEMBL213_lig1438
                    3D
 Schrodinger Suite 2021-1.
 57 60  0  0  1  0            999 V2000
   24.7169    3.8409    1.3542 C   0  0  0  0  0  0
   24.0231    3.9131    2.5537 C   0  0  0  0  0  0
   24.5873    4.5468    3.6557 C   0  0  0  0  0  0
   26.0111    4.3676    1.2372 C   0  0  0  0  0  0
   26.6094    4.9491    2.3729 C   0  0  0  0  0  0
   25.8918    5.0496    3.5822 C   0  0  0  0  0  0
   26.5181    5.6329    4.7098 N   0  0  0  0  0  0
   27.7947    6.0616    4.7970 C   0  0  0  0  0  0
   28.5359    5.9408    3.5565 C   0  0  0  0  0  0
   28.0024    5.4501    2.4142 C   0  0  0  0  0  0
   28.2524    6.5073    5.8425 O   0  0  0  0  0  0
   23.8080    4.6500    4.7851 O   0  0  0  0  0  0
   26.7064    4.3600   -0.1265 C   0  0  2  0  0  0
   26.5992    5.7579   -0.7957 C   0  0  0  0  0  0
   27.0672    5.8500   -2.1769 N   0  0  1  0  0  0
   28.5015    5.7898   -2.4476 C   0  0  1  0  0  0
   29.3381    4.6057   -1.9541 C   0  0  0  0  0  0
   28.8204    5.9029   -3.9359 C   0  0  0  0  0  0
   30.2157    5.3291   -4.0393 C   0  0  0  0  0  0
   30.5130    4.5753   -2.9044 C   0  0  0  0  0  0
   31.6897    3.8227   -2.8561 C   0  0  0  0  0  0
   32.6063    3.8772   -3.9117 C   0  0  0  0  0  0
   32.3014    4.6346   -5.0452 C   0  0  0  0  0  0
   31.0936    5.3267   -5.1180 C   0  0  0  0  0  0
   33.9141    3.0996   -3.8419 C   0  0  0  0  0  0
   35.1286    3.9635   -3.4455 C   0  0  0  0  0  0
   26.2080    3.3545   -0.9863 O   0  0  0  0  0  0
   35.0469    4.5525   -2.0241 C   0  0  0  0  0  0
   36.2918    5.3686   -1.6500 C   0  0  0  0  0  0
   24.2219    3.3911    0.5038 H   0  0  0  0  0  0
   23.0235    3.5097    2.6129 H   0  0  0  0  0  0
   26.0269    5.7199    5.5819 H   0  0  0  0  0  0
   29.5594    6.2868    3.5651 H   0  0  0  0  0  0
   28.6207    5.4273    1.5313 H   0  0  0  0  0  0
   23.9906    5.4169    5.3337 H   0  0  0  0  0  0
   27.7424    4.0838    0.0313 H   0  0  0  0  0  0
   27.0884    6.5268   -0.1961 H   0  0  0  0  0  0
   25.5430    6.0321   -0.8181 H   0  0  0  0  0  0
   26.5039    5.2901   -2.8150 H   0  0  0  0  0  0
   28.9711    6.6500   -1.9782 H   0  0  0  0  0  0
   28.7874    3.6823   -2.0887 H   0  0  0  0  0  0
   29.6228    4.6922   -0.9066 H   0  0  0  0  0  0
   28.7001    6.9177   -4.3184 H   0  0  0  0  0  0
   28.1518    5.2627   -4.5130 H   0  0  0  0  0  0
   31.8984    3.1876   -2.0150 H   0  0  0  0  0  0
   32.9864    4.6681   -5.8809 H   0  0  0  0  0  0
   30.8366    5.8507   -6.0151 H   0  0  0  0  0  0
   34.0984    2.6517   -4.8194 H   0  0  0  0  0  0
   33.8096    2.2558   -3.1580 H   0  0  0  0  0  0
   35.2526    4.7718   -4.1692 H   0  0  0  0  0  0
   36.0298    3.3537   -3.5262 H   0  0  0  0  0  0
   25.7109    3.7690   -1.7099 H   0  0  0  0  0  0
   34.9144    3.7475   -1.2989 H   0  0  0  0  0  0
   34.1678    5.1921   -1.9390 H   0  0  0  0  0  0
   36.2017    5.7792   -0.6442 H   0  0  0  0  0  0
   36.4406    6.2021   -2.3380 H   0  0  0  0  0  0
   37.1897    4.7511   -1.6757 H   0  0  0  0  0  0
  1  4  1  0  0  0
  1  2  2  0  0  0
  1 30  1  0  0  0
  2  3  1  0  0  0
  2 31  1  0  0  0
  3 12  1  0  0  0
  3  6  2  0  0  0
  4  5  2  0  0  0
  4 13  1  0  0  0
  5 10  1  0  0  0
  5  6  1  0  0  0
  6  7  1  0  0  0
  7  8  1  0  0  0
  7 32  1  0  0  0
  8  9  1  0  0  0
  8 11  2  0  0  0
  9 10  2  0  0  0
  9 33  1  0  0  0
 10 34  1  0  0  0
 12 35  1  0  0  0
 13 27  1  0  0  0
 13 14  1  0  0  0
 13 36  1  0  0  0
 14 15  1  0  0  0
 14 37  1  0  0  0
 14 38  1  0  0  0
 15 16  1  0  0  0
 15 39  1  0  0  0
 16 17  1  0  0  0
 16 18  1  0  0  0
 16 40  1  0  0  0
 17 20  1  0  0  0
 17 41  1  0  0  0
 17 42  1  0  0  0
 18 19  1  0  0  0
 18 43  1  0  0  0
 18 44  1  0  0  0
 19 20  2  0  0  0
 19 24  1  0  0  0
 20 21  1  0  0  0
 21 22  2  0  0  0
 21 45  1  0  0  0
 22 23  1  0  0  0
 22 25  1  0  0  0
 23 24  2  0  0  0
 23 46  1  0  0  0
 24 47  1  0  0  0
 25 26  1  0  0  0
 25 48  1  0  0  0
 25 49  1  0  0  0
 26 28  1  0  0  0
 26 50  1  0  0  0
 26 51  1  0  0  0
 27 52  1  0  0  0
 28 29  1  0  0  0
 28 53  1  0  0  0
 28 54  1  0  0  0
 29 55  1  0  0  0
 29 56  1  0  0  0
 29 57  1  0  0  0
M  END
> <s_m_entry_id>
3138

> <s_m_entry_name>
dock_pv.230

> <s_m_Source_Path>
/home/csk/Desktop/cluster/DUD-E-result/adrb1

> <s_m_Source_File>
dock_pv.maegz

> <i_m_Source_File_Index>
230

> <chembl_id>
CHEMBL2088199

> <chembl_pref_name>
None

> <i_lp_mmshare_version>
53161

> <i_f3d_flags>
0

> <r_lp_tautomer_probability>
1

> <s_lp_Force_Field>
OPLS_2005

> <r_lp_Energy>
44.44471

> <b_lp_Chiralities_Consistent>
1

> <s_lp_Variant>
CHEMBL213_lig1438-2

> <s_i_glide_gridfile>
glide-grid_2vt4

> <i_i_glide_lignum>
1772

> <i_i_glide_rotatable_bonds>
9

> <r_i_docking_score>
-7.45022427109367

> <r_i_glide_ligand_efficiency>
-0.256904285210127

> <r_i_glide_ligand_efficiency_sa>
-0.789291357155942

> <r_i_glide_ligand_efficiency_ln>
-1.70591243669352

> <r_i_glide_gscore>
-7.45022427109367

> <r_i_glide_lipo>
-3.03697461230182

> <r_i_glide_hbond>
-0.476268082388368

> <r_i_glide_metal>
0

> <r_i_glide_rewards>
-1.80611561668176

> <r_i_glide_evdw>
-38.6476745605469

> <r_i_glide_ecoul>
-6.39310598373413

> <r_i_glide_erotb>
0.760483665865741

> <r_i_glide_esite>
0

> <r_i_glide_emodel>
-60.361477841895

> <r_i_glide_energy>
-45.040780544281

> <r_i_glide_einternal>
6.54233074188232

> <i_i_glide_confnum>
11

> <i_i_glide_posenum>
84

> <r_i_glide_eff_state_penalty>
0

> <s_user_duplicate_titles>
CHEMBL213_lig1438

> <s_m_subgroup_title>
dock_pv

> <s_m_subgroupid>
dock_pv

> <b_m_subgroup_collapsed>
1

$$$$
CHEMBL213_lig960
                    3D
 Schrodinger Suite 2021-1.
 55 57  0  0  1  0            999 V2000
   28.2088    6.6500    6.3849 O   0  0  0  0  0  0
   28.4696    6.6523    4.9929 C   0  0  1  0  0  0
   29.9719    6.9801    4.7602 C   0  0  0  0  0  0
   30.2072    7.0499    3.3296 N   0  0  2  0  0  0
   31.5788    7.2028    2.8870 C   0  0  0  0  0  0
   32.1920    5.8784    2.3863 C   0  0  0  0  0  0
   31.7559    5.4533    0.9794 C   0  0  0  0  0  0
   32.6763    5.4505   -0.0750 C   0  0  0  0  0  0
   32.2857    5.0503   -1.3518 C   0  0  0  0  0  0
   30.9629    4.6414   -1.5855 C   0  0  0  0  0  0
   30.5060    4.1244   -2.8119 N   0  0  0  0  0  0
   31.0459    4.2635   -4.0437 C   0  0  0  0  0  0
   31.9923    5.0098   -4.3034 O   0  0  0  0  0  0
   30.4363    3.4024   -5.1301 C   0  0  0  0  0  0
   31.2099    3.0430   -6.2445 C   0  0  0  0  0  0
   30.6716    2.2506   -7.2565 C   0  0  0  0  0  0
   29.3489    1.8266   -7.1713 C   0  0  0  0  0  0
   28.5674    2.1737   -6.0736 C   0  0  0  0  0  0
   29.1060    2.9563   -5.0560 C   0  0  0  0  0  0
   30.0446    4.6500   -0.5329 C   0  0  0  0  0  0
   30.4416    5.0499    0.7417 C   0  0  0  0  0  0
   27.9774    5.3092    4.3902 C   0  0  0  0  0  0
   26.5569    5.3517    4.2014 O   0  0  0  0  0  0
   25.9983    4.8118    3.0574 C   0  0  0  0  0  0
   26.6085    4.8361    1.7931 C   0  0  0  0  0  0
   25.9786    4.2500    0.6955 C   0  0  0  0  0  0
   24.7261    3.6626    0.8504 C   0  0  0  0  0  0
   24.0939    3.6661    2.0906 C   0  0  0  0  0  0
   24.7276    4.2500    3.1848 C   0  0  0  0  0  0
   27.5134    7.2954    6.5812 H   0  0  0  0  0  0
   27.8791    7.4621    4.5622 H   0  0  0  0  0  0
   30.2146    7.9500    5.1978 H   0  0  0  0  0  0
   30.6400    6.2480    5.2005 H   0  0  0  0  0  0
   29.6625    7.7982    2.9206 H   0  0  0  0  0  0
   31.4626    7.8500    2.0194 H   0  0  0  0  0  0
   32.2202    7.7459    3.5824 H   0  0  0  0  0  0
   33.2783    5.9711    2.4063 H   0  0  0  0  0  0
   31.9617    5.0834    3.0926 H   0  0  0  0  0  0
   33.6996    5.7532    0.0934 H   0  0  0  0  0  0
   33.0343    5.0272   -2.1288 H   0  0  0  0  0  0
   29.6856    3.5393   -2.7477 H   0  0  0  0  0  0
   32.2358    3.3740   -6.3322 H   0  0  0  0  0  0
   31.2741    1.9833   -8.1122 H   0  0  0  0  0  0
   28.9215    1.2315   -7.9648 H   0  0  0  0  0  0
   27.5383    1.8503   -6.0123 H   0  0  0  0  0  0
   28.4652    3.2153   -4.2243 H   0  0  0  0  0  0
   29.0266    4.3220   -0.6891 H   0  0  0  0  0  0
   29.7355    5.0327    1.5548 H   0  0  0  0  0  0
   28.2078    4.4774    5.0570 H   0  0  0  0  0  0
   28.5283    5.0776    3.4835 H   0  0  0  0  0  0
   27.5551    5.3247    1.6377 H   0  0  0  0  0  0
   26.4468    4.2673   -0.2783 H   0  0  0  0  0  0
   24.2311    3.2242   -0.0057 H   0  0  0  0  0  0
   23.1132    3.2266    2.2003 H   0  0  0  0  0  0
   24.2365    4.2570    4.1461 H   0  0  0  0  0  0
  1  2  1  0  0  0
  1 30  1  0  0  0
  2  3  1  0  0  0
  2 22  1  0  0  0
  2 31  1  0  0  0
  3  4  1  0  0  0
  3 32  1  0  0  0
  3 33  1  0  0  0
  4  5  1  0  0  0
  4 34  1  0  0  0
  5  6  1  0  0  0
  5 35  1  0  0  0
  5 36  1  0  0  0
  6  7  1  0  0  0
  6 37  1  0  0  0
  6 38  1  0  0  0
  7  8  2  0  0  0
  7 21  1  0  0  0
  8  9  1  0  0  0
  8 39  1  0  0  0
  9 10  2  0  0  0
  9 40  1  0  0  0
 10 11  1  0  0  0
 10 20  1  0  0  0
 11 12  1  0  0  0
 11 41  1  0  0  0
 12 13  2  0  0  0
 12 14  1  0  0  0
 14 15  2  0  0  0
 14 19  1  0  0  0
 15 16  1  0  0  0
 15 42  1  0  0  0
 16 17  2  0  0  0
 16 43  1  0  0  0
 17 18  1  0  0  0
 17 44  1  0  0  0
 18 19  2  0  0  0
 18 45  1  0  0  0
 19 46  1  0  0  0
 20 21  2  0  0  0
 20 47  1  0  0  0
 21 48  1  0  0  0
 22 23  1  0  0  0
 22 49  1  0  0  0
 22 50  1  0  0  0
 23 24  1  0  0  0
 24 25  2  0  0  0
 24 29  1  0  0  0
 25 26  1  0  0  0
 25 51  1  0  0  0
 26 27  2  0  0  0
 26 52  1  0  0  0
 27 28  1  0  0  0
 27 53  1  0  0  0
 28 29  2  0  0  0
 28 54  1  0  0  0
 29 55  1  0  0  0
M  END
> <s_m_entry_id>
3139

> <s_m_entry_name>
dock_pv.231

> <s_m_Source_Path>
/home/csk/Desktop/cluster/DUD-E-result/adrb1

> <s_m_Source_File>
dock_pv.maegz

> <i_m_Source_File_Index>
231

> <chembl_id>
CHEMBL1203997

> <chembl_pref_name>
None

> <i_lp_mmshare_version>
53161

> <i_f3d_flags>
0

> <r_lp_tautomer_probability>
1

> <s_lp_Force_Field>
OPLS_2005

> <r_lp_Energy>
36.823127

> <b_lp_Chiralities_Consistent>
1

> <s_lp_Variant>
CHEMBL213_lig960-1

> <s_i_glide_gridfile>
glide-grid_2vt4

> <i_i_glide_lignum>
1072

> <i_i_glide_rotatable_bonds>
12

> <r_i_docking_score>
-7.44732883316318

> <r_i_glide_ligand_efficiency>
-0.256804442522868

> <r_i_glide_ligand_efficiency_sa>
-0.788984608788301

> <r_i_glide_ligand_efficiency_ln>
-1.70524945482941

> <r_i_glide_gscore>
-7.44732883316318

> <r_i_glide_lipo>
-3.66677955460137

> <r_i_glide_hbond>
0

> <r_i_glide_metal>
0

> <r_i_glide_rewards>
-1.51625642982214

> <r_i_glide_evdw>
-41.0475883483887

> <r_i_glide_ecoul>
-9.91634750366211

> <r_i_glide_erotb>
1.27925255945559

> <r_i_glide_esite>
-0.00371386522650742

> <r_i_glide_emodel>
-68.217704593257

> <r_i_glide_energy>
-50.9639358520508

> <r_i_glide_einternal>
13.3075113296509

> <i_i_glide_confnum>
25

> <i_i_glide_posenum>
350

> <r_i_glide_eff_state_penalty>
0

> <s_user_duplicate_titles>
CHEMBL213_lig960,677948

> <s_m_subgroup_title>
dock_pv

> <s_m_subgroupid>
dock_pv

> <b_m_subgroup_collapsed>
1

$$$$
CHEMBL213_lig1075
                    3D
 Schrodinger Suite 2021-1.
 82 84  0  0  1  0            999 V2000
   35.4811    3.3487   -8.0272 C   0  0  0  0  0  0
   36.6942    2.5711   -7.4590 C   0  0  0  0  0  0
   35.8936    4.6819   -8.6970 C   0  0  0  0  0  0
   26.2080    4.2987    0.8895 C   0  0  0  0  0  0
   24.9907    3.7099    1.2640 C   0  0  0  0  0  0
   24.5135    3.8794    2.5592 C   0  0  0  0  0  0
   25.2274    4.6453    3.4771 C   0  0  0  0  0  0
   26.4575    5.2272    3.1419 C   0  0  0  0  0  0
   26.9313    5.0503    1.8319 C   0  0  0  0  0  0
   26.7674    4.1507   -0.5185 C   0  0  0  0  0  0
   26.6080    5.3297   -1.2755 O   0  0  0  0  0  0
   24.2226    2.9692    0.3991 O   0  0  0  0  0  0
   27.1813    6.1112    4.1769 C   0  0  2  0  0  0
   28.7277    6.2531    4.0536 C   0  0  0  0  0  0
   26.9412    5.6955    5.5154 O   0  0  0  0  0  0
   29.1549    7.4507    4.7843 N   0  0  2  0  0  0
   30.5080    7.4903    5.3412 C   0  0  0  0  0  0
   31.6533    6.9114    4.4857 C   0  0  0  0  0  0
   31.7902    7.4159    3.0440 C   0  0  0  0  0  0
   32.2992    6.3543    2.0386 C   0  0  0  0  0  0
   33.8441    6.2511    1.9997 C   0  0  0  0  0  0
   34.4342    5.4732    0.8048 C   0  0  0  0  0  0
   33.7468    5.7815   -0.4026 O   0  0  0  0  0  0
   34.0620    4.9074   -1.4793 C   0  0  0  0  0  0
   33.1944    5.2518   -2.6954 C   0  0  0  0  0  0
   31.6713    5.1602   -2.4367 C   0  0  0  0  0  0
   30.7825    5.4732   -3.6639 C   0  0  0  0  0  0
   30.8333    4.3761   -4.7169 C   0  0  0  0  0  0
   31.9089    4.3165   -5.6047 C   0  0  0  0  0  0
   32.0985    3.2220   -6.4694 C   0  0  0  0  0  0
   31.0802    2.2476   -6.5021 C   0  0  0  0  0  0
   29.9684    2.3312   -5.6635 C   0  0  0  0  0  0
   29.8537    3.3824   -4.7582 C   0  0  0  0  0  0
   33.3043    3.0925   -7.2467 N   0  0  0  0  0  0
   34.5077    3.6320   -6.8950 C   0  0  0  0  0  0
   34.6565    2.5432   -8.8628 N   0  0  0  0  0  0
   33.4078    2.3935   -8.4214 C   0  0  0  0  0  0
   32.5234    1.8348   -9.0638 O   0  0  0  0  0  0
   34.8084    4.2417   -5.8640 O   0  0  0  0  0  0
   37.2218    3.1479   -6.6959 H   0  0  0  0  0  0
   36.4006    1.6188   -7.0105 H   0  0  0  0  0  0
   37.4164    2.3465   -8.2458 H   0  0  0  0  0  0
   36.3719    5.3642   -7.9885 H   0  0  0  0  0  0
   36.6045    4.5130   -9.5057 H   0  0  0  0  0  0
   35.0384    5.2105   -9.1255 H   0  0  0  0  0  0
   23.5675    3.4405    2.8418 H   0  0  0  0  0  0
   24.8038    4.7907    4.4589 H   0  0  0  0  0  0
   27.8499    5.5161    1.5135 H   0  0  0  0  0  0
   27.8282    3.9044   -0.4686 H   0  0  0  0  0  0
   26.2990    3.3236   -1.0526 H   0  0  0  0  0  0
   26.0901    5.1068   -2.0652 H   0  0  0  0  0  0
   24.1191    3.3247   -0.4971 H   0  0  0  0  0  0
   26.7209    7.0939    4.0462 H   0  0  0  0  0  0
   29.2262    5.3493    4.4005 H   0  0  0  0  0  0
   29.0291    6.3880    3.0183 H   0  0  0  0  0  0
   27.4759    4.9161    5.6779 H   0  0  0  0  0  0
   28.4690    7.6494    5.5057 H   0  0  0  0  0  0
   30.7181    8.5333    5.5848 H   0  0  0  0  0  0
   30.4889    6.9644    6.2947 H   0  0  0  0  0  0
   32.6011    7.0506    5.0109 H   0  0  0  0  0  0
   31.5102    5.8501    4.4476 H   0  0  0  0  0  0
   30.8429    7.8285    2.7013 H   0  0  0  0  0  0
   32.4821    8.2497    3.0448 H   0  0  0  0  0  0
   31.8447    5.3804    2.2264 H   0  0  0  0  0  0
   31.9312    6.6485    1.0559 H   0  0  0  0  0  0
   34.2662    7.2555    1.9799 H   0  0  0  0  0  0
   34.2034    5.8108    2.9300 H   0  0  0  0  0  0
   35.4916    5.7178    0.6910 H   0  0  0  0  0  0
   34.3982    4.4067    1.0042 H   0  0  0  0  0  0
   35.1189    5.0013   -1.7384 H   0  0  0  0  0  0
   33.8878    3.8638   -1.2072 H   0  0  0  0  0  0
   33.4604    6.2453   -3.0512 H   0  0  0  0  0  0
   33.4758    4.5636   -3.4883 H   0  0  0  0  0  0
   31.4219    4.1666   -2.0602 H   0  0  0  0  0  0
   31.4101    5.8435   -1.6306 H   0  0  0  0  0  0
   29.7480    5.6031   -3.3427 H   0  0  0  0  0  0
   31.0593    6.4280   -4.1143 H   0  0  0  0  0  0
   32.6242    5.1252   -5.5671 H   0  0  0  0  0  0
   31.1530    1.3784   -7.1384 H   0  0  0  0  0  0
   29.2145    1.5585   -5.6847 H   0  0  0  0  0  0
   29.0141    3.4049   -4.0767 H   0  0  0  0  0  0
   35.0745    1.9107   -9.5292 H   0  0  0  0  0  0
  1  3  1  0  0  0
  1  2  1  0  0  0
  1 35  1  0  0  0
  1 36  1  0  0  0
  2 40  1  0  0  0
  2 41  1  0  0  0
  2 42  1  0  0  0
  3 43  1  0  0  0
  3 44  1  0  0  0
  3 45  1  0  0  0
  4  5  2  0  0  0
  4  9  1  0  0  0
  4 10  1  0  0  0
  5  6  1  0  0  0
  5 12  1  0  0  0
  6  7  2  0  0  0
  6 46  1  0  0  0
  7  8  1  0  0  0
  7 47  1  0  0  0
  8 13  1  0  0  0
  8  9  2  0  0  0
  9 48  1  0  0  0
 10 11  1  0  0  0
 10 49  1  0  0  0
 10 50  1  0  0  0
 11 51  1  0  0  0
 12 52  1  0  0  0
 13 14  1  0  0  0
 13 15  1  0  0  0
 13 53  1  0  0  0
 14 16  1  0  0  0
 14 54  1  0  0  0
 14 55  1  0  0  0
 15 56  1  0  0  0
 16 17  1  0  0  0
 16 57  1  0  0  0
 17 18  1  0  0  0
 17 58  1  0  0  0
 17 59  1  0  0  0
 18 19  1  0  0  0
 18 60  1  0  0  0
 18 61  1  0  0  0
 19 20  1  0  0  0
 19 62  1  0  0  0
 19 63  1  0  0  0
 20 21  1  0  0  0
 20 64  1  0  0  0
 20 65  1  0  0  0
 21 22  1  0  0  0
 21 66  1  0  0  0
 21 67  1  0  0  0
 22 23  1  0  0  0
 22 68  1  0  0  0
 22 69  1  0  0  0
 23 24  1  0  0  0
 24 25  1  0  0  0
 24 70  1  0  0  0
 24 71  1  0  0  0
 25 26  1  0  0  0
 25 72  1  0  0  0
 25 73  1  0  0  0
 26 27  1  0  0  0
 26 74  1  0  0  0
 26 75  1  0  0  0
 27 28  1  0  0  0
 27 76  1  0  0  0
 27 77  1  0  0  0
 28 29  2  0  0  0
 28 33  1  0  0  0
 29 30  1  0  0  0
 29 78  1  0  0  0
 30 31  2  0  0  0
 30 34  1  0  0  0
 31 32  1  0  0  0
 31 79  1  0  0  0
 32 33  2  0  0  0
 32 80  1  0  0  0
 33 81  1  0  0  0
 34 35  1  0  0  0
 34 37  1  0  0  0
 35 39  2  0  0  0
 36 37  1  0  0  0
 36 82  1  0  0  0
 37 38  2  0  0  0
M  END
> <s_m_entry_id>
3140

> <s_m_entry_name>
dock_pv.232

> <s_m_Source_Path>
/home/csk/Desktop/cluster/DUD-E-result/adrb1

> <s_m_Source_File>
dock_pv.maegz

> <i_m_Source_File_Index>
232

> <chembl_id>
CHEMBL1814271

> <chembl_pref_name>
None

> <i_lp_mmshare_version>
53161

> <i_f3d_flags>
0

> <r_lp_tautomer_probability>
0.999999999997159

> <s_lp_Force_Field>
OPLS_2005

> <r_lp_Energy>
44.349187

> <b_lp_Chiralities_Consistent>
1

> <s_lp_Variant>
CHEMBL213_lig1075-1

> <s_i_glide_gridfile>
glide-grid_2vt4

> <i_i_glide_lignum>
1257

> <i_i_glide_rotatable_bonds>
20

> <r_i_docking_score>
-7.44365980960153

> <r_i_glide_ligand_efficiency>
-0.190863072041065

> <r_i_glide_ligand_efficiency_sa>
-0.647257033164075

> <r_i_glide_ligand_efficiency_ln>
-1.59613196402778

> <r_i_glide_gscore>
-7.44365980960153

> <r_i_glide_lipo>
-3.65993407950108

> <r_i_glide_hbond>
-0.297268816053659

> <r_i_glide_metal>
0

> <r_i_glide_rewards>
-1.0006501073627

> <r_i_glide_evdw>
-57.1666297912598

> <r_i_glide_ecoul>
-5.36395215988159

> <r_i_glide_erotb>
1.19827168873429

> <r_i_glide_esite>
-0.0211541818731514

> <r_i_glide_emodel>
-79.6080420419976

> <r_i_glide_energy>
-62.5305819511414

> <r_i_glide_einternal>
22.2545356750488

> <i_i_glide_confnum>
20

> <i_i_glide_posenum>
128

> <r_i_glide_eff_state_penalty>
0

> <s_user_duplicate_titles>
CHEMBL213_lig1075

> <s_m_subgroup_title>
dock_pv

> <s_m_subgroupid>
dock_pv

> <b_m_subgroup_collapsed>
1

$$$$
CHEMBL213_lig748
                    3D
 Schrodinger Suite 2021-1.
 50 52  0  0  1  0            999 V2000
   33.9083    2.2442   -8.3553 C   0  0  0  0  0  0
   34.5146    3.3726   -7.8068 C   0  0  0  0  0  0
   33.8058    4.1776   -6.9175 C   0  0  0  0  0  0
   32.4906    3.8537   -6.5822 C   0  0  0  0  0  0
   31.8587    2.7265   -7.1290 C   0  0  0  0  0  0
   32.5942    1.9241   -8.0149 C   0  0  0  0  0  0
   30.3807    2.4280   -6.8036 C   0  0  2  0  0  0
   30.0702    2.0899   -5.3151 C   0  0  0  0  0  0
   29.8084    1.3982   -7.5951 O   0  0  0  0  0  0
   34.7786    1.2453   -9.4610 Cl  0  0  0  0  0  0
   30.2944    3.1614   -4.3388 N   0  0  1  0  0  0
   29.5582    4.3858   -4.6409 C   0  0  0  0  0  0
   29.8322    5.4687   -3.5862 C   0  0  0  0  0  0
   29.0850    5.2803   -2.2749 C   0  0  0  0  0  0
   29.7892    5.0825   -1.0882 C   0  0  0  0  0  0
   29.1042    5.0479    0.1219 C   0  0  0  0  0  0
   27.7045    5.0964    0.1590 C   0  0  0  0  0  0
   27.0086    5.2558   -1.0442 C   0  0  0  0  0  0
   27.6931    5.3644   -2.2506 C   0  0  0  0  0  0
   26.9625    5.0039    1.4500 C   0  0  0  0  0  0
   25.7851    4.2502    1.5524 C   0  0  0  0  0  0
   25.0404    4.2501    2.7320 C   0  0  0  0  0  0
   25.4655    5.0011    3.8277 C   0  0  0  0  0  0
   26.6684    5.7181    3.7762 C   0  0  0  0  0  0
   27.4093    5.6919    2.5858 C   0  0  0  0  0  0
   27.1610    6.5227    4.9564 C   0  0  0  0  0  0
   26.2774    6.6499    5.9847 O   0  0  0  0  0  0
   28.2689    7.0557    4.9766 O   0  0  0  0  0  0
   35.5308    3.6283   -8.0703 H   0  0  0  0  0  0
   34.2749    5.0569   -6.4960 H   0  0  0  0  0  0
   31.9665    4.5061   -5.9030 H   0  0  0  0  0  0
   32.1507    1.0501   -8.4574 H   0  0  0  0  0  0
   29.8036    3.3023   -7.0927 H   0  0  0  0  0  0
   30.6633    1.2264   -5.0104 H   0  0  0  0  0  0
   29.0264    1.7828   -5.2184 H   0  0  0  0  0  0
   29.6975    1.7376   -8.4874 H   0  0  0  0  0  0
   29.9893    2.8358   -3.4269 H   0  0  0  0  0  0
   28.4927    4.1476   -4.6543 H   0  0  0  0  0  0
   29.8083    4.8023   -5.6148 H   0  0  0  0  0  0
   29.5283    6.4354   -3.9909 H   0  0  0  0  0  0
   30.9053    5.5647   -3.4119 H   0  0  0  0  0  0
   30.8674    5.0183   -1.0939 H   0  0  0  0  0  0
   29.6691    4.9288    1.0347 H   0  0  0  0  0  0
   25.9293    5.3135   -1.0557 H   0  0  0  0  0  0
   27.1316    5.5112   -3.1628 H   0  0  0  0  0  0
   25.4241    3.6885    0.7027 H   0  0  0  0  0  0
   24.1200    3.6872    2.7848 H   0  0  0  0  0  0
   24.8509    5.0105    4.7172 H   0  0  0  0  0  0
   28.3314    6.2499    2.5218 H   0  0  0  0  0  0
   26.6062    7.3170    6.6069 H   0  0  0  0  0  0
  1 10  1  0  0  0
  1  6  1  0  0  0
  1  2  2  0  0  0
  2  3  1  0  0  0
  2 29  1  0  0  0
  3  4  2  0  0  0
  3 30  1  0  0  0
  4  5  1  0  0  0
  4 31  1  0  0  0
  5  7  1  0  0  0
  5  6  2  0  0  0
  6 32  1  0  0  0
  7  8  1  0  0  0
  7  9  1  0  0  0
  7 33  1  0  0  0
  8 11  1  0  0  0
  8 34  1  0  0  0
  8 35  1  0  0  0
  9 36  1  0  0  0
 11 12  1  0  0  0
 11 37  1  0  0  0
 12 13  1  0  0  0
 12 38  1  0  0  0
 12 39  1  0  0  0
 13 14  1  0  0  0
 13 40  1  0  0  0
 13 41  1  0  0  0
 14 15  2  0  0  0
 14 19  1  0  0  0
 15 16  1  0  0  0
 15 42  1  0  0  0
 16 17  2  0  0  0
 16 43  1  0  0  0
 17 18  1  0  0  0
 17 20  1  0  0  0
 18 19  2  0  0  0
 18 44  1  0  0  0
 19 45  1  0  0  0
 20 21  2  0  0  0
 20 25  1  0  0  0
 21 22  1  0  0  0
 21 46  1  0  0  0
 22 23  2  0  0  0
 22 47  1  0  0  0
 23 24  1  0  0  0
 23 48  1  0  0  0
 24 25  2  0  0  0
 24 26  1  0  0  0
 25 49  1  0  0  0
 26 27  1  0  0  0
 26 28  2  0  0  0
 27 50  1  0  0  0
M  END
> <s_m_entry_id>
3141

> <s_m_entry_name>
dock_pv.233

> <s_m_Source_Path>
/home/csk/Desktop/cluster/DUD-E-result/adrb1

> <s_m_Source_File>
dock_pv.maegz

> <i_m_Source_File_Index>
233

> <chembl_id>
CHEMBL260100

> <chembl_pref_name>
None

> <i_lp_mmshare_version>
53161

> <i_f3d_flags>
0

> <r_lp_tautomer_probability>
1

> <s_lp_Force_Field>
OPLS_2005

> <r_lp_Energy>
28.721839

> <b_lp_Chiralities_Consistent>
1

> <s_lp_Variant>
CHEMBL213_lig748-1

> <s_i_glide_gridfile>
glide-grid_2vt4

> <i_i_glide_lignum>
854

> <i_i_glide_rotatable_bonds>
10

> <r_i_docking_score>
-7.43696585591293

> <r_i_glide_ligand_efficiency>
-0.265605923425462

> <r_i_glide_ligand_efficiency_sa>
-0.806536017042761

> <r_i_glide_ligand_efficiency_ln>
-1.71667007835052

> <r_i_glide_gscore>
-7.43696585591293

> <r_i_glide_lipo>
-3.05427766050003

> <r_i_glide_hbond>
0

> <r_i_glide_metal>
0

> <r_i_glide_rewards>
-1.7388524739414

> <r_i_glide_evdw>
-42.482738494873

> <r_i_glide_ecoul>
-9.28885364532471

> <r_i_glide_erotb>
0.87362925007086

> <r_i_glide_esite>
0

> <r_i_glide_emodel>
-73.2577744944718

> <r_i_glide_energy>
-51.7715921401978

> <r_i_glide_einternal>
5.80999612808228

> <i_i_glide_confnum>
10

> <i_i_glide_posenum>
243

> <r_i_glide_eff_state_penalty>
0

> <s_user_duplicate_titles>
CHEMBL213_lig748

> <s_m_subgroup_title>
dock_pv

> <s_m_subgroupid>
dock_pv

> <b_m_subgroup_collapsed>
1

$$$$
CHEMBL213_lig1214 
                    3D
 Schrodinger Suite 2021-1.
 48 50  0  0  1  0            999 V2000
   33.9881    3.6660   -5.6550 C   0  0  0  0  0  0
   34.9392    4.3606   -4.9116 C   0  0  0  0  0  0
   32.4326    3.6990   -3.7827 C   0  0  0  0  0  0
   32.7514    3.3443   -5.0988 C   0  0  0  0  0  0
   33.3669    4.4558   -3.0491 C   0  0  0  0  0  0
   34.6341    4.7507   -3.6002 C   0  0  0  0  0  0
   35.5735    5.4521   -2.8137 N   0  0  0  0  0  0
   35.3745    5.9838   -1.5872 C   0  0  0  0  0  0
   34.0559    5.7130   -1.0418 C   0  0  0  0  0  0
   33.1088    5.0047   -1.6935 C   0  0  0  0  0  0
   36.2306    6.6497   -1.0161 O   0  0  0  0  0  0
   36.1461    4.6480   -5.5057 O   0  0  0  0  0  0
   31.0905    3.2682   -3.1766 C   0  0  1  0  0  0
   29.9998    4.3398   -3.3952 C   0  0  0  0  0  0
   30.6183    2.0138   -3.6502 O   0  0  0  0  0  0
   28.9998    4.2502   -2.3404 N   0  0  1  0  0  0
   27.8784    5.1514   -2.5656 C   0  0  0  0  0  0
   27.1209    5.3501   -1.2407 C   0  0  0  0  0  0
   26.6680    4.0430   -0.5445 C   0  0  0  0  0  0
   26.0640    4.2508    0.8424 C   0  0  0  0  0  0
   24.8724    3.6142    1.2243 C   0  0  0  0  0  0
   24.3465    3.8253    2.4997 C   0  0  0  0  0  0
   25.0078    4.6490    3.4103 C   0  0  0  0  0  0
   26.2125    5.2485    3.0571 C   0  0  0  0  0  0
   26.7364    5.0501    1.7792 C   0  0  0  0  0  0
   24.2080    2.7545    0.3876 O   0  0  0  0  0  0
   34.2108    3.3718   -6.6698 H   0  0  0  0  0  0
   32.0422    2.7883   -5.6942 H   0  0  0  0  0  0
   36.4892    5.6555   -3.1894 H   0  0  0  0  0  0
   33.8405    6.1180   -0.0627 H   0  0  0  0  0  0
   32.1498    4.8709   -1.2144 H   0  0  0  0  0  0
   36.5052    5.5333   -5.3303 H   0  0  0  0  0  0
   31.2665    3.1093   -2.1117 H   0  0  0  0  0  0
   29.5608    4.2376   -4.3910 H   0  0  0  0  0  0
   30.4481    5.3343   -3.3399 H   0  0  0  0  0  0
   29.7484    1.8503   -3.2612 H   0  0  0  0  0  0
   28.6341    3.2983   -2.2858 H   0  0  0  0  0  0
   27.2204    4.7242   -3.3257 H   0  0  0  0  0  0
   28.2252    6.1215   -2.9324 H   0  0  0  0  0  0
   26.2493    5.9792   -1.4275 H   0  0  0  0  0  0
   27.7693    5.9340   -0.5866 H   0  0  0  0  0  0
   27.5022    3.3531   -0.4151 H   0  0  0  0  0  0
   25.9670    3.5353   -1.2108 H   0  0  0  0  0  0
   23.4231    3.3403    2.7828 H   0  0  0  0  0  0
   24.5923    4.8028    4.3942 H   0  0  0  0  0  0
   26.7367    5.8681    3.7704 H   0  0  0  0  0  0
   27.6796    5.5136    1.5345 H   0  0  0  0  0  0
   24.0470    3.0820   -0.5102 H   0  0  0  0  0  0
  1  2  2  0  0  0
  1  4  1  0  0  0
  1 27  1  0  0  0
  2  6  1  0  0  0
  2 12  1  0  0  0
  3  5  1  0  0  0
  3  4  2  0  0  0
  3 13  1  0  0  0
  4 28  1  0  0  0
  5  6  2  0  0  0
  5 10  1  0  0  0
  6  7  1  0  0  0
  7  8  1  0  0  0
  7 29  1  0  0  0
  8  9  1  0  0  0
  8 11  2  0  0  0
  9 10  2  0  0  0
  9 30  1  0  0  0
 10 31  1  0  0  0
 12 32  1  0  0  0
 13 14  1  0  0  0
 13 15  1  0  0  0
 13 33  1  0  0  0
 14 16  1  0  0  0
 14 34  1  0  0  0
 14 35  1  0  0  0
 15 36  1  0  0  0
 16 17  1  0  0  0
 16 37  1  0  0  0
 17 18  1  0  0  0
 17 38  1  0  0  0
 17 39  1  0  0  0
 18 19  1  0  0  0
 18 40  1  0  0  0
 18 41  1  0  0  0
 19 20  1  0  0  0
 19 42  1  0  0  0
 19 43  1  0  0  0
 20 21  2  0  0  0
 20 25  1  0  0  0
 21 22  1  0  0  0
 21 26  1  0  0  0
 22 23  2  0  0  0
 22 44  1  0  0  0
 23 24  1  0  0  0
 23 45  1  0  0  0
 24 25  2  0  0  0
 24 46  1  0  0  0
 25 47  1  0  0  0
 26 48  1  0  0  0
M  END
> <s_m_entry_id>
3142

> <s_m_entry_name>
dock_pv.234

> <s_m_Source_Path>
/home/csk/Desktop/cluster/DUD-E-result/adrb1

> <s_m_Source_File>
dock_pv.maegz

> <i_m_Source_File_Index>
234

> <chembl_id>
CHEMBL4561253

> <chembl_pref_name>
None

> <i_lp_mmshare_version>
53161

> <i_f3d_flags>
0

> <r_lp_tautomer_probability>
0.999999999997365

> <s_lp_Force_Field>
OPLS_2005

> <r_lp_Energy>
28.497189

> <b_lp_Chiralities_Consistent>
1

> <s_lp_Variant>
CHEMBL213_lig1214 -2

> <s_i_glide_gridfile>
glide-grid_2vt4

> <i_i_glide_lignum>
1440

> <i_i_glide_rotatable_bonds>
10

> <r_i_docking_score>
-7.43564729724601

> <r_i_glide_ligand_efficiency>
-0.285986434509462

> <r_i_glide_ligand_efficiency_sa>
-0.847233686932

> <r_i_glide_ligand_efficiency_ln>
-1.74623736940943

> <r_i_glide_gscore>
-7.43564729724601

> <r_i_glide_lipo>
-2.16129856927725

> <r_i_glide_hbond>
-0.96

> <r_i_glide_metal>
0

> <r_i_glide_rewards>
-1.45939612121212

> <r_i_glide_evdw>
-37.0774116516113

> <r_i_glide_ecoul>
-13.574951171875

> <r_i_glide_erotb>
1.06495875063248

> <r_i_glide_esite>
-0.0297980990273079

> <r_i_glide_emodel>
-71.2351179120732

> <r_i_glide_energy>
-50.6523628234863

> <r_i_glide_einternal>
9.49071407318115

> <i_i_glide_confnum>
17

> <i_i_glide_posenum>
294

> <r_i_glide_eff_state_penalty>
0

> <s_user_duplicate_titles>
CHEMBL213_lig1214 

> <s_m_subgroup_title>
dock_pv

> <s_m_subgroupid>
dock_pv

> <b_m_subgroup_collapsed>
1

$$$$
CHEMBL213_lig758
                    3D
 Schrodinger Suite 2021-1.
 51 53  0  0  1  0            999 V2000
   35.2042    3.9045   -3.5213 C   0  0  0  0  0  0
   35.1323    4.9360   -2.5862 C   0  0  0  0  0  0
   33.9729    5.1092   -1.8311 C   0  0  0  0  0  0
   32.8883    4.2500   -2.0150 C   0  0  0  0  0  0
   32.9478    3.2072   -2.9517 C   0  0  0  0  0  0
   34.1175    3.0499   -3.7036 C   0  0  0  0  0  0
   36.6319    3.6860   -4.4630 Cl  0  0  0  0  0  0
   31.7352    2.2938   -3.2133 C   0  0  2  0  0  0
   30.7598    2.9008   -4.2477 C   0  0  0  0  0  0
   30.2693    4.1587   -3.7127 N   0  0  1  0  0  0
   29.5466    4.9959   -4.6390 C   0  0  0  0  0  0
   29.3406    6.3353   -3.9213 C   0  0  0  0  0  0
   28.3004    6.2499   -2.8123 C   0  0  0  0  0  0
   27.0064    6.6818   -3.0795 C   0  0  0  0  0  0
   26.0471    6.6499   -2.0772 C   0  0  0  0  0  0
   26.3532    6.1375   -0.8291 C   0  0  0  0  0  0
   27.6315    5.6454   -0.5452 C   0  0  0  0  0  0
   28.6082    5.7297   -1.5438 C   0  0  0  0  0  0
   31.0080    1.9470   -2.0404 O   0  0  0  0  0  0
   27.9716    5.1116    0.6869 O   0  0  0  0  0  0
   27.0072    4.9221    1.6557 C   0  0  0  0  0  0
   25.9380    4.0429    1.4446 C   0  0  0  0  0  0
   24.9447    3.9023    2.4095 C   0  0  0  0  0  0
   25.0085    4.6502    3.5850 C   0  0  0  0  0  0
   26.0738    5.5319    3.8244 C   0  0  0  0  0  0
   27.0843    5.6375    2.8533 C   0  0  0  0  0  0
   26.1032    6.3493    5.0960 C   0  0  0  0  0  0
   27.1045    7.2691    5.1850 O   0  0  0  0  0  0
   25.2667    6.2096    5.9851 O   0  0  0  0  0  0
   35.9737    5.6010   -2.4528 H   0  0  0  0  0  0
   33.9129    5.9091   -1.1072 H   0  0  0  0  0  0
   31.9889    4.4028   -1.4369 H   0  0  0  0  0  0
   34.1898    2.2667   -4.4419 H   0  0  0  0  0  0
   32.1080    1.3477   -3.6017 H   0  0  0  0  0  0
   29.9322    2.2206   -4.4577 H   0  0  0  0  0  0
   31.2900    3.0756   -5.1857 H   0  0  0  0  0  0
   29.6715    3.9733   -2.9165 H   0  0  0  0  0  0
   28.5794    4.5227   -4.8150 H   0  0  0  0  0  0
   30.0560    5.1302   -5.5948 H   0  0  0  0  0  0
   29.0411    7.0963   -4.6421 H   0  0  0  0  0  0
   30.2859    6.7022   -3.5188 H   0  0  0  0  0  0
   26.7447    7.0770   -4.0509 H   0  0  0  0  0  0
   25.0543    7.0251   -2.2669 H   0  0  0  0  0  0
   25.5721    6.1122   -0.0945 H   0  0  0  0  0  0
   29.6084    5.3858   -1.3267 H   0  0  0  0  0  0
   30.0700    1.8502   -2.2594 H   0  0  0  0  0  0
   25.8774    3.4816    0.5230 H   0  0  0  0  0  0
   24.1167    3.2299    2.2369 H   0  0  0  0  0  0
   24.2107    4.5417    4.3073 H   0  0  0  0  0  0
   27.9297    6.2934    2.9979 H   0  0  0  0  0  0
   27.0086    7.7527    6.0214 H   0  0  0  0  0  0
  1  7  1  0  0  0
  1  6  1  0  0  0
  1  2  2  0  0  0
  2  3  1  0  0  0
  2 30  1  0  0  0
  3  4  2  0  0  0
  3 31  1  0  0  0
  4  5  1  0  0  0
  4 32  1  0  0  0
  5  8  1  0  0  0
  5  6  2  0  0  0
  6 33  1  0  0  0
  8  9  1  0  0  0
  8 19  1  0  0  0
  8 34  1  0  0  0
  9 10  1  0  0  0
  9 35  1  0  0  0
  9 36  1  0  0  0
 10 11  1  0  0  0
 10 37  1  0  0  0
 11 12  1  0  0  0
 11 38  1  0  0  0
 11 39  1  0  0  0
 12 13  1  0  0  0
 12 40  1  0  0  0
 12 41  1  0  0  0
 13 18  1  0  0  0
 13 14  2  0  0  0
 14 15  1  0  0  0
 14 42  1  0  0  0
 15 16  2  0  0  0
 15 43  1  0  0  0
 16 17  1  0  0  0
 16 44  1  0  0  0
 17 18  2  0  0  0
 17 20  1  0  0  0
 18 45  1  0  0  0
 19 46  1  0  0  0
 20 21  1  0  0  0
 21 22  2  0  0  0
 21 26  1  0  0  0
 22 23  1  0  0  0
 22 47  1  0  0  0
 23 24  2  0  0  0
 23 48  1  0  0  0
 24 25  1  0  0  0
 24 49  1  0  0  0
 25 26  2  0  0  0
 25 27  1  0  0  0
 26 50  1  0  0  0
 27 28  1  0  0  0
 27 29  2  0  0  0
 28 51  1  0  0  0
M  END
> <s_m_entry_id>
3143

> <s_m_entry_name>
dock_pv.235

> <s_m_Source_Path>
/home/csk/Desktop/cluster/DUD-E-result/adrb1

> <s_m_Source_File>
dock_pv.maegz

> <i_m_Source_File_Index>
235

> <chembl_id>
CHEMBL523817

> <chembl_pref_name>
None

> <i_lp_mmshare_version>
53161

> <i_f3d_flags>
0

> <r_lp_tautomer_probability>
1

> <s_lp_Force_Field>
OPLS_2005

> <r_lp_Energy>
27.734241

> <b_lp_Chiralities_Consistent>
1

> <s_lp_Variant>
CHEMBL213_lig758-1

> <s_i_glide_gridfile>
glide-grid_2vt4

> <i_i_glide_lignum>
864

> <i_i_glide_rotatable_bonds>
11

> <r_i_docking_score>
-7.43472266361677

> <r_i_glide_ligand_efficiency>
-0.256369747021268

> <r_i_glide_ligand_efficiency_sa>
-0.787649086486183

> <r_i_glide_ligand_efficiency_ln>
-1.70236296166816

> <r_i_glide_gscore>
-7.43472266361677

> <r_i_glide_lipo>
-2.94461287464151

> <r_i_glide_hbond>
-0.304

> <r_i_glide_metal>
0

> <r_i_glide_rewards>
-1.53237116670874

> <r_i_glide_evdw>
-40.684986114502

> <r_i_glide_ecoul>
-10.3276233673096

> <r_i_glide_erotb>
0.929654188555014

> <r_i_glide_esite>
0

> <r_i_glide_emodel>
-72.7453702765436

> <r_i_glide_energy>
-51.0126094818115

> <r_i_glide_einternal>
4.61004114151001

> <i_i_glide_confnum>
104

> <i_i_glide_posenum>
12

> <r_i_glide_eff_state_penalty>
0

> <s_user_duplicate_titles>
CHEMBL213_lig758

> <s_m_subgroup_title>
dock_pv

> <s_m_subgroupid>
dock_pv

> <b_m_subgroup_collapsed>
1

$$$$
CHEMBL213_lig1514
                    3D
 Schrodinger Suite 2021-1.
 60 62  0  0  1  0            999 V2000
   35.7475    5.2563    0.3123 C   0  0  0  0  0  0
   37.1451    5.3734    0.2660 C   0  0  0  0  0  0
   37.8287    6.0601    1.2639 C   0  0  0  0  0  0
   37.1352    6.6505    2.3162 C   0  0  0  0  0  0
   35.7300    6.5947    2.3686 C   0  0  0  0  0  0
   35.0565    5.8828    1.3578 C   0  0  0  0  0  0
   34.9714    7.2768    3.4889 C   0  0  0  0  0  0
   33.8081    7.8493    3.1850 N   0  0  0  0  0  0
   35.4474    7.3710    4.6193 O   0  0  0  0  0  0
   37.8669    7.2817    3.2867 O   0  0  0  0  0  0
   34.9854    4.5468   -0.5986 O   0  0  0  0  0  0
   35.5747    3.9483   -1.7622 C   0  0  0  0  0  0
   35.4147    4.8927   -2.9809 C   0  0  0  0  0  0
   34.1411    4.7582   -3.6985 N   0  0  1  0  0  0
   32.9717    4.8204   -2.8242 C   0  0  0  0  0  0
   31.6356    4.9136   -3.5984 C   0  0  1  0  0  0
   30.4410    4.4727   -2.7339 C   0  0  0  0  0  0
   30.6012    5.0257   -1.4275 O   0  0  0  0  0  0
   31.4080    6.2499   -4.0150 O   0  0  0  0  0  0
   29.5441    5.0317   -0.5512 C   0  0  0  0  0  0
   29.8720    5.0500    0.8043 C   0  0  0  0  0  0
   28.8672    5.0500    1.7689 C   0  0  0  0  0  0
   27.5270    5.0500    1.3697 C   0  0  0  0  0  0
   27.1984    5.0704    0.0131 C   0  0  0  0  0  0
   28.2006    5.0500   -0.9451 C   0  0  0  0  0  0
   26.4557    5.0165    2.3957 C   0  0  0  0  0  0
   26.5141    5.7223    3.5021 N   0  0  0  0  0  0
   25.4080    5.4529    4.1701 C   0  0  0  0  0  0
   24.6347    4.5374    3.4712 C   0  0  0  0  0  0
   25.3091    4.2500    2.3203 N   0  0  0  0  0  0
   25.1232    6.1276    5.4910 C   0  0  0  0  0  0
   25.0470    7.4500    5.3517 F   0  0  0  0  0  0
   26.0718    5.8500    6.3850 F   0  0  0  0  0  0
   23.9613    5.7105    5.9850 F   0  0  0  0  0  0
   24.9051    3.2818    1.3102 C   0  0  0  0  0  0
   37.7377    4.9287   -0.5174 H   0  0  0  0  0  0
   38.9067    6.1210    1.2246 H   0  0  0  0  0  0
   33.9792    5.7923    1.3758 H   0  0  0  0  0  0
   33.4573    7.8500    2.2318 H   0  0  0  0  0  0
   33.3148    8.3887    3.8931 H   0  0  0  0  0  0
   37.2940    7.5705    4.0056 H   0  0  0  0  0  0
   35.0518    3.0097   -1.9497 H   0  0  0  0  0  0
   36.6092    3.6375   -1.6327 H   0  0  0  0  0  0
   36.2145    4.7009   -3.6977 H   0  0  0  0  0  0
   35.5459    5.9290   -2.6660 H   0  0  0  0  0  0
   34.0719    5.4501   -4.4349 H   0  0  0  0  0  0
   33.0509    5.6470   -2.1148 H   0  0  0  0  0  0
   32.9516    3.9024   -2.2350 H   0  0  0  0  0  0
   31.6739    4.2652   -4.4758 H   0  0  0  0  0  0
   30.4299    3.3855   -2.6376 H   0  0  0  0  0  0
   29.5174    4.7606   -3.2343 H   0  0  0  0  0  0
   30.6462    6.2840   -4.6010 H   0  0  0  0  0  0
   30.9088    5.0478    1.1073 H   0  0  0  0  0  0
   29.1338    5.0373    2.8165 H   0  0  0  0  0  0
   26.1685    5.0976   -0.3117 H   0  0  0  0  0  0
   27.9008    5.0646   -1.9802 H   0  0  0  0  0  0
   23.6759    4.0878    3.6820 H   0  0  0  0  0  0
   25.7818    2.7851    0.8931 H   0  0  0  0  0  0
   24.2455    2.5347    1.7530 H   0  0  0  0  0  0
   24.3632    3.7962    0.5156 H   0  0  0  0  0  0
  1  2  2  0  0  0
  1 11  1  0  0  0
  1  6  1  0  0  0
  2  3  1  0  0  0
  2 36  1  0  0  0
  3  4  2  0  0  0
  3 37  1  0  0  0
  4 10  1  0  0  0
  4  5  1  0  0  0
  5  6  2  0  0  0
  5  7  1  0  0  0
  6 38  1  0  0  0
  7  9  2  0  0  0
  7  8  1  0  0  0
  8 39  1  0  0  0
  8 40  1  0  0  0
 10 41  1  0  0  0
 11 12  1  0  0  0
 12 13  1  0  0  0
 12 42  1  0  0  0
 12 43  1  0  0  0
 13 14  1  0  0  0
 13 44  1  0  0  0
 13 45  1  0  0  0
 14 15  1  0  0  0
 14 46  1  0  0  0
 15 16  1  0  0  0
 15 47  1  0  0  0
 15 48  1  0  0  0
 16 17  1  0  0  0
 16 19  1  0  0  0
 16 49  1  0  0  0
 17 18  1  0  0  0
 17 50  1  0  0  0
 17 51  1  0  0  0
 18 20  1  0  0  0
 19 52  1  0  0  0
 20 21  2  0  0  0
 20 25  1  0  0  0
 21 22  1  0  0  0
 21 53  1  0  0  0
 22 23  2  0  0  0
 22 54  1  0  0  0
 23 24  1  0  0  0
 23 26  1  0  0  0
 24 25  2  0  0  0
 24 55  1  0  0  0
 25 56  1  0  0  0
 26 27  2  0  0  0
 26 30  1  0  0  0
 27 28  1  0  0  0
 28 29  2  0  0  0
 28 31  1  0  0  0
 29 30  1  0  0  0
 29 57  1  0  0  0
 30 35  1  0  0  0
 31 32  1  0  0  0
 31 33  1  0  0  0
 31 34  1  0  0  0
 35 58  1  0  0  0
 35 59  1  0  0  0
 35 60  1  0  0  0
M  END
> <s_m_entry_id>
3144

> <s_m_entry_name>
dock_pv.236

> <s_m_Source_Path>
/home/csk/Desktop/cluster/DUD-E-result/adrb1

> <s_m_Source_File>
dock_pv.maegz

> <i_m_Source_File_Index>
236

> <chembl_id>
CHEMBL280822

> <chembl_pref_name>
CGP-20712A

> <i_lp_mmshare_version>
53161

> <i_f3d_flags>
0

> <r_lp_tautomer_probability>
1

> <s_lp_Force_Field>
OPLS_2005

> <r_lp_Energy>
36.963121

> <b_lp_Chiralities_Consistent>
1

> <s_lp_Variant>
CHEMBL213_lig1514-2

> <s_i_glide_gridfile>
glide-grid_2vt4

> <i_i_glide_lignum>
1868

> <i_i_glide_rotatable_bonds>
14

> <r_i_docking_score>
-7.43367850697394

> <r_i_glide_ligand_efficiency>
-0.21239081448497

> <r_i_glide_ligand_efficiency_sa>
-0.694744437031947

> <r_i_glide_ligand_efficiency_ln>
-1.63185741388627

> <r_i_glide_gscore>
-7.43367850697394

> <r_i_glide_lipo>
-2.0426097418976

> <r_i_glide_hbond>
-0.583724598894841

> <r_i_glide_metal>
0

> <r_i_glide_rewards>
-1.66629182471481

> <r_i_glide_evdw>
-42.6133308410645

> <r_i_glide_ecoul>
-11.9812602996826

> <r_i_glide_erotb>
0.833501673666796

> <r_i_glide_esite>
-0.0466984281278781

> <r_i_glide_emodel>
-76.2256752140234

> <r_i_glide_energy>
-54.5945911407471

> <r_i_glide_einternal>
8.35148239135742

> <i_i_glide_confnum>
18

> <i_i_glide_posenum>
320

> <r_i_glide_eff_state_penalty>
0

> <s_user_duplicate_titles>
CHEMBL213_lig1514

> <s_m_subgroup_title>
dock_pv

> <s_m_subgroupid>
dock_pv

> <b_m_subgroup_collapsed>
1

$$$$
CHEMBL213_lig1064
                    3D
 Schrodinger Suite 2021-1.
 65 69  0  0  1  0            999 V2000
   27.3283    5.8503   -2.9531 N   0  0  2  0  0  0
   27.3579    5.4402   -1.5558 C   0  0  0  0  0  0
   26.9482    6.4950   -0.5228 C   0  0  0  0  0  0
   27.2902    5.9689    0.8865 C   0  0  0  0  0  0
   26.7174    4.6500    1.2114 N   0  0  0  0  0  0
   26.9074    3.6755    0.1166 C   0  0  0  0  0  0
   26.4761    4.2296   -1.2181 C   0  0  0  0  0  0
   25.7736    4.4787    2.2170 C   0  0  0  0  0  0
   24.7113    3.7156    1.8414 N   0  0  0  0  0  0
   23.6615    3.6478    2.6727 C   0  0  0  0  0  0
   23.5358    4.2500    3.8698 N   0  0  0  0  0  0
   25.8268    5.0900    3.5145 C   0  0  0  0  0  0
   24.6080    4.9535    4.2607 C   0  0  0  0  0  0
   24.6079    5.8602    5.7580 S   0  0  0  0  0  0
   26.2708    6.2493    5.4891 C   0  0  0  0  0  0
   26.8334    5.7929    4.3041 C   0  0  0  0  0  0
   28.2524    6.9084   -3.3808 C   0  0  0  0  0  0
   29.7253    6.4413   -3.6299 C   0  0  2  0  0  0
   29.8299    5.4215   -4.7654 C   0  0  0  0  0  0
   30.3254    5.8500   -2.4903 O   0  0  0  0  0  0
   31.1853    5.0964   -5.0763 O   0  0  0  0  0  0
   31.4261    4.0176   -5.9026 C   0  0  0  0  0  0
   32.6910    3.9267   -6.4868 C   0  0  0  0  0  0
   33.0027    2.8749   -7.3498 C   0  0  0  0  0  0
   32.0562    1.8849   -7.6157 C   0  0  0  0  0  0
   30.7956    1.9467   -7.0149 C   0  0  0  0  0  0
   30.4840    3.0146   -6.1797 C   0  0  0  0  0  0
   28.2925    6.0241    4.0209 C   0  0  0  0  0  0
   28.9553    7.1375    4.5609 C   0  0  0  0  0  0
   30.2766    7.4120    4.2197 C   0  0  0  0  0  0
   30.9336    6.6044    3.2988 C   0  0  0  0  0  0
   30.3017    5.4754    2.7836 C   0  0  0  0  0  0
   29.0090    5.1592    3.1937 C   0  0  0  0  0  0
   29.7557    0.8664   -7.2322 C   0  0  0  0  0  0
   28.6563    1.2949   -8.0147 O   0  0  0  0  0  0
   26.4128    5.7707   -3.3895 H   0  0  0  0  0  0
   28.3796    5.1267   -1.3631 H   0  0  0  0  0  0
   27.4865    7.4248   -0.6893 H   0  0  0  0  0  0
   25.8983    6.7731   -0.6178 H   0  0  0  0  0  0
   28.3682    5.8497    0.9146 H   0  0  0  0  0  0
   27.0094    6.7030    1.6385 H   0  0  0  0  0  0
   27.9644    3.4771   -0.0150 H   0  0  0  0  0  0
   26.4528    2.7052    0.3225 H   0  0  0  0  0  0
   25.4093    4.4659   -1.2149 H   0  0  0  0  0  0
   26.6093    3.4519   -1.9721 H   0  0  0  0  0  0
   22.8265    3.0519    2.3408 H   0  0  0  0  0  0
   26.7711    6.8023    6.2701 H   0  0  0  0  0  0
   28.2080    7.7596   -2.7035 H   0  0  0  0  0  0
   27.8699    7.2942   -4.3270 H   0  0  0  0  0  0
   30.3241    7.3087   -3.9133 H   0  0  0  0  0  0
   29.4080    5.8498   -5.6676 H   0  0  0  0  0  0
   29.2324    4.5594   -4.4731 H   0  0  0  0  0  0
   29.8628    5.0249   -2.3212 H   0  0  0  0  0  0
   33.4288    4.6901   -6.2831 H   0  0  0  0  0  0
   33.9814    2.8255   -7.8044 H   0  0  0  0  0  0
   32.3141    1.0686   -8.2734 H   0  0  0  0  0  0
   29.4962    3.0188   -5.7500 H   0  0  0  0  0  0
   28.4455    7.8213    5.2231 H   0  0  0  0  0  0
   30.7909    8.2580    4.6454 H   0  0  0  0  0  0
   31.9483    6.8346    3.0076 H   0  0  0  0  0  0
   30.8304    4.8205    2.1070 H   0  0  0  0  0  0
   28.5633    4.2487    2.8319 H   0  0  0  0  0  0
   29.3598    0.5765   -6.2574 H   0  0  0  0  0  0
   30.2099   -0.0441   -7.6150 H   0  0  0  0  0  0
   28.9758    1.6115   -8.8656 H   0  0  0  0  0  0
  1 17  1  0  0  0
  1  2  1  0  0  0
  1 36  1  0  0  0
  2  3  1  0  0  0
  2  7  1  0  0  0
  2 37  1  0  0  0
  3  4  1  0  0  0
  3 38  1  0  0  0
  3 39  1  0  0  0
  4  5  1  0  0  0
  4 40  1  0  0  0
  4 41  1  0  0  0
  5  6  1  0  0  0
  5  8  1  0  0  0
  6  7  1  0  0  0
  6 42  1  0  0  0
  6 43  1  0  0  0
  7 44  1  0  0  0
  7 45  1  0  0  0
  8  9  2  0  0  0
  8 12  1  0  0  0
  9 10  1  0  0  0
 10 11  2  0  0  0
 10 46  1  0  0  0
 11 13  1  0  0  0
 12 13  2  0  0  0
 12 16  1  0  0  0
 13 14  1  0  0  0
 14 15  1  0  0  0
 15 16  2  0  0  0
 15 47  1  0  0  0
 16 28  1  0  0  0
 17 18  1  0  0  0
 17 48  1  0  0  0
 17 49  1  0  0  0
 18 19  1  0  0  0
 18 20  1  0  0  0
 18 50  1  0  0  0
 19 21  1  0  0  0
 19 51  1  0  0  0
 19 52  1  0  0  0
 20 53  1  0  0  0
 21 22  1  0  0  0
 22 23  2  0  0  0
 22 27  1  0  0  0
 23 24  1  0  0  0
 23 54  1  0  0  0
 24 25  2  0  0  0
 24 55  1  0  0  0
 25 26  1  0  0  0
 25 56  1  0  0  0
 26 27  2  0  0  0
 26 34  1  0  0  0
 27 57  1  0  0  0
 28 29  2  0  0  0
 28 33  1  0  0  0
 29 30  1  0  0  0
 29 58  1  0  0  0
 30 31  2  0  0  0
 30 59  1  0  0  0
 31 32  1  0  0  0
 31 60  1  0  0  0
 32 33  2  0  0  0
 32 61  1  0  0  0
 33 62  1  0  0  0
 34 35  1  0  0  0
 34 63  1  0  0  0
 34 64  1  0  0  0
 35 65  1  0  0  0
M  END
> <s_m_entry_id>
3145

> <s_m_entry_name>
dock_pv.237

> <s_m_Source_Path>
/home/csk/Desktop/cluster/DUD-E-result/adrb1

> <s_m_Source_File>
dock_pv.maegz

> <i_m_Source_File_Index>
237

> <chembl_id>
CHEMBL1258371

> <chembl_pref_name>
None

> <i_lp_mmshare_version>
53161

> <i_f3d_flags>
0

> <r_lp_tautomer_probability>
1

> <s_lp_Force_Field>
OPLS_2005

> <r_lp_Energy>
48.400608

> <b_lp_Chiralities_Consistent>
1

> <s_lp_Variant>
CHEMBL213_lig1064-1

> <s_i_glide_gridfile>
glide-grid_2vt4

> <i_i_glide_lignum>
1238

> <i_i_glide_rotatable_bonds>
11

> <r_i_docking_score>
-7.42761091183647

> <r_i_glide_ligand_efficiency>
-0.212217454623899

> <r_i_glide_ligand_efficiency_sa>
-0.694177365431531

> <r_i_glide_ligand_efficiency_ln>
-1.63052544209058

> <r_i_glide_gscore>
-7.42761091183647

> <r_i_glide_lipo>
-4.28168906523392

> <r_i_glide_hbond>
-0.183654987424811

> <r_i_glide_metal>
0

> <r_i_glide_rewards>
-1.08270335085088

> <r_i_glide_evdw>
-36.8442497253418

> <r_i_glide_ecoul>
-5.32203197479248

> <r_i_glide_erotb>
0.760953774159103

> <r_i_glide_esite>
0

> <r_i_glide_emodel>
-47.9737429291943

> <r_i_glide_energy>
-42.1662817001343

> <r_i_glide_einternal>
6.31823110580444

> <i_i_glide_confnum>
188

> <i_i_glide_posenum>
389

> <r_i_glide_eff_state_penalty>
0

> <s_user_duplicate_titles>
CHEMBL213_lig1064

> <s_m_subgroup_title>
dock_pv

> <s_m_subgroupid>
dock_pv

> <b_m_subgroup_collapsed>
1

$$$$
CHEMBL213_lig993
                    3D
 Schrodinger Suite 2021-1.
 53 55  0  0  1  0            999 V2000
   24.4339    4.6500    3.9916 C   0  0  0  0  0  0
   23.6523    4.0204    3.0182 C   0  0  0  0  0  0
   24.1926    3.6698    1.7797 C   0  0  0  0  0  0
   25.5359    3.9363    1.4922 C   0  0  0  0  0  0
   23.8486    5.0496    5.1846 O   0  0  0  0  0  0
   26.1729    3.5470    0.1481 C   0  0  2  0  0  0
   26.5465    4.7912   -0.6721 C   0  0  0  0  0  0
   25.4073    2.6529   -0.6363 O   0  0  0  0  0  0
   27.7534    4.6016   -1.4942 N   0  0  2  0  0  0
   28.1670    5.7111   -2.3696 C   0  0  0  0  0  0
   29.7221    5.6630   -2.5372 C   0  0  0  0  0  0
   30.2270    4.6767   -3.5752 C   0  0  0  0  0  0
   30.6100    5.1142   -4.8418 C   0  0  0  0  0  0
   30.8625    4.1782   -5.8375 C   0  0  0  0  0  0
   30.6850    2.8150   -5.5940 C   0  0  0  0  0  0
   30.4276    2.3860   -4.2885 C   0  0  0  0  0  0
   30.2217    3.3218   -3.2797 C   0  0  0  0  0  0
   27.4093    5.6131   -3.7079 C   0  0  0  0  0  0
   27.8098    7.0512   -1.7226 C   0  0  0  0  0  0
   25.7735    4.9444    3.7110 C   0  0  0  0  0  0
   26.3065    4.5842    2.4723 C   0  0  0  0  0  0
   27.6670    4.6940    2.2717 O   0  0  0  0  0  0
   28.3590    5.7427    2.9765 C   0  0  0  0  0  0
   27.8607    6.0183    4.4216 C   0  0  0  0  0  0
   26.6153    5.5641    4.6395 N   0  0  0  0  0  0
   28.5233    6.5838    5.2886 O   0  0  0  0  0  0
   30.7000    1.8234   -6.7583 C   0  0  0  0  0  0
   30.2068    0.6477   -6.3813 F   0  0  0  0  0  0
   29.9357    2.2445   -7.7642 F   0  0  0  0  0  0
   31.9379    1.6538   -7.2174 F   0  0  0  0  0  0
   22.6113    3.8195    3.2211 H   0  0  0  0  0  0
   23.5596    3.1903    1.0454 H   0  0  0  0  0  0
   24.2486    5.8319    5.5689 H   0  0  0  0  0  0
   27.0837    3.0090    0.3759 H   0  0  0  0  0  0
   26.7827    5.5782    0.0422 H   0  0  0  0  0  0
   25.6811    5.1501   -1.2228 H   0  0  0  0  0  0
   24.8400    3.1541   -1.2417 H   0  0  0  0  0  0
   27.6873    3.7336   -2.0186 H   0  0  0  0  0  0
   30.2067    5.4557   -1.5812 H   0  0  0  0  0  0
   30.1001    6.6422   -2.8247 H   0  0  0  0  0  0
   30.6552    6.1691   -5.0772 H   0  0  0  0  0  0
   31.1278    4.5249   -6.8144 H   0  0  0  0  0  0
   30.3174    1.3373   -4.0530 H   0  0  0  0  0  0
   29.9628    3.0036   -2.2814 H   0  0  0  0  0  0
   27.8234    6.3174   -4.4269 H   0  0  0  0  0  0
   27.4678    4.6155   -4.1456 H   0  0  0  0  0  0
   26.3538    5.8531   -3.5958 H   0  0  0  0  0  0
   28.2067    7.8970   -2.2806 H   0  0  0  0  0  0
   26.7312    7.1720   -1.6387 H   0  0  0  0  0  0
   28.2074    7.0544   -0.7173 H   0  0  0  0  0  0
   29.4310    5.5456    3.0078 H   0  0  0  0  0  0
   28.1947    6.6511    2.4110 H   0  0  0  0  0  0
   26.2842    5.7500    5.5734 H   0  0  0  0  0  0
  1  2  1  0  0  0
  1  5  1  0  0  0
  1 20  2  0  0  0
  2  3  2  0  0  0
  2 31  1  0  0  0
  3  4  1  0  0  0
  3 32  1  0  0  0
  4 21  2  0  0  0
  4  6  1  0  0  0
  5 33  1  0  0  0
  6  7  1  0  0  0
  6  8  1  0  0  0
  6 34  1  0  0  0
  7  9  1  0  0  0
  7 35  1  0  0  0
  7 36  1  0  0  0
  8 37  1  0  0  0
  9 10  1  0  0  0
  9 38  1  0  0  0
 10 18  1  0  0  0
 10 19  1  0  0  0
 10 11  1  0  0  0
 11 12  1  0  0  0
 11 39  1  0  0  0
 11 40  1  0  0  0
 12 17  1  0  0  0
 12 13  2  0  0  0
 13 14  1  0  0  0
 13 41  1  0  0  0
 14 15  2  0  0  0
 14 42  1  0  0  0
 15 16  1  0  0  0
 15 27  1  0  0  0
 16 17  2  0  0  0
 16 43  1  0  0  0
 17 44  1  0  0  0
 18 45  1  0  0  0
 18 46  1  0  0  0
 18 47  1  0  0  0
 19 48  1  0  0  0
 19 49  1  0  0  0
 19 50  1  0  0  0
 20 21  1  0  0  0
 20 25  1  0  0  0
 21 22  1  0  0  0
 22 23  1  0  0  0
 23 24  1  0  0  0
 23 51  1  0  0  0
 23 52  1  0  0  0
 24 25  1  0  0  0
 24 26  2  0  0  0
 25 53  1  0  0  0
 27 28  1  0  0  0
 27 29  1  0  0  0
 27 30  1  0  0  0
M  END
> <s_m_entry_id>
3146

> <s_m_entry_name>
dock_pv.238

> <s_m_Source_Path>
/home/csk/Desktop/cluster/DUD-E-result/adrb1

> <s_m_Source_File>
dock_pv.maegz

> <i_m_Source_File_Index>
238

> <chembl_id>
CHEMBL584498

> <chembl_pref_name>
None

> <i_lp_mmshare_version>
53161

> <i_f3d_flags>
0

> <r_lp_tautomer_probability>
1

> <s_lp_Force_Field>
OPLS_2005

> <r_lp_Energy>
31.164959

> <b_lp_Chiralities_Consistent>
1

> <s_lp_Variant>
CHEMBL213_lig993-1

> <s_i_glide_gridfile>
glide-grid_2vt4

> <i_i_glide_lignum>
1105

> <i_i_glide_rotatable_bonds>
9

> <r_i_docking_score>
-7.42280630890641

> <r_i_glide_ligand_efficiency>
-0.247426876963547

> <r_i_glide_ligand_efficiency_sa>
-0.768812834076151

> <r_i_glide_ligand_efficiency_ln>
-1.68654247133609

> <r_i_glide_gscore>
-7.42280630890641

> <r_i_glide_lipo>
-2.4764413641513

> <r_i_glide_hbond>
-0.704111123198297

> <r_i_glide_metal>
0

> <r_i_glide_rewards>
-2.28022149996144

> <r_i_glide_evdw>
-28.4365310668945

> <r_i_glide_ecoul>
-8.0045166015625

> <r_i_glide_erotb>
0.660471721983722

> <r_i_glide_esite>
0

> <r_i_glide_emodel>
-37.5792028116969

> <r_i_glide_energy>
-36.441047668457

> <r_i_glide_einternal>
11.2588634490967

> <i_i_glide_confnum>
193

> <i_i_glide_posenum>
184

> <r_i_glide_eff_state_penalty>
0

> <s_user_duplicate_titles>
CHEMBL213_lig993,573908

> <s_m_subgroup_title>
dock_pv

> <s_m_subgroupid>
dock_pv

> <b_m_subgroup_collapsed>
1

$$$$
CHEMBL213_lig762
                    3D
 Schrodinger Suite 2021-1.
 55 57  0  0  1  0            999 V2000
   33.7549    2.0619   -8.2177 C   0  0  0  0  0  0
   34.3437    3.2743   -7.8639 C   0  0  0  0  0  0
   33.6541    4.1665   -7.0460 C   0  0  0  0  0  0
   32.3719    3.8501   -6.5946 C   0  0  0  0  0  0
   31.7536    2.6434   -6.9544 C   0  0  0  0  0  0
   32.4751    1.7506   -7.7584 C   0  0  0  0  0  0
   34.6080    0.9411   -9.2150 Cl  0  0  0  0  0  0
   30.3051    2.3332   -6.5230 C   0  0  2  0  0  0
   30.0655    2.1816   -4.9918 C   0  0  0  0  0  0
   30.2769    3.3705   -4.1643 N   0  0  1  0  0  0
   29.5252    4.5374   -4.6140 C   0  0  0  0  0  0
   29.7380    5.7191   -3.6552 C   0  0  0  0  0  0
   28.6292    5.8500   -2.6272 C   0  0  0  0  0  0
   27.4407    6.4858   -2.9939 C   0  0  0  0  0  0
   26.4235    6.6500   -2.0617 C   0  0  0  0  0  0
   26.5955    6.1920   -0.7615 C   0  0  0  0  0  0
   27.7635    5.5185   -0.3813 C   0  0  0  0  0  0
   28.7822    5.3583   -1.3253 C   0  0  0  0  0  0
   29.7501    1.1734   -7.1293 O   0  0  0  0  0  0
   27.9751    5.0500    0.9026 O   0  0  0  0  0  0
   26.9322    4.9190    1.7955 C   0  0  0  0  0  0
   25.8306    4.1098    1.5088 C   0  0  0  0  0  0
   24.7918    3.9855    2.4257 C   0  0  0  0  0  0
   24.8274    4.6749    3.6506 C   0  0  0  0  0  0
   25.9460    5.4860    3.9530 C   0  0  0  0  0  0
   26.9911    5.5849    3.0191 C   0  0  0  0  0  0
   26.0378    6.2505    5.2588 C   0  0  0  0  0  0
   26.6963    7.4434    5.1850 O   0  0  0  0  0  0
   25.5399    5.8500    6.3082 O   0  0  0  0  0  0
   23.7831    4.6500    4.5633 O   0  0  0  0  0  0
   22.4716    4.2500    4.1616 C   0  0  0  0  0  0
   35.3349    3.5230   -8.2148 H   0  0  0  0  0  0
   34.1112    5.1067   -6.7678 H   0  0  0  0  0  0
   31.8675    4.5710   -5.9735 H   0  0  0  0  0  0
   32.0480    0.7958   -8.0150 H   0  0  0  0  0  0
   29.6856    3.1367   -6.9175 H   0  0  0  0  0  0
   30.7046    1.3876   -4.6027 H   0  0  0  0  0  0
   29.0396    1.8548   -4.8088 H   0  0  0  0  0  0
   29.9807    3.1527   -3.2190 H   0  0  0  0  0  0
   28.4634    4.2849   -4.6616 H   0  0  0  0  0  0
   29.8080    4.8548   -5.6160 H   0  0  0  0  0  0
   29.7526    6.6432   -4.2363 H   0  0  0  0  0  0
   30.7183    5.6911   -3.1758 H   0  0  0  0  0  0
   27.3017    6.8566   -3.9998 H   0  0  0  0  0  0
   25.4996    7.1304   -2.3450 H   0  0  0  0  0  0
   25.8080    6.3576   -0.0487 H   0  0  0  0  0  0
   29.6958    4.8597   -1.0374 H   0  0  0  0  0  0
   28.8668    1.0502   -6.7711 H   0  0  0  0  0  0
   25.7825    3.5806    0.5677 H   0  0  0  0  0  0
   23.9630    3.3572    2.1443 H   0  0  0  0  0  0
   27.8613    6.1929    3.2250 H   0  0  0  0  0  0
   26.6653    7.8903    6.0507 H   0  0  0  0  0  0
   21.8749    4.0663    5.0552 H   0  0  0  0  0  0
   21.9423    5.0104    3.5868 H   0  0  0  0  0  0
   22.4718    3.3287    3.5850 H   0  0  0  0  0  0
  1  6  1  0  0  0
  1  2  2  0  0  0
  1  7  1  0  0  0
  2  3  1  0  0  0
  2 32  1  0  0  0
  3  4  2  0  0  0
  3 33  1  0  0  0
  4  5  1  0  0  0
  4 34  1  0  0  0
  5  8  1  0  0  0
  5  6  2  0  0  0
  6 35  1  0  0  0
  8  9  1  0  0  0
  8 19  1  0  0  0
  8 36  1  0  0  0
  9 10  1  0  0  0
  9 37  1  0  0  0
  9 38  1  0  0  0
 10 11  1  0  0  0
 10 39  1  0  0  0
 11 12  1  0  0  0
 11 40  1  0  0  0
 11 41  1  0  0  0
 12 13  1  0  0  0
 12 42  1  0  0  0
 12 43  1  0  0  0
 13 18  1  0  0  0
 13 14  2  0  0  0
 14 15  1  0  0  0
 14 44  1  0  0  0
 15 16  2  0  0  0
 15 45  1  0  0  0
 16 17  1  0  0  0
 16 46  1  0  0  0
 17 18  2  0  0  0
 17 20  1  0  0  0
 18 47  1  0  0  0
 19 48  1  0  0  0
 20 21  1  0  0  0
 21 22  2  0  0  0
 21 26  1  0  0  0
 22 23  1  0  0  0
 22 49  1  0  0  0
 23 24  2  0  0  0
 23 50  1  0  0  0
 24 25  1  0  0  0
 24 30  1  0  0  0
 25 26  2  0  0  0
 25 27  1  0  0  0
 26 51  1  0  0  0
 27 28  1  0  0  0
 27 29  2  0  0  0
 28 52  1  0  0  0
 30 31  1  0  0  0
 31 53  1  0  0  0
 31 54  1  0  0  0
 31 55  1  0  0  0
M  END
> <s_m_entry_id>
3147

> <s_m_entry_name>
dock_pv.239

> <s_m_Source_Path>
/home/csk/Desktop/cluster/DUD-E-result/adrb1

> <s_m_Source_File>
dock_pv.maegz

> <i_m_Source_File_Index>
239

> <chembl_id>
CHEMBL489199

> <chembl_pref_name>
None

> <i_lp_mmshare_version>
53161

> <i_f3d_flags>
0

> <r_lp_tautomer_probability>
1

> <s_lp_Force_Field>
OPLS_2005

> <r_lp_Energy>
31.372281

> <b_lp_Chiralities_Consistent>
1

> <s_lp_Variant>
CHEMBL213_lig762-1

> <s_i_glide_gridfile>
glide-grid_2vt4

> <i_i_glide_lignum>
868

> <i_i_glide_rotatable_bonds>
12

> <r_i_docking_score>
-7.42006649296939

> <r_i_glide_ligand_efficiency>
-0.239356983644174

> <r_i_glide_ligand_efficiency_sa>
-0.751911396573886

> <r_i_glide_ligand_efficiency_ln>
-1.67345239189317

> <r_i_glide_gscore>
-7.42006649296939

> <r_i_glide_lipo>
-3.36781503100812

> <r_i_glide_hbond>
-0.0380395110147627

> <r_i_glide_metal>
0

> <r_i_glide_rewards>
-0.849877516277018

> <r_i_glide_evdw>
-45.227466583252

> <r_i_glide_ecoul>
-11.4762506484985

> <r_i_glide_erotb>
0.818476491767897

> <r_i_glide_esite>
0

> <r_i_glide_emodel>
-76.7464608501434

> <r_i_glide_energy>
-56.7037172317505

> <r_i_glide_einternal>
9.17206192016602

> <i_i_glide_confnum>
112

> <i_i_glide_posenum>
398

> <r_i_glide_eff_state_penalty>
0

> <s_user_duplicate_titles>
CHEMBL213_lig762,492807

> <s_m_subgroup_title>
dock_pv

> <s_m_subgroupid>
dock_pv

> <b_m_subgroup_collapsed>
1

$$$$
CHEMBL213_lig591
                    3D
 Schrodinger Suite 2021-1.
 51 52  0  0  1  0            999 V2000
   26.0866    6.3732    5.4121 C   0  0  0  0  0  0
   32.1293    3.4951   -4.3597 C   0  0  0  0  0  0
   32.3346    3.9853   -3.0607 C   0  0  0  0  0  0
   29.2679    4.2498   -3.5893 N   0  0  1  0  0  0
   27.1118    4.8657   -1.7393 N   0  0  0  0  0  0
   26.6094    5.7963    6.3624 O   0  0  0  0  0  0
   29.6061    3.5931   -4.8519 C   0  0  0  0  0  0
   30.8666    2.7011   -4.7164 C   0  0  2  0  0  0
   26.8084    4.7748   -0.3754 C   0  0  0  0  0  0
   33.4469    4.7748   -2.7678 C   0  0  0  0  0  0
   25.1981    5.6913    4.3751 C   0  0  0  0  0  0
   26.1203    4.5191    2.3115 C   0  0  0  0  0  0
   26.1653    7.7117    5.1815 O   0  0  0  0  0  0
   28.0651    5.8433   -2.2667 C   0  0  0  0  0  0
   33.6425    5.4488   -1.1900 Cl  0  0  0  0  0  0
   25.7563    4.3832    3.7791 C   0  0  0  0  0  0
   27.6127    5.3405    0.6152 C   0  0  0  0  0  0
   25.6725    4.0524   -0.0131 C   0  0  0  0  0  0
   25.3260    3.9212    1.3275 C   0  0  0  0  0  0
   27.2693    5.2207    1.9554 C   0  0  0  0  0  0
   30.6083    1.6139   -3.8428 O   0  0  0  0  0  0
   28.5477    5.5158   -3.6945 C   0  0  1  0  0  0
   33.0669    3.8019   -5.3546 C   0  0  0  0  0  0
   34.1948    4.5667   -5.0547 C   0  0  0  0  0  0
   34.3864    5.0501   -3.7602 C   0  0  0  0  0  0
   29.4785    6.6267   -4.2242 C   0  0  0  0  0  0
   31.6076    3.7825   -2.2879 H   0  0  0  0  0  0
   28.6847    3.6511   -3.0075 H   0  0  0  0  0  0
   26.3304    4.6482   -2.3618 H   0  0  0  0  0  0
   28.7526    3.0077   -5.1989 H   0  0  0  0  0  0
   29.8088    4.3308   -5.6277 H   0  0  0  0  0  0
   31.0315    2.2359   -5.6898 H   0  0  0  0  0  0
   24.2426    5.4931    4.8608 H   0  0  0  0  0  0
   25.0080    6.4047    3.5720 H   0  0  0  0  0  0
   26.6077    8.1458    5.9309 H   0  0  0  0  0  0
   27.6043    6.8306   -2.2220 H   0  0  0  0  0  0
   28.9438    5.9102   -1.6273 H   0  0  0  0  0  0
   26.6317    4.0184    4.3226 H   0  0  0  0  0  0
   25.0096    3.5938    3.8767 H   0  0  0  0  0  0
   28.5247    5.8494    0.3687 H   0  0  0  0  0  0
   25.0498    3.5916   -0.7677 H   0  0  0  0  0  0
   24.4398    3.3645    1.5938 H   0  0  0  0  0  0
   27.9048    5.6588    2.7117 H   0  0  0  0  0  0
   29.8715    1.8521   -3.2668 H   0  0  0  0  0  0
   27.6821    5.3989   -4.3515 H   0  0  0  0  0  0
   32.9226    3.4577   -6.3685 H   0  0  0  0  0  0
   34.9135    4.8055   -5.8274 H   0  0  0  0  0  0
   35.2534    5.6569   -3.5399 H   0  0  0  0  0  0
   28.9768    7.5950   -4.2182 H   0  0  0  0  0  0
   30.3789    6.7187   -3.6151 H   0  0  0  0  0  0
   29.8074    6.4449   -5.2459 H   0  0  0  0  0  0
  1  6  2  0  0  0
  1 11  1  0  0  0
  1 13  1  0  0  0
  2  8  1  0  0  0
  2  3  1  0  0  0
  2 23  2  0  0  0
  3 10  2  0  0  0
  3 27  1  0  0  0
  4 22  1  0  0  0
  4  7  1  0  0  0
  4 28  1  0  0  0
  5  9  1  0  0  0
  5 14  1  0  0  0
  5 29  1  0  0  0
  7  8  1  0  0  0
  7 30  1  0  0  0
  7 31  1  0  0  0
  8 21  1  0  0  0
  8 32  1  0  0  0
  9 17  2  0  0  0
  9 18  1  0  0  0
 10 15  1  0  0  0
 10 25  1  0  0  0
 11 16  1  0  0  0
 11 33  1  0  0  0
 11 34  1  0  0  0
 12 16  1  0  0  0
 12 19  1  0  0  0
 12 20  2  0  0  0
 13 35  1  0  0  0
 14 22  1  0  0  0
 14 36  1  0  0  0
 14 37  1  0  0  0
 16 38  1  0  0  0
 16 39  1  0  0  0
 17 20  1  0  0  0
 17 40  1  0  0  0
 18 19  2  0  0  0
 18 41  1  0  0  0
 19 42  1  0  0  0
 20 43  1  0  0  0
 21 44  1  0  0  0
 22 26  1  0  0  0
 22 45  1  0  0  0
 23 24  1  0  0  0
 23 46  1  0  0  0
 24 25  2  0  0  0
 24 47  1  0  0  0
 25 48  1  0  0  0
 26 49  1  0  0  0
 26 50  1  0  0  0
 26 51  1  0  0  0
M  END
> <s_m_entry_id>
3148

> <s_m_entry_name>
dock_pv.240

> <s_m_Source_Path>
/home/csk/Desktop/cluster/DUD-E-result/adrb1

> <s_m_Source_File>
dock_pv.maegz

> <i_m_Source_File_Index>
240

> <chembl_id>
CHEMBL153558

> <chembl_pref_name>
None

> <i_lp_mmshare_version>
53161

> <i_f3d_flags>
0

> <r_lp_tautomer_probability>
1

> <s_lp_Force_Field>
OPLS_2005

> <r_lp_Energy>
31.839172

> <b_lp_Chiralities_Consistent>
1

> <s_lp_Variant>
CHEMBL213_lig591-1

> <s_i_glide_gridfile>
glide-grid_2vt4

> <i_i_glide_lignum>
691

> <i_i_glide_rotatable_bonds>
12

> <r_i_docking_score>
-7.41941361817957

> <r_i_glide_ligand_efficiency>
-0.285362062237676

> <r_i_glide_ligand_efficiency_sa>
-0.845383986533619

> <r_i_glide_ligand_efficiency_ln>
-1.74242494314772

> <r_i_glide_gscore>
-7.41941361817957

> <r_i_glide_lipo>
-2.22475288937902

> <r_i_glide_hbond>
-0.548278298669043

> <r_i_glide_metal>
0

> <r_i_glide_rewards>
-1.68850154569035

> <r_i_glide_evdw>
-35.6394271850586

> <r_i_glide_ecoul>
-15.5128536224365

> <r_i_glide_erotb>
1.22688256692869

> <r_i_glide_esite>
-0.0758640487514366

> <r_i_glide_emodel>
-69.7788875700618

> <r_i_glide_energy>
-51.1522808074951

> <r_i_glide_einternal>
9.47521305084229

> <i_i_glide_confnum>
61

> <i_i_glide_posenum>
166

> <r_i_glide_eff_state_penalty>
0

> <s_user_duplicate_titles>
CHEMBL213_lig591

> <s_m_subgroup_title>
dock_pv

> <s_m_subgroupid>
dock_pv

> <b_m_subgroup_collapsed>
1

$$$$
CHEMBL213_lig738
                    3D
 Schrodinger Suite 2021-1.
 50 52  0  0  1  0            999 V2000
   24.9264    4.1967    2.2351 C   0  0  0  0  0  0
   25.5482    4.2246    0.9895 C   0  0  0  0  0  0
   26.7125    4.9624    0.8306 C   0  0  0  0  0  0
   27.2348    5.6543    1.9200 C   0  0  0  0  0  0
   26.6471    5.6028    3.1888 C   0  0  0  0  0  0
   25.4766    4.8525    3.3348 C   0  0  0  0  0  0
   27.2301    6.4456    4.3390 C   0  0  2  0  0  0
   28.6865    6.1178    4.7653 C   0  0  0  0  0  0
   26.4317    6.4479    5.5186 O   0  0  0  0  0  0
   23.4080    3.4411    2.3850 Cl  0  0  0  0  0  0
   29.6671    5.8500    3.7102 N   0  0  1  0  0  0
   30.6576    6.8670    3.3821 C   0  0  0  0  0  0
   31.8493    6.2427    2.5947 C   0  0  0  0  0  0
   31.6294    5.7087    1.1634 C   0  0  0  0  0  0
   30.4634    5.0500    0.7651 C   0  0  0  0  0  0
   30.2807    4.6432   -0.5562 C   0  0  0  0  0  0
   31.2930    4.8038   -1.5169 C   0  0  0  0  0  0
   32.4820    5.4292   -1.1017 C   0  0  0  0  0  0
   32.6518    5.8500    0.2190 C   0  0  0  0  0  0
   31.1348    4.2458   -2.9069 C   0  0  0  0  0  0
   32.2484    3.9225   -3.6964 C   0  0  0  0  0  0
   32.1056    3.3410   -4.9562 C   0  0  0  0  0  0
   30.8402    3.0296   -5.4736 C   0  0  0  0  0  0
   29.7157    3.3505   -4.6925 C   0  0  0  0  0  0
   29.8700    3.9693   -3.4502 C   0  0  0  0  0  0
   30.7372    2.3326   -6.8155 C   0  0  0  0  0  0
   31.7197    1.8763   -7.3964 O   0  0  0  0  0  0
   29.4924    2.2500   -7.3596 O   0  0  0  0  0  0
   28.4589    3.0500   -5.0955 F   0  0  0  0  0  0
   25.1044    3.7217    0.1410 H   0  0  0  0  0  0
   27.1874    5.0234   -0.1377 H   0  0  0  0  0  0
   28.1109    6.2500    1.7726 H   0  0  0  0  0  0
   24.9567    4.8223    4.2809 H   0  0  0  0  0  0
   27.1881    7.4608    3.9850 H   0  0  0  0  0  0
   28.6079    5.1696    5.2927 H   0  0  0  0  0  0
   29.0672    6.8502    5.4792 H   0  0  0  0  0  0
   26.6555    7.2130    6.0643 H   0  0  0  0  0  0
   30.1640    4.9826    3.9283 H   0  0  0  0  0  0
   31.0389    7.3456    4.2859 H   0  0  0  0  0  0
   30.1992    7.6481    2.7850 H   0  0  0  0  0  0
   32.3030    5.4504    3.1864 H   0  0  0  0  0  0
   32.6097    7.0231    2.5363 H   0  0  0  0  0  0
   29.6882    4.8258    1.4725 H   0  0  0  0  0  0
   29.3666    4.1225   -0.7979 H   0  0  0  0  0  0
   33.3014    5.5798   -1.7875 H   0  0  0  0  0  0
   33.5881    6.3079    0.5013 H   0  0  0  0  0  0
   33.2516    4.0918   -3.3366 H   0  0  0  0  0  0
   33.0019    3.1078   -5.5155 H   0  0  0  0  0  0
   28.9700    4.1909   -2.8977 H   0  0  0  0  0  0
   29.5465    1.8502   -8.2277 H   0  0  0  0  0  0
  1 10  1  0  0  0
  1  6  1  0  0  0
  1  2  2  0  0  0
  2  3  1  0  0  0
  2 30  1  0  0  0
  3  4  2  0  0  0
  3 31  1  0  0  0
  4  5  1  0  0  0
  4 32  1  0  0  0
  5  7  1  0  0  0
  5  6  2  0  0  0
  6 33  1  0  0  0
  7  8  1  0  0  0
  7  9  1  0  0  0
  7 34  1  0  0  0
  8 11  1  0  0  0
  8 35  1  0  0  0
  8 36  1  0  0  0
  9 37  1  0  0  0
 11 12  1  0  0  0
 11 38  1  0  0  0
 12 13  1  0  0  0
 12 39  1  0  0  0
 12 40  1  0  0  0
 13 14  1  0  0  0
 13 41  1  0  0  0
 13 42  1  0  0  0
 14 15  2  0  0  0
 14 19  1  0  0  0
 15 16  1  0  0  0
 15 43  1  0  0  0
 16 17  2  0  0  0
 16 44  1  0  0  0
 17 18  1  0  0  0
 17 20  1  0  0  0
 18 19  2  0  0  0
 18 45  1  0  0  0
 19 46  1  0  0  0
 20 21  2  0  0  0
 20 25  1  0  0  0
 21 22  1  0  0  0
 21 47  1  0  0  0
 22 23  2  0  0  0
 22 48  1  0  0  0
 23 24  1  0  0  0
 23 26  1  0  0  0
 24 25  2  0  0  0
 24 29  1  0  0  0
 25 49  1  0  0  0
 26 27  2  0  0  0
 26 28  1  0  0  0
 28 50  1  0  0  0
M  END
> <s_m_entry_id>
3149

> <s_m_entry_name>
dock_pv.241

> <s_m_Source_Path>
/home/csk/Desktop/cluster/DUD-E-result/adrb1

> <s_m_Source_File>
dock_pv.maegz

> <i_m_Source_File_Index>
241

> <chembl_id>
CHEMBL271367

> <chembl_pref_name>
None

> <i_lp_mmshare_version>
53161

> <i_f3d_flags>
0

> <r_lp_tautomer_probability>
1

> <s_lp_Force_Field>
OPLS_2005

> <r_lp_Energy>
24.572802

> <b_lp_Chiralities_Consistent>
1

> <s_lp_Variant>
CHEMBL213_lig738-1

> <s_i_glide_gridfile>
glide-grid_2vt4

> <i_i_glide_lignum>
844

> <i_i_glide_rotatable_bonds>
10

> <r_i_docking_score>
-7.41692923417872

> <r_i_glide_ligand_efficiency>
-0.255756180488922

> <r_i_glide_ligand_efficiency_sa>
-0.785764015707293

> <r_i_glide_ligand_efficiency_ln>
-1.69828871752928

> <r_i_glide_gscore>
-7.41692923417872

> <r_i_glide_lipo>
-3.07397012737756

> <r_i_glide_hbond>
-0.596961314409938

> <r_i_glide_metal>
0

> <r_i_glide_rewards>
-1.67466544822874

> <r_i_glide_evdw>
-34.1733741760254

> <r_i_glide_ecoul>
-7.49047565460205

> <r_i_glide_erotb>
0.806397374636441

> <r_i_glide_esite>
-0.0454896618073567

> <r_i_glide_emodel>
-60.0722025953493

> <r_i_glide_energy>
-41.6638498306274

> <r_i_glide_einternal>
9.83906364440918

> <i_i_glide_confnum>
17

> <i_i_glide_posenum>
272

> <r_i_glide_eff_state_penalty>
0

> <s_user_duplicate_titles>
CHEMBL213_lig738,439495

> <s_m_subgroup_title>
dock_pv

> <s_m_subgroupid>
dock_pv

> <b_m_subgroup_collapsed>
1

$$$$
CHEMBL213_lig483
                    3D
 Schrodinger Suite 2021-1.
 66 69  0  0  1  0            999 V2000
   24.6080    5.0500    4.3850 C   0  0  0  0  0  0
   25.5495    5.8500    5.0292 C   0  0  0  0  0  0
   26.1409    4.6505    2.5463 C   0  0  0  0  0  0
   24.8845    4.4877    3.1411 C   0  0  0  0  0  0
   27.1379    5.3083    3.2898 C   0  0  0  0  0  0
   26.8333    5.9489    4.4923 C   0  0  0  0  0  0
   27.9042    6.6464    5.0265 N   0  0  0  0  0  0
   29.1138    6.5474    4.3785 C   0  0  0  0  0  0
   28.8516    5.4500    2.9298 S   0  0  0  0  0  0
   30.1758    7.0680    4.7054 O   0  0  0  0  0  0
   25.2087    6.4927    6.1924 O   0  0  0  0  0  0
   26.3779    4.1646    1.1073 C   0  0  2  0  0  0
   26.1817    5.2942    0.0747 C   0  0  0  0  0  0
   26.8067    4.9937   -1.2150 N   0  0  2  0  0  0
   27.7239    6.0441   -1.6541 C   0  0  0  0  0  0
   27.8919    6.0665   -3.1872 C   0  0  0  0  0  0
   28.6460    4.8864   -3.7918 C   0  0  0  0  0  0
   27.9395    3.8501   -4.4024 C   0  0  0  0  0  0
   28.6110    2.7921   -5.0110 C   0  0  0  0  0  0
   30.0031    2.7678   -5.0181 C   0  0  0  0  0  0
   30.7337    3.7988   -4.4191 C   0  0  0  0  0  0
   30.0440    4.8536   -3.7975 C   0  0  0  0  0  0
   25.5709    3.0647    0.7233 O   0  0  0  0  0  0
   32.2598    3.7311   -4.4974 C   0  0  0  0  0  0
   33.0476    4.9220   -3.9204 C   0  0  0  0  0  0
   33.0673    4.8714   -2.4628 N   0  0  2  0  0  0
   33.7238    6.0446   -1.9059 C   0  0  0  0  0  0
   34.8184    5.6521   -0.9349 C   0  0  0  0  0  0
   34.5998    5.7979    0.4380 C   0  0  0  0  0  0
   35.5958    5.4498    1.3455 C   0  0  0  0  0  0
   36.8057    4.9392    0.8819 C   0  0  0  0  0  0
   37.0221    4.7760   -0.4841 C   0  0  0  0  0  0
   36.0348    5.1393   -1.4124 C   0  0  0  0  0  0
   36.1855    5.0259   -2.7822 O   0  0  0  0  0  0
   37.4233    4.5759   -3.3201 C   0  0  0  0  0  0
   23.6237    4.9333    4.8149 H   0  0  0  0  0  0
   24.0998    3.9544    2.6237 H   0  0  0  0  0  0
   27.8257    7.2191    5.8544 H   0  0  0  0  0  0
   25.8313    7.1666    6.4857 H   0  0  0  0  0  0
   27.4080    3.8500    1.0483 H   0  0  0  0  0  0
   25.1162    5.4500   -0.0921 H   0  0  0  0  0  0
   26.5714    6.2266    0.4890 H   0  0  0  0  0  0
   26.1039    4.8213   -1.9380 H   0  0  0  0  0  0
   27.4192    7.0384   -1.3214 H   0  0  0  0  0  0
   28.6876    5.8370   -1.1856 H   0  0  0  0  0  0
   26.9149    6.1585   -3.6662 H   0  0  0  0  0  0
   28.4165    6.9792   -3.4732 H   0  0  0  0  0  0
   26.8622    3.8632   -4.4152 H   0  0  0  0  0  0
   28.0473    1.9943   -5.4720 H   0  0  0  0  0  0
   30.5144    1.9452   -5.4963 H   0  0  0  0  0  0
   30.5802    5.6621   -3.3253 H   0  0  0  0  0  0
   25.5682    3.0495   -0.2390 H   0  0  0  0  0  0
   32.5964    2.8018   -4.0345 H   0  0  0  0  0  0
   32.5189    3.6463   -5.5535 H   0  0  0  0  0  0
   34.0554    4.9398   -4.3397 H   0  0  0  0  0  0
   32.5676    5.8499   -4.2346 H   0  0  0  0  0  0
   33.6033    4.0627   -2.1763 H   0  0  0  0  0  0
   34.1795    6.6567   -2.6860 H   0  0  0  0  0  0
   32.9730    6.6501   -1.4025 H   0  0  0  0  0  0
   33.6605    6.1895    0.8030 H   0  0  0  0  0  0
   35.4230    5.5711    2.4044 H   0  0  0  0  0  0
   37.5803    4.6625    1.5795 H   0  0  0  0  0  0
   37.9660    4.3615   -0.8066 H   0  0  0  0  0  0
   37.3851    4.6391   -4.4073 H   0  0  0  0  0  0
   38.2605    5.1914   -2.9873 H   0  0  0  0  0  0
   37.6092    3.5350   -3.0549 H   0  0  0  0  0  0
  1  4  1  0  0  0
  1  2  2  0  0  0
  1 36  1  0  0  0
  2 11  1  0  0  0
  2  6  1  0  0  0
  3 12  1  0  0  0
  3  5  1  0  0  0
  3  4  2  0  0  0
  4 37  1  0  0  0
  5  9  1  0  0  0
  5  6  2  0  0  0
  6  7  1  0  0  0
  7  8  1  0  0  0
  7 38  1  0  0  0
  8  9  1  0  0  0
  8 10  2  0  0  0
 11 39  1  0  0  0
 12 23  1  0  0  0
 12 13  1  0  0  0
 12 40  1  0  0  0
 13 14  1  0  0  0
 13 41  1  0  0  0
 13 42  1  0  0  0
 14 15  1  0  0  0
 14 43  1  0  0  0
 15 16  1  0  0  0
 15 44  1  0  0  0
 15 45  1  0  0  0
 16 17  1  0  0  0
 16 46  1  0  0  0
 16 47  1  0  0  0
 17 18  2  0  0  0
 17 22  1  0  0  0
 18 19  1  0  0  0
 18 48  1  0  0  0
 19 20  2  0  0  0
 19 49  1  0  0  0
 20 21  1  0  0  0
 20 50  1  0  0  0
 21 22  2  0  0  0
 21 24  1  0  0  0
 22 51  1  0  0  0
 23 52  1  0  0  0
 24 25  1  0  0  0
 24 53  1  0  0  0
 24 54  1  0  0  0
 25 26  1  0  0  0
 25 55  1  0  0  0
 25 56  1  0  0  0
 26 27  1  0  0  0
 26 57  1  0  0  0
 27 28  1  0  0  0
 27 58  1  0  0  0
 27 59  1  0  0  0
 28 29  2  0  0  0
 28 33  1  0  0  0
 29 30  1  0  0  0
 29 60  1  0  0  0
 30 31  2  0  0  0
 30 61  1  0  0  0
 31 32  1  0  0  0
 31 62  1  0  0  0
 32 33  2  0  0  0
 32 63  1  0  0  0
 33 34  1  0  0  0
 34 35  1  0  0  0
 35 64  1  0  0  0
 35 65  1  0  0  0
 35 66  1  0  0  0
M  END
> <s_m_entry_id>
3150

> <s_m_entry_name>
dock_pv.242

> <s_m_Source_Path>
/home/csk/Desktop/cluster/DUD-E-result/adrb1

> <s_m_Source_File>
dock_pv.maegz

> <i_m_Source_File_Index>
242

> <chembl_id>
CHEMBL1945299

> <chembl_pref_name>
None

> <i_lp_mmshare_version>
53161

> <i_f3d_flags>
0

> <r_lp_tautomer_probability>
1

> <s_lp_Force_Field>
OPLS_2005

> <r_lp_Energy>
32.953961

> <b_lp_Chiralities_Consistent>
1

> <s_lp_Variant>
CHEMBL213_lig483-1

> <s_i_glide_gridfile>
glide-grid_2vt4

> <i_i_glide_lignum>
573

> <i_i_glide_rotatable_bonds>
14

> <r_i_docking_score>
-7.41125298813678

> <r_i_glide_ligand_efficiency>
-0.211750085375337

> <r_i_glide_ligand_efficiency_sa>
-0.692648569629952

> <r_i_glide_ligand_efficiency_ln>
-1.62693451479394

> <r_i_glide_gscore>
-7.41125298813678

> <r_i_glide_lipo>
-2.93047227795855

> <r_i_glide_hbond>
-0.508017113176342

> <r_i_glide_metal>
0

> <r_i_glide_rewards>
-1.53261048049099

> <r_i_glide_evdw>
-48.9894065856934

> <r_i_glide_ecoul>
-4.22995042800903

> <r_i_glide_erotb>
0.643809776975127

> <r_i_glide_esite>
0

> <r_i_glide_emodel>
-68.6520329194635

> <r_i_glide_energy>
-53.2193570137024

> <r_i_glide_einternal>
17.2097339630127

> <i_i_glide_confnum>
409

> <i_i_glide_posenum>
244

> <r_i_glide_eff_state_penalty>
0

> <s_user_duplicate_titles>
CHEMBL213_lig483

> <s_m_subgroup_title>
dock_pv

> <s_m_subgroupid>
dock_pv

> <b_m_subgroup_collapsed>
1

$$$$
CHEMBL213_lig629
                    3D
 Schrodinger Suite 2021-1.
 61 63  0  0  1  0            999 V2000
   26.9049    6.7268    4.4903 S   0  0  0  0  0  0
   31.8931    4.6398   -2.4669 C   0  0  0  0  0  0
   26.7536    4.9668    2.3016 C   0  0  0  0  0  0
   27.4683    5.4304    3.4195 N   0  0  0  0  0  0
   29.4459    4.2501   -2.9055 N   0  0  2  0  0  0
   30.8217    3.7028   -3.1105 C   0  0  1  0  0  0
   33.0559    4.0522   -2.1093 N   0  0  0  0  0  0
   27.3727    5.0501    1.0449 C   0  0  0  0  0  0
   26.7657    4.5108   -0.0996 C   0  0  0  0  0  0
   28.1191    7.4359    4.9047 O   0  0  0  0  0  0
   25.8080    7.4335    3.8204 O   0  0  0  0  0  0
   25.4895    4.3585    2.3993 C   0  0  0  0  0  0
   31.1542    3.3048   -4.5485 C   0  0  0  0  0  0
   31.6924    5.8500   -2.4152 O   0  0  0  0  0  0
   28.9565    4.4240   -1.5279 C   0  0  0  0  0  0
   25.5131    3.9029    0.0320 C   0  0  0  0  0  0
   24.8755    3.8366    1.2650 C   0  0  0  0  0  0
   27.4085    4.5921   -1.4915 C   0  0  2  0  0  0
   30.3839    2.3107   -5.1654 C   0  0  0  0  0  0
   32.2046    3.8831   -5.2853 C   0  0  0  0  0  0
   26.2184    5.8498    5.9961 C   0  0  0  0  0  0
   34.2157    4.6803   -1.6220 C   0  0  0  0  0  0
   31.7557    2.4252   -7.1624 C   0  0  0  0  0  0
   32.5096    3.4428   -6.5660 C   0  0  0  0  0  0
   30.6764    1.8841   -6.4613 C   0  0  0  0  0  0
   24.8202    4.2504    3.5850 O   0  0  0  0  0  0
   27.0080    5.7797   -2.1506 O   0  0  0  0  0  0
   32.0192    1.9067   -8.4151 O   0  0  0  0  0  0
   35.4379    4.0755   -1.9250 C   0  0  0  0  0  0
   34.1900    5.8500   -0.8471 C   0  0  0  0  0  0
   33.2452    2.2475   -9.0650 C   0  0  0  0  0  0
   35.3812    6.4278   -0.4166 C   0  0  0  0  0  0
   36.6279    4.6566   -1.4936 C   0  0  0  0  0  0
   36.5952    5.8314   -0.7465 C   0  0  0  0  0  0
   28.4656    5.2810    3.4196 H   0  0  0  0  0  0
   28.7506    3.7592   -3.4522 H   0  0  0  0  0  0
   30.8835    2.7820   -2.5254 H   0  0  0  0  0  0
   33.1468    3.0674   -2.3022 H   0  0  0  0  0  0
   28.3437    5.5108    0.9609 H   0  0  0  0  0  0
   29.2286    3.5438   -0.9430 H   0  0  0  0  0  0
   29.4348    5.2894   -1.0681 H   0  0  0  0  0  0
   25.0083    3.4818   -0.8232 H   0  0  0  0  0  0
   23.9033    3.3692    1.3278 H   0  0  0  0  0  0
   27.0051    3.7563   -2.0665 H   0  0  0  0  0  0
   29.5621    1.8546   -4.6308 H   0  0  0  0  0  0
   32.8168    4.6767   -4.8825 H   0  0  0  0  0  0
   26.1199    6.5899    6.7874 H   0  0  0  0  0  0
   25.2371    5.4506    5.7552 H   0  0  0  0  0  0
   26.9101    5.0632    6.2907 H   0  0  0  0  0  0
   33.3406    3.9085   -7.0722 H   0  0  0  0  0  0
   30.0802    1.1071   -6.9151 H   0  0  0  0  0  0
   23.9427    3.8813    3.4674 H   0  0  0  0  0  0
   26.1626    5.5891   -2.5809 H   0  0  0  0  0  0
   35.4796    3.1680   -2.5100 H   0  0  0  0  0  0
   33.2581    6.3191   -0.5689 H   0  0  0  0  0  0
   33.2426    1.8496  -10.0779 H   0  0  0  0  0  0
   33.4080    3.3211   -9.1601 H   0  0  0  0  0  0
   34.0955    1.8139   -8.5366 H   0  0  0  0  0  0
   35.3586    7.3359    0.1682 H   0  0  0  0  0  0
   37.5773    4.2033   -1.7414 H   0  0  0  0  0  0
   37.5221    6.2801   -0.4205 H   0  0  0  0  0  0
  1  4  1  0  0  0
  1 10  2  0  0  0
  1 11  2  0  0  0
  1 21  1  0  0  0
  2  6  1  0  0  0
  2  7  1  0  0  0
  2 14  2  0  0  0
  3  4  1  0  0  0
  3  8  1  0  0  0
  3 12  2  0  0  0
  4 35  1  0  0  0
  5 15  1  0  0  0
  5  6  1  0  0  0
  5 36  1  0  0  0
  6 13  1  0  0  0
  6 37  1  0  0  0
  7 22  1  0  0  0
  7 38  1  0  0  0
  8  9  2  0  0  0
  8 39  1  0  0  0
  9 18  1  0  0  0
  9 16  1  0  0  0
 12 17  1  0  0  0
 12 26  1  0  0  0
 13 19  1  0  0  0
 13 20  2  0  0  0
 15 18  1  0  0  0
 15 40  1  0  0  0
 15 41  1  0  0  0
 16 17  2  0  0  0
 16 42  1  0  0  0
 17 43  1  0  0  0
 18 27  1  0  0  0
 18 44  1  0  0  0
 19 25  2  0  0  0
 19 45  1  0  0  0
 20 24  1  0  0  0
 20 46  1  0  0  0
 21 47  1  0  0  0
 21 48  1  0  0  0
 21 49  1  0  0  0
 22 29  2  0  0  0
 22 30  1  0  0  0
 23 24  2  0  0  0
 23 28  1  0  0  0
 23 25  1  0  0  0
 24 50  1  0  0  0
 25 51  1  0  0  0
 26 52  1  0  0  0
 27 53  1  0  0  0
 28 31  1  0  0  0
 29 33  1  0  0  0
 29 54  1  0  0  0
 30 32  2  0  0  0
 30 55  1  0  0  0
 31 56  1  0  0  0
 31 57  1  0  0  0
 31 58  1  0  0  0
 32 34  1  0  0  0
 32 59  1  0  0  0
 33 34  2  0  0  0
 33 60  1  0  0  0
 34 61  1  0  0  0
M  END
> <s_m_entry_id>
3151

> <s_m_entry_name>
dock_pv.243

> <s_m_Source_Path>
/home/csk/Desktop/cluster/DUD-E-result/adrb1

> <s_m_Source_File>
dock_pv.maegz

> <i_m_Source_File_Index>
243

> <chembl_id>
CHEMBL117577

> <chembl_pref_name>
None

> <i_lp_mmshare_version>
53161

> <i_f3d_flags>
0

> <r_lp_tautomer_probability>
1

> <s_lp_Force_Field>
OPLS_2005

> <r_lp_Energy>
30.621042

> <b_lp_Chiralities_Consistent>
1

> <s_lp_Variant>
CHEMBL213_lig629-1

> <s_i_glide_gridfile>
glide-grid_2vt4

> <i_i_glide_lignum>
731

> <i_i_glide_rotatable_bonds>
13

> <r_i_docking_score>
-7.41048168294754

> <r_i_glide_ligand_efficiency>
-0.217955343616104

> <r_i_glide_ligand_efficiency_sa>
-0.706090702500244

> <r_i_glide_ligand_efficiency_ln>
-1.63718326073373

> <r_i_glide_gscore>
-7.41048168294754

> <r_i_glide_lipo>
-2.60641675130279

> <r_i_glide_hbond>
-0.456

> <r_i_glide_metal>
0

> <r_i_glide_rewards>
-0.995276991058147

> <r_i_glide_evdw>
-53.2989349365234

> <r_i_glide_ecoul>
-9.18140506744385

> <r_i_glide_erotb>
0.689369566356145

> <r_i_glide_esite>
0

> <r_i_glide_emodel>
-81.0477231015327

> <r_i_glide_energy>
-62.4803400039673

> <r_i_glide_einternal>
18.1566619873047

> <i_i_glide_confnum>
147

> <i_i_glide_posenum>
54

> <r_i_glide_eff_state_penalty>
0

> <s_user_duplicate_titles>
CHEMBL213_lig629

> <s_m_subgroup_title>
dock_pv

> <s_m_subgroupid>
dock_pv

> <b_m_subgroup_collapsed>
1

$$$$
CHEMBL213_lig411
                    3D
 Schrodinger Suite 2021-1.
 62 64  0  0  1  0            999 V2000
   31.7828    4.8423   -4.3935 C   0  0  0  0  0  0
   33.0811    4.7292   -5.0764 N   0  0  2  0  0  0
   33.3647    3.4682   -5.7815 C   0  0  0  0  0  0
   32.4649    3.0939   -6.9856 C   0  0  0  0  0  0
   31.1378    2.3766   -6.7255 C   0  0  0  0  0  0
   30.7952    1.8503   -5.4741 C   0  0  0  0  0  0
   29.5947    1.1811   -5.2990 C   0  0  0  0  0  0
   28.7227    1.0503   -6.3692 C   0  0  0  0  0  0
   29.0299    1.5885   -7.6148 C   0  0  0  0  0  0
   30.2434    2.2469   -7.7907 C   0  0  0  0  0  0
   29.4239    5.6062   -4.6265 O   0  0  0  0  0  0
   30.6469    5.3544   -5.3135 C   0  0  0  0  0  0
   23.8011    4.0280    2.9353 C   0  0  0  0  0  0
   24.4797    4.6500    3.9844 C   0  0  0  0  0  0
   25.7456    4.2501    1.4940 C   0  0  0  0  0  0
   24.4222    3.8359    1.7038 C   0  0  0  0  0  0
   26.4299    4.8538    2.5685 C   0  0  0  0  0  0
   25.8009    5.0656    3.7958 C   0  0  0  0  0  0
   26.6082    5.7249    4.7158 N   0  0  0  0  0  0
   27.8881    6.0539    4.3316 C   0  0  0  0  0  0
   28.0861    5.4499    2.6186 S   0  0  0  0  0  0
   28.7429    6.6403    4.9920 O   0  0  0  0  0  0
   23.8080    4.9246    5.1604 O   0  0  0  0  0  0
   26.3850    4.0917    0.1063 C   0  0  2  0  0  0
   26.3582    5.4094   -0.7102 C   0  0  0  0  0  0
   25.8081    3.0506   -0.6753 O   0  0  0  0  0  0
   27.4080    5.4377   -1.7341 N   0  0  2  0  0  0
   27.0150    6.2111   -2.9120 C   0  0  0  0  0  0
   28.0995    7.2090   -3.3531 C   0  0  0  0  0  0
   29.4903    6.6338   -3.6508 C   0  0  0  0  0  0
   34.1655    4.9305   -4.1107 C   0  0  0  0  0  0
   31.8815    5.5635   -3.5827 H   0  0  0  0  0  0
   31.5058    3.9133   -3.8998 H   0  0  0  0  0  0
   34.3738    3.5577   -6.1897 H   0  0  0  0  0  0
   33.4276    2.6500   -5.0674 H   0  0  0  0  0  0
   32.3000    3.9809   -7.5982 H   0  0  0  0  0  0
   33.0342    2.4069   -7.6129 H   0  0  0  0  0  0
   31.4530    1.9220   -4.6248 H   0  0  0  0  0  0
   29.3444    0.7620   -4.3386 H   0  0  0  0  0  0
   27.8080    0.5099   -6.2166 H   0  0  0  0  0  0
   28.3414    1.4837   -8.4406 H   0  0  0  0  0  0
   30.4903    2.6496   -8.7622 H   0  0  0  0  0  0
   30.3986    4.6508   -6.0955 H   0  0  0  0  0  0
   30.9629    6.2500   -5.8408 H   0  0  0  0  0  0
   22.7729    3.7253    3.0679 H   0  0  0  0  0  0
   23.8544    3.3822    0.9031 H   0  0  0  0  0  0
   26.2951    5.9855    5.6374 H   0  0  0  0  0  0
   24.2560    5.5431    5.7387 H   0  0  0  0  0  0
   27.4195    3.8168    0.2847 H   0  0  0  0  0  0
   25.3585    5.5568   -1.1231 H   0  0  0  0  0  0
   26.5414    6.2607   -0.0528 H   0  0  0  0  0  0
   25.3492    3.4499   -1.4296 H   0  0  0  0  0  0
   27.5957    4.4854   -2.0279 H   0  0  0  0  0  0
   26.8164    5.5057   -3.7206 H   0  0  0  0  0  0
   26.0834    6.7577   -2.7541 H   0  0  0  0  0  0
   27.7450    7.7319   -4.2418 H   0  0  0  0  0  0
   28.2079    7.9777   -2.5909 H   0  0  0  0  0  0
   30.1203    7.4502   -4.0148 H   0  0  0  0  0  0
   29.9427    6.2486   -2.7364 H   0  0  0  0  0  0
   35.1349    4.9709   -4.6115 H   0  0  0  0  0  0
   34.0558    5.8713   -3.5737 H   0  0  0  0  0  0
   34.1998    4.1299   -3.3691 H   0  0  0  0  0  0
  1 12  1  0  0  0
  1  2  1  0  0  0
  1 32  1  0  0  0
  1 33  1  0  0  0
  2  3  1  0  0  0
  2 31  1  0  0  0
  3  4  1  0  0  0
  3 34  1  0  0  0
  3 35  1  0  0  0
  4  5  1  0  0  0
  4 36  1  0  0  0
  4 37  1  0  0  0
  5 10  1  0  0  0
  5  6  2  0  0  0
  6  7  1  0  0  0
  6 38  1  0  0  0
  7  8  2  0  0  0
  7 39  1  0  0  0
  8  9  1  0  0  0
  8 40  1  0  0  0
  9 10  2  0  0  0
  9 41  1  0  0  0
 10 42  1  0  0  0
 11 12  1  0  0  0
 11 30  1  0  0  0
 12 43  1  0  0  0
 12 44  1  0  0  0
 13 16  1  0  0  0
 13 14  2  0  0  0
 13 45  1  0  0  0
 14 23  1  0  0  0
 14 18  1  0  0  0
 15 16  2  0  0  0
 15 24  1  0  0  0
 15 17  1  0  0  0
 16 46  1  0  0  0
 17 18  2  0  0  0
 17 21  1  0  0  0
 18 19  1  0  0  0
 19 20  1  0  0  0
 19 47  1  0  0  0
 20 21  1  0  0  0
 20 22  2  0  0  0
 23 48  1  0  0  0
 24 25  1  0  0  0
 24 26  1  0  0  0
 24 49  1  0  0  0
 25 27  1  0  0  0
 25 50  1  0  0  0
 25 51  1  0  0  0
 26 52  1  0  0  0
 27 28  1  0  0  0
 27 53  1  0  0  0
 28 29  1  0  0  0
 28 54  1  0  0  0
 28 55  1  0  0  0
 29 30  1  0  0  0
 29 56  1  0  0  0
 29 57  1  0  0  0
 30 58  1  0  0  0
 30 59  1  0  0  0
 31 60  1  0  0  0
 31 61  1  0  0  0
 31 62  1  0  0  0
M  END
> <s_m_entry_id>
3152

> <s_m_entry_name>
dock_pv.244

> <s_m_Source_Path>
/home/csk/Desktop/cluster/DUD-E-result/adrb1

> <s_m_Source_File>
dock_pv.maegz

> <i_m_Source_File_Index>
244

> <chembl_id>
CHEMBL1807874

> <chembl_pref_name>
None

> <i_lp_mmshare_version>
53161

> <i_f3d_flags>
0

> <r_lp_tautomer_probability>
1

> <s_lp_Force_Field>
OPLS_2005

> <r_lp_Energy>
41.753727

> <b_lp_Chiralities_Consistent>
1

> <s_lp_Variant>
CHEMBL213_lig411-1

> <s_i_glide_gridfile>
glide-grid_2vt4

> <i_i_glide_lignum>
484

> <i_i_glide_rotatable_bonds>
15

> <r_i_docking_score>
-7.41045850165221

> <r_i_glide_ligand_efficiency>
-0.239047048440394

> <r_i_glide_ligand_efficiency_sa>
-0.750937772122351

> <r_i_glide_ligand_efficiency_ln>
-1.67128549540158

> <r_i_glide_gscore>
-7.41045850165221

> <r_i_glide_lipo>
-3.6716469508421

> <r_i_glide_hbond>
-0.396677085383371

> <r_i_glide_metal>
0

> <r_i_glide_rewards>
-1.75440646969697

> <r_i_glide_evdw>
-44.2352104187012

> <r_i_glide_ecoul>
-3.90245771408081

> <r_i_glide_erotb>
1.2094011823174

> <r_i_glide_esite>
0

> <r_i_glide_emodel>
-60.362298383325

> <r_i_glide_energy>
-48.137668132782

> <r_i_glide_einternal>
17.9853591918945

> <i_i_glide_confnum>
281

> <i_i_glide_posenum>
379

> <r_i_glide_eff_state_penalty>
0

> <s_user_duplicate_titles>
CHEMBL213_lig411

> <s_m_subgroup_title>
dock_pv

> <s_m_subgroupid>
dock_pv

> <b_m_subgroup_collapsed>
1

$$$$
CHEMBL213_lig1323
                    3D
 Schrodinger Suite 2021-1.
 38 39  0  0  1  0            999 V2000
   30.8173    5.5184   -3.9403 C   0  0  0  0  0  0
   29.9868    4.7534   -3.2749 N   0  0  0  0  0  0
   28.8138    5.3756   -3.3160 C   0  0  0  0  0  0
   28.9159    6.5742   -4.0116 C   0  0  0  0  0  0
   30.2167    6.6499   -4.4153 N   0  0  0  0  0  0
   27.5869    4.7632   -2.6776 C   0  0  0  0  0  0
   27.7349    4.5636   -1.1643 C   0  0  0  0  0  0
   26.3275    3.7299   -0.3663 S   0  0  0  0  0  0
   26.2084    4.2954    1.3040 C   0  0  0  0  0  0
   25.0613    3.9965    2.0361 C   0  0  0  0  0  0
   24.8969    4.5364    3.3100 C   0  0  0  0  0  0
   25.8792    5.3717    3.8641 C   0  0  0  0  0  0
   27.0666    5.5775    3.1509 C   0  0  0  0  0  0
   27.2307    5.0500    1.8796 C   0  0  0  0  0  0
   25.6650    6.1605    5.1747 C   0  0  0  0  0  0
   24.3187    5.8533    5.8908 C   0  0  0  0  0  0
   25.6543    7.6649    4.7921 C   0  0  0  0  0  0
   26.8164    5.8645    6.1737 C   0  0  0  0  0  0
   31.8598    5.3232   -4.1455 H   0  0  0  0  0  0
   28.1952    7.3402   -4.2637 H   0  0  0  0  0  0
   30.6395    7.3744   -4.9909 H   0  0  0  0  0  0
   27.3502    3.8119   -3.1553 H   0  0  0  0  0  0
   26.7279    5.4124   -2.8560 H   0  0  0  0  0  0
   27.8566    5.5543   -0.7287 H   0  0  0  0  0  0
   28.6351    3.9934   -0.9312 H   0  0  0  0  0  0
   24.2761    3.3967    1.5980 H   0  0  0  0  0  0
   23.9714    4.3368    3.8273 H   0  0  0  0  0  0
   27.8522    6.1988    3.5543 H   0  0  0  0  0  0
   28.1509    5.2544    1.3574 H   0  0  0  0  0  0
   24.2097    6.4678    6.7845 H   0  0  0  0  0  0
   24.2080    4.8179    6.2065 H   0  0  0  0  0  0
   23.4580    6.0770    5.2670 H   0  0  0  0  0  0
   26.6478    8.0298    4.5323 H   0  0  0  0  0  0
   25.0115    7.8488    3.9316 H   0  0  0  0  0  0
   25.2840    8.3039    5.5852 H   0  0  0  0  0  0
   27.7558    6.3194    5.8587 H   0  0  0  0  0  0
   26.6024    6.2541    7.1686 H   0  0  0  0  0  0
   27.0080    4.7961    6.2810 H   0  0  0  0  0  0
  1  5  1  0  0  0
  1  2  2  0  0  0
  1 19  1  0  0  0
  2  3  1  0  0  0
  3  6  1  0  0  0
  3  4  2  0  0  0
  4  5  1  0  0  0
  4 20  1  0  0  0
  5 21  1  0  0  0
  6  7  1  0  0  0
  6 22  1  0  0  0
  6 23  1  0  0  0
  7  8  1  0  0  0
  7 24  1  0  0  0
  7 25  1  0  0  0
  8  9  1  0  0  0
  9 10  1  0  0  0
  9 14  2  0  0  0
 10 11  2  0  0  0
 10 26  1  0  0  0
 11 12  1  0  0  0
 11 27  1  0  0  0
 12 13  2  0  0  0
 12 15  1  0  0  0
 13 14  1  0  0  0
 13 28  1  0  0  0
 14 29  1  0  0  0
 15 16  1  0  0  0
 15 17  1  0  0  0
 15 18  1  0  0  0
 16 30  1  0  0  0
 16 31  1  0  0  0
 16 32  1  0  0  0
 17 33  1  0  0  0
 17 34  1  0  0  0
 17 35  1  0  0  0
 18 36  1  0  0  0
 18 37  1  0  0  0
 18 38  1  0  0  0
M  END
> <s_m_entry_id>
3153

> <s_m_entry_name>
dock_pv.245

> <s_m_Source_Path>
/home/csk/Desktop/cluster/DUD-E-result/adrb1

> <s_m_Source_File>
dock_pv.maegz

> <i_m_Source_File_Index>
245

> <chembl_id>
CHEMBL1098230

> <chembl_pref_name>
None

> <i_lp_mmshare_version>
53161

> <i_f3d_flags>
0

> <r_lp_tautomer_probability>
0.499999999999999

> <s_lp_Force_Field>
OPLS_2005

> <r_lp_Energy>
8.486092

> <b_lp_Chiralities_Consistent>
1

> <s_lp_Variant>
CHEMBL213_lig1323-1

> <s_i_glide_gridfile>
glide-grid_2vt4

> <i_i_glide_lignum>
1576

> <i_i_glide_rotatable_bonds>
5

> <r_i_docking_score>
-7.40512286528195

> <r_i_glide_ligand_efficiency>
-0.411395714737886

> <r_i_glide_ligand_efficiency_sa>
-1.07816177797497

> <r_i_glide_ligand_efficiency_ln>
-1.90344864864187

> <r_i_glide_gscore>
-7.40512286528195

> <r_i_glide_lipo>
-2.47308192529947

> <r_i_glide_hbond>
-0.32

> <r_i_glide_metal>
0

> <r_i_glide_rewards>
-3.33830725687491

> <r_i_glide_evdw>
-31.1496276855469

> <r_i_glide_ecoul>
-3.32959342002869

> <r_i_glide_erotb>
0.783186714174068

> <r_i_glide_esite>
0

> <r_i_glide_emodel>
-45.1226591334331

> <r_i_glide_energy>
-34.4792211055756

> <r_i_glide_einternal>
3.36385774612427

> <i_i_glide_confnum>
10

> <i_i_glide_posenum>
393

> <r_i_glide_eff_state_penalty>
0

> <s_user_duplicate_titles>
CHEMBL213_lig1323

> <s_m_subgroup_title>
dock_pv

> <s_m_subgroupid>
dock_pv

> <b_m_subgroup_collapsed>
1

$$$$
CHEMBL213_lig419
                    3D
 Schrodinger Suite 2021-1.
 60 62  0  0  1  0            999 V2000
   30.9411    5.1451   -3.3306 C   0  0  0  0  0  0
   29.8962    4.2889   -3.6614 C   0  0  0  0  0  0
   32.1781    4.4414   -5.3071 C   0  0  0  0  0  0
   32.0722    5.2076   -4.1394 C   0  0  0  0  0  0
   31.1296    3.5555   -5.6132 C   0  0  0  0  0  0
   29.9944    3.4811   -4.8021 C   0  0  0  0  0  0
   29.0501    2.5778   -5.2767 N   0  0  0  0  0  0
   29.3484    1.8862   -6.4329 C   0  0  0  0  0  0
   31.0071    2.4328   -6.9648 S   0  0  0  0  0  0
   28.6579    1.0575   -7.0191 O   0  0  0  0  0  0
   28.7955    4.2500   -2.8455 O   0  0  0  0  0  0
   33.4213    4.6107   -6.1991 C   0  0  2  0  0  0
   34.7720    4.4912   -5.4556 C   0  0  0  0  0  0
   33.4079    5.8499   -6.8869 O   0  0  0  0  0  0
   34.8696    3.2122   -4.7555 N   0  0  1  0  0  0
   36.1840    3.0044   -4.1620 C   0  0  0  0  0  0
   36.4239    3.8753   -2.9147 C   0  0  0  0  0  0
   35.2492    3.4003   -1.5611 S   0  0  1  0  0  0
   35.8321    4.5746   -0.2424 C   0  0  0  0  0  0
   35.0435    5.8992   -0.2776 C   0  0  0  0  0  0
   33.6834    5.8389    0.4439 C   0  0  0  0  0  0
   33.8732    5.8502    1.8944 N   0  0  1  0  0  0
   32.7665    6.4094    2.6752 C   0  0  0  0  0  0
   31.3609    5.8521    2.3442 C   0  0  0  0  0  0
   30.2267    6.2499    3.2956 C   0  0  0  0  0  0
   29.0059    5.5712    3.1846 C   0  0  0  0  0  0
   27.9457    5.8644    4.0422 C   0  0  0  0  0  0
   28.1007    6.8299    5.0334 C   0  0  0  0  0  0
   29.3064    7.5183    5.1503 C   0  0  0  0  0  0
   30.3656    7.2351    4.2848 C   0  0  0  0  0  0
   33.8540    3.8281   -2.0220 O   0  0  0  0  0  0
   26.4356    5.0504    3.8700 Cl  0  0  0  0  0  0
   30.8798    5.7506   -2.4387 H   0  0  0  0  0  0
   32.8833    5.8499   -3.8442 H   0  0  0  0  0  0
   28.1589    2.4316   -4.8231 H   0  0  0  0  0  0
   28.3707    3.3827   -2.8158 H   0  0  0  0  0  0
   33.4134    3.8436   -6.9736 H   0  0  0  0  0  0
   34.8755    5.3138   -4.7474 H   0  0  0  0  0  0
   35.5893    4.5751   -6.1751 H   0  0  0  0  0  0
   34.2734    6.2852   -6.8163 H   0  0  0  0  0  0
   34.1986    3.2232   -3.9920 H   0  0  0  0  0  0
   36.9697    3.1549   -4.9045 H   0  0  0  0  0  0
   36.2348    1.9544   -3.8690 H   0  0  0  0  0  0
   36.3449    4.9405   -3.1307 H   0  0  0  0  0  0
   37.4316    3.7053   -2.5461 H   0  0  0  0  0  0
   36.9001    4.7493   -0.3747 H   0  0  0  0  0  0
   35.7313    4.0898    0.7294 H   0  0  0  0  0  0
   34.8784    6.1866   -1.3166 H   0  0  0  0  0  0
   35.6478    6.7084    0.1378 H   0  0  0  0  0  0
   33.1447    4.9353    0.1628 H   0  0  0  0  0  0
   33.0551    6.6498    0.0974 H   0  0  0  0  0  0
   34.0591    4.9082    2.2095 H   0  0  0  0  0  0
   32.7668    7.4950    2.5888 H   0  0  0  0  0  0
   32.9824    6.2323    3.7301 H   0  0  0  0  0  0
   31.4058    4.7635    2.3376 H   0  0  0  0  0  0
   31.0765    6.1443    1.3331 H   0  0  0  0  0  0
   28.8782    4.8103    2.4283 H   0  0  0  0  0  0
   27.2810    7.0535    5.7010 H   0  0  0  0  0  0
   29.4054    8.2827    5.9057 H   0  0  0  0  0  0
   31.2873    7.7893    4.3930 H   0  0  0  0  0  0
  1  4  2  0  0  0
  1  2  1  0  0  0
  1 33  1  0  0  0
  2 11  1  0  0  0
  2  6  2  0  0  0
  3  4  1  0  0  0
  3 12  1  0  0  0
  3  5  2  0  0  0
  4 34  1  0  0  0
  5  9  1  0  0  0
  5  6  1  0  0  0
  6  7  1  0  0  0
  7  8  1  0  0  0
  7 35  1  0  0  0
  8  9  1  0  0  0
  8 10  2  0  0  0
 11 36  1  0  0  0
 12 13  1  0  0  0
 12 14  1  0  0  0
 12 37  1  0  0  0
 13 15  1  0  0  0
 13 38  1  0  0  0
 13 39  1  0  0  0
 14 40  1  0  0  0
 15 16  1  0  0  0
 15 41  1  0  0  0
 16 17  1  0  0  0
 16 42  1  0  0  0
 16 43  1  0  0  0
 17 18  1  0  0  0
 17 44  1  0  0  0
 17 45  1  0  0  0
 18 19  1  0  0  0
 18 31  2  0  0  0
 19 20  1  0  0  0
 19 46  1  0  0  0
 19 47  1  0  0  0
 20 21  1  0  0  0
 20 48  1  0  0  0
 20 49  1  0  0  0
 21 22  1  0  0  0
 21 50  1  0  0  0
 21 51  1  0  0  0
 22 23  1  0  0  0
 22 52  1  0  0  0
 23 24  1  0  0  0
 23 53  1  0  0  0
 23 54  1  0  0  0
 24 25  1  0  0  0
 24 55  1  0  0  0
 24 56  1  0  0  0
 25 26  2  0  0  0
 25 30  1  0  0  0
 26 27  1  0  0  0
 26 57  1  0  0  0
 27 28  2  0  0  0
 27 32  1  0  0  0
 28 29  1  0  0  0
 28 58  1  0  0  0
 29 30  2  0  0  0
 29 59  1  0  0  0
 30 60  1  0  0  0
M  END
> <s_m_entry_id>
3154

> <s_m_entry_name>
dock_pv.246

> <s_m_Source_Path>
/home/csk/Desktop/cluster/DUD-E-result/adrb1

> <s_m_Source_File>
dock_pv.maegz

> <i_m_Source_File_Index>
246

> <chembl_id>
CHEMBL1807830

> <chembl_pref_name>
None

> <i_lp_mmshare_version>
53161

> <i_f3d_flags>
0

> <r_lp_tautomer_probability>
1

> <s_lp_Force_Field>
OPLS_2005

> <r_lp_Energy>
29.494504

> <b_lp_Chiralities_Consistent>
1

> <s_lp_Variant>
CHEMBL213_lig419-1

> <s_i_glide_gridfile>
glide-grid_2vt4

> <i_i_glide_lignum>
492

> <i_i_glide_rotatable_bonds>
15

> <r_i_docking_score>
-7.40121756729394

> <r_i_glide_ligand_efficiency>
-0.231288048977936

> <r_i_glide_ligand_efficiency_sa>
-0.734293783662205

> <r_i_glide_ligand_efficiency_ln>
-1.65733436288829

> <r_i_glide_gscore>
-7.40121756729394

> <r_i_glide_lipo>
-3.25645442796629

> <r_i_glide_hbond>
-0.511452343403559

> <r_i_glide_metal>
0

> <r_i_glide_rewards>
-0.464109738975007

> <r_i_glide_evdw>
-50.5628318786621

> <r_i_glide_ecoul>
-10.7255792617798

> <r_i_glide_erotb>
0.987008102538633

> <r_i_glide_esite>
-0.0192306762876367

> <r_i_glide_emodel>
-82.4782587890246

> <r_i_glide_energy>
-61.2884111404419

> <r_i_glide_einternal>
16.2054500579834

> <i_i_glide_confnum>
61

> <i_i_glide_posenum>
70

> <r_i_glide_eff_state_penalty>
0

> <s_user_duplicate_titles>
CHEMBL213_lig419

> <s_m_subgroup_title>
dock_pv

> <s_m_subgroupid>
dock_pv

> <b_m_subgroup_collapsed>
1

$$$$
CHEMBL213_lig1517
                    3D
 Schrodinger Suite 2021-1.
 53 56  0  0  1  0            999 V2000
   30.7198    2.8393   -4.9113 C   0  0  0  0  0  0
   31.4071    2.5394   -3.7267 C   0  0  0  0  0  0
   32.3097    3.3819   -3.1607 N   0  0  0  0  0  0
   32.5416    4.5834   -3.7682 C   0  0  0  0  0  0
   31.8736    4.9653   -4.9337 C   0  0  0  0  0  0
   30.9594    4.0837   -5.5082 C   0  0  0  0  0  0
   33.4793    5.4503   -3.2328 O   0  0  0  0  0  0
   34.2948    5.0798   -2.1912 C   0  0  0  0  0  0
   34.0477    5.5874   -0.9186 C   0  0  0  0  0  0
   34.8117    5.1711    0.1792 C   0  0  0  0  0  0
   35.8850    4.2982   -0.0414 C   0  0  0  0  0  0
   36.1736    3.8331   -1.3250 C   0  0  0  0  0  0
   35.3729    4.2178   -2.3994 C   0  0  0  0  0  0
   29.7605    1.8468   -5.5633 C   0  0  0  0  0  0
   30.0764    1.6877   -6.8506 F   0  0  0  0  0  0
   28.5137    2.3106   -5.4870 F   0  0  0  0  0  0
   29.8079    0.6495   -4.9782 F   0  0  0  0  0  0
   34.5012    5.5804    1.5659 C   0  0  0  0  0  0
   33.2976    5.8528    2.1212 C   0  0  0  0  0  0
   33.1721    6.2780    3.5810 C   0  0  0  0  0  0
   31.9434    7.1913    3.7885 C   0  0  0  0  0  0
   30.7173    6.4460    3.4377 N   0  0  0  0  0  0
   30.7965    5.4304    2.3538 C   0  0  0  0  0  0
   31.9496    5.7726    1.3995 C   0  0  0  0  0  0
   29.5820    6.6503    4.1659 C   0  0  0  0  0  0
   28.5527    5.8482    3.8150 N   0  0  0  0  0  0
   29.5008    7.4871    5.0712 O   0  0  0  0  0  0
   27.2561    5.7785    4.3301 C   0  0  0  0  0  0
   26.9178    6.3081    5.5420 N   0  0  0  0  0  0
   25.6466    6.2506    5.9772 N   0  0  0  0  0  0
   24.7024    5.6435    5.2117 C   0  0  0  0  0  0
   25.0079    5.0499    3.9849 C   0  0  0  0  0  0
   26.3187    5.1247    3.5319 C   0  0  0  0  0  0
   31.2540    1.6005   -3.2126 H   0  0  0  0  0  0
   32.0748    5.9210   -5.3959 H   0  0  0  0  0  0
   30.4457    4.3647   -6.4156 H   0  0  0  0  0  0
   33.2370    6.2894   -0.7970 H   0  0  0  0  0  0
   36.4949    3.9606    0.7842 H   0  0  0  0  0  0
   37.0078    3.1630   -1.4831 H   0  0  0  0  0  0
   35.5826    3.8446   -3.3914 H   0  0  0  0  0  0
   35.3671    5.6819    2.2020 H   0  0  0  0  0  0
   33.0812    5.3909    4.2111 H   0  0  0  0  0  0
   34.0728    6.8011    3.9035 H   0  0  0  0  0  0
   31.9565    7.4471    4.8503 H   0  0  0  0  0  0
   32.0217    8.0990    3.1878 H   0  0  0  0  0  0
   29.8994    5.4506    1.7341 H   0  0  0  0  0  0
   30.9159    4.4353    2.7788 H   0  0  0  0  0  0
   31.7367    6.7226    0.9339 H   0  0  0  0  0  0
   31.9653    5.0499    0.5909 H   0  0  0  0  0  0
   28.7331    5.2140    3.0528 H   0  0  0  0  0  0
   23.6965    5.6301    5.6051 H   0  0  0  0  0  0
   24.2448    4.5633    3.3941 H   0  0  0  0  0  0
   26.5842    4.6960    2.5742 H   0  0  0  0  0  0
  1  6  1  0  0  0
  1  2  2  0  0  0
  1 14  1  0  0  0
  2  3  1  0  0  0
  2 34  1  0  0  0
  3  4  2  0  0  0
  4  5  1  0  0  0
  4  7  1  0  0  0
  5  6  2  0  0  0
  5 35  1  0  0  0
  6 36  1  0  0  0
  7  8  1  0  0  0
  8  9  2  0  0  0
  8 13  1  0  0  0
  9 10  1  0  0  0
  9 37  1  0  0  0
 10 18  1  0  0  0
 10 11  2  0  0  0
 11 12  1  0  0  0
 11 38  1  0  0  0
 12 13  2  0  0  0
 12 39  1  0  0  0
 13 40  1  0  0  0
 14 16  1  0  0  0
 14 17  1  0  0  0
 14 15  1  0  0  0
 18 19  2  0  0  0
 18 41  1  0  0  0
 19 20  1  0  0  0
 19 24  1  0  0  0
 20 21  1  0  0  0
 20 42  1  0  0  0
 20 43  1  0  0  0
 21 22  1  0  0  0
 21 44  1  0  0  0
 21 45  1  0  0  0
 22 23  1  0  0  0
 22 25  1  0  0  0
 23 24  1  0  0  0
 23 46  1  0  0  0
 23 47  1  0  0  0
 24 48  1  0  0  0
 24 49  1  0  0  0
 25 26  1  0  0  0
 25 27  2  0  0  0
 26 28  1  0  0  0
 26 50  1  0  0  0
 28 29  2  0  0  0
 28 33  1  0  0  0
 29 30  1  0  0  0
 30 31  2  0  0  0
 31 32  1  0  0  0
 31 51  1  0  0  0
 32 33  2  0  0  0
 32 52  1  0  0  0
 33 53  1  0  0  0
M  END
> <s_m_entry_id>
3155

> <s_m_entry_name>
dock_pv.247

> <s_m_Source_Path>
/home/csk/Desktop/cluster/DUD-E-result/adrb1

> <s_m_Source_File>
dock_pv.maegz

> <i_m_Source_File_Index>
247

> <chembl_id>
CHEMBL1651534

> <chembl_pref_name>
PF-04457845

> <i_lp_mmshare_version>
53161

> <i_f3d_flags>
0

> <r_lp_tautomer_probability>
1

> <s_lp_Force_Field>
OPLS_2005

> <r_lp_Energy>
52.577041

> <b_lp_Chiralities_Consistent>
1

> <s_lp_Variant>
CHEMBL213_lig1517-1

> <s_i_glide_gridfile>
glide-grid_2vt4

> <i_i_glide_lignum>
1871

> <i_i_glide_rotatable_bonds>
7

> <r_i_docking_score>
-7.40058832431105

> <r_i_glide_ligand_efficiency>
-0.22426025225185

> <r_i_glide_ligand_efficiency_sa>
-0.71932245711296

> <r_i_glide_ligand_efficiency_ln>
-1.64585252513118

> <r_i_glide_gscore>
-7.40058832431105

> <r_i_glide_lipo>
-2.86872514020109

> <r_i_glide_hbond>
0

> <r_i_glide_metal>
0

> <r_i_glide_rewards>
-2.00821145974924

> <r_i_glide_evdw>
-48.7368202209473

> <r_i_glide_ecoul>
-4.22603893280029

> <r_i_glide_erotb>
0.581115133695813

> <r_i_glide_esite>
-0.0340200070891153

> <r_i_glide_emodel>
-75.0496715035525

> <r_i_glide_energy>
-52.9628591537476

> <r_i_glide_einternal>
2.78350591659546

> <i_i_glide_confnum>
98

> <i_i_glide_posenum>
377

> <r_i_glide_eff_state_penalty>
0

> <s_user_duplicate_titles>
CHEMBL213_lig1517

> <s_m_subgroup_title>
dock_pv

> <s_m_subgroupid>
dock_pv

> <b_m_subgroup_collapsed>
1

$$$$
CHEMBL213_lig381
                    3D
 Schrodinger Suite 2021-1.
 53 56  0  0  1  0            999 V2000
   29.4028    4.7818   -3.8143 C   0  0  0  0  0  0
   30.4269    5.4654   -4.2814 N   0  0  0  0  0  0
   31.6451    6.8337    2.8830 C   0  0  0  0  0  0
   31.4082    5.8224    1.9574 C   0  0  0  0  0  0
   30.2935    5.0500    1.9850 N   0  0  0  0  0  0
   29.3737    5.2969    2.9541 C   0  0  0  0  0  0
   29.5014    6.3111    3.9166 C   0  0  0  0  0  0
   30.6853    7.0705    3.8658 C   0  0  0  0  0  0
   28.4544    6.5684    5.0251 C   0  0  2  0  0  0
   26.9598    6.5080    4.6525 C   0  0  0  0  0  0
   28.6114    7.8500    5.5897 O   0  0  0  0  0  0
   26.4885    5.1614    4.3504 N   0  0  1  0  0  0
   25.1335    5.2189    3.8209 C   0  0  0  0  0  0
   24.9046    4.1209    2.7664 C   0  0  0  0  0  0
   25.6994    4.2503    1.4625 C   0  0  0  0  0  0
   25.4829    3.2985    0.4701 C   0  0  0  0  0  0
   26.2074    3.3637   -0.7115 C   0  0  0  0  0  0
   27.1519    4.3598   -0.9185 C   0  0  0  0  0  0
   27.3413    5.3491    0.0443 C   0  0  0  0  0  0
   26.6081    5.2955    1.2223 C   0  0  0  0  0  0
   27.9255    4.2511   -2.0770 N   0  0  0  0  0  0
   28.4728    5.2453   -2.8068 C   0  0  0  0  0  0
   28.2600    6.4462   -2.6263 O   0  0  0  0  0  0
   29.2931    3.5480   -4.4344 N   0  0  0  0  0  0
   31.0370    4.6425   -5.1922 C   0  0  0  0  0  0
   30.3317    3.4209   -5.3240 C   0  0  0  0  0  0
   30.7306    2.4108   -6.2040 C   0  0  0  0  0  0
   31.8880    2.6571   -6.9482 C   0  0  0  0  0  0
   32.6102    3.8460   -6.8193 C   0  0  0  0  0  0
   32.1966    4.8586   -5.9512 C   0  0  0  0  0  0
   32.5437    7.4317    2.8341 H   0  0  0  0  0  0
   32.1218    5.6149    1.1733 H   0  0  0  0  0  0
   28.5499    4.6076    2.9510 H   0  0  0  0  0  0
   30.8762    7.8566    4.5817 H   0  0  0  0  0  0
   28.6075    5.8513    5.8272 H   0  0  0  0  0  0
   26.7763    7.1862    3.8223 H   0  0  0  0  0  0
   26.3597    6.8625    5.4942 H   0  0  0  0  0  0
   27.8581    8.0463    6.1648 H   0  0  0  0  0  0
   27.0859    4.6982    3.6822 H   0  0  0  0  0  0
   25.0085    6.1735    3.3103 H   0  0  0  0  0  0
   24.3898    5.1792    4.6182 H   0  0  0  0  0  0
   23.8449    4.1172    2.5071 H   0  0  0  0  0  0
   25.1064    3.1413    3.2004 H   0  0  0  0  0  0
   24.7570    2.5100    0.6075 H   0  0  0  0  0  0
   26.0189    2.6500   -1.4919 H   0  0  0  0  0  0
   28.0668    6.1361   -0.0953 H   0  0  0  0  0  0
   26.7732    6.0851    1.9333 H   0  0  0  0  0  0
   28.1146    3.2925   -2.3525 H   0  0  0  0  0  0
   28.5615    2.8819   -4.2276 H   0  0  0  0  0  0
   30.1827    1.4852   -6.3002 H   0  0  0  0  0  0
   32.2407    1.9052   -7.6400 H   0  0  0  0  0  0
   33.5002    3.9923   -7.4155 H   0  0  0  0  0  0
   32.7478    5.7851   -5.8756 H   0  0  0  0  0  0
  1  2  2  0  0  0
  1 24  1  0  0  0
  1 22  1  0  0  0
  2 25  1  0  0  0
  3  8  1  0  0  0
  3  4  2  0  0  0
  3 31  1  0  0  0
  4  5  1  0  0  0
  4 32  1  0  0  0
  5  6  2  0  0  0
  6  7  1  0  0  0
  6 33  1  0  0  0
  7  8  2  0  0  0
  7  9  1  0  0  0
  8 34  1  0  0  0
  9 10  1  0  0  0
  9 11  1  0  0  0
  9 35  1  0  0  0
 10 12  1  0  0  0
 10 36  1  0  0  0
 10 37  1  0  0  0
 11 38  1  0  0  0
 12 13  1  0  0  0
 12 39  1  0  0  0
 13 14  1  0  0  0
 13 40  1  0  0  0
 13 41  1  0  0  0
 14 15  1  0  0  0
 14 42  1  0  0  0
 14 43  1  0  0  0
 15 16  2  0  0  0
 15 20  1  0  0  0
 16 17  1  0  0  0
 16 44  1  0  0  0
 17 18  2  0  0  0
 17 45  1  0  0  0
 18 19  1  0  0  0
 18 21  1  0  0  0
 19 20  2  0  0  0
 19 46  1  0  0  0
 20 47  1  0  0  0
 21 22  1  0  0  0
 21 48  1  0  0  0
 22 23  2  0  0  0
 24 26  1  0  0  0
 24 49  1  0  0  0
 25 26  2  0  0  0
 25 30  1  0  0  0
 26 27  1  0  0  0
 27 28  2  0  0  0
 27 50  1  0  0  0
 28 29  1  0  0  0
 28 51  1  0  0  0
 29 30  2  0  0  0
 29 52  1  0  0  0
 30 53  1  0  0  0
M  END
> <s_m_entry_id>
3156

> <s_m_entry_name>
dock_pv.248

> <s_m_Source_Path>
/home/csk/Desktop/cluster/DUD-E-result/adrb1

> <s_m_Source_File>
dock_pv.maegz

> <i_m_Source_File_Index>
248

> <chembl_id>
CHEMBL1085693

> <chembl_pref_name>
None

> <i_lp_mmshare_version>
53161

> <i_f3d_flags>
0

> <r_lp_tautomer_probability>
1

> <s_lp_Force_Field>
OPLS_2005

> <r_lp_Energy>
30.678929

> <b_lp_Chiralities_Consistent>
1

> <s_lp_Variant>
CHEMBL213_lig381-1

> <s_i_glide_gridfile>
glide-grid_2vt4

> <i_i_glide_lignum>
449

> <i_i_glide_rotatable_bonds>
10

> <r_i_docking_score>
-7.39953343027526

> <r_i_glide_ligand_efficiency>
-0.246651114342509

> <r_i_glide_ligand_efficiency_sa>
-0.76640235924589

> <r_i_glide_ligand_efficiency_ln>
-1.68125461973277

> <r_i_glide_gscore>
-7.39953343027526

> <r_i_glide_lipo>
-3.02465595200165

> <r_i_glide_hbond>
-0.621586226916122

> <r_i_glide_metal>
0

> <r_i_glide_rewards>
-1.12682509232177

> <r_i_glide_evdw>
-44.2365760803223

> <r_i_glide_ecoul>
-8.66886425018311

> <r_i_glide_erotb>
0.973588662702369

> <r_i_glide_esite>
-0.0878963801945119

> <r_i_glide_emodel>
-66.1953463020277

> <r_i_glide_energy>
-52.9054403305054

> <r_i_glide_einternal>
19.7122898101807

> <i_i_glide_confnum>
6

> <i_i_glide_posenum>
309

> <r_i_glide_eff_state_penalty>
0

> <s_user_duplicate_titles>
CHEMBL213_lig381

> <s_m_subgroup_title>
dock_pv

> <s_m_subgroupid>
dock_pv

> <b_m_subgroup_collapsed>
1

$$$$
CHEMBL213_lig732
                    3D
 Schrodinger Suite 2021-1.
 54 56  0  0  1  0            999 V2000
   26.4548    5.0500    2.1748 C   0  0  0  0  0  0
   25.2839    4.6500    2.8123 C   0  0  0  0  0  0
   25.0431    5.0500    4.1237 C   0  0  0  0  0  0
   25.9966    5.7963    4.8174 C   0  0  0  0  0  0
   27.2175    6.1363    4.2161 C   0  0  0  0  0  0
   27.4088    5.7889    2.8730 C   0  0  0  0  0  0
   28.3115    6.8722    5.0117 C   0  0  2  0  0  0
   29.7735    6.5037    4.6220 C   0  0  0  0  0  0
   28.2080    6.6500    6.4063 O   0  0  0  0  0  0
   26.7001    4.6500    0.5150 Cl  0  0  0  0  0  0
   30.3076    7.3774    3.5850 N   0  0  1  0  0  0
   31.7204    7.2187    3.2345 C   0  0  0  0  0  0
   32.1645    5.8841    2.5969 C   0  0  0  0  0  0
   31.7532    5.6228    1.1533 C   0  0  0  0  0  0
   30.5127    5.0499    0.8995 C   0  0  0  0  0  0
   30.1733    4.6502   -0.3885 C   0  0  0  0  0  0
   31.0592    4.8232   -1.4580 C   0  0  0  0  0  0
   32.2935    5.4452   -1.2051 C   0  0  0  0  0  0
   32.6443    5.8272    0.0937 C   0  0  0  0  0  0
   30.6810    4.2799   -2.8016 C   0  0  0  0  0  0
   29.3626    4.4314   -3.2550 C   0  0  0  0  0  0
   28.9141    3.8054   -4.4150 C   0  0  0  0  0  0
   29.7813    3.0094   -5.1753 C   0  0  0  0  0  0
   31.1217    2.9279   -4.7749 C   0  0  0  0  0  0
   31.5808    3.5480   -3.6010 C   0  0  0  0  0  0
   29.3059    2.2500   -6.3945 C   0  0  0  0  0  0
   30.0847    1.7302   -7.1933 O   0  0  0  0  0  0
   27.9516    2.1587   -6.5258 O   0  0  0  0  0  0
   32.8834    3.3854   -3.1750 O   0  0  0  0  0  0
   33.9126    3.5153   -4.1516 C   0  0  0  0  0  0
   24.5433    4.0737    2.2765 H   0  0  0  0  0  0
   24.1194    4.7707    4.6094 H   0  0  0  0  0  0
   25.7894    6.0751    5.8404 H   0  0  0  0  0  0
   28.3023    6.0926    2.3618 H   0  0  0  0  0  0
   28.1598    7.9450    4.8884 H   0  0  0  0  0  0
   29.8080    5.4540    4.3301 H   0  0  0  0  0  0
   30.4311    6.6501    5.4814 H   0  0  0  0  0  0
   27.5710    7.2861    6.7647 H   0  0  0  0  0  0
   29.7104    7.4920    2.7828 H   0  0  0  0  0  0
   32.3685    7.4891    4.0684 H   0  0  0  0  0  0
   31.9010    7.9802    2.4825 H   0  0  0  0  0  0
   31.8079    5.0503    3.1850 H   0  0  0  0  0  0
   33.2509    5.8139    2.6619 H   0  0  0  0  0  0
   29.8472    4.8242    1.7163 H   0  0  0  0  0  0
   29.2313    4.1456   -0.5440 H   0  0  0  0  0  0
   33.0047    5.5915   -2.0041 H   0  0  0  0  0  0
   33.6204    6.2505    0.2786 H   0  0  0  0  0  0
   28.6506    5.0027   -2.6762 H   0  0  0  0  0  0
   27.8748    3.9368   -4.6820 H   0  0  0  0  0  0
   31.8078    2.3305   -5.3556 H   0  0  0  0  0  0
   27.4840    2.4622   -5.7435 H   0  0  0  0  0  0
   34.8756    3.5958   -3.6472 H   0  0  0  0  0  0
   33.9630    2.6500   -4.8112 H   0  0  0  0  0  0
   33.7835    4.4138   -4.7582 H   0  0  0  0  0  0
  1 10  1  0  0  0
  1  6  1  0  0  0
  1  2  2  0  0  0
  2  3  1  0  0  0
  2 31  1  0  0  0
  3  4  2  0  0  0
  3 32  1  0  0  0
  4  5  1  0  0  0
  4 33  1  0  0  0
  5  6  2  0  0  0
  5  7  1  0  0  0
  6 34  1  0  0  0
  7  8  1  0  0  0
  7  9  1  0  0  0
  7 35  1  0  0  0
  8 11  1  0  0  0
  8 36  1  0  0  0
  8 37  1  0  0  0
  9 38  1  0  0  0
 11 12  1  0  0  0
 11 39  1  0  0  0
 12 13  1  0  0  0
 12 40  1  0  0  0
 12 41  1  0  0  0
 13 14  1  0  0  0
 13 42  1  0  0  0
 13 43  1  0  0  0
 14 15  2  0  0  0
 14 19  1  0  0  0
 15 16  1  0  0  0
 15 44  1  0  0  0
 16 17  2  0  0  0
 16 45  1  0  0  0
 17 18  1  0  0  0
 17 20  1  0  0  0
 18 19  2  0  0  0
 18 46  1  0  0  0
 19 47  1  0  0  0
 20 21  2  0  0  0
 20 25  1  0  0  0
 21 22  1  0  0  0
 21 48  1  0  0  0
 22 23  2  0  0  0
 22 49  1  0  0  0
 23 24  1  0  0  0
 23 26  1  0  0  0
 24 25  2  0  0  0
 24 50  1  0  0  0
 25 29  1  0  0  0
 26 27  2  0  0  0
 26 28  1  0  0  0
 28 51  1  0  0  0
 29 30  1  0  0  0
 30 52  1  0  0  0
 30 53  1  0  0  0
 30 54  1  0  0  0
M  END
> <s_m_entry_id>
3157

> <s_m_entry_name>
dock_pv.249

> <s_m_Source_Path>
/home/csk/Desktop/cluster/DUD-E-result/adrb1

> <s_m_Source_File>
dock_pv.maegz

> <i_m_Source_File_Index>
249

> <chembl_id>
CHEMBL270889

> <chembl_pref_name>
None

> <i_lp_mmshare_version>
53161

> <i_f3d_flags>
0

> <r_lp_tautomer_probability>
1

> <s_lp_Force_Field>
OPLS_2005

> <r_lp_Energy>
35.231319

> <b_lp_Chiralities_Consistent>
1

> <s_lp_Variant>
CHEMBL213_lig732-1

> <s_i_glide_gridfile>
glide-grid_2vt4

> <i_i_glide_lignum>
838

> <i_i_glide_rotatable_bonds>
11

> <r_i_docking_score>
-7.39703108566267

> <r_i_glide_ligand_efficiency>
-0.246567702855422

> <r_i_glide_ligand_efficiency_sa>
-0.766143180362139

> <r_i_glide_ligand_efficiency_ln>
-1.68068605977156

> <r_i_glide_gscore>
-7.39703108566267

> <r_i_glide_lipo>
-2.98812052979307

> <r_i_glide_hbond>
-0.429900833539694

> <r_i_glide_metal>
0

> <r_i_glide_rewards>
-1.50225382428929

> <r_i_glide_evdw>
-36.8225402832031

> <r_i_glide_ecoul>
-9.3420352935791

> <r_i_glide_erotb>
0.765676410156412

> <r_i_glide_esite>
0

> <r_i_glide_emodel>
-59.7982384637568

> <r_i_glide_energy>
-46.1645755767822

> <r_i_glide_einternal>
8.74467468261719

> <i_i_glide_confnum>
51

> <i_i_glide_posenum>
319

> <r_i_glide_eff_state_penalty>
0

> <s_user_duplicate_titles>
CHEMBL213_lig732,439398

> <s_m_subgroup_title>
dock_pv

> <s_m_subgroupid>
dock_pv

> <b_m_subgroup_collapsed>
1

$$$$
CHEMBL213_lig227
                    3D
 Schrodinger Suite 2021-1.
 56 57  0  0  1  0            999 V2000
   31.2989    4.4850   -3.1121 S   0  0  0  0  0  0
   30.4324    4.6211   -1.5839 N   0  0  0  0  0  0
   31.6724    5.8500   -3.4978 O   0  0  0  0  0  0
   32.3324    3.4635   -2.9153 O   0  0  0  0  0  0
   29.9603    3.8094   -4.2808 C   0  0  0  0  0  0
   31.0096    5.0500   -0.3847 C   0  0  0  0  0  0
   26.3710    5.7452    3.7219 O   0  0  0  0  0  0
   26.0250    4.9409    2.6540 C   0  0  0  0  0  0
   28.0046    7.1454    4.9377 C   0  0  1  0  0  0
   25.2354    3.2381    0.5887 C   0  0  0  0  0  0
   27.7565    6.0424    3.8884 C   0  0  0  0  0  0
   30.5026    6.8466    4.7850 N   0  0  2  0  0  0
   32.0256    5.8500    2.1038 C   0  0  0  0  0  0
   30.2080    5.0087    0.7480 C   0  0  0  0  0  0
   32.3472    5.4500   -0.2692 C   0  0  0  0  0  0
   25.0053    4.0104    2.8566 C   0  0  0  0  0  0
   26.6080    5.0500    1.3807 C   0  0  0  0  0  0
   24.6140    3.1501    1.8321 C   0  0  0  0  0  0
   26.2133    4.1983    0.3522 C   0  0  0  0  0  0
   30.7212    5.3723    1.9850 C   0  0  0  0  0  0
   32.8478    5.8500    0.9716 C   0  0  0  0  0  0
   27.8242    6.6407    6.2459 O   0  0  0  0  0  0
   24.8800    2.3812   -0.4150 O   0  0  0  0  0  0
   29.4008    7.8083    4.8018 C   0  0  0  0  0  0
   31.7279    7.3798    4.1991 C   0  0  0  0  0  0
   30.5301    3.7303   -5.7072 C   0  0  0  0  0  0
   28.6832    4.6682   -4.1969 C   0  0  0  0  0  0
   32.5695    6.3103    3.4630 C   0  0  0  0  0  0
   29.4866    4.2728   -1.5632 H   0  0  0  0  0  0
   29.7385    2.8038   -3.9205 H   0  0  0  0  0  0
   27.2494    7.9192    4.7924 H   0  0  0  0  0  0
   28.2930    5.1296    4.1543 H   0  0  0  0  0  0
   28.1842    6.4026    2.9566 H   0  0  0  0  0  0
   30.2694    5.9481    4.3850 H   0  0  0  0  0  0
   29.1950    4.6500    0.6761 H   0  0  0  0  0  0
   33.0013    5.4670   -1.1280 H   0  0  0  0  0  0
   24.5329    3.9444    3.8242 H   0  0  0  0  0  0
   27.3405    5.8079    1.1575 H   0  0  0  0  0  0
   23.8423    2.4138    2.0027 H   0  0  0  0  0  0
   26.6650    4.2788   -0.6264 H   0  0  0  0  0  0
   30.0975    5.2570    2.8485 H   0  0  0  0  0  0
   33.8727    6.1834    1.0413 H   0  0  0  0  0  0
   27.4081    7.3386    6.7763 H   0  0  0  0  0  0
   24.3078    2.8174   -1.0712 H   0  0  0  0  0  0
   29.4080    8.3499    3.8581 H   0  0  0  0  0  0
   29.5552    8.5512    5.5850 H   0  0  0  0  0  0
   31.4854    8.1547    3.4710 H   0  0  0  0  0  0
   32.3148    7.8490    4.9855 H   0  0  0  0  0  0
   29.8081    3.2988   -6.4009 H   0  0  0  0  0  0
   30.8044    4.7190   -6.0781 H   0  0  0  0  0  0
   31.4262    3.1091   -5.7379 H   0  0  0  0  0  0
   27.8884    4.2500   -4.8150 H   0  0  0  0  0  0
   28.2869    4.7106   -3.1826 H   0  0  0  0  0  0
   28.8659    5.6936   -4.5214 H   0  0  0  0  0  0
   33.5618    6.7353    3.3069 H   0  0  0  0  0  0
   32.7288    5.4500    4.1077 H   0  0  0  0  0  0
  1  2  1  0  0  0
  1  3  2  0  0  0
  1  4  2  0  0  0
  1  5  1  0  0  0
  2  6  1  0  0  0
  2 29  1  0  0  0
  5 26  1  0  0  0
  5 27  1  0  0  0
  5 30  1  0  0  0
  6 14  1  0  0  0
  6 15  2  0  0  0
  7 11  1  0  0  0
  7  8  1  0  0  0
  8 16  2  0  0  0
  8 17  1  0  0  0
  9 24  1  0  0  0
  9 11  1  0  0  0
  9 22  1  0  0  0
  9 31  1  0  0  0
 10 19  1  0  0  0
 10 23  1  0  0  0
 10 18  2  0  0  0
 11 32  1  0  0  0
 11 33  1  0  0  0
 12 25  1  0  0  0
 12 24  1  0  0  0
 12 34  1  0  0  0
 13 21  2  0  0  0
 13 28  1  0  0  0
 13 20  1  0  0  0
 14 20  2  0  0  0
 14 35  1  0  0  0
 15 21  1  0  0  0
 15 36  1  0  0  0
 16 18  1  0  0  0
 16 37  1  0  0  0
 17 19  2  0  0  0
 17 38  1  0  0  0
 18 39  1  0  0  0
 19 40  1  0  0  0
 20 41  1  0  0  0
 21 42  1  0  0  0
 22 43  1  0  0  0
 23 44  1  0  0  0
 24 45  1  0  0  0
 24 46  1  0  0  0
 25 28  1  0  0  0
 25 47  1  0  0  0
 25 48  1  0  0  0
 26 49  1  0  0  0
 26 50  1  0  0  0
 26 51  1  0  0  0
 27 52  1  0  0  0
 27 53  1  0  0  0
 27 54  1  0  0  0
 28 55  1  0  0  0
 28 56  1  0  0  0
M  END
> <s_m_entry_id>
3158

> <s_m_entry_name>
dock_pv.250

> <s_m_Source_Path>
/home/csk/Desktop/cluster/DUD-E-result/adrb1

> <s_m_Source_File>
dock_pv.maegz

> <i_m_Source_File_Index>
250

> <chembl_id>
CHEMBL13238

> <chembl_pref_name>
None

> <i_lp_mmshare_version>
53161

> <i_f3d_flags>
0

> <r_lp_tautomer_probability>
1

> <s_lp_Force_Field>
OPLS_2005

> <r_lp_Energy>
17.674984

> <b_lp_Chiralities_Consistent>
1

> <s_lp_Variant>
CHEMBL213_lig227-1

> <s_i_glide_gridfile>
glide-grid_2vt4

> <i_i_glide_lignum>
262

> <i_i_glide_rotatable_bonds>
13

> <r_i_docking_score>
-7.38485147665301

> <r_i_glide_ligand_efficiency>
-0.26374469559475

> <r_i_glide_ligand_efficiency_sa>
-0.800884233144153

> <r_i_glide_ligand_efficiency_ln>
-1.70464054947266

> <r_i_glide_gscore>
-7.38485147665301

> <r_i_glide_lipo>
-2.66298644743577

> <r_i_glide_hbond>
-0.469407911508426

> <r_i_glide_metal>
0

> <r_i_glide_rewards>
-1.24440670809506

> <r_i_glide_evdw>
-31.7707386016846

> <r_i_glide_ecoul>
-17.2957420349121

> <r_i_glide_erotb>
1.17939336340681

> <r_i_glide_esite>
-0.00454553769951962

> <r_i_glide_emodel>
-60.3060265421099

> <r_i_glide_energy>
-49.0664806365967

> <r_i_glide_einternal>
19.0590667724609

> <i_i_glide_confnum>
184

> <i_i_glide_posenum>
308

> <r_i_glide_eff_state_penalty>
0

> <s_user_duplicate_titles>
CHEMBL213_lig227,11291

> <s_m_subgroup_title>
dock_pv

> <s_m_subgroupid>
dock_pv

> <b_m_subgroup_collapsed>
1

$$$$
CHEMBL213_lig905
                    3D
 Schrodinger Suite 2021-1.
 53 56  0  0  1  0            999 V2000
   28.6915    5.1546   -3.6392 C   0  0  0  0  0  0
   29.2432    6.4051   -3.8995 C   0  0  0  0  0  0
   30.5781    6.6014   -4.0155 N   0  0  0  0  0  0
   31.4028    5.5433   -3.8334 C   0  0  0  0  0  0
   30.9471    4.2672   -3.4776 C   0  0  0  0  0  0
   29.5582    4.0840   -3.4350 C   0  0  0  0  0  0
   31.8836    3.1249   -3.0478 C   0  0  2  0  0  0
   33.4177    3.3071   -3.2913 C   0  0  0  0  0  0
   34.1093    4.4770   -2.7110 N   0  0  1  0  0  0
   31.4684    1.8776   -3.5843 O   0  0  0  0  0  0
   34.0721    4.6675   -1.2595 C   0  0  1  0  0  0
   35.2778    5.4764   -0.7322 C   0  0  0  0  0  0
   35.3154    5.5164    0.8167 C   0  0  0  0  0  0
   32.8095    5.4212   -0.7856 C   0  0  0  0  0  0
   32.7758    5.6989    0.7117 C   0  0  0  0  0  0
   33.9611    5.8497    1.4526 C   0  0  0  0  0  0
   33.8573    6.2527    2.7919 C   0  0  0  0  0  0
   32.6138    6.4399    3.4056 C   0  0  0  0  0  0
   31.4271    6.2075    2.7009 C   0  0  0  0  0  0
   31.5464    5.8500    1.3525 C   0  0  0  0  0  0
   30.0703    6.2494    3.3427 C   0  0  0  0  0  0
   29.0873    5.3611    2.8876 C   0  0  0  0  0  0
   27.8215    5.3309    3.4466 C   0  0  0  0  0  0
   27.4931    6.1682    4.5139 C   0  0  0  0  0  0
   28.4693    7.0589    4.9935 C   0  0  0  0  0  0
   29.7420    7.1024    4.4064 C   0  0  0  0  0  0
   26.0948    6.0720    5.0837 C   0  0  0  0  0  0
   25.8880    6.6499    6.2965 O   0  0  0  0  0  0
   25.2061    5.4500    4.5051 O   0  0  0  0  0  0
   28.2080    7.7698   -4.0150 Cl  0  0  0  0  0  0
   27.6206    5.0209   -3.5645 H   0  0  0  0  0  0
   32.4489    5.7743   -3.9418 H   0  0  0  0  0  0
   29.1408    3.1190   -3.2148 H   0  0  0  0  0  0
   31.7514    2.9972   -1.9751 H   0  0  0  0  0  0
   33.5872    3.3458   -4.3685 H   0  0  0  0  0  0
   33.9410    2.4144   -2.9445 H   0  0  0  0  0  0
   35.0629    4.5350   -3.0482 H   0  0  0  0  0  0
   30.5753    1.6976   -3.2740 H   0  0  0  0  0  0
   34.1116    3.6769   -0.8160 H   0  0  0  0  0  0
   35.2516    6.4924   -1.1311 H   0  0  0  0  0  0
   36.2088    5.0413   -1.0982 H   0  0  0  0  0  0
   36.0782    6.2183    1.1554 H   0  0  0  0  0  0
   35.6179    4.5332    1.1804 H   0  0  0  0  0  0
   31.8833    4.9637   -1.1130 H   0  0  0  0  0  0
   32.8156    6.3980   -1.2679 H   0  0  0  0  0  0
   34.7538    6.3902    3.3778 H   0  0  0  0  0  0
   32.5798    6.7160    4.4486 H   0  0  0  0  0  0
   30.6557    5.7079    0.7600 H   0  0  0  0  0  0
   29.3018    4.6560    2.0995 H   0  0  0  0  0  0
   27.1039    4.6285    3.0451 H   0  0  0  0  0  0
   28.2591    7.7381    5.8059 H   0  0  0  0  0  0
   30.4747    7.8040    4.7795 H   0  0  0  0  0  0
   26.5464    7.3009    6.5715 H   0  0  0  0  0  0
  1  6  1  0  0  0
  1  2  2  0  0  0
  1 31  1  0  0  0
  2  3  1  0  0  0
  2 30  1  0  0  0
  3  4  2  0  0  0
  4  5  1  0  0  0
  4 32  1  0  0  0
  5  7  1  0  0  0
  5  6  2  0  0  0
  6 33  1  0  0  0
  7  8  1  0  0  0
  7 10  1  0  0  0
  7 34  1  0  0  0
  8  9  1  0  0  0
  8 35  1  0  0  0
  8 36  1  0  0  0
  9 11  1  0  0  0
  9 37  1  0  0  0
 10 38  1  0  0  0
 11 12  1  0  0  0
 11 14  1  0  0  0
 11 39  1  0  0  0
 12 13  1  0  0  0
 12 40  1  0  0  0
 12 41  1  0  0  0
 13 16  1  0  0  0
 13 42  1  0  0  0
 13 43  1  0  0  0
 14 15  1  0  0  0
 14 44  1  0  0  0
 14 45  1  0  0  0
 15 16  2  0  0  0
 15 20  1  0  0  0
 16 17  1  0  0  0
 17 18  2  0  0  0
 17 46  1  0  0  0
 18 19  1  0  0  0
 18 47  1  0  0  0
 19 20  2  0  0  0
 19 21  1  0  0  0
 20 48  1  0  0  0
 21 22  2  0  0  0
 21 26  1  0  0  0
 22 23  1  0  0  0
 22 49  1  0  0  0
 23 24  2  0  0  0
 23 50  1  0  0  0
 24 25  1  0  0  0
 24 27  1  0  0  0
 25 26  2  0  0  0
 25 51  1  0  0  0
 26 52  1  0  0  0
 27 28  1  0  0  0
 27 29  2  0  0  0
 28 53  1  0  0  0
M  END
> <s_m_entry_id>
3159

> <s_m_entry_name>
dock_pv.251

> <s_m_Source_Path>
/home/csk/Desktop/cluster/DUD-E-result/adrb1

> <s_m_Source_File>
dock_pv.maegz

> <i_m_Source_File_Index>
251

> <chembl_id>
CHEMBL516002

> <chembl_pref_name>
None

> <i_lp_mmshare_version>
53161

> <i_f3d_flags>
0

> <r_lp_tautomer_probability>
1

> <s_lp_Force_Field>
OPLS_2005

> <r_lp_Energy>
25.491048

> <b_lp_Chiralities_Consistent>
1

> <s_lp_Variant>
CHEMBL213_lig905-1

> <s_i_glide_gridfile>
glide-grid_2vt4

> <i_i_glide_lignum>
1013

> <i_i_glide_rotatable_bonds>
8

> <r_i_docking_score>
-7.38390923895903

> <r_i_glide_ligand_efficiency>
-0.246130307965301

> <r_i_glide_ligand_efficiency_sa>
-0.764784092743157

> <r_i_glide_ligand_efficiency_ln>
-1.67770463322652

> <r_i_glide_gscore>
-7.38390923895903

> <r_i_glide_lipo>
-3.52124328913975

> <r_i_glide_hbond>
-0.0227348009621341

> <r_i_glide_metal>
0

> <r_i_glide_rewards>
-1.32123499003655

> <r_i_glide_evdw>
-38.7010154724121

> <r_i_glide_ecoul>
-7.58398866653442

> <r_i_glide_erotb>
0.553952914780172

> <r_i_glide_esite>
0

> <r_i_glide_emodel>
-68.3394254319632

> <r_i_glide_energy>
-46.2850041389465

> <r_i_glide_einternal>
7.07007837295532

> <i_i_glide_confnum>
27

> <i_i_glide_posenum>
312

> <r_i_glide_eff_state_penalty>
0

> <s_user_duplicate_titles>
CHEMBL213_lig905,512142

> <s_m_subgroup_title>
dock_pv

> <s_m_subgroupid>
dock_pv

> <b_m_subgroup_collapsed>
1

$$$$
CHEMBL213_lig505
                    3D
 Schrodinger Suite 2021-1.
 59 60  0  0  1  0            999 V2000
   24.3886    3.5918    0.9844 C   0  0  0  0  0  0
   25.4936    3.9940    0.2395 C   0  0  0  0  0  0
   26.5654    4.6468    0.8552 C   0  0  0  0  0  0
   26.5483    4.8859    2.2441 C   0  0  0  0  0  0
   25.4082    4.4975    2.9730 C   0  0  0  0  0  0
   24.3415    3.8499    2.3494 C   0  0  0  0  0  0
   27.6955    5.0502    0.0236 C   0  0  0  0  0  0
   28.5916    5.3688   -0.6363 N   0  0  0  0  0  0
   27.6349    5.5233    2.8173 O   0  0  0  0  0  0
   27.9468    5.3585    4.2061 C   0  0  0  0  0  0
   28.2049    6.7447    4.8336 C   0  0  2  0  0  0
   29.4882    7.4468    4.3190 C   0  0  0  0  0  0
   28.2082    6.6501    6.2514 O   0  0  0  0  0  0
   30.7005    6.6504    4.4337 N   0  0  2  0  0  0
   31.5729    7.0493    5.5263 C   0  0  0  0  0  0
   33.0076    6.5332    5.2824 C   0  0  0  0  0  0
   33.5697    6.9379    3.9914 N   0  0  0  0  0  0
   34.6195    6.3524    3.3989 C   0  0  0  0  0  0
   35.4077    5.6029    3.9812 O   0  0  0  0  0  0
   34.6809    6.6500    2.0929 N   0  0  0  0  0  0
   35.6302    6.0919    1.1271 C   0  0  0  0  0  0
   35.5769    4.5590    0.9457 C   0  0  0  0  0  0
   36.4939    4.0244   -0.1686 C   0  0  0  0  0  0
   36.2289    4.7154   -1.4325 N   0  0  1  0  0  0
   36.5066    6.1520   -1.3063 C   0  0  0  0  0  0
   35.6046    6.8087   -0.2411 C   0  0  0  0  0  0
   36.9822    4.0944   -2.5304 C   0  0  0  0  0  0
   36.3527    4.3853   -3.9053 C   0  0  0  0  0  0
   35.1707    3.7922   -4.0878 F   0  0  0  0  0  0
   23.5608    3.1024    0.4898 H   0  0  0  0  0  0
   25.4972    3.7998   -0.8241 H   0  0  0  0  0  0
   25.3036    4.7092    4.0225 H   0  0  0  0  0  0
   23.4729    3.5617    2.9222 H   0  0  0  0  0  0
   27.2006    4.8237    4.7867 H   0  0  0  0  0  0
   28.8341    4.7297    4.2793 H   0  0  0  0  0  0
   27.3547    7.3784    4.5754 H   0  0  0  0  0  0
   29.4078    7.6043    3.2462 H   0  0  0  0  0  0
   29.5942    8.4413    4.7556 H   0  0  0  0  0  0
   27.6987    7.3887    6.6108 H   0  0  0  0  0  0
   31.2097    6.5727    3.5630 H   0  0  0  0  0  0
   31.5771    8.1320    5.6310 H   0  0  0  0  0  0
   31.1806    6.6501    6.4609 H   0  0  0  0  0  0
   33.6689    6.8991    6.0673 H   0  0  0  0  0  0
   33.0118    5.4462    5.3847 H   0  0  0  0  0  0
   33.1556    7.7522    3.5610 H   0  0  0  0  0  0
   33.9228    7.1880    1.6902 H   0  0  0  0  0  0
   36.6326    6.2897    1.5173 H   0  0  0  0  0  0
   35.8343    4.0529    1.8752 H   0  0  0  0  0  0
   34.5629    4.2506    0.7014 H   0  0  0  0  0  0
   37.5515    4.1044    0.0933 H   0  0  0  0  0  0
   36.2887    2.9590   -0.2938 H   0  0  0  0  0  0
   37.5643    6.3129   -1.0893 H   0  0  0  0  0  0
   36.3161    6.6447   -2.2589 H   0  0  0  0  0  0
   34.5917    6.8310   -0.6442 H   0  0  0  0  0  0
   35.9084    7.8475   -0.1209 H   0  0  0  0  0  0
   38.0210    4.4280   -2.5092 H   0  0  0  0  0  0
   37.0083    3.0114   -2.4070 H   0  0  0  0  0  0
   36.2048    5.4498   -4.0777 H   0  0  0  0  0  0
   37.0056    4.0222   -4.6980 H   0  0  0  0  0  0
  1  6  1  0  0  0
  1  2  2  0  0  0
  1 30  1  0  0  0
  2  3  1  0  0  0
  2 31  1  0  0  0
  3  4  2  0  0  0
  3  7  1  0  0  0
  4  9  1  0  0  0
  4  5  1  0  0  0
  5  6  2  0  0  0
  5 32  1  0  0  0
  6 33  1  0  0  0
  7  8  3  0  0  0
  9 10  1  0  0  0
 10 11  1  0  0  0
 10 34  1  0  0  0
 10 35  1  0  0  0
 11 12  1  0  0  0
 11 13  1  0  0  0
 11 36  1  0  0  0
 12 14  1  0  0  0
 12 37  1  0  0  0
 12 38  1  0  0  0
 13 39  1  0  0  0
 14 15  1  0  0  0
 14 40  1  0  0  0
 15 16  1  0  0  0
 15 41  1  0  0  0
 15 42  1  0  0  0
 16 17  1  0  0  0
 16 43  1  0  0  0
 16 44  1  0  0  0
 17 18  1  0  0  0
 17 45  1  0  0  0
 18 19  2  0  0  0
 18 20  1  0  0  0
 20 21  1  0  0  0
 20 46  1  0  0  0
 21 22  1  0  0  0
 21 26  1  0  0  0
 21 47  1  0  0  0
 22 23  1  0  0  0
 22 48  1  0  0  0
 22 49  1  0  0  0
 23 24  1  0  0  0
 23 50  1  0  0  0
 23 51  1  0  0  0
 24 25  1  0  0  0
 24 27  1  0  0  0
 25 26  1  0  0  0
 25 52  1  0  0  0
 25 53  1  0  0  0
 26 54  1  0  0  0
 26 55  1  0  0  0
 27 28  1  0  0  0
 27 56  1  0  0  0
 27 57  1  0  0  0
 28 29  1  0  0  0
 28 58  1  0  0  0
 28 59  1  0  0  0
M  END
> <s_m_entry_id>
3160

> <s_m_entry_name>
dock_pv.252

> <s_m_Source_Path>
/home/csk/Desktop/cluster/DUD-E-result/adrb1

> <s_m_Source_File>
dock_pv.maegz

> <i_m_Source_File_Index>
252

> <chembl_id>
CHEMBL2011231

> <chembl_pref_name>
None

> <i_lp_mmshare_version>
53161

> <i_f3d_flags>
0

> <r_lp_tautomer_probability>
1

> <s_lp_Force_Field>
OPLS_2005

> <r_lp_Energy>
36.22108

> <b_lp_Chiralities_Consistent>
1

> <s_lp_Variant>
CHEMBL213_lig505-1

> <s_i_glide_gridfile>
glide-grid_2vt4

> <i_i_glide_lignum>
596

> <i_i_glide_rotatable_bonds>
14

> <r_i_docking_score>
-7.3813314941301

> <r_i_glide_ligand_efficiency>
-0.254528672211383

> <r_i_glide_ligand_efficiency_sa>
-0.781992721376775

> <r_i_glide_ligand_efficiency_ln>
-1.69013773773895

> <r_i_glide_gscore>
-7.3813314941301

> <r_i_glide_lipo>
-2.24532530865369

> <r_i_glide_hbond>
-1.13104061400854

> <r_i_glide_metal>
0

> <r_i_glide_rewards>
-1.36491271892494

> <r_i_glide_evdw>
-44.0515327453613

> <r_i_glide_ecoul>
-12.3947200775146

> <r_i_glide_erotb>
1.42173179635234

> <r_i_glide_esite>
0

> <r_i_glide_emodel>
-76.5845640214943

> <r_i_glide_energy>
-56.446252822876

> <r_i_glide_einternal>
12.0388565063477

> <i_i_glide_confnum>
314

> <i_i_glide_posenum>
174

> <r_i_glide_eff_state_penalty>
0

> <s_user_duplicate_titles>
CHEMBL213_lig505

> <s_m_subgroup_title>
dock_pv

> <s_m_subgroupid>
dock_pv

> <b_m_subgroup_collapsed>
1

$$$$
CHEMBL213_lig1476
                    3D
 Schrodinger Suite 2021-1.
 65 68  0  0  1  0            999 V2000
   31.8230    1.8706   -7.6150 C   0  0  0  0  0  0
   30.6014    1.7978   -6.9510 C   0  0  0  0  0  0
   30.2232    2.7919   -6.0337 C   0  0  0  0  0  0
   31.1096    3.8510   -5.7852 C   0  0  0  0  0  0
   32.3436    3.9279   -6.4479 C   0  0  0  0  0  0
   32.6871    2.9328   -7.3686 C   0  0  0  0  0  0
   29.7666    0.7494   -7.2150 O   0  0  0  0  0  0
   28.8787    2.7299   -5.2919 C   0  0  0  0  0  0
   27.8081    2.2501   -6.0973 O   0  0  0  0  0  0
   33.3166    5.0821   -6.1800 C   0  0  1  0  0  0
   34.6648    4.6013   -5.5864 C   0  0  0  0  0  0
   33.6065    5.8183   -7.3588 O   0  0  0  0  0  0
   34.5011    3.9266   -4.2991 N   0  0  2  0  0  0
   35.7842    3.4614   -3.7713 C   0  0  0  0  0  0
   36.6672    4.5813   -3.1692 C   0  0  0  0  0  0
   36.2349    5.0320   -1.7795 C   0  0  0  0  0  0
   35.0424    5.7327   -1.6007 C   0  0  0  0  0  0
   34.6263    6.0763   -0.3172 C   0  0  0  0  0  0
   35.3850    5.7026    0.7985 C   0  0  0  0  0  0
   36.6143    5.0754    0.6037 C   0  0  0  0  0  0
   37.0383    4.7421   -0.6775 C   0  0  0  0  0  0
   34.9986    5.9337    2.1302 N   0  0  0  0  0  0
   33.7642    6.1603    2.7626 C   0  0  0  0  0  0
   33.7819    6.4490    4.1277 C   0  0  0  0  0  0
   32.5899    6.6713    4.8134 C   0  0  0  0  0  0
   31.3659    6.6501    4.1425 C   0  0  0  0  0  0
   31.3539    6.3261    2.7842 C   0  0  0  0  0  0
   32.5348    6.0501    2.1091 C   0  0  0  0  0  0
   30.2317    6.9565    4.8742 O   0  0  0  0  0  0
   28.9445    6.5725    4.5374 C   0  0  0  0  0  0
   27.9203    7.3774    5.0221 C   0  0  0  0  0  0
   26.5833    7.0677    4.7848 C   0  0  0  0  0  0
   26.2654    5.9432    4.0310 C   0  0  0  0  0  0
   27.2752    5.1168    3.5474 C   0  0  0  0  0  0
   28.6080    5.4115    3.8252 C   0  0  0  0  0  0
   32.1061    1.1070   -8.3236 H   0  0  0  0  0  0
   30.8371    4.6218   -5.0776 H   0  0  0  0  0  0
   33.6297    2.9839   -7.8944 H   0  0  0  0  0  0
   28.9041    0.9912   -6.8433 H   0  0  0  0  0  0
   28.9934    2.0790   -4.4228 H   0  0  0  0  0  0
   28.6115    3.7189   -4.9167 H   0  0  0  0  0  0
   26.9648    2.3082   -5.6125 H   0  0  0  0  0  0
   32.8460    5.7972   -5.5014 H   0  0  0  0  0  0
   35.1489    3.9211   -6.2896 H   0  0  0  0  0  0
   35.3295    5.4500   -5.4631 H   0  0  0  0  0  0
   34.3494    6.4217   -7.1823 H   0  0  0  0  0  0
   33.8620    3.1492   -4.3940 H   0  0  0  0  0  0
   35.5360    2.7747   -2.9595 H   0  0  0  0  0  0
   36.3340    2.8480   -4.4870 H   0  0  0  0  0  0
   37.6931    4.2143   -3.1210 H   0  0  0  0  0  0
   36.7239    5.4500   -3.8200 H   0  0  0  0  0  0
   34.4379    6.0006   -2.4548 H   0  0  0  0  0  0
   33.7221    6.6493   -0.2198 H   0  0  0  0  0  0
   37.2392    4.8096    1.4412 H   0  0  0  0  0  0
   37.9888    4.2501   -0.8097 H   0  0  0  0  0  0
   35.7637    5.8547    2.7792 H   0  0  0  0  0  0
   34.7159    6.5079    4.6664 H   0  0  0  0  0  0
   32.6149    6.9033    5.8649 H   0  0  0  0  0  0
   30.4323    6.2502    2.2371 H   0  0  0  0  0  0
   32.4605    5.7419    1.0816 H   0  0  0  0  0  0
   28.1747    8.2582    5.5857 H   0  0  0  0  0  0
   25.8043    7.7063    5.1750 H   0  0  0  0  0  0
   25.2320    5.7069    3.8244 H   0  0  0  0  0  0
   27.0200    4.2501    2.9598 H   0  0  0  0  0  0
   29.3737    4.7282    3.4885 H   0  0  0  0  0  0
  1  2  2  0  0  0
  1  6  1  0  0  0
  1 36  1  0  0  0
  2  3  1  0  0  0
  2  7  1  0  0  0
  3  4  2  0  0  0
  3  8  1  0  0  0
  4  5  1  0  0  0
  4 37  1  0  0  0
  5  6  2  0  0  0
  5 10  1  0  0  0
  6 38  1  0  0  0
  7 39  1  0  0  0
  8  9  1  0  0  0
  8 40  1  0  0  0
  8 41  1  0  0  0
  9 42  1  0  0  0
 10 11  1  0  0  0
 10 12  1  0  0  0
 10 43  1  0  0  0
 11 13  1  0  0  0
 11 44  1  0  0  0
 11 45  1  0  0  0
 12 46  1  0  0  0
 13 14  1  0  0  0
 13 47  1  0  0  0
 14 15  1  0  0  0
 14 48  1  0  0  0
 14 49  1  0  0  0
 15 16  1  0  0  0
 15 50  1  0  0  0
 15 51  1  0  0  0
 16 17  2  0  0  0
 16 21  1  0  0  0
 17 18  1  0  0  0
 17 52  1  0  0  0
 18 19  2  0  0  0
 18 53  1  0  0  0
 19 20  1  0  0  0
 19 22  1  0  0  0
 20 21  2  0  0  0
 20 54  1  0  0  0
 21 55  1  0  0  0
 22 23  1  0  0  0
 22 56  1  0  0  0
 23 24  2  0  0  0
 23 28  1  0  0  0
 24 25  1  0  0  0
 24 57  1  0  0  0
 25 26  2  0  0  0
 25 58  1  0  0  0
 26 27  1  0  0  0
 26 29  1  0  0  0
 27 28  2  0  0  0
 27 59  1  0  0  0
 28 60  1  0  0  0
 29 30  1  0  0  0
 30 31  2  0  0  0
 30 35  1  0  0  0
 31 32  1  0  0  0
 31 61  1  0  0  0
 32 33  2  0  0  0
 32 62  1  0  0  0
 33 34  1  0  0  0
 33 63  1  0  0  0
 34 35  2  0  0  0
 34 64  1  0  0  0
 35 65  1  0  0  0
M  END
> <s_m_entry_id>
3161

> <s_m_entry_name>
dock_pv.253

> <s_m_Source_Path>
/home/csk/Desktop/cluster/DUD-E-result/adrb1

> <s_m_Source_File>
dock_pv.maegz

> <i_m_Source_File_Index>
253

> <chembl_id>
CHEMBL3290982

> <chembl_pref_name>
None

> <i_lp_mmshare_version>
53161

> <i_f3d_flags>
0

> <r_lp_tautomer_probability>
0.999999999997365

> <s_lp_Force_Field>
OPLS_2005

> <r_lp_Energy>
38.310572

> <b_lp_Chiralities_Consistent>
1

> <s_lp_Variant>
CHEMBL213_lig1476-2

> <s_i_glide_gridfile>
glide-grid_2vt4

> <i_i_glide_lignum>
1821

> <i_i_glide_rotatable_bonds>
14

> <r_i_docking_score>
-7.38018283254225

> <r_i_glide_ligand_efficiency>
-0.210862366644064

> <r_i_glide_ligand_efficiency_sa>
-0.689744782798606

> <r_i_glide_ligand_efficiency_ln>
-1.62011392607599

> <r_i_glide_gscore>
-7.38018283254225

> <r_i_glide_lipo>
-3.26253253910948

> <r_i_glide_hbond>
-0.381907525063708

> <r_i_glide_metal>
0

> <r_i_glide_rewards>
-0.575730681818181

> <r_i_glide_evdw>
-46.7187652587891

> <r_i_glide_ecoul>
-12.1857652664185

> <r_i_glide_erotb>
1.00379096635134

> <r_i_glide_esite>
0

> <r_i_glide_emodel>
-84.7436602488476

> <r_i_glide_energy>
-58.9045305252075

> <r_i_glide_einternal>
5.18158531188965

> <i_i_glide_confnum>
8

> <i_i_glide_posenum>
39

> <r_i_glide_eff_state_penalty>
0

> <s_user_duplicate_titles>
CHEMBL213_lig1476

> <s_m_subgroup_title>
dock_pv

> <s_m_subgroupid>
dock_pv

> <b_m_subgroup_collapsed>
1

$$$$
CHEMBL213_lig408
                    3D
 Schrodinger Suite 2021-1.
 75 80  0  0  1  0            999 V2000
   27.6060    5.6303    3.3508 C   0  0  0  0  0  0
   26.5492    5.4227    4.2403 C   0  0  0  0  0  0
   25.3898    4.7885    3.8094 C   0  0  0  0  0  0
   25.2902    4.3137    2.4995 C   0  0  0  0  0  0
   26.3133    4.5832    1.5923 C   0  0  0  0  0  0
   27.4559    5.2452    2.0174 C   0  0  0  0  0  0
   24.0574    3.5549    2.0397 C   0  0  0  0  0  0
   23.7559    3.8503    0.7795 F   0  0  0  0  0  0
   24.3013    2.2498    2.1205 F   0  0  0  0  0  0
   23.0081    3.8488    2.8026 F   0  0  0  0  0  0
   31.3675    5.0499   -1.2150 C   0  0  0  0  0  0
   30.1614    4.8859   -0.5431 C   0  0  0  0  0  0
   29.0114    4.5216   -1.2313 C   0  0  0  0  0  0
   29.0874    4.2514   -2.5892 C   0  0  0  0  0  0
   30.3128    4.3532   -3.2620 C   0  0  0  0  0  0
   31.4281    4.8473   -2.5819 C   0  0  0  0  0  0
   30.4637    3.8980   -4.7152 C   0  0  2  0  0  0
   29.2405    3.4491   -5.2658 O   0  0  0  0  0  0
   32.6684    2.6647   -4.1192 N   0  0  1  0  0  0
   31.4639    2.7196   -4.9519 C   0  0  2  0  0  0
   31.9609    2.6466   -6.4117 C   0  0  0  0  0  0
   33.4594    2.9461   -6.3689 C   0  0  0  0  0  0
   33.7460    3.2627   -4.8981 C   0  0  2  0  0  0
   35.1802    2.8969   -4.4332 C   0  0  0  0  0  0
   35.6463    3.7555   -3.2744 C   0  0  0  0  0  0
   35.4721    3.3749   -1.9445 C   0  0  0  0  0  0
   35.8074    4.2651   -0.9213 C   0  0  0  0  0  0
   36.2895    5.5456   -1.2360 C   0  0  0  0  0  0
   36.5671    5.8500   -2.5549 C   0  0  0  0  0  0
   36.2415    4.9687   -3.5707 C   0  0  0  0  0  0
   30.9581    1.7845   -4.7031 H   0  0  0  0  0  0
   36.6965    6.4034    1.4017 S   0  0  0  0  0  0
   37.2813    5.0749    1.5829 O   0  0  0  0  0  0
   37.3849    7.6114    1.8722 O   0  0  0  0  0  0
   35.0630    6.4117    2.1419 C   0  0  0  0  0  0
   34.8630    6.9989    3.3907 C   0  0  0  0  0  0
   33.5789    7.0502    3.9322 C   0  0  0  0  0  0
   32.4785    6.5286    3.2357 C   0  0  0  0  0  0
   32.7125    5.8881    2.0212 C   0  0  0  0  0  0
   33.9831    5.8504    1.4662 C   0  0  0  0  0  0
   31.0606    6.6337    3.7342 C   0  0  0  0  0  0
   30.0168    6.0563    3.1849 N   0  0  0  0  0  0
   28.8767    6.2502    3.8351 C   0  0  0  0  0  0
   29.0057    7.0445    4.9707 C   0  0  0  0  0  0
   30.6658    7.4500    5.1850 S   0  0  0  0  0  0
   36.4719    6.5988   -0.3268 N   0  0  0  0  0  0
   26.6237    5.7344    5.2706 H   0  0  0  0  0  0
   24.5804    4.6498    4.5111 H   0  0  0  0  0  0
   26.2263    4.2622    0.5644 H   0  0  0  0  0  0
   28.2311    5.4530    1.3057 H   0  0  0  0  0  0
   32.2500    5.3856   -0.6978 H   0  0  0  0  0  0
   30.1117    5.0518    0.5178 H   0  0  0  0  0  0
   28.0688    4.4008   -0.7242 H   0  0  0  0  0  0
   28.1895    3.9164   -3.0885 H   0  0  0  0  0  0
   32.3642    5.0156   -3.0906 H   0  0  0  0  0  0
   30.7773    4.7768   -5.2814 H   0  0  0  0  0  0
   28.9415    2.6902   -4.7573 H   0  0  0  0  0  0
   32.5338    3.0950   -3.2138 H   0  0  0  0  0  0
   31.7883    1.6486   -6.8155 H   0  0  0  0  0  0
   31.4352    3.3447   -7.0671 H   0  0  0  0  0  0
   34.0582    2.1263   -6.7635 H   0  0  0  0  0  0
   33.6465    3.8266   -6.9858 H   0  0  0  0  0  0
   33.6961    4.3531   -4.8333 H   0  0  0  0  0  0
   35.2904    1.8500   -4.1598 H   0  0  0  0  0  0
   35.8821    3.0421   -5.2578 H   0  0  0  0  0  0
   35.0543    2.4089   -1.7049 H   0  0  0  0  0  0
   35.6407    3.9534    0.0980 H   0  0  0  0  0  0
   37.0079    6.8010   -2.8156 H   0  0  0  0  0  0
   36.4239    5.2412   -4.5981 H   0  0  0  0  0  0
   35.6929    7.4306    3.9310 H   0  0  0  0  0  0
   33.4478    7.5129    4.8961 H   0  0  0  0  0  0
   31.8981    5.4413    1.4866 H   0  0  0  0  0  0
   34.0952    5.3935    0.5026 H   0  0  0  0  0  0
   28.2527    7.3703    5.6754 H   0  0  0  0  0  0
   36.6456    7.5184   -0.7004 H   0  0  0  0  0  0
  1  2  2  0  0  0
  1  6  1  0  0  0
  1 43  1  0  0  0
  2  3  1  0  0  0
  2 47  1  0  0  0
  3  4  2  0  0  0
  3 48  1  0  0  0
  4  5  1  0  0  0
  4  7  1  0  0  0
  5  6  2  0  0  0
  5 49  1  0  0  0
  6 50  1  0  0  0
  7 10  1  0  0  0
  7  8  1  0  0  0
  7  9  1  0  0  0
 11 12  2  0  0  0
 11 16  1  0  0  0
 11 51  1  0  0  0
 12 13  1  0  0  0
 12 52  1  0  0  0
 13 14  2  0  0  0
 13 53  1  0  0  0
 14 15  1  0  0  0
 14 54  1  0  0  0
 15 17  1  0  0  0
 15 16  2  0  0  0
 16 55  1  0  0  0
 17 18  1  0  0  0
 17 20  1  0  0  0
 17 56  1  0  0  0
 18 57  1  0  0  0
 19 23  1  0  0  0
 19 20  1  0  0  0
 19 58  1  0  0  0
 20 31  1  0  0  0
 20 21  1  0  0  0
 21 22  1  0  0  0
 21 59  1  0  0  0
 21 60  1  0  0  0
 22 23  1  0  0  0
 22 61  1  0  0  0
 22 62  1  0  0  0
 23 24  1  0  0  0
 23 63  1  0  0  0
 24 25  1  0  0  0
 24 64  1  0  0  0
 24 65  1  0  0  0
 25 26  2  0  0  0
 25 30  1  0  0  0
 26 27  1  0  0  0
 26 66  1  0  0  0
 27 28  2  0  0  0
 27 67  1  0  0  0
 28 29  1  0  0  0
 28 46  1  0  0  0
 29 30  2  0  0  0
 29 68  1  0  0  0
 30 69  1  0  0  0
 32 33  2  0  0  0
 32 34  2  0  0  0
 32 35  1  0  0  0
 32 46  1  0  0  0
 35 36  2  0  0  0
 35 40  1  0  0  0
 36 37  1  0  0  0
 36 70  1  0  0  0
 37 38  2  0  0  0
 37 71  1  0  0  0
 38 39  1  0  0  0
 38 41  1  0  0  0
 39 40  2  0  0  0
 39 72  1  0  0  0
 40 73  1  0  0  0
 41 42  2  0  0  0
 41 45  1  0  0  0
 42 43  1  0  0  0
 43 44  2  0  0  0
 44 45  1  0  0  0
 44 74  1  0  0  0
 46 75  1  0  0  0
M  END
> <s_m_entry_id>
3162

> <s_m_entry_name>
dock_pv.254

> <s_m_Source_Path>
/home/csk/Desktop/cluster/DUD-E-result/adrb1

> <s_m_Source_File>
dock_pv.maegz

> <i_m_Source_File_Index>
254

> <chembl_id>
CHEMBL1684582

> <chembl_pref_name>
None

> <i_lp_mmshare_version>
53161

> <i_f3d_flags>
0

> <r_lp_tautomer_probability>
1

> <s_lp_Force_Field>
OPLS_2005

> <r_lp_Energy>
48.700679

> <b_lp_Chiralities_Consistent>
1

> <s_lp_Variant>
CHEMBL213_lig408-2

> <s_i_glide_gridfile>
glide-grid_2vt4

> <i_i_glide_lignum>
481

> <i_i_glide_rotatable_bonds>
11

> <r_i_docking_score>
-7.37947819079014

> <r_i_glide_ligand_efficiency>
-0.163988404239781

> <r_i_glide_ligand_efficiency_sa>
-0.583289256314358

> <r_i_glide_ligand_efficiency_ln>
-1.53526031971152

> <r_i_glide_gscore>
-7.37947819079014

> <r_i_glide_lipo>
-3.7213186069827

> <r_i_glide_hbond>
0

> <r_i_glide_metal>
0

> <r_i_glide_rewards>
-0.975341536918029

> <r_i_glide_evdw>
-47.3440132141113

> <r_i_glide_ecoul>
-4.02551364898682

> <r_i_glide_erotb>
0.302011196900584

> <r_i_glide_esite>
-0.0138015357364138

> <r_i_glide_emodel>
-60.1308825718254

> <r_i_glide_energy>
-51.3695268630981

> <r_i_glide_einternal>
9.43676471710205

> <i_i_glide_confnum>
8

> <i_i_glide_posenum>
7

> <r_i_glide_eff_state_penalty>
0

> <s_user_duplicate_titles>
CHEMBL213_lig408

> <s_m_subgroup_title>
dock_pv

> <s_m_subgroupid>
dock_pv

> <b_m_subgroup_collapsed>
1

$$$$
CHEMBL213_lig388
                    3D
 Schrodinger Suite 2021-1.
 62 66  0  0  1  0            999 V2000
   36.0999    1.0109   -8.4288 C   0  0  0  0  0  0
   34.9503    0.6455   -9.1305 C   0  0  0  0  0  0
   33.8562    1.4438   -9.2151 N   0  0  0  0  0  0
   33.9017    2.6512   -8.6021 C   0  0  0  0  0  0
   35.0065    3.0969   -7.8641 C   0  0  0  0  0  0
   36.1204    2.2491   -7.7821 C   0  0  0  0  0  0
   35.0063    4.4357   -7.1187 C   0  0  2  0  0  0
   34.6589    4.2881   -5.6089 C   0  0  0  0  0  0
   34.2080    5.4463   -7.7209 O   0  0  0  0  0  0
   33.4907    3.4519   -5.2910 N   0  0  1  0  0  0
   32.2182    3.9311   -5.8306 C   0  0  0  0  0  0
   31.7170    5.2323   -5.1741 C   0  0  0  0  0  0
   30.8001    5.0488   -3.9703 C   0  0  0  0  0  0
   31.0805    4.0900   -2.9938 C   0  0  0  0  0  0
   30.1906    3.8870   -1.9432 C   0  0  0  0  0  0
   29.0245    4.6508   -1.8586 C   0  0  0  0  0  0
   28.7648    5.6412   -2.8154 C   0  0  0  0  0  0
   29.6561    5.8417   -3.8630 C   0  0  0  0  0  0
   28.1101    4.3188   -0.8442 N   0  0  0  0  0  0
   27.2316    5.1397   -0.2386 C   0  0  0  0  0  0
   27.1760    6.3589   -0.3898 O   0  0  0  0  0  0
   26.2458    4.4547    0.6664 C   0  0  0  0  0  0
   25.2699    3.6703    0.0541 C   0  0  0  0  0  0
   24.2081    3.1612    0.7852 C   0  0  0  0  0  0
   24.1231    3.3934    2.1508 C   0  0  0  0  0  0
   25.1247    4.1184    2.7890 C   0  0  0  0  0  0
   26.2085    4.6504    2.0699 C   0  0  0  0  0  0
   27.2963    5.3354    2.8521 C   0  0  0  0  0  0
   26.9793    6.1880    4.3601 S   0  0  0  0  0  0
   28.5454    5.3083    2.4772 N   0  0  0  0  0  0
   29.3444    6.0171    3.3065 C   0  0  0  0  0  0
   28.6927    6.5691    4.4392 C   0  0  0  0  0  0
   29.4080    7.2937    5.3955 C   0  0  0  0  0  0
   30.7798    7.4514    5.1849 C   0  0  0  0  0  0
   31.4155    6.9739    4.0443 C   0  0  0  0  0  0
   30.7102    6.2500    3.0902 C   0  0  0  0  0  0
   36.9533    0.3498   -8.3805 H   0  0  0  0  0  0
   34.8917   -0.3059   -9.6430 H   0  0  0  0  0  0
   33.0171    3.2619   -8.7024 H   0  0  0  0  0  0
   36.9968    2.5434   -7.2206 H   0  0  0  0  0  0
   36.0205    4.8339   -7.1861 H   0  0  0  0  0  0
   34.6030    5.2617   -5.1229 H   0  0  0  0  0  0
   35.5053    3.7989   -5.1281 H   0  0  0  0  0  0
   34.5412    6.2988   -7.3966 H   0  0  0  0  0  0
   33.6628    2.5079   -5.6054 H   0  0  0  0  0  0
   31.4802    3.1469   -5.6546 H   0  0  0  0  0  0
   32.2396    4.0321   -6.9120 H   0  0  0  0  0  0
   31.1824    5.7988   -5.9379 H   0  0  0  0  0  0
   32.5519    5.8500   -4.8786 H   0  0  0  0  0  0
   31.9680    3.4791   -3.0615 H   0  0  0  0  0  0
   30.3900    3.1120   -1.2162 H   0  0  0  0  0  0
   27.8603    6.2297   -2.7855 H   0  0  0  0  0  0
   29.4369    6.5952   -4.6050 H   0  0  0  0  0  0
   28.0894    3.3417   -0.5919 H   0  0  0  0  0  0
   25.2889    3.5011   -1.0146 H   0  0  0  0  0  0
   23.4296    2.6292    0.2626 H   0  0  0  0  0  0
   23.2868    3.0024    2.7143 H   0  0  0  0  0  0
   25.0513    4.2416    3.8582 H   0  0  0  0  0  0
   28.9138    7.7091    6.2621 H   0  0  0  0  0  0
   31.3790    7.9948    5.8991 H   0  0  0  0  0  0
   32.4722    7.1588    3.9093 H   0  0  0  0  0  0
   31.2077    5.8597    2.2145 H   0  0  0  0  0  0
  1  6  1  0  0  0
  1  2  2  0  0  0
  1 37  1  0  0  0
  2  3  1  0  0  0
  2 38  1  0  0  0
  3  4  2  0  0  0
  4  5  1  0  0  0
  4 39  1  0  0  0
  5  6  2  0  0  0
  5  7  1  0  0  0
  6 40  1  0  0  0
  7  9  1  0  0  0
  7  8  1  0  0  0
  7 41  1  0  0  0
  8 10  1  0  0  0
  8 42  1  0  0  0
  8 43  1  0  0  0
  9 44  1  0  0  0
 10 11  1  0  0  0
 10 45  1  0  0  0
 11 12  1  0  0  0
 11 46  1  0  0  0
 11 47  1  0  0  0
 12 13  1  0  0  0
 12 48  1  0  0  0
 12 49  1  0  0  0
 13 18  1  0  0  0
 13 14  2  0  0  0
 14 15  1  0  0  0
 14 50  1  0  0  0
 15 16  2  0  0  0
 15 51  1  0  0  0
 16 19  1  0  0  0
 16 17  1  0  0  0
 17 18  2  0  0  0
 17 52  1  0  0  0
 18 53  1  0  0  0
 19 20  1  0  0  0
 19 54  1  0  0  0
 20 21  2  0  0  0
 20 22  1  0  0  0
 22 23  2  0  0  0
 22 27  1  0  0  0
 23 24  1  0  0  0
 23 55  1  0  0  0
 24 25  2  0  0  0
 24 56  1  0  0  0
 25 26  1  0  0  0
 25 57  1  0  0  0
 26 27  2  0  0  0
 26 58  1  0  0  0
 27 28  1  0  0  0
 28 29  1  0  0  0
 28 30  2  0  0  0
 29 32  1  0  0  0
 30 31  1  0  0  0
 31 32  2  0  0  0
 31 36  1  0  0  0
 32 33  1  0  0  0
 33 34  2  0  0  0
 33 59  1  0  0  0
 34 35  1  0  0  0
 34 60  1  0  0  0
 35 36  2  0  0  0
 35 61  1  0  0  0
 36 62  1  0  0  0
M  END
> <s_m_entry_id>
3163

> <s_m_entry_name>
dock_pv.255

> <s_m_Source_Path>
/home/csk/Desktop/cluster/DUD-E-result/adrb1

> <s_m_Source_File>
dock_pv.maegz

> <i_m_Source_File_Index>
255

> <chembl_id>
CHEMBL1083831

> <chembl_pref_name>
None

> <i_lp_mmshare_version>
53161

> <i_f3d_flags>
0

> <r_lp_tautomer_probability>
1

> <s_lp_Force_Field>
OPLS_2005

> <r_lp_Energy>
43.548944

> <b_lp_Chiralities_Consistent>
1

> <s_lp_Variant>
CHEMBL213_lig388-1

> <s_i_glide_gridfile>
glide-grid_2vt4

> <i_i_glide_lignum>
456

> <i_i_glide_rotatable_bonds>
11

> <r_i_docking_score>
-7.37386318647191

> <r_i_glide_ligand_efficiency>
-0.204829532957553

> <r_i_glide_ligand_efficiency_sa>
-0.676332215443021

> <r_i_glide_ligand_efficiency_ln>
-1.60877772852744

> <r_i_glide_gscore>
-7.37386318647191

> <r_i_glide_lipo>
-3.29707660812532

> <r_i_glide_hbond>
-0.192134840110589

> <r_i_glide_metal>
0

> <r_i_glide_rewards>
-1.01166789701407

> <r_i_glide_evdw>
-53.5663070678711

> <r_i_glide_ecoul>
-6.0229115486145

> <r_i_glide_erotb>
0.749749461278091

> <r_i_glide_esite>
-0.0409812168142848

> <r_i_glide_emodel>
-80.2994684061239

> <r_i_glide_energy>
-59.5892186164856

> <r_i_glide_einternal>
8.41997146606445

> <i_i_glide_confnum>
9

> <i_i_glide_posenum>
136

> <r_i_glide_eff_state_penalty>
0

> <s_user_duplicate_titles>
CHEMBL213_lig388

> <s_m_subgroup_title>
dock_pv

> <s_m_subgroupid>
dock_pv

> <b_m_subgroup_collapsed>
1

$$$$
CHEMBL213_lig683
                    3D
 Schrodinger Suite 2021-1.
 68 71  0  0  1  0            999 V2000
   27.2985    5.3847    4.1914 C   0  0  0  0  0  0
   28.5044    5.5611    3.5084 C   0  0  0  0  0  0
   28.5730    5.3350    2.1278 C   0  0  0  0  0  0
   27.4313    4.9448    1.4039 C   0  0  0  0  0  0
   26.1952    4.9460    3.4638 C   0  0  0  0  0  0
   26.2624    4.7030    2.1197 C   0  0  0  0  0  0
   25.0242    4.2236    1.7408 N   0  0  0  0  0  0
   24.1843    4.1938    2.8015 C   0  0  0  0  0  0
   24.9136    4.6499    3.8364 N   0  0  0  0  0  0
   23.0084    3.8499    2.8430 O   0  0  0  0  0  0
   27.3761    4.7183    0.0449 O   0  0  0  0  0  0
   24.6062    3.8098    0.4022 C   0  0  0  0  0  0
   28.4830    5.0653   -0.7800 C   0  0  0  0  0  0
   28.0681    4.8594   -2.2544 C   0  0  2  0  0  0
   29.2409    4.9241   -3.2589 C   0  0  0  0  0  0
   27.1189    5.8502   -2.6186 O   0  0  0  0  0  0
   30.1852    3.8294   -3.0070 N   0  0  2  0  0  0
   31.2341    3.5730   -4.0007 C   0  0  0  0  0  0
   32.1763    4.7946   -4.2204 C   0  0  0  0  0  0
   32.0389    2.3843   -3.4458 C   0  0  0  0  0  0
   30.5802    3.1528   -5.3382 C   0  0  0  0  0  0
   33.1785    5.0990   -3.1025 C   0  0  0  0  0  0
   32.7321    5.4510   -1.8297 C   0  0  0  0  0  0
   33.6434    5.8572   -0.8589 C   0  0  0  0  0  0
   35.0175    5.8827   -1.1376 C   0  0  0  0  0  0
   35.4614    5.4634   -2.3916 C   0  0  0  0  0  0
   34.5500    5.0744   -3.3711 C   0  0  0  0  0  0
   35.9711    6.3778   -0.2628 O   0  0  0  0  0  0
   35.8048    6.4147    1.1081 C   0  0  0  0  0  0
   35.0878    5.4498    1.8212 C   0  0  0  0  0  0
   35.0069    5.5485    3.2077 C   0  0  0  0  0  0
   35.6682    6.5924    3.8749 C   0  0  0  0  0  0
   36.4025    7.4937    3.0897 C   0  0  0  0  0  0
   36.4812    7.4129    1.7353 N   0  0  0  0  0  0
   35.6150    6.7391    5.3741 C   0  0  0  0  0  0
   36.4586    7.3857    5.9932 O   0  0  0  0  0  0
   34.6051    6.1366    6.0012 N   0  0  0  0  0  0
   27.2415    5.5612    5.2551 H   0  0  0  0  0  0
   29.3917    5.8680    4.0417 H   0  0  0  0  0  0
   29.5247    5.4501    1.6317 H   0  0  0  0  0  0
   24.5378    4.7706    4.7638 H   0  0  0  0  0  0
   23.5756    3.4475    0.3822 H   0  0  0  0  0  0
   24.6864    4.6463   -0.2949 H   0  0  0  0  0  0
   25.2500    3.0086    0.0384 H   0  0  0  0  0  0
   29.3256    4.4201   -0.5267 H   0  0  0  0  0  0
   28.8023    6.0962   -0.6178 H   0  0  0  0  0  0
   27.5692    3.8931   -2.3561 H   0  0  0  0  0  0
   29.7475    5.8862   -3.1765 H   0  0  0  0  0  0
   28.8288    4.8424   -4.2646 H   0  0  0  0  0  0
   26.2824    5.3998   -2.8159 H   0  0  0  0  0  0
   29.6724    2.9712   -2.8152 H   0  0  0  0  0  0
   31.6024    5.7007   -4.4194 H   0  0  0  0  0  0
   32.7413    4.6333   -5.1410 H   0  0  0  0  0  0
   32.9596    2.2496   -4.0132 H   0  0  0  0  0  0
   32.3422    2.5715   -2.4149 H   0  0  0  0  0  0
   31.4721    1.4515   -3.4531 H   0  0  0  0  0  0
   31.3220    2.7598   -6.0347 H   0  0  0  0  0  0
   29.8357    2.3697   -5.1955 H   0  0  0  0  0  0
   30.0788    3.9855   -5.8321 H   0  0  0  0  0  0
   31.6762    5.4745   -1.6082 H   0  0  0  0  0  0
   33.2659    6.2313    0.0821 H   0  0  0  0  0  0
   36.5170    5.4853   -2.6214 H   0  0  0  0  0  0
   34.9176    4.8022   -4.3488 H   0  0  0  0  0  0
   34.6071    4.6333    1.3091 H   0  0  0  0  0  0
   34.4433    4.7980    3.7409 H   0  0  0  0  0  0
   36.9447    8.3151    3.5392 H   0  0  0  0  0  0
   34.5561    6.1799    7.0069 H   0  0  0  0  0  0
   33.8709    5.6736    5.4861 H   0  0  0  0  0  0
  1  2  1  0  0  0
  1  5  2  0  0  0
  1 38  1  0  0  0
  2  3  2  0  0  0
  2 39  1  0  0  0
  3  4  1  0  0  0
  3 40  1  0  0  0
  4  6  2  0  0  0
  4 11  1  0  0  0
  5  9  1  0  0  0
  5  6  1  0  0  0
  6  7  1  0  0  0
  7 12  1  0  0  0
  7  8  1  0  0  0
  8  9  1  0  0  0
  8 10  2  0  0  0
  9 41  1  0  0  0
 11 13  1  0  0  0
 12 42  1  0  0  0
 12 43  1  0  0  0
 12 44  1  0  0  0
 13 14  1  0  0  0
 13 45  1  0  0  0
 13 46  1  0  0  0
 14 15  1  0  0  0
 14 16  1  0  0  0
 14 47  1  0  0  0
 15 17  1  0  0  0
 15 48  1  0  0  0
 15 49  1  0  0  0
 16 50  1  0  0  0
 17 18  1  0  0  0
 17 51  1  0  0  0
 18 19  1  0  0  0
 18 20  1  0  0  0
 18 21  1  0  0  0
 19 22  1  0  0  0
 19 52  1  0  0  0
 19 53  1  0  0  0
 20 54  1  0  0  0
 20 55  1  0  0  0
 20 56  1  0  0  0
 21 57  1  0  0  0
 21 58  1  0  0  0
 21 59  1  0  0  0
 22 23  2  0  0  0
 22 27  1  0  0  0
 23 24  1  0  0  0
 23 60  1  0  0  0
 24 25  2  0  0  0
 24 61  1  0  0  0
 25 26  1  0  0  0
 25 28  1  0  0  0
 26 27  2  0  0  0
 26 62  1  0  0  0
 27 63  1  0  0  0
 28 29  1  0  0  0
 29 30  2  0  0  0
 29 34  1  0  0  0
 30 31  1  0  0  0
 30 64  1  0  0  0
 31 32  2  0  0  0
 31 65  1  0  0  0
 32 33  1  0  0  0
 32 35  1  0  0  0
 33 34  2  0  0  0
 33 66  1  0  0  0
 35 36  2  0  0  0
 35 37  1  0  0  0
 37 67  1  0  0  0
 37 68  1  0  0  0
M  END
> <s_m_entry_id>
3164

> <s_m_entry_name>
dock_pv.256

> <s_m_Source_Path>
/home/csk/Desktop/cluster/DUD-E-result/adrb1

> <s_m_Source_File>
dock_pv.maegz

> <i_m_Source_File_Index>
256

> <chembl_id>
CHEMBL386016

> <chembl_pref_name>
None

> <i_lp_mmshare_version>
53161

> <i_f3d_flags>
0

> <r_lp_tautomer_probability>
1

> <s_lp_Force_Field>
OPLS_2005

> <r_lp_Energy>
59.638135

> <b_lp_Chiralities_Consistent>
1

> <s_lp_Variant>
CHEMBL213_lig683-1

> <s_i_glide_gridfile>
glide-grid_2vt4

> <i_i_glide_lignum>
785

> <i_i_glide_rotatable_bonds>
12

> <r_i_docking_score>
-7.36841714650933

> <r_i_glide_ligand_efficiency>
-0.199146409365117

> <r_i_glide_ligand_efficiency_sa>
-0.663600016164538

> <r_i_glide_ligand_efficiency_ln>
-1.59803693887141

> <r_i_glide_gscore>
-7.36841714650933

> <r_i_glide_lipo>
-2.64045320447696

> <r_i_glide_hbond>
-0.288228417266259

> <r_i_glide_metal>
0

> <r_i_glide_rewards>
-1.30976179442604

> <r_i_glide_evdw>
-55.043514251709

> <r_i_glide_ecoul>
-7.853675365448

> <r_i_glide_erotb>
0.80025328706258

> <r_i_glide_esite>
0

> <r_i_glide_emodel>
-82.2617777067598

> <r_i_glide_energy>
-62.897189617157

> <r_i_glide_einternal>
12.5718822479248

> <i_i_glide_confnum>
53

> <i_i_glide_posenum>
331

> <r_i_glide_eff_state_penalty>
0

> <s_user_duplicate_titles>
CHEMBL213_lig683

> <s_m_subgroup_title>
dock_pv

> <s_m_subgroupid>
dock_pv

> <b_m_subgroup_collapsed>
1

$$$$
CHEMBL213_lig1476
                    3D
 Schrodinger Suite 2021-1.
 65 68  0  0  1  0            999 V2000
   26.2473    5.6403    4.4665 C   0  0  0  0  0  0
   26.0464    4.9891    3.2517 C   0  0  0  0  0  0
   27.0753    4.9324    2.3032 C   0  0  0  0  0  0
   28.3154    5.5077    2.6149 C   0  0  0  0  0  0
   28.5105    6.2329    3.8044 C   0  0  0  0  0  0
   27.4619    6.2686    4.7373 C   0  0  0  0  0  0
   24.8311    4.4125    2.9942 O   0  0  0  0  0  0
   26.8638    4.2484    0.9487 C   0  0  0  0  0  0
   25.8081    4.8020    0.1918 O   0  0  0  0  0  0
   29.7950    7.0700    3.9960 C   0  0  2  0  0  0
   31.1082    6.2599    3.9517 C   0  0  0  0  0  0
   29.8053    7.8384    5.1853 O   0  0  0  0  0  0
   32.2656    7.0509    3.5448 N   0  0  2  0  0  0
   33.5116    6.3528    3.8492 C   0  0  0  0  0  0
   34.7043    6.9271    3.0484 C   0  0  0  0  0  0
   34.8371    6.4954    1.5831 C   0  0  0  0  0  0
   33.8049    5.8395    0.9031 C   0  0  0  0  0  0
   33.9557    5.4701   -0.4307 C   0  0  0  0  0  0
   35.1361    5.7712   -1.1145 C   0  0  0  0  0  0
   36.1674    6.4287   -0.4402 C   0  0  0  0  0  0
   36.0195    6.7886    0.8985 C   0  0  0  0  0  0
   35.3642    5.3946   -2.4485 N   0  0  0  0  0  0
   34.5525    4.7891   -3.4216 C   0  0  0  0  0  0
   35.1652    3.9405   -4.3427 C   0  0  0  0  0  0
   34.4068    3.3108   -5.3270 C   0  0  0  0  0  0
   33.0333    3.5366   -5.4230 C   0  0  0  0  0  0
   32.4355    4.4564   -4.5504 C   0  0  0  0  0  0
   33.1843    5.0514   -3.5355 C   0  0  0  0  0  0
   32.3606    2.8800   -6.4400 O   0  0  0  0  0  0
   31.0227    2.5227   -6.4021 C   0  0  0  0  0  0
   30.2633    2.4002   -5.2288 C   0  0  0  0  0  0
   28.8969    2.1495   -5.3083 C   0  0  0  0  0  0
   28.2960    1.9769   -6.5491 C   0  0  0  0  0  0
   29.0538    1.9931   -7.7130 C   0  0  0  0  0  0
   30.4203    2.2508   -7.6325 C   0  0  0  0  0  0
   25.4451    5.6882    5.1886 H   0  0  0  0  0  0
   29.1124    5.4506    1.8870 H   0  0  0  0  0  0
   27.5598    6.8091    5.6680 H   0  0  0  0  0  0
   24.7394    4.2511    2.0489 H   0  0  0  0  0  0
   27.7750    4.2724    0.3479 H   0  0  0  0  0  0
   26.6084    3.2024    1.1228 H   0  0  0  0  0  0
   25.8009    4.4129   -0.6905 H   0  0  0  0  0  0
   29.8087    7.7910    3.1849 H   0  0  0  0  0  0
   31.2859    5.8506    4.9434 H   0  0  0  0  0  0
   31.0182    5.4498    3.2265 H   0  0  0  0  0  0
   29.1354    8.5218    5.1118 H   0  0  0  0  0  0
   32.2403    7.9638    3.9968 H   0  0  0  0  0  0
   33.7205    6.3717    4.9196 H   0  0  0  0  0  0
   33.4030    5.2978    3.5925 H   0  0  0  0  0  0
   34.6938    8.0169    3.0947 H   0  0  0  0  0  0
   35.6173    6.6172    3.5572 H   0  0  0  0  0  0
   32.8740    5.6034    1.3948 H   0  0  0  0  0  0
   33.1553    4.9262   -0.9054 H   0  0  0  0  0  0
   37.0908    6.6605   -0.9519 H   0  0  0  0  0  0
   36.8273    7.3001    1.4018 H   0  0  0  0  0  0
   36.3351    5.4605   -2.7222 H   0  0  0  0  0  0
   36.2279    3.7513   -4.2894 H   0  0  0  0  0  0
   34.8885    2.6401   -6.0226 H   0  0  0  0  0  0
   31.3916    4.7152   -4.6507 H   0  0  0  0  0  0
   32.7042    5.7566   -2.8765 H   0  0  0  0  0  0
   30.7088    2.5284   -4.2546 H   0  0  0  0  0  0
   28.2928    2.1145   -4.4166 H   0  0  0  0  0  0
   27.2268    1.8507   -6.6034 H   0  0  0  0  0  0
   28.5742    1.8483   -8.6719 H   0  0  0  0  0  0
   31.0067    2.3029   -8.5377 H   0  0  0  0  0  0
  1  2  2  0  0  0
  1  6  1  0  0  0
  1 36  1  0  0  0
  2  3  1  0  0  0
  2  7  1  0  0  0
  3  4  2  0  0  0
  3  8  1  0  0  0
  4  5  1  0  0  0
  4 37  1  0  0  0
  5  6  2  0  0  0
  5 10  1  0  0  0
  6 38  1  0  0  0
  7 39  1  0  0  0
  8  9  1  0  0  0
  8 40  1  0  0  0
  8 41  1  0  0  0
  9 42  1  0  0  0
 10 11  1  0  0  0
 10 12  1  0  0  0
 10 43  1  0  0  0
 11 13  1  0  0  0
 11 44  1  0  0  0
 11 45  1  0  0  0
 12 46  1  0  0  0
 13 14  1  0  0  0
 13 47  1  0  0  0
 14 15  1  0  0  0
 14 48  1  0  0  0
 14 49  1  0  0  0
 15 16  1  0  0  0
 15 50  1  0  0  0
 15 51  1  0  0  0
 16 17  2  0  0  0
 16 21  1  0  0  0
 17 18  1  0  0  0
 17 52  1  0  0  0
 18 19  2  0  0  0
 18 53  1  0  0  0
 19 20  1  0  0  0
 19 22  1  0  0  0
 20 21  2  0  0  0
 20 54  1  0  0  0
 21 55  1  0  0  0
 22 23  1  0  0  0
 22 56  1  0  0  0
 23 24  2  0  0  0
 23 28  1  0  0  0
 24 25  1  0  0  0
 24 57  1  0  0  0
 25 26  2  0  0  0
 25 58  1  0  0  0
 26 27  1  0  0  0
 26 29  1  0  0  0
 27 28  2  0  0  0
 27 59  1  0  0  0
 28 60  1  0  0  0
 29 30  1  0  0  0
 30 31  2  0  0  0
 30 35  1  0  0  0
 31 32  1  0  0  0
 31 61  1  0  0  0
 32 33  2  0  0  0
 32 62  1  0  0  0
 33 34  1  0  0  0
 33 63  1  0  0  0
 34 35  2  0  0  0
 34 64  1  0  0  0
 35 65  1  0  0  0
M  END
> <s_m_entry_id>
3165

> <s_m_entry_name>
dock_pv.257

> <s_m_Source_Path>
/home/csk/Desktop/cluster/DUD-E-result/adrb1

> <s_m_Source_File>
dock_pv.maegz

> <i_m_Source_File_Index>
257

> <chembl_id>
CHEMBL3290982

> <chembl_pref_name>
None

> <i_lp_mmshare_version>
53161

> <i_f3d_flags>
0

> <r_lp_tautomer_probability>
0.999999999997365

> <s_lp_Force_Field>
OPLS_2005

> <r_lp_Energy>
38.731535

> <b_lp_Chiralities_Consistent>
1

> <s_lp_Variant>
CHEMBL213_lig1476-1

> <s_i_glide_gridfile>
glide-grid_2vt4

> <i_i_glide_lignum>
1820

> <i_i_glide_rotatable_bonds>
14

> <r_i_docking_score>
-7.36837736903392

> <r_i_glide_ligand_efficiency>
-0.210525067686683

> <r_i_glide_ligand_efficiency_sa>
-0.688641455543962

> <r_i_glide_ligand_efficiency_ln>
-1.61752236482776

> <r_i_glide_gscore>
-7.36837736903392

> <r_i_glide_lipo>
-3.86720252061885

> <r_i_glide_hbond>
-0.31472812345035

> <r_i_glide_metal>
0

> <r_i_glide_rewards>
-0.980901016715181

> <r_i_glide_evdw>
-50.2101860046387

> <r_i_glide_ecoul>
-4.61236000061035

> <r_i_glide_erotb>
1.00379096635134

> <r_i_glide_esite>
-0.00697337427738843

> <r_i_glide_emodel>
-63.6977542158393

> <r_i_glide_energy>
-54.822546005249

> <r_i_glide_einternal>
22.4622478485107

> <i_i_glide_confnum>
103

> <i_i_glide_posenum>
346

> <r_i_glide_eff_state_penalty>
0

> <s_user_duplicate_titles>
CHEMBL213_lig1476

> <s_m_subgroup_title>
dock_pv

> <s_m_subgroupid>
dock_pv

> <b_m_subgroup_collapsed>
1

$$$$
CHEMBL213_lig887
                    3D
 Schrodinger Suite 2021-1.
 58 61  0  0  1  0            999 V2000
   34.0940    4.9086   -2.6604 C   0  0  0  0  0  0
   34.7923    5.0500   -3.8564 C   0  0  0  0  0  0
   34.4823    4.2383   -4.9450 C   0  0  0  0  0  0
   33.4830    3.2717   -4.8310 C   0  0  0  0  0  0
   32.7787    3.1027   -3.6296 C   0  0  0  0  0  0
   33.0973    3.9408   -2.5497 C   0  0  0  0  0  0
   34.4582    5.9295   -1.3184 Cl  0  0  0  0  0  0
   31.6784    2.0253   -3.5073 C   0  0  2  0  0  0
   30.6065    2.0055   -4.6457 C   0  0  0  0  0  0
   31.0080    2.0343   -2.2592 O   0  0  0  0  0  0
   30.2539    3.2942   -5.2486 N   0  0  1  0  0  0
   29.8162    4.3355   -4.3221 C   0  0  2  0  0  0
   28.3047    4.2264   -3.9971 C   0  0  0  0  0  0
   30.2899    5.6639   -4.9379 C   0  0  0  0  0  0
   30.0979    6.8574   -4.0058 C   0  0  0  0  0  0
   28.6375    7.1930   -3.6737 C   0  0  0  0  0  0
   27.8448    4.9524   -2.7318 C   0  0  0  0  0  0
   28.0164    6.3390   -2.5802 C   0  0  0  0  0  0
   27.6174    6.9359   -1.3860 C   0  0  0  0  0  0
   26.9969    6.2248   -0.3759 C   0  0  0  0  0  0
   26.8276    4.8492   -0.5083 C   0  0  0  0  0  0
   27.2406    4.2499   -1.6845 C   0  0  0  0  0  0
   26.2563    4.0390    0.4481 O   0  0  0  0  0  0
   26.1971    4.4330    1.7605 C   0  0  0  0  0  0
   27.2805    5.0415    2.4043 C   0  0  0  0  0  0
   27.1396    5.5104    3.6997 C   0  0  0  0  0  0
   25.9196    5.3559    4.3677 C   0  0  0  0  0  0
   24.8729    4.6545    3.7510 C   0  0  0  0  0  0
   25.0127    4.1964    2.4490 C   0  0  0  0  0  0
   25.7182    5.9786    5.7195 C   0  0  0  0  0  0
   26.8700    6.2500    6.3850 O   0  0  0  0  0  0
   24.6082    6.2177    6.1854 O   0  0  0  0  0  0
   35.5707    5.7945   -3.9459 H   0  0  0  0  0  0
   35.0210    4.3618   -5.8738 H   0  0  0  0  0  0
   33.2614    2.6502   -5.6858 H   0  0  0  0  0  0
   32.5681    3.8502   -1.6149 H   0  0  0  0  0  0
   32.1828    1.0577   -3.5091 H   0  0  0  0  0  0
   29.7048    1.4739   -4.3378 H   0  0  0  0  0  0
   31.0001    1.4000   -5.4626 H   0  0  0  0  0  0
   30.0666    1.8502   -2.3967 H   0  0  0  0  0  0
   31.0252    3.6460   -5.7989 H   0  0  0  0  0  0
   30.3587    4.2320   -3.3838 H   0  0  0  0  0  0
   28.0364    3.1741   -3.9018 H   0  0  0  0  0  0
   27.6831    4.5768   -4.8150 H   0  0  0  0  0  0
   29.8079    5.8509   -5.8964 H   0  0  0  0  0  0
   31.3599    5.6079   -5.1502 H   0  0  0  0  0  0
   30.5750    7.7434   -4.4150 H   0  0  0  0  0  0
   30.6446    6.6499   -3.0854 H   0  0  0  0  0  0
   27.9962    7.1514   -4.5501 H   0  0  0  0  0  0
   28.5892    8.2409   -3.3747 H   0  0  0  0  0  0
   27.8080    7.9779   -1.2149 H   0  0  0  0  0  0
   26.6726    6.7515    0.5082 H   0  0  0  0  0  0
   27.0080    3.2045   -1.7961 H   0  0  0  0  0  0
   28.2169    5.1810    1.8846 H   0  0  0  0  0  0
   27.9755    6.0230    4.1554 H   0  0  0  0  0  0
   23.9272    4.5126    4.2560 H   0  0  0  0  0  0
   24.1905    3.7010    1.9529 H   0  0  0  0  0  0
   26.6640    6.8467    7.1129 H   0  0  0  0  0  0
  1  6  1  0  0  0
  1  2  2  0  0  0
  1  7  1  0  0  0
  2  3  1  0  0  0
  2 33  1  0  0  0
  3  4  2  0  0  0
  3 34  1  0  0  0
  4  5  1  0  0  0
  4 35  1  0  0  0
  5  8  1  0  0  0
  5  6  2  0  0  0
  6 36  1  0  0  0
  8  9  1  0  0  0
  8 10  1  0  0  0
  8 37  1  0  0  0
  9 11  1  0  0  0
  9 38  1  0  0  0
  9 39  1  0  0  0
 10 40  1  0  0  0
 11 12  1  0  0  0
 11 41  1  0  0  0
 12 13  1  0  0  0
 12 14  1  0  0  0
 12 42  1  0  0  0
 13 17  1  0  0  0
 13 43  1  0  0  0
 13 44  1  0  0  0
 14 15  1  0  0  0
 14 45  1  0  0  0
 14 46  1  0  0  0
 15 16  1  0  0  0
 15 47  1  0  0  0
 15 48  1  0  0  0
 16 18  1  0  0  0
 16 49  1  0  0  0
 16 50  1  0  0  0
 17 18  2  0  0  0
 17 22  1  0  0  0
 18 19  1  0  0  0
 19 20  2  0  0  0
 19 51  1  0  0  0
 20 21  1  0  0  0
 20 52  1  0  0  0
 21 22  2  0  0  0
 21 23  1  0  0  0
 22 53  1  0  0  0
 23 24  1  0  0  0
 24 25  2  0  0  0
 24 29  1  0  0  0
 25 26  1  0  0  0
 25 54  1  0  0  0
 26 27  2  0  0  0
 26 55  1  0  0  0
 27 28  1  0  0  0
 27 30  1  0  0  0
 28 29  2  0  0  0
 28 56  1  0  0  0
 29 57  1  0  0  0
 30 31  1  0  0  0
 30 32  2  0  0  0
 31 58  1  0  0  0
M  END
> <s_m_entry_id>
3166

> <s_m_entry_name>
dock_pv.258

> <s_m_Source_Path>
/home/csk/Desktop/cluster/DUD-E-result/adrb1

> <s_m_Source_File>
dock_pv.maegz

> <i_m_Source_File_Index>
258

> <chembl_id>
CHEMBL527037

> <chembl_pref_name>
None

> <i_lp_mmshare_version>
53161

> <i_f3d_flags>
0

> <r_lp_tautomer_probability>
1

> <s_lp_Force_Field>
OPLS_2005

> <r_lp_Energy>
33.91227

> <b_lp_Chiralities_Consistent>
1

> <s_lp_Variant>
CHEMBL213_lig887-1

> <s_i_glide_gridfile>
glide-grid_2vt4

> <i_i_glide_lignum>
995

> <i_i_glide_rotatable_bonds>
9

> <r_i_docking_score>
-7.35747139297705

> <r_i_glide_ligand_efficiency>
-0.229920981030533

> <r_i_glide_ligand_efficiency_sa>
-0.729953613471581

> <r_i_glide_ligand_efficiency_ln>
-1.64753840198306

> <r_i_glide_gscore>
-7.35747139297705

> <r_i_glide_lipo>
-3.18192271749034

> <r_i_glide_hbond>
-0.308561015651573

> <r_i_glide_metal>
0

> <r_i_glide_rewards>
-1.26938256207834

> <r_i_glide_evdw>
-38.8709945678711

> <r_i_glide_ecoul>
-8.28908443450928

> <r_i_glide_erotb>
0.589307295813146

> <r_i_glide_esite>
0

> <r_i_glide_emodel>
-65.9024298637404

> <r_i_glide_energy>
-47.1600790023804

> <r_i_glide_einternal>
6.31668329238892

> <i_i_glide_confnum>
22

> <i_i_glide_posenum>
169

> <r_i_glide_eff_state_penalty>
0

> <s_user_duplicate_titles>
CHEMBL213_lig887

> <s_m_subgroup_title>
dock_pv

> <s_m_subgroupid>
dock_pv

> <b_m_subgroup_collapsed>
1

$$$$
CHEMBL213_lig871
                    3D
 Schrodinger Suite 2021-1.
 63 66  0  0  1  0            999 V2000
   24.3572    4.6500    4.1198 C   0  0  0  0  0  0
   24.3156    4.0056    2.8841 C   0  0  0  0  0  0
   25.4078    4.0998    2.0275 C   0  0  0  0  0  0
   26.5430    4.8151    2.4146 C   0  0  0  0  0  0
   26.6127    5.4631    3.6653 C   0  0  0  0  0  0
   25.4749    5.4148    4.4784 C   0  0  0  0  0  0
   27.8715    6.2296    4.1471 C   0  0  2  0  0  0
   29.1622    5.8190    3.3809 C   0  0  0  0  0  0
   28.0825    6.1448    5.5483 O   0  0  0  0  0  0
   22.9894    4.6500    5.1850 Cl  0  0  0  0  0  0
   30.3582    6.6500    3.5706 N   0  0  1  0  0  0
   31.4079    6.5147    2.5347 C   0  0  1  0  0  0
   32.8015    6.3465    3.1748 C   0  0  0  0  0  0
   33.9949    6.3476    2.1817 C   0  0  0  0  0  0
   31.2560    5.4162    1.4414 C   0  0  0  0  0  0
   32.3775    5.4500    0.4068 C   0  0  0  0  0  0
   33.6789    5.8499    0.7672 C   0  0  0  0  0  0
   34.6677    5.8797   -0.2250 C   0  0  0  0  0  0
   34.3741    5.5829   -1.5558 C   0  0  0  0  0  0
   33.0822    5.2264   -1.9311 C   0  0  0  0  0  0
   32.1079    5.1284   -0.9298 C   0  0  0  0  0  0
   32.8311    4.9892   -3.2725 O   0  0  0  0  0  0
   31.5437    4.7887   -3.7223 C   0  0  0  0  0  0
   31.1977    3.5546   -4.2659 C   0  0  0  0  0  0
   29.8745    3.2659   -4.6352 C   0  0  0  0  0  0
   28.9008    4.2536   -4.4146 C   0  0  0  0  0  0
   29.2389    5.5278   -3.9399 C   0  0  0  0  0  0
   30.5742    5.7879   -3.6148 C   0  0  0  0  0  0
   28.1779    6.5855   -3.7684 C   0  0  0  0  0  0
   28.6080    7.8509   -4.0150 O   0  0  0  0  0  0
   27.0078    6.3252   -3.5155 O   0  0  0  0  0  0
   29.5321    2.0185   -5.2185 N   0  0  0  0  0  0
   30.5642    1.0645   -5.6021 C   0  0  0  0  0  0
   28.1370    1.6082   -5.3479 C   0  0  0  0  0  0
   23.4370    3.4522    2.5854 H   0  0  0  0  0  0
   25.3796    3.6128    1.0627 H   0  0  0  0  0  0
   27.3556    4.8265    1.7077 H   0  0  0  0  0  0
   25.4660    5.9301    5.4273 H   0  0  0  0  0  0
   27.6649    7.2816    3.9851 H   0  0  0  0  0  0
   28.9030    5.8944    2.3366 H   0  0  0  0  0  0
   29.4065    4.7742    3.5816 H   0  0  0  0  0  0
   27.5345    6.8062    5.9826 H   0  0  0  0  0  0
   30.1057    7.6230    3.6710 H   0  0  0  0  0  0
   31.4075    7.4619    1.9931 H   0  0  0  0  0  0
   32.8147    5.4112    3.7319 H   0  0  0  0  0  0
   32.9636    7.1292    3.9178 H   0  0  0  0  0  0
   34.8214    5.7722    2.5996 H   0  0  0  0  0  0
   34.3632    7.3701    2.0897 H   0  0  0  0  0  0
   30.2941    5.4494    0.9338 H   0  0  0  0  0  0
   31.2666    4.4453    1.9312 H   0  0  0  0  0  0
   35.6721    6.1845    0.0303 H   0  0  0  0  0  0
   35.1507    5.6501   -2.3046 H   0  0  0  0  0  0
   31.1039    4.8229   -1.1834 H   0  0  0  0  0  0
   31.9766    2.8156   -4.3636 H   0  0  0  0  0  0
   27.8676    4.0532   -4.6610 H   0  0  0  0  0  0
   30.8636    6.7494   -3.2257 H   0  0  0  0  0  0
   27.8751    8.4794   -4.0156 H   0  0  0  0  0  0
   31.0079    0.6502   -4.6992 H   0  0  0  0  0  0
   30.1619    0.2487   -6.2024 H   0  0  0  0  0  0
   31.3523    1.5502   -6.1816 H   0  0  0  0  0  0
   27.6406    2.1892   -6.1255 H   0  0  0  0  0  0
   28.0391    0.5507   -5.5932 H   0  0  0  0  0  0
   27.5955    1.7754   -4.4157 H   0  0  0  0  0  0
  1 10  1  0  0  0
  1  6  1  0  0  0
  1  2  2  0  0  0
  2  3  1  0  0  0
  2 35  1  0  0  0
  3  4  2  0  0  0
  3 36  1  0  0  0
  4  5  1  0  0  0
  4 37  1  0  0  0
  5  6  2  0  0  0
  5  7  1  0  0  0
  6 38  1  0  0  0
  7  8  1  0  0  0
  7  9  1  0  0  0
  7 39  1  0  0  0
  8 11  1  0  0  0
  8 40  1  0  0  0
  8 41  1  0  0  0
  9 42  1  0  0  0
 11 12  1  0  0  0
 11 43  1  0  0  0
 12 13  1  0  0  0
 12 15  1  0  0  0
 12 44  1  0  0  0
 13 14  1  0  0  0
 13 45  1  0  0  0
 13 46  1  0  0  0
 14 17  1  0  0  0
 14 47  1  0  0  0
 14 48  1  0  0  0
 15 16  1  0  0  0
 15 49  1  0  0  0
 15 50  1  0  0  0
 16 17  2  0  0  0
 16 21  1  0  0  0
 17 18  1  0  0  0
 18 19  2  0  0  0
 18 51  1  0  0  0
 19 20  1  0  0  0
 19 52  1  0  0  0
 20 21  2  0  0  0
 20 22  1  0  0  0
 21 53  1  0  0  0
 22 23  1  0  0  0
 23 24  2  0  0  0
 23 28  1  0  0  0
 24 25  1  0  0  0
 24 54  1  0  0  0
 25 26  2  0  0  0
 25 32  1  0  0  0
 26 27  1  0  0  0
 26 55  1  0  0  0
 27 28  2  0  0  0
 27 29  1  0  0  0
 28 56  1  0  0  0
 29 30  1  0  0  0
 29 31  2  0  0  0
 30 57  1  0  0  0
 32 33  1  0  0  0
 32 34  1  0  0  0
 33 58  1  0  0  0
 33 59  1  0  0  0
 33 60  1  0  0  0
 34 61  1  0  0  0
 34 62  1  0  0  0
 34 63  1  0  0  0
M  END
> <s_m_entry_id>
3167

> <s_m_entry_name>
dock_pv.259

> <s_m_Source_Path>
/home/csk/Desktop/cluster/DUD-E-result/adrb1

> <s_m_Source_File>
dock_pv.maegz

> <i_m_Source_File_Index>
259

> <chembl_id>
CHEMBL497113

> <chembl_pref_name>
None

> <i_lp_mmshare_version>
53161

> <i_f3d_flags>
0

> <r_lp_tautomer_probability>
1

> <s_lp_Force_Field>
OPLS_2005

> <r_lp_Energy>
33.605799

> <b_lp_Chiralities_Consistent>
1

> <s_lp_Variant>
CHEMBL213_lig871-1

> <s_i_glide_gridfile>
glide-grid_2vt4

> <i_i_glide_lignum>
979

> <i_i_glide_rotatable_bonds>
10

> <r_i_docking_score>
-7.34726399486714

> <r_i_glide_ligand_efficiency>
-0.216095999849034

> <r_i_glide_ligand_efficiency_sa>
-0.70006715049689

> <r_i_glide_ligand_efficiency_ln>
-1.62321670024069

> <r_i_glide_gscore>
-7.34726399486714

> <r_i_glide_lipo>
-3.90627481215056

> <r_i_glide_hbond>
-0.0878874172775667

> <r_i_glide_metal>
0

> <r_i_glide_rewards>
-1.04398064677687

> <r_i_glide_evdw>
-40.220947265625

> <r_i_glide_ecoul>
-5.49413728713989

> <r_i_glide_erotb>
0.526046837690088

> <r_i_glide_esite>
0

> <r_i_glide_emodel>
-42.694653317341

> <r_i_glide_energy>
-45.7150845527649

> <r_i_glide_einternal>
23.7719688415527

> <i_i_glide_confnum>
22

> <i_i_glide_posenum>
163

> <r_i_glide_eff_state_penalty>
0

> <s_user_duplicate_titles>
CHEMBL213_lig871

> <s_m_subgroup_title>
dock_pv

> <s_m_subgroupid>
dock_pv

> <b_m_subgroup_collapsed>
1

$$$$
CHEMBL213_lig747
                    3D
 Schrodinger Suite 2021-1.
 51 53  0  0  1  0            999 V2000
   27.9730    6.0223    3.7877 C   0  0  0  0  0  0
   27.6817    5.2470    2.6665 C   0  0  0  0  0  0
   26.4266    4.6520    2.5427 C   0  0  0  0  0  0
   25.4508    4.8835    3.4985 C   0  0  0  0  0  0
   25.7119    5.7186    4.5920 C   0  0  0  0  0  0
   26.9923    6.2729    4.7451 C   0  0  0  0  0  0
   24.6075    5.9635    5.5843 C   0  0  0  0  0  0
   24.7672    7.0483    6.3850 O   0  0  0  0  0  0
   23.5953    5.2635    5.5877 O   0  0  0  0  0  0
   33.0877    2.3845   -7.8249 C   0  0  0  0  0  0
   33.5165    3.5519   -7.1967 C   0  0  0  0  0  0
   32.6255    4.2827   -6.4138 C   0  0  0  0  0  0
   31.3061    3.8497   -6.2673 C   0  0  0  0  0  0
   30.8551    2.6762   -6.8909 C   0  0  0  0  0  0
   31.7729    1.9502   -7.6605 C   0  0  0  0  0  0
   34.1708    1.4764   -8.8159 Cl  0  0  0  0  0  0
   29.3800    2.2391   -6.7660 C   0  0  2  0  0  0
   28.9453    1.8850   -5.3211 C   0  0  0  0  0  0
   28.9589    3.0332   -4.4152 N   0  0  1  0  0  0
   27.7432    3.8349   -4.4690 C   0  0  0  0  0  0
   28.0051    5.2508   -3.9201 C   0  0  0  0  0  0
   28.1878    5.2674   -2.4080 C   0  0  0  0  0  0
   29.3627    4.7700   -1.8395 C   0  0  0  0  0  0
   29.4809    4.6852   -0.4575 C   0  0  0  0  0  0
   28.4434    5.1162    0.3671 C   0  0  0  0  0  0
   27.2932    5.6791   -0.2092 C   0  0  0  0  0  0
   27.1601    5.7381   -1.5912 C   0  0  0  0  0  0
   29.0232    1.1511   -7.6081 O   0  0  0  0  0  0
   28.6734    5.0500    1.7312 O   0  0  0  0  0  0
   28.9591    6.4484    3.8990 H   0  0  0  0  0  0
   26.2074    4.0087    1.7024 H   0  0  0  0  0  0
   24.4821    4.4213    3.3633 H   0  0  0  0  0  0
   27.2503    6.8920    5.5929 H   0  0  0  0  0  0
   25.6015    7.5096    6.2645 H   0  0  0  0  0  0
   34.5341    3.8972   -7.3175 H   0  0  0  0  0  0
   32.9535    5.1952   -5.9364 H   0  0  0  0  0  0
   30.6320    4.4564   -5.6817 H   0  0  0  0  0  0
   31.4658    1.0500   -8.1563 H   0  0  0  0  0  0
   28.7545    3.0500   -7.1290 H   0  0  0  0  0  0
   29.6351    1.1378   -4.9275 H   0  0  0  0  0  0
   27.9560    1.4231   -5.3010 H   0  0  0  0  0  0
   28.9945    2.6556   -3.4679 H   0  0  0  0  0  0
   27.0201    3.3448   -3.8133 H   0  0  0  0  0  0
   27.2582    3.8498   -5.4427 H   0  0  0  0  0  0
   27.1683    5.8961   -4.1936 H   0  0  0  0  0  0
   28.8765    5.6986   -4.4004 H   0  0  0  0  0  0
   30.1711    4.4230   -2.4671 H   0  0  0  0  0  0
   30.3848    4.2887   -0.0187 H   0  0  0  0  0  0
   26.4951    6.0790    0.3972 H   0  0  0  0  0  0
   26.2497    6.1292   -2.0245 H   0  0  0  0  0  0
   28.9810    1.4721   -8.5140 H   0  0  0  0  0  0
  1  6  1  0  0  0
  1  2  2  0  0  0
  1 30  1  0  0  0
  2  3  1  0  0  0
  2 29  1  0  0  0
  3  4  2  0  0  0
  3 31  1  0  0  0
  4  5  1  0  0  0
  4 32  1  0  0  0
  5  6  2  0  0  0
  5  7  1  0  0  0
  6 33  1  0  0  0
  7  8  1  0  0  0
  7  9  2  0  0  0
  8 34  1  0  0  0
 10 15  1  0  0  0
 10 16  1  0  0  0
 10 11  2  0  0  0
 11 12  1  0  0  0
 11 35  1  0  0  0
 12 13  2  0  0  0
 12 36  1  0  0  0
 13 14  1  0  0  0
 13 37  1  0  0  0
 14 15  2  0  0  0
 14 17  1  0  0  0
 15 38  1  0  0  0
 17 18  1  0  0  0
 17 28  1  0  0  0
 17 39  1  0  0  0
 18 19  1  0  0  0
 18 40  1  0  0  0
 18 41  1  0  0  0
 19 20  1  0  0  0
 19 42  1  0  0  0
 20 21  1  0  0  0
 20 43  1  0  0  0
 20 44  1  0  0  0
 21 22  1  0  0  0
 21 45  1  0  0  0
 21 46  1  0  0  0
 22 23  2  0  0  0
 22 27  1  0  0  0
 23 24  1  0  0  0
 23 47  1  0  0  0
 24 25  2  0  0  0
 24 48  1  0  0  0
 25 26  1  0  0  0
 25 29  1  0  0  0
 26 27  2  0  0  0
 26 49  1  0  0  0
 27 50  1  0  0  0
 28 51  1  0  0  0
M  END
> <s_m_entry_id>
3168

> <s_m_entry_name>
dock_pv.260

> <s_m_Source_Path>
/home/csk/Desktop/cluster/DUD-E-result/adrb1

> <s_m_Source_File>
dock_pv.maegz

> <i_m_Source_File_Index>
260

> <chembl_id>
CHEMBL411234

> <chembl_pref_name>
None

> <i_lp_mmshare_version>
53161

> <i_f3d_flags>
0

> <r_lp_tautomer_probability>
1

> <s_lp_Force_Field>
OPLS_2005

> <r_lp_Energy>
29.367305

> <b_lp_Chiralities_Consistent>
1

> <s_lp_Variant>
CHEMBL213_lig747-1

> <s_i_glide_gridfile>
glide-grid_2vt4

> <i_i_glide_lignum>
853

> <i_i_glide_rotatable_bonds>
11

> <r_i_docking_score>
-7.34423386199444

> <r_i_glide_ligand_efficiency>
-0.25324944351705

> <r_i_glide_ligand_efficiency_sa>
-0.778062525539687

> <r_i_glide_ligand_efficiency_ln>
-1.68164332069467

> <r_i_glide_gscore>
-7.34423386199444

> <r_i_glide_lipo>
-2.94251768015783

> <r_i_glide_hbond>
-0.466716399350414

> <r_i_glide_metal>
0

> <r_i_glide_rewards>
-1.49149136766292

> <r_i_glide_evdw>
-40.5153999328613

> <r_i_glide_ecoul>
-8.98261737823486

> <r_i_glide_erotb>
0.929654188555014

> <r_i_glide_esite>
0

> <r_i_glide_emodel>
-71.3443195776383

> <r_i_glide_energy>
-49.4980173110962

> <r_i_glide_einternal>
8.92612361907959

> <i_i_glide_confnum>
66

> <i_i_glide_posenum>
77

> <r_i_glide_eff_state_penalty>
0

> <s_user_duplicate_titles>
CHEMBL213_lig747

> <s_m_subgroup_title>
dock_pv

> <s_m_subgroupid>
dock_pv

> <b_m_subgroup_collapsed>
1

$$$$
CHEMBL213_lig1041
                    3D
 Schrodinger Suite 2021-1.
 53 55  0  0  1  0            999 V2000
   32.0229    4.6002   -2.6190 C   0  0  0  0  0  0
   30.9263    4.3207   -3.6855 C   0  0  0  0  0  0
   30.9251    5.4789   -4.7084 C   0  0  0  0  0  0
   27.4712    5.0119    3.0427 C   0  0  0  0  0  0
   28.7102    5.1764    2.4349 C   0  0  0  0  0  0
   28.8359    5.0500    1.0496 C   0  0  0  0  0  0
   27.7268    4.7820    0.2265 C   0  0  0  0  0  0
   26.3748    4.6696    2.2553 C   0  0  0  0  0  0
   26.5030    4.5476    0.8656 C   0  0  0  0  0  0
   25.3812    4.2508    0.1171 O   0  0  0  0  0  0
   24.4059    3.4085    0.7750 C   0  0  0  0  0  0
   24.0899    3.8500    2.2307 C   0  0  0  0  0  0
   25.1363    4.4364    2.8314 N   0  0  0  0  0  0
   23.0080    3.7179    2.7850 O   0  0  0  0  0  0
   29.8080    5.4967    3.1850 O   0  0  0  0  0  0
   27.8525    4.6771   -1.3048 C   0  0  2  0  0  0
   29.3208    4.7754   -1.8029 C   0  0  0  0  0  0
   27.0858    5.6754   -1.9605 O   0  0  0  0  0  0
   29.5559    4.2500   -3.1444 N   0  0  2  0  0  0
   31.2466    2.9332   -4.3255 C   0  0  0  0  0  0
   30.5033    2.5726   -5.6156 C   0  0  0  0  0  0
   29.1624    2.1771   -5.5339 C   0  0  0  0  0  0
   28.4468    1.8500   -6.6809 C   0  0  0  0  0  0
   29.0687    1.8790   -7.9231 C   0  0  0  0  0  0
   30.4085    2.2500   -8.0150 C   0  0  0  0  0  0
   31.1340    2.6071   -6.8760 C   0  0  0  0  0  0
   32.5859    3.0339   -7.0553 C   0  0  0  0  0  0
   33.0156    4.6320   -3.0702 H   0  0  0  0  0  0
   31.8793    5.5564   -2.1158 H   0  0  0  0  0  0
   32.0464    3.8276   -1.8503 H   0  0  0  0  0  0
   31.9049    5.6246   -5.1623 H   0  0  0  0  0  0
   30.2080    5.3136   -5.5133 H   0  0  0  0  0  0
   30.6435    6.4230   -4.2393 H   0  0  0  0  0  0
   27.3735    5.1191    4.1131 H   0  0  0  0  0  0
   29.8181    5.2250    0.6403 H   0  0  0  0  0  0
   23.4738    3.3711    0.2138 H   0  0  0  0  0  0
   24.8096    2.3978    0.8484 H   0  0  0  0  0  0
   24.9773    4.6883    3.7942 H   0  0  0  0  0  0
   30.1181    4.7968    3.7781 H   0  0  0  0  0  0
   27.4322    3.7085   -1.5789 H   0  0  0  0  0  0
   29.9317    4.1529   -1.1502 H   0  0  0  0  0  0
   29.6668    5.8069   -1.7206 H   0  0  0  0  0  0
   26.3343    5.2449   -2.3937 H   0  0  0  0  0  0
   29.2025    3.3019   -3.2006 H   0  0  0  0  0  0
   31.0491    2.1424   -3.5987 H   0  0  0  0  0  0
   32.3185    2.8410   -4.4961 H   0  0  0  0  0  0
   28.6560    2.1326   -4.5811 H   0  0  0  0  0  0
   27.4080    1.5790   -6.5995 H   0  0  0  0  0  0
   28.5167    1.6204   -8.8149 H   0  0  0  0  0  0
   30.8839    2.2576   -8.9846 H   0  0  0  0  0  0
   32.7997    3.9389   -6.4884 H   0  0  0  0  0  0
   33.2630    2.2515   -6.7139 H   0  0  0  0  0  0
   32.8187    3.2635   -8.0954 H   0  0  0  0  0  0
  1  2  1  0  0  0
  1 28  1  0  0  0
  1 29  1  0  0  0
  1 30  1  0  0  0
  2 19  1  0  0  0
  2  3  1  0  0  0
  2 20  1  0  0  0
  3 31  1  0  0  0
  3 32  1  0  0  0
  3 33  1  0  0  0
  4  8  2  0  0  0
  4  5  1  0  0  0
  4 34  1  0  0  0
  5 15  1  0  0  0
  5  6  2  0  0  0
  6  7  1  0  0  0
  6 35  1  0  0  0
  7  9  2  0  0  0
  7 16  1  0  0  0
  8  9  1  0  0  0
  8 13  1  0  0  0
  9 10  1  0  0  0
 10 11  1  0  0  0
 11 12  1  0  0  0
 11 36  1  0  0  0
 11 37  1  0  0  0
 12 14  2  0  0  0
 12 13  1  0  0  0
 13 38  1  0  0  0
 15 39  1  0  0  0
 16 17  1  0  0  0
 16 18  1  0  0  0
 16 40  1  0  0  0
 17 19  1  0  0  0
 17 41  1  0  0  0
 17 42  1  0  0  0
 18 43  1  0  0  0
 19 44  1  0  0  0
 20 21  1  0  0  0
 20 45  1  0  0  0
 20 46  1  0  0  0
 21 22  2  0  0  0
 21 26  1  0  0  0
 22 23  1  0  0  0
 22 47  1  0  0  0
 23 24  2  0  0  0
 23 48  1  0  0  0
 24 25  1  0  0  0
 24 49  1  0  0  0
 25 26  2  0  0  0
 25 50  1  0  0  0
 26 27  1  0  0  0
 27 51  1  0  0  0
 27 52  1  0  0  0
 27 53  1  0  0  0
M  END
> <s_m_entry_id>
3169

> <s_m_entry_name>
dock_pv.261

> <s_m_Source_Path>
/home/csk/Desktop/cluster/DUD-E-result/adrb1

> <s_m_Source_File>
dock_pv.maegz

> <i_m_Source_File_Index>
261

> <chembl_id>
CHEMBL601036

> <chembl_pref_name>
None

> <i_lp_mmshare_version>
53161

> <i_f3d_flags>
0

> <r_lp_tautomer_probability>
0.999999999999998

> <s_lp_Force_Field>
OPLS_2005

> <r_lp_Energy>
38.38207

> <b_lp_Chiralities_Consistent>
1

> <s_lp_Variant>
CHEMBL213_lig1041-1

> <s_i_glide_gridfile>
glide-grid_2vt4

> <i_i_glide_lignum>
1204

> <i_i_glide_rotatable_bonds>
8

> <r_i_docking_score>
-7.33995700460357

> <r_i_glide_ligand_efficiency>
-0.271850259429762

> <r_i_glide_ligand_efficiency_sa>
-0.815550777393312

> <r_i_glide_ligand_efficiency_ln>
-1.70862098202315

> <r_i_glide_gscore>
-7.33995700460357

> <r_i_glide_lipo>
-2.58683067569647

> <r_i_glide_hbond>
-0.473813350466944

> <r_i_glide_metal>
0

> <r_i_glide_rewards>
-1.95565461290086

> <r_i_glide_evdw>
-34.7344360351562

> <r_i_glide_ecoul>
-9.53631687164307

> <r_i_glide_erotb>
0.843510966964976

> <r_i_glide_esite>
0

> <r_i_glide_emodel>
-57.4512280468961

> <r_i_glide_energy>
-44.2707529067993

> <r_i_glide_einternal>
11.6553678512573

> <i_i_glide_confnum>
108

> <i_i_glide_posenum>
140

> <r_i_glide_eff_state_penalty>
0

> <s_user_duplicate_titles>
CHEMBL213_lig1041,602839

> <s_m_subgroup_title>
dock_pv

> <s_m_subgroupid>
dock_pv

> <b_m_subgroup_collapsed>
1

$$$$
CHEMBL213_lig653
                    3D
 Schrodinger Suite 2021-1.
 65 68  0  0  1  0            999 V2000
   29.4394    1.8056   -6.9668 S   0  0  0  0  0  0
   32.6080    4.3923   -6.4150 N   0  0  0  0  0  0
   32.1541    3.5891   -5.3954 C   0  0  0  0  0  0
   34.3918    4.1224   -5.0403 C   0  0  0  0  0  0
   33.2582    3.4179   -4.4996 C   0  0  0  0  0  0
   30.9040    2.9985   -5.1589 C   0  0  0  0  0  0
   33.9237    4.7140   -6.1998 C   0  0  0  0  0  0
   28.0912    5.1589    2.0236 C   0  0  0  0  0  0
   29.8716    3.1383   -6.0493 O   0  0  0  0  0  0
   29.4426    5.0500    1.9068 N   0  0  0  0  0  0
   30.6505    1.0500   -7.3000 O   0  0  0  0  0  0
   28.5166    2.2500   -8.0149 O   0  0  0  0  0  0
   32.3846    5.4500   -0.3424 C   0  0  0  0  0  0
   35.8198    4.1907   -4.5035 C   0  0  0  0  0  0
   30.2079    5.0498    0.7136 C   0  0  0  0  0  0
   27.3093    5.0500    1.0784 O   0  0  0  0  0  0
   31.5499    5.4500    0.7958 C   0  0  0  0  0  0
   27.5358    5.4962    3.3905 C   0  0  0  0  0  0
   35.0342    5.1243   -2.3379 N   0  0  1  0  0  0
   34.8957    4.9425   -0.8882 C   0  0  0  0  0  0
   33.8522    5.9138   -0.2732 C   0  0  2  0  0  0
   28.4619    0.8241   -5.6923 C   0  0  0  0  0  0
   36.0180    4.2392   -2.9627 C   0  0  2  0  0  0
   30.7604    2.2840   -3.9758 C   0  0  0  0  0  0
   33.0610    2.6500   -3.3420 C   0  0  0  0  0  0
   34.2789    6.2500    1.0355 O   0  0  0  0  0  0
   31.8080    2.0987   -3.0954 C   0  0  0  0  0  0
   31.8223    5.1113   -1.5786 C   0  0  0  0  0  0
   30.4886    4.7300   -1.6746 C   0  0  0  0  0  0
   29.6950    4.6668   -0.5371 C   0  0  0  0  0  0
   26.1472    5.4494    3.5972 C   0  0  0  0  0  0
   28.3617    5.9298    4.4387 C   0  0  0  0  0  0
   37.4526    4.6775   -2.6102 C   0  0  0  0  0  0
   25.5959    5.8376    4.8134 C   0  0  0  0  0  0
   27.8080    6.2990    5.6616 C   0  0  0  0  0  0
   26.4302    6.2499    5.8432 C   0  0  0  0  0  0
   32.0857    4.7208   -7.2147 H   0  0  0  0  0  0
   34.4450    5.3494   -6.9054 H   0  0  0  0  0  0
   29.9774    5.1121    2.7593 H   0  0  0  0  0  0
   36.3826    3.3372   -4.8831 H   0  0  0  0  0  0
   36.3168    5.0500   -4.9492 H   0  0  0  0  0  0
   31.9485    5.7433    1.7561 H   0  0  0  0  0  0
   34.1623    5.0255   -2.8347 H   0  0  0  0  0  0
   34.6497    3.9103   -0.6334 H   0  0  0  0  0  0
   35.8683    5.1618   -0.4459 H   0  0  0  0  0  0
   33.9189    6.8588   -0.8151 H   0  0  0  0  0  0
   27.8764    0.0694   -6.2083 H   0  0  0  0  0  0
   27.8080    1.5025   -5.1447 H   0  0  0  0  0  0
   29.1549    0.3174   -5.0264 H   0  0  0  0  0  0
   35.8741    3.2267   -2.5829 H   0  0  0  0  0  0
   29.8080    1.8733   -3.7014 H   0  0  0  0  0  0
   33.8633    2.4900   -2.6409 H   0  0  0  0  0  0
   33.8841    7.1095    1.2347 H   0  0  0  0  0  0
   31.6148    1.5322   -2.1982 H   0  0  0  0  0  0
   32.4019    5.1694   -2.4838 H   0  0  0  0  0  0
   30.0614    4.4808   -2.6339 H   0  0  0  0  0  0
   28.6808    4.3239   -0.6673 H   0  0  0  0  0  0
   25.4789    5.1317    2.8082 H   0  0  0  0  0  0
   29.4333    6.0046    4.3222 H   0  0  0  0  0  0
   38.1872    4.0773   -3.1477 H   0  0  0  0  0  0
   37.6284    5.7196   -2.8813 H   0  0  0  0  0  0
   37.6718    4.5664   -1.5489 H   0  0  0  0  0  0
   24.5270    5.8099    4.9616 H   0  0  0  0  0  0
   28.4382    6.6500    6.4657 H   0  0  0  0  0  0
   26.0023    6.5590    6.7852 H   0  0  0  0  0  0
  1  9  1  0  0  0
  1 11  2  0  0  0
  1 12  2  0  0  0
  1 22  1  0  0  0
  2  3  1  0  0  0
  2  7  1  0  0  0
  2 37  1  0  0  0
  3  6  1  0  0  0
  3  5  2  0  0  0
  4  5  1  0  0  0
  4 14  1  0  0  0
  4  7  2  0  0  0
  5 25  1  0  0  0
  6  9  1  0  0  0
  6 24  2  0  0  0
  7 38  1  0  0  0
  8 10  1  0  0  0
  8 16  2  0  0  0
  8 18  1  0  0  0
 10 15  1  0  0  0
 10 39  1  0  0  0
 13 21  1  0  0  0
 13 17  2  0  0  0
 13 28  1  0  0  0
 14 23  1  0  0  0
 14 40  1  0  0  0
 14 41  1  0  0  0
 15 17  1  0  0  0
 15 30  2  0  0  0
 17 42  1  0  0  0
 18 31  1  0  0  0
 18 32  2  0  0  0
 19 23  1  0  0  0
 19 20  1  0  0  0
 19 43  1  0  0  0
 20 21  1  0  0  0
 20 44  1  0  0  0
 20 45  1  0  0  0
 21 26  1  0  0  0
 21 46  1  0  0  0
 22 47  1  0  0  0
 22 48  1  0  0  0
 22 49  1  0  0  0
 23 33  1  0  0  0
 23 50  1  0  0  0
 24 27  1  0  0  0
 24 51  1  0  0  0
 25 27  2  0  0  0
 25 52  1  0  0  0
 26 53  1  0  0  0
 27 54  1  0  0  0
 28 29  2  0  0  0
 28 55  1  0  0  0
 29 30  1  0  0  0
 29 56  1  0  0  0
 30 57  1  0  0  0
 31 34  2  0  0  0
 31 58  1  0  0  0
 32 35  1  0  0  0
 32 59  1  0  0  0
 33 60  1  0  0  0
 33 61  1  0  0  0
 33 62  1  0  0  0
 34 36  1  0  0  0
 34 63  1  0  0  0
 35 36  2  0  0  0
 35 64  1  0  0  0
 36 65  1  0  0  0
M  END
> <s_m_entry_id>
3170

> <s_m_entry_name>
dock_pv.262

> <s_m_Source_Path>
/home/csk/Desktop/cluster/DUD-E-result/adrb1

> <s_m_Source_File>
dock_pv.maegz

> <i_m_Source_File_Index>
262

> <chembl_id>
CHEMBL182708

> <chembl_pref_name>
None

> <i_lp_mmshare_version>
53161

> <i_f3d_flags>
0

> <r_lp_tautomer_probability>
1

> <s_lp_Force_Field>
OPLS_2005

> <r_lp_Energy>
26.954923

> <b_lp_Chiralities_Consistent>
1

> <s_lp_Variant>
CHEMBL213_lig653-1

> <s_i_glide_gridfile>
glide-grid_2vt4

> <i_i_glide_lignum>
755

> <i_i_glide_rotatable_bonds>
12

> <r_i_docking_score>
-7.33850209094305

> <r_i_glide_ligand_efficiency>
-0.203847280303974

> <r_i_glide_ligand_efficiency_sa>
-0.673088888644743

> <r_i_glide_ligand_efficiency_ln>
-1.60106289282944

> <r_i_glide_gscore>
-7.33850209094305

> <r_i_glide_lipo>
-3.01366087583802

> <r_i_glide_hbond>
-0.301672460133712

> <r_i_glide_metal>
0

> <r_i_glide_rewards>
-1.03680695249987

> <r_i_glide_evdw>
-47.8151245117188

> <r_i_glide_ecoul>
-9.22378730773926

> <r_i_glide_erotb>
0.794370589756044

> <r_i_glide_esite>
-0.0064080704806658

> <r_i_glide_emodel>
-75.0729491352447

> <r_i_glide_energy>
-57.038911819458

> <r_i_glide_einternal>
13.7125482559204

> <i_i_glide_confnum>
183

> <i_i_glide_posenum>
92

> <r_i_glide_eff_state_penalty>
0

> <s_user_duplicate_titles>
CHEMBL213_lig653,305638

> <s_m_subgroup_title>
dock_pv

> <s_m_subgroupid>
dock_pv

> <b_m_subgroup_collapsed>
1

$$$$
CHEMBL213_lig1063
                    3D
 Schrodinger Suite 2021-1.
 61 65  0  0  1  0            999 V2000
   27.7528    6.6268   -2.7966 N   0  0  1  0  0  0
   27.6780    5.9986   -1.4801 C   0  0  0  0  0  0
   26.9776    6.8814   -0.4457 C   0  0  0  0  0  0
   27.0953    6.2497    0.9518 C   0  0  0  0  0  0
   26.6091    4.8674    1.0763 N   0  0  0  0  0  0
   26.8653    4.0019   -0.1013 C   0  0  0  0  0  0
   26.8383    4.7251   -1.4404 C   0  0  0  0  0  0
   25.7884    4.5050    2.1378 C   0  0  0  0  0  0
   24.7580    3.7013    1.7630 N   0  0  0  0  0  0
   23.6982    3.6285    2.5808 C   0  0  0  0  0  0
   23.5451    4.2500    3.7663 N   0  0  0  0  0  0
   25.8412    5.0800    3.4518 C   0  0  0  0  0  0
   24.6176    4.9339    4.1848 C   0  0  0  0  0  0
   24.6078    5.8500    5.6803 S   0  0  0  0  0  0
   26.2707    6.2459    5.4272 C   0  0  0  0  0  0
   26.8408    5.7845    4.2493 C   0  0  0  0  0  0
   28.4830    5.8806   -3.8306 C   0  0  0  0  0  0
   30.0105    6.1467   -3.8946 C   0  0  1  0  0  0
   30.8762    5.3055   -2.9280 C   0  0  0  0  0  0
   30.4318    5.8500   -5.2164 O   0  0  0  0  0  0
   32.1946    5.8464   -2.8122 O   0  0  0  0  0  0
   33.2872    5.1037   -3.2147 C   0  0  0  0  0  0
   33.2381    4.1350   -4.2295 C   0  0  0  0  0  0
   34.3916    3.4452   -4.6034 C   0  0  0  0  0  0
   35.6026    3.7063   -3.9647 C   0  0  0  0  0  0
   35.6627    4.6679   -2.9584 C   0  0  0  0  0  0
   34.5130    5.3668   -2.5894 C   0  0  0  0  0  0
   28.3018    6.0080    3.9754 C   0  0  0  0  0  0
   28.9710    7.1193    4.5119 C   0  0  0  0  0  0
   30.2899    7.3933    4.1608 C   0  0  0  0  0  0
   30.9415    6.5776    3.2425 C   0  0  0  0  0  0
   30.3024    5.4501    2.7324 C   0  0  0  0  0  0
   29.0082    5.1394    3.1432 C   0  0  0  0  0  0
   34.5925    6.3028   -1.6150 F   0  0  0  0  0  0
   26.8106    6.7920   -3.1255 H   0  0  0  0  0  0
   28.6850    5.7841   -1.1383 H   0  0  0  0  0  0
   27.4080    7.8759   -0.4236 H   0  0  0  0  0  0
   25.9344    7.0689   -0.7055 H   0  0  0  0  0  0
   28.1383    6.2121    1.2092 H   0  0  0  0  0  0
   26.6079    6.9076    1.6705 H   0  0  0  0  0  0
   27.8182    3.5058   -0.0150 H   0  0  0  0  0  0
   26.1374    3.1927   -0.1640 H   0  0  0  0  0  0
   25.8080    4.9886   -1.6150 H   0  0  0  0  0  0
   27.1132    4.0199   -2.2232 H   0  0  0  0  0  0
   22.8617    3.0498    2.2269 H   0  0  0  0  0  0
   26.7632    6.8062    6.2082 H   0  0  0  0  0  0
   28.0565    6.2556   -4.7605 H   0  0  0  0  0  0
   28.2607    4.8141   -3.8269 H   0  0  0  0  0  0
   30.1923    7.2100   -3.7443 H   0  0  0  0  0  0
   30.8325    4.2419   -3.1679 H   0  0  0  0  0  0
   30.4838    5.3649   -1.9195 H   0  0  0  0  0  0
   30.9339    6.5997   -5.5612 H   0  0  0  0  0  0
   32.3185    3.9291   -4.7559 H   0  0  0  0  0  0
   34.3477    2.7089   -5.3925 H   0  0  0  0  0  0
   36.4971    3.1739   -4.2539 H   0  0  0  0  0  0
   36.6045    4.8792   -2.4722 H   0  0  0  0  0  0
   28.4645    7.8078    5.1718 H   0  0  0  0  0  0
   30.8013    8.2500    4.5714 H   0  0  0  0  0  0
   31.9540    6.8070    2.9419 H   0  0  0  0  0  0
   30.8230    4.7970    2.0479 H   0  0  0  0  0  0
   28.5372    4.2497    2.7610 H   0  0  0  0  0  0
  1 17  1  0  0  0
  1  2  1  0  0  0
  1 35  1  0  0  0
  2  3  1  0  0  0
  2  7  1  0  0  0
  2 36  1  0  0  0
  3  4  1  0  0  0
  3 37  1  0  0  0
  3 38  1  0  0  0
  4  5  1  0  0  0
  4 39  1  0  0  0
  4 40  1  0  0  0
  5  6  1  0  0  0
  5  8  1  0  0  0
  6  7  1  0  0  0
  6 41  1  0  0  0
  6 42  1  0  0  0
  7 43  1  0  0  0
  7 44  1  0  0  0
  8  9  2  0  0  0
  8 12  1  0  0  0
  9 10  1  0  0  0
 10 11  2  0  0  0
 10 45  1  0  0  0
 11 13  1  0  0  0
 12 16  1  0  0  0
 12 13  2  0  0  0
 13 14  1  0  0  0
 14 15  1  0  0  0
 15 16  2  0  0  0
 15 46  1  0  0  0
 16 28  1  0  0  0
 17 18  1  0  0  0
 17 47  1  0  0  0
 17 48  1  0  0  0
 18 19  1  0  0  0
 18 20  1  0  0  0
 18 49  1  0  0  0
 19 21  1  0  0  0
 19 50  1  0  0  0
 19 51  1  0  0  0
 20 52  1  0  0  0
 21 22  1  0  0  0
 22 23  2  0  0  0
 22 27  1  0  0  0
 23 24  1  0  0  0
 23 53  1  0  0  0
 24 25  2  0  0  0
 24 54  1  0  0  0
 25 26  1  0  0  0
 25 55  1  0  0  0
 26 27  2  0  0  0
 26 56  1  0  0  0
 27 34  1  0  0  0
 28 29  2  0  0  0
 28 33  1  0  0  0
 29 30  1  0  0  0
 29 57  1  0  0  0
 30 31  2  0  0  0
 30 58  1  0  0  0
 31 32  1  0  0  0
 31 59  1  0  0  0
 32 33  2  0  0  0
 32 60  1  0  0  0
 33 61  1  0  0  0
M  END
> <s_m_entry_id>
3171

> <s_m_entry_name>
dock_pv.263

> <s_m_Source_Path>
/home/csk/Desktop/cluster/DUD-E-result/adrb1

> <s_m_Source_File>
dock_pv.maegz

> <i_m_Source_File_Index>
263

> <chembl_id>
CHEMBL1258257

> <chembl_pref_name>
None

> <i_lp_mmshare_version>
53161

> <i_f3d_flags>
0

> <r_lp_tautomer_probability>
1

> <s_lp_Force_Field>
OPLS_2005

> <r_lp_Energy>
35.667285

> <b_lp_Chiralities_Consistent>
1

> <s_lp_Variant>
CHEMBL213_lig1063-2

> <s_i_glide_gridfile>
glide-grid_2vt4

> <i_i_glide_lignum>
1237

> <i_i_glide_rotatable_bonds>
9

> <r_i_docking_score>
-7.33848817544292

> <r_i_glide_ligand_efficiency>
-0.215837887513027

> <r_i_glide_ligand_efficiency_sa>
-0.699230966728091

> <r_i_glide_ligand_efficiency_ln>
-1.62127787557648

> <r_i_glide_gscore>
-7.33848817544292

> <r_i_glide_lipo>
-3.37481976537588

> <r_i_glide_hbond>
-0.304

> <r_i_glide_metal>
0

> <r_i_glide_rewards>
-1.32849751718832

> <r_i_glide_evdw>
-35.0888404846191

> <r_i_glide_ecoul>
-7.97391366958618

> <r_i_glide_erotb>
0.619358181790172

> <r_i_glide_esite>
0

> <r_i_glide_emodel>
-42.7267060573423

> <r_i_glide_energy>
-43.0627541542053

> <r_i_glide_einternal>
10.4535293579102

> <i_i_glide_confnum>
2

> <i_i_glide_posenum>
179

> <r_i_glide_eff_state_penalty>
0

> <s_user_duplicate_titles>
CHEMBL213_lig1063

> <s_m_subgroup_title>
dock_pv

> <s_m_subgroupid>
dock_pv

> <b_m_subgroup_collapsed>
1

$$$$
CHEMBL213_lig753
                    3D
 Schrodinger Suite 2021-1.
 55 57  0  0  1  0            999 V2000
   35.5414    5.2575   -0.6843 C   0  0  0  0  0  0
   36.2615    4.3304   -1.4391 C   0  0  0  0  0  0
   35.6291    3.6175   -2.4578 C   0  0  0  0  0  0
   34.2746    3.8269   -2.7192 C   0  0  0  0  0  0
   33.5366    4.7402   -1.9512 C   0  0  0  0  0  0
   34.1843    5.4584   -0.9370 C   0  0  0  0  0  0
   32.0546    4.9889   -2.2245 C   0  0  2  0  0  0
   31.2333    3.6954   -2.4570 C   0  0  0  0  0  0
   31.8849    5.8500   -3.3302 O   0  0  0  0  0  0
   36.3278    6.1645    0.5561 Cl  0  0  0  0  0  0
   29.8079    3.8498   -2.1691 N   0  0  1  0  0  0
   29.0605    4.7358   -3.0592 C   0  0  0  0  0  0
   27.5401    4.5674   -2.8519 C   0  0  0  0  0  0
   27.0880    4.7749   -1.4104 C   0  0  0  0  0  0
   26.6102    3.6948   -0.6637 C   0  0  0  0  0  0
   26.3726    3.8397    0.6969 C   0  0  0  0  0  0
   26.6115    5.0630    1.3050 C   0  0  0  0  0  0
   26.9294    6.1734    0.5284 C   0  0  0  0  0  0
   27.1848    6.0360   -0.8286 C   0  0  0  0  0  0
   26.6168    5.2163    3.0709 S   0  0  0  0  0  0
   28.2811    5.7757    3.3901 C   0  0  0  0  0  0
   29.3361    5.3730    2.5672 C   0  0  0  0  0  0
   30.6256    5.8477    2.7850 C   0  0  0  0  0  0
   30.8937    6.6629    3.8909 C   0  0  0  0  0  0
   29.8363    7.0628    4.7134 C   0  0  0  0  0  0
   28.5326    6.6310    4.4635 C   0  0  0  0  0  0
   32.1603    7.0497    4.2849 O   0  0  0  0  0  0
   33.2986    6.9393    3.4142 C   0  0  0  0  0  0
   34.3444    5.9730    3.9988 C   0  0  0  0  0  0
   33.8092    5.0002    4.7881 O   0  0  0  0  0  0
   35.5454    6.0726    3.7597 O   0  0  0  0  0  0
   37.3124    4.1680   -1.2436 H   0  0  0  0  0  0
   36.1935    2.9097   -3.0484 H   0  0  0  0  0  0
   33.8033    3.2798   -3.5226 H   0  0  0  0  0  0
   33.6386    6.1816   -0.3443 H   0  0  0  0  0  0
   31.6474    5.4768   -1.3381 H   0  0  0  0  0  0
   31.5895    2.9314   -1.7659 H   0  0  0  0  0  0
   31.3925    3.2827   -3.4544 H   0  0  0  0  0  0
   31.0132    5.6833   -3.6980 H   0  0  0  0  0  0
   29.3193    2.9544   -2.0700 H   0  0  0  0  0  0
   29.3103    4.5281   -4.1014 H   0  0  0  0  0  0
   29.3336    5.7649   -2.8219 H   0  0  0  0  0  0
   27.2289    3.5796   -3.1990 H   0  0  0  0  0  0
   27.0070    5.2738   -3.4886 H   0  0  0  0  0  0
   26.4921    2.7256   -1.1205 H   0  0  0  0  0  0
   26.0731    2.9829    1.2793 H   0  0  0  0  0  0
   27.0062    7.1340    0.9994 H   0  0  0  0  0  0
   27.5023    6.8905   -1.4086 H   0  0  0  0  0  0
   29.1675    4.7012    1.7397 H   0  0  0  0  0  0
   31.4055    5.4871    2.1348 H   0  0  0  0  0  0
   30.0356    7.7049    5.5588 H   0  0  0  0  0  0
   27.7245    6.9504    5.1068 H   0  0  0  0  0  0
   33.7522    7.9288    3.3638 H   0  0  0  0  0  0
   33.0818    6.6744    2.3817 H   0  0  0  0  0  0
   32.8443    5.0169    4.7944 H   0  0  0  0  0  0
  1  6  1  0  0  0
  1 10  1  0  0  0
  1  2  2  0  0  0
  2  3  1  0  0  0
  2 32  1  0  0  0
  3  4  2  0  0  0
  3 33  1  0  0  0
  4  5  1  0  0  0
  4 34  1  0  0  0
  5  7  1  0  0  0
  5  6  2  0  0  0
  6 35  1  0  0  0
  7  8  1  0  0  0
  7  9  1  0  0  0
  7 36  1  0  0  0
  8 11  1  0  0  0
  8 37  1  0  0  0
  8 38  1  0  0  0
  9 39  1  0  0  0
 11 12  1  0  0  0
 11 40  1  0  0  0
 12 13  1  0  0  0
 12 41  1  0  0  0
 12 42  1  0  0  0
 13 14  1  0  0  0
 13 43  1  0  0  0
 13 44  1  0  0  0
 14 15  2  0  0  0
 14 19  1  0  0  0
 15 16  1  0  0  0
 15 45  1  0  0  0
 16 17  2  0  0  0
 16 46  1  0  0  0
 17 18  1  0  0  0
 17 20  1  0  0  0
 18 19  2  0  0  0
 18 47  1  0  0  0
 19 48  1  0  0  0
 20 21  1  0  0  0
 21 22  2  0  0  0
 21 26  1  0  0  0
 22 23  1  0  0  0
 22 49  1  0  0  0
 23 24  2  0  0  0
 23 50  1  0  0  0
 24 25  1  0  0  0
 24 27  1  0  0  0
 25 26  2  0  0  0
 25 51  1  0  0  0
 26 52  1  0  0  0
 27 28  1  0  0  0
 28 29  1  0  0  0
 28 53  1  0  0  0
 28 54  1  0  0  0
 29 30  1  0  0  0
 29 31  2  0  0  0
 30 55  1  0  0  0
M  END
> <s_m_entry_id>
3172

> <s_m_entry_name>
dock_pv.264

> <s_m_Source_Path>
/home/csk/Desktop/cluster/DUD-E-result/adrb1

> <s_m_Source_File>
dock_pv.maegz

> <i_m_Source_File_Index>
264

> <chembl_id>
CHEMBL408957

> <chembl_pref_name>
None

> <i_lp_mmshare_version>
53161

> <i_f3d_flags>
0

> <r_lp_tautomer_probability>
1

> <s_lp_Force_Field>
OPLS_2005

> <r_lp_Energy>
30.309758

> <b_lp_Chiralities_Consistent>
1

> <s_lp_Variant>
CHEMBL213_lig753-1

> <s_i_glide_gridfile>
glide-grid_2vt4

> <i_i_glide_lignum>
859

> <i_i_glide_rotatable_bonds>
13

> <r_i_docking_score>
-7.33576053341929

> <r_i_glide_ligand_efficiency>
-0.236637436561913

> <r_i_glide_ligand_efficiency_sa>
-0.743368263996182

> <r_i_glide_ligand_efficiency_ln>
-1.65443881434725

> <r_i_glide_gscore>
-7.33576053341929

> <r_i_glide_lipo>
-2.31811313787346

> <r_i_glide_hbond>
-0.852932256792125

> <r_i_glide_metal>
0

> <r_i_glide_rewards>
-0.995690048788457

> <r_i_glide_evdw>
-43.5306549072266

> <r_i_glide_ecoul>
-13.0084619522095

> <r_i_glide_erotb>
0.958776948227494

> <r_i_glide_esite>
0

> <r_i_glide_emodel>
-80.7326411460711

> <r_i_glide_energy>
-56.539116859436

> <r_i_glide_einternal>
13.231107711792

> <i_i_glide_confnum>
117

> <i_i_glide_posenum>
217

> <r_i_glide_eff_state_penalty>
0

> <s_user_duplicate_titles>
CHEMBL213_lig753

> <s_m_subgroup_title>
dock_pv

> <s_m_subgroupid>
dock_pv

> <b_m_subgroup_collapsed>
1

$$$$
CHEMBL213_lig1462
                    3D
 Schrodinger Suite 2021-1.
 27 28  0  0  1  0            999 V2000
   29.9994    6.6504    3.9188 C   0  0  0  0  0  0
   28.6880    7.4497    5.5832 N   0  0  0  0  0  0
   29.9507    7.4510    5.0472 C   0  0  0  0  0  0
   28.6556    6.1555    3.7485 C   0  0  0  0  0  0
   27.8591    6.6643    4.8197 C   0  0  0  0  0  0
   31.1866    6.3405    3.0079 C   0  0  0  0  0  0
   32.8462    6.2500    4.8537 N   0  0  0  0  0  0
   32.5843    6.7730    3.5249 C   0  0  1  0  0  0
   28.0341    5.3356    2.7924 C   0  0  0  0  0  0
   26.4988    6.3685    4.9580 C   0  0  0  0  0  0
   33.7274    6.3047    2.6115 C   0  0  0  0  0  0
   26.6752    5.0500    2.9193 C   0  0  0  0  0  0
   25.9300    5.5491    3.9835 C   0  0  0  0  0  0
   28.4218    7.9842    6.3990 H   0  0  0  0  0  0
   30.7392    8.0280    5.5130 H   0  0  0  0  0  0
   31.0235    6.8156    2.0410 H   0  0  0  0  0  0
   31.2069    5.2725    2.7860 H   0  0  0  0  0  0
   32.4645    5.3070    4.8858 H   0  0  0  0  0  0
   33.8408    6.1698    4.9968 H   0  0  0  0  0  0
   32.6131    7.8578    3.5806 H   0  0  0  0  0  0
   28.5998    4.9385    1.9633 H   0  0  0  0  0  0
   25.9094    6.7639    5.7733 H   0  0  0  0  0  0
   33.5786    6.6497    1.5887 H   0  0  0  0  0  0
   33.8079    5.2185    2.5757 H   0  0  0  0  0  0
   34.6887    6.6977    2.9447 H   0  0  0  0  0  0
   26.1925    4.4242    2.1813 H   0  0  0  0  0  0
   24.8812    5.2979    4.0494 H   0  0  0  0  0  0
  1  3  2  0  0  0
  1  4  1  0  0  0
  1  6  1  0  0  0
  2  3  1  0  0  0
  2  5  1  0  0  0
  2 14  1  0  0  0
  3 15  1  0  0  0
  4  5  2  0  0  0
  4  9  1  0  0  0
  5 10  1  0  0  0
  6  8  1  0  0  0
  6 16  1  0  0  0
  6 17  1  0  0  0
  7  8  1  0  0  0
  7 18  1  0  0  0
  7 19  1  0  0  0
  8 11  1  0  0  0
  8 20  1  0  0  0
  9 12  2  0  0  0
  9 21  1  0  0  0
 10 13  2  0  0  0
 10 22  1  0  0  0
 11 23  1  0  0  0
 11 24  1  0  0  0
 11 25  1  0  0  0
 12 13  1  0  0  0
 12 26  1  0  0  0
 13 27  1  0  0  0
M  END
> <s_m_entry_id>
3173

> <s_m_entry_name>
dock_pv.265

> <s_m_Source_Path>
/home/csk/Desktop/cluster/DUD-E-result/adrb1

> <s_m_Source_File>
dock_pv.maegz

> <i_m_Source_File_Index>
265

> <chembl_id>
CHEMBL30713

> <chembl_pref_name>
None

> <i_lp_mmshare_version>
53161

> <i_f3d_flags>
0

> <r_lp_tautomer_probability>
1

> <s_lp_Force_Field>
OPLS_2005

> <r_lp_Energy>
6.673298

> <b_lp_Chiralities_Consistent>
1

> <s_lp_Variant>
CHEMBL213_lig1462-1

> <s_i_glide_gridfile>
glide-grid_2vt4

> <i_i_glide_lignum>
1797

> <i_i_glide_rotatable_bonds>
2

> <r_i_docking_score>
-7.33512260253478

> <r_i_glide_ligand_efficiency>
-0.564240200194983

> <r_i_glide_ligand_efficiency_sa>
-1.32671755379065

> <r_i_glide_ligand_efficiency_ln>
-2.05756712565416

> <r_i_glide_gscore>
-7.33512260253478

> <r_i_glide_lipo>
-2.4461170284911

> <r_i_glide_hbond>
-0.577260461953892

> <r_i_glide_metal>
0

> <r_i_glide_rewards>
-2.61274216666667

> <r_i_glide_evdw>
-22.8393878936768

> <r_i_glide_ecoul>
-3.71355700492859

> <r_i_glide_erotb>
0

> <r_i_glide_esite>
0

> <r_i_glide_emodel>
-37.7133592864675

> <r_i_glide_energy>
-26.5529448986053

> <r_i_glide_einternal>
0.828877925872803

> <i_i_glide_confnum>
1

> <i_i_glide_posenum>
102

> <r_i_glide_eff_state_penalty>
0

> <s_user_duplicate_titles>
CHEMBL213_lig1462

> <s_m_subgroup_title>
dock_pv

> <s_m_subgroupid>
dock_pv

> <b_m_subgroup_collapsed>
1

$$$$
CHEMBL213_lig1037
                    3D
 Schrodinger Suite 2021-1.
 50 52  0  0  1  0            999 V2000
   31.6362    5.2099   -2.5343 C   0  0  0  0  0  0
   30.5238    4.7059   -3.4901 C   0  0  0  0  0  0
   30.5860    5.5940   -4.7576 C   0  0  0  0  0  0
   27.1725    5.0480    3.3756 C   0  0  0  0  0  0
   28.4020    5.2407    2.7684 C   0  0  0  0  0  0
   28.5403    5.0692    1.3895 C   0  0  0  0  0  0
   27.4323    4.7895    0.5657 C   0  0  0  0  0  0
   26.0972    4.6512    2.5951 C   0  0  0  0  0  0
   26.2137    4.5304    1.2049 C   0  0  0  0  0  0
   25.0866    4.2498    0.4565 O   0  0  0  0  0  0
   24.0740    3.4526    1.1203 C   0  0  0  0  0  0
   23.8082    3.8892    2.5896 C   0  0  0  0  0  0
   24.8768    4.4208    3.1848 N   0  0  0  0  0  0
   22.7439    3.8500    3.1850 O   0  0  0  0  0  0
   29.4559    5.6431    3.5346 O   0  0  0  0  0  0
   27.5380    4.7647   -0.9727 C   0  0  2  0  0  0
   29.0036    4.7982   -1.4984 C   0  0  0  0  0  0
   26.8126    5.8500   -1.5306 O   0  0  0  0  0  0
   29.1675    4.9077   -2.9529 N   0  0  2  0  0  0
   30.7262    3.1805   -3.7710 C   0  0  0  0  0  0
   30.3445    2.7161   -5.1724 C   0  0  0  0  0  0
   29.0156    2.4296   -5.5072 C   0  0  0  0  0  0
   28.6862    2.1085   -6.8249 C   0  0  0  0  0  0
   29.6758    2.0466   -7.7956 C   0  0  0  0  0  0
   31.0056    2.2759   -7.4615 C   0  0  0  0  0  0
   31.3365    2.6289   -6.1566 C   0  0  0  0  0  0
   31.9672    2.1895   -8.4072 F   0  0  0  0  0  0
   27.4081    1.8753   -7.1874 F   0  0  0  0  0  0
   32.6200    5.1458   -2.9995 H   0  0  0  0  0  0
   31.4802    6.2497   -2.2669 H   0  0  0  0  0  0
   31.6839    4.6378   -1.6086 H   0  0  0  0  0  0
   31.5433    5.5010   -5.2696 H   0  0  0  0  0  0
   29.8081    5.3470   -5.4777 H   0  0  0  0  0  0
   30.4465    6.6486   -4.5129 H   0  0  0  0  0  0
   27.0705    5.1815    4.4426 H   0  0  0  0  0  0
   29.5198    5.2446    0.9760 H   0  0  0  0  0  0
   23.1391    3.4793    0.5598 H   0  0  0  0  0  0
   24.4216    2.4212    1.1702 H   0  0  0  0  0  0
   24.7287    4.6871    4.1463 H   0  0  0  0  0  0
   30.0962    4.9428    3.7217 H   0  0  0  0  0  0
   27.0581    3.8490   -1.3234 H   0  0  0  0  0  0
   29.5196    3.9067   -1.1367 H   0  0  0  0  0  0
   29.4973    5.6703   -1.0724 H   0  0  0  0  0  0
   26.2400    5.5002   -2.2248 H   0  0  0  0  0  0
   28.5074    4.3017   -3.4220 H   0  0  0  0  0  0
   30.2076    2.5675   -3.0338 H   0  0  0  0  0  0
   31.7741    2.9149   -3.6241 H   0  0  0  0  0  0
   28.2334    2.4889   -4.7622 H   0  0  0  0  0  0
   29.3997    1.8500   -8.8150 H   0  0  0  0  0  0
   32.3684    2.8454   -5.9175 H   0  0  0  0  0  0
  1  2  1  0  0  0
  1 29  1  0  0  0
  1 30  1  0  0  0
  1 31  1  0  0  0
  2 19  1  0  0  0
  2  3  1  0  0  0
  2 20  1  0  0  0
  3 32  1  0  0  0
  3 33  1  0  0  0
  3 34  1  0  0  0
  4  8  2  0  0  0
  4  5  1  0  0  0
  4 35  1  0  0  0
  5 15  1  0  0  0
  5  6  2  0  0  0
  6  7  1  0  0  0
  6 36  1  0  0  0
  7  9  2  0  0  0
  7 16  1  0  0  0
  8  9  1  0  0  0
  8 13  1  0  0  0
  9 10  1  0  0  0
 10 11  1  0  0  0
 11 12  1  0  0  0
 11 37  1  0  0  0
 11 38  1  0  0  0
 12 14  2  0  0  0
 12 13  1  0  0  0
 13 39  1  0  0  0
 15 40  1  0  0  0
 16 17  1  0  0  0
 16 18  1  0  0  0
 16 41  1  0  0  0
 17 19  1  0  0  0
 17 42  1  0  0  0
 17 43  1  0  0  0
 18 44  1  0  0  0
 19 45  1  0  0  0
 20 21  1  0  0  0
 20 46  1  0  0  0
 20 47  1  0  0  0
 21 22  2  0  0  0
 21 26  1  0  0  0
 22 23  1  0  0  0
 22 48  1  0  0  0
 23 24  2  0  0  0
 23 28  1  0  0  0
 24 25  1  0  0  0
 24 49  1  0  0  0
 25 26  2  0  0  0
 25 27  1  0  0  0
 26 50  1  0  0  0
M  END
> <s_m_entry_id>
3174

> <s_m_entry_name>
dock_pv.266

> <s_m_Source_Path>
/home/csk/Desktop/cluster/DUD-E-result/adrb1

> <s_m_Source_File>
dock_pv.maegz

> <i_m_Source_File_Index>
266

> <chembl_id>
CHEMBL601429

> <chembl_pref_name>
None

> <i_lp_mmshare_version>
53161

> <i_f3d_flags>
0

> <r_lp_tautomer_probability>
0.999999999999998

> <s_lp_Force_Field>
OPLS_2005

> <r_lp_Energy>
34.551376

> <b_lp_Chiralities_Consistent>
1

> <s_lp_Variant>
CHEMBL213_lig1037-1

> <s_i_glide_gridfile>
glide-grid_2vt4

> <i_i_glide_lignum>
1194

> <i_i_glide_rotatable_bonds>
8

> <r_i_docking_score>
-7.33333627338816

> <r_i_glide_ligand_efficiency>
-0.26190486690672

> <r_i_glide_ligand_efficiency_sa>
-0.795297429646144

> <r_i_glide_ligand_efficiency_ln>
-1.69274932800704

> <r_i_glide_gscore>
-7.33333627338816

> <r_i_glide_lipo>
-2.60015980884682

> <r_i_glide_hbond>
-0.309389618869025

> <r_i_glide_metal>
0

> <r_i_glide_rewards>
-2.24475664856985

> <r_i_glide_evdw>
-33.9864692687988

> <r_i_glide_ecoul>
-7.42477750778198

> <r_i_glide_erotb>
0.634009892504775

> <r_i_glide_esite>
0

> <r_i_glide_emodel>
-51.8462432347369

> <r_i_glide_energy>
-41.4112467765808

> <r_i_glide_einternal>
14.8401041030884

> <i_i_glide_confnum>
98

> <i_i_glide_posenum>
236

> <r_i_glide_eff_state_penalty>
0

> <s_user_duplicate_titles>
CHEMBL213_lig1037

> <s_m_subgroup_title>
dock_pv

> <s_m_subgroupid>
dock_pv

> <b_m_subgroup_collapsed>
1

$$$$
CHEMBL213_lig1094
                    3D
 Schrodinger Suite 2021-1.
 89 91  0  0  1  0            999 V2000
   31.3517    2.5738   -6.8368 C   0  0  0  0  0  0
   30.2175    1.8048   -6.5329 C   0  0  0  0  0  0
   29.3401    2.2040   -5.5285 C   0  0  0  0  0  0
   29.5778    3.3753   -4.8153 C   0  0  0  0  0  0
   30.6999    4.1657   -5.0990 C   0  0  0  0  0  0
   31.5754    3.7540   -6.1110 C   0  0  0  0  0  0
   29.9423    0.6511   -7.2149 O   0  0  0  0  0  0
   32.3064    2.1247   -7.9485 C   0  0  0  0  0  0
   33.5577    2.7808   -7.9811 O   0  0  0  0  0  0
   30.9864    5.4753   -4.3516 C   0  0  2  0  0  0
   30.9302    5.4110   -2.7985 C   0  0  0  0  0  0
   29.6562    5.1115   -2.1358 N   0  0  2  0  0  0
   28.5205    5.9271   -2.5630 C   0  0  0  0  0  0
   27.4453    6.0228   -1.4766 C   0  0  0  0  0  0
   26.9807    4.6898   -0.8593 C   0  0  0  0  0  0
   25.9100    4.9325    0.2117 C   0  0  0  0  0  0
   25.7202    3.7601    1.1947 C   0  0  0  0  0  0
   25.4652    4.2127    2.6471 C   0  0  0  0  0  0
   26.5426    5.0495    3.0489 O   0  0  0  0  0  0
   26.5399    5.4506    4.4110 C   0  0  0  0  0  0
   27.5100    6.6285    4.5781 C   0  0  0  0  0  0
   28.9686    6.3069    4.1818 C   0  0  0  0  0  0
   29.9496    7.4880    4.3548 C   0  0  0  0  0  0
   31.4109    7.0488    4.3540 C   0  0  0  0  0  0
   32.1758    7.0370    3.1847 C   0  0  0  0  0  0
   33.5209    6.6359    3.2102 C   0  0  0  0  0  0
   34.0931    6.2321    4.4245 C   0  0  0  0  0  0
   33.3341    6.2450    5.5863 C   0  0  0  0  0  0
   32.0019    6.6500    5.5489 C   0  0  0  0  0  0
   30.2078    6.5643   -4.8150 O   0  0  0  0  0  0
   34.2079    6.6500    1.9879 N   0  0  0  0  0  0
   35.5123    6.4495    1.7290 C   0  0  0  0  0  0
   35.7281    6.4335    0.4070 N   0  0  0  0  0  0
   36.3972    6.2611    2.5656 O   0  0  0  0  0  0
   36.8829    5.7949   -0.2310 C   0  0  0  0  0  0
   36.8651    4.2507   -0.0877 C   0  0  0  0  0  0
   35.7091    3.5863   -0.8651 C   0  0  0  0  0  0
   35.7043    4.0012   -2.3504 C   0  0  0  0  0  0
   35.7763    5.5308   -2.5361 C   0  0  0  0  0  0
   36.9518    6.1373   -1.7385 C   0  0  0  0  0  0
   28.4681    1.6085   -5.3001 H   0  0  0  0  0  0
   28.8746    3.6444   -4.0452 H   0  0  0  0  0  0
   32.4362    4.3662   -6.3323 H   0  0  0  0  0  0
   30.6072    0.4889   -7.8871 H   0  0  0  0  0  0
   32.5161    1.0620   -7.8249 H   0  0  0  0  0  0
   31.8197    2.2430   -8.9155 H   0  0  0  0  0  0
   33.4233    3.7123   -8.1716 H   0  0  0  0  0  0
   32.0178    5.7538   -4.5819 H   0  0  0  0  0  0
   31.6523    4.6668   -2.4558 H   0  0  0  0  0  0
   31.2973    6.3594   -2.4149 H   0  0  0  0  0  0
   29.7377    5.1199   -1.1292 H   0  0  0  0  0  0
   28.8344    6.9396   -2.8156 H   0  0  0  0  0  0
   28.0844    5.4973   -3.4665 H   0  0  0  0  0  0
   27.8184    6.6717   -0.6854 H   0  0  0  0  0  0
   26.5823    6.5471   -1.8919 H   0  0  0  0  0  0
   26.6069    4.0114   -1.6256 H   0  0  0  0  0  0
   27.8402    4.1895   -0.4080 H   0  0  0  0  0  0
   26.2098    5.8205    0.7646 H   0  0  0  0  0  0
   24.9610    5.1745   -0.2721 H   0  0  0  0  0  0
   24.9062    3.1213    0.8517 H   0  0  0  0  0  0
   26.6079    3.1291    1.1840 H   0  0  0  0  0  0
   24.5151    4.7441    2.7232 H   0  0  0  0  0  0
   25.4035    3.3407    3.2983 H   0  0  0  0  0  0
   25.5381    5.7601    4.7194 H   0  0  0  0  0  0
   26.8469    4.6264    5.0501 H   0  0  0  0  0  0
   27.1204    7.4499    3.9850 H   0  0  0  0  0  0
   27.4799    6.9682    5.6133 H   0  0  0  0  0  0
   29.2980    5.4611    4.7843 H   0  0  0  0  0  0
   29.0072    5.9617    3.1464 H   0  0  0  0  0  0
   29.8010    8.2451    3.5852 H   0  0  0  0  0  0
   29.7515    8.0059    5.2958 H   0  0  0  0  0  0
   31.7212    7.3447    2.2544 H   0  0  0  0  0  0
   35.1115    5.8948    4.5009 H   0  0  0  0  0  0
   33.7747    5.9209    6.5183 H   0  0  0  0  0  0
   31.4082    6.6499    6.4491 H   0  0  0  0  0  0
   30.7352    7.1295   -5.4053 H   0  0  0  0  0  0
   33.6385    6.9417    1.2058 H   0  0  0  0  0  0
   34.9413    6.6108   -0.1962 H   0  0  0  0  0  0
   37.7820    6.2001    0.2392 H   0  0  0  0  0  0
   37.8083    3.8502   -0.4380 H   0  0  0  0  0  0
   36.8113    3.9646    0.9639 H   0  0  0  0  0  0
   35.8053    2.5022   -0.7934 H   0  0  0  0  0  0
   34.7556    3.8504   -0.4051 H   0  0  0  0  0  0
   36.5613    3.5427   -2.8474 H   0  0  0  0  0  0
   34.8187    3.6020   -2.8473 H   0  0  0  0  0  0
   35.8868    5.7668   -3.5944 H   0  0  0  0  0  0
   34.8346    5.9845   -2.2246 H   0  0  0  0  0  0
   36.9787    7.2184   -1.8815 H   0  0  0  0  0  0
   37.8906    5.7657   -2.1496 H   0  0  0  0  0  0
  1  6  1  0  0  0
  1  2  2  0  0  0
  1  8  1  0  0  0
  2  3  1  0  0  0
  2  7  1  0  0  0
  3  4  2  0  0  0
  3 41  1  0  0  0
  4  5  1  0  0  0
  4 42  1  0  0  0
  5 10  1  0  0  0
  5  6  2  0  0  0
  6 43  1  0  0  0
  7 44  1  0  0  0
  8  9  1  0  0  0
  8 45  1  0  0  0
  8 46  1  0  0  0
  9 47  1  0  0  0
 10 11  1  0  0  0
 10 30  1  0  0  0
 10 48  1  0  0  0
 11 12  1  0  0  0
 11 49  1  0  0  0
 11 50  1  0  0  0
 12 13  1  0  0  0
 12 51  1  0  0  0
 13 14  1  0  0  0
 13 52  1  0  0  0
 13 53  1  0  0  0
 14 15  1  0  0  0
 14 54  1  0  0  0
 14 55  1  0  0  0
 15 16  1  0  0  0
 15 56  1  0  0  0
 15 57  1  0  0  0
 16 17  1  0  0  0
 16 58  1  0  0  0
 16 59  1  0  0  0
 17 18  1  0  0  0
 17 60  1  0  0  0
 17 61  1  0  0  0
 18 19  1  0  0  0
 18 62  1  0  0  0
 18 63  1  0  0  0
 19 20  1  0  0  0
 20 21  1  0  0  0
 20 64  1  0  0  0
 20 65  1  0  0  0
 21 22  1  0  0  0
 21 66  1  0  0  0
 21 67  1  0  0  0
 22 23  1  0  0  0
 22 68  1  0  0  0
 22 69  1  0  0  0
 23 24  1  0  0  0
 23 70  1  0  0  0
 23 71  1  0  0  0
 24 25  2  0  0  0
 24 29  1  0  0  0
 25 26  1  0  0  0
 25 72  1  0  0  0
 26 27  2  0  0  0
 26 31  1  0  0  0
 27 28  1  0  0  0
 27 73  1  0  0  0
 28 29  2  0  0  0
 28 74  1  0  0  0
 29 75  1  0  0  0
 30 76  1  0  0  0
 31 32  1  0  0  0
 31 77  1  0  0  0
 32 33  1  0  0  0
 32 34  2  0  0  0
 33 35  1  0  0  0
 33 78  1  0  0  0
 35 36  1  0  0  0
 35 40  1  0  0  0
 35 79  1  0  0  0
 36 37  1  0  0  0
 36 80  1  0  0  0
 36 81  1  0  0  0
 37 38  1  0  0  0
 37 82  1  0  0  0
 37 83  1  0  0  0
 38 39  1  0  0  0
 38 84  1  0  0  0
 38 85  1  0  0  0
 39 40  1  0  0  0
 39 86  1  0  0  0
 39 87  1  0  0  0
 40 88  1  0  0  0
 40 89  1  0  0  0
M  END
> <s_m_entry_id>
3175

> <s_m_entry_name>
dock_pv.267

> <s_m_Source_Path>
/home/csk/Desktop/cluster/DUD-E-result/adrb1

> <s_m_Source_File>
dock_pv.maegz

> <i_m_Source_File_Index>
267

> <chembl_id>
CHEMBL1835855

> <chembl_pref_name>
None

> <i_lp_mmshare_version>
53161

> <i_f3d_flags>
0

> <r_lp_tautomer_probability>
0.999999999997365

> <s_lp_Force_Field>
OPLS_2005

> <r_lp_Energy>
37.11179

> <b_lp_Chiralities_Consistent>
1

> <s_lp_Variant>
CHEMBL213_lig1094-1

> <s_i_glide_gridfile>
glide-grid_2vt4

> <i_i_glide_lignum>
1276

> <i_i_glide_rotatable_bonds>
23

> <r_i_docking_score>
-7.33252031762232

> <r_i_glide_ligand_efficiency>
-0.183313007940558

> <r_i_glide_ligand_efficiency_sa>
-0.626921667811738

> <r_i_glide_ligand_efficiency_ln>
-1.56381079730871

> <r_i_glide_gscore>
-7.33252031762232

> <r_i_glide_lipo>
-3.68284758776121

> <r_i_glide_hbond>
-0.809740911827101

> <r_i_glide_metal>
0

> <r_i_glide_rewards>
-0.461313420152056

> <r_i_glide_evdw>
-53.4370307922363

> <r_i_glide_ecoul>
-5.8842306137085

> <r_i_glide_erotb>
1.20237527354784

> <r_i_glide_esite>
-0.0265075397617055

> <r_i_glide_emodel>
-78.9003965197118

> <r_i_glide_energy>
-59.3212614059448

> <r_i_glide_einternal>
13.156813621521

> <i_i_glide_confnum>
15

> <i_i_glide_posenum>
173

> <r_i_glide_eff_state_penalty>
0

> <s_user_duplicate_titles>
CHEMBL213_lig1094

> <s_m_subgroup_title>
dock_pv

> <s_m_subgroupid>
dock_pv

> <b_m_subgroup_collapsed>
1

$$$$
CHEMBL213_lig1233
                    3D
 Schrodinger Suite 2021-1.
 58 61  0  0  1  0            999 V2000
   26.8321    6.2224    4.7182 S   0  0  0  0  0  0
   26.1607    5.3085    3.3292 C   0  0  0  0  0  0
   26.8285    5.3838    2.1062 C   0  0  0  0  0  0
   26.9590    4.9422   -0.2294 N   0  0  0  0  0  0
   26.3377    4.7258    0.9780 C   0  0  0  0  0  0
   28.7291    5.4611   -2.5063 N   0  0  0  0  0  0
   24.9571    4.5870    3.4018 C   0  0  0  0  0  0
   26.6078    5.4528    5.9453 O   0  0  0  0  0  0
   28.1904    6.6506    4.3720 O   0  0  0  0  0  0
   25.8399    7.6523    4.7853 N   0  0  0  0  0  0
   34.6496    4.8198   -1.9298 C   0  0  0  0  0  0
   33.9797    4.5897   -3.1716 C   0  0  0  0  0  0
   32.9404    5.4492   -3.4957 O   0  0  0  0  0  0
   27.4452    3.8721   -1.0879 C   0  0  0  0  0  0
   26.9222    6.2244   -0.9439 C   0  0  0  0  0  0
   25.2136    3.9030    1.0896 C   0  0  0  0  0  0
   24.5185    3.8502    2.2974 C   0  0  0  0  0  0
   30.0377    5.8112   -3.0852 C   0  0  0  0  0  0
   28.2771    6.5345   -1.6161 C   0  0  0  0  0  0
   28.8133    4.2483   -1.6945 C   0  0  0  0  0  0
   35.7482    3.9857   -1.5499 C   0  0  0  0  0  0
   30.7045    4.7063   -3.9498 C   0  0  2  0  0  0
   32.0283    5.1802   -4.5680 C   0  0  0  0  0  0
   23.9171    4.6497    4.7847 Cl  0  0  0  0  0  0
   29.8085    4.3068   -4.9650 O   0  0  0  0  0  0
   35.4906    2.7281   -3.6086 C   0  0  0  0  0  0
   34.4188    3.5307   -3.9827 C   0  0  0  0  0  0
   34.2584    5.8567   -1.0382 C   0  0  0  0  0  0
   36.1550    2.9446   -2.4107 C   0  0  0  0  0  0
   36.4119    4.2166   -0.3197 C   0  0  0  0  0  0
   34.9301    6.0570    0.1646 C   0  0  0  0  0  0
   35.9975    5.2430    0.5216 C   0  0  0  0  0  0
   27.7193    5.9885    2.0114 H   0  0  0  0  0  0
   24.8949    7.4087    5.0933 H   0  0  0  0  0  0
   26.2106    8.2920    5.4980 H   0  0  0  0  0  0
   27.5278    2.9639   -0.4916 H   0  0  0  0  0  0
   26.7135    3.6615   -1.8705 H   0  0  0  0  0  0
   26.1317    6.1846   -1.6965 H   0  0  0  0  0  0
   26.6472    7.0308   -0.2622 H   0  0  0  0  0  0
   24.8301    3.3824    0.2224 H   0  0  0  0  0  0
   23.6002    3.2833    2.3554 H   0  0  0  0  0  0
   29.9250    6.7139   -3.6875 H   0  0  0  0  0  0
   30.7303    6.0639   -2.2821 H   0  0  0  0  0  0
   28.2041    7.4719   -2.1663 H   0  0  0  0  0  0
   29.0069    6.6567   -0.8173 H   0  0  0  0  0  0
   29.5681    4.3412   -0.9112 H   0  0  0  0  0  0
   29.1328    3.4505   -2.3445 H   0  0  0  0  0  0
   30.9490    3.8387   -3.3359 H   0  0  0  0  0  0
   32.3802    4.4827   -5.3223 H   0  0  0  0  0  0
   31.8495    6.1037   -5.1163 H   0  0  0  0  0  0
   28.9338    4.2816   -4.5638 H   0  0  0  0  0  0
   35.8181    1.9318   -4.2605 H   0  0  0  0  0  0
   33.9683    3.3079   -4.9341 H   0  0  0  0  0  0
   33.4281    6.4972   -1.2932 H   0  0  0  0  0  0
   36.9954    2.3230   -2.1328 H   0  0  0  0  0  0
   37.2491    3.5892   -0.0438 H   0  0  0  0  0  0
   34.6200    6.8534    0.8258 H   0  0  0  0  0  0
   36.5119    5.4105    1.4558 H   0  0  0  0  0  0
  1  2  1  0  0  0
  1  8  2  0  0  0
  1  9  2  0  0  0
  1 10  1  0  0  0
  2  3  2  0  0  0
  2  7  1  0  0  0
  3  5  1  0  0  0
  3 33  1  0  0  0
  4  5  1  0  0  0
  4 14  1  0  0  0
  4 15  1  0  0  0
  5 16  2  0  0  0
  6 19  1  0  0  0
  6 18  1  0  0  0
  6 20  1  0  0  0
  7 17  2  0  0  0
  7 24  1  0  0  0
 10 34  1  0  0  0
 10 35  1  0  0  0
 11 12  2  0  0  0
 11 21  1  0  0  0
 11 28  1  0  0  0
 12 13  1  0  0  0
 12 27  1  0  0  0
 13 23  1  0  0  0
 14 20  1  0  0  0
 14 36  1  0  0  0
 14 37  1  0  0  0
 15 19  1  0  0  0
 15 38  1  0  0  0
 15 39  1  0  0  0
 16 17  1  0  0  0
 16 40  1  0  0  0
 17 41  1  0  0  0
 18 22  1  0  0  0
 18 42  1  0  0  0
 18 43  1  0  0  0
 19 44  1  0  0  0
 19 45  1  0  0  0
 20 46  1  0  0  0
 20 47  1  0  0  0
 21 30  1  0  0  0
 21 29  2  0  0  0
 22 23  1  0  0  0
 22 25  1  0  0  0
 22 48  1  0  0  0
 23 49  1  0  0  0
 23 50  1  0  0  0
 25 51  1  0  0  0
 26 27  2  0  0  0
 26 29  1  0  0  0
 26 52  1  0  0  0
 27 53  1  0  0  0
 28 31  2  0  0  0
 28 54  1  0  0  0
 29 55  1  0  0  0
 30 32  2  0  0  0
 30 56  1  0  0  0
 31 32  1  0  0  0
 31 57  1  0  0  0
 32 58  1  0  0  0
M  END
> <s_m_entry_id>
3176

> <s_m_entry_name>
dock_pv.268

> <s_m_Source_Path>
/home/csk/Desktop/cluster/DUD-E-result/adrb1

> <s_m_Source_File>
dock_pv.maegz

> <i_m_Source_File_Index>
268

> <chembl_id>
CHEMBL41214

> <chembl_pref_name>
None

> <i_lp_mmshare_version>
53161

> <i_f3d_flags>
0

> <r_lp_tautomer_probability>
1

> <s_lp_Force_Field>
OPLS_2005

> <r_lp_Energy>
67.087233

> <b_lp_Chiralities_Consistent>
1

> <s_lp_Variant>
CHEMBL213_lig1233-1

> <s_i_glide_gridfile>
glide-grid_2vt4

> <i_i_glide_lignum>
1470

> <i_i_glide_rotatable_bonds>
8

> <r_i_docking_score>
-7.32033851167261

> <r_i_glide_ligand_efficiency>
-0.228760578489769

> <r_i_glide_ligand_efficiency_sa>
-0.726269565048007

> <r_i_glide_ligand_efficiency_ln>
-1.63922333765488

> <r_i_glide_gscore>
-7.32033851167261

> <r_i_glide_lipo>
-2.92045894518814

> <r_i_glide_hbond>
-0.399287870080013

> <r_i_glide_metal>
0

> <r_i_glide_rewards>
-1.0613496091434

> <r_i_glide_evdw>
-48.1414489746094

> <r_i_glide_ecoul>
-6.52654600143433

> <r_i_glide_erotb>
0.446812261684562

> <r_i_glide_esite>
0

> <r_i_glide_emodel>
-69.3536884862902

> <r_i_glide_energy>
-54.6679949760437

> <r_i_glide_einternal>
10.9530897140503

> <i_i_glide_confnum>
22

> <i_i_glide_posenum>
375

> <r_i_glide_eff_state_penalty>
0

> <s_user_duplicate_titles>
CHEMBL213_lig1233,61561

> <s_m_subgroup_title>
dock_pv

> <s_m_subgroupid>
dock_pv

> <b_m_subgroup_collapsed>
1

$$$$
CHEMBL213_lig137
                    3D
 Schrodinger Suite 2021-1.
 52 54  0  0  1  0            999 V2000
   29.9849    2.4793   -6.0588 N   0  0  0  0  0  0
   28.6469    2.1538   -6.0114 C   0  0  0  0  0  0
   30.8027    2.9201   -5.0068 C   0  0  0  0  0  0
   28.1316    1.8500   -7.1764 N   0  0  0  0  0  0
   30.3198    2.3025   -7.3754 C   0  0  0  0  0  0
   29.1384    1.9698   -8.0150 C   0  0  0  0  0  0
   30.6710    2.3186   -3.7589 C   0  0  0  0  0  0
   31.7065    3.9724   -5.1940 C   0  0  0  0  0  0
   30.6686    6.6500    3.8107 O   0  0  0  0  0  0
   32.9725    6.3720    3.0360 C   0  0  1  0  0  0
   29.3200    6.3501    3.8870 C   0  0  0  0  0  0
   28.6080    5.5960    2.9350 C   0  0  0  0  0  0
   32.2977    3.8540   -2.8490 C   0  0  0  0  0  0
   31.4755    6.0395    2.7974 C   0  0  0  0  0  0
   31.4080    2.7942   -2.6849 C   0  0  0  0  0  0
   32.4564    4.4382   -4.1142 C   0  0  0  0  0  0
   33.4959    5.8500    0.6283 N   0  0  2  0  0  0
   27.2246    5.4181    3.0549 C   0  0  0  0  0  0
   33.3590    5.8500    4.2978 O   0  0  0  0  0  0
   32.9612    4.2500   -1.7100 O   0  0  0  0  0  0
   27.2583    6.6500    5.1320 C   0  0  0  0  0  0
   33.9836    5.8009    2.0026 C   0  0  0  0  0  0
   28.6269    6.8708    4.9822 C   0  0  0  0  0  0
   34.5115    5.4141   -0.3272 C   0  0  0  0  0  0
   26.5571    5.9324    4.1671 C   0  0  0  0  0  0
   33.9094    5.3086   -1.7407 C   0  0  0  0  0  0
   26.4419    4.6846    1.9799 C   0  0  0  0  0  0
   28.1066    2.2110   -5.0762 H   0  0  0  0  0  0
   31.3211    2.4925   -7.7327 H   0  0  0  0  0  0
   29.0080    1.8500   -9.0787 H   0  0  0  0  0  0
   29.9863    1.4962   -3.6150 H   0  0  0  0  0  0
   31.8137    4.4474   -6.1591 H   0  0  0  0  0  0
   33.0774    7.4578    3.0713 H   0  0  0  0  0  0
   29.1109    5.1885    2.0714 H   0  0  0  0  0  0
   31.3315    4.9603    2.7846 H   0  0  0  0  0  0
   31.1637    6.4136    1.8218 H   0  0  0  0  0  0
   31.2828    2.3405   -1.7130 H   0  0  0  0  0  0
   33.1431    5.2559   -4.2701 H   0  0  0  0  0  0
   33.2188    6.8105    0.4248 H   0  0  0  0  0  0
   32.6803    5.2210    4.5742 H   0  0  0  0  0  0
   26.7327    7.0500    5.9850 H   0  0  0  0  0  0
   34.9195    6.3565    2.0858 H   0  0  0  0  0  0
   34.2080    4.7602    2.2346 H   0  0  0  0  0  0
   29.1554    7.4554    5.7206 H   0  0  0  0  0  0
   35.3383    6.1262   -0.3348 H   0  0  0  0  0  0
   34.9158    4.4422   -0.0364 H   0  0  0  0  0  0
   25.4913    5.7927    4.2780 H   0  0  0  0  0  0
   33.4379    6.2475   -2.0365 H   0  0  0  0  0  0
   34.7011    5.0875   -2.4586 H   0  0  0  0  0  0
   25.5131    4.2695    2.3733 H   0  0  0  0  0  0
   27.0080    3.8500    1.5741 H   0  0  0  0  0  0
   26.2080    5.3587    1.1556 H   0  0  0  0  0  0
  1  2  1  0  0  0
  1  3  1  0  0  0
  1  5  1  0  0  0
  2  4  2  0  0  0
  2 28  1  0  0  0
  3  7  1  0  0  0
  3  8  2  0  0  0
  4  6  1  0  0  0
  5  6  2  0  0  0
  5 29  1  0  0  0
  6 30  1  0  0  0
  7 15  2  0  0  0
  7 31  1  0  0  0
  8 16  1  0  0  0
  8 32  1  0  0  0
  9 14  1  0  0  0
  9 11  1  0  0  0
 10 22  1  0  0  0
 10 14  1  0  0  0
 10 19  1  0  0  0
 10 33  1  0  0  0
 11 12  2  0  0  0
 11 23  1  0  0  0
 12 18  1  0  0  0
 12 34  1  0  0  0
 13 16  2  0  0  0
 13 20  1  0  0  0
 13 15  1  0  0  0
 14 35  1  0  0  0
 14 36  1  0  0  0
 15 37  1  0  0  0
 16 38  1  0  0  0
 17 24  1  0  0  0
 17 22  1  0  0  0
 17 39  1  0  0  0
 18 27  1  0  0  0
 18 25  2  0  0  0
 19 40  1  0  0  0
 20 26  1  0  0  0
 21 23  2  0  0  0
 21 25  1  0  0  0
 21 41  1  0  0  0
 22 42  1  0  0  0
 22 43  1  0  0  0
 23 44  1  0  0  0
 24 26  1  0  0  0
 24 45  1  0  0  0
 24 46  1  0  0  0
 25 47  1  0  0  0
 26 48  1  0  0  0
 26 49  1  0  0  0
 27 50  1  0  0  0
 27 51  1  0  0  0
 27 52  1  0  0  0
M  END
> <s_m_entry_id>
3177

> <s_m_entry_name>
dock_pv.269

> <s_m_Source_Path>
/home/csk/Desktop/cluster/DUD-E-result/adrb1

> <s_m_Source_File>
dock_pv.maegz

> <i_m_Source_File_Index>
269

> <chembl_id>
CHEMBL421005

> <chembl_pref_name>
None

> <i_lp_mmshare_version>
53161

> <i_f3d_flags>
0

> <r_lp_tautomer_probability>
1

> <s_lp_Force_Field>
OPLS_2005

> <r_lp_Energy>
35.112598

> <b_lp_Chiralities_Consistent>
1

> <s_lp_Variant>
CHEMBL213_lig137-2

> <s_i_glide_gridfile>
glide-grid_2vt4

> <i_i_glide_lignum>
169

> <i_i_glide_rotatable_bonds>
11

> <r_i_docking_score>
-7.32027994079617

> <r_i_glide_ligand_efficiency>
-0.271121479288747

> <r_i_glide_ligand_efficiency_sa>
-0.81336443697267

> <r_i_glide_ligand_efficiency_ln>
-1.70404048597054

> <r_i_glide_gscore>
-7.32027994079617

> <r_i_glide_lipo>
-3.38882806656264

> <r_i_glide_hbond>
-0.304

> <r_i_glide_metal>
0

> <r_i_glide_rewards>
-1.59346036886329

> <r_i_glide_evdw>
-41.442455291748

> <r_i_glide_ecoul>
-9.25532817840576

> <r_i_glide_erotb>
1.42643048597802

> <r_i_glide_esite>
0

> <r_i_glide_emodel>
-70.3079376693932

> <r_i_glide_energy>
-50.6977834701538

> <r_i_glide_einternal>
5.11179828643799

> <i_i_glide_confnum>
130

> <i_i_glide_posenum>
267

> <r_i_glide_eff_state_penalty>
0

> <s_user_duplicate_titles>
CHEMBL213_lig137,160346

> <s_m_subgroup_title>
dock_pv

> <s_m_subgroupid>
dock_pv

> <b_m_subgroup_collapsed>
1

$$$$
CHEMBL213_lig725
                    3D
 Schrodinger Suite 2021-1.
 60 62  0  0  1  0            999 V2000
   30.6024    5.0493   -0.4542 C   0  0  0  0  0  0
   29.2402    5.0342   -0.7592 C   0  0  0  0  0  0
   28.3022    5.0500    0.2646 C   0  0  0  0  0  0
   28.6983    5.0534    1.6134 C   0  0  0  0  0  0
   30.0652    5.0500    1.9107 C   0  0  0  0  0  0
   31.0045    5.0543    0.8852 C   0  0  0  0  0  0
   27.6733    5.2127    2.6813 C   0  0  0  0  0  0
   27.8988    5.9682    3.8347 C   0  0  0  0  0  0
   26.8776    6.1753    4.7598 C   0  0  0  0  0  0
   25.5992    5.6303    4.5524 C   0  0  0  0  0  0
   25.3670    4.8345    3.4047 C   0  0  0  0  0  0
   26.4151    4.6500    2.5060 C   0  0  0  0  0  0
   31.6778    5.0598   -1.5420 C   0  0  0  0  0  0
   31.1922    5.2487   -2.9944 C   0  0  0  0  0  0
   32.3548    5.3095   -3.8664 N   0  0  2  0  0  0
   32.0354    5.2671   -5.2951 C   0  0  0  0  0  0
   32.4602    3.9277   -5.9585 C   0  0  1  0  0  0
   31.3276    2.8957   -6.0270 C   0  0  0  0  0  0
   33.0517    4.2166   -7.2153 O   0  0  0  0  0  0
   30.6976    2.5843   -7.2388 C   0  0  0  0  0  0
   29.6439    1.6764   -7.2823 C   0  0  0  0  0  0
   29.2334    1.0498   -6.1118 C   0  0  0  0  0  0
   29.8735    1.3240   -4.9089 C   0  0  0  0  0  0
   30.9109    2.2500   -4.8601 C   0  0  0  0  0  0
   24.5160    5.8500    5.5850 C   0  0  0  0  0  0
   24.6097    7.0161    6.2816 O   0  0  0  0  0  0
   23.5990    5.0500    5.7505 O   0  0  0  0  0  0
   24.1096    4.2868    3.1850 O   0  0  0  0  0  0
   23.7462    3.4657    2.0631 C   0  0  0  0  0  0
   24.3403    2.0543    2.1523 C   0  0  0  0  0  0
   23.8686    4.0310    0.6301 C   0  0  0  0  0  0
   28.8870    5.0287   -1.7795 H   0  0  0  0  0  0
   27.2584    5.0923   -0.0104 H   0  0  0  0  0  0
   30.4071    5.0670    2.9343 H   0  0  0  0  0  0
   32.0555    5.0691    1.1359 H   0  0  0  0  0  0
   28.8618    6.4268    4.0056 H   0  0  0  0  0  0
   27.1056    6.7635    5.6381 H   0  0  0  0  0  0
   26.2854    4.0111    1.6556 H   0  0  0  0  0  0
   32.3851    5.8539   -1.2967 H   0  0  0  0  0  0
   32.2435    4.1307   -1.4786 H   0  0  0  0  0  0
   30.5196    4.4359   -3.2693 H   0  0  0  0  0  0
   30.6062    6.1658   -3.0778 H   0  0  0  0  0  0
   33.0194    4.5873   -3.6224 H   0  0  0  0  0  0
   30.9907    5.5062   -5.5063 H   0  0  0  0  0  0
   32.6075    6.0788   -5.7433 H   0  0  0  0  0  0
   33.2823    3.4744   -5.4006 H   0  0  0  0  0  0
   33.6995    4.9187   -7.0992 H   0  0  0  0  0  0
   31.0158    3.0500   -8.1579 H   0  0  0  0  0  0
   29.1504    1.4618   -8.2191 H   0  0  0  0  0  0
   28.4163    0.3430   -6.1321 H   0  0  0  0  0  0
   29.5536    0.8220   -4.0149 H   0  0  0  0  0  0
   31.3930    2.4536   -3.9156 H   0  0  0  0  0  0
   25.3826    7.5297    6.0404 H   0  0  0  0  0  0
   22.6739    3.3487    2.2138 H   0  0  0  0  0  0
   24.2099    1.5334    1.2078 H   0  0  0  0  0  0
   23.8453    1.4501    2.9057 H   0  0  0  0  0  0
   25.4008    2.0570    2.3746 H   0  0  0  0  0  0
   23.3353    3.3399   -0.0150 H   0  0  0  0  0  0
   23.4080    4.9976    0.4576 H   0  0  0  0  0  0
   24.8746    4.0793    0.2250 H   0  0  0  0  0  0
  1  6  1  0  0  0
  1 13  1  0  0  0
  1  2  2  0  0  0
  2  3  1  0  0  0
  2 32  1  0  0  0
  3  4  2  0  0  0
  3 33  1  0  0  0
  4  5  1  0  0  0
  4  7  1  0  0  0
  5  6  2  0  0  0
  5 34  1  0  0  0
  6 35  1  0  0  0
  7  8  2  0  0  0
  7 12  1  0  0  0
  8  9  1  0  0  0
  8 36  1  0  0  0
  9 10  2  0  0  0
  9 37  1  0  0  0
 10 11  1  0  0  0
 10 25  1  0  0  0
 11 12  2  0  0  0
 11 28  1  0  0  0
 12 38  1  0  0  0
 13 14  1  0  0  0
 13 39  1  0  0  0
 13 40  1  0  0  0
 14 15  1  0  0  0
 14 41  1  0  0  0
 14 42  1  0  0  0
 15 16  1  0  0  0
 15 43  1  0  0  0
 16 17  1  0  0  0
 16 44  1  0  0  0
 16 45  1  0  0  0
 17 18  1  0  0  0
 17 19  1  0  0  0
 17 46  1  0  0  0
 18 20  2  0  0  0
 18 24  1  0  0  0
 19 47  1  0  0  0
 20 21  1  0  0  0
 20 48  1  0  0  0
 21 22  2  0  0  0
 21 49  1  0  0  0
 22 23  1  0  0  0
 22 50  1  0  0  0
 23 24  2  0  0  0
 23 51  1  0  0  0
 24 52  1  0  0  0
 25 26  1  0  0  0
 25 27  2  0  0  0
 26 53  1  0  0  0
 28 29  1  0  0  0
 29 30  1  0  0  0
 29 31  1  0  0  0
 29 54  1  0  0  0
 30 55  1  0  0  0
 30 56  1  0  0  0
 30 57  1  0  0  0
 31 58  1  0  0  0
 31 59  1  0  0  0
 31 60  1  0  0  0
M  END
> <s_m_entry_id>
3178

> <s_m_entry_name>
dock_pv.270

> <s_m_Source_Path>
/home/csk/Desktop/cluster/DUD-E-result/adrb1

> <s_m_Source_File>
dock_pv.maegz

> <i_m_Source_File_Index>
270

> <chembl_id>
CHEMBL271945

> <chembl_pref_name>
None

> <i_lp_mmshare_version>
53161

> <i_f3d_flags>
0

> <r_lp_tautomer_probability>
1

> <s_lp_Force_Field>
OPLS_2005

> <r_lp_Energy>
36.406189

> <b_lp_Chiralities_Consistent>
1

> <s_lp_Variant>
CHEMBL213_lig725-1

> <s_i_glide_gridfile>
glide-grid_2vt4

> <i_i_glide_lignum>
831

> <i_i_glide_rotatable_bonds>
12

> <r_i_docking_score>
-7.31827314654072

> <r_i_glide_ligand_efficiency>
-0.236073327307765

> <r_i_glide_ligand_efficiency_sa>
-0.741596182101396

> <r_i_glide_ligand_efficiency_ln>
-1.65049487268209

> <r_i_glide_gscore>
-7.31827314654072

> <r_i_glide_lipo>
-3.72917108727542

> <r_i_glide_hbond>
0

> <r_i_glide_metal>
0

> <r_i_glide_rewards>
-1.73191740363592

> <r_i_glide_evdw>
-34.8537521362305

> <r_i_glide_ecoul>
-6.75878620147705

> <r_i_glide_erotb>
0.899320881403702

> <r_i_glide_esite>
0

> <r_i_glide_emodel>
-55.1037021769024

> <r_i_glide_energy>
-41.6125383377075

> <r_i_glide_einternal>
13.1568717956543

> <i_i_glide_confnum>
5

> <i_i_glide_posenum>
30

> <r_i_glide_eff_state_penalty>
0

> <s_user_duplicate_titles>
CHEMBL213_lig725

> <s_m_subgroup_title>
dock_pv

> <s_m_subgroupid>
dock_pv

> <b_m_subgroup_collapsed>
1

$$$$
CHEMBL213_lig628
                    3D
 Schrodinger Suite 2021-1.
 67 69  0  0  1  0            999 V2000
   29.2300    1.4230   -6.1898 S   0  0  0  0  0  0
   27.0059    5.4686    1.0757 C   0  0  0  0  0  0
   27.5171    4.7215   -0.1986 C   0  0  1  0  0  0
   29.3791    3.8637   -4.8130 C   0  0  0  0  0  0
   29.1338    2.4914   -4.8148 N   0  0  0  0  0  0
   27.0759    4.7780    2.2335 N   0  0  0  0  0  0
   27.0125    5.3311   -1.4483 N   0  0  2  0  0  0
   28.3679    4.6619   -4.2715 C   0  0  0  0  0  0
   26.6531    5.2570    3.4735 C   0  0  0  0  0  0
   28.5746    6.0195   -4.0156 C   0  0  0  0  0  0
   30.5536    1.5671   -6.8010 O   0  0  0  0  0  0
   28.7777    0.1401   -5.6592 O   0  0  0  0  0  0
   29.0867    4.6497   -0.2711 C   0  0  0  0  0  0
   30.6023    4.4476   -5.1711 C   0  0  0  0  0  0
   26.6080    6.6272    1.0190 O   0  0  0  0  0  0
   27.3891    6.6892   -1.8302 C   0  0  0  0  0  0
   29.8048    6.5884   -4.3610 C   0  0  0  0  0  0
   25.3387    5.0504    3.9289 C   0  0  0  0  0  0
   30.8028    5.8068   -4.9403 C   0  0  0  0  0  0
   27.4696    6.8605   -3.3738 C   0  0  2  0  0  0
   29.6970    4.1965   -1.4365 C   0  0  0  0  0  0
   29.9479    5.0500    0.7648 C   0  0  0  0  0  0
   27.9300    2.1030   -7.3587 C   0  0  0  0  0  0
   31.8436    5.0501   -0.7483 C   0  0  0  0  0  0
   31.0458    4.4120   -1.6864 C   0  0  0  0  0  0
   31.2911    5.3428    0.5117 C   0  0  0  0  0  0
   31.6371    3.7218   -5.7024 O   0  0  0  0  0  0
   26.2084    6.6498   -3.9894 O   0  0  0  0  0  0
   26.7749    3.3641   -0.2883 C   0  0  0  0  0  0
   33.1541    5.2810   -1.1135 O   0  0  0  0  0  0
   27.5827    5.9172    4.2785 C   0  0  0  0  0  0
   24.3292    4.2472    3.1084 C   0  0  0  0  0  0
   24.9593    5.5841    5.1716 C   0  0  0  0  0  0
   34.0862    5.6787   -0.1193 C   0  0  0  0  0  0
   27.2035    6.4038    5.5266 C   0  0  0  0  0  0
   25.8903    6.2477    5.9662 C   0  0  0  0  0  0
   28.5984    2.1319   -4.0363 H   0  0  0  0  0  0
   27.4814    3.8581    2.2137 H   0  0  0  0  0  0
   26.0423    5.0999   -1.6481 H   0  0  0  0  0  0
   27.4267    4.2106   -3.9823 H   0  0  0  0  0  0
   26.6819    7.3905   -1.3873 H   0  0  0  0  0  0
   28.3610    6.9387   -1.4059 H   0  0  0  0  0  0
   29.9912    7.6402   -4.1979 H   0  0  0  0  0  0
   31.7475    6.2466   -5.2163 H   0  0  0  0  0  0
   27.7101    7.9035   -3.5789 H   0  0  0  0  0  0
   29.0891    3.7114   -2.1721 H   0  0  0  0  0  0
   29.5729    5.3319    1.7354 H   0  0  0  0  0  0
   27.7860    1.3886   -8.1673 H   0  0  0  0  0  0
   27.0067    2.2483   -6.8021 H   0  0  0  0  0  0
   28.2843    3.0498   -7.7587 H   0  0  0  0  0  0
   31.4777    4.1002   -2.6256 H   0  0  0  0  0  0
   31.8884    5.7838    1.2964 H   0  0  0  0  0  0
   31.3570    2.8460   -6.0070 H   0  0  0  0  0  0
   25.8611    5.7843   -3.7210 H   0  0  0  0  0  0
   27.0079    2.6527    0.4887 H   0  0  0  0  0  0
   25.6884    3.4879   -0.2542 H   0  0  0  0  0  0
   26.9813    2.8620   -1.2156 H   0  0  0  0  0  0
   28.5964    6.0611    3.9350 H   0  0  0  0  0  0
   24.2115    4.6494    2.1050 H   0  0  0  0  0  0
   24.6858    3.2242    2.9769 H   0  0  0  0  0  0
   23.3442    4.2191    3.5754 H   0  0  0  0  0  0
   23.9500    5.4563    5.5341 H   0  0  0  0  0  0
   35.0775    5.7660   -0.5595 H   0  0  0  0  0  0
   33.8251    6.6472    0.2989 H   0  0  0  0  0  0
   34.1448    4.9455    0.6861 H   0  0  0  0  0  0
   27.9165    6.9265    6.1471 H   0  0  0  0  0  0
   25.5933    6.6405    6.9262 H   0  0  0  0  0  0
  1  5  1  0  0  0
  1 11  2  0  0  0
  1 12  2  0  0  0
  1 23  1  0  0  0
  2  3  1  0  0  0
  2  6  1  0  0  0
  2 15  2  0  0  0
  3  7  1  0  0  0
  3 13  1  0  0  0
  3 29  1  0  0  0
  4  5  1  0  0  0
  4  8  1  0  0  0
  4 14  2  0  0  0
  5 37  1  0  0  0
  6  9  1  0  0  0
  6 38  1  0  0  0
  7 16  1  0  0  0
  7 39  1  0  0  0
  8 10  2  0  0  0
  8 40  1  0  0  0
  9 18  2  0  0  0
  9 31  1  0  0  0
 10 20  1  0  0  0
 10 17  1  0  0  0
 13 21  1  0  0  0
 13 22  2  0  0  0
 14 19  1  0  0  0
 14 27  1  0  0  0
 16 20  1  0  0  0
 16 41  1  0  0  0
 16 42  1  0  0  0
 17 19  2  0  0  0
 17 43  1  0  0  0
 18 32  1  0  0  0
 18 33  1  0  0  0
 19 44  1  0  0  0
 20 28  1  0  0  0
 20 45  1  0  0  0
 21 25  2  0  0  0
 21 46  1  0  0  0
 22 26  1  0  0  0
 22 47  1  0  0  0
 23 48  1  0  0  0
 23 49  1  0  0  0
 23 50  1  0  0  0
 24 26  2  0  0  0
 24 30  1  0  0  0
 24 25  1  0  0  0
 25 51  1  0  0  0
 26 52  1  0  0  0
 27 53  1  0  0  0
 28 54  1  0  0  0
 29 55  1  0  0  0
 29 56  1  0  0  0
 29 57  1  0  0  0
 30 34  1  0  0  0
 31 35  2  0  0  0
 31 58  1  0  0  0
 32 59  1  0  0  0
 32 60  1  0  0  0
 32 61  1  0  0  0
 33 36  2  0  0  0
 33 62  1  0  0  0
 34 63  1  0  0  0
 34 64  1  0  0  0
 34 65  1  0  0  0
 35 36  1  0  0  0
 35 66  1  0  0  0
 36 67  1  0  0  0
M  END
> <s_m_entry_id>
3179

> <s_m_entry_name>
dock_pv.271

> <s_m_Source_Path>
/home/csk/Desktop/cluster/DUD-E-result/adrb1

> <s_m_Source_File>
dock_pv.maegz

> <i_m_Source_File_Index>
271

> <chembl_id>
CHEMBL119128

> <chembl_pref_name>
None

> <i_lp_mmshare_version>
53161

> <i_f3d_flags>
0

> <r_lp_tautomer_probability>
1

> <s_lp_Force_Field>
OPLS_2005

> <r_lp_Energy>
32.231154

> <b_lp_Chiralities_Consistent>
1

> <s_lp_Variant>
CHEMBL213_lig628-1

> <s_i_glide_gridfile>
glide-grid_2vt4

> <i_i_glide_lignum>
730

> <i_i_glide_rotatable_bonds>
13

> <r_i_docking_score>
-7.31515295342509

> <r_i_glide_ligand_efficiency>
-0.203198693150697

> <r_i_glide_ligand_efficiency_sa>
-0.670947301052613

> <r_i_glide_ligand_efficiency_ln>
-1.59596874184381

> <r_i_glide_gscore>
-7.31515295342509

> <r_i_glide_lipo>
-3.08212165955259

> <r_i_glide_hbond>
-0.516577265252004

> <r_i_glide_metal>
0

> <r_i_glide_rewards>
-1.13166112280299

> <r_i_glide_evdw>
-36.3200302124023

> <r_i_glide_ecoul>
-9.52480602264404

> <r_i_glide_erotb>
0.699660897474491

> <r_i_glide_esite>
-0.0397313892752746

> <r_i_glide_emodel>
-51.1922614754435

> <r_i_glide_energy>
-45.8448362350464

> <r_i_glide_einternal>
14.3263816833496

> <i_i_glide_confnum>
15

> <i_i_glide_posenum>
27

> <r_i_glide_eff_state_penalty>
0

> <s_user_duplicate_titles>
CHEMBL213_lig628

> <s_m_subgroup_title>
dock_pv

> <s_m_subgroupid>
dock_pv

> <b_m_subgroup_collapsed>
1

$$$$
CHEMBL213_lig321
                    3D
 Schrodinger Suite 2021-1.
 76 81  0  0  1  0            999 V2000
   35.1536    6.9934    3.5173 S   0  0  0  0  0  0
   28.6282    5.2436    2.3853 N   0  0  0  0  0  0
   29.1492    5.8843    3.3946 C   0  0  0  0  0  0
   27.9832    6.2834    4.6226 S   0  0  0  0  0  0
   35.6964    7.2713    1.8411 N   0  0  0  0  0  0
   27.3178    5.1430    2.4163 C   0  0  0  0  0  0
   33.3782    6.7111    3.4796 C   0  0  0  0  0  0
   26.7394    5.6291    3.5866 C   0  0  0  0  0  0
   35.7989    5.7777    4.0203 O   0  0  0  0  0  0
   35.3694    8.2685    4.2068 O   0  0  0  0  0  0
   30.6066    6.2502    3.4374 C   0  0  0  0  0  0
   32.2802    3.2170   -6.2867 C   0  0  0  0  0  0
   28.9437    5.4074   -1.8112 C   0  0  0  0  0  0
   28.4632    4.8539   -0.6003 C   0  0  0  0  0  0
   27.1590    5.1071   -0.1529 C   0  0  0  0  0  0
   30.7801    1.8490   -7.6177 N   0  0  0  0  0  0
   32.7766    6.1713    2.3483 C   0  0  0  0  0  0
   32.5920    7.0402    4.5847 C   0  0  0  0  0  0
   26.6559    4.5349    1.1815 C   0  0  0  0  0  0
   31.2119    6.8409    4.5541 C   0  0  0  0  0  0
   31.4087    5.9399    2.3284 C   0  0  0  0  0  0
   35.8108    6.3145    0.8172 C   0  0  0  0  0  0
   28.0653    6.2151   -2.5971 C   0  0  0  0  0  0
   26.7497    6.4454   -2.1341 C   0  0  0  0  0  0
   33.5545    4.0745   -6.2200 C   0  0  1  0  0  0
   26.3175    5.8957   -0.9307 C   0  0  0  0  0  0
   34.1360    3.5918   -3.7963 N   0  0  2  0  0  0
   36.0972    4.5393   -1.3252 C   0  0  0  0  0  0
   31.9191    2.5782   -7.4803 C   0  0  0  0  0  0
   35.8487    6.7894   -0.4978 C   0  0  0  0  0  0
   35.8961    4.9380    1.0476 C   0  0  0  0  0  0
   35.9916    5.9051   -1.5669 C   0  0  0  0  0  0
   36.0460    4.0561   -0.0188 C   0  0  0  0  0  0
   33.2583    5.4493   -6.0808 O   0  0  0  0  0  0
   34.6197    3.6275   -5.1795 C   0  0  0  0  0  0
   31.4142    3.0665   -5.1922 C   0  0  0  0  0  0
   29.9606    1.7345   -6.5444 C   0  0  0  0  0  0
   30.2724    5.1942   -2.2594 C   0  0  0  0  0  0
   35.0126    2.8342   -2.9136 C   0  0  0  0  0  0
   28.5338    6.7612   -3.8152 C   0  0  0  0  0  0
   36.2916    3.5705   -2.4838 C   0  0  0  0  0  0
   30.2428    2.3239   -5.3142 C   0  0  0  0  0  0
   30.7095    5.7771   -3.4485 C   0  0  0  0  0  0
   29.8417    6.5264   -4.2325 C   0  0  0  0  0  0
   35.6614    8.2324    1.5464 H   0  0  0  0  0  0
   25.6968    5.6607    3.8641 H   0  0  0  0  0  0
   29.1380    4.2495   -0.0161 H   0  0  0  0  0  0
   33.3461    5.9153    1.4703 H   0  0  0  0  0  0
   33.0456    7.4498    5.4712 H   0  0  0  0  0  0
   26.8048    3.4575    1.1572 H   0  0  0  0  0  0
   25.5747    4.6502    1.2459 H   0  0  0  0  0  0
   30.6304    7.1041    5.4223 H   0  0  0  0  0  0
   30.9844    5.4954    1.4414 H   0  0  0  0  0  0
   26.0771    7.0471   -2.7251 H   0  0  0  0  0  0
   34.0449    4.0094   -7.1937 H   0  0  0  0  0  0
   25.3010    6.0695   -0.6145 H   0  0  0  0  0  0
   33.2078    3.1929   -3.7749 H   0  0  0  0  0  0
   32.5352    2.6565   -8.3631 H   0  0  0  0  0  0
   35.7762    7.8487   -0.7019 H   0  0  0  0  0  0
   35.8476    4.5200    2.0375 H   0  0  0  0  0  0
   36.0339    6.2693   -2.5817 H   0  0  0  0  0  0
   36.1245    2.9970    0.1719 H   0  0  0  0  0  0
   34.0721    5.9577   -6.1844 H   0  0  0  0  0  0
   34.9619    2.6315   -5.4648 H   0  0  0  0  0  0
   35.4891    4.2843   -5.2451 H   0  0  0  0  0  0
   31.6272    3.5253   -4.2457 H   0  0  0  0  0  0
   29.0536    1.1625   -6.6836 H   0  0  0  0  0  0
   30.9448    4.5871   -1.6729 H   0  0  0  0  0  0
   34.4272    2.6500   -2.0144 H   0  0  0  0  0  0
   35.2417    1.8462   -3.3062 H   0  0  0  0  0  0
   27.8716    7.3689   -4.4140 H   0  0  0  0  0  0
   37.0079    2.8197   -2.1614 H   0  0  0  0  0  0
   36.7777    4.0694   -3.3223 H   0  0  0  0  0  0
   29.5666    2.2164   -4.4752 H   0  0  0  0  0  0
   31.7275    5.6310   -3.7814 H   0  0  0  0  0  0
   30.1993    6.9373   -5.1672 H   0  0  0  0  0  0
  1  5  1  0  0  0
  1  7  1  0  0  0
  1  9  2  0  0  0
  1 10  2  0  0  0
  2  3  2  0  0  0
  2  6  1  0  0  0
  3 11  1  0  0  0
  3  4  1  0  0  0
  4  8  1  0  0  0
  5 22  1  0  0  0
  5 45  1  0  0  0
  6 19  1  0  0  0
  6  8  2  0  0  0
  7 17  2  0  0  0
  7 18  1  0  0  0
  8 46  1  0  0  0
 11 20  1  0  0  0
 11 21  2  0  0  0
 12 25  1  0  0  0
 12 29  2  0  0  0
 12 36  1  0  0  0
 13 14  1  0  0  0
 13 38  2  0  0  0
 13 23  1  0  0  0
 14 15  2  0  0  0
 14 47  1  0  0  0
 15 19  1  0  0  0
 15 26  1  0  0  0
 16 29  1  0  0  0
 16 37  2  0  0  0
 17 21  1  0  0  0
 17 48  1  0  0  0
 18 20  2  0  0  0
 18 49  1  0  0  0
 19 50  1  0  0  0
 19 51  1  0  0  0
 20 52  1  0  0  0
 21 53  1  0  0  0
 22 30  1  0  0  0
 22 31  2  0  0  0
 23 24  1  0  0  0
 23 40  2  0  0  0
 24 26  2  0  0  0
 24 54  1  0  0  0
 25 35  1  0  0  0
 25 34  1  0  0  0
 25 55  1  0  0  0
 26 56  1  0  0  0
 27 39  1  0  0  0
 27 35  1  0  0  0
 27 57  1  0  0  0
 28 33  2  0  0  0
 28 41  1  0  0  0
 28 32  1  0  0  0
 29 58  1  0  0  0
 30 32  2  0  0  0
 30 59  1  0  0  0
 31 33  1  0  0  0
 31 60  1  0  0  0
 32 61  1  0  0  0
 33 62  1  0  0  0
 34 63  1  0  0  0
 35 64  1  0  0  0
 35 65  1  0  0  0
 36 42  2  0  0  0
 36 66  1  0  0  0
 37 42  1  0  0  0
 37 67  1  0  0  0
 38 43  1  0  0  0
 38 68  1  0  0  0
 39 41  1  0  0  0
 39 69  1  0  0  0
 39 70  1  0  0  0
 40 44  1  0  0  0
 40 71  1  0  0  0
 41 72  1  0  0  0
 41 73  1  0  0  0
 42 74  1  0  0  0
 43 44  2  0  0  0
 43 75  1  0  0  0
 44 76  1  0  0  0
M  END
> <s_m_entry_id>
3180

> <s_m_entry_name>
dock_pv.272

> <s_m_Source_Path>
/home/csk/Desktop/cluster/DUD-E-result/adrb1

> <s_m_Source_File>
dock_pv.maegz

> <i_m_Source_File_Index>
272

> <chembl_id>
CHEMBL418308

> <chembl_pref_name>
None

> <i_lp_mmshare_version>
53161

> <i_f3d_flags>
0

> <r_lp_tautomer_probability>
1

> <s_lp_Force_Field>
OPLS_2005

> <r_lp_Energy>
23.781856

> <b_lp_Chiralities_Consistent>
1

> <s_lp_Variant>
CHEMBL213_lig321-1

> <s_i_glide_gridfile>
glide-grid_2vt4

> <i_i_glide_lignum>
382

> <i_i_glide_rotatable_bonds>
13

> <r_i_docking_score>
-7.31011903662035

> <r_i_glide_ligand_efficiency>
-0.166139069014099

> <r_i_glide_ligand_efficiency_sa>
-0.586528784986701

> <r_i_glide_ligand_efficiency_ln>
-1.52797434800538

> <r_i_glide_gscore>
-7.31011903662035

> <r_i_glide_lipo>
-3.52929991864864

> <r_i_glide_hbond>
-0.0325951362131326

> <r_i_glide_metal>
0

> <r_i_glide_rewards>
-0.238868252746442

> <r_i_glide_evdw>
-64.9313201904297

> <r_i_glide_ecoul>
-4.21877717971802

> <r_i_glide_erotb>
0.470026857467053

> <r_i_glide_esite>
-0.1

> <r_i_glide_emodel>
-93.9966102724192

> <r_i_glide_energy>
-69.1500973701477

> <r_i_glide_einternal>
7.36529731750488

> <i_i_glide_confnum>
62

> <i_i_glide_posenum>
57

> <r_i_glide_eff_state_penalty>
0

> <s_user_duplicate_titles>
CHEMBL213_lig321

> <s_m_subgroup_title>
dock_pv

> <s_m_subgroupid>
dock_pv

> <b_m_subgroup_collapsed>
1

$$$$
CHEMBL213_lig234
                    3D
 Schrodinger Suite 2021-1.
 49 50  0  0  1  0            999 V2000
   30.6489    4.9088   -3.7434 C   0  0  0  0  0  0
   30.4074    4.4037   -2.5180 N   0  0  0  0  0  0
   31.4073    5.8499   -3.9796 O   0  0  0  0  0  0
   30.9819    4.8135   -1.3037 C   0  0  0  0  0  0
   26.3885    5.6371    3.8899 O   0  0  0  0  0  0
   25.8839    4.8571    2.8632 C   0  0  0  0  0  0
   28.2162    7.0711    4.8343 C   0  0  1  0  0  0
   24.7337    3.2202    0.9197 C   0  0  0  0  0  0
   27.7741    5.9628    3.8510 C   0  0  0  0  0  0
   30.5117    6.6501    3.8734 N   0  0  1  0  0  0
   31.9672    5.6363    1.1850 C   0  0  0  0  0  0
   30.2047    4.6544   -0.1563 C   0  0  0  0  0  0
   32.2783    5.3424   -1.2020 C   0  0  0  0  0  0
   24.6495    4.2501    3.0939 C   0  0  0  0  0  0
   26.5252    4.6501    1.6254 C   0  0  0  0  0  0
   24.0761    3.4261    2.1293 C   0  0  0  0  0  0
   25.9418    3.8479    0.6535 C   0  0  0  0  0  0
   30.6983    5.0514    1.0864 C   0  0  0  0  0  0
   32.7605    5.7590    0.0370 C   0  0  0  0  0  0
   28.2082    6.6409    6.1836 O   0  0  0  0  0  0
   24.2080    2.3753   -0.0149 O   0  0  0  0  0  0
   29.6132    7.6410    4.4709 C   0  0  0  0  0  0
   29.8805    4.2560   -4.8859 C   0  0  0  0  0  0
   31.6623    7.2307    3.2026 C   0  0  0  0  0  0
   32.5119    6.1424    2.5243 C   0  0  0  0  0  0
   29.6805    3.7066   -2.4441 H   0  0  0  0  0  0
   27.4886    7.8820    4.7818 H   0  0  0  0  0  0
   28.0314    6.3486    2.8681 H   0  0  0  0  0  0
   28.3623    5.0555    4.0007 H   0  0  0  0  0  0
   30.7346    5.8247    4.4259 H   0  0  0  0  0  0
   29.2078    4.2445   -0.2255 H   0  0  0  0  0  0
   32.9143    5.4458   -2.0684 H   0  0  0  0  0  0
   24.1445    4.4060    4.0360 H   0  0  0  0  0  0
   27.4730    5.0949    1.3765 H   0  0  0  0  0  0
   23.1305    2.9437    2.3272 H   0  0  0  0  0  0
   26.4411    3.6843   -0.2909 H   0  0  0  0  0  0
   30.0848    4.9256    1.9657 H   0  0  0  0  0  0
   33.7430    6.2063    0.0958 H   0  0  0  0  0  0
   27.6354    7.2424    6.6803 H   0  0  0  0  0  0
   23.7838    2.8431   -0.7576 H   0  0  0  0  0  0
   30.0788    8.1526    5.3142 H   0  0  0  0  0  0
   29.4264    8.3998    3.7161 H   0  0  0  0  0  0
   28.8133    4.4582   -4.7877 H   0  0  0  0  0  0
   30.0322    3.1774   -4.8849 H   0  0  0  0  0  0
   30.2159    4.6517   -5.8444 H   0  0  0  0  0  0
   32.2684    7.8495    3.8629 H   0  0  0  0  0  0
   31.2849    7.8762    2.4120 H   0  0  0  0  0  0
   32.6738    5.3161    3.2128 H   0  0  0  0  0  0
   33.5036    6.5657    2.3589 H   0  0  0  0  0  0
  1  2  1  0  0  0
  1  3  2  0  0  0
  1 23  1  0  0  0
  2  4  1  0  0  0
  2 26  1  0  0  0
  4 12  1  0  0  0
  4 13  2  0  0  0
  5  9  1  0  0  0
  5  6  1  0  0  0
  6 14  2  0  0  0
  6 15  1  0  0  0
  7 22  1  0  0  0
  7  9  1  0  0  0
  7 20  1  0  0  0
  7 27  1  0  0  0
  8 17  1  0  0  0
  8 21  1  0  0  0
  8 16  2  0  0  0
  9 28  1  0  0  0
  9 29  1  0  0  0
 10 24  1  0  0  0
 10 22  1  0  0  0
 10 30  1  0  0  0
 11 19  2  0  0  0
 11 25  1  0  0  0
 11 18  1  0  0  0
 12 18  2  0  0  0
 12 31  1  0  0  0
 13 19  1  0  0  0
 13 32  1  0  0  0
 14 16  1  0  0  0
 14 33  1  0  0  0
 15 17  2  0  0  0
 15 34  1  0  0  0
 16 35  1  0  0  0
 17 36  1  0  0  0
 18 37  1  0  0  0
 19 38  1  0  0  0
 20 39  1  0  0  0
 21 40  1  0  0  0
 22 41  1  0  0  0
 22 42  1  0  0  0
 23 43  1  0  0  0
 23 44  1  0  0  0
 23 45  1  0  0  0
 24 25  1  0  0  0
 24 46  1  0  0  0
 24 47  1  0  0  0
 25 48  1  0  0  0
 25 49  1  0  0  0
M  END
> <s_m_entry_id>
3181

> <s_m_entry_name>
dock_pv.273

> <s_m_Source_Path>
/home/csk/Desktop/cluster/DUD-E-result/adrb1

> <s_m_Source_File>
dock_pv.maegz

> <i_m_Source_File_Index>
273

> <chembl_id>
CHEMBL13102

> <chembl_pref_name>
None

> <i_lp_mmshare_version>
53161

> <i_f3d_flags>
0

> <r_lp_tautomer_probability>
1

> <s_lp_Force_Field>
OPLS_2005

> <r_lp_Energy>
25.006646

> <b_lp_Chiralities_Consistent>
1

> <s_lp_Variant>
CHEMBL213_lig234-1

> <s_i_glide_gridfile>
glide-grid_2vt4

> <i_i_glide_lignum>
269

> <i_i_glide_rotatable_bonds>
12

> <r_i_docking_score>
-7.30757459888982

> <r_i_glide_ligand_efficiency>
-0.292302983955593

> <r_i_glide_ligand_efficiency_sa>
-0.854699109101648

> <r_i_glide_ligand_efficiency_ln>
-1.73211417027618

> <r_i_glide_gscore>
-7.30757459888982

> <r_i_glide_lipo>
-3.14447994661964

> <r_i_glide_hbond>
-0.56152963065787

> <r_i_glide_metal>
0

> <r_i_glide_rewards>
-1.18057622313415

> <r_i_glide_evdw>
-32.1586875915527

> <r_i_glide_ecoul>
-15.0061960220337

> <r_i_glide_erotb>
1.44065676456779

> <r_i_glide_esite>
-0.00278178016326839

> <r_i_glide_emodel>
-60.1091217919544

> <r_i_glide_energy>
-47.1648836135864

> <r_i_glide_einternal>
17.4152145385742

> <i_i_glide_confnum>
75

> <i_i_glide_posenum>
23

> <r_i_glide_eff_state_penalty>
0

> <s_user_duplicate_titles>
CHEMBL213_lig234,11552

> <s_m_subgroup_title>
dock_pv

> <s_m_subgroupid>
dock_pv

> <b_m_subgroup_collapsed>
1

$$$$
CHEMBL213_lig135
                    3D
 Schrodinger Suite 2021-1.
 59 61  0  0  1  0            999 V2000
   30.4058    2.8806   -5.6400 N   0  0  0  0  0  0
   30.7412    2.4683   -6.9134 C   0  0  0  0  0  0
   31.1889    3.6005   -4.7061 C   0  0  0  0  0  0
   29.7777    1.8500   -7.5595 N   0  0  0  0  0  0
   29.1110    2.4397   -5.5046 C   0  0  0  0  0  0
   28.7721    1.8432   -6.7095 C   0  0  0  0  0  0
   32.5790    3.4497   -4.6870 C   0  0  0  0  0  0
   30.5746    4.4735   -3.8037 C   0  0  0  0  0  0
   31.7078    7.0824    4.0555 O   0  0  0  0  0  0
   30.3634    6.7602    4.0146 C   0  0  0  0  0  0
   33.9388    7.2156    3.0520 C   0  0  1  0  0  0
   32.7334    5.0450   -2.8668 C   0  0  0  0  0  0
   32.6223    6.4143    3.1837 C   0  0  0  0  0  0
   31.3468    5.1906   -2.8936 C   0  0  0  0  0  0
   33.3466    4.1674   -3.7744 C   0  0  0  0  0  0
   34.3394    6.2498    0.7702 N   0  0  2  0  0  0
   27.6096    6.2051    4.0876 C   0  0  0  0  0  0
   29.5265    7.4522    4.8871 C   0  0  0  0  0  0
   29.8084    5.7773    3.1848 C   0  0  0  0  0  0
   28.4501    5.4909    3.2286 C   0  0  0  0  0  0
   28.1605    7.1793    4.9222 C   0  0  0  0  0  0
   34.5662    7.2701    4.3188 O   0  0  0  0  0  0
   33.4283    5.8016   -1.9394 O   0  0  0  0  0  0
   25.7867    4.6500    2.0904 O   0  0  0  0  0  0
   34.9638    6.6417    2.0335 C   0  0  0  0  0  0
   35.2805    6.1541   -0.3382 C   0  0  0  0  0  0
   26.0936    5.9928    4.1150 C   0  0  0  0  0  0
   34.7006    5.3152   -1.4952 C   0  0  0  0  0  0
   25.5474    4.6920    3.4927 C   0  0  0  0  0  0
   25.1123    3.5898    1.4245 C   0  0  0  0  0  0
   31.7210    2.6914   -7.3110 H   0  0  0  0  0  0
   28.5522    2.6022   -4.5932 H   0  0  0  0  0  0
   27.8090    1.4229   -6.9583 H   0  0  0  0  0  0
   33.0798    2.7841   -5.3741 H   0  0  0  0  0  0
   29.5030    4.6036   -3.8017 H   0  0  0  0  0  0
   33.6899    8.2442    2.7842 H   0  0  0  0  0  0
   32.8190    5.4103    3.5557 H   0  0  0  0  0  0
   32.1909    6.3220    2.1870 H   0  0  0  0  0  0
   30.8595    5.8502   -2.1949 H   0  0  0  0  0  0
   34.4182    4.0419   -3.7917 H   0  0  0  0  0  0
   33.6259    6.9381    0.5356 H   0  0  0  0  0  0
   29.9412    8.2168    5.5275 H   0  0  0  0  0  0
   30.4189    5.1914    2.5161 H   0  0  0  0  0  0
   28.0802    4.7154    2.5745 H   0  0  0  0  0  0
   27.5248    7.7486    5.5825 H   0  0  0  0  0  0
   33.9126    7.6114    4.9346 H   0  0  0  0  0  0
   35.7408    7.3852    1.8604 H   0  0  0  0  0  0
   35.4380    5.7499    2.4425 H   0  0  0  0  0  0
   35.5270    7.1563   -0.6948 H   0  0  0  0  0  0
   36.2112    5.6906   -0.0059 H   0  0  0  0  0  0
   25.6230    6.8434    3.6202 H   0  0  0  0  0  0
   25.7692    6.0237    5.1561 H   0  0  0  0  0  0
   35.4189    5.3350   -2.3168 H   0  0  0  0  0  0
   34.6038    4.2776   -1.1670 H   0  0  0  0  0  0
   24.4724    4.6465    3.6847 H   0  0  0  0  0  0
   26.0032    3.8381    3.9844 H   0  0  0  0  0  0
   25.3620    3.6072    0.3636 H   0  0  0  0  0  0
   24.0287    3.6963    1.5137 H   0  0  0  0  0  0
   25.4025    2.6160    1.8209 H   0  0  0  0  0  0
  1  2  1  0  0  0
  1  3  1  0  0  0
  1  5  1  0  0  0
  2  4  2  0  0  0
  2 31  1  0  0  0
  3  7  1  0  0  0
  3  8  2  0  0  0
  4  6  1  0  0  0
  5  6  2  0  0  0
  5 32  1  0  0  0
  6 33  1  0  0  0
  7 15  2  0  0  0
  7 34  1  0  0  0
  8 14  1  0  0  0
  8 35  1  0  0  0
  9 13  1  0  0  0
  9 10  1  0  0  0
 10 18  2  0  0  0
 10 19  1  0  0  0
 11 25  1  0  0  0
 11 13  1  0  0  0
 11 22  1  0  0  0
 11 36  1  0  0  0
 12 14  2  0  0  0
 12 23  1  0  0  0
 12 15  1  0  0  0
 13 37  1  0  0  0
 13 38  1  0  0  0
 14 39  1  0  0  0
 15 40  1  0  0  0
 16 26  1  0  0  0
 16 25  1  0  0  0
 16 41  1  0  0  0
 17 20  1  0  0  0
 17 27  1  0  0  0
 17 21  2  0  0  0
 18 21  1  0  0  0
 18 42  1  0  0  0
 19 20  2  0  0  0
 19 43  1  0  0  0
 20 44  1  0  0  0
 21 45  1  0  0  0
 22 46  1  0  0  0
 23 28  1  0  0  0
 24 29  1  0  0  0
 24 30  1  0  0  0
 25 47  1  0  0  0
 25 48  1  0  0  0
 26 28  1  0  0  0
 26 49  1  0  0  0
 26 50  1  0  0  0
 27 29  1  0  0  0
 27 51  1  0  0  0
 27 52  1  0  0  0
 28 53  1  0  0  0
 28 54  1  0  0  0
 29 55  1  0  0  0
 29 56  1  0  0  0
 30 57  1  0  0  0
 30 58  1  0  0  0
 30 59  1  0  0  0
M  END
> <s_m_entry_id>
3182

> <s_m_entry_name>
dock_pv.274

> <s_m_Source_Path>
/home/csk/Desktop/cluster/DUD-E-result/adrb1

> <s_m_Source_File>
dock_pv.maegz

> <i_m_Source_File_Index>
274

> <chembl_id>
CHEMBL95457

> <chembl_pref_name>
None

> <i_lp_mmshare_version>
53161

> <i_f3d_flags>
0

> <r_lp_tautomer_probability>
1

> <s_lp_Force_Field>
OPLS_2005

> <r_lp_Energy>
30.306553

> <b_lp_Chiralities_Consistent>
1

> <s_lp_Variant>
CHEMBL213_lig135-2

> <s_i_glide_gridfile>
glide-grid_2vt4

> <i_i_glide_lignum>
166

> <i_i_glide_rotatable_bonds>
14

> <r_i_docking_score>
-7.30752650953257

> <r_i_glide_ligand_efficiency>
-0.243584216984419

> <r_i_glide_ligand_efficiency_sa>
-0.756872796093214

> <r_i_glide_ligand_efficiency_ln>
-1.66034964484433

> <r_i_glide_gscore>
-7.30752650953257

> <r_i_glide_lipo>
-3.59526362828761

> <r_i_glide_hbond>
-0.432136655616278

> <r_i_glide_metal>
0

> <r_i_glide_rewards>
-1.33438405118937

> <r_i_glide_evdw>
-47.0684776306152

> <r_i_glide_ecoul>
-6.594313621521

> <r_i_glide_erotb>
1.3968287503196

> <r_i_glide_esite>
0

> <r_i_glide_emodel>
-72.6840569642117

> <r_i_glide_energy>
-53.6627912521362

> <r_i_glide_einternal>
11.995343208313

> <i_i_glide_confnum>
10

> <i_i_glide_posenum>
331

> <r_i_glide_eff_state_penalty>
0

> <s_user_duplicate_titles>
CHEMBL213_lig135,160347

> <s_m_subgroup_title>
dock_pv

> <s_m_subgroupid>
dock_pv

> <b_m_subgroup_collapsed>
1

$$$$
CHEMBL213_lig1398
                    3D
 Schrodinger Suite 2021-1.
 64 68  0  0  1  0            999 V2000
   29.0022    6.1415    4.7734 N   0  0  1  0  0  0
   29.6725    6.3173    3.4968 C   0  0  0  0  0  0
   31.0993    6.8148    3.7014 C   0  0  0  0  0  0
   31.8486    6.9917    2.3780 C   0  0  0  0  0  0
   31.8552    5.8405    1.4245 N   0  0  0  0  0  0
   30.5171    5.2493    1.2978 C   0  0  0  0  0  0
   29.7572    5.0504    2.6257 C   0  0  0  0  0  0
   32.9249    5.6388    0.5209 C   0  0  0  0  0  0
   34.1265    5.9574    1.0882 N   0  0  0  0  0  0
   35.2627    5.7255    0.4088 C   0  0  0  0  0  0
   35.3749    5.1644   -0.8071 N   0  0  0  0  0  0
   32.8997    5.0640   -0.8144 C   0  0  0  0  0  0
   34.2125    4.8476   -1.3739 C   0  0  0  0  0  0
   34.2131    4.0633   -2.9247 S   0  0  0  0  0  0
   32.4748    4.0504   -2.9148 C   0  0  0  0  0  0
   31.8915    4.6578   -1.7981 C   0  0  0  0  0  0
   28.0339    7.1528    5.1883 C   0  0  0  0  0  0
   26.6189    6.9162    4.6026 C   0  0  1  0  0  0
   26.0879    5.4826    4.8607 C   0  0  0  0  0  0
   25.7321    7.8500    5.1850 O   0  0  0  0  0  0
   24.9977    5.0499    4.0440 O   0  0  0  0  0  0
   25.2363    4.5366    2.7823 C   0  0  0  0  0  0
   24.3269    3.5960    2.2938 C   0  0  0  0  0  0
   24.4939    3.0444    1.0251 C   0  0  0  0  0  0
   25.5509    3.4542    0.2217 C   0  0  0  0  0  0
   26.4489    4.4092    0.6779 C   0  0  0  0  0  0
   26.2923    4.9421    1.9535 C   0  0  0  0  0  0
   30.3851    4.8440   -1.7150 C   0  0  0  0  0  0
   31.8056    3.3959   -4.0823 C   0  0  0  0  0  0
   32.1046    3.7806   -5.3944 C   0  0  0  0  0  0
   31.4637    3.1643   -6.4664 C   0  0  0  0  0  0
   30.5166    2.1706   -6.2294 C   0  0  0  0  0  0
   30.2093    1.7821   -4.9276 C   0  0  0  0  0  0
   30.8584    2.3921   -3.8567 C   0  0  0  0  0  0
   28.5956    5.2158    4.7880 H   0  0  0  0  0  0
   29.1396    7.0500    2.9003 H   0  0  0  0  0  0
   31.0817    7.7743    4.2212 H   0  0  0  0  0  0
   31.6835    6.1566    4.3420 H   0  0  0  0  0  0
   31.4077    7.8492    1.8747 H   0  0  0  0  0  0
   32.8632    7.2826    2.6471 H   0  0  0  0  0  0
   29.9247    5.8279    0.6009 H   0  0  0  0  0  0
   30.6223    4.2503    0.8834 H   0  0  0  0  0  0
   30.2080    4.2137    3.1343 H   0  0  0  0  0  0
   28.7752    4.6604    2.4055 H   0  0  0  0  0  0
   36.1853    6.0000    0.8978 H   0  0  0  0  0  0
   28.4102    8.1548    4.9775 H   0  0  0  0  0  0
   27.9705    7.0503    6.2728 H   0  0  0  0  0  0
   26.6077    7.1542    3.5498 H   0  0  0  0  0  0
   25.7647    5.4496    5.9025 H   0  0  0  0  0  0
   26.8746    4.7320    4.7832 H   0  0  0  0  0  0
   26.0754    8.1149    6.0583 H   0  0  0  0  0  0
   23.4887    3.2900    2.9002 H   0  0  0  0  0  0
   23.8082    2.3051    0.6458 H   0  0  0  0  0  0
   25.6608    3.0460   -0.7725 H   0  0  0  0  0  0
   27.2576    4.7391    0.0415 H   0  0  0  0  0  0
   26.9930    5.6944    2.2510 H   0  0  0  0  0  0
   29.9049    4.7104   -2.6846 H   0  0  0  0  0  0
   29.8940    4.1201   -1.0680 H   0  0  0  0  0  0
   30.0960    5.8498   -1.4335 H   0  0  0  0  0  0
   32.8285    4.5604   -5.5850 H   0  0  0  0  0  0
   31.6956    3.4637   -7.4780 H   0  0  0  0  0  0
   30.0130    1.7015   -7.0615 H   0  0  0  0  0  0
   29.4669    1.0191   -4.7451 H   0  0  0  0  0  0
   30.6108    2.0908   -2.8487 H   0  0  0  0  0  0
  1 17  1  0  0  0
  1  2  1  0  0  0
  1 35  1  0  0  0
  2  3  1  0  0  0
  2  7  1  0  0  0
  2 36  1  0  0  0
  3  4  1  0  0  0
  3 37  1  0  0  0
  3 38  1  0  0  0
  4  5  1  0  0  0
  4 39  1  0  0  0
  4 40  1  0  0  0
  5  6  1  0  0  0
  5  8  1  0  0  0
  6  7  1  0  0  0
  6 41  1  0  0  0
  6 42  1  0  0  0
  7 43  1  0  0  0
  7 44  1  0  0  0
  8  9  2  0  0  0
  8 12  1  0  0  0
  9 10  1  0  0  0
 10 11  2  0  0  0
 10 45  1  0  0  0
 11 13  1  0  0  0
 12 16  1  0  0  0
 12 13  2  0  0  0
 13 14  1  0  0  0
 14 15  1  0  0  0
 15 29  1  0  0  0
 15 16  2  0  0  0
 16 28  1  0  0  0
 17 18  1  0  0  0
 17 46  1  0  0  0
 17 47  1  0  0  0
 18 19  1  0  0  0
 18 20  1  0  0  0
 18 48  1  0  0  0
 19 21  1  0  0  0
 19 49  1  0  0  0
 19 50  1  0  0  0
 20 51  1  0  0  0
 21 22  1  0  0  0
 22 23  2  0  0  0
 22 27  1  0  0  0
 23 24  1  0  0  0
 23 52  1  0  0  0
 24 25  2  0  0  0
 24 53  1  0  0  0
 25 26  1  0  0  0
 25 54  1  0  0  0
 26 27  2  0  0  0
 26 55  1  0  0  0
 27 56  1  0  0  0
 28 57  1  0  0  0
 28 58  1  0  0  0
 28 59  1  0  0  0
 29 30  2  0  0  0
 29 34  1  0  0  0
 30 31  1  0  0  0
 30 60  1  0  0  0
 31 32  2  0  0  0
 31 61  1  0  0  0
 32 33  1  0  0  0
 32 62  1  0  0  0
 33 34  2  0  0  0
 33 63  1  0  0  0
 34 64  1  0  0  0
M  END
> <s_m_entry_id>
3183

> <s_m_entry_name>
dock_pv.275

> <s_m_Source_Path>
/home/csk/Desktop/cluster/DUD-E-result/adrb1

> <s_m_Source_File>
dock_pv.maegz

> <i_m_Source_File_Index>
275

> <chembl_id>
CHEMBL1258144

> <chembl_pref_name>
None

> <i_lp_mmshare_version>
53161

> <i_f3d_flags>
0

> <r_lp_tautomer_probability>
1

> <s_lp_Force_Field>
OPLS_2005

> <r_lp_Energy>
45.540523

> <b_lp_Chiralities_Consistent>
1

> <s_lp_Variant>
CHEMBL213_lig1398-2

> <s_i_glide_gridfile>
glide-grid_2vt4

> <i_i_glide_lignum>
1700

> <i_i_glide_rotatable_bonds>
9

> <r_i_docking_score>
-7.30705321798619

> <r_i_glide_ligand_efficiency>
-0.21491332994077

> <r_i_glide_ligand_efficiency_sa>
-0.696235759109568

> <r_i_glide_ligand_efficiency_ln>
-1.61433301175359

> <r_i_glide_gscore>
-7.30705321798619

> <r_i_glide_lipo>
-3.64463949630256

> <r_i_glide_hbond>
-0.201631079497769

> <r_i_glide_metal>
0

> <r_i_glide_rewards>
-0.894744431484149

> <r_i_glide_evdw>
-37.7433815002441

> <r_i_glide_ecoul>
-8.71805477142334

> <r_i_glide_erotb>
0.628839080023999

> <r_i_glide_esite>
0

> <r_i_glide_emodel>
-46.0426142480156

> <r_i_glide_energy>
-46.4614362716675

> <r_i_glide_einternal>
13.3983907699585

> <i_i_glide_confnum>
7

> <i_i_glide_posenum>
67

> <r_i_glide_eff_state_penalty>
0

> <s_user_duplicate_titles>
CHEMBL213_lig1398

> <s_m_subgroup_title>
dock_pv

> <s_m_subgroupid>
dock_pv

> <b_m_subgroup_collapsed>
1

$$$$
CHEMBL213_lig1017
                    3D
 Schrodinger Suite 2021-1.
 65 67  0  0  1  0            999 V2000
   31.2565    4.1758   -6.1736 C   0  0  0  0  0  0
   30.8990    4.1505   -4.6698 C   0  0  0  0  0  0
   30.2243    2.8072   -4.2943 C   0  0  0  0  0  0
   35.3216    6.2502   -0.2104 C   0  0  0  0  0  0
   34.0903    5.6117   -0.3532 C   0  0  0  0  0  0
   33.8662    4.7525   -1.4282 C   0  0  0  0  0  0
   34.8399    4.5581   -2.4175 C   0  0  0  0  0  0
   34.5706    3.7421   -3.6938 C   0  0  1  0  0  0
   33.1183    3.2285   -3.9064 C   0  0  0  0  0  0
   34.8971    4.4778   -4.8643 O   0  0  0  0  0  0
   32.1647    4.3445   -3.9586 N   0  0  1  0  0  0
   29.9859    5.3815   -4.3509 C   0  0  0  0  0  0
   29.2406    5.4096   -3.0077 C   0  0  0  0  0  0
   27.9045    5.8195   -2.9763 C   0  0  0  0  0  0
   27.2039    5.8415   -1.7738 C   0  0  0  0  0  0
   27.8241    5.4515   -0.5854 C   0  0  0  0  0  0
   29.1667    5.0498   -0.6100 C   0  0  0  0  0  0
   29.8657    5.0452   -1.8127 C   0  0  0  0  0  0
   27.0213    5.4981    0.5679 N   0  0  0  0  0  0
   27.3478    5.3216    1.8658 C   0  0  0  0  0  0
   36.3252    6.0161   -1.1497 C   0  0  0  0  0  0
   36.0846    5.1745   -2.2372 C   0  0  0  0  0  0
   37.0472    5.0350   -3.2166 O   0  0  0  0  0  0
   38.4254    5.2030   -2.8146 C   0  0  0  0  0  0
   38.6707    6.3096   -1.7445 C   0  0  0  0  0  0
   37.5711    6.6148   -1.0356 N   0  0  0  0  0  0
   39.7418    6.8770   -1.5512 O   0  0  0  0  0  0
   26.1689    5.4687    2.8347 C   0  0  0  0  0  0
   28.4743    5.0689    2.2920 O   0  0  0  0  0  0
   26.4456    5.1303    4.3151 C   0  0  0  0  0  0
   27.1334    6.2491    5.1167 C   0  0  0  0  0  0
   26.2671    7.4136    5.1834 N   0  0  0  0  0  0
   33.0807    5.8498    0.5400 O   0  0  0  0  0  0
   30.3746    4.1357   -6.8141 H   0  0  0  0  0  0
   31.7997    5.0908   -6.4151 H   0  0  0  0  0  0
   31.8942    3.3446   -6.4733 H   0  0  0  0  0  0
   29.1918    2.7686   -4.6405 H   0  0  0  0  0  0
   30.7485    1.9501   -4.7166 H   0  0  0  0  0  0
   30.2036    2.6586   -3.2147 H   0  0  0  0  0  0
   35.4926    6.9142    0.6239 H   0  0  0  0  0  0
   32.9118    4.2616   -1.4950 H   0  0  0  0  0  0
   35.2368    2.8779   -3.6675 H   0  0  0  0  0  0
   33.0966    2.6498   -4.8277 H   0  0  0  0  0  0
   32.8360    2.5464   -3.1040 H   0  0  0  0  0  0
   35.7783    4.8551   -4.7391 H   0  0  0  0  0  0
   32.6678    5.1061   -4.3984 H   0  0  0  0  0  0
   30.5503    6.3123   -4.4412 H   0  0  0  0  0  0
   29.2321    5.4417   -5.1353 H   0  0  0  0  0  0
   27.3952    6.1098   -3.8840 H   0  0  0  0  0  0
   26.1668    6.1463   -1.7836 H   0  0  0  0  0  0
   29.6906    4.7390    0.2797 H   0  0  0  0  0  0
   30.8931    4.7335   -1.8064 H   0  0  0  0  0  0
   26.0547    5.7142    0.3817 H   0  0  0  0  0  0
   39.0432    5.4308   -3.6836 H   0  0  0  0  0  0
   38.7684    4.2535   -2.4050 H   0  0  0  0  0  0
   37.7283    7.3078   -0.3212 H   0  0  0  0  0  0
   25.8030    6.4922    2.7841 H   0  0  0  0  0  0
   25.3758    4.8127    2.4724 H   0  0  0  0  0  0
   25.4849    4.9263    4.7845 H   0  0  0  0  0  0
   27.0211    4.2065    4.3939 H   0  0  0  0  0  0
   27.3402    5.9060    6.1312 H   0  0  0  0  0  0
   28.0903    6.5235    4.6705 H   0  0  0  0  0  0
   25.3505    7.1314    5.5001 H   0  0  0  0  0  0
   26.6080    8.0483    5.9100 H   0  0  0  0  0  0
   33.0204    6.7851    0.7851 H   0  0  0  0  0  0
  1  2  1  0  0  0
  1 34  1  0  0  0
  1 35  1  0  0  0
  1 36  1  0  0  0
  2  3  1  0  0  0
  2 11  1  0  0  0
  2 12  1  0  0  0
  3 37  1  0  0  0
  3 38  1  0  0  0
  3 39  1  0  0  0
  4  5  1  0  0  0
  4 21  2  0  0  0
  4 40  1  0  0  0
  5  6  2  0  0  0
  5 33  1  0  0  0
  6  7  1  0  0  0
  6 41  1  0  0  0
  7  8  1  0  0  0
  7 22  2  0  0  0
  8  9  1  0  0  0
  8 10  1  0  0  0
  8 42  1  0  0  0
  9 11  1  0  0  0
  9 43  1  0  0  0
  9 44  1  0  0  0
 10 45  1  0  0  0
 11 46  1  0  0  0
 12 13  1  0  0  0
 12 47  1  0  0  0
 12 48  1  0  0  0
 13 18  1  0  0  0
 13 14  2  0  0  0
 14 15  1  0  0  0
 14 49  1  0  0  0
 15 16  2  0  0  0
 15 50  1  0  0  0
 16 17  1  0  0  0
 16 19  1  0  0  0
 17 18  2  0  0  0
 17 51  1  0  0  0
 18 52  1  0  0  0
 19 20  1  0  0  0
 19 53  1  0  0  0
 20 28  1  0  0  0
 20 29  2  0  0  0
 21 22  1  0  0  0
 21 26  1  0  0  0
 22 23  1  0  0  0
 23 24  1  0  0  0
 24 25  1  0  0  0
 24 54  1  0  0  0
 24 55  1  0  0  0
 25 26  1  0  0  0
 25 27  2  0  0  0
 26 56  1  0  0  0
 28 30  1  0  0  0
 28 57  1  0  0  0
 28 58  1  0  0  0
 30 31  1  0  0  0
 30 59  1  0  0  0
 30 60  1  0  0  0
 31 32  1  0  0  0
 31 61  1  0  0  0
 31 62  1  0  0  0
 32 63  1  0  0  0
 32 64  1  0  0  0
 33 65  1  0  0  0
M  END
> <s_m_entry_id>
3184

> <s_m_entry_name>
dock_pv.276

> <s_m_Source_Path>
/home/csk/Desktop/cluster/DUD-E-result/adrb1

> <s_m_Source_File>
dock_pv.maegz

> <i_m_Source_File_Index>
276

> <chembl_id>
CHEMBL568667

> <chembl_pref_name>
None

> <i_lp_mmshare_version>
53161

> <i_f3d_flags>
0

> <r_lp_tautomer_probability>
0.999999999999998

> <s_lp_Force_Field>
OPLS_2005

> <r_lp_Energy>
38.93452

> <b_lp_Chiralities_Consistent>
1

> <s_lp_Variant>
CHEMBL213_lig1017-2

> <s_i_glide_gridfile>
glide-grid_2vt4

> <i_i_glide_lignum>
1156

> <i_i_glide_rotatable_bonds>
13

> <r_i_docking_score>
-7.3020437711129

> <r_i_glide_ligand_efficiency>
-0.221274053670088

> <r_i_glide_ligand_efficiency_sa>
-0.709744122656937

> <r_i_glide_ligand_efficiency_ln>
-1.6239367267363

> <r_i_glide_gscore>
-7.3020437711129

> <r_i_glide_lipo>
-2.27749276156082

> <r_i_glide_hbond>
-0.608

> <r_i_glide_metal>
0

> <r_i_glide_rewards>
-0.737546619545346

> <r_i_glide_evdw>
-41.2404632568359

> <r_i_glide_ecoul>
-17.2083625793457

> <r_i_glide_erotb>
0.964273159736915

> <r_i_glide_esite>
0

> <r_i_glide_emodel>
-77.0615000150076

> <r_i_glide_energy>
-58.4488258361816

> <r_i_glide_einternal>
12.9022541046143

> <i_i_glide_confnum>
56

> <i_i_glide_posenum>
347

> <r_i_glide_eff_state_penalty>
0

> <s_user_duplicate_titles>
CHEMBL213_lig1017,576206

> <s_m_subgroup_title>
dock_pv

> <s_m_subgroupid>
dock_pv

> <b_m_subgroup_collapsed>
1

$$$$
CHEMBL213_lig485
                    3D
 Schrodinger Suite 2021-1.
 64 67  0  0  1  0            999 V2000
   34.7681    3.7575   -4.1563 C   0  0  0  0  0  0
   35.7314    3.8700   -3.1586 C   0  0  0  0  0  0
   33.0789    4.7243   -2.6941 C   0  0  0  0  0  0
   33.4594    4.1704   -3.9239 C   0  0  0  0  0  0
   37.0064    3.4500   -3.4480 O   0  0  0  0  0  0
   31.6135    5.1408   -2.5033 C   0  0  2  0  0  0
   30.6874    3.9185   -2.2473 C   0  0  0  0  0  0
   29.2680    4.2500   -2.0943 N   0  0  2  0  0  0
   28.9804    4.9802   -0.8657 C   0  0  0  0  0  0
   27.5092    5.4365   -0.8176 C   0  0  0  0  0  0
   26.6190    4.5871    0.0795 C   0  0  0  0  0  0
   25.9834    3.4496   -0.4152 C   0  0  0  0  0  0
   25.1067    2.7219    0.3883 C   0  0  0  0  0  0
   24.8652    3.1259    1.7009 C   0  0  0  0  0  0
   25.5123    4.2500    2.2242 C   0  0  0  0  0  0
   26.3994    4.9663    1.4045 C   0  0  0  0  0  0
   31.1043    5.8505   -3.6148 O   0  0  0  0  0  0
   25.2599    4.6485    3.6777 C   0  0  0  0  0  0
   34.0567    4.8580   -1.6845 C   0  0  0  0  0  0
   35.3794    4.4117   -1.9146 C   0  0  0  0  0  0
   36.3338    4.5161   -0.8748 N   0  0  0  0  0  0
   36.1428    5.0388    0.3536 C   0  0  0  0  0  0
   34.7947    5.5284    0.5762 C   0  0  0  0  0  0
   33.8083    5.4498   -0.3449 C   0  0  0  0  0  0
   37.0415    5.0785    1.1851 O   0  0  0  0  0  0
   25.5167    6.0620    3.9487 N   0  0  2  0  0  0
   25.7409    6.4011    5.3504 C   0  0  0  0  0  0
   27.0879    5.8730    5.8904 C   0  0  0  0  0  0
   28.2943    6.2535    5.0403 C   0  0  0  0  0  0
   28.6571    5.5010    3.9164 C   0  0  0  0  0  0
   29.7867    5.8779    3.1868 C   0  0  0  0  0  0
   30.5341    6.9805    3.6115 C   0  0  0  0  0  0
   30.1129    7.6726    4.7496 C   0  0  0  0  0  0
   29.0075    7.3317    5.4583 N   0  0  0  0  0  0
   35.0380    3.3475   -5.1190 H   0  0  0  0  0  0
   32.7328    4.0664   -4.7176 H   0  0  0  0  0  0
   37.6207    3.4002   -2.7085 H   0  0  0  0  0  0
   31.5489    5.8462   -1.6834 H   0  0  0  0  0  0
   30.7740    3.2299   -3.0894 H   0  0  0  0  0  0
   31.0133    3.3528   -1.3751 H   0  0  0  0  0  0
   28.7302    3.3797   -2.1111 H   0  0  0  0  0  0
   29.2077    4.3428   -0.0117 H   0  0  0  0  0  0
   29.6198    5.8515   -0.7703 H   0  0  0  0  0  0
   27.4727    6.4614   -0.4452 H   0  0  0  0  0  0
   27.0700    5.5070   -1.8157 H   0  0  0  0  0  0
   26.1444    3.1465   -1.4401 H   0  0  0  0  0  0
   24.6049    1.8527   -0.0113 H   0  0  0  0  0  0
   24.1799    2.5551    2.3111 H   0  0  0  0  0  0
   26.8982    5.8451    1.7862 H   0  0  0  0  0  0
   30.1516    5.7015   -3.6120 H   0  0  0  0  0  0
   24.2602    4.3460    3.9929 H   0  0  0  0  0  0
   25.9593    4.0442    4.2501 H   0  0  0  0  0  0
   37.2746    4.1765   -1.0031 H   0  0  0  0  0  0
   34.5896    5.9719    1.5390 H   0  0  0  0  0  0
   32.8423    5.8421   -0.0685 H   0  0  0  0  0  0
   24.7499    6.6158    3.5914 H   0  0  0  0  0  0
   25.7601    7.4910    5.3986 H   0  0  0  0  0  0
   24.9017    6.0684    5.9638 H   0  0  0  0  0  0
   27.2252    6.2472    6.9062 H   0  0  0  0  0  0
   27.0703    4.7887    5.9866 H   0  0  0  0  0  0
   28.0913    4.6323    3.6199 H   0  0  0  0  0  0
   30.0919    5.3095    2.3206 H   0  0  0  0  0  0
   31.4181    7.2915    3.0730 H   0  0  0  0  0  0
   30.6613    8.5304    5.1097 H   0  0  0  0  0  0
  1  2  2  0  0  0
  1  4  1  0  0  0
  1 35  1  0  0  0
  2 20  1  0  0  0
  2  5  1  0  0  0
  3  4  2  0  0  0
  3  6  1  0  0  0
  3 19  1  0  0  0
  4 36  1  0  0  0
  5 37  1  0  0  0
  6 17  1  0  0  0
  6  7  1  0  0  0
  6 38  1  0  0  0
  7  8  1  0  0  0
  7 39  1  0  0  0
  7 40  1  0  0  0
  8  9  1  0  0  0
  8 41  1  0  0  0
  9 10  1  0  0  0
  9 42  1  0  0  0
  9 43  1  0  0  0
 10 11  1  0  0  0
 10 44  1  0  0  0
 10 45  1  0  0  0
 11 16  1  0  0  0
 11 12  2  0  0  0
 12 13  1  0  0  0
 12 46  1  0  0  0
 13 14  2  0  0  0
 13 47  1  0  0  0
 14 15  1  0  0  0
 14 48  1  0  0  0
 15 18  1  0  0  0
 15 16  2  0  0  0
 16 49  1  0  0  0
 17 50  1  0  0  0
 18 26  1  0  0  0
 18 51  1  0  0  0
 18 52  1  0  0  0
 19 20  2  0  0  0
 19 24  1  0  0  0
 20 21  1  0  0  0
 21 22  1  0  0  0
 21 53  1  0  0  0
 22 23  1  0  0  0
 22 25  2  0  0  0
 23 24  2  0  0  0
 23 54  1  0  0  0
 24 55  1  0  0  0
 26 27  1  0  0  0
 26 56  1  0  0  0
 27 28  1  0  0  0
 27 57  1  0  0  0
 27 58  1  0  0  0
 28 29  1  0  0  0
 28 59  1  0  0  0
 28 60  1  0  0  0
 29 30  2  0  0  0
 29 34  1  0  0  0
 30 31  1  0  0  0
 30 61  1  0  0  0
 31 32  2  0  0  0
 31 62  1  0  0  0
 32 33  1  0  0  0
 32 63  1  0  0  0
 33 34  2  0  0  0
 33 64  1  0  0  0
M  END
> <s_m_entry_id>
3185

> <s_m_entry_name>
dock_pv.277

> <s_m_Source_Path>
/home/csk/Desktop/cluster/DUD-E-result/adrb1

> <s_m_Source_File>
dock_pv.maegz

> <i_m_Source_File_Index>
277

> <chembl_id>
CHEMBL1945503

> <chembl_pref_name>
None

> <i_lp_mmshare_version>
53161

> <i_f3d_flags>
0

> <r_lp_tautomer_probability>
1

> <s_lp_Force_Field>
OPLS_2005

> <r_lp_Energy>
28.726563

> <b_lp_Chiralities_Consistent>
1

> <s_lp_Variant>
CHEMBL213_lig485-1

> <s_i_glide_gridfile>
glide-grid_2vt4

> <i_i_glide_lignum>
575

> <i_i_glide_rotatable_bonds>
13

> <r_i_docking_score>
-7.30070272912183

> <r_i_glide_ligand_efficiency>
-0.214726550856524

> <r_i_glide_ligand_efficiency_sa>
-0.695630667384725

> <r_i_glide_ligand_efficiency_ln>
-1.61293001063828

> <r_i_glide_gscore>
-7.30070272912183

> <r_i_glide_lipo>
-3.06726328169641

> <r_i_glide_hbond>
-0.49162765235021

> <r_i_glide_metal>
0

> <r_i_glide_rewards>
-0.913413191129892

> <r_i_glide_evdw>
-50.9128799438477

> <r_i_glide_ecoul>
-8.26211929321289

> <r_i_glide_erotb>
0.956563287229002

> <r_i_glide_esite>
0

> <r_i_glide_emodel>
-82.0741519257902

> <r_i_glide_energy>
-59.1749992370605

> <r_i_glide_einternal>
9.9770393371582

> <i_i_glide_confnum>
210

> <i_i_glide_posenum>
17

> <r_i_glide_eff_state_penalty>
0

> <s_user_duplicate_titles>
CHEMBL213_lig485

> <s_m_subgroup_title>
dock_pv

> <s_m_subgroupid>
dock_pv

> <b_m_subgroup_collapsed>
1

$$$$
CHEMBL213_lig156
                    3D
 Schrodinger Suite 2021-1.
 48 49  0  0  1  0            999 V2000
   25.9697    6.3368    4.6536 C   0  0  0  0  0  0
   32.0459    3.3762   -4.2698 C   0  0  0  0  0  0
   32.2593    3.9128   -2.9922 C   0  0  0  0  0  0
   29.1525    4.0148   -3.5194 N   0  0  1  0  0  0
   27.0113    4.7223   -1.6145 N   0  0  0  0  0  0
   25.8081    7.3939    4.0450 O   0  0  0  0  0  0
   29.5163    3.3013   -4.7454 C   0  0  0  0  0  0
   30.8268    2.4913   -4.5648 C   0  0  2  0  0  0
   25.9061    4.9365    4.0114 C   0  0  0  0  0  0
   26.7723    4.7962   -0.2304 C   0  0  0  0  0  0
   33.3437    4.7548   -2.7485 C   0  0  0  0  0  0
   26.2142    4.8912    2.5145 C   0  0  0  0  0  0
   26.1893    6.2521    5.9940 O   0  0  0  0  0  0
   27.9145    5.6705   -2.2740 C   0  0  0  0  0  0
   33.5672    5.4501   -1.1850 Cl  0  0  0  0  0  0
   27.6629    5.4100    0.6568 C   0  0  0  0  0  0
   25.6232    4.1866    0.2751 C   0  0  0  0  0  0
   25.3455    4.2321    1.6398 C   0  0  0  0  0  0
   27.3913    5.4509    2.0189 C   0  0  0  0  0  0
   30.6402    1.4521   -3.6176 O   0  0  0  0  0  0
   28.3709    5.2393   -3.6840 C   0  0  1  0  0  0
   32.9416    3.6985   -5.2984 C   0  0  0  0  0  0
   34.0362    4.5268   -5.0501 C   0  0  0  0  0  0
   34.2399    5.0491   -3.7736 C   0  0  0  0  0  0
   29.2423    6.3477   -4.3130 C   0  0  0  0  0  0
   31.5678    3.6922   -2.1929 H   0  0  0  0  0  0
   28.6102    3.4041   -2.9055 H   0  0  0  0  0  0
   26.2041    4.4532   -2.1829 H   0  0  0  0  0  0
   28.6903    2.6485   -5.0384 H   0  0  0  0  0  0
   29.6627    3.9858   -5.5790 H   0  0  0  0  0  0
   31.0075    1.9714   -5.5084 H   0  0  0  0  0  0
   26.6110    4.2763    4.5130 H   0  0  0  0  0  0
   24.9063    4.5425    4.1970 H   0  0  0  0  0  0
   26.2316    7.1408    6.3708 H   0  0  0  0  0  0
   27.4202    6.6441   -2.3028 H   0  0  0  0  0  0
   28.8138    5.8292   -1.6823 H   0  0  0  0  0  0
   28.5813    5.8489    0.3124 H   0  0  0  0  0  0
   24.9347    3.6873   -0.3946 H   0  0  0  0  0  0
   24.4427    3.7662    2.0077 H   0  0  0  0  0  0
   28.0989    5.9279    2.6821 H   0  0  0  0  0  0
   29.8739    1.6813   -3.0716 H   0  0  0  0  0  0
   27.4940    5.0391   -4.3042 H   0  0  0  0  0  0
   32.7927    3.3095   -6.2948 H   0  0  0  0  0  0
   34.7258    4.7722   -5.8444 H   0  0  0  0  0  0
   35.0863    5.6979   -3.5909 H   0  0  0  0  0  0
   28.6880    7.2853   -4.3851 H   0  0  0  0  0  0
   30.1329    6.5468   -3.7151 H   0  0  0  0  0  0
   29.5841    6.0985   -5.3145 H   0  0  0  0  0  0
  1  6  2  0  0  0
  1  9  1  0  0  0
  1 13  1  0  0  0
  2  8  1  0  0  0
  2  3  1  0  0  0
  2 22  2  0  0  0
  3 11  2  0  0  0
  3 26  1  0  0  0
  4 21  1  0  0  0
  4  7  1  0  0  0
  4 27  1  0  0  0
  5 10  1  0  0  0
  5 14  1  0  0  0
  5 28  1  0  0  0
  7  8  1  0  0  0
  7 29  1  0  0  0
  7 30  1  0  0  0
  8 20  1  0  0  0
  8 31  1  0  0  0
  9 12  1  0  0  0
  9 32  1  0  0  0
  9 33  1  0  0  0
 10 16  2  0  0  0
 10 17  1  0  0  0
 11 15  1  0  0  0
 11 24  1  0  0  0
 12 18  1  0  0  0
 12 19  2  0  0  0
 13 34  1  0  0  0
 14 21  1  0  0  0
 14 35  1  0  0  0
 14 36  1  0  0  0
 16 19  1  0  0  0
 16 37  1  0  0  0
 17 18  2  0  0  0
 17 38  1  0  0  0
 18 39  1  0  0  0
 19 40  1  0  0  0
 20 41  1  0  0  0
 21 25  1  0  0  0
 21 42  1  0  0  0
 22 23  1  0  0  0
 22 43  1  0  0  0
 23 24  2  0  0  0
 23 44  1  0  0  0
 24 45  1  0  0  0
 25 46  1  0  0  0
 25 47  1  0  0  0
 25 48  1  0  0  0
M  END
> <s_m_entry_id>
3186

> <s_m_entry_name>
dock_pv.278

> <s_m_Source_Path>
/home/csk/Desktop/cluster/DUD-E-result/adrb1

> <s_m_Source_File>
dock_pv.maegz

> <i_m_Source_File_Index>
278

> <chembl_id>
CHEMBL154419

> <chembl_pref_name>
None

> <i_lp_mmshare_version>
53161

> <i_f3d_flags>
0

> <r_lp_tautomer_probability>
1

> <s_lp_Force_Field>
OPLS_2005

> <r_lp_Energy>
30.462123

> <b_lp_Chiralities_Consistent>
1

> <s_lp_Variant>
CHEMBL213_lig156-1

> <s_i_glide_gridfile>
glide-grid_2vt4

> <i_i_glide_lignum>
191

> <i_i_glide_rotatable_bonds>
11

> <r_i_docking_score>
-7.30029841464215

> <r_i_glide_ligand_efficiency>
-0.292011936585686

> <r_i_glide_ligand_efficiency_sa>
-0.853848081430293

> <r_i_glide_ligand_efficiency_ln>
-1.73038949655984

> <r_i_glide_gscore>
-7.30029841464215

> <r_i_glide_lipo>
-2.01743313698148

> <r_i_glide_hbond>
-0.793109416927741

> <r_i_glide_metal>
0

> <r_i_glide_rewards>
-1.80017944552514

> <r_i_glide_evdw>
-37.8544807434082

> <r_i_glide_ecoul>
-12.574520111084

> <r_i_glide_erotb>
1.16704662263268

> <r_i_glide_esite>
-0.0777209840074598

> <r_i_glide_emodel>
-70.3671330308449

> <r_i_glide_energy>
-50.4290008544922

> <r_i_glide_einternal>
5.94319629669189

> <i_i_glide_confnum>
43

> <i_i_glide_posenum>
278

> <r_i_glide_eff_state_penalty>
0

> <s_user_duplicate_titles>
CHEMBL213_lig156

> <s_m_subgroup_title>
dock_pv

> <s_m_subgroupid>
dock_pv

> <b_m_subgroup_collapsed>
1

$$$$
CHEMBL213_lig1208 
                    3D
 Schrodinger Suite 2021-1.
 61 64  0  0  1  0            999 V2000
   31.2823    2.5452   -6.0681 C   0  0  0  0  0  0
   30.5212    2.6603   -4.9073 C   0  0  0  0  0  0
   33.0079    4.0023   -5.1397 C   0  0  0  0  0  0
   32.5146    3.1893   -6.1725 C   0  0  0  0  0  0
   32.1801    4.2090   -4.0140 C   0  0  0  0  0  0
   30.9612    3.5048   -3.8793 C   0  0  0  0  0  0
   30.2082    3.6580   -2.6916 N   0  0  0  0  0  0
   30.5102    4.4310   -1.6279 C   0  0  0  0  0  0
   31.7405    5.1831   -1.7929 C   0  0  0  0  0  0
   32.5144    5.1153   -2.8948 C   0  0  0  0  0  0
   29.7858    4.4719   -0.6412 O   0  0  0  0  0  0
   29.3593    1.9280   -4.8154 O   0  0  0  0  0  0
   34.4181    4.6341   -5.2630 C   0  0  1  0  0  0
   35.5156    3.9678   -4.3742 C   0  0  0  0  0  0
   34.9176    4.6501   -6.5923 O   0  0  0  0  0  0
   35.4596    4.4307   -2.9895 N   0  0  1  0  0  0
   36.3819    3.7547   -2.0852 C   0  0  0  0  0  0
   36.0902    4.1804   -0.6254 C   0  0  0  0  0  0
   36.2347    5.6943   -0.3391 C   0  0  0  0  0  0
   35.8602    6.1052    1.0851 C   0  0  0  0  0  0
   34.5226    6.0908    1.4961 C   0  0  0  0  0  0
   34.1482    6.5354    2.7790 C   0  0  0  0  0  0
   35.1454    6.9831    3.6506 C   0  0  0  0  0  0
   36.4836    6.9922    3.2548 C   0  0  0  0  0  0
   36.8405    6.5547    1.9772 C   0  0  0  0  0  0
   32.8221    6.5893    3.2662 N   0  0  0  0  0  0
   31.6652    6.2501    2.6528 C   0  0  0  0  0  0
   30.3973    6.4112    3.4673 C   0  0  0  0  0  0
   31.5914    5.8031    1.5102 O   0  0  0  0  0  0
   30.2872    7.3701    4.4875 C   0  0  0  0  0  0
   29.1042    7.4867    5.2131 C   0  0  0  0  0  0
   28.0286    6.6511    4.9341 C   0  0  0  0  0  0
   28.1167    5.7055    3.9174 C   0  0  0  0  0  0
   29.2939    5.5909    3.1845 C   0  0  0  0  0  0
   30.9392    1.9058   -6.8720 H   0  0  0  0  0  0
   33.0984    3.0259   -7.0664 H   0  0  0  0  0  0
   29.3462    3.1486   -2.5491 H   0  0  0  0  0  0
   32.0240    5.8486   -0.9926 H   0  0  0  0  0  0
   33.3840    5.7503   -2.9400 H   0  0  0  0  0  0
   28.9841    1.8538   -3.9292 H   0  0  0  0  0  0
   34.3416    5.6927   -5.0153 H   0  0  0  0  0  0
   36.5048    4.2393   -4.7519 H   0  0  0  0  0  0
   35.4334    2.8811   -4.4328 H   0  0  0  0  0  0
   35.3027    5.5251   -6.7557 H   0  0  0  0  0  0
   35.6896    5.4198   -2.9714 H   0  0  0  0  0  0
   37.4089    4.0133   -2.3539 H   0  0  0  0  0  0
   36.2836    2.6702   -2.1785 H   0  0  0  0  0  0
   36.7645    3.6308    0.0315 H   0  0  0  0  0  0
   35.0861    3.8491   -0.3626 H   0  0  0  0  0  0
   35.5936    6.2700   -1.0100 H   0  0  0  0  0  0
   37.2510    6.0180   -0.5650 H   0  0  0  0  0  0
   33.7952    5.7469    0.7797 H   0  0  0  0  0  0
   34.8868    7.3426    4.6367 H   0  0  0  0  0  0
   37.2445    7.3467    3.9331 H   0  0  0  0  0  0
   37.8791    6.5765    1.6781 H   0  0  0  0  0  0
   32.7284    6.9298    4.2091 H   0  0  0  0  0  0
   31.0988    8.0442    4.7173 H   0  0  0  0  0  0
   29.0085    8.2375    5.9841 H   0  0  0  0  0  0
   27.1141    6.7542    5.5006 H   0  0  0  0  0  0
   27.2749    5.0668    3.6916 H   0  0  0  0  0  0
   29.3484    4.8492    2.3990 H   0  0  0  0  0  0
  1  2  2  0  0  0
  1  4  1  0  0  0
  1 35  1  0  0  0
  2  6  1  0  0  0
  2 12  1  0  0  0
  3  5  1  0  0  0
  3  4  2  0  0  0
  3 13  1  0  0  0
  4 36  1  0  0  0
  5  6  2  0  0  0
  5 10  1  0  0  0
  6  7  1  0  0  0
  7  8  1  0  0  0
  7 37  1  0  0  0
  8  9  1  0  0  0
  8 11  2  0  0  0
  9 10  2  0  0  0
  9 38  1  0  0  0
 10 39  1  0  0  0
 12 40  1  0  0  0
 13 14  1  0  0  0
 13 15  1  0  0  0
 13 41  1  0  0  0
 14 16  1  0  0  0
 14 42  1  0  0  0
 14 43  1  0  0  0
 15 44  1  0  0  0
 16 17  1  0  0  0
 16 45  1  0  0  0
 17 18  1  0  0  0
 17 46  1  0  0  0
 17 47  1  0  0  0
 18 19  1  0  0  0
 18 48  1  0  0  0
 18 49  1  0  0  0
 19 20  1  0  0  0
 19 50  1  0  0  0
 19 51  1  0  0  0
 20 21  2  0  0  0
 20 25  1  0  0  0
 21 22  1  0  0  0
 21 52  1  0  0  0
 22 23  2  0  0  0
 22 26  1  0  0  0
 23 24  1  0  0  0
 23 53  1  0  0  0
 24 25  2  0  0  0
 24 54  1  0  0  0
 25 55  1  0  0  0
 26 27  1  0  0  0
 26 56  1  0  0  0
 27 28  1  0  0  0
 27 29  2  0  0  0
 28 30  2  0  0  0
 28 34  1  0  0  0
 30 31  1  0  0  0
 30 57  1  0  0  0
 31 32  2  0  0  0
 31 58  1  0  0  0
 32 33  1  0  0  0
 32 59  1  0  0  0
 33 34  2  0  0  0
 33 60  1  0  0  0
 34 61  1  0  0  0
M  END
> <s_m_entry_id>
3187

> <s_m_entry_name>
dock_pv.279

> <s_m_Source_Path>
/home/csk/Desktop/cluster/DUD-E-result/adrb1

> <s_m_Source_File>
dock_pv.maegz

> <i_m_Source_File_Index>
279

> <chembl_id>
CHEMBL4566727

> <chembl_pref_name>
None

> <i_lp_mmshare_version>
53161

> <i_f3d_flags>
0

> <r_lp_tautomer_probability>
1

> <s_lp_Force_Field>
OPLS_2005

> <r_lp_Energy>
41.891876

> <b_lp_Chiralities_Consistent>
1

> <s_lp_Variant>
CHEMBL213_lig1208 -2

> <s_i_glide_gridfile>
glide-grid_2vt4

> <i_i_glide_lignum>
1426

> <i_i_glide_rotatable_bonds>
12

> <r_i_docking_score>
-7.29981654548934

> <r_i_glide_ligand_efficiency>
-0.214700486632039

> <r_i_glide_ligand_efficiency_sa>
-0.695546229415591

> <r_i_glide_ligand_efficiency_ln>
-1.61273422781725

> <r_i_glide_gscore>
-7.29981654548934

> <r_i_glide_lipo>
-2.59575650108512

> <r_i_glide_hbond>
-0.708931542629582

> <r_i_glide_metal>
0

> <r_i_glide_rewards>
-0.744686514577805

> <r_i_glide_evdw>
-50.012996673584

> <r_i_glide_ecoul>
-11.1530141830444

> <r_i_glide_erotb>
0.960492229393916

> <r_i_glide_esite>
-0.0373322554548854

> <r_i_glide_emodel>
-86.6807031794176

> <r_i_glide_energy>
-61.1660108566284

> <r_i_glide_einternal>
7.51987028121948

> <i_i_glide_confnum>
119

> <i_i_glide_posenum>
366

> <r_i_glide_eff_state_penalty>
0

> <s_user_duplicate_titles>
CHEMBL213_lig1208 

> <s_m_subgroup_title>
dock_pv

> <s_m_subgroupid>
dock_pv

> <b_m_subgroup_collapsed>
1

$$$$
CHEMBL213_lig1020
                    3D
 Schrodinger Suite 2021-1.
 75 77  0  0  1  0            999 V2000
   37.7066    4.1988   -3.5585 C   0  0  0  0  0  0
   36.3252    4.1696   -2.8672 C   0  0  0  0  0  0
   36.1847    2.8900   -2.0138 C   0  0  0  0  0  0
   35.6545    7.6334    3.6728 C   0  0  0  0  0  0
   36.9709    7.4904    3.2416 C   0  0  0  0  0  0
   37.2691    6.6531    2.1686 C   0  0  0  0  0  0
   36.2580    5.9493    1.5035 C   0  0  0  0  0  0
   35.4078    8.4483    4.7465 O   0  0  0  0  0  0
   36.6431    4.9684    0.3862 C   0  0  1  0  0  0
   37.0300    5.6875   -0.9390 C   0  0  0  0  0  0
   37.7159    4.1222    0.7849 O   0  0  0  0  0  0
   36.1569    5.4074   -2.0869 N   0  0  1  0  0  0
   35.2343    4.1778   -3.9731 C   0  0  0  0  0  0
   33.7796    4.1215   -3.5007 C   0  0  0  0  0  0
   33.1169    2.8977   -3.4187 C   0  0  0  0  0  0
   31.7690    2.8503   -3.0836 C   0  0  0  0  0  0
   31.0742    4.0290   -2.8173 C   0  0  0  0  0  0
   31.7561    5.2553   -2.8375 C   0  0  0  0  0  0
   33.1036    5.2955   -3.1820 C   0  0  0  0  0  0
   29.7095    3.8902   -2.5151 N   0  0  0  0  0  0
   28.7505    4.8392   -2.4615 C   0  0  0  0  0  0
   34.6250    6.9474    3.0147 C   0  0  0  0  0  0
   34.9269    6.1374    1.9160 C   0  0  0  0  0  0
   33.9179    5.4499    1.2660 O   0  0  0  0  0  0
   32.5359    5.8493    1.4716 C   0  0  0  0  0  0
   32.2075    6.6128    2.7852 C   0  0  0  0  0  0
   33.2962    7.0509    3.4276 N   0  0  0  0  0  0
   31.0705    6.8090    3.2067 O   0  0  0  0  0  0
   27.3613    4.3634   -2.0248 C   0  0  0  0  0  0
   28.9098    6.0251   -2.7453 O   0  0  0  0  0  0
   27.2668    3.9840   -0.5259 C   0  0  0  0  0  0
   25.9122    4.3559    0.1125 C   0  0  0  0  0  0
   25.8602    4.2532    1.5754 N   0  0  0  0  0  0
   26.5564    5.0498    2.4101 C   0  0  0  0  0  0
   27.4071    5.8414    2.0140 O   0  0  0  0  0  0
   26.2149    4.9758    3.9036 C   0  0  0  0  0  0
   26.4680    6.3155    4.6243 C   0  0  0  0  0  0
   25.9768    6.2504    5.9863 N   0  0  0  0  0  0
   37.8679    3.3105   -4.1674 H   0  0  0  0  0  0
   37.8094    5.0507   -4.2276 H   0  0  0  0  0  0
   38.5359    4.2542   -2.8529 H   0  0  0  0  0  0
   36.1770    1.9939   -2.6346 H   0  0  0  0  0  0
   36.9999    2.7736   -1.3063 H   0  0  0  0  0  0
   35.2580    2.8915   -1.4383 H   0  0  0  0  0  0
   37.7643    8.0175    3.7468 H   0  0  0  0  0  0
   38.2993    6.5341    1.8634 H   0  0  0  0  0  0
   34.4879    8.7263    4.7854 H   0  0  0  0  0  0
   35.7891    4.3123    0.2255 H   0  0  0  0  0  0
   36.9606    6.7619   -0.7713 H   0  0  0  0  0  0
   38.0751    5.5236   -1.1984 H   0  0  0  0  0  0
   38.0528    3.6445    0.0124 H   0  0  0  0  0  0
   36.2343    6.1783   -2.7402 H   0  0  0  0  0  0
   35.3506    5.0576   -4.6108 H   0  0  0  0  0  0
   35.3982    3.3390   -4.6513 H   0  0  0  0  0  0
   33.6461    1.9802   -3.6150 H   0  0  0  0  0  0
   31.2688    1.8941   -3.0435 H   0  0  0  0  0  0
   31.2658    6.1846   -2.6002 H   0  0  0  0  0  0
   33.6258    6.2394   -3.2116 H   0  0  0  0  0  0
   29.3727    2.9403   -2.3890 H   0  0  0  0  0  0
   31.8883    4.9764    1.4466 H   0  0  0  0  0  0
   32.2077    6.4567    0.6314 H   0  0  0  0  0  0
   33.0611    7.5802    4.2540 H   0  0  0  0  0  0
   26.6739    5.1853   -2.2338 H   0  0  0  0  0  0
   27.0148    3.5447   -2.6565 H   0  0  0  0  0  0
   27.4227    2.9104   -0.4151 H   0  0  0  0  0  0
   28.0764    4.4634    0.0250 H   0  0  0  0  0  0
   25.6594    5.3826   -0.1633 H   0  0  0  0  0  0
   25.1166    3.7616   -0.3381 H   0  0  0  0  0  0
   25.1936    3.5985    1.9592 H   0  0  0  0  0  0
   25.1700    4.6838    4.0112 H   0  0  0  0  0  0
   26.8163    4.1961    4.3759 H   0  0  0  0  0  0
   27.5350    6.5448    4.6374 H   0  0  0  0  0  0
   25.9680    7.1374    4.1083 H   0  0  0  0  0  0
   26.2080    7.1218    6.4648 H   0  0  0  0  0  0
   24.9659    6.1954    5.9821 H   0  0  0  0  0  0
  1  2  1  0  0  0
  1 39  1  0  0  0
  1 40  1  0  0  0
  1 41  1  0  0  0
  2  3  1  0  0  0
  2 12  1  0  0  0
  2 13  1  0  0  0
  3 42  1  0  0  0
  3 43  1  0  0  0
  3 44  1  0  0  0
  4  5  1  0  0  0
  4 22  2  0  0  0
  4  8  1  0  0  0
  5  6  2  0  0  0
  5 45  1  0  0  0
  6  7  1  0  0  0
  6 46  1  0  0  0
  7  9  1  0  0  0
  7 23  2  0  0  0
  8 47  1  0  0  0
  9 10  1  0  0  0
  9 11  1  0  0  0
  9 48  1  0  0  0
 10 12  1  0  0  0
 10 49  1  0  0  0
 10 50  1  0  0  0
 11 51  1  0  0  0
 12 52  1  0  0  0
 13 14  1  0  0  0
 13 53  1  0  0  0
 13 54  1  0  0  0
 14 19  1  0  0  0
 14 15  2  0  0  0
 15 16  1  0  0  0
 15 55  1  0  0  0
 16 17  2  0  0  0
 16 56  1  0  0  0
 17 20  1  0  0  0
 17 18  1  0  0  0
 18 19  2  0  0  0
 18 57  1  0  0  0
 19 58  1  0  0  0
 20 21  1  0  0  0
 20 59  1  0  0  0
 21 29  1  0  0  0
 21 30  2  0  0  0
 22 23  1  0  0  0
 22 27  1  0  0  0
 23 24  1  0  0  0
 24 25  1  0  0  0
 25 26  1  0  0  0
 25 60  1  0  0  0
 25 61  1  0  0  0
 26 27  1  0  0  0
 26 28  2  0  0  0
 27 62  1  0  0  0
 29 31  1  0  0  0
 29 63  1  0  0  0
 29 64  1  0  0  0
 31 32  1  0  0  0
 31 65  1  0  0  0
 31 66  1  0  0  0
 32 33  1  0  0  0
 32 67  1  0  0  0
 32 68  1  0  0  0
 33 34  1  0  0  0
 33 69  1  0  0  0
 34 35  2  0  0  0
 34 36  1  0  0  0
 36 37  1  0  0  0
 36 70  1  0  0  0
 36 71  1  0  0  0
 37 38  1  0  0  0
 37 72  1  0  0  0
 37 73  1  0  0  0
 38 74  1  0  0  0
 38 75  1  0  0  0
M  END
> <s_m_entry_id>
3188

> <s_m_entry_name>
dock_pv.280

> <s_m_Source_Path>
/home/csk/Desktop/cluster/DUD-E-result/adrb1

> <s_m_Source_File>
dock_pv.maegz

> <i_m_Source_File_Index>
280

> <chembl_id>
CHEMBL568239

> <chembl_pref_name>
None

> <i_lp_mmshare_version>
53161

> <i_f3d_flags>
0

> <r_lp_tautomer_probability>
1

> <s_lp_Force_Field>
OPLS_2005

> <r_lp_Energy>
41.898273

> <b_lp_Chiralities_Consistent>
1

> <s_lp_Variant>
CHEMBL213_lig1020-2

> <s_i_glide_gridfile>
glide-grid_2vt4

> <i_i_glide_lignum>
1162

> <i_i_glide_rotatable_bonds>
17

> <r_i_docking_score>
-7.2993320136165

> <r_i_glide_ligand_efficiency>
-0.192087684568855

> <r_i_glide_ligand_efficiency_sa>
-0.645794070686404

> <r_i_glide_ligand_efficiency_ln>
-1.57395070672868

> <r_i_glide_gscore>
-7.2993320136165

> <r_i_glide_lipo>
-1.6481546174109

> <r_i_glide_hbond>
-1.27399011653156

> <r_i_glide_metal>
0

> <r_i_glide_rewards>
-0.516511835788264

> <r_i_glide_evdw>
-54.7584075927734

> <r_i_glide_ecoul>
-13.9285135269165

> <r_i_glide_erotb>
1.03582726415614

> <r_i_glide_esite>
-0.069305299365771

> <r_i_glide_emodel>
-92.2015043824394

> <r_i_glide_energy>
-68.6869211196899

> <r_i_glide_einternal>
13.3354425430298

> <i_i_glide_confnum>
35

> <i_i_glide_posenum>
312

> <r_i_glide_eff_state_penalty>
0

> <s_user_duplicate_titles>
CHEMBL213_lig1020,576061

> <s_m_subgroup_title>
dock_pv

> <s_m_subgroupid>
dock_pv

> <b_m_subgroup_collapsed>
1

$$$$
CHEMBL213_lig1180
                    3D
 Schrodinger Suite 2021-1.
 62 64  0  0  1  0            999 V2000
   31.2059    2.9955   -6.4267 O   0  0  0  0  0  0
   31.3443    3.2706   -4.9931 S   0  0  0  0  0  0
   31.2525    2.1895   -4.0050 O   0  0  0  0  0  0
   34.4468    5.5695   -1.1645 C   0  0  0  0  0  0
   35.2231    5.5596   -2.3274 C   0  0  0  0  0  0
   34.7098    5.0480   -3.5178 C   0  0  0  0  0  0
   33.4187    4.5209   -3.5575 C   0  0  0  0  0  0
   32.6451    4.5176   -2.3942 C   0  0  0  0  0  0
   33.1499    5.0501   -1.2151 C   0  0  0  0  0  0
   32.9198    4.0678   -4.7881 N   0  0  0  0  0  0
   30.1111    4.4983   -4.5795 C   0  0  0  0  0  0
   28.8983    4.0984   -4.0151 C   0  0  0  0  0  0
   27.9605    5.0580   -3.6427 C   0  0  0  0  0  0
   28.2427    6.4096   -3.8249 C   0  0  0  0  0  0
   29.4421    6.8072   -4.4120 C   0  0  0  0  0  0
   30.3745    5.8499   -4.7996 C   0  0  0  0  0  0
   35.0401    6.1834    0.1117 C   0  0  0  0  0  0
   34.4545    5.7543    1.4821 C   0  0  0  0  0  0
   33.0968    6.2500    1.6720 N   0  0  1  0  0  0
   32.6446    6.2421    3.0555 C   0  0  0  0  0  0
   31.1408    6.6045    3.1634 C   0  0  1  0  0  0
   30.1936    5.5784    2.4741 C   0  0  0  0  0  0
   28.8148    5.8500    2.7850 O   0  0  0  0  0  0
   30.8678    6.6500    4.5472 O   0  0  0  0  0  0
   27.8084    5.2746    2.0241 C   0  0  0  0  0  0
   27.9257    5.0500    0.6411 C   0  0  0  0  0  0
   26.9082    4.4114   -0.0668 C   0  0  0  0  0  0
   25.7508    4.0016    0.5858 C   0  0  0  0  0  0
   25.6010    4.2500    1.9470 C   0  0  0  0  0  0
   26.6084    4.9132    2.6643 C   0  0  0  0  0  0
   26.3947    5.1851    4.1495 C   0  0  0  0  0  0
   26.2191    6.6742    4.4873 C   0  0  0  0  0  0
   36.2251    5.9658   -2.3216 H   0  0  0  0  0  0
   35.3232    5.0733   -4.4082 H   0  0  0  0  0  0
   31.6395    4.1279   -2.3828 H   0  0  0  0  0  0
   32.5051    5.0496   -0.3534 H   0  0  0  0  0  0
   33.4228    4.3175   -5.6259 H   0  0  0  0  0  0
   28.6832    3.0500   -3.8648 H   0  0  0  0  0  0
   27.0090    4.7561   -3.2313 H   0  0  0  0  0  0
   27.5130    7.1541   -3.5394 H   0  0  0  0  0  0
   29.6469    7.8565   -4.5716 H   0  0  0  0  0  0
   31.3036    6.1688   -5.2497 H   0  0  0  0  0  0
   35.0078    7.2695    0.0156 H   0  0  0  0  0  0
   36.1007    5.9281    0.1309 H   0  0  0  0  0  0
   35.1202    6.0820    2.2826 H   0  0  0  0  0  0
   34.4169    4.6656    1.5219 H   0  0  0  0  0  0
   33.0080    7.1923    1.2648 H   0  0  0  0  0  0
   33.2359    6.9727    3.6113 H   0  0  0  0  0  0
   32.8256    5.2631    3.5012 H   0  0  0  0  0  0
   30.9641    7.6063    2.7692 H   0  0  0  0  0  0
   30.4193    4.5597    2.7850 H   0  0  0  0  0  0
   30.4079    5.5992    1.4075 H   0  0  0  0  0  0
   31.0080    5.7426    4.8488 H   0  0  0  0  0  0
   28.8031    5.3506    0.0919 H   0  0  0  0  0  0
   27.0195    4.2175   -1.1214 H   0  0  0  0  0  0
   24.9656    3.5057    0.0314 H   0  0  0  0  0  0
   24.6877    3.9449    2.4368 H   0  0  0  0  0  0
   25.5025    4.6523    4.4749 H   0  0  0  0  0  0
   27.2265    4.7624    4.7151 H   0  0  0  0  0  0
   25.9752    6.8067    5.5420 H   0  0  0  0  0  0
   27.1323    7.2371    4.2978 H   0  0  0  0  0  0
   25.4142    7.1225    3.9033 H   0  0  0  0  0  0
  1  2  2  0  0  0
  2  3  2  0  0  0
  2 10  1  0  0  0
  2 11  1  0  0  0
  4  5  2  0  0  0
  4  9  1  0  0  0
  4 17  1  0  0  0
  5  6  1  0  0  0
  5 33  1  0  0  0
  6  7  2  0  0  0
  6 34  1  0  0  0
  7  8  1  0  0  0
  7 10  1  0  0  0
  8  9  2  0  0  0
  8 35  1  0  0  0
  9 36  1  0  0  0
 10 37  1  0  0  0
 11 12  2  0  0  0
 11 16  1  0  0  0
 12 13  1  0  0  0
 12 38  1  0  0  0
 13 14  2  0  0  0
 13 39  1  0  0  0
 14 15  1  0  0  0
 14 40  1  0  0  0
 15 16  2  0  0  0
 15 41  1  0  0  0
 16 42  1  0  0  0
 17 18  1  0  0  0
 17 43  1  0  0  0
 17 44  1  0  0  0
 18 19  1  0  0  0
 18 45  1  0  0  0
 18 46  1  0  0  0
 19 20  1  0  0  0
 19 47  1  0  0  0
 20 21  1  0  0  0
 20 48  1  0  0  0
 20 49  1  0  0  0
 21 22  1  0  0  0
 21 24  1  0  0  0
 21 50  1  0  0  0
 22 23  1  0  0  0
 22 51  1  0  0  0
 22 52  1  0  0  0
 23 25  1  0  0  0
 24 53  1  0  0  0
 25 26  2  0  0  0
 25 30  1  0  0  0
 26 27  1  0  0  0
 26 54  1  0  0  0
 27 28  2  0  0  0
 27 55  1  0  0  0
 28 29  1  0  0  0
 28 56  1  0  0  0
 29 30  2  0  0  0
 29 57  1  0  0  0
 30 31  1  0  0  0
 31 32  1  0  0  0
 31 58  1  0  0  0
 31 59  1  0  0  0
 32 60  1  0  0  0
 32 61  1  0  0  0
 32 62  1  0  0  0
M  END
> <s_m_entry_id>
3189

> <s_m_entry_name>
dock_pv.281

> <s_m_Source_Path>
/home/csk/Desktop/cluster/DUD-E-result/adrb1

> <s_m_Source_File>
dock_pv.maegz

> <i_m_Source_File_Index>
281

> <chembl_id>
CHEMBL4248093

> <chembl_pref_name>
None

> <i_lp_mmshare_version>
53161

> <i_f3d_flags>
0

> <r_lp_tautomer_probability>
1

> <s_lp_Force_Field>
OPLS_2005

> <r_lp_Energy>
22.545605

> <b_lp_Chiralities_Consistent>
1

> <s_lp_Variant>
CHEMBL213_lig1180-1

> <s_i_glide_gridfile>
glide-grid_2vt4

> <i_i_glide_lignum>
1382

> <i_i_glide_rotatable_bonds>
13

> <r_i_docking_score>
-7.29889967494771

> <r_i_glide_ligand_efficiency>
-0.228090614842116

> <r_i_glide_ligand_efficiency_sa>
-0.724142563052334

> <r_i_glide_ligand_efficiency_ln>
-1.63442259771156

> <r_i_glide_gscore>
-7.29889967494771

> <r_i_glide_lipo>
-3.29884605321538

> <r_i_glide_hbond>
-0.289952986751967

> <r_i_glide_metal>
0

> <r_i_glide_rewards>
-0.623552258982792

> <r_i_glide_evdw>
-41.6029968261719

> <r_i_glide_ecoul>
-13.8360204696655

> <r_i_glide_erotb>
1.06900453576085

> <r_i_glide_esite>
0

> <r_i_glide_emodel>
-73.500564851837

> <r_i_glide_energy>
-55.4390172958374

> <r_i_glide_einternal>
10.7332534790039

> <i_i_glide_confnum>
32

> <i_i_glide_posenum>
236

> <r_i_glide_eff_state_penalty>
0

> <s_user_duplicate_titles>
CHEMBL213_lig1180

> <s_m_subgroup_title>
dock_pv

> <s_m_subgroupid>
dock_pv

> <b_m_subgroup_collapsed>
1

$$$$
CHEMBL213_lig711
                    3D
 Schrodinger Suite 2021-1.
 79 83  0  0  1  0            999 V2000
   32.2696    4.1948   -4.6918 C   0  0  0  0  0  0
   32.1684    5.1468   -3.6735 C   0  0  0  0  0  0
   33.2720    5.4500   -2.8822 C   0  0  0  0  0  0
   34.4990    4.8087   -3.0969 C   0  0  0  0  0  0
   34.6059    3.8838   -4.1361 C   0  0  0  0  0  0
   33.5014    3.5745   -4.9259 C   0  0  0  0  0  0
   31.0440    3.8040   -5.5312 C   0  0  0  0  0  0
   29.8754    3.1058   -4.7553 C   0  0  0  0  0  0
   29.1999    4.1773   -4.0030 N   0  0  2  0  0  0
   28.9205    2.3902   -5.7508 C   0  0  0  0  0  0
   30.4466    2.0497   -3.7695 C   0  0  0  0  0  0
   27.8006    4.0859   -3.5637 C   0  0  0  0  0  0
   27.5463    4.9742   -2.3002 C   0  0  1  0  0  0
   28.3247    4.5256   -1.0378 C   0  0  0  0  0  0
   27.6854    4.8842    0.1967 O   0  0  0  0  0  0
   26.5143    4.2503    0.5925 C   0  0  0  0  0  0
   24.1601    3.0859    1.6166 C   0  0  0  0  0  0
   24.6659    2.6855    0.3824 C   0  0  0  0  0  0
   25.8288    3.2641   -0.1335 C   0  0  0  0  0  0
   24.8404    4.0540    2.3310 C   0  0  0  0  0  0
   26.0036    4.6075    1.8449 C   0  0  0  0  0  0
   26.5540    5.4725    2.9152 C   0  0  1  0  0  0
   25.4093    5.5386    3.9434 C   0  0  0  0  0  0
   24.5104    4.6417    3.5374 N   0  0  0  0  0  0
   25.3370    6.2564    4.9354 O   0  0  0  0  0  0
   27.8099    6.3409   -2.5888 O   0  0  0  0  0  0
   35.6518    5.0808   -2.3839 O   0  0  0  0  0  0
   35.6911    5.5869   -1.0985 C   0  0  0  0  0  0
   34.6276    5.3956   -0.2675 N   0  0  0  0  0  0
   34.6679    5.9544    0.9669 C   0  0  0  0  0  0
   35.7470    6.7232    1.4268 C   0  0  0  0  0  0
   36.8599    6.8466    0.5819 C   0  0  0  0  0  0
   36.8313    6.2798   -0.6943 C   0  0  0  0  0  0
   35.7203    7.4042    2.7698 C   0  0  0  0  0  0
   34.5310    7.8385    3.1867 N   0  0  0  0  0  0
   36.7402    7.5751    3.4311 O   0  0  0  0  0  0
   27.8041    4.8131    3.5383 C   0  0  0  0  0  0
   28.7611    5.8518    4.0279 C   0  0  0  0  0  0
   29.9163    6.1280    3.2927 C   0  0  0  0  0  0
   30.7716    7.1228    3.7313 C   0  0  0  0  0  0
   30.4180    7.8453    4.8624 C   0  0  0  0  0  0
   29.2632    7.5882    5.5745 C   0  0  0  0  0  0
   28.4417    6.5586    5.1827 C   0  0  0  0  0  0
   31.2369    5.6558   -3.4777 H   0  0  0  0  0  0
   33.1687    6.2004   -2.1132 H   0  0  0  0  0  0
   35.5548    3.4026   -4.3241 H   0  0  0  0  0  0
   33.6072    2.8450   -5.7177 H   0  0  0  0  0  0
   30.6859    4.6962   -6.0509 H   0  0  0  0  0  0
   31.3830    3.1428   -6.3313 H   0  0  0  0  0  0
   29.3775    5.0797   -4.4236 H   0  0  0  0  0  0
   29.4510    1.6045   -6.2980 H   0  0  0  0  0  0
   28.0889    1.9034   -5.2372 H   0  0  0  0  0  0
   28.4833    3.0496   -6.4951 H   0  0  0  0  0  0
   31.4028    1.6597   -4.1168 H   0  0  0  0  0  0
   30.6250    2.4510   -2.7689 H   0  0  0  0  0  0
   29.8079    1.1754   -3.6833 H   0  0  0  0  0  0
   27.1591    4.4135   -4.3822 H   0  0  0  0  0  0
   27.4818    3.0566   -3.3810 H   0  0  0  0  0  0
   26.4934    4.9522   -2.0228 H   0  0  0  0  0  0
   28.4834    3.4520   -1.0483 H   0  0  0  0  0  0
   29.3318    4.9477   -1.0444 H   0  0  0  0  0  0
   23.2523    2.6608    2.0005 H   0  0  0  0  0  0
   24.1514    1.9403   -0.2012 H   0  0  0  0  0  0
   26.1763    2.9404   -1.0992 H   0  0  0  0  0  0
   26.7546    6.4719    2.5270 H   0  0  0  0  0  0
   23.6349    4.5012    4.0185 H   0  0  0  0  0  0
   27.2014    6.6252   -3.2764 H   0  0  0  0  0  0
   33.7880    5.7877    1.5750 H   0  0  0  0  0  0
   37.7311    7.4079    0.8902 H   0  0  0  0  0  0
   37.6648    6.3906   -1.3739 H   0  0  0  0  0  0
   34.4401    8.2751    4.0910 H   0  0  0  0  0  0
   33.7496    7.8485    2.5483 H   0  0  0  0  0  0
   27.5753    4.1113    4.3440 H   0  0  0  0  0  0
   28.3320    4.2209    2.7915 H   0  0  0  0  0  0
   30.1549    5.5740    2.3975 H   0  0  0  0  0  0
   31.6653    7.3623    3.1813 H   0  0  0  0  0  0
   31.0084    8.6504    5.2164 H   0  0  0  0  0  0
   29.0071    8.1979    6.4165 H   0  0  0  0  0  0
   27.5588    6.3491    5.7650 H   0  0  0  0  0  0
  1  6  1  0  0  0
  1  2  2  0  0  0
  1  7  1  0  0  0
  2  3  1  0  0  0
  2 44  1  0  0  0
  3  4  2  0  0  0
  3 45  1  0  0  0
  4 27  1  0  0  0
  4  5  1  0  0  0
  5  6  2  0  0  0
  5 46  1  0  0  0
  6 47  1  0  0  0
  7  8  1  0  0  0
  7 48  1  0  0  0
  7 49  1  0  0  0
  8 10  1  0  0  0
  8 11  1  0  0  0
  8  9  1  0  0  0
  9 12  1  0  0  0
  9 50  1  0  0  0
 10 51  1  0  0  0
 10 52  1  0  0  0
 10 53  1  0  0  0
 11 54  1  0  0  0
 11 55  1  0  0  0
 11 56  1  0  0  0
 12 13  1  0  0  0
 12 57  1  0  0  0
 12 58  1  0  0  0
 13 26  1  0  0  0
 13 14  1  0  0  0
 13 59  1  0  0  0
 14 15  1  0  0  0
 14 60  1  0  0  0
 14 61  1  0  0  0
 15 16  1  0  0  0
 16 21  2  0  0  0
 16 19  1  0  0  0
 17 20  2  0  0  0
 17 18  1  0  0  0
 17 62  1  0  0  0
 18 19  2  0  0  0
 18 63  1  0  0  0
 19 64  1  0  0  0
 20 24  1  0  0  0
 20 21  1  0  0  0
 21 22  1  0  0  0
 22 23  1  0  0  0
 22 37  1  0  0  0
 22 65  1  0  0  0
 23 24  1  0  0  0
 23 25  2  0  0  0
 24 66  1  0  0  0
 26 67  1  0  0  0
 27 28  1  0  0  0
 28 29  2  0  0  0
 28 33  1  0  0  0
 29 30  1  0  0  0
 30 31  2  0  0  0
 30 68  1  0  0  0
 31 32  1  0  0  0
 31 34  1  0  0  0
 32 33  2  0  0  0
 32 69  1  0  0  0
 33 70  1  0  0  0
 34 35  1  0  0  0
 34 36  2  0  0  0
 35 71  1  0  0  0
 35 72  1  0  0  0
 37 38  1  0  0  0
 37 73  1  0  0  0
 37 74  1  0  0  0
 38 39  2  0  0  0
 38 43  1  0  0  0
 39 40  1  0  0  0
 39 75  1  0  0  0
 40 41  2  0  0  0
 40 76  1  0  0  0
 41 42  1  0  0  0
 41 77  1  0  0  0
 42 43  2  0  0  0
 42 78  1  0  0  0
 43 79  1  0  0  0
M  END
> <s_m_entry_id>
3190

> <s_m_entry_name>
dock_pv.282

> <s_m_Source_Path>
/home/csk/Desktop/cluster/DUD-E-result/adrb1

> <s_m_Source_File>
dock_pv.maegz

> <i_m_Source_File_Index>
282

> <chembl_id>
CHEMBL401335

> <chembl_pref_name>
None

> <i_lp_mmshare_version>
53161

> <i_f3d_flags>
0

> <r_lp_tautomer_probability>
1

> <s_lp_Force_Field>
OPLS_2005

> <r_lp_Energy>
53.404691

> <b_lp_Chiralities_Consistent>
1

> <s_lp_Variant>
CHEMBL213_lig711-2

> <s_i_glide_gridfile>
glide-grid_2vt4

> <i_i_glide_lignum>
814

> <i_i_glide_rotatable_bonds>
14

> <r_i_docking_score>
-7.29856537124636

> <r_i_glide_ligand_efficiency>
-0.169734078401078

> <r_i_glide_ligand_efficiency_sa>
-0.594646040306338

> <r_i_glide_ligand_efficiency_ln>
-1.53292556370174

> <r_i_glide_gscore>
-7.29856537124636

> <r_i_glide_lipo>
-3.16673995193325

> <r_i_glide_hbond>
-0.207254811642445

> <r_i_glide_metal>
0

> <r_i_glide_rewards>
-1.09960295869335

> <r_i_glide_evdw>
-58.0264892578125

> <r_i_glide_ecoul>
-3.66632437705994

> <r_i_glide_erotb>
0.643822051862113

> <r_i_glide_esite>
-0.0175165813898109

> <r_i_glide_emodel>
-62.8199178461462

> <r_i_glide_energy>
-61.6928136348724

> <r_i_glide_einternal>
14.348180770874

> <i_i_glide_confnum>
40

> <i_i_glide_posenum>
31

> <r_i_glide_eff_state_penalty>
0

> <s_user_duplicate_titles>
CHEMBL213_lig711

> <s_m_subgroup_title>
dock_pv

> <s_m_subgroupid>
dock_pv

> <b_m_subgroup_collapsed>
1

$$$$
CHEMBL213_lig1026
                    3D
 Schrodinger Suite 2021-1.
 54 56  0  0  1  0            999 V2000
   30.8001    5.5930   -2.7500 C   0  0  0  0  0  0
   29.6205    5.6805   -3.7437 C   0  0  0  0  0  0
   28.8352    7.0132   -3.6409 C   0  0  0  0  0  0
   25.0613    4.2357    2.0700 C   0  0  0  0  0  0
   24.8163    3.8635    0.7514 C   0  0  0  0  0  0
   25.8078    3.9949   -0.2173 C   0  0  0  0  0  0
   27.0648    4.5331    0.0849 C   0  0  0  0  0  0
   26.3010    4.7723    2.3999 C   0  0  0  0  0  0
   27.2928    4.9098    1.4208 C   0  0  0  0  0  0
   28.5068    5.4499    1.7930 O   0  0  0  0  0  0
   28.9212    5.1773    3.1525 C   0  0  0  0  0  0
   27.8001    5.4487    4.1968 C   0  0  0  0  0  0
   26.5788    5.1938    3.6956 N   0  0  0  0  0  0
   27.9819    5.8559    5.3406 O   0  0  0  0  0  0
   23.5709    3.4501    0.3850 O   0  0  0  0  0  0
   28.1441    4.7376   -1.0005 C   0  0  2  0  0  0
   27.6701    4.5890   -2.4822 C   0  0  0  0  0  0
   29.2244    3.8489   -0.8154 O   0  0  0  0  0  0
   28.6970    4.5593   -3.5427 N   0  0  2  0  0  0
   30.2038    5.6240   -5.1766 C   0  0  0  0  0  0
   30.9074    4.3660   -5.6891 C   0  0  0  0  0  0
   30.1794    3.2175   -6.0154 C   0  0  0  0  0  0
   30.7853    2.1727   -6.7105 C   0  0  0  0  0  0
   32.1246    2.2706   -7.0853 C   0  0  0  0  0  0
   32.8855    3.3872   -6.7277 C   0  0  0  0  0  0
   32.2664    4.4280   -6.0153 C   0  0  0  0  0  0
   34.2078    3.3955   -7.1274 O   0  0  0  0  0  0
   35.0084    4.5443   -6.8546 C   0  0  0  0  0  0
   31.6179    6.2520   -3.0336 H   0  0  0  0  0  0
   30.5227    5.8449   -1.7327 H   0  0  0  0  0  0
   31.2178    4.5857   -2.7231 H   0  0  0  0  0  0
   29.4277    7.8650   -3.9819 H   0  0  0  0  0  0
   27.9498    6.9930   -4.2787 H   0  0  0  0  0  0
   28.4693    7.2085   -2.6354 H   0  0  0  0  0  0
   24.2792    4.1431    2.8095 H   0  0  0  0  0  0
   25.5599    3.6876   -1.2149 H   0  0  0  0  0  0
   29.1571    4.1151    3.2341 H   0  0  0  0  0  0
   29.8109    5.7497    3.4153 H   0  0  0  0  0  0
   25.8250    5.2978    4.3566 H   0  0  0  0  0  0
   23.4078    3.4500   -0.5865 H   0  0  0  0  0  0
   28.5318    5.7441   -0.8508 H   0  0  0  0  0  0
   26.9322    5.3560   -2.7178 H   0  0  0  0  0  0
   27.1412    3.6434   -2.5954 H   0  0  0  0  0  0
   28.9916    3.0105   -1.2382 H   0  0  0  0  0  0
   29.2252    3.7003   -3.4718 H   0  0  0  0  0  0
   30.8970    6.4562   -5.2600 H   0  0  0  0  0  0
   29.4200    5.8501   -5.8892 H   0  0  0  0  0  0
   29.1251    3.1546   -5.7870 H   0  0  0  0  0  0
   30.2095    1.3011   -6.9834 H   0  0  0  0  0  0
   32.5867    1.4674   -7.6399 H   0  0  0  0  0  0
   32.8176    5.3240   -5.7730 H   0  0  0  0  0  0
   36.0130    4.3887   -7.2469 H   0  0  0  0  0  0
   34.6054    5.4367   -7.3361 H   0  0  0  0  0  0
   35.0999    4.7295   -5.7833 H   0  0  0  0  0  0
  1  2  1  0  0  0
  1 29  1  0  0  0
  1 30  1  0  0  0
  1 31  1  0  0  0
  2 19  1  0  0  0
  2  3  1  0  0  0
  2 20  1  0  0  0
  3 32  1  0  0  0
  3 33  1  0  0  0
  3 34  1  0  0  0
  4  8  2  0  0  0
  4  5  1  0  0  0
  4 35  1  0  0  0
  5 15  1  0  0  0
  5  6  2  0  0  0
  6  7  1  0  0  0
  6 36  1  0  0  0
  7  9  2  0  0  0
  7 16  1  0  0  0
  8  9  1  0  0  0
  8 13  1  0  0  0
  9 10  1  0  0  0
 10 11  1  0  0  0
 11 12  1  0  0  0
 11 37  1  0  0  0
 11 38  1  0  0  0
 12 14  2  0  0  0
 12 13  1  0  0  0
 13 39  1  0  0  0
 15 40  1  0  0  0
 16 17  1  0  0  0
 16 18  1  0  0  0
 16 41  1  0  0  0
 17 19  1  0  0  0
 17 42  1  0  0  0
 17 43  1  0  0  0
 18 44  1  0  0  0
 19 45  1  0  0  0
 20 21  1  0  0  0
 20 46  1  0  0  0
 20 47  1  0  0  0
 21 22  2  0  0  0
 21 26  1  0  0  0
 22 23  1  0  0  0
 22 48  1  0  0  0
 23 24  2  0  0  0
 23 49  1  0  0  0
 24 25  1  0  0  0
 24 50  1  0  0  0
 25 26  2  0  0  0
 25 27  1  0  0  0
 26 51  1  0  0  0
 27 28  1  0  0  0
 28 52  1  0  0  0
 28 53  1  0  0  0
 28 54  1  0  0  0
M  END
> <s_m_entry_id>
3191

> <s_m_entry_name>
dock_pv.283

> <s_m_Source_Path>
/home/csk/Desktop/cluster/DUD-E-result/adrb1

> <s_m_Source_File>
dock_pv.maegz

> <i_m_Source_File_Index>
283

> <chembl_id>
CHEMBL604125

> <chembl_pref_name>
None

> <i_lp_mmshare_version>
53161

> <i_f3d_flags>
0

> <r_lp_tautomer_probability>
0.999999999999998

> <s_lp_Force_Field>
OPLS_2005

> <r_lp_Energy>
31.624354

> <b_lp_Chiralities_Consistent>
1

> <s_lp_Variant>
CHEMBL213_lig1026-1

> <s_i_glide_gridfile>
glide-grid_2vt4

> <i_i_glide_lignum>
1173

> <i_i_glide_rotatable_bonds>
9

> <r_i_docking_score>
-7.29255094360268

> <r_i_glide_ligand_efficiency>
-0.26044824798581

> <r_i_glide_ligand_efficiency_sa>
-0.790874276699596

> <r_i_glide_ligand_efficiency_ln>
-1.68333487638324

> <r_i_glide_gscore>
-7.29255094360268

> <r_i_glide_lipo>
-2.32899765051467

> <r_i_glide_hbond>
-0.186033373027116

> <r_i_glide_metal>
0

> <r_i_glide_rewards>
-1.56014388971148

> <r_i_glide_evdw>
-30.5098686218262

> <r_i_glide_ecoul>
-16.492504119873

> <r_i_glide_erotb>
0.781993018722848

> <r_i_glide_esite>
0

> <r_i_glide_emodel>
-58.7804270436493

> <r_i_glide_energy>
-47.0023727416992

> <r_i_glide_einternal>
12.9615211486816

> <i_i_glide_confnum>
14

> <i_i_glide_posenum>
281

> <r_i_glide_eff_state_penalty>
0

> <s_user_duplicate_titles>
CHEMBL213_lig1026,603198

> <s_m_subgroup_title>
dock_pv

> <s_m_subgroupid>
dock_pv

> <b_m_subgroup_collapsed>
1

$$$$
CHEMBL213_lig674
                    3D
 Schrodinger Suite 2021-1.
 52 54  0  0  1  0            999 V2000
   26.5988    5.8503    4.1402 C   0  0  0  0  0  0
   26.2603    5.1696    2.8334 C   0  0  0  0  0  0
   27.0032    5.4501    1.6770 C   0  0  0  0  0  0
   26.6971    4.8496    0.4472 C   0  0  0  0  0  0
   27.4541    5.2044   -0.7775 C   0  0  0  0  0  0
   35.3226    5.6168    0.2550 C   0  0  0  0  0  0
   28.5283    4.4213   -1.2175 C   0  0  0  0  0  0
   27.6785    6.4002    4.3411 O   0  0  0  0  0  0
   35.5253    6.5483    1.2847 C   0  0  0  0  0  0
   33.9490    5.4180   -0.3884 C   0  0  1  0  0  0
   29.2381    4.7406   -2.3786 C   0  0  0  0  0  0
   36.7903    6.7167    1.8487 C   0  0  0  0  0  0
   25.6027    5.8508    5.0712 O   0  0  0  0  0  0
   30.2733    3.8766   -2.7693 N   0  0  0  0  0  0
   32.6079    5.8468   -2.4650 N   0  0  1  0  0  0
   37.0079    7.8452    3.1353 Cl  0  0  0  0  0  0
   32.8725    5.8497    0.4348 O   0  0  0  0  0  0
   25.2039    4.2500    2.7434 C   0  0  0  0  0  0
   25.6410    3.9364    0.3845 C   0  0  0  0  0  0
   27.0876    6.3218   -1.5342 C   0  0  0  0  0  0
   36.4144    4.8704   -0.2067 C   0  0  0  0  0  0
   24.8996    3.6359    1.5255 C   0  0  0  0  0  0
   27.7837    6.6497   -2.6987 C   0  0  0  0  0  0
   37.6815    5.0460    0.3507 C   0  0  0  0  0  0
   33.8640    6.1252   -1.7626 C   0  0  0  0  0  0
   28.8613    5.8696   -3.1147 C   0  0  0  0  0  0
   37.8709    5.9716    1.3767 C   0  0  0  0  0  0
   31.2955    4.1914   -3.7689 C   0  0  0  0  0  0
   32.6623    4.5680   -3.1670 C   0  0  0  0  0  0
   27.8081    6.1705    1.7158 H   0  0  0  0  0  0
   28.7941    3.5319   -0.6649 H   0  0  0  0  0  0
   34.7047    7.1425    1.6572 H   0  0  0  0  0  0
   33.8167    4.3448   -0.5190 H   0  0  0  0  0  0
   25.8848    6.3633    5.8300 H   0  0  0  0  0  0
   30.3797    3.0246   -2.2334 H   0  0  0  0  0  0
   31.8660    5.7541   -1.7776 H   0  0  0  0  0  0
   32.8725    6.8149    0.4616 H   0  0  0  0  0  0
   24.6069    4.0019    3.6098 H   0  0  0  0  0  0
   25.3797    3.4758   -0.5571 H   0  0  0  0  0  0
   26.2469    6.9275   -1.2290 H   0  0  0  0  0  0
   36.2895    4.1491   -1.0006 H   0  0  0  0  0  0
   24.0790    2.9374    1.4658 H   0  0  0  0  0  0
   27.4832    7.5069   -3.2836 H   0  0  0  0  0  0
   38.5136    4.4592   -0.0146 H   0  0  0  0  0  0
   34.7120    5.8476   -2.3923 H   0  0  0  0  0  0
   33.9680    7.1966   -1.6131 H   0  0  0  0  0  0
   29.3669    6.1510   -4.0233 H   0  0  0  0  0  0
   38.8519    6.0995    1.8092 H   0  0  0  0  0  0
   31.4169    3.2991   -4.3827 H   0  0  0  0  0  0
   30.9729    4.9647   -4.4658 H   0  0  0  0  0  0
   32.9830    3.7685   -2.4975 H   0  0  0  0  0  0
   33.4020    4.6337   -3.9676 H   0  0  0  0  0  0
  1  2  1  0  0  0
  1  8  2  0  0  0
  1 13  1  0  0  0
  2  3  1  0  0  0
  2 18  2  0  0  0
  3  4  2  0  0  0
  3 30  1  0  0  0
  4  5  1  0  0  0
  4 19  1  0  0  0
  5  7  1  0  0  0
  5 20  2  0  0  0
  6 10  1  0  0  0
  6  9  2  0  0  0
  6 21  1  0  0  0
  7 11  2  0  0  0
  7 31  1  0  0  0
  9 12  1  0  0  0
  9 32  1  0  0  0
 10 25  1  0  0  0
 10 17  1  0  0  0
 10 33  1  0  0  0
 11 14  1  0  0  0
 11 26  1  0  0  0
 12 16  1  0  0  0
 12 27  2  0  0  0
 13 34  1  0  0  0
 14 28  1  0  0  0
 14 35  1  0  0  0
 15 29  1  0  0  0
 15 25  1  0  0  0
 15 36  1  0  0  0
 17 37  1  0  0  0
 18 22  1  0  0  0
 18 38  1  0  0  0
 19 22  2  0  0  0
 19 39  1  0  0  0
 20 23  1  0  0  0
 20 40  1  0  0  0
 21 24  2  0  0  0
 21 41  1  0  0  0
 22 42  1  0  0  0
 23 26  2  0  0  0
 23 43  1  0  0  0
 24 27  1  0  0  0
 24 44  1  0  0  0
 25 45  1  0  0  0
 25 46  1  0  0  0
 26 47  1  0  0  0
 27 48  1  0  0  0
 28 29  1  0  0  0
 28 49  1  0  0  0
 28 50  1  0  0  0
 29 51  1  0  0  0
 29 52  1  0  0  0
M  END
> <s_m_entry_id>
3192

> <s_m_entry_name>
dock_pv.284

> <s_m_Source_Path>
/home/csk/Desktop/cluster/DUD-E-result/adrb1

> <s_m_Source_File>
dock_pv.maegz

> <i_m_Source_File_Index>
284

> <chembl_id>
CHEMBL208427

> <chembl_pref_name>
SOLABEGRON

> <i_lp_mmshare_version>
53161

> <i_f3d_flags>
0

> <r_lp_tautomer_probability>
1

> <s_lp_Force_Field>
OPLS_2005

> <r_lp_Energy>
35.609173

> <b_lp_Chiralities_Consistent>
1

> <s_lp_Variant>
CHEMBL213_lig674-1

> <s_i_glide_gridfile>
glide-grid_2vt4

> <i_i_glide_lignum>
776

> <i_i_glide_rotatable_bonds>
11

> <r_i_docking_score>
-7.29154770040219

> <r_i_glide_ligand_efficiency>
-0.251432679324214

> <r_i_glide_ligand_efficiency_sa>
-0.772480850347998

> <r_i_glide_ligand_efficiency_ln>
-1.66957952569583

> <r_i_glide_gscore>
-7.29154770040219

> <r_i_glide_lipo>
-2.24391177799567

> <r_i_glide_hbond>
-0.608

> <r_i_glide_metal>
0

> <r_i_glide_rewards>
-1.63896237458863

> <r_i_glide_evdw>
-45.0133209228516

> <r_i_glide_ecoul>
-9.72348499298096

> <r_i_glide_erotb>
0.933678456972276

> <r_i_glide_esite>
-0.0251632097004379

> <r_i_glide_emodel>
-72.6249884587987

> <r_i_glide_energy>
-54.7368059158325

> <r_i_glide_einternal>
13.8020601272583

> <i_i_glide_confnum>
86

> <i_i_glide_posenum>
235

> <r_i_glide_eff_state_penalty>
0

> <s_user_duplicate_titles>
CHEMBL213_lig674

> <s_m_subgroup_title>
dock_pv

> <s_m_subgroupid>
dock_pv

> <b_m_subgroup_collapsed>
1

$$$$
CHEMBL213_lig114
                    3D
 Schrodinger Suite 2021-1.
 70 74  0  0  1  0            999 V2000
   35.2332    6.4446    3.2024 S   0  0  0  0  0  0
   27.1730    6.7619    5.0222 N   0  0  0  0  0  0
   29.3055    6.5602    4.3864 C   0  0  0  0  0  0
   27.3249    5.7705    4.1770 C   0  0  0  0  0  0
   28.6175    5.5248    3.8569 O   0  0  0  0  0  0
   35.4500    5.0505    2.1243 N   0  0  0  0  0  0
   28.3967    7.2443    5.1781 C   0  0  0  0  0  0
   33.4784    6.5774    3.5003 C   0  0  0  0  0  0
   35.8526    6.0556    4.4743 O   0  0  0  0  0  0
   35.6688    7.6608    2.5062 O   0  0  0  0  0  0
   27.6579    4.9756   -0.0838 C   0  0  0  0  0  0
   30.7501    6.6501    4.0502 C   0  0  0  0  0  0
   26.7803    4.1285   -0.7353 C   0  0  0  0  0  0
   31.2854    3.3145   -5.6814 C   0  0  0  0  0  0
   27.4721    5.2433    1.2614 C   0  0  0  0  0  0
   26.4181    4.6773    1.9940 C   0  0  0  0  0  0
   30.2434    1.4428   -6.8260 N   0  0  0  0  0  0
   26.2471    4.9233    3.5032 C   0  0  0  0  0  0
   33.0324    6.9862    4.7562 C   0  0  0  0  0  0
   32.5615    6.2479    2.5034 C   0  0  0  0  0  0
   31.2022    6.2500    2.7892 C   0  0  0  0  0  0
   31.6668    7.0500    5.0208 C   0  0  0  0  0  0
   35.5731    5.0923    0.7309 C   0  0  0  0  0  0
   25.6996    3.5703   -0.0456 C   0  0  0  0  0  0
   32.0030    4.6633   -5.7529 C   0  0  1  0  0  0
   28.7123    5.5102   -0.7415 F   0  0  0  0  0  0
   25.5151    3.8496    1.3128 C   0  0  0  0  0  0
   27.0081    3.8501   -2.0326 F   0  0  0  0  0  0
   33.9329    3.8260   -4.3585 N   0  0  2  0  0  0
   35.8301    4.9940   -2.0476 C   0  0  0  0  0  0
   30.8908    2.6374   -6.8430 C   0  0  0  0  0  0
   36.2027    4.0070    0.1224 C   0  0  0  0  0  0
   35.0845    6.1395   -0.0552 C   0  0  0  0  0  0
   35.2007    6.0849   -1.4405 C   0  0  0  0  0  0
   36.3368    3.9611   -1.2601 C   0  0  0  0  0  0
   31.4270    5.6392   -4.8986 O   0  0  0  0  0  0
   33.5387    4.5772   -5.5510 C   0  0  0  0  0  0
   31.0099    2.7087   -4.4490 C   0  0  0  0  0  0
   29.9946    0.8777   -5.6162 C   0  0  0  0  0  0
   35.3809    3.7088   -4.2414 C   0  0  0  0  0  0
   36.0113    4.9415   -3.5599 C   0  0  0  0  0  0
   30.3836    1.4664   -4.4149 C   0  0  0  0  0  0
   35.6591    4.1690    2.5632 H   0  0  0  0  0  0
   28.6023    8.1047    5.7995 H   0  0  0  0  0  0
   28.2075    5.8688    1.7077 H   0  0  0  0  0  0
   26.2094    3.9463    3.9844 H   0  0  0  0  0  0
   25.2626    5.3637    3.6646 H   0  0  0  0  0  0
   33.7387    7.2582    5.5280 H   0  0  0  0  0  0
   32.8885    5.9297    1.5259 H   0  0  0  0  0  0
   30.5113    5.9130    2.0326 H   0  0  0  0  0  0
   31.3252    7.3674    5.9904 H   0  0  0  0  0  0
   25.0072    2.9291   -0.5707 H   0  0  0  0  0  0
   31.8610    5.0486   -6.7580 H   0  0  0  0  0  0
   24.6812    3.4063    1.8385 H   0  0  0  0  0  0
   33.4926    2.9162   -4.3539 H   0  0  0  0  0  0
   31.0853    3.0502   -7.8222 H   0  0  0  0  0  0
   36.5940    3.1894    0.7106 H   0  0  0  0  0  0
   34.6079    6.9990    0.3889 H   0  0  0  0  0  0
   34.8068    6.8978   -2.0302 H   0  0  0  0  0  0
   36.8491    3.1242   -1.7128 H   0  0  0  0  0  0
   31.4628    6.4953   -5.3415 H   0  0  0  0  0  0
   33.9614    4.0744   -6.4231 H   0  0  0  0  0  0
   33.9683    5.5785   -5.5426 H   0  0  0  0  0  0
   31.2955    3.1940   -3.5261 H   0  0  0  0  0  0
   29.4914   -0.0777   -5.6207 H   0  0  0  0  0  0
   35.5580    2.8416   -3.6057 H   0  0  0  0  0  0
   35.8726    3.4645   -5.1844 H   0  0  0  0  0  0
   37.0823    4.9550   -3.7646 H   0  0  0  0  0  0
   35.6269    5.8500   -4.0147 H   0  0  0  0  0  0
   30.2075    0.9830   -3.4661 H   0  0  0  0  0  0
  1  6  1  0  0  0
  1  8  1  0  0  0
  1  9  2  0  0  0
  1 10  2  0  0  0
  2  7  1  0  0  0
  2  4  2  0  0  0
  3 12  1  0  0  0
  3  5  1  0  0  0
  3  7  2  0  0  0
  4  5  1  0  0  0
  4 18  1  0  0  0
  6 23  1  0  0  0
  6 43  1  0  0  0
  7 44  1  0  0  0
  8 19  2  0  0  0
  8 20  1  0  0  0
 11 15  2  0  0  0
 11 26  1  0  0  0
 11 13  1  0  0  0
 12 21  1  0  0  0
 12 22  2  0  0  0
 13 24  2  0  0  0
 13 28  1  0  0  0
 14 25  1  0  0  0
 14 31  2  0  0  0
 14 38  1  0  0  0
 15 16  1  0  0  0
 15 45  1  0  0  0
 16 18  1  0  0  0
 16 27  2  0  0  0
 17 31  1  0  0  0
 17 39  2  0  0  0
 18 46  1  0  0  0
 18 47  1  0  0  0
 19 22  1  0  0  0
 19 48  1  0  0  0
 20 21  2  0  0  0
 20 49  1  0  0  0
 21 50  1  0  0  0
 22 51  1  0  0  0
 23 32  1  0  0  0
 23 33  2  0  0  0
 24 27  1  0  0  0
 24 52  1  0  0  0
 25 37  1  0  0  0
 25 36  1  0  0  0
 25 53  1  0  0  0
 27 54  1  0  0  0
 29 40  1  0  0  0
 29 37  1  0  0  0
 29 55  1  0  0  0
 30 34  2  0  0  0
 30 41  1  0  0  0
 30 35  1  0  0  0
 31 56  1  0  0  0
 32 35  2  0  0  0
 32 57  1  0  0  0
 33 34  1  0  0  0
 33 58  1  0  0  0
 34 59  1  0  0  0
 35 60  1  0  0  0
 36 61  1  0  0  0
 37 62  1  0  0  0
 37 63  1  0  0  0
 38 42  2  0  0  0
 38 64  1  0  0  0
 39 42  1  0  0  0
 39 65  1  0  0  0
 40 41  1  0  0  0
 40 66  1  0  0  0
 40 67  1  0  0  0
 41 68  1  0  0  0
 41 69  1  0  0  0
 42 70  1  0  0  0
M  END
> <s_m_entry_id>
3193

> <s_m_entry_name>
dock_pv.285

> <s_m_Source_Path>
/home/csk/Desktop/cluster/DUD-E-result/adrb1

> <s_m_Source_File>
dock_pv.maegz

> <i_m_Source_File_Index>
285

> <chembl_id>
CHEMBL287880

> <chembl_pref_name>
None

> <i_lp_mmshare_version>
53161

> <i_f3d_flags>
0

> <r_lp_tautomer_probability>
1

> <s_lp_Force_Field>
OPLS_2005

> <r_lp_Energy>
17.749301

> <b_lp_Chiralities_Consistent>
1

> <s_lp_Variant>
CHEMBL213_lig114-1

> <s_i_glide_gridfile>
glide-grid_2vt4

> <i_i_glide_lignum>
137

> <i_i_glide_rotatable_bonds>
13

> <r_i_docking_score>
-7.28959329901004

> <r_i_glide_ligand_efficiency>
-0.173561745214525

> <r_i_glide_ligand_efficiency_sa>
-0.60330525014703

> <r_i_glide_ligand_efficiency_ln>
-1.53864534387928

> <r_i_glide_gscore>
-7.28959329901004

> <r_i_glide_lipo>
-3.25636141892442

> <r_i_glide_hbond>
-0.32

> <r_i_glide_metal>
0

> <r_i_glide_rewards>
-0.622929642469722

> <r_i_glide_evdw>
-59.9797668457031

> <r_i_glide_ecoul>
-3.65445470809937

> <r_i_glide_erotb>
0.551787477696706

> <r_i_glide_esite>
-0.0949331668125424

> <r_i_glide_emodel>
-85.8723441713908

> <r_i_glide_energy>
-63.6342215538025

> <r_i_glide_einternal>
10.3604001998901

> <i_i_glide_confnum>
10

> <i_i_glide_posenum>
381

> <r_i_glide_eff_state_penalty>
0

> <s_user_duplicate_titles>
CHEMBL213_lig114

> <s_m_subgroup_title>
dock_pv

> <s_m_subgroupid>
dock_pv

> <b_m_subgroup_collapsed>
1

$$$$
CHEMBL213_lig925
                    3D
 Schrodinger Suite 2021-1.
 68 71  0  0  1  0            999 V2000
   29.7025    5.8246   -2.9811 C   0  0  0  0  0  0
   29.0623    5.4174   -1.6348 C   0  0  0  0  0  0
   27.7847    4.9978   -1.6833 N   0  0  0  0  0  0
   29.7141    5.4494   -0.5900 O   0  0  0  0  0  0
   27.0271    4.5481   -0.5961 C   0  0  0  0  0  0
   26.2080    3.4501   -0.8150 C   0  0  0  0  0  0
   25.3630    2.9847    0.1815 C   0  0  0  0  0  0
   25.3344    3.6235    1.4178 C   0  0  0  0  0  0
   26.2017    4.6943    1.6572 C   0  0  0  0  0  0
   27.0310    5.1742    0.6512 C   0  0  0  0  0  0
   24.3555    3.1227    2.4759 C   0  0  0  0  0  0
   23.6151    4.2130    3.2797 C   0  0  0  0  0  0
   24.4538    4.6500    4.3850 N   0  0  2  0  0  0
   23.8257    5.4231    5.4500 C   0  0  0  0  0  0
   24.6844    6.6515    5.8700 C   0  0  1  0  0  0
   25.8477    7.0553    4.9191 C   0  0  0  0  0  0
   23.8080    7.7550    5.9850 O   0  0  0  0  0  0
   26.8555    6.0338    4.9485 O   0  0  0  0  0  0
   28.1336    6.3872    4.5800 C   0  0  0  0  0  0
   28.8072    7.4500    5.1869 C   0  0  0  0  0  0
   30.0963    7.7833    4.7861 C   0  0  0  0  0  0
   30.7165    7.0501    3.7778 C   0  0  0  0  0  0
   30.0653    5.9721    3.1851 C   0  0  0  0  0  0
   28.7865    5.6254    3.6096 C   0  0  0  0  0  0
   31.1782    5.4440   -3.1625 C   0  0  0  0  0  0
   31.7107    5.0771   -4.3805 N   0  0  0  0  0  0
   33.0329    4.8070   -4.1330 C   0  0  0  0  0  0
   33.2163    5.0580   -2.7873 C   0  0  0  0  0  0
   32.0957    5.4498   -2.2144 N   0  0  0  0  0  0
   31.0333    4.9431   -5.6584 C   0  0  0  0  0  0
   30.5639    3.5204   -5.9312 C   0  0  0  0  0  0
   29.4137    3.0144   -5.3111 C   0  0  0  0  0  0
   29.0370    1.6942   -5.5048 C   0  0  0  0  0  0
   29.8088    0.8827   -6.3229 C   0  0  0  0  0  0
   30.9282    1.3848   -6.9840 C   0  0  0  0  0  0
   31.3117    2.7053   -6.7835 C   0  0  0  0  0  0
   29.5424    6.8756   -3.2150 H   0  0  0  0  0  0
   29.1017    5.3644   -3.7528 H   0  0  0  0  0  0
   27.3525    4.8687   -2.5865 H   0  0  0  0  0  0
   26.2034    2.9822   -1.7876 H   0  0  0  0  0  0
   24.7066    2.1532   -0.0270 H   0  0  0  0  0  0
   26.2023    5.2086    2.5996 H   0  0  0  0  0  0
   27.6534    6.0356    0.8400 H   0  0  0  0  0  0
   23.5907    2.5229    1.9844 H   0  0  0  0  0  0
   24.8868    2.4311    3.1307 H   0  0  0  0  0  0
   23.4245    5.0494    2.6080 H   0  0  0  0  0  0
   22.6426    3.8496    3.6161 H   0  0  0  0  0  0
   25.3130    5.0921    4.0803 H   0  0  0  0  0  0
   22.8094    5.7184    5.1851 H   0  0  0  0  0  0
   23.6905    4.7602    6.3057 H   0  0  0  0  0  0
   25.1163    6.4548    6.8511 H   0  0  0  0  0  0
   25.4792    7.1685    3.8977 H   0  0  0  0  0  0
   26.2353    8.0389    5.1851 H   0  0  0  0  0  0
   22.9990    7.4867    6.4428 H   0  0  0  0  0  0
   28.3362    8.0157    5.9747 H   0  0  0  0  0  0
   30.6083    8.6144    5.2477 H   0  0  0  0  0  0
   31.7145    7.3154    3.4586 H   0  0  0  0  0  0
   30.5600    5.3894    2.4206 H   0  0  0  0  0  0
   28.3153    4.7547    3.1850 H   0  0  0  0  0  0
   33.7017    4.4791   -4.9160 H   0  0  0  0  0  0
   34.1390    4.9614   -2.2324 H   0  0  0  0  0  0
   31.7411    5.2746   -6.4150 H   0  0  0  0  0  0
   30.2053    5.6492   -5.7130 H   0  0  0  0  0  0
   28.7960    3.6061   -4.6626 H   0  0  0  0  0  0
   28.1638    1.3017   -5.0017 H   0  0  0  0  0  0
   29.5323   -0.1516   -6.4167 H   0  0  0  0  0  0
   31.5204    0.7373   -7.6147 H   0  0  0  0  0  0
   32.1994    3.0830   -7.2700 H   0  0  0  0  0  0
  1  2  1  0  0  0
  1 25  1  0  0  0
  1 37  1  0  0  0
  1 38  1  0  0  0
  2  4  2  0  0  0
  2  3  1  0  0  0
  3  5  1  0  0  0
  3 39  1  0  0  0
  5 10  1  0  0  0
  5  6  2  0  0  0
  6  7  1  0  0  0
  6 40  1  0  0  0
  7  8  2  0  0  0
  7 41  1  0  0  0
  8  9  1  0  0  0
  8 11  1  0  0  0
  9 10  2  0  0  0
  9 42  1  0  0  0
 10 43  1  0  0  0
 11 12  1  0  0  0
 11 44  1  0  0  0
 11 45  1  0  0  0
 12 13  1  0  0  0
 12 46  1  0  0  0
 12 47  1  0  0  0
 13 14  1  0  0  0
 13 48  1  0  0  0
 14 15  1  0  0  0
 14 49  1  0  0  0
 14 50  1  0  0  0
 15 16  1  0  0  0
 15 17  1  0  0  0
 15 51  1  0  0  0
 16 18  1  0  0  0
 16 52  1  0  0  0
 16 53  1  0  0  0
 17 54  1  0  0  0
 18 19  1  0  0  0
 19 20  2  0  0  0
 19 24  1  0  0  0
 20 21  1  0  0  0
 20 55  1  0  0  0
 21 22  2  0  0  0
 21 56  1  0  0  0
 22 23  1  0  0  0
 22 57  1  0  0  0
 23 24  2  0  0  0
 23 58  1  0  0  0
 24 59  1  0  0  0
 25 26  1  0  0  0
 25 29  2  0  0  0
 26 27  1  0  0  0
 26 30  1  0  0  0
 27 28  2  0  0  0
 27 60  1  0  0  0
 28 29  1  0  0  0
 28 61  1  0  0  0
 30 31  1  0  0  0
 30 62  1  0  0  0
 30 63  1  0  0  0
 31 32  2  0  0  0
 31 36  1  0  0  0
 32 33  1  0  0  0
 32 64  1  0  0  0
 33 34  2  0  0  0
 33 65  1  0  0  0
 34 35  1  0  0  0
 34 66  1  0  0  0
 35 36  2  0  0  0
 35 67  1  0  0  0
 36 68  1  0  0  0
M  END
> <s_m_entry_id>
3194

> <s_m_entry_name>
dock_pv.286

> <s_m_Source_Path>
/home/csk/Desktop/cluster/DUD-E-result/adrb1

> <s_m_Source_File>
dock_pv.maegz

> <i_m_Source_File_Index>
286

> <chembl_id>
CHEMBL467083

> <chembl_pref_name>
None

> <i_lp_mmshare_version>
53161

> <i_f3d_flags>
0

> <r_lp_tautomer_probability>
1

> <s_lp_Force_Field>
OPLS_2005

> <r_lp_Energy>
35.007019

> <b_lp_Chiralities_Consistent>
1

> <s_lp_Variant>
CHEMBL213_lig925-1

> <s_i_glide_gridfile>
glide-grid_2vt4

> <i_i_glide_lignum>
1033

> <i_i_glide_rotatable_bonds>
15

> <r_i_docking_score>
-7.28915049507357

> <r_i_glide_ligand_efficiency>
-0.202476402640933

> <r_i_glide_ligand_efficiency_sa>
-0.668562350339653

> <r_i_glide_ligand_efficiency_ln>
-1.59029570793675

> <r_i_glide_gscore>
-7.28915049507357

> <r_i_glide_lipo>
-3.85707089034316

> <r_i_glide_hbond>
-0.459936943792597

> <r_i_glide_metal>
0

> <r_i_glide_rewards>
-0.296960351333349

> <r_i_glide_evdw>
-48.8510055541992

> <r_i_glide_ecoul>
-8.78677558898926

> <r_i_glide_erotb>
1.1243062452962

> <r_i_glide_esite>
-0.0389219388423185

> <r_i_glide_emodel>
-70.7236412802624

> <r_i_glide_energy>
-57.6377811431885

> <r_i_glide_einternal>
18.0413570404053

> <i_i_glide_confnum>
14

> <i_i_glide_posenum>
296

> <r_i_glide_eff_state_penalty>
0

> <s_user_duplicate_titles>
CHEMBL213_lig925,480456

> <s_m_subgroup_title>
dock_pv

> <s_m_subgroupid>
dock_pv

> <b_m_subgroup_collapsed>
1

$$$$
CHEMBL213_lig310
                    3D
 Schrodinger Suite 2021-1.
 50 53  0  0  1  0            999 V2000
   27.4866    5.5537    3.3231 N   0  0  0  0  0  0
   33.1624    4.6494   -4.2093 N   0  0  0  0  0  0
   32.6080    4.3835   -6.3852 N   0  0  0  0  0  0
   32.7532    5.8502    1.3951 C   0  0  0  0  0  0
   32.1903    4.7119   -5.1855 C   0  0  0  0  0  0
   31.5431    6.1634    1.8959 N   0  0  0  0  0  0
   33.0458    4.9460   -2.8324 C   0  0  0  0  0  0
   28.9419    5.4342    3.0985 C   0  0  0  0  0  0
   29.5292    6.7992    5.0874 N   0  0  2  0  0  0
   32.8287    5.5200   -0.0887 C   0  0  0  0  0  0
   34.2794    4.2459   -4.9031 C   0  0  0  0  0  0
   33.8856    4.1005   -6.2237 C   0  0  0  0  0  0
   29.7718    6.6289    3.6574 C   0  0  1  0  0  0
   26.5606    4.9164    2.4890 C   0  0  0  0  0  0
   33.7716    5.8506    2.0901 O   0  0  0  0  0  0
   31.8252    4.7651   -2.1737 C   0  0  0  0  0  0
   34.1558    5.4123   -2.1212 C   0  0  0  0  0  0
   31.7174    5.0500   -0.8150 C   0  0  0  0  0  0
   34.0464    5.6902   -0.7621 C   0  0  0  0  0  0
   31.2800    6.5505    3.2906 C   0  0  0  0  0  0
   27.2366    5.8326    4.7494 C   0  0  0  0  0  0
   28.1010    6.9781    5.3282 C   0  0  0  0  0  0
   26.7519    4.8946    1.0971 C   0  0  0  0  0  0
   25.4082    4.2970    3.0043 C   0  0  0  0  0  0
   24.4988    3.6547    2.1657 C   0  0  0  0  0  0
   25.8471    4.2501    0.2555 C   0  0  0  0  0  0
   24.7251    3.6297    0.7937 C   0  0  0  0  0  0
   31.1898    5.0302   -4.9351 H   0  0  0  0  0  0
   30.7714    6.2274    1.2535 H   0  0  0  0  0  0
   29.1408    5.3166    2.0367 H   0  0  0  0  0  0
   29.2821    4.5167    3.5813 H   0  0  0  0  0  0
   30.0184    7.6249    5.4064 H   0  0  0  0  0  0
   35.2325    4.1074   -4.4134 H   0  0  0  0  0  0
   34.5144    3.8056   -7.0518 H   0  0  0  0  0  0
   29.4085    7.5348    3.1849 H   0  0  0  0  0  0
   30.9584    4.3901   -2.6993 H   0  0  0  0  0  0
   35.1073    5.5667   -2.6110 H   0  0  0  0  0  0
   30.7641    4.8906   -0.3314 H   0  0  0  0  0  0
   34.9196    6.0511   -0.2359 H   0  0  0  0  0  0
   31.7860    5.8502    3.9544 H   0  0  0  0  0  0
   31.7443    7.5229    3.4706 H   0  0  0  0  0  0
   26.1879    6.0891    4.9024 H   0  0  0  0  0  0
   27.4385    4.9256    5.3218 H   0  0  0  0  0  0
   27.7756    7.9363    4.9215 H   0  0  0  0  0  0
   27.9453    7.0492    6.4041 H   0  0  0  0  0  0
   27.5958    5.3895    0.6429 H   0  0  0  0  0  0
   25.2099    4.2893    4.0632 H   0  0  0  0  0  0
   23.6207    3.1783    2.5763 H   0  0  0  0  0  0
   26.0034    4.2443   -0.8146 H   0  0  0  0  0  0
   24.0193    3.1403    0.1363 H   0  0  0  0  0  0
  1  8  1  0  0  0
  1 14  1  0  0  0
  1 21  1  0  0  0
  2  7  1  0  0  0
  2  5  1  0  0  0
  2 11  1  0  0  0
  3  5  2  0  0  0
  3 12  1  0  0  0
  4  6  1  0  0  0
  4 10  1  0  0  0
  4 15  2  0  0  0
  5 28  1  0  0  0
  6 20  1  0  0  0
  6 29  1  0  0  0
  7 17  2  0  0  0
  7 16  1  0  0  0
  8 13  1  0  0  0
  8 30  1  0  0  0
  8 31  1  0  0  0
  9 22  1  0  0  0
  9 13  1  0  0  0
  9 32  1  0  0  0
 10 18  1  0  0  0
 10 19  2  0  0  0
 11 12  2  0  0  0
 11 33  1  0  0  0
 12 34  1  0  0  0
 13 20  1  0  0  0
 13 35  1  0  0  0
 14 23  1  0  0  0
 14 24  2  0  0  0
 16 18  2  0  0  0
 16 36  1  0  0  0
 17 19  1  0  0  0
 17 37  1  0  0  0
 18 38  1  0  0  0
 19 39  1  0  0  0
 20 40  1  0  0  0
 20 41  1  0  0  0
 21 22  1  0  0  0
 21 42  1  0  0  0
 21 43  1  0  0  0
 22 44  1  0  0  0
 22 45  1  0  0  0
 23 26  2  0  0  0
 23 46  1  0  0  0
 24 25  1  0  0  0
 24 47  1  0  0  0
 25 27  2  0  0  0
 25 48  1  0  0  0
 26 27  1  0  0  0
 26 49  1  0  0  0
 27 50  1  0  0  0
M  END
> <s_m_entry_id>
3195

> <s_m_entry_name>
dock_pv.287

> <s_m_Source_Path>
/home/csk/Desktop/cluster/DUD-E-result/adrb1

> <s_m_Source_File>
dock_pv.maegz

> <i_m_Source_File_Index>
287

> <chembl_id>
CHEMBL350847

> <chembl_pref_name>
None

> <i_lp_mmshare_version>
53161

> <i_f3d_flags>
0

> <r_lp_tautomer_probability>
1

> <s_lp_Force_Field>
OPLS_2005

> <r_lp_Energy>
44.570495

> <b_lp_Chiralities_Consistent>
1

> <s_lp_Variant>
CHEMBL213_lig310-1

> <s_i_glide_gridfile>
glide-grid_2vt4

> <i_i_glide_lignum>
365

> <i_i_glide_rotatable_bonds>
6

> <r_i_docking_score>
-7.28877789813787

> <r_i_glide_ligand_efficiency>
-0.269954736968069

> <r_i_glide_ligand_efficiency_sa>
-0.809864210014481

> <r_i_glide_ligand_efficiency_ln>
-1.69670732979145

> <r_i_glide_gscore>
-7.28877789813787

> <r_i_glide_lipo>
-2.92942120233624

> <r_i_glide_hbond>
-0.32

> <r_i_glide_metal>
0

> <r_i_glide_rewards>
-2.38693060506533

> <r_i_glide_evdw>
-37.2171478271484

> <r_i_glide_ecoul>
-4.42402410507202

> <r_i_glide_erotb>
0.881384504696215

> <r_i_glide_esite>
-0.00934958831428889

> <r_i_glide_emodel>
-56.7565200004357

> <r_i_glide_energy>
-41.6411719322205

> <r_i_glide_einternal>
8.54609107971191

> <i_i_glide_confnum>
84

> <i_i_glide_posenum>
60

> <r_i_glide_eff_state_penalty>
0

> <s_user_duplicate_titles>
CHEMBL213_lig310,273095

> <s_m_subgroup_title>
dock_pv

> <s_m_subgroupid>
dock_pv

> <b_m_subgroup_collapsed>
1

$$$$
CHEMBL213_lig504
                    3D
 Schrodinger Suite 2021-1.
 49 50  0  0  1  0            999 V2000
   25.5714    4.2500    1.4607 C   0  0  0  0  0  0
   25.7087    4.6156    2.7997 C   0  0  0  0  0  0
   26.9091    5.1659    3.2642 C   0  0  0  0  0  0
   27.9907    5.3499    2.3837 C   0  0  0  0  0  0
   27.8061    5.0500    1.0223 C   0  0  0  0  0  0
   26.6092    4.4959    0.5664 C   0  0  0  0  0  0
   27.0208    5.5179    4.6759 C   0  0  0  0  0  0
   27.1083    5.7955    5.7965 N   0  0  0  0  0  0
   29.1769    5.8500    2.8939 O   0  0  0  0  0  0
   30.4405    5.4777    2.3255 C   0  0  0  0  0  0
   31.5354    6.4907    2.7590 C   0  0  2  0  0  0
   32.9862    6.0811    2.3939 C   0  0  0  0  0  0
   31.5025    6.6500    4.1666 O   0  0  0  0  0  0
   33.1723    5.8500    0.9611 N   0  0  2  0  0  0
   34.5592    5.4916    0.6749 C   0  0  0  0  0  0
   34.8503    5.4203   -0.8405 C   0  0  0  0  0  0
   34.0543    4.4313   -1.5750 N   0  0  0  0  0  0
   33.1051    4.7059   -2.4823 C   0  0  0  0  0  0
   32.7666    5.8500   -2.7866 O   0  0  0  0  0  0
   32.5779    3.5791   -3.0004 N   0  0  0  0  0  0
   31.5487    3.5293   -3.9249 C   0  0  0  0  0  0
   31.3175    4.4337   -4.8701 N   0  0  0  0  0  0
   30.2080    3.9862   -5.5529 N   0  0  0  0  0  0
   29.8994    2.8443   -4.9401 N   0  0  3  0  0  0
   30.7252    2.5040   -3.9422 N   0  0  0  0  0  0
   28.7203    2.0608   -5.2924 C   0  0  0  0  0  0
   29.1027    0.6501   -5.7674 C   0  0  0  0  0  0
   29.8077    0.6501   -6.8995 F   0  0  0  0  0  0
   24.6466    3.8182    1.1046 H   0  0  0  0  0  0
   24.8766    4.4518    3.4712 H   0  0  0  0  0  0
   28.5827    5.2248    0.2954 H   0  0  0  0  0  0
   26.4885    4.2509   -0.4802 H   0  0  0  0  0  0
   30.6830    4.4701    2.6598 H   0  0  0  0  0  0
   30.4319    5.4437    1.2379 H   0  0  0  0  0  0
   31.3167    7.4678    2.3271 H   0  0  0  0  0  0
   33.6496    6.8932    2.6991 H   0  0  0  0  0  0
   33.2852    5.1977    2.9583 H   0  0  0  0  0  0
   31.4300    5.7609    4.5404 H   0  0  0  0  0  0
   33.0037    6.7491    0.5083 H   0  0  0  0  0  0
   35.2259    6.2398    1.1082 H   0  0  0  0  0  0
   34.8087    4.5385    1.1434 H   0  0  0  0  0  0
   34.7718    6.4193   -1.2763 H   0  0  0  0  0  0
   35.8973    5.1465   -0.9778 H   0  0  0  0  0  0
   34.3042    3.4671   -1.4168 H   0  0  0  0  0  0
   32.8503    2.6983   -2.5965 H   0  0  0  0  0  0
   28.0745    2.0176   -4.4150 H   0  0  0  0  0  0
   28.1552    2.5832   -6.0662 H   0  0  0  0  0  0
   29.6927    0.1171   -5.0207 H   0  0  0  0  0  0
   28.2083    0.0568   -5.9579 H   0  0  0  0  0  0
  1  6  1  0  0  0
  1  2  2  0  0  0
  1 29  1  0  0  0
  2  3  1  0  0  0
  2 30  1  0  0  0
  3  4  2  0  0  0
  3  7  1  0  0  0
  4  9  1  0  0  0
  4  5  1  0  0  0
  5  6  2  0  0  0
  5 31  1  0  0  0
  6 32  1  0  0  0
  7  8  3  0  0  0
  9 10  1  0  0  0
 10 11  1  0  0  0
 10 33  1  0  0  0
 10 34  1  0  0  0
 11 12  1  0  0  0
 11 13  1  0  0  0
 11 35  1  0  0  0
 12 14  1  0  0  0
 12 36  1  0  0  0
 12 37  1  0  0  0
 13 38  1  0  0  0
 14 15  1  0  0  0
 14 39  1  0  0  0
 15 16  1  0  0  0
 15 40  1  0  0  0
 15 41  1  0  0  0
 16 17  1  0  0  0
 16 42  1  0  0  0
 16 43  1  0  0  0
 17 18  1  0  0  0
 17 44  1  0  0  0
 18 19  2  0  0  0
 18 20  1  0  0  0
 20 21  1  0  0  0
 20 45  1  0  0  0
 21 22  1  0  0  0
 21 25  2  0  0  0
 22 23  2  0  0  0
 23 24  1  0  0  0
 24 25  1  0  0  0
 24 26  1  0  0  0
 26 27  1  0  0  0
 26 46  1  0  0  0
 26 47  1  0  0  0
 27 28  1  0  0  0
 27 48  1  0  0  0
 27 49  1  0  0  0
M  END
> <s_m_entry_id>
3196

> <s_m_entry_name>
dock_pv.288

> <s_m_Source_Path>
/home/csk/Desktop/cluster/DUD-E-result/adrb1

> <s_m_Source_File>
dock_pv.maegz

> <i_m_Source_File_Index>
288

> <chembl_id>
CHEMBL2011230

> <chembl_pref_name>
None

> <i_lp_mmshare_version>
53161

> <i_f3d_flags>
0

> <r_lp_tautomer_probability>
1

> <s_lp_Force_Field>
OPLS_2005

> <r_lp_Energy>
15.323941

> <b_lp_Chiralities_Consistent>
1

> <s_lp_Variant>
CHEMBL213_lig504-1

> <s_i_glide_gridfile>
glide-grid_2vt4

> <i_i_glide_lignum>
595

> <i_i_glide_rotatable_bonds>
14

> <r_i_docking_score>
-7.28813443483657

> <r_i_glide_ligand_efficiency>
-0.260290515529877

> <r_i_glide_ligand_efficiency_sa>
-0.790395308063937

> <r_i_glide_ligand_efficiency_ln>
-1.68231541648569

> <r_i_glide_gscore>
-7.28813443483657

> <r_i_glide_lipo>
-1.85779665201199

> <r_i_glide_hbond>
-0.576

> <r_i_glide_metal>
0

> <r_i_glide_rewards>
-2.22319288699434

> <r_i_glide_evdw>
-42.0199851989746

> <r_i_glide_ecoul>
-13.5151309967041

> <r_i_glide_erotb>
1.52168187780795

> <r_i_glide_esite>
-0.0245578641838414

> <r_i_glide_emodel>
-75.6607863502834

> <r_i_glide_energy>
-55.5351161956787

> <r_i_glide_einternal>
6.78590774536133

> <i_i_glide_confnum>
386

> <i_i_glide_posenum>
251

> <r_i_glide_eff_state_penalty>
0

> <s_user_duplicate_titles>
CHEMBL213_lig504

> <s_m_subgroup_title>
dock_pv

> <s_m_subgroupid>
dock_pv

> <b_m_subgroup_collapsed>
1

$$$$
CHEMBL213_lig553
                    3D
 Schrodinger Suite 2021-1.
 71 74  0  0  1  0            999 V2000
   32.9318    4.1075   -3.7730 S   0  0  0  0  0  0
   27.6879    6.6515    5.0320 S   0  0  0  0  0  0
   34.6554    6.5052    3.8563 C   0  0  0  0  0  0
   33.7916    5.9941    1.8672 N   0  0  0  0  0  0
   32.7441    6.2512    2.6802 N   0  0  0  0  0  0
   31.2697    4.5162   -4.2372 N   0  0  3  0  0  0
   34.9759    6.1177    2.5625 C   0  0  0  0  0  0
   26.1428    4.8026    3.7319 C   0  0  0  0  0  0
   27.0080    5.0622    4.7967 N   0  0  0  0  0  0
   35.5581    6.7304    4.9469 C   0  0  0  0  0  0
   33.2541    6.5563    3.8484 C   0  0  0  0  0  0
   33.1722    4.7939   -2.1366 C   0  0  0  0  0  0
   26.6837    4.6519    2.4627 C   0  0  0  0  0  0
   33.8491    4.8304   -4.6600 O   0  0  0  0  0  0
   33.0282    2.6516   -3.6043 O   0  0  0  0  0  0
   33.5884    5.6288    0.5032 C   0  0  0  0  0  0
   25.8887    4.2529    1.3925 C   0  0  0  0  0  0
   26.6761    7.6195    4.5957 O   0  0  0  0  0  0
   28.2143    6.6496    6.3957 O   0  0  0  0  0  0
   24.7608    4.6512    3.9184 C   0  0  0  0  0  0
   30.9255    5.8512   -4.7491 C   0  0  0  0  0  0
   30.2432    3.4802   -4.4381 C   0  0  0  0  0  0
   36.6895    6.2520    4.9906 O   0  0  0  0  0  0
   24.5363    3.9509    1.6133 C   0  0  0  0  0  0
   32.0798    5.0484   -1.3102 C   0  0  0  0  0  0
   34.4696    4.9974   -1.6677 C   0  0  0  0  0  0
   34.6780    5.4208   -0.3562 C   0  0  0  0  0  0
   32.2882    5.4501    0.0036 C   0  0  0  0  0  0
   23.9689    4.1891    2.8649 C   0  0  0  0  0  0
   27.7963    5.8312   -1.4705 N   0  0  1  0  0  0
   26.5231    4.2211    0.0111 C   0  0  1  0  0  0
   29.1472    6.6616    3.8469 C   0  0  0  0  0  0
   35.0076    7.5143    5.9160 O   0  0  0  0  0  0
   29.6957    6.3953   -3.9972 C   0  0  0  0  0  0
   28.9475    3.8747   -3.7052 C   0  0  0  0  0  0
   24.1719    5.0497    5.0983 O   0  0  0  0  0  0
   25.8608    3.3025   -0.8242 O   0  0  0  0  0  0
   28.5345    5.3727   -3.8247 C   0  0  0  0  0  0
   26.6423    5.6582   -0.5799 C   0  0  0  0  0  0
   27.3968    5.7857   -2.8722 C   0  0  0  0  0  0
   35.9291    5.9291    2.0928 H   0  0  0  0  0  0
   26.8089    4.5825    5.6604 H   0  0  0  0  0  0
   32.6073    6.7945    4.6805 H   0  0  0  0  0  0
   27.7412    4.7960    2.3057 H   0  0  0  0  0  0
   31.7843    6.5116   -4.6446 H   0  0  0  0  0  0
   30.7208    5.7711   -5.8171 H   0  0  0  0  0  0
   30.0602    3.3876   -5.5098 H   0  0  0  0  0  0
   30.6112    2.5144   -4.0926 H   0  0  0  0  0  0
   23.9025    3.6301    0.7977 H   0  0  0  0  0  0
   31.0681    4.8807   -1.6515 H   0  0  0  0  0  0
   35.3166    4.8013   -2.3101 H   0  0  0  0  0  0
   35.6964    5.5530   -0.0273 H   0  0  0  0  0  0
   31.4226    5.6010    0.6311 H   0  0  0  0  0  0
   22.9063    4.0496    2.9991 H   0  0  0  0  0  0
   28.2096    6.7359   -1.2899 H   0  0  0  0  0  0
   27.5330    3.8383    0.1346 H   0  0  0  0  0  0
   29.7222    7.5702    4.0172 H   0  0  0  0  0  0
   29.7668    5.7855    4.0316 H   0  0  0  0  0  0
   28.7731    6.6498    2.8282 H   0  0  0  0  0  0
   34.1477    7.8354    5.6383 H   0  0  0  0  0  0
   30.0532    6.6418   -3.0015 H   0  0  0  0  0  0
   29.3435    7.3378   -4.4199 H   0  0  0  0  0  0
   28.1183    3.2147   -3.9648 H   0  0  0  0  0  0
   29.1427    3.6854   -2.6494 H   0  0  0  0  0  0
   23.2130    5.0372    5.0591 H   0  0  0  0  0  0
   25.6325    3.7342   -1.6638 H   0  0  0  0  0  0
   28.0914    5.3889   -4.8150 H   0  0  0  0  0  0
   26.8295    6.3454    0.2476 H   0  0  0  0  0  0
   25.7000    5.9965   -1.0186 H   0  0  0  0  0  0
   26.9832    6.7541   -3.1598 H   0  0  0  0  0  0
   26.6098    5.0529   -2.9863 H   0  0  0  0  0  0
  1  6  1  0  0  0
  1 12  1  0  0  0
  1 14  2  0  0  0
  1 15  2  0  0  0
  2  9  1  0  0  0
  2 18  2  0  0  0
  2 19  2  0  0  0
  2 32  1  0  0  0
  3  7  2  0  0  0
  3 10  1  0  0  0
  3 11  1  0  0  0
  4 16  1  0  0  0
  4  5  1  0  0  0
  4  7  1  0  0  0
  5 11  2  0  0  0
  6 21  1  0  0  0
  6 22  1  0  0  0
  7 41  1  0  0  0
  8 13  2  0  0  0
  8  9  1  0  0  0
  8 20  1  0  0  0
  9 42  1  0  0  0
 10 23  2  0  0  0
 10 33  1  0  0  0
 11 43  1  0  0  0
 12 25  2  0  0  0
 12 26  1  0  0  0
 13 17  1  0  0  0
 13 44  1  0  0  0
 16 27  1  0  0  0
 16 28  2  0  0  0
 17 31  1  0  0  0
 17 24  2  0  0  0
 20 29  2  0  0  0
 20 36  1  0  0  0
 21 34  1  0  0  0
 21 45  1  0  0  0
 21 46  1  0  0  0
 22 35  1  0  0  0
 22 47  1  0  0  0
 22 48  1  0  0  0
 24 29  1  0  0  0
 24 49  1  0  0  0
 25 28  1  0  0  0
 25 50  1  0  0  0
 26 27  2  0  0  0
 26 51  1  0  0  0
 27 52  1  0  0  0
 28 53  1  0  0  0
 29 54  1  0  0  0
 30 40  1  0  0  0
 30 39  1  0  0  0
 30 55  1  0  0  0
 31 39  1  0  0  0
 31 37  1  0  0  0
 31 56  1  0  0  0
 32 57  1  0  0  0
 32 58  1  0  0  0
 32 59  1  0  0  0
 33 60  1  0  0  0
 34 38  1  0  0  0
 34 61  1  0  0  0
 34 62  1  0  0  0
 35 38  1  0  0  0
 35 63  1  0  0  0
 35 64  1  0  0  0
 36 65  1  0  0  0
 37 66  1  0  0  0
 38 40  1  0  0  0
 38 67  1  0  0  0
 39 68  1  0  0  0
 39 69  1  0  0  0
 40 70  1  0  0  0
 40 71  1  0  0  0
M  END
> <s_m_entry_id>
3197

> <s_m_entry_name>
dock_pv.289

> <s_m_Source_Path>
/home/csk/Desktop/cluster/DUD-E-result/adrb1

> <s_m_Source_File>
dock_pv.maegz

> <i_m_Source_File_Index>
289

> <chembl_id>
CHEMBL101606

> <chembl_pref_name>
None

> <i_lp_mmshare_version>
53161

> <i_f3d_flags>
0

> <r_lp_tautomer_probability>
1

> <s_lp_Force_Field>
OPLS_2005

> <r_lp_Energy>
19.770304

> <b_lp_Chiralities_Consistent>
1

> <s_lp_Variant>
CHEMBL213_lig553-1

> <s_i_glide_gridfile>
glide-grid_2vt4

> <i_i_glide_lignum>
653

> <i_i_glide_rotatable_bonds>
14

> <r_i_docking_score>
-7.28434407504668

> <r_i_glide_ligand_efficiency>
-0.182108601876167

> <r_i_glide_ligand_efficiency_sa>
-0.622802657016522

> <r_i_glide_ligand_efficiency_ln>
-1.55353622253085

> <r_i_glide_gscore>
-7.28434407504668

> <r_i_glide_lipo>
-2.95302501665515

> <r_i_glide_hbond>
-0.417232019170782

> <r_i_glide_metal>
0

> <r_i_glide_rewards>
-0.488740101563012

> <r_i_glide_evdw>
-52.8364906311035

> <r_i_glide_ecoul>
-8.11249828338623

> <r_i_glide_erotb>
0.483466539081314

> <r_i_glide_esite>
-0.0501142026759383

> <r_i_glide_emodel>
-74.9549281906643

> <r_i_glide_energy>
-60.9489889144897

> <r_i_glide_einternal>
14.7410173416138

> <i_i_glide_confnum>
11

> <i_i_glide_posenum>
108

> <r_i_glide_eff_state_penalty>
0

> <s_user_duplicate_titles>
CHEMBL213_lig553

> <s_m_subgroup_title>
dock_pv

> <s_m_subgroupid>
dock_pv

> <b_m_subgroup_collapsed>
1

$$$$
CHEMBL213_lig656
                    3D
 Schrodinger Suite 2021-1.
 63 66  0  0  1  0            999 V2000
   27.7876    5.5681    5.0611 S   0  0  0  0  0  0
   35.8182    5.0001   -1.4910 S   0  0  0  0  0  0
   29.2252    6.1824    4.1539 C   0  0  0  0  0  0
   32.1818    4.6500   -1.7567 N   0  0  0  0  0  0
   32.8100    4.5867   -2.9775 C   0  0  0  0  0  0
   30.6212    5.2949   -3.2624 C   0  0  0  0  0  0
   31.8528    4.9997   -3.9512 C   0  0  0  0  0  0
   34.1164    4.2215   -3.3183 C   0  0  0  0  0  0
   26.4000    6.1283    4.1480 N   0  0  0  0  0  0
   30.8833    5.0500   -1.9232 C   0  0  0  0  0  0
   34.9876    3.8212   -2.3392 O   0  0  0  0  0  0
   30.2125    7.4510    4.7850 S   0  0  0  0  0  0
   27.7574    6.2500    6.3601 O   0  0  0  0  0  0
   27.8080    4.1049    4.9632 O   0  0  0  0  0  0
   36.2351    4.4217   -0.2103 O   0  0  0  0  0  0
   35.0523    6.2525   -1.5287 O   0  0  0  0  0  0
   29.7869    5.6075    3.0177 C   0  0  0  0  0  0
   25.8180    4.2157    1.0299 C   0  0  0  0  0  0
   29.3344    5.7741   -3.9215 C   0  0  0  0  0  0
   25.8146    5.2766    3.2132 C   0  0  0  0  0  0
   26.4248    5.0477    1.9793 C   0  0  0  0  0  0
   31.3693    7.2239    3.5156 C   0  0  0  0  0  0
   31.0079    6.1983    2.6594 C   0  0  0  0  0  0
   27.7347    4.9801   -2.2246 N   0  0  1  0  0  0
   26.8427    5.2414   -1.0928 C   0  0  0  0  0  0
   26.5228    3.9481   -0.3020 C   0  0  2  0  0  0
   37.3144    5.1416   -2.6178 C   0  0  0  0  0  0
   28.1813    6.1583   -2.9625 C   0  0  2  0  0  0
   34.4648    4.2708   -4.6671 C   0  0  0  0  0  0
   32.2517    5.0475   -5.2978 C   0  0  0  0  0  0
   25.8081    3.0500   -1.1261 O   0  0  0  0  0  0
   33.5554    4.6819   -5.6385 C   0  0  0  0  0  0
   24.5843    3.6213    1.3404 C   0  0  0  0  0  0
   23.9823    3.8405    2.5749 C   0  0  0  0  0  0
   24.6081    4.6500    3.5188 C   0  0  0  0  0  0
   26.9962    6.7507   -3.7460 C   0  0  0  0  0  0
   32.5884    4.4388   -0.8563 H   0  0  0  0  0  0
   25.8150    6.7917    4.6348 H   0  0  0  0  0  0
   30.2452    5.1491   -1.0560 H   0  0  0  0  0  0
   29.3623    4.7588    2.5037 H   0  0  0  0  0  0
   29.5729    6.6495   -4.5279 H   0  0  0  0  0  0
   28.9782    5.0235   -4.6294 H   0  0  0  0  0  0
   27.3600    5.5331    1.7527 H   0  0  0  0  0  0
   32.2485    7.8497    3.4662 H   0  0  0  0  0  0
   31.6028    5.8869    1.8133 H   0  0  0  0  0  0
   28.4443    4.2748   -2.0744 H   0  0  0  0  0  0
   27.3271    5.9680   -0.4399 H   0  0  0  0  0  0
   25.9057    5.6880   -1.4286 H   0  0  0  0  0  0
   27.4563    3.4503   -0.0501 H   0  0  0  0  0  0
   37.9954    5.8842   -2.2056 H   0  0  0  0  0  0
   36.9869    5.4500   -3.6098 H   0  0  0  0  0  0
   37.8078    4.1711   -2.6657 H   0  0  0  0  0  0
   28.5527    6.9031   -2.2573 H   0  0  0  0  0  0
   35.4674    3.9983   -4.9622 H   0  0  0  0  0  0
   31.5593    5.3744   -6.0592 H   0  0  0  0  0  0
   25.4755    3.5425   -1.8981 H   0  0  0  0  0  0
   33.8732    4.7328   -6.6706 H   0  0  0  0  0  0
   24.0811    2.9822    0.6277 H   0  0  0  0  0  0
   23.0336    3.3731    2.7956 H   0  0  0  0  0  0
   24.1390    4.8083    4.4787 H   0  0  0  0  0  0
   27.3138    7.5958   -4.3556 H   0  0  0  0  0  0
   26.5531    6.0122   -4.4154 H   0  0  0  0  0  0
   26.2080    7.1081   -3.0866 H   0  0  0  0  0  0
  1  3  1  0  0  0
  1  9  1  0  0  0
  1 13  2  0  0  0
  1 14  2  0  0  0
  2 11  1  0  0  0
  2 15  2  0  0  0
  2 16  2  0  0  0
  2 27  1  0  0  0
  3 12  1  0  0  0
  3 17  2  0  0  0
  4 10  1  0  0  0
  4  5  1  0  0  0
  4 37  1  0  0  0
  5  7  2  0  0  0
  5  8  1  0  0  0
  6 19  1  0  0  0
  6  7  1  0  0  0
  6 10  2  0  0  0
  7 30  1  0  0  0
  8 11  1  0  0  0
  8 29  2  0  0  0
  9 20  1  0  0  0
  9 38  1  0  0  0
 10 39  1  0  0  0
 12 22  1  0  0  0
 17 23  1  0  0  0
 17 40  1  0  0  0
 18 21  2  0  0  0
 18 26  1  0  0  0
 18 33  1  0  0  0
 19 28  1  0  0  0
 19 41  1  0  0  0
 19 42  1  0  0  0
 20 21  1  0  0  0
 20 35  2  0  0  0
 21 43  1  0  0  0
 22 23  2  0  0  0
 22 44  1  0  0  0
 23 45  1  0  0  0
 24 25  1  0  0  0
 24 28  1  0  0  0
 24 46  1  0  0  0
 25 26  1  0  0  0
 25 47  1  0  0  0
 25 48  1  0  0  0
 26 31  1  0  0  0
 26 49  1  0  0  0
 27 50  1  0  0  0
 27 51  1  0  0  0
 27 52  1  0  0  0
 28 36  1  0  0  0
 28 53  1  0  0  0
 29 32  1  0  0  0
 29 54  1  0  0  0
 30 32  2  0  0  0
 30 55  1  0  0  0
 31 56  1  0  0  0
 32 57  1  0  0  0
 33 34  2  0  0  0
 33 58  1  0  0  0
 34 35  1  0  0  0
 34 59  1  0  0  0
 35 60  1  0  0  0
 36 61  1  0  0  0
 36 62  1  0  0  0
 36 63  1  0  0  0
M  END
> <s_m_entry_id>
3198

> <s_m_entry_name>
dock_pv.290

> <s_m_Source_Path>
/home/csk/Desktop/cluster/DUD-E-result/adrb1

> <s_m_Source_File>
dock_pv.maegz

> <i_m_Source_File_Index>
290

> <chembl_id>
CHEMBL184407

> <chembl_pref_name>
None

> <i_lp_mmshare_version>
53161

> <i_f3d_flags>
0

> <r_lp_tautomer_probability>
1

> <s_lp_Force_Field>
OPLS_2005

> <r_lp_Energy>
13.528706

> <b_lp_Chiralities_Consistent>
1

> <s_lp_Variant>
CHEMBL213_lig656-1

> <s_i_glide_gridfile>
glide-grid_2vt4

> <i_i_glide_lignum>
758

> <i_i_glide_rotatable_bonds>
12

> <r_i_docking_score>
-7.28200391167318

> <r_i_glide_ligand_efficiency>
-0.202277886435366

> <r_i_glide_ligand_efficiency_sa>
-0.667906864271929

> <r_i_glide_ligand_efficiency_ln>
-1.58873651651716

> <r_i_glide_gscore>
-7.28200391167318

> <r_i_glide_lipo>
-2.94335685162432

> <r_i_glide_hbond>
-0.405901211380975

> <r_i_glide_metal>
0

> <r_i_glide_rewards>
-0.857329545181679

> <r_i_glide_evdw>
-51.9565811157227

> <r_i_glide_ecoul>
-7.71919059753418

> <r_i_glide_erotb>
0.686038307396834

> <r_i_glide_esite>
-0.0057469654667791

> <r_i_glide_emodel>
-79.8050336831324

> <r_i_glide_energy>
-59.6757717132568

> <r_i_glide_einternal>
9.53285598754883

> <i_i_glide_confnum>
218

> <i_i_glide_posenum>
359

> <r_i_glide_eff_state_penalty>
0

> <s_user_duplicate_titles>
CHEMBL213_lig656,313182

> <s_m_subgroup_title>
dock_pv

> <s_m_subgroupid>
dock_pv

> <b_m_subgroup_collapsed>
1

$$$$
CHEMBL213_lig465
                    3D
 Schrodinger Suite 2021-1.
 65 68  0  0  1  0            999 V2000
   35.3162    3.8511   -5.9944 C   0  0  0  0  0  0
   34.0408    4.3877   -6.1626 C   0  0  0  0  0  0
   35.0115    3.8369   -3.5782 C   0  0  0  0  0  0
   35.7958    3.5793   -4.7126 C   0  0  0  0  0  0
   33.7342    4.3919   -3.7622 C   0  0  0  0  0  0
   33.2516    4.6564   -5.0423 C   0  0  0  0  0  0
   31.9848    5.2189   -5.0394 N   0  0  0  0  0  0
   31.3870    5.4490   -3.8199 C   0  0  0  0  0  0
   32.5545    4.8641   -2.5417 S   0  0  0  0  0  0
   30.2939    5.9608   -3.6010 O   0  0  0  0  0  0
   33.5719    4.6618   -7.4212 O   0  0  0  0  0  0
   35.5678    3.5114   -2.1891 C   0  0  2  0  0  0
   36.5473    4.5994   -1.6763 C   0  0  0  0  0  0
   37.0089    4.3967   -0.2967 N   0  0  1  0  0  0
   35.9857    4.4379    0.7468 C   0  0  0  0  0  0
   35.5548    5.8875    1.0313 C   0  0  0  0  0  0
   34.3311    6.0176    1.9258 C   0  0  0  0  0  0
   33.0628    5.8499    1.3692 C   0  0  0  0  0  0
   31.9279    6.1785    2.1045 C   0  0  0  0  0  0
   32.0511    6.6504    3.4131 C   0  0  0  0  0  0
   33.3194    6.7202    4.0001 C   0  0  0  0  0  0
   34.4584    6.4141    3.2580 C   0  0  0  0  0  0
   36.2079    2.2500   -2.1512 O   0  0  0  0  0  0
   30.8475    7.2178    4.1676 C   0  0  0  0  0  0
   29.8034    6.2500    4.4896 N   0  0  1  0  0  0
   28.8992    5.9482    3.3912 C   0  0  0  0  0  0
   27.4923    5.5091    3.8712 C   0  0  2  0  0  0
   26.5893    4.9669    2.7474 C   0  0  0  0  0  0
   26.7762    6.6301    4.6625 C   0  0  0  0  0  0
   26.9412    5.0499    1.3896 C   0  0  0  0  0  0
   26.1220    4.4878    0.4119 C   0  0  0  0  0  0
   24.9414    3.8502    0.7840 C   0  0  0  0  0  0
   24.5686    3.7749    2.1224 C   0  0  0  0  0  0
   25.3906    4.3322    3.0978 C   0  0  0  0  0  0
   35.9433    3.6510   -6.8505 H   0  0  0  0  0  0
   36.7878    3.1658   -4.6001 H   0  0  0  0  0  0
   31.5320    5.5182   -5.8911 H   0  0  0  0  0  0
   34.2579    4.5903   -8.0891 H   0  0  0  0  0  0
   34.7176    3.4415   -1.5132 H   0  0  0  0  0  0
   36.1046    5.5909   -1.7747 H   0  0  0  0  0  0
   37.4252    4.6182   -2.3248 H   0  0  0  0  0  0
   37.6764    3.6322   -0.2157 H   0  0  0  0  0  0
   36.3995    4.0144    1.6611 H   0  0  0  0  0  0
   35.1308    3.8007    0.5223 H   0  0  0  0  0  0
   35.3148    6.4069    0.1022 H   0  0  0  0  0  0
   36.3894    6.4512    1.4512 H   0  0  0  0  0  0
   32.9571    5.5489    0.3378 H   0  0  0  0  0  0
   30.9694    6.1299    1.6174 H   0  0  0  0  0  0
   33.4310    7.0902    5.0089 H   0  0  0  0  0  0
   35.4350    6.5505    3.6981 H   0  0  0  0  0  0
   37.0800    2.3574   -1.7475 H   0  0  0  0  0  0
   30.4423    8.0728    3.6265 H   0  0  0  0  0  0
   31.2022    7.6155    5.1193 H   0  0  0  0  0  0
   30.3104    5.3768    4.6642 H   0  0  0  0  0  0
   29.3504    5.1687    2.7755 H   0  0  0  0  0  0
   28.7887    6.8340    2.7850 H   0  0  0  0  0  0
   27.6451    4.6692    4.5526 H   0  0  0  0  0  0
   25.8394    6.2849    5.0997 H   0  0  0  0  0  0
   27.3892    6.9990    5.4853 H   0  0  0  0  0  0
   26.5431    7.4789    4.0207 H   0  0  0  0  0  0
   27.8487    5.5365    1.0686 H   0  0  0  0  0  0
   26.3951    4.5481   -0.6322 H   0  0  0  0  0  0
   24.3017    3.4217    0.0254 H   0  0  0  0  0  0
   23.6474    3.2846    2.4002 H   0  0  0  0  0  0
   25.0948    4.2541    4.1325 H   0  0  0  0  0  0
  1  4  1  0  0  0
  1  2  2  0  0  0
  1 35  1  0  0  0
  2 11  1  0  0  0
  2  6  1  0  0  0
  3 12  1  0  0  0
  3  5  1  0  0  0
  3  4  2  0  0  0
  4 36  1  0  0  0
  5  9  1  0  0  0
  5  6  2  0  0  0
  6  7  1  0  0  0
  7  8  1  0  0  0
  7 37  1  0  0  0
  8  9  1  0  0  0
  8 10  2  0  0  0
 11 38  1  0  0  0
 12 23  1  0  0  0
 12 13  1  0  0  0
 12 39  1  0  0  0
 13 14  1  0  0  0
 13 40  1  0  0  0
 13 41  1  0  0  0
 14 15  1  0  0  0
 14 42  1  0  0  0
 15 16  1  0  0  0
 15 43  1  0  0  0
 15 44  1  0  0  0
 16 17  1  0  0  0
 16 45  1  0  0  0
 16 46  1  0  0  0
 17 18  2  0  0  0
 17 22  1  0  0  0
 18 19  1  0  0  0
 18 47  1  0  0  0
 19 20  2  0  0  0
 19 48  1  0  0  0
 20 21  1  0  0  0
 20 24  1  0  0  0
 21 22  2  0  0  0
 21 49  1  0  0  0
 22 50  1  0  0  0
 23 51  1  0  0  0
 24 25  1  0  0  0
 24 52  1  0  0  0
 24 53  1  0  0  0
 25 26  1  0  0  0
 25 54  1  0  0  0
 26 27  1  0  0  0
 26 55  1  0  0  0
 26 56  1  0  0  0
 27 28  1  0  0  0
 27 29  1  0  0  0
 27 57  1  0  0  0
 28 30  2  0  0  0
 28 34  1  0  0  0
 29 58  1  0  0  0
 29 59  1  0  0  0
 29 60  1  0  0  0
 30 31  1  0  0  0
 30 61  1  0  0  0
 31 32  2  0  0  0
 31 62  1  0  0  0
 32 33  1  0  0  0
 32 63  1  0  0  0
 33 34  2  0  0  0
 33 64  1  0  0  0
 34 65  1  0  0  0
M  END
> <s_m_entry_id>
3199

> <s_m_entry_name>
dock_pv.291

> <s_m_Source_Path>
/home/csk/Desktop/cluster/DUD-E-result/adrb1

> <s_m_Source_File>
dock_pv.maegz

> <i_m_Source_File_Index>
291

> <chembl_id>
CHEMBL1945036

> <chembl_pref_name>
None

> <i_lp_mmshare_version>
53161

> <i_f3d_flags>
0

> <r_lp_tautomer_probability>
1

> <s_lp_Force_Field>
OPLS_2005

> <r_lp_Energy>
34.111209

> <b_lp_Chiralities_Consistent>
1

> <s_lp_Variant>
CHEMBL213_lig465-1

> <s_i_glide_gridfile>
glide-grid_2vt4

> <i_i_glide_lignum>
553

> <i_i_glide_rotatable_bonds>
13

> <r_i_docking_score>
-7.28110181231316

> <r_i_glide_ligand_efficiency>
-0.214150053303328

> <r_i_glide_ligand_efficiency_sa>
-0.693763039110178

> <r_i_glide_ligand_efficiency_ln>
-1.60859961832815

> <r_i_glide_gscore>
-7.28110181231316

> <r_i_glide_lipo>
-3.03937333336056

> <r_i_glide_hbond>
-0.649001005716446

> <r_i_glide_metal>
0

> <r_i_glide_rewards>
-0.826610772099149

> <r_i_glide_evdw>
-48.8770370483398

> <r_i_glide_ecoul>
-8.06883430480957

> <r_i_glide_erotb>
0.88806029700142

> <r_i_glide_esite>
0

> <r_i_glide_emodel>
-75.8238885717174

> <r_i_glide_energy>
-56.9458713531494

> <r_i_glide_einternal>
12.4364891052246

> <i_i_glide_confnum>
79

> <i_i_glide_posenum>
108

> <r_i_glide_eff_state_penalty>
0

> <s_user_duplicate_titles>
CHEMBL213_lig465

> <s_m_subgroup_title>
dock_pv

> <s_m_subgroupid>
dock_pv

> <b_m_subgroup_collapsed>
1

$$$$
CHEMBL213_lig412
                    3D
 Schrodinger Suite 2021-1.
 59 61  0  0  1  0            999 V2000
   29.9724    2.7482   -4.1718 C   0  0  0  0  0  0
   31.0068    3.5090   -4.8843 N   0  0  2  0  0  0
   31.1043    4.9285   -4.5417 C   0  0  0  0  0  0
   31.5804    5.2017   -3.0935 C   0  0  0  0  0  0
   33.0564    4.9365   -2.7505 C   0  0  0  0  0  0
   33.4965    5.0513   -1.4172 C   0  0  0  0  0  0
   34.8454    4.8282   -1.0975 C   0  0  0  0  0  0
   35.7549    4.4949   -2.0998 C   0  0  0  0  0  0
   35.3289    4.3822   -3.4192 C   0  0  0  0  0  0
   33.9908    4.5973   -3.7414 C   0  0  0  0  0  0
   28.2129    4.3197   -3.5213 O   0  0  0  0  0  0
   28.5266    3.2451   -4.4149 C   0  0  0  0  0  0
   24.3183    4.6499    3.9195 C   0  0  0  0  0  0
   25.0102    5.4501    4.8236 C   0  0  0  0  0  0
   26.1850    4.7314    2.3719 C   0  0  0  0  0  0
   24.8912    4.3002    2.6981 C   0  0  0  0  0  0
   26.9228    5.4154    3.3543 C   0  0  0  0  0  0
   26.3318    5.8081    4.5529 C   0  0  0  0  0  0
   27.1924    6.5257    5.3713 N   0  0  0  0  0  0
   28.5004    6.6512    4.9653 C   0  0  0  0  0  0
   28.6264    5.8500    3.3313 S   0  0  0  0  0  0
   29.4226    7.1806    5.5774 O   0  0  0  0  0  0
   24.3961    5.8499    5.9848 O   0  0  0  0  0  0
   26.7711    4.4495    0.9841 C   0  0  2  0  0  0
   26.7601    5.6567    0.0181 C   0  0  0  0  0  0
   26.2079    3.3226    0.3307 O   0  0  0  0  0  0
   27.8838    5.5436   -0.9196 N   0  0  2  0  0  0
   27.9672    6.6492   -1.8591 C   0  0  0  0  0  0
   27.0145    6.4523   -3.0513 C   0  0  0  0  0  0
   27.4694    5.3951   -4.0862 C   0  0  0  0  0  0
   35.4212    4.9505    0.5306 Cl  0  0  0  0  0  0
   32.3732    5.4501   -0.1553 Cl  0  0  0  0  0  0
   30.2021    2.6885   -3.1075 H   0  0  0  0  0  0
   30.0393    1.7219   -4.5338 H   0  0  0  0  0  0
   30.9065    3.3947   -5.8835 H   0  0  0  0  0  0
   31.8272    5.3605   -5.2337 H   0  0  0  0  0  0
   30.1912    5.4731   -4.7666 H   0  0  0  0  0  0
   31.3797    6.2490   -2.8693 H   0  0  0  0  0  0
   30.9501    4.6434   -2.4013 H   0  0  0  0  0  0
   36.7943    4.3215   -1.8562 H   0  0  0  0  0  0
   36.0386    4.1307   -4.1945 H   0  0  0  0  0  0
   33.7029    4.4941   -4.7758 H   0  0  0  0  0  0
   27.8097    2.4500   -4.2210 H   0  0  0  0  0  0
   28.3906    3.4504   -5.4750 H   0  0  0  0  0  0
   23.3065    4.3409    4.1406 H   0  0  0  0  0  0
   24.3060    3.7329    1.9880 H   0  0  0  0  0  0
   26.9071    6.9639    6.2366 H   0  0  0  0  0  0
   24.8797    6.5128    6.4807 H   0  0  0  0  0  0
   27.8081    4.2500    1.2006 H   0  0  0  0  0  0
   25.7968    5.7344   -0.4890 H   0  0  0  0  0  0
   26.8987    6.5753    0.5911 H   0  0  0  0  0  0
   26.3726    3.4062   -0.6123 H   0  0  0  0  0  0
   27.8297    4.6985   -1.4809 H   0  0  0  0  0  0
   27.8089    7.6020   -1.3533 H   0  0  0  0  0  0
   28.9870    6.6499   -2.2433 H   0  0  0  0  0  0
   26.0045    6.2500   -2.6988 H   0  0  0  0  0  0
   26.9277    7.4033   -3.5783 H   0  0  0  0  0  0
   26.6080    5.0188   -4.6364 H   0  0  0  0  0  0
   28.1074    5.8913   -4.8147 H   0  0  0  0  0  0
  1 12  1  0  0  0
  1  2  1  0  0  0
  1 33  1  0  0  0
  1 34  1  0  0  0
  2  3  1  0  0  0
  2 35  1  0  0  0
  3  4  1  0  0  0
  3 36  1  0  0  0
  3 37  1  0  0  0
  4  5  1  0  0  0
  4 38  1  0  0  0
  4 39  1  0  0  0
  5 10  1  0  0  0
  5  6  2  0  0  0
  6  7  1  0  0  0
  6 32  1  0  0  0
  7 31  1  0  0  0
  7  8  2  0  0  0
  8  9  1  0  0  0
  8 40  1  0  0  0
  9 10  2  0  0  0
  9 41  1  0  0  0
 10 42  1  0  0  0
 11 12  1  0  0  0
 11 30  1  0  0  0
 12 43  1  0  0  0
 12 44  1  0  0  0
 13 16  1  0  0  0
 13 14  2  0  0  0
 13 45  1  0  0  0
 14 23  1  0  0  0
 14 18  1  0  0  0
 15 16  2  0  0  0
 15 24  1  0  0  0
 15 17  1  0  0  0
 16 46  1  0  0  0
 17 18  2  0  0  0
 17 21  1  0  0  0
 18 19  1  0  0  0
 19 20  1  0  0  0
 19 47  1  0  0  0
 20 21  1  0  0  0
 20 22  2  0  0  0
 23 48  1  0  0  0
 24 25  1  0  0  0
 24 26  1  0  0  0
 24 49  1  0  0  0
 25 27  1  0  0  0
 25 50  1  0  0  0
 25 51  1  0  0  0
 26 52  1  0  0  0
 27 28  1  0  0  0
 27 53  1  0  0  0
 28 29  1  0  0  0
 28 54  1  0  0  0
 28 55  1  0  0  0
 29 30  1  0  0  0
 29 56  1  0  0  0
 29 57  1  0  0  0
 30 58  1  0  0  0
 30 59  1  0  0  0
M  END
> <s_m_entry_id>
3200

> <s_m_entry_name>
dock_pv.292

> <s_m_Source_Path>
/home/csk/Desktop/cluster/DUD-E-result/adrb1

> <s_m_Source_File>
dock_pv.maegz

> <i_m_Source_File_Index>
292

> <chembl_id>
CHEMBL1807873

> <chembl_pref_name>
None

> <i_lp_mmshare_version>
53161

> <i_f3d_flags>
0

> <r_lp_tautomer_probability>
1

> <s_lp_Force_Field>
OPLS_2005

> <r_lp_Energy>
37.876756

> <b_lp_Chiralities_Consistent>
1

> <s_lp_Variant>
CHEMBL213_lig412-1

> <s_i_glide_gridfile>
glide-grid_2vt4

> <i_i_glide_lignum>
485

> <i_i_glide_rotatable_bonds>
15

> <r_i_docking_score>
-7.27620894394502

> <r_i_glide_ligand_efficiency>
-0.227381529498282

> <r_i_glide_ligand_efficiency_sa>
-0.72189135741346

> <r_i_glide_ligand_efficiency_ln>
-1.62934152451409

> <r_i_glide_gscore>
-7.27620894394502

> <r_i_glide_lipo>
-3.19720050661585

> <r_i_glide_hbond>
-0.519526008881766

> <r_i_glide_metal>
0

> <r_i_glide_rewards>
-1.20333333333333

> <r_i_glide_evdw>
-44.6342277526855

> <r_i_glide_ecoul>
-5.39556741714478

> <r_i_glide_erotb>
0.684897405091922

> <r_i_glide_esite>
0

> <r_i_glide_emodel>
-67.381555656492

> <r_i_glide_energy>
-50.0297951698303

> <r_i_glide_einternal>
9.53202342987061

> <i_i_glide_confnum>
100

> <i_i_glide_posenum>
12

> <r_i_glide_eff_state_penalty>
0

> <s_user_duplicate_titles>
CHEMBL213_lig412

> <s_m_subgroup_title>
dock_pv

> <s_m_subgroupid>
dock_pv

> <b_m_subgroup_collapsed>
1

$$$$
CHEMBL213_lig391
                    3D
 Schrodinger Suite 2021-1.
 66 69  0  0  1  0            999 V2000
   26.2079    4.2503    1.1121 C   0  0  0  0  0  0
   24.9940    3.6727    1.4801 C   0  0  0  0  0  0
   24.4361    3.8582    2.7017 N   0  0  0  0  0  0
   25.0990    4.6498    3.5854 C   0  0  0  0  0  0
   26.3308    5.2671    3.3183 C   0  0  0  0  0  0
   26.8790    5.0508    2.0410 C   0  0  0  0  0  0
   26.9942    6.1909    4.3606 C   0  0  2  0  0  0
   28.5396    6.3037    4.2386 C   0  0  0  0  0  0
   26.6763    5.8499    5.7004 O   0  0  0  0  0  0
   29.1225    7.2670    5.1810 N   0  0  1  0  0  0
   30.3837    7.8498    4.7118 C   0  0  0  0  0  0
   31.6353    6.9474    4.8390 C   0  0  0  0  0  0
   32.3475    6.5982    3.5292 C   0  0  0  0  0  0
   33.7448    6.6070    3.4735 C   0  0  0  0  0  0
   34.4058    6.2320    2.3042 C   0  0  0  0  0  0
   33.6766    5.8502    1.1743 C   0  0  0  0  0  0
   32.2767    5.8499    1.2279 C   0  0  0  0  0  0
   31.6238    6.2133    2.3991 C   0  0  0  0  0  0
   34.4073    5.4501    0.0407 N   0  0  0  0  0  0
   34.0177    5.4299   -1.2552 C   0  0  0  0  0  0
   32.9373    5.8493   -1.6733 O   0  0  0  0  0  0
   35.0364    4.8469   -2.2096 C   0  0  0  0  0  0
   36.3901    5.1945   -2.0535 C   0  0  0  0  0  0
   37.3659    4.6933   -2.9097 C   0  0  0  0  0  0
   37.0087    3.8495   -3.9538 C   0  0  0  0  0  0
   35.6771    3.4891   -4.1251 C   0  0  0  0  0  0
   34.6811    3.9694   -3.2650 C   0  0  0  0  0  0
   33.2574    3.4743   -3.5306 C   0  0  0  0  0  0
   32.5366    4.2797   -4.6318 C   0  0  0  0  0  0
   31.2796    3.5814   -5.1308 C   0  0  0  0  0  0
   31.3238    2.8183   -6.3017 C   0  0  0  0  0  0
   30.1834    2.1495   -6.7416 C   0  0  0  0  0  0
   29.0006    2.2507   -6.0114 C   0  0  0  0  0  0
   28.9474    3.0222   -4.8522 C   0  0  0  0  0  0
   30.0878    3.6865   -4.4081 C   0  0  0  0  0  0
   26.6170    4.0877    0.1245 H   0  0  0  0  0  0
   24.4420    3.0566    0.7831 H   0  0  0  0  0  0
   24.6077    4.7920    4.5364 H   0  0  0  0  0  0
   27.8107    5.5020    1.7379 H   0  0  0  0  0  0
   26.5584    7.1760    4.1810 H   0  0  0  0  0  0
   28.7464    6.6489    3.2296 H   0  0  0  0  0  0
   29.0106    5.3258    4.3566 H   0  0  0  0  0  0
   27.2479    6.3758    6.2710 H   0  0  0  0  0  0
   28.4632    8.0039    5.4012 H   0  0  0  0  0  0
   30.5512    8.7205    5.3470 H   0  0  0  0  0  0
   30.2730    8.2443    3.7010 H   0  0  0  0  0  0
   31.4079    6.0301    5.3678 H   0  0  0  0  0  0
   32.3496    7.4506    5.4904 H   0  0  0  0  0  0
   34.3227    6.8929    4.3396 H   0  0  0  0  0  0
   35.4854    6.2373    2.2826 H   0  0  0  0  0  0
   31.6797    5.5387    0.3839 H   0  0  0  0  0  0
   30.5524    6.1617    2.4181 H   0  0  0  0  0  0
   35.3482    5.1367    0.2206 H   0  0  0  0  0  0
   36.7067    5.8677   -1.2700 H   0  0  0  0  0  0
   38.4020    4.9669   -2.7715 H   0  0  0  0  0  0
   37.7680    3.4727   -4.6237 H   0  0  0  0  0  0
   35.4192    2.8234   -4.9363 H   0  0  0  0  0  0
   32.6680    3.4477   -2.6145 H   0  0  0  0  0  0
   33.3264    2.4276   -3.8310 H   0  0  0  0  0  0
   33.2021    4.4456   -5.4812 H   0  0  0  0  0  0
   32.2804    5.2776   -4.2725 H   0  0  0  0  0  0
   32.2424    2.7356   -6.8648 H   0  0  0  0  0  0
   30.2159    1.5573   -7.6431 H   0  0  0  0  0  0
   28.1114    1.7361   -6.3456 H   0  0  0  0  0  0
   28.0229    3.0953   -4.2976 H   0  0  0  0  0  0
   30.0447    4.2694   -3.4994 H   0  0  0  0  0  0
  1  6  1  0  0  0
  1  2  2  0  0  0
  1 36  1  0  0  0
  2  3  1  0  0  0
  2 37  1  0  0  0
  3  4  2  0  0  0
  4  5  1  0  0  0
  4 38  1  0  0  0
  5  6  2  0  0  0
  5  7  1  0  0  0
  6 39  1  0  0  0
  7  9  1  0  0  0
  7  8  1  0  0  0
  7 40  1  0  0  0
  8 10  1  0  0  0
  8 41  1  0  0  0
  8 42  1  0  0  0
  9 43  1  0  0  0
 10 11  1  0  0  0
 10 44  1  0  0  0
 11 12  1  0  0  0
 11 45  1  0  0  0
 11 46  1  0  0  0
 12 13  1  0  0  0
 12 47  1  0  0  0
 12 48  1  0  0  0
 13 18  1  0  0  0
 13 14  2  0  0  0
 14 15  1  0  0  0
 14 49  1  0  0  0
 15 16  2  0  0  0
 15 50  1  0  0  0
 16 19  1  0  0  0
 16 17  1  0  0  0
 17 18  2  0  0  0
 17 51  1  0  0  0
 18 52  1  0  0  0
 19 20  1  0  0  0
 19 53  1  0  0  0
 20 21  2  0  0  0
 20 22  1  0  0  0
 22 23  2  0  0  0
 22 27  1  0  0  0
 23 24  1  0  0  0
 23 54  1  0  0  0
 24 25  2  0  0  0
 24 55  1  0  0  0
 25 26  1  0  0  0
 25 56  1  0  0  0
 26 27  2  0  0  0
 26 57  1  0  0  0
 27 28  1  0  0  0
 28 29  1  0  0  0
 28 58  1  0  0  0
 28 59  1  0  0  0
 29 30  1  0  0  0
 29 60  1  0  0  0
 29 61  1  0  0  0
 30 31  2  0  0  0
 30 35  1  0  0  0
 31 32  1  0  0  0
 31 62  1  0  0  0
 32 33  2  0  0  0
 32 63  1  0  0  0
 33 34  1  0  0  0
 33 64  1  0  0  0
 34 35  2  0  0  0
 34 65  1  0  0  0
 35 66  1  0  0  0
M  END
> <s_m_entry_id>
3201

> <s_m_entry_name>
dock_pv.293

> <s_m_Source_Path>
/home/csk/Desktop/cluster/DUD-E-result/adrb1

> <s_m_Source_File>
dock_pv.maegz

> <i_m_Source_File_Index>
293

> <chembl_id>
CHEMBL1078465

> <chembl_pref_name>
None

> <i_lp_mmshare_version>
53161

> <i_f3d_flags>
0

> <r_lp_tautomer_probability>
1

> <s_lp_Force_Field>
OPLS_2005

> <r_lp_Energy>
41.735063

> <b_lp_Chiralities_Consistent>
1

> <s_lp_Variant>
CHEMBL213_lig391-1

> <s_i_glide_gridfile>
glide-grid_2vt4

> <i_i_glide_lignum>
459

> <i_i_glide_rotatable_bonds>
13

> <r_i_docking_score>
-7.27613659532897

> <r_i_glide_ligand_efficiency>
-0.207889617009399

> <r_i_glide_ligand_efficiency_sa>
-0.680020721631551

> <r_i_glide_ligand_efficiency_ln>
-1.59727346782585

> <r_i_glide_gscore>
-7.27613659532897

> <r_i_glide_lipo>
-3.34654234446474

> <r_i_glide_hbond>
-0.211904771713987

> <r_i_glide_metal>
0

> <r_i_glide_rewards>
-1.22600846534062

> <r_i_glide_evdw>
-56.3216094970703

> <r_i_glide_ecoul>
-4.6602349281311

> <r_i_glide_erotb>
1.02343470026355

> <r_i_glide_esite>
0

> <r_i_glide_emodel>
-78.015595304615

> <r_i_glide_energy>
-60.9818444252014

> <r_i_glide_einternal>
17.0606899261475

> <i_i_glide_confnum>
69

> <i_i_glide_posenum>
170

> <r_i_glide_eff_state_penalty>
0

> <s_user_duplicate_titles>
CHEMBL213_lig391

> <s_m_subgroup_title>
dock_pv

> <s_m_subgroupid>
dock_pv

> <b_m_subgroup_collapsed>
1

$$$$
CHEMBL213_lig213
                    3D
 Schrodinger Suite 2021-1.
 63 65  0  0  1  0            999 V2000
   33.9035    4.9619   -2.3579 S   0  0  0  0  0  0
   32.5244    5.0946   -1.2653 N   0  0  0  0  0  0
   34.5974    6.2500   -2.2986 O   0  0  0  0  0  0
   34.6029    3.7197   -2.0167 O   0  0  0  0  0  0
   33.0507    4.7896   -4.0450 C   0  0  0  0  0  0
   32.6102    5.4500    0.0880 C   0  0  0  0  0  0
   27.3044    5.8015    2.8171 O   0  0  0  0  0  0
   26.5750    4.9358    2.0358 C   0  0  0  0  0  0
   27.6946    6.6317    5.0465 C   0  0  1  0  0  0
   25.2394    3.1538    0.3840 C   0  0  0  0  0  0
   27.6073    5.3852    4.1474 C   0  0  0  0  0  0
   30.2117    6.6500    4.9992 N   0  0  2  0  0  0
   32.5931    6.2205    2.7850 C   0  0  0  0  0  0
   33.8066    5.8055    0.7251 C   0  0  0  0  0  0
   31.4193    5.4500    0.8108 C   0  0  0  0  0  0
   26.9859    4.7718    0.7137 C   0  0  0  0  0  0
   25.4416    4.2500    2.5060 C   0  0  0  0  0  0
   26.3213    3.8732   -0.1144 C   0  0  0  0  0  0
   24.7804    3.3499    1.6802 C   0  0  0  0  0  0
   33.7963    6.1795    2.0705 C   0  0  0  0  0  0
   31.4080    5.8500    2.1404 C   0  0  0  0  0  0
   27.4872    6.2500    6.3854 O   0  0  0  0  0  0
   24.6080    2.2500   -0.4150 O   0  0  0  0  0  0
   28.9984    7.4592    4.9333 C   0  0  0  0  0  0
   34.0924    4.8921   -5.1768 C   0  0  0  0  0  0
   32.2200    3.4893   -4.1232 C   0  0  0  0  0  0
   31.4027    7.4500    4.7559 C   0  0  0  0  0  0
   32.6076    6.6212    4.2648 C   0  0  0  0  0  0
   31.5735    3.3205   -5.5139 C   0  0  0  0  0  0
   33.4336    4.7368   -6.5603 C   0  0  0  0  0  0
   32.6025    3.4413   -6.6579 C   0  0  0  0  0  0
   31.6252    4.8161   -1.6242 H   0  0  0  0  0  0
   32.3977    5.6622   -4.0551 H   0  0  0  0  0  0
   26.8572    7.2858    4.7975 H   0  0  0  0  0  0
   26.8628    4.7089    4.5663 H   0  0  0  0  0  0
   28.5323    4.8078    4.1533 H   0  0  0  0  0  0
   30.1939    5.8408    4.3850 H   0  0  0  0  0  0
   34.7454    5.7970    0.1928 H   0  0  0  0  0  0
   30.4896    5.1669    0.3391 H   0  0  0  0  0  0
   27.8361    5.3216    0.3390 H   0  0  0  0  0  0
   25.0645    4.4050    3.5047 H   0  0  0  0  0  0
   26.6505    3.7245   -1.1335 H   0  0  0  0  0  0
   23.9220    2.8033    2.0424 H   0  0  0  0  0  0
   34.7259    6.4494    2.5486 H   0  0  0  0  0  0
   30.4591    5.8452    2.6469 H   0  0  0  0  0  0
   27.2974    7.0636    6.8763 H   0  0  0  0  0  0
   24.0270    2.6911   -1.0671 H   0  0  0  0  0  0
   29.0009    7.9871    3.9850 H   0  0  0  0  0  0
   29.0133    8.2296    5.7065 H   0  0  0  0  0  0
   34.6080    5.8500   -5.1254 H   0  0  0  0  0  0
   34.8568    4.1236   -5.0485 H   0  0  0  0  0  0
   32.8656    2.6330   -3.9212 H   0  0  0  0  0  0
   31.4447    3.4795   -3.3562 H   0  0  0  0  0  0
   31.1893    8.1935    3.9850 H   0  0  0  0  0  0
   31.6605    7.9949    5.6612 H   0  0  0  0  0  0
   33.4946    7.2331    4.4341 H   0  0  0  0  0  0
   32.7429    5.7344    4.8837 H   0  0  0  0  0  0
   30.8004    4.0795   -5.6458 H   0  0  0  0  0  0
   31.0636    2.3578   -5.5717 H   0  0  0  0  0  0
   32.7933    5.5997   -6.7525 H   0  0  0  0  0  0
   34.1989    4.7530   -7.3377 H   0  0  0  0  0  0
   32.0922    3.4005   -7.6207 H   0  0  0  0  0  0
   33.2750    2.5829   -6.6342 H   0  0  0  0  0  0
  1  2  1  0  0  0
  1  3  2  0  0  0
  1  4  2  0  0  0
  1  5  1  0  0  0
  2  6  1  0  0  0
  2 32  1  0  0  0
  5 25  1  0  0  0
  5 26  1  0  0  0
  5 33  1  0  0  0
  6 14  1  0  0  0
  6 15  2  0  0  0
  7 11  1  0  0  0
  7  8  1  0  0  0
  8 16  2  0  0  0
  8 17  1  0  0  0
  9 24  1  0  0  0
  9 11  1  0  0  0
  9 22  1  0  0  0
  9 34  1  0  0  0
 10 19  1  0  0  0
 10 23  1  0  0  0
 10 18  2  0  0  0
 11 35  1  0  0  0
 11 36  1  0  0  0
 12 27  1  0  0  0
 12 24  1  0  0  0
 12 37  1  0  0  0
 13 21  2  0  0  0
 13 28  1  0  0  0
 13 20  1  0  0  0
 14 20  2  0  0  0
 14 38  1  0  0  0
 15 21  1  0  0  0
 15 39  1  0  0  0
 16 18  1  0  0  0
 16 40  1  0  0  0
 17 19  2  0  0  0
 17 41  1  0  0  0
 18 42  1  0  0  0
 19 43  1  0  0  0
 20 44  1  0  0  0
 21 45  1  0  0  0
 22 46  1  0  0  0
 23 47  1  0  0  0
 24 48  1  0  0  0
 24 49  1  0  0  0
 25 30  1  0  0  0
 25 50  1  0  0  0
 25 51  1  0  0  0
 26 29  1  0  0  0
 26 52  1  0  0  0
 26 53  1  0  0  0
 27 28  1  0  0  0
 27 54  1  0  0  0
 27 55  1  0  0  0
 28 56  1  0  0  0
 28 57  1  0  0  0
 29 31  1  0  0  0
 29 58  1  0  0  0
 29 59  1  0  0  0
 30 31  1  0  0  0
 30 60  1  0  0  0
 30 61  1  0  0  0
 31 62  1  0  0  0
 31 63  1  0  0  0
M  END
> <s_m_entry_id>
3202

> <s_m_entry_name>
dock_pv.294

> <s_m_Source_Path>
/home/csk/Desktop/cluster/DUD-E-result/adrb1

> <s_m_Source_File>
dock_pv.maegz

> <i_m_Source_File_Index>
294

> <chembl_id>
CHEMBL274807

> <chembl_pref_name>
None

> <i_lp_mmshare_version>
53161

> <i_f3d_flags>
0

> <r_lp_tautomer_probability>
1

> <s_lp_Force_Field>
OPLS_2005

> <r_lp_Energy>
25.708595

> <b_lp_Chiralities_Consistent>
1

> <s_lp_Variant>
CHEMBL213_lig213-1

> <s_i_glide_gridfile>
glide-grid_2vt4

> <i_i_glide_lignum>
248

> <i_i_glide_rotatable_bonds>
13

> <r_i_docking_score>
-7.27391227890085

> <r_i_glide_ligand_efficiency>
-0.234642331577447

> <r_i_glide_ligand_efficiency_sa>
-0.737100879805666

> <r_i_glide_ligand_efficiency_ln>
-1.64049013753197

> <r_i_glide_gscore>
-7.27391227890085

> <r_i_glide_lipo>
-3.15832780323182

> <r_i_glide_hbond>
-0.954403073195951

> <r_i_glide_metal>
0

> <r_i_glide_rewards>
-0.065224262690766

> <r_i_glide_evdw>
-37.8945198059082

> <r_i_glide_ecoul>
-15.3093976974487

> <r_i_glide_erotb>
1.09517850513041

> <r_i_glide_esite>
0

> <r_i_glide_emodel>
-66.8050090021196

> <r_i_glide_energy>
-53.2039175033569

> <r_i_glide_einternal>
17.0575180053711

> <i_i_glide_confnum>
244

> <i_i_glide_posenum>
226

> <r_i_glide_eff_state_penalty>
0

> <s_user_duplicate_titles>
CHEMBL213_lig213

> <s_m_subgroup_title>
dock_pv

> <s_m_subgroupid>
dock_pv

> <b_m_subgroup_collapsed>
1

$$$$
CHEMBL213_lig1049
                    3D
 Schrodinger Suite 2021-1.
 65 66  0  0  1  0            999 V2000
   26.5941    4.6580    1.3650 C   0  0  0  0  0  0
   25.4074    3.9071    1.4296 C   0  0  0  0  0  0
   24.6364    3.9178    2.5858 C   0  0  0  0  0  0
   25.0488    4.6487    3.6940 C   0  0  0  0  0  0
   26.2575    5.3484    3.6932 C   0  0  0  0  0  0
   27.0035    5.3818    2.5023 C   0  0  0  0  0  0
   27.4102    4.6992    0.0670 C   0  0  0  0  0  0
   28.7724    5.0500    0.2281 O   0  0  0  0  0  0
   24.9524    3.1571    0.3781 O   0  0  0  0  0  0
   26.6936    6.0028    5.0172 C   0  0  2  0  0  0
   27.8048    7.0719    5.0093 C   0  0  0  0  0  0
   27.1075    5.0502    5.9699 O   0  0  0  0  0  0
   29.1252    6.5640    4.6453 N   0  0  2  0  0  0
   30.1093    7.6351    4.5674 C   0  0  0  0  0  0
   31.0725    7.3384    3.4067 C   0  0  0  0  0  0
   32.4364    6.7662    3.8256 C   0  0  0  0  0  0
   33.4169    6.5273    2.6527 C   0  0  0  0  0  0
   32.7814    5.9304    1.3784 C   0  0  0  0  0  0
   33.7903    5.6332    0.2640 C   0  0  0  0  0  0
   33.0640    5.3060   -0.9105 O   0  0  0  0  0  0
   33.8819    5.1168   -2.0574 C   0  0  0  0  0  0
   33.0061    4.7910   -3.2737 C   0  0  0  0  0  0
   32.0753    5.8479   -3.4897 O   0  0  0  0  0  0
   31.4029    5.8200   -4.7460 C   0  0  0  0  0  0
   30.4453    4.6321   -4.8817 C   0  0  0  0  0  0
   30.7593    3.5315   -5.7045 C   0  0  0  0  0  0
   29.8448    2.4886   -5.8627 C   0  0  0  0  0  0
   28.6115    2.5319   -5.2183 C   0  0  0  0  0  0
   28.2965    3.6140   -4.4034 C   0  0  0  0  0  0
   29.2074    4.6523   -4.2147 C   0  0  0  0  0  0
   32.2610    3.4212   -6.5588 Cl  0  0  0  0  0  0
   28.7601    5.9501   -3.1600 Cl  0  0  0  0  0  0
   23.7146    3.3566    2.6222 H   0  0  0  0  0  0
   24.4369    4.6389    4.5848 H   0  0  0  0  0  0
   27.9158    5.9550    2.4465 H   0  0  0  0  0  0
   27.3828    3.7210   -0.4152 H   0  0  0  0  0  0
   26.9411    5.4128   -0.6118 H   0  0  0  0  0  0
   29.1956    5.0381   -0.6355 H   0  0  0  0  0  0
   25.2137    3.4743   -0.4927 H   0  0  0  0  0  0
   25.8093    6.4963    5.4280 H   0  0  0  0  0  0
   27.4945    7.9056    4.3852 H   0  0  0  0  0  0
   27.8891    7.4636    6.0171 H   0  0  0  0  0  0
   28.0571    4.9495    5.8498 H   0  0  0  0  0  0
   29.1150    6.0322    3.7838 H   0  0  0  0  0  0
   29.6133    8.5881    4.3842 H   0  0  0  0  0  0
   30.6381    7.7482    5.5149 H   0  0  0  0  0  0
   30.6037    6.6683    2.6874 H   0  0  0  0  0  0
   31.2437    8.2500    2.8504 H   0  0  0  0  0  0
   32.9101    7.4387    4.5424 H   0  0  0  0  0  0
   32.2763    5.8445    4.3708 H   0  0  0  0  0  0
   33.8872    7.4747    2.3863 H   0  0  0  0  0  0
   34.2258    5.8831    2.9983 H   0  0  0  0  0  0
   32.1984    5.0499    1.6198 H   0  0  0  0  0  0
   32.0514    6.6352    0.9822 H   0  0  0  0  0  0
   34.4093    6.5145    0.0840 H   0  0  0  0  0  0
   34.4483    4.8092    0.5508 H   0  0  0  0  0  0
   34.4626    6.0195   -2.2602 H   0  0  0  0  0  0
   34.5893    4.3035   -1.8855 H   0  0  0  0  0  0
   33.6514    4.6666   -4.1454 H   0  0  0  0  0  0
   32.4796    3.8493   -3.1132 H   0  0  0  0  0  0
   30.8112    6.7295   -4.8145 H   0  0  0  0  0  0
   32.1146    5.8823   -5.5696 H   0  0  0  0  0  0
   30.0888    1.6453   -6.4909 H   0  0  0  0  0  0
   27.8977    1.7305   -5.3425 H   0  0  0  0  0  0
   27.3399    3.6375   -3.8989 H   0  0  0  0  0  0
  1  6  1  0  0  0
  1  2  2  0  0  0
  1  7  1  0  0  0
  2  9  1  0  0  0
  2  3  1  0  0  0
  3  4  2  0  0  0
  3 33  1  0  0  0
  4  5  1  0  0  0
  4 34  1  0  0  0
  5 10  1  0  0  0
  5  6  2  0  0  0
  6 35  1  0  0  0
  7  8  1  0  0  0
  7 36  1  0  0  0
  7 37  1  0  0  0
  8 38  1  0  0  0
  9 39  1  0  0  0
 10 11  1  0  0  0
 10 12  1  0  0  0
 10 40  1  0  0  0
 11 13  1  0  0  0
 11 41  1  0  0  0
 11 42  1  0  0  0
 12 43  1  0  0  0
 13 14  1  0  0  0
 13 44  1  0  0  0
 14 15  1  0  0  0
 14 45  1  0  0  0
 14 46  1  0  0  0
 15 16  1  0  0  0
 15 47  1  0  0  0
 15 48  1  0  0  0
 16 17  1  0  0  0
 16 49  1  0  0  0
 16 50  1  0  0  0
 17 18  1  0  0  0
 17 51  1  0  0  0
 17 52  1  0  0  0
 18 19  1  0  0  0
 18 53  1  0  0  0
 18 54  1  0  0  0
 19 20  1  0  0  0
 19 55  1  0  0  0
 19 56  1  0  0  0
 20 21  1  0  0  0
 21 22  1  0  0  0
 21 57  1  0  0  0
 21 58  1  0  0  0
 22 23  1  0  0  0
 22 59  1  0  0  0
 22 60  1  0  0  0
 23 24  1  0  0  0
 24 25  1  0  0  0
 24 61  1  0  0  0
 24 62  1  0  0  0
 25 26  2  0  0  0
 25 30  1  0  0  0
 26 27  1  0  0  0
 26 31  1  0  0  0
 27 28  2  0  0  0
 27 63  1  0  0  0
 28 29  1  0  0  0
 28 64  1  0  0  0
 29 30  2  0  0  0
 29 65  1  0  0  0
 30 32  1  0  0  0
M  END
> <s_m_entry_id>
3203

> <s_m_entry_name>
dock_pv.295

> <s_m_Source_Path>
/home/csk/Desktop/cluster/DUD-E-result/adrb1

> <s_m_Source_File>
dock_pv.maegz

> <i_m_Source_File_Index>
295

> <chembl_id>
CHEMBL1084647

> <chembl_pref_name>
VILANTEROL ACETATE

> <i_lp_mmshare_version>
53161

> <i_f3d_flags>
0

> <r_lp_tautomer_probability>
0.999999999997365

> <s_lp_Force_Field>
OPLS_2005

> <r_lp_Energy>
26.738668

> <b_lp_Chiralities_Consistent>
1

> <s_lp_Variant>
CHEMBL213_lig1049-1

> <s_i_glide_gridfile>
glide-grid_2vt4

> <i_i_glide_lignum>
1217

> <i_i_glide_rotatable_bonds>
19

> <r_i_docking_score>
-7.27355676562494

> <r_i_glide_ligand_efficiency>
-0.227298648925779

> <r_i_glide_ligand_efficiency_sa>
-0.721628227997808

> <r_i_glide_ligand_efficiency_ln>
-1.62874762949258

> <r_i_glide_gscore>
-7.27355676562494

> <r_i_glide_lipo>
-3.86383395214532

> <r_i_glide_hbond>
-0.438829446944717

> <r_i_glide_metal>
0

> <r_i_glide_rewards>
-0.751190756543903

> <r_i_glide_evdw>
-44.6105003356934

> <r_i_glide_ecoul>
-8.5166597366333

> <r_i_glide_erotb>
1.28832136728866

> <r_i_glide_esite>
0

> <r_i_glide_emodel>
-67.6388063273105

> <r_i_glide_energy>
-53.1271600723267

> <r_i_glide_einternal>
12.7153120040894

> <i_i_glide_confnum>
157

> <i_i_glide_posenum>
162

> <r_i_glide_eff_state_penalty>
0

> <s_user_duplicate_titles>
CHEMBL213_lig1049,631573

> <s_m_subgroup_title>
dock_pv

> <s_m_subgroupid>
dock_pv

> <b_m_subgroup_collapsed>
1

$$$$
CHEMBL213_lig746
                    3D
 Schrodinger Suite 2021-1.
 51 53  0  0  1  0            999 V2000
   26.3079    5.8376    4.2436 C   0  0  0  0  0  0
   27.1108    5.3914    3.1993 C   0  0  0  0  0  0
   28.4752    5.7211    3.1849 C   0  0  0  0  0  0
   29.0242    6.5745    4.1540 C   0  0  0  0  0  0
   28.1895    7.0278    5.1857 C   0  0  0  0  0  0
   26.8472    6.6500    5.2339 C   0  0  0  0  0  0
   34.4191    3.4382   -4.0780 C   0  0  0  0  0  0
   34.7656    4.4112   -5.0163 C   0  0  0  0  0  0
   33.7704    5.0488   -5.7585 C   0  0  0  0  0  0
   32.4286    4.7213   -5.5584 C   0  0  0  0  0  0
   32.0724    3.7415   -4.6244 C   0  0  0  0  0  0
   33.0787    3.1030   -3.8858 C   0  0  0  0  0  0
   35.6418    2.6516   -3.1467 Cl  0  0  0  0  0  0
   30.6020    3.4085   -4.3797 C   0  0  2  0  0  0
   30.1006    3.9401   -3.0160 C   0  0  0  0  0  0
   30.0879    5.4014   -2.8853 N   0  0  1  0  0  0
   29.0598    6.0833   -3.6767 C   0  0  0  0  0  0
   27.6034    5.6975   -3.3085 C   0  0  0  0  0  0
   27.3192    5.4481   -1.8230 C   0  0  0  0  0  0
   27.3065    6.4950   -0.9087 C   0  0  0  0  0  0
   27.0080    6.2411    0.4264 C   0  0  0  0  0  0
   26.7578    4.9425    0.8735 C   0  0  0  0  0  0
   26.7171    3.9057   -0.0489 C   0  0  0  0  0  0
   27.0084    4.1624   -1.3841 C   0  0  0  0  0  0
   30.3440    2.0159   -4.4145 O   0  0  0  0  0  0
   26.5205    4.6493    2.2015 O   0  0  0  0  0  0
   30.4552    7.0497    4.0312 C   0  0  0  0  0  0
   30.8782    7.8500    5.0477 O   0  0  0  0  0  0
   31.1660    6.7731    3.0678 O   0  0  0  0  0  0
   25.2609    5.5763    4.2674 H   0  0  0  0  0  0
   29.0886    5.3536    2.3730 H   0  0  0  0  0  0
   28.5608    7.6916    5.9541 H   0  0  0  0  0  0
   26.2122    7.0259    6.0225 H   0  0  0  0  0  0
   35.8015    4.6848   -5.1644 H   0  0  0  0  0  0
   34.0419    5.8127   -6.4739 H   0  0  0  0  0  0
   31.6678    5.2429   -6.1209 H   0  0  0  0  0  0
   32.8170    2.3485   -3.1587 H   0  0  0  0  0  0
   29.9975    3.8229   -5.1870 H   0  0  0  0  0  0
   30.7443    3.5468   -2.2263 H   0  0  0  0  0  0
   29.1073    3.5496   -2.8081 H   0  0  0  0  0  0
   29.9341    5.6292   -1.9111 H   0  0  0  0  0  0
   29.2410    5.8446   -4.7258 H   0  0  0  0  0  0
   29.1896    7.1626   -3.6066 H   0  0  0  0  0  0
   27.3207    4.8088   -3.8752 H   0  0  0  0  0  0
   26.9213    6.4717   -3.6634 H   0  0  0  0  0  0
   27.5378    7.4960   -1.2213 H   0  0  0  0  0  0
   26.9949    7.0500    1.1323 H   0  0  0  0  0  0
   26.4805    2.9026    0.2710 H   0  0  0  0  0  0
   26.9512    3.3646   -2.1036 H   0  0  0  0  0  0
   29.5474    1.8488   -3.8969 H   0  0  0  0  0  0
   31.6861    8.3244    4.8034 H   0  0  0  0  0  0
  1  6  1  0  0  0
  1  2  2  0  0  0
  1 30  1  0  0  0
  2  3  1  0  0  0
  2 26  1  0  0  0
  3  4  2  0  0  0
  3 31  1  0  0  0
  4  5  1  0  0  0
  4 27  1  0  0  0
  5  6  2  0  0  0
  5 32  1  0  0  0
  6 33  1  0  0  0
  7  8  2  0  0  0
  7 12  1  0  0  0
  7 13  1  0  0  0
  8  9  1  0  0  0
  8 34  1  0  0  0
  9 10  2  0  0  0
  9 35  1  0  0  0
 10 11  1  0  0  0
 10 36  1  0  0  0
 11 12  2  0  0  0
 11 14  1  0  0  0
 12 37  1  0  0  0
 14 15  1  0  0  0
 14 25  1  0  0  0
 14 38  1  0  0  0
 15 16  1  0  0  0
 15 39  1  0  0  0
 15 40  1  0  0  0
 16 17  1  0  0  0
 16 41  1  0  0  0
 17 18  1  0  0  0
 17 42  1  0  0  0
 17 43  1  0  0  0
 18 19  1  0  0  0
 18 44  1  0  0  0
 18 45  1  0  0  0
 19 20  2  0  0  0
 19 24  1  0  0  0
 20 21  1  0  0  0
 20 46  1  0  0  0
 21 22  2  0  0  0
 21 47  1  0  0  0
 22 23  1  0  0  0
 22 26  1  0  0  0
 23 24  2  0  0  0
 23 48  1  0  0  0
 24 49  1  0  0  0
 25 50  1  0  0  0
 27 28  1  0  0  0
 27 29  2  0  0  0
 28 51  1  0  0  0
M  END
> <s_m_entry_id>
3204

> <s_m_entry_name>
dock_pv.296

> <s_m_Source_Path>
/home/csk/Desktop/cluster/DUD-E-result/adrb1

> <s_m_Source_File>
dock_pv.maegz

> <i_m_Source_File_Index>
296

> <chembl_id>
CHEMBL409828

> <chembl_pref_name>
None

> <i_lp_mmshare_version>
53161

> <i_f3d_flags>
0

> <r_lp_tautomer_probability>
1

> <s_lp_Force_Field>
OPLS_2005

> <r_lp_Energy>
29.505301

> <b_lp_Chiralities_Consistent>
1

> <s_lp_Variant>
CHEMBL213_lig746-1

> <s_i_glide_gridfile>
glide-grid_2vt4

> <i_i_glide_lignum>
852

> <i_i_glide_rotatable_bonds>
11

> <r_i_docking_score>
-7.26666350388782

> <r_i_glide_ligand_efficiency>
-0.250574603582339

> <r_i_glide_ligand_efficiency_sa>
-0.769844569811482

> <r_i_glide_ligand_efficiency_ln>
-1.66388167570282

> <r_i_glide_gscore>
-7.26666350388782

> <r_i_glide_lipo>
-2.71526198651148

> <r_i_glide_hbond>
-0.250945268418113

> <r_i_glide_metal>
0

> <r_i_glide_rewards>
-1.34469965183819

> <r_i_glide_evdw>
-41.7898406982422

> <r_i_glide_ecoul>
-11.9727916717529

> <r_i_glide_erotb>
0.929654188555014

> <r_i_glide_esite>
0

> <r_i_glide_emodel>
-74.5769373639525

> <r_i_glide_energy>
-53.7626323699951

> <r_i_glide_einternal>
5.03637266159058

> <i_i_glide_confnum>
42

> <i_i_glide_posenum>
158

> <r_i_glide_eff_state_penalty>
0

> <s_user_duplicate_titles>
CHEMBL213_lig746

> <s_m_subgroup_title>
dock_pv

> <s_m_subgroupid>
dock_pv

> <b_m_subgroup_collapsed>
1

$$$$
CHEMBL213_lig1012
                    3D
 Schrodinger Suite 2021-1.
 48 49  0  0  1  0            999 V2000
   25.5828    5.0501    3.4464 C   0  0  0  0  0  0
   24.7343    4.2463    2.6889 C   0  0  0  0  0  0
   25.1047    3.8517    1.4025 C   0  0  0  0  0  0
   26.3253    4.2756    0.8467 C   0  0  0  0  0  0
   25.1946    5.4511    4.6992 O   0  0  0  0  0  0
   26.7841    3.8068   -0.5433 C   0  0  2  0  0  0
   27.3260    4.8997   -1.5121 C   0  0  0  0  0  0
   25.8080    3.0500   -1.2150 O   0  0  0  0  0  0
   28.1819    4.2500   -2.5183 N   0  0  1  0  0  0
   29.5590    4.6853   -2.7651 C   0  0  0  0  0  0
   30.3174    3.5007   -3.4502 C   0  0  0  0  0  0
   29.9579    3.0885   -4.8849 C   0  0  0  0  0  0
   30.9594    3.0816   -5.8634 C   0  0  0  0  0  0
   30.6849    2.6229   -7.1493 C   0  0  0  0  0  0
   29.4010    2.1868   -7.4662 C   0  0  0  0  0  0
   28.3965    2.1915   -6.5036 C   0  0  0  0  0  0
   28.6751    2.6360   -5.2146 C   0  0  0  0  0  0
   29.5186    5.9451   -3.6542 C   0  0  0  0  0  0
   30.2869    4.9709   -1.4266 C   0  0  0  0  0  0
   26.8195    5.4491    2.9246 C   0  0  0  0  0  0
   27.1780    5.0657    1.6278 C   0  0  0  0  0  0
   27.7711    6.2917    3.7571 C   0  0  0  0  0  0
   28.2078    5.6256    4.9164 O   0  0  0  0  0  0
   23.7837    3.9320    3.0943 H   0  0  0  0  0  0
   24.4276    3.2242    0.8404 H   0  0  0  0  0  0
   25.9244    5.8648    5.1702 H   0  0  0  0  0  0
   27.5959    3.1085   -0.3453 H   0  0  0  0  0  0
   27.8589    5.6648   -0.9577 H   0  0  0  0  0  0
   26.5158    5.4399   -2.0049 H   0  0  0  0  0  0
   25.4196    3.5891   -1.9298 H   0  0  0  0  0  0
   28.1555    3.2317   -2.4153 H   0  0  0  0  0  0
   30.2156    2.6071   -2.8330 H   0  0  0  0  0  0
   31.3858    3.7223   -3.4306 H   0  0  0  0  0  0
   31.9600    3.4144   -5.6280 H   0  0  0  0  0  0
   31.4614    2.6174   -7.9004 H   0  0  0  0  0  0
   29.1800    1.8476   -8.4673 H   0  0  0  0  0  0
   27.4029    1.8522   -6.7510 H   0  0  0  0  0  0
   27.8865    2.6107   -4.4771 H   0  0  0  0  0  0
   30.5195    6.3184   -3.8720 H   0  0  0  0  0  0
   29.0250    5.7464   -4.6065 H   0  0  0  0  0  0
   28.9547    6.7501   -3.1834 H   0  0  0  0  0  0
   31.3494    5.1623   -1.5797 H   0  0  0  0  0  0
   29.8864    5.8378   -0.9081 H   0  0  0  0  0  0
   30.2051    4.1253   -0.7418 H   0  0  0  0  0  0
   28.1384    5.3654    1.2339 H   0  0  0  0  0  0
   28.6367    6.6311    3.1856 H   0  0  0  0  0  0
   27.2413    7.1883    4.0787 H   0  0  0  0  0  0
   28.6947    4.8395    4.6467 H   0  0  0  0  0  0
  1  5  1  0  0  0
  1 20  2  0  0  0
  1  2  1  0  0  0
  2  3  2  0  0  0
  2 24  1  0  0  0
  3  4  1  0  0  0
  3 25  1  0  0  0
  4  6  1  0  0  0
  4 21  2  0  0  0
  5 26  1  0  0  0
  6  7  1  0  0  0
  6  8  1  0  0  0
  6 27  1  0  0  0
  7  9  1  0  0  0
  7 28  1  0  0  0
  7 29  1  0  0  0
  8 30  1  0  0  0
  9 10  1  0  0  0
  9 31  1  0  0  0
 10 11  1  0  0  0
 10 18  1  0  0  0
 10 19  1  0  0  0
 11 12  1  0  0  0
 11 32  1  0  0  0
 11 33  1  0  0  0
 12 13  2  0  0  0
 12 17  1  0  0  0
 13 14  1  0  0  0
 13 34  1  0  0  0
 14 15  2  0  0  0
 14 35  1  0  0  0
 15 16  1  0  0  0
 15 36  1  0  0  0
 16 17  2  0  0  0
 16 37  1  0  0  0
 17 38  1  0  0  0
 18 39  1  0  0  0
 18 40  1  0  0  0
 18 41  1  0  0  0
 19 42  1  0  0  0
 19 43  1  0  0  0
 19 44  1  0  0  0
 20 21  1  0  0  0
 20 22  1  0  0  0
 21 45  1  0  0  0
 22 23  1  0  0  0
 22 46  1  0  0  0
 22 47  1  0  0  0
 23 48  1  0  0  0
M  END
> <s_m_entry_id>
3205

> <s_m_entry_name>
dock_pv.297

> <s_m_Source_Path>
/home/csk/Desktop/cluster/DUD-E-result/adrb1

> <s_m_Source_File>
dock_pv.maegz

> <i_m_Source_File_Index>
297

> <chembl_id>
CHEMBL568511

> <chembl_pref_name>
None

> <i_lp_mmshare_version>
53161

> <i_f3d_flags>
0

> <r_lp_tautomer_probability>
0.999999999997365

> <s_lp_Force_Field>
OPLS_2005

> <r_lp_Energy>
18.749356

> <b_lp_Chiralities_Consistent>
1

> <s_lp_Variant>
CHEMBL213_lig1012-1

> <s_i_glide_gridfile>
glide-grid_2vt4

> <i_i_glide_lignum>
1143

> <i_i_glide_rotatable_bonds>
10

> <r_i_docking_score>
-7.25194108122045

> <r_i_glide_ligand_efficiency>
-0.31530178614002

> <r_i_glide_ligand_efficiency_sa>
-0.896676337354647

> <r_i_glide_ligand_efficiency_ln>
-1.75358511040526

> <r_i_glide_gscore>
-7.25194108122045

> <r_i_glide_lipo>
-2.48750672393725

> <r_i_glide_hbond>
-0.67890212336626

> <r_i_glide_metal>
0

> <r_i_glide_rewards>
-2.13008625111171

> <r_i_glide_evdw>
-27.2214336395264

> <r_i_glide_ecoul>
-11.4421520233154

> <r_i_glide_erotb>
1.12194850266839

> <r_i_glide_esite>
0

> <r_i_glide_emodel>
-46.711804451548

> <r_i_glide_energy>
-38.6635856628418

> <r_i_glide_einternal>
15.468976020813

> <i_i_glide_confnum>
91

> <i_i_glide_posenum>
68

> <r_i_glide_eff_state_penalty>
0

> <s_user_duplicate_titles>
CHEMBL213_lig1012

> <s_m_subgroup_title>
dock_pv

> <s_m_subgroupid>
dock_pv

> <b_m_subgroup_collapsed>
1

$$$$
CHEMBL213_lig179
                    3D
 Schrodinger Suite 2021-1.
 50 51  0  0  1  0            999 V2000
   37.4825    6.7866   -0.0184 S   0  0  0  0  0  0
   37.3667    7.2206    1.6959 N   0  0  0  0  0  0
   36.1799    7.0490   -0.6386 O   0  0  0  0  0  0
   38.6976    7.4456   -0.5036 O   0  0  0  0  0  0
   36.2347    7.0379    2.5031 C   0  0  0  0  0  0
   26.4029    5.4971    3.6800 O   0  0  0  0  0  0
   37.7923    4.9337    0.0412 C   0  0  0  0  0  0
   25.9933    4.7377    2.6047 C   0  0  0  0  0  0
   27.9256    6.9457    4.8806 C   0  0  1  0  0  0
   25.0423    3.0916    0.5695 C   0  0  0  0  0  0
   27.7731    5.8778    3.7820 C   0  0  0  0  0  0
   30.4186    6.7372    5.0367 N   0  0  2  0  0  0
   34.0608    6.7062    4.2234 C   0  0  0  0  0  0
   36.2147    7.6800    3.7425 C   0  0  0  0  0  0
   35.1543    6.2343    2.1244 C   0  0  0  0  0  0
   26.6840    4.6499    1.3845 C   0  0  0  0  0  0
   24.7984    4.0381    2.7679 C   0  0  0  0  0  0
   26.2066    3.8255    0.3703 C   0  0  0  0  0  0
   24.3250    3.2065    1.7577 C   0  0  0  0  0  0
   35.1328    7.5145    4.6033 C   0  0  0  0  0  0
   34.0703    6.0735    2.9805 C   0  0  0  0  0  0
   27.6798    6.3904    6.1614 O   0  0  0  0  0  0
   24.6080    2.2500   -0.4150 O   0  0  0  0  0  0
   29.2983    7.6575    4.8524 C   0  0  0  0  0  0
   31.6884    7.4262    4.8828 C   0  0  0  0  0  0
   32.8866    6.4932    5.1652 C   0  0  0  0  0  0
   38.1454    7.7368    2.0718 H   0  0  0  0  0  0
   37.8334    4.5589   -0.9813 H   0  0  0  0  0  0
   38.7476    4.7496    0.5299 H   0  0  0  0  0  0
   36.9863    4.4432    0.5817 H   0  0  0  0  0  0
   27.1552    7.7021    4.7213 H   0  0  0  0  0  0
   28.3940    5.0037    3.9887 H   0  0  0  0  0  0
   28.1357    6.3146    2.8541 H   0  0  0  0  0  0
   30.3808    5.9597    4.3857 H   0  0  0  0  0  0
   37.0398    8.3074    4.0455 H   0  0  0  0  0  0
   35.1326    5.7248    1.1740 H   0  0  0  0  0  0
   27.5960    5.1915    1.1966 H   0  0  0  0  0  0
   24.2499    4.1276    3.6932 H   0  0  0  0  0  0
   26.7463    3.7402   -0.5625 H   0  0  0  0  0  0
   23.4133    2.6491    1.9069 H   0  0  0  0  0  0
   35.1279    8.0135    5.5612 H   0  0  0  0  0  0
   33.2412    5.4504    2.6783 H   0  0  0  0  0  0
   27.4092    7.1176    6.7398 H   0  0  0  0  0  0
   24.0033    2.7003   -1.0386 H   0  0  0  0  0  0
   29.4086    8.1632    3.8929 H   0  0  0  0  0  0
   29.3203    8.4369    5.6145 H   0  0  0  0  0  0
   31.7578    7.8491    3.8791 H   0  0  0  0  0  0
   31.6761    8.2235    5.6239 H   0  0  0  0  0  0
   33.2270    6.5833    6.1945 H   0  0  0  0  0  0
   32.6088    5.4502    5.0708 H   0  0  0  0  0  0
  1  2  1  0  0  0
  1  3  2  0  0  0
  1  4  2  0  0  0
  1  7  1  0  0  0
  2  5  1  0  0  0
  2 27  1  0  0  0
  5 14  1  0  0  0
  5 15  2  0  0  0
  6 11  1  0  0  0
  6  8  1  0  0  0
  7 28  1  0  0  0
  7 29  1  0  0  0
  7 30  1  0  0  0
  8 16  2  0  0  0
  8 17  1  0  0  0
  9 24  1  0  0  0
  9 11  1  0  0  0
  9 22  1  0  0  0
  9 31  1  0  0  0
 10 19  1  0  0  0
 10 23  1  0  0  0
 10 18  2  0  0  0
 11 32  1  0  0  0
 11 33  1  0  0  0
 12 25  1  0  0  0
 12 24  1  0  0  0
 12 34  1  0  0  0
 13 21  2  0  0  0
 13 26  1  0  0  0
 13 20  1  0  0  0
 14 20  2  0  0  0
 14 35  1  0  0  0
 15 21  1  0  0  0
 15 36  1  0  0  0
 16 18  1  0  0  0
 16 37  1  0  0  0
 17 19  2  0  0  0
 17 38  1  0  0  0
 18 39  1  0  0  0
 19 40  1  0  0  0
 20 41  1  0  0  0
 21 42  1  0  0  0
 22 43  1  0  0  0
 23 44  1  0  0  0
 24 45  1  0  0  0
 24 46  1  0  0  0
 25 26  1  0  0  0
 25 47  1  0  0  0
 25 48  1  0  0  0
 26 49  1  0  0  0
 26 50  1  0  0  0
M  END
> <s_m_entry_id>
3206

> <s_m_entry_name>
dock_pv.298

> <s_m_Source_Path>
/home/csk/Desktop/cluster/DUD-E-result/adrb1

> <s_m_Source_File>
dock_pv.maegz

> <i_m_Source_File_Index>
298

> <chembl_id>
CHEMBL12188

> <chembl_pref_name>
None

> <i_lp_mmshare_version>
53161

> <i_f3d_flags>
0

> <r_lp_tautomer_probability>
1

> <s_lp_Force_Field>
OPLS_2005

> <r_lp_Energy>
14.688094

> <b_lp_Chiralities_Consistent>
1

> <s_lp_Variant>
CHEMBL213_lig179-1

> <s_i_glide_gridfile>
glide-grid_2vt4

> <i_i_glide_lignum>
214

> <i_i_glide_rotatable_bonds>
12

> <r_i_docking_score>
-7.24626832887886

> <r_i_glide_ligand_efficiency>
-0.278702628033802

> <r_i_glide_ligand_efficiency_sa>
-0.825655438908253

> <r_i_glide_ligand_efficiency_ln>
-1.70176234009148

> <r_i_glide_gscore>
-7.24626832887886

> <r_i_glide_lipo>
-2.59240961318605

> <r_i_glide_hbond>
-0.708394894815446

> <r_i_glide_metal>
0

> <r_i_glide_rewards>
-0.780937798660336

> <r_i_glide_evdw>
-34.8984603881836

> <r_i_glide_ecoul>
-17.5057964324951

> <r_i_glide_erotb>
1.20626646206642

> <r_i_glide_esite>
0

> <r_i_glide_emodel>
-70.3808811161517

> <r_i_glide_energy>
-52.4042568206787

> <r_i_glide_einternal>
10.0130825042725

> <i_i_glide_confnum>
224

> <i_i_glide_posenum>
217

> <r_i_glide_eff_state_penalty>
0

> <s_user_duplicate_titles>
CHEMBL213_lig179,11506

> <s_m_subgroup_title>
dock_pv

> <s_m_subgroupid>
dock_pv

> <b_m_subgroup_collapsed>
1

$$$$
CHEMBL213_lig252
                    3D
 Schrodinger Suite 2021-1.
 85 88  0  0  1  0            999 V2000
   29.4189    6.0203   -3.9494 S   0  0  0  0  0  0
   26.6104    5.0513    2.1024 C   0  0  0  0  0  0
   26.2024    4.6830    0.8676 N   0  0  0  0  0  0
   25.6300    4.6488    2.9420 N   0  0  0  0  0  0
   31.0440    6.2499   -3.3479 N   0  0  0  0  0  0
   28.4618    5.6441   -2.4986 C   0  0  0  0  0  0
   24.9770    3.9072    0.8519 C   0  0  0  0  0  0
   26.9252    5.0319   -0.2740 C   0  0  0  0  0  0
   29.4082    4.8380   -4.8150 O   0  0  0  0  0  0
   29.0007    7.3432   -4.4147 O   0  0  0  0  0  0
   27.6471    5.6555    2.3787 O   0  0  0  0  0  0
   24.6029    3.8416    2.3123 C   0  0  0  0  0  0
   36.9468    5.9532   -0.9032 C   0  0  0  0  0  0
   36.9371    4.7379    1.1847 N   0  0  0  0  0  0
   27.7389    6.6499   -1.8628 C   0  0  0  0  0  0
   28.4484    4.3455   -2.0060 C   0  0  0  0  0  0
   27.6794    4.0448   -0.8898 C   0  0  0  0  0  0
   26.9536    6.3461   -0.7524 C   0  0  0  0  0  0
   31.9801    5.2256   -3.2869 C   0  0  0  0  0  0
   37.5323    6.2021   -2.2856 C   0  0  1  0  0  0
   36.9614    4.0971   -3.5890 N   0  0  1  0  0  0
   34.0378    3.3721   -3.1771 C   0  0  0  0  0  0
   37.4956    5.0223   -0.0163 C   0  0  0  0  0  0
   25.4099    5.2160    4.2813 C   0  0  0  0  0  0
   32.6010    4.9633   -2.0690 C   0  0  0  0  0  0
   32.3737    4.5567   -4.4480 C   0  0  0  0  0  0
   33.6313    4.0343   -2.0156 C   0  0  0  0  0  0
   33.4003    3.6231   -4.3922 C   0  0  0  0  0  0
   38.5568    7.1740   -2.2595 O   0  0  0  0  0  0
   38.0303    4.9617   -3.0850 C   0  0  0  0  0  0
   35.8082    6.6597   -0.4923 C   0  0  0  0  0  0
   35.8270    5.4223    1.5579 C   0  0  0  0  0  0
   36.4988    3.1045   -2.6245 C   0  0  0  0  0  0
   35.2208    2.4217   -3.1232 C   0  0  0  0  0  0
   26.6667    5.4155    5.1674 C   0  0  0  0  0  0
   31.8563    7.2502    3.4670 C   0  0  0  0  0  0
   35.2471    6.4014    0.7564 C   0  0  0  0  0  0
   31.0096    7.2572    4.7606 C   0  0  0  0  0  0
   29.5582    6.8101    4.5145 C   0  0  0  0  0  0
   27.0896    6.8973    5.1959 C   0  0  0  0  0  0
   28.5485    7.1700    5.6221 C   0  0  0  0  0  0
   32.1277    5.8501    2.9064 C   0  0  0  0  0  0
   31.0076    6.8377   -2.5321 H   0  0  0  0  0  0
   24.2051    4.4082    0.2649 H   0  0  0  0  0  0
   25.1566    2.9130    0.4427 H   0  0  0  0  0  0
   24.6317    2.8201    2.6927 H   0  0  0  0  0  0
   23.6110    4.2584    2.4936 H   0  0  0  0  0  0
   27.8078    7.6595   -2.2330 H   0  0  0  0  0  0
   29.0236    3.5718   -2.4949 H   0  0  0  0  0  0
   27.6715    3.0424   -0.4970 H   0  0  0  0  0  0
   26.3930    7.1257   -0.2584 H   0  0  0  0  0  0
   36.7227    6.6499   -2.8515 H   0  0  0  0  0  0
   36.1897    4.6594   -3.9256 H   0  0  0  0  0  0
   38.3725    4.4468   -0.2821 H   0  0  0  0  0  0
   24.6963    4.5665    4.7850 H   0  0  0  0  0  0
   24.8814    6.1634    4.1887 H   0  0  0  0  0  0
   32.3131    5.4910   -1.1709 H   0  0  0  0  0  0
   31.9079    4.7852   -5.3957 H   0  0  0  0  0  0
   34.1306    3.8508   -1.0754 H   0  0  0  0  0  0
   33.7216    3.1259   -5.2968 H   0  0  0  0  0  0
   38.6938    7.4494   -3.1724 H   0  0  0  0  0  0
   38.7808    4.3908   -2.5386 H   0  0  0  0  0  0
   38.5341    5.3294   -3.9810 H   0  0  0  0  0  0
   35.3581    7.4051   -1.1329 H   0  0  0  0  0  0
   35.4003    5.1805    2.5199 H   0  0  0  0  0  0
   36.2680    3.5882   -1.6814 H   0  0  0  0  0  0
   37.2533    2.3556   -2.4150 H   0  0  0  0  0  0
   34.9680    1.5943   -2.4612 H   0  0  0  0  0  0
   35.4087    1.9797   -4.1035 H   0  0  0  0  0  0
   27.4839    4.7815    4.8224 H   0  0  0  0  0  0
   26.4722    5.0772    6.1871 H   0  0  0  0  0  0
   32.8150    7.7389    3.6381 H   0  0  0  0  0  0
   31.3595    7.8501    2.7042 H   0  0  0  0  0  0
   34.3771    6.9464    1.0872 H   0  0  0  0  0  0
   31.4765    6.6292    5.5201 H   0  0  0  0  0  0
   31.0073    8.2651    5.1723 H   0  0  0  0  0  0
   29.2224    7.2870    3.5951 H   0  0  0  0  0  0
   29.5315    5.7388    4.3218 H   0  0  0  0  0  0
   26.3888    7.4152    5.8475 H   0  0  0  0  0  0
   26.9297    7.3539    4.2186 H   0  0  0  0  0  0
   28.7769    6.6496    6.5514 H   0  0  0  0  0  0
   28.6449    8.2337    5.8471 H   0  0  0  0  0  0
   32.6204    5.8939    1.9350 H   0  0  0  0  0  0
   31.2045    5.2855    2.7687 H   0  0  0  0  0  0
   32.7725    5.2896    3.5854 H   0  0  0  0  0  0
  1  5  1  0  0  0
  1  6  1  0  0  0
  1  9  2  0  0  0
  1 10  2  0  0  0
  2  3  1  0  0  0
  2  4  1  0  0  0
  2 11  2  0  0  0
  3  8  1  0  0  0
  3  7  1  0  0  0
  4 24  1  0  0  0
  4 12  1  0  0  0
  5 19  1  0  0  0
  5 43  1  0  0  0
  6 15  2  0  0  0
  6 16  1  0  0  0
  7 12  1  0  0  0
  7 44  1  0  0  0
  7 45  1  0  0  0
  8 17  1  0  0  0
  8 18  2  0  0  0
 12 46  1  0  0  0
 12 47  1  0  0  0
 13 20  1  0  0  0
 13 23  1  0  0  0
 13 31  2  0  0  0
 14 23  2  0  0  0
 14 32  1  0  0  0
 15 18  1  0  0  0
 15 48  1  0  0  0
 16 17  2  0  0  0
 16 49  1  0  0  0
 17 50  1  0  0  0
 18 51  1  0  0  0
 19 25  1  0  0  0
 19 26  2  0  0  0
 20 30  1  0  0  0
 20 29  1  0  0  0
 20 52  1  0  0  0
 21 33  1  0  0  0
 21 30  1  0  0  0
 21 53  1  0  0  0
 22 28  2  0  0  0
 22 34  1  0  0  0
 22 27  1  0  0  0
 23 54  1  0  0  0
 24 35  1  0  0  0
 24 55  1  0  0  0
 24 56  1  0  0  0
 25 27  2  0  0  0
 25 57  1  0  0  0
 26 28  1  0  0  0
 26 58  1  0  0  0
 27 59  1  0  0  0
 28 60  1  0  0  0
 29 61  1  0  0  0
 30 62  1  0  0  0
 30 63  1  0  0  0
 31 37  1  0  0  0
 31 64  1  0  0  0
 32 37  2  0  0  0
 32 65  1  0  0  0
 33 34  1  0  0  0
 33 66  1  0  0  0
 33 67  1  0  0  0
 34 68  1  0  0  0
 34 69  1  0  0  0
 35 40  1  0  0  0
 35 70  1  0  0  0
 35 71  1  0  0  0
 36 38  1  0  0  0
 36 42  1  0  0  0
 36 72  1  0  0  0
 36 73  1  0  0  0
 37 74  1  0  0  0
 38 39  1  0  0  0
 38 75  1  0  0  0
 38 76  1  0  0  0
 39 41  1  0  0  0
 39 77  1  0  0  0
 39 78  1  0  0  0
 40 41  1  0  0  0
 40 79  1  0  0  0
 40 80  1  0  0  0
 41 81  1  0  0  0
 41 82  1  0  0  0
 42 83  1  0  0  0
 42 84  1  0  0  0
 42 85  1  0  0  0
M  END
> <s_m_entry_id>
3207

> <s_m_entry_name>
dock_pv.299

> <s_m_Source_Path>
/home/csk/Desktop/cluster/DUD-E-result/adrb1

> <s_m_Source_File>
dock_pv.maegz

> <i_m_Source_File_Index>
299

> <chembl_id>
CHEMBL84190

> <chembl_pref_name>
None

> <i_lp_mmshare_version>
53161

> <i_f3d_flags>
0

> <r_lp_tautomer_probability>
1

> <s_lp_Force_Field>
OPLS_2005

> <r_lp_Energy>
58.487104

> <b_lp_Chiralities_Consistent>
1

> <s_lp_Variant>
CHEMBL213_lig252-1

> <s_i_glide_gridfile>
glide-grid_2vt4

> <i_i_glide_lignum>
287

> <i_i_glide_rotatable_bonds>
18

> <r_i_docking_score>
-7.24582735968623

> <r_i_glide_ligand_efficiency>
-0.172519699040148

> <r_i_glide_ligand_efficiency_sa>
-0.599683069884207

> <r_i_glide_ligand_efficiency_ln>
-1.52940748162842

> <r_i_glide_gscore>
-7.24582735968623

> <r_i_glide_lipo>
-3.12767777266307

> <r_i_glide_hbond>
-0.0375646398437379

> <r_i_glide_metal>
0

> <r_i_glide_rewards>
-1.71548283865785

> <r_i_glide_evdw>
-51.9427337646484

> <r_i_glide_ecoul>
-3.41854596138

> <r_i_glide_erotb>
0.780542119661801

> <r_i_glide_esite>
-0.0357256457439403

> <r_i_glide_emodel>
-70.5081091418767

> <r_i_glide_energy>
-55.3612797260284

> <r_i_glide_einternal>
15.9554386138916

> <i_i_glide_confnum>
15

> <i_i_glide_posenum>
308

> <r_i_glide_eff_state_penalty>
0

> <s_user_duplicate_titles>
CHEMBL213_lig252,131403

> <s_m_subgroup_title>
dock_pv

> <s_m_subgroupid>
dock_pv

> <b_m_subgroup_collapsed>
1

$$$$
CHEMBL213_lig228
                    3D
 Schrodinger Suite 2021-1.
 75 78  0  0  1  0            999 V2000
   33.7037    3.9575   -5.6875 S   0  0  0  0  0  0
   32.0653    3.3701   -5.3083 N   0  0  0  0  0  0
   36.4706    6.0691    0.2885 C   0  0  0  0  0  0
   34.5267    4.2227   -4.1114 C   0  0  0  0  0  0
   34.3831    2.8373   -6.3473 O   0  0  0  0  0  0
   33.5836    5.2462   -6.3728 O   0  0  0  0  0  0
   36.5249    4.9177   -0.4880 N   0  0  0  0  0  0
   35.8349    7.0922    0.0314 O   0  0  0  0  0  0
   37.2374    5.9134    1.3902 O   0  0  0  0  0  0
   35.7813    3.6551   -3.8677 C   0  0  0  0  0  0
   33.9185    5.0095   -3.1337 C   0  0  0  0  0  0
   30.9792    4.1459   -4.8675 C   0  0  0  0  0  0
   35.8277    4.6939   -1.6864 C   0  0  0  0  0  0
   27.0819    4.4809    1.5727 O   0  0  0  0  0  0
   26.6402    5.0285    2.7542 C   0  0  0  0  0  0
   25.3491    4.0846   -0.1537 C   0  0  1  0  0  0
   25.9094    6.1581    5.1786 C   0  0  0  0  0  0
   26.3057    3.4909    0.8850 C   0  0  0  0  0  0
   37.3732    6.9631    2.3540 C   0  0  0  0  0  0
   36.4272    3.8858   -2.6545 C   0  0  0  0  0  0
   34.5580    5.2372   -1.9224 C   0  0  0  0  0  0
   27.0077    5.3464   -1.5033 N   0  0  2  0  0  0
   28.7249    5.5668   -4.0156 C   0  0  0  0  0  0
   29.8424    3.4659   -4.4260 C   0  0  0  0  0  0
   30.9757    5.5454   -4.8664 C   0  0  0  0  0  0
   27.5359    5.8498    3.4420 C   0  0  0  0  0  0
   25.3720    4.7827    3.2905 C   0  0  0  0  0  0
   27.1745    6.4180    4.6614 C   0  0  0  0  0  0
   25.0082    5.3644    4.4923 C   0  0  0  0  0  0
   28.7137    4.1711   -4.0147 C   0  0  0  0  0  0
   29.8678    6.2509   -4.4176 C   0  0  0  0  0  0
   36.3632    6.8283    3.4922 C   0  0  0  0  0  0
   24.0439    4.1741    0.3850 O   0  0  0  0  0  0
   25.5253    6.6500    6.3850 O   0  0  0  0  0  0
   25.7935    5.4579   -0.7003 C   0  0  0  0  0  0
   27.2621    6.6062   -2.1827 C   0  0  0  0  0  0
   27.4695    6.3544   -3.6787 C   0  0  0  0  0  0
   36.8233    6.6504    4.8011 C   0  0  0  0  0  0
   34.9884    6.8866    3.2416 C   0  0  0  0  0  0
   34.0809    6.7289    4.2853 C   0  0  0  0  0  0
   35.9146    6.5034    5.8468 C   0  0  0  0  0  0
   34.5476    6.5325    5.5816 C   0  0  0  0  0  0
   31.9621    2.3692   -5.2700 H   0  0  0  0  0  0
   37.2053    4.2212   -0.2180 H   0  0  0  0  0  0
   36.2666    3.0483   -4.6189 H   0  0  0  0  0  0
   32.9505    5.4491   -3.2935 H   0  0  0  0  0  0
   25.2774    3.3766   -0.9805 H   0  0  0  0  0  0
   27.0080    2.8822    0.3235 H   0  0  0  0  0  0
   25.8076    2.7862    1.5551 H   0  0  0  0  0  0
   38.3806    6.9028    2.7640 H   0  0  0  0  0  0
   37.2882    7.9538    1.9021 H   0  0  0  0  0  0
   37.4015    3.4521   -2.4809 H   0  0  0  0  0  0
   34.0614    5.8404   -1.1791 H   0  0  0  0  0  0
   26.8254    4.6503   -2.2183 H   0  0  0  0  0  0
   29.8142    2.3853   -4.4161 H   0  0  0  0  0  0
   31.8085    6.1296   -5.2142 H   0  0  0  0  0  0
   28.5178    6.0333    3.0312 H   0  0  0  0  0  0
   24.6524    4.1504    2.7993 H   0  0  0  0  0  0
   27.8716    7.0418    5.2002 H   0  0  0  0  0  0
   24.0322    5.1656    4.9099 H   0  0  0  0  0  0
   27.8304    3.6251   -3.7135 H   0  0  0  0  0  0
   29.8827    7.3313   -4.4415 H   0  0  0  0  0  0
   23.4217    3.9859   -0.3347 H   0  0  0  0  0  0
   26.1043    7.3490    6.7268 H   0  0  0  0  0  0
   24.9911    5.8505   -1.3223 H   0  0  0  0  0  0
   25.9594    6.1693    0.1087 H   0  0  0  0  0  0
   26.4457    7.3193   -2.0681 H   0  0  0  0  0  0
   28.1539    7.0489   -1.7375 H   0  0  0  0  0  0
   26.6033    5.8468   -4.1056 H   0  0  0  0  0  0
   27.4976    7.3151   -4.1962 H   0  0  0  0  0  0
   37.8831    6.6114    5.0082 H   0  0  0  0  0  0
   34.6088    7.0496    2.2431 H   0  0  0  0  0  0
   33.0180    6.7631    4.0905 H   0  0  0  0  0  0
   36.2660    6.3463    6.8568 H   0  0  0  0  0  0
   33.8397    6.4022    6.3848 H   0  0  0  0  0  0
  1  2  1  0  0  0
  1  4  1  0  0  0
  1  5  2  0  0  0
  1  6  2  0  0  0
  2 12  1  0  0  0
  2 43  1  0  0  0
  3  7  1  0  0  0
  3  8  2  0  0  0
  3  9  1  0  0  0
  4 10  2  0  0  0
  4 11  1  0  0  0
  7 13  1  0  0  0
  7 44  1  0  0  0
  9 19  1  0  0  0
 10 20  1  0  0  0
 10 45  1  0  0  0
 11 21  2  0  0  0
 11 46  1  0  0  0
 12 24  1  0  0  0
 12 25  2  0  0  0
 13 21  1  0  0  0
 13 20  2  0  0  0
 14 18  1  0  0  0
 14 15  1  0  0  0
 15 26  2  0  0  0
 15 27  1  0  0  0
 16 35  1  0  0  0
 16 18  1  0  0  0
 16 33  1  0  0  0
 16 47  1  0  0  0
 17 29  1  0  0  0
 17 34  1  0  0  0
 17 28  2  0  0  0
 18 48  1  0  0  0
 18 49  1  0  0  0
 19 32  1  0  0  0
 19 50  1  0  0  0
 19 51  1  0  0  0
 20 52  1  0  0  0
 21 53  1  0  0  0
 22 36  1  0  0  0
 22 35  1  0  0  0
 22 54  1  0  0  0
 23 31  2  0  0  0
 23 37  1  0  0  0
 23 30  1  0  0  0
 24 30  2  0  0  0
 24 55  1  0  0  0
 25 31  1  0  0  0
 25 56  1  0  0  0
 26 28  1  0  0  0
 26 57  1  0  0  0
 27 29  2  0  0  0
 27 58  1  0  0  0
 28 59  1  0  0  0
 29 60  1  0  0  0
 30 61  1  0  0  0
 31 62  1  0  0  0
 32 38  2  0  0  0
 32 39  1  0  0  0
 33 63  1  0  0  0
 34 64  1  0  0  0
 35 65  1  0  0  0
 35 66  1  0  0  0
 36 37  1  0  0  0
 36 67  1  0  0  0
 36 68  1  0  0  0
 37 69  1  0  0  0
 37 70  1  0  0  0
 38 41  1  0  0  0
 38 71  1  0  0  0
 39 40  2  0  0  0
 39 72  1  0  0  0
 40 42  1  0  0  0
 40 73  1  0  0  0
 41 42  2  0  0  0
 41 74  1  0  0  0
 42 75  1  0  0  0
M  END
> <s_m_entry_id>
3208

> <s_m_entry_name>
dock_pv.300

> <s_m_Source_Path>
/home/csk/Desktop/cluster/DUD-E-result/adrb1

> <s_m_Source_File>
dock_pv.maegz

> <i_m_Source_File_Index>
300

> <chembl_id>
CHEMBL13132

> <chembl_pref_name>
None

> <i_lp_mmshare_version>
53161

> <i_f3d_flags>
0

> <r_lp_tautomer_probability>
1

> <s_lp_Force_Field>
OPLS_2005

> <r_lp_Energy>
38.670064

> <b_lp_Chiralities_Consistent>
1

> <s_lp_Variant>
CHEMBL213_lig228-1

> <s_i_glide_gridfile>
glide-grid_2vt4

> <i_i_glide_lignum>
263

> <i_i_glide_rotatable_bonds>
18

> <r_i_docking_score>
-7.23517132151702

> <r_i_glide_ligand_efficiency>
-0.172265983845643

> <r_i_glide_ligand_efficiency_sa>
-0.598801149108995

> <r_i_glide_ligand_efficiency_ln>
-1.52715826650204

> <r_i_glide_gscore>
-7.23517132151702

> <r_i_glide_lipo>
-3.39277941872798

> <r_i_glide_hbond>
-0.317255889789

> <r_i_glide_metal>
0

> <r_i_glide_rewards>
0.636199048579741

> <r_i_glide_evdw>
-59.7960433959961

> <r_i_glide_ecoul>
-12.7823352813721

> <r_i_glide_erotb>
0.788224402961506

> <r_i_glide_esite>
-0.0424070025356735

> <r_i_glide_emodel>
-94.0441445635221

> <r_i_glide_energy>
-72.5783786773682

> <r_i_glide_einternal>
17.017557144165

> <i_i_glide_confnum>
82

> <i_i_glide_posenum>
45

> <r_i_glide_eff_state_penalty>
0

> <s_user_duplicate_titles>
CHEMBL213_lig228,11886

> <s_m_subgroup_title>
dock_pv

> <s_m_subgroupid>
dock_pv

> <b_m_subgroup_collapsed>
1

$$$$
CHEMBL213_lig1215 
                    3D
 Schrodinger Suite 2021-1.
 48 50  0  0  1  0            999 V2000
   23.7867    4.2500    3.5570 C   0  0  0  0  0  0
   24.6084    5.0219    4.3812 C   0  0  0  0  0  0
   25.5145    4.1413    1.8472 C   0  0  0  0  0  0
   24.2186    3.8495    2.2997 C   0  0  0  0  0  0
   26.3814    4.8376    2.7213 C   0  0  0  0  0  0
   25.9178    5.3054    3.9730 C   0  0  0  0  0  0
   26.8112    5.9933    4.8313 N   0  0  0  0  0  0
   28.1344    6.1802    4.6416 C   0  0  0  0  0  0
   28.6077    5.7109    3.3524 C   0  0  0  0  0  0
   27.8185    5.0829    2.4507 C   0  0  0  0  0  0
   28.8451    6.6699    5.5132 O   0  0  0  0  0  0
   24.0995    5.4503    5.5851 O   0  0  0  0  0  0
   25.9504    3.6431    0.4508 C   0  0  2  0  0  0
   25.9913    4.7152   -0.6666 C   0  0  0  0  0  0
   25.1312    2.5970   -0.0502 O   0  0  0  0  0  0
   26.9985    5.7506   -0.4478 N   0  0  1  0  0  0
   27.1468    6.6500   -1.5881 C   0  0  0  0  0  0
   27.7425    6.0110   -2.8623 C   0  0  0  0  0  0
   29.0535    5.2208   -2.6594 C   0  0  0  0  0  0
   29.4826    4.4454   -3.8986 C   0  0  0  0  0  0
   28.6480    3.4502   -4.4151 C   0  0  0  0  0  0
   29.0478    2.6847   -5.5106 C   0  0  0  0  0  0
   30.2866    2.9200   -6.1065 C   0  0  0  0  0  0
   31.1181    3.9275   -5.6110 C   0  0  0  0  0  0
   30.7166    4.6892   -4.5106 C   0  0  0  0  0  0
   28.2080    1.7296   -6.0127 O   0  0  0  0  0  0
   22.7777    4.0180    3.8702 H   0  0  0  0  0  0
   23.5235    3.3014    1.6794 H   0  0  0  0  0  0
   26.5109    6.3155    5.7356 H   0  0  0  0  0  0
   29.6540    5.8656    3.1336 H   0  0  0  0  0  0
   28.2670    4.7489    1.5266 H   0  0  0  0  0  0
   24.4592    6.2815    5.9032 H   0  0  0  0  0  0
   26.9378    3.1914    0.5292 H   0  0  0  0  0  0
   25.0085    5.1772   -0.7797 H   0  0  0  0  0  0
   26.2282    4.2009   -1.5988 H   0  0  0  0  0  0
   24.4770    2.9769   -0.6546 H   0  0  0  0  0  0
   26.7498    6.2950    0.3665 H   0  0  0  0  0  0
   27.8074    7.4548   -1.2652 H   0  0  0  0  0  0
   26.1745    7.0901   -1.8129 H   0  0  0  0  0  0
   27.9098    6.7984   -3.5986 H   0  0  0  0  0  0
   26.9917    5.3677   -3.3142 H   0  0  0  0  0  0
   28.9328    4.4922   -1.8553 H   0  0  0  0  0  0
   29.8490    5.8925   -2.3349 H   0  0  0  0  0  0
   27.6934    3.2508   -3.9495 H   0  0  0  0  0  0
   30.5970    2.3337   -6.9596 H   0  0  0  0  0  0
   32.0738    4.1174   -6.0764 H   0  0  0  0  0  0
   31.3703    5.4616   -4.1338 H   0  0  0  0  0  0
   27.3314    1.7817   -5.6109 H   0  0  0  0  0  0
  1  2  2  0  0  0
  1  4  1  0  0  0
  1 27  1  0  0  0
  2  6  1  0  0  0
  2 12  1  0  0  0
  3  5  1  0  0  0
  3  4  2  0  0  0
  3 13  1  0  0  0
  4 28  1  0  0  0
  5  6  2  0  0  0
  5 10  1  0  0  0
  6  7  1  0  0  0
  7  8  1  0  0  0
  7 29  1  0  0  0
  8  9  1  0  0  0
  8 11  2  0  0  0
  9 10  2  0  0  0
  9 30  1  0  0  0
 10 31  1  0  0  0
 12 32  1  0  0  0
 13 14  1  0  0  0
 13 15  1  0  0  0
 13 33  1  0  0  0
 14 16  1  0  0  0
 14 34  1  0  0  0
 14 35  1  0  0  0
 15 36  1  0  0  0
 16 17  1  0  0  0
 16 37  1  0  0  0
 17 18  1  0  0  0
 17 38  1  0  0  0
 17 39  1  0  0  0
 18 19  1  0  0  0
 18 40  1  0  0  0
 18 41  1  0  0  0
 19 20  1  0  0  0
 19 42  1  0  0  0
 19 43  1  0  0  0
 20 21  2  0  0  0
 20 25  1  0  0  0
 21 22  1  0  0  0
 21 44  1  0  0  0
 22 23  2  0  0  0
 22 26  1  0  0  0
 23 24  1  0  0  0
 23 45  1  0  0  0
 24 25  2  0  0  0
 24 46  1  0  0  0
 25 47  1  0  0  0
 26 48  1  0  0  0
M  END
> <s_m_entry_id>
3209

> <s_m_entry_name>
dock_pv.301

> <s_m_Source_Path>
/home/csk/Desktop/cluster/DUD-E-result/adrb1

> <s_m_Source_File>
dock_pv.maegz

> <i_m_Source_File_Index>
301

> <chembl_id>
CHEMBL4473515

> <chembl_pref_name>
None

> <i_lp_mmshare_version>
53161

> <i_f3d_flags>
0

> <r_lp_tautomer_probability>
0.999999999997365

> <s_lp_Force_Field>
OPLS_2005

> <r_lp_Energy>
28.519261

> <b_lp_Chiralities_Consistent>
1

> <s_lp_Variant>
CHEMBL213_lig1215 -1

> <s_i_glide_gridfile>
glide-grid_2vt4

> <i_i_glide_lignum>
1441

> <i_i_glide_rotatable_bonds>
10

> <r_i_docking_score>
-7.23341074656013

> <r_i_glide_ligand_efficiency>
-0.278208105636928

> <r_i_glide_ligand_efficiency_sa>
-0.824190418253365

> <r_i_glide_ligand_efficiency_ln>
-1.69874277907309

> <r_i_glide_gscore>
-7.23341074656013

> <r_i_glide_lipo>
-2.61788729829766

> <r_i_glide_hbond>
-0.680602042357258

> <r_i_glide_metal>
0

> <r_i_glide_rewards>
-1.70867169859091

> <r_i_glide_evdw>
-35.6788520812988

> <r_i_glide_ecoul>
-10.0484390258789

> <r_i_glide_erotb>
1.06495875063248

> <r_i_glide_esite>
0

> <r_i_glide_emodel>
-65.9715530014949

> <r_i_glide_energy>
-45.7272911071777

> <r_i_glide_einternal>
3.30476403236389

> <i_i_glide_confnum>
226

> <i_i_glide_posenum>
265

> <r_i_glide_eff_state_penalty>
0

> <s_user_duplicate_titles>
CHEMBL213_lig1215 

> <s_m_subgroup_title>
dock_pv

> <s_m_subgroupid>
dock_pv

> <b_m_subgroup_collapsed>
1

$$$$
CHEMBL213_lig781
                    3D
 Schrodinger Suite 2021-1.
 81 82  0  0  1  0            999 V2000
   26.2345    4.5239    1.0052 C   0  0  0  0  0  0
   25.1261    3.7205    1.3017 C   0  0  0  0  0  0
   24.5420    3.7890    2.5651 C   0  0  0  0  0  0
   25.0479    4.6500    3.5369 C   0  0  0  0  0  0
   26.1565    5.4645    3.2684 C   0  0  0  0  0  0
   26.7292    5.3934    1.9866 C   0  0  0  0  0  0
   24.5851    2.8541    0.3846 O   0  0  0  0  0  0
   26.9208    4.4685   -0.3566 C   0  0  0  0  0  0
   26.5016    5.5053   -1.2148 O   0  0  0  0  0  0
   26.6807    6.4773    4.3094 C   0  0  2  0  0  0
   28.1381    6.2706    4.8102 C   0  0  0  0  0  0
   25.8624    6.6042    5.4672 O   0  0  0  0  0  0
   29.1225    6.2502    3.7302 N   0  0  1  0  0  0
   30.4426    6.7264    4.1229 C   0  0  0  0  0  0
   31.4344    6.3998    2.9913 C   0  0  0  0  0  0
   32.8799    6.8446    3.2795 C   0  0  0  0  0  0
   33.8920    6.1744    2.3334 C   0  0  0  0  0  0
   35.2784    6.8456    2.3070 C   0  0  0  0  0  0
   36.3110    6.0612    1.4789 C   0  0  0  0  0  0
   35.7650    5.7732    0.2020 O   0  0  0  0  0  0
   36.5709    4.9353   -0.6148 C   0  0  0  0  0  0
   35.6401    4.3132   -1.6603 C   0  0  0  0  0  0
   36.3677    3.4029   -2.6675 C   0  0  0  0  0  0
   35.4180    2.5823   -3.5598 C   0  0  0  0  0  0
   34.4203    3.4339   -4.3319 C   0  0  0  0  0  0
   34.8226    4.1290   -5.4779 C   0  0  0  0  0  0
   33.9097    4.9296   -6.1647 C   0  0  0  0  0  0
   32.5998    5.0499   -5.7080 C   0  0  0  0  0  0
   32.1905    4.3517   -4.5684 C   0  0  0  0  0  0
   33.0993    3.5423   -3.8849 C   0  0  0  0  0  0
   30.5123    4.4868   -3.9764 S   0  0  0  0  0  0
   29.8069    2.8981   -4.2563 N   0  0  2  0  0  0
   29.8084    5.4603   -4.8146 O   0  0  0  0  0  0
   30.5952    4.6727   -2.5235 O   0  0  0  0  0  0
   29.2549    2.4892   -5.5691 C   0  0  0  0  0  0
   28.8909    0.9964   -5.5343 C   0  0  0  0  0  0
   30.2337    2.7769   -6.7213 C   0  0  0  0  0  0
   23.6813    3.1731    2.7852 H   0  0  0  0  0  0
   24.5567    4.6876    4.4987 H   0  0  0  0  0  0
   27.5575    6.0382    1.7319 H   0  0  0  0  0  0
   24.4108    3.2431   -0.4838 H   0  0  0  0  0  0
   28.0010    4.5495   -0.2238 H   0  0  0  0  0  0
   26.7561    3.5085   -0.8452 H   0  0  0  0  0  0
   26.0012    5.1175   -1.9486 H   0  0  0  0  0  0
   26.6080    7.4501    3.8303 H   0  0  0  0  0  0
   28.2075    5.3306    5.3601 H   0  0  0  0  0  0
   28.3849    7.0716    5.5106 H   0  0  0  0  0  0
   26.2094    7.3076    6.0286 H   0  0  0  0  0  0
   29.2314    5.3013    3.3929 H   0  0  0  0  0  0
   30.7765    6.2502    5.0461 H   0  0  0  0  0  0
   30.4152    7.8027    4.3020 H   0  0  0  0  0  0
   31.1092    6.8780    2.0660 H   0  0  0  0  0  0
   31.4193    5.3267    2.7922 H   0  0  0  0  0  0
   33.1502    6.6103    4.3111 H   0  0  0  0  0  0
   32.9398    7.9292    3.1845 H   0  0  0  0  0  0
   33.4855    6.1792    1.3188 H   0  0  0  0  0  0
   34.0020    5.1270    2.6103 H   0  0  0  0  0  0
   35.6541    6.9677    3.3227 H   0  0  0  0  0  0
   35.1782    7.8494    1.8971 H   0  0  0  0  0  0
   36.5512    5.1291    1.9900 H   0  0  0  0  0  0
   37.2366    6.6304    1.3791 H   0  0  0  0  0  0
   37.0429    4.1395   -0.0346 H   0  0  0  0  0  0
   37.3625    5.5246   -1.0824 H   0  0  0  0  0  0
   35.1233    5.1118   -2.1944 H   0  0  0  0  0  0
   34.8715    3.7404   -1.1398 H   0  0  0  0  0  0
   37.0080    2.7056   -2.1278 H   0  0  0  0  0  0
   37.0352    4.0045   -3.2883 H   0  0  0  0  0  0
   34.8830    1.8556   -2.9456 H   0  0  0  0  0  0
   35.9991    1.9868   -4.2664 H   0  0  0  0  0  0
   35.8432    4.0632   -5.8281 H   0  0  0  0  0  0
   34.2293    5.4824   -7.0361 H   0  0  0  0  0  0
   31.9138    5.7006   -6.2306 H   0  0  0  0  0  0
   32.7828    3.0132   -2.9975 H   0  0  0  0  0  0
   29.4285    2.4173   -3.4321 H   0  0  0  0  0  0
   28.3302    3.0499   -5.7204 H   0  0  0  0  0  0
   28.5213    0.6560   -6.5004 H   0  0  0  0  0  0
   28.0980    0.8048   -4.8142 H   0  0  0  0  0  0
   29.7471    0.3756   -5.2690 H   0  0  0  0  0  0
   29.8328    2.4384   -7.6785 H   0  0  0  0  0  0
   30.4269    3.8451   -6.8149 H   0  0  0  0  0  0
   31.1933    2.2784   -6.5674 H   0  0  0  0  0  0
  1  6  1  0  0  0
  1  2  2  0  0  0
  1  8  1  0  0  0
  2  7  1  0  0  0
  2  3  1  0  0  0
  3  4  2  0  0  0
  3 38  1  0  0  0
  4  5  1  0  0  0
  4 39  1  0  0  0
  5 10  1  0  0  0
  5  6  2  0  0  0
  6 40  1  0  0  0
  7 41  1  0  0  0
  8  9  1  0  0  0
  8 42  1  0  0  0
  8 43  1  0  0  0
  9 44  1  0  0  0
 10 11  1  0  0  0
 10 12  1  0  0  0
 10 45  1  0  0  0
 11 13  1  0  0  0
 11 46  1  0  0  0
 11 47  1  0  0  0
 12 48  1  0  0  0
 13 14  1  0  0  0
 13 49  1  0  0  0
 14 15  1  0  0  0
 14 50  1  0  0  0
 14 51  1  0  0  0
 15 16  1  0  0  0
 15 52  1  0  0  0
 15 53  1  0  0  0
 16 17  1  0  0  0
 16 54  1  0  0  0
 16 55  1  0  0  0
 17 18  1  0  0  0
 17 56  1  0  0  0
 17 57  1  0  0  0
 18 19  1  0  0  0
 18 58  1  0  0  0
 18 59  1  0  0  0
 19 20  1  0  0  0
 19 60  1  0  0  0
 19 61  1  0  0  0
 20 21  1  0  0  0
 21 22  1  0  0  0
 21 62  1  0  0  0
 21 63  1  0  0  0
 22 23  1  0  0  0
 22 64  1  0  0  0
 22 65  1  0  0  0
 23 24  1  0  0  0
 23 66  1  0  0  0
 23 67  1  0  0  0
 24 25  1  0  0  0
 24 68  1  0  0  0
 24 69  1  0  0  0
 25 26  2  0  0  0
 25 30  1  0  0  0
 26 27  1  0  0  0
 26 70  1  0  0  0
 27 28  2  0  0  0
 27 71  1  0  0  0
 28 29  1  0  0  0
 28 72  1  0  0  0
 29 30  2  0  0  0
 29 31  1  0  0  0
 30 73  1  0  0  0
 31 32  1  0  0  0
 31 33  2  0  0  0
 31 34  2  0  0  0
 32 35  1  0  0  0
 32 74  1  0  0  0
 35 36  1  0  0  0
 35 37  1  0  0  0
 35 75  1  0  0  0
 36 76  1  0  0  0
 36 77  1  0  0  0
 36 78  1  0  0  0
 37 79  1  0  0  0
 37 80  1  0  0  0
 37 81  1  0  0  0
M  END
> <s_m_entry_id>
3210

> <s_m_entry_name>
dock_pv.302

> <s_m_Source_Path>
/home/csk/Desktop/cluster/DUD-E-result/adrb1

> <s_m_Source_File>
dock_pv.maegz

> <i_m_Source_File_Index>
302

> <chembl_id>
CHEMBL514032

> <chembl_pref_name>
None

> <i_lp_mmshare_version>
53161

> <i_f3d_flags>
0

> <r_lp_tautomer_probability>
0.999999999997365

> <s_lp_Force_Field>
OPLS_2005

> <r_lp_Energy>
20.576502

> <b_lp_Chiralities_Consistent>
1

> <s_lp_Variant>
CHEMBL213_lig781-1

> <s_i_glide_gridfile>
glide-grid_2vt4

> <i_i_glide_lignum>
889

> <i_i_glide_rotatable_bonds>
22

> <r_i_docking_score>
-7.23317169749302

> <r_i_glide_ligand_efficiency>
-0.195491126959271

> <r_i_glide_ligand_efficiency_sa>
-0.651419804272501

> <r_i_glide_ligand_efficiency_ln>
-1.56870537158295

> <r_i_glide_gscore>
-7.23317169749302

> <r_i_glide_lipo>
-3.28441882552204

> <r_i_glide_hbond>
-0.751801229681129

> <r_i_glide_metal>
0

> <r_i_glide_rewards>
-0.160937922506701

> <r_i_glide_evdw>
-57.4505996704102

> <r_i_glide_ecoul>
-9.48749160766602

> <r_i_glide_erotb>
1.29043228675099

> <r_i_glide_esite>
-0.0307922818637322

> <r_i_glide_emodel>
-89.8051734483642

> <r_i_glide_energy>
-66.9380912780762

> <r_i_glide_einternal>
12.3447942733765

> <i_i_glide_confnum>
48

> <i_i_glide_posenum>
236

> <r_i_glide_eff_state_penalty>
0

> <s_user_duplicate_titles>
CHEMBL213_lig781

> <s_m_subgroup_title>
dock_pv

> <s_m_subgroupid>
dock_pv

> <b_m_subgroup_collapsed>
1

$$$$
CHEMBL213_lig924
                    3D
 Schrodinger Suite 2021-1.
 65 68  0  0  1  0            999 V2000
   29.6287    4.9219    2.4920 C   0  0  0  0  0  0
   30.9791    5.4576    1.9847 C   0  0  0  0  0  0
   31.8859    5.8500    2.9090 N   0  0  0  0  0  0
   31.1670    5.4498    0.7710 O   0  0  0  0  0  0
   33.2421    6.2021    2.7474 C   0  0  0  0  0  0
   33.8831    6.2499    1.5056 C   0  0  0  0  0  0
   35.2042    6.6448    1.4121 C   0  0  0  0  0  0
   35.9588    6.8720    2.5564 C   0  0  0  0  0  0
   35.3388    6.8068    3.8093 C   0  0  0  0  0  0
   33.9807    6.4881    3.9011 C   0  0  0  0  0  0
   37.4556    7.1374    2.4087 C   0  0  0  0  0  0
   38.1938    6.0329    1.6104 C   0  0  0  0  0  0
   38.0585    6.1814    0.1587 N   0  0  2  0  0  0
   38.0199    4.8929   -0.5419 C   0  0  0  0  0  0
   36.5780    4.3233   -0.6854 C   0  0  1  0  0  0
   35.7707    5.0059   -1.8146 C   0  0  0  0  0  0
   36.6080    2.9304   -0.9578 O   0  0  0  0  0  0
   34.3790    4.7325   -1.6372 O   0  0  0  0  0  0
   33.5073    4.7748   -2.7085 C   0  0  0  0  0  0
   32.1678    4.5181   -2.4141 C   0  0  0  0  0  0
   31.2022    4.5271   -3.4165 C   0  0  0  0  0  0
   31.5781    4.7929   -4.7292 C   0  0  0  0  0  0
   32.9100    5.0497   -5.0434 C   0  0  0  0  0  0
   33.8733    5.0502   -4.0354 C   0  0  0  0  0  0
   28.7545    5.8217    3.3731 C   0  0  0  0  0  0
   27.3622    5.7905    3.3571 N   0  0  0  0  0  0
   27.0017    6.6262    4.3875 C   0  0  0  0  0  0
   28.1776    7.1176    4.9208 C   0  0  0  0  0  0
   29.2313    6.6342    4.2971 N   0  0  0  0  0  0
   26.4713    5.0504    2.5393 C   0  0  0  0  0  0
   25.4079    4.3556    3.1299 C   0  0  0  0  0  0
   24.5318    3.6119    2.3420 C   0  0  0  0  0  0
   24.7179    3.5591    0.9637 C   0  0  0  0  0  0
   25.7616    4.2567    0.3629 C   0  0  0  0  0  0
   26.6232    5.0239    1.1459 C   0  0  0  0  0  0
   29.8062    3.9722    2.9942 H   0  0  0  0  0  0
   29.0926    4.6500    1.5918 H   0  0  0  0  0  0
   31.5854    5.7391    3.8677 H   0  0  0  0  0  0
   33.3782    6.0528    0.5752 H   0  0  0  0  0  0
   35.6375    6.7411    0.4310 H   0  0  0  0  0  0
   35.9030    6.9941    4.7107 H   0  0  0  0  0  0
   33.5115    6.4464    4.8740 H   0  0  0  0  0  0
   37.6126    8.1176    1.9547 H   0  0  0  0  0  0
   37.9008    7.1987    3.4027 H   0  0  0  0  0  0
   39.2424    5.9597    1.9031 H   0  0  0  0  0  0
   37.7504    5.0794    1.9006 H   0  0  0  0  0  0
   38.8297    6.7217   -0.2106 H   0  0  0  0  0  0
   38.4507    5.0171   -1.5372 H   0  0  0  0  0  0
   38.6755    4.2021   -0.0137 H   0  0  0  0  0  0
   36.0529    4.4085    0.2647 H   0  0  0  0  0  0
   35.9085    6.0872   -1.7928 H   0  0  0  0  0  0
   36.1678    4.6613   -2.7698 H   0  0  0  0  0  0
   37.5287    2.6665   -1.1639 H   0  0  0  0  0  0
   31.8787    4.3095   -1.3965 H   0  0  0  0  0  0
   30.1679    4.3264   -3.1769 H   0  0  0  0  0  0
   30.8298    4.8058   -5.5080 H   0  0  0  0  0  0
   33.1963    5.2669   -6.0622 H   0  0  0  0  0  0
   34.8911    5.2760   -4.3142 H   0  0  0  0  0  0
   25.9637    6.7994    4.6325 H   0  0  0  0  0  0
   28.2644    7.8191    5.7392 H   0  0  0  0  0  0
   25.2566    4.3856    4.1973 H   0  0  0  0  0  0
   23.7098    3.0765    2.7918 H   0  0  0  0  0  0
   24.0359    2.9896    0.3477 H   0  0  0  0  0  0
   25.8781    4.2300   -0.7127 H   0  0  0  0  0  0
   27.3972    5.5966    0.6560 H   0  0  0  0  0  0
  1  2  1  0  0  0
  1 25  1  0  0  0
  1 36  1  0  0  0
  1 37  1  0  0  0
  2  4  2  0  0  0
  2  3  1  0  0  0
  3  5  1  0  0  0
  3 38  1  0  0  0
  5 10  1  0  0  0
  5  6  2  0  0  0
  6  7  1  0  0  0
  6 39  1  0  0  0
  7  8  2  0  0  0
  7 40  1  0  0  0
  8  9  1  0  0  0
  8 11  1  0  0  0
  9 10  2  0  0  0
  9 41  1  0  0  0
 10 42  1  0  0  0
 11 12  1  0  0  0
 11 43  1  0  0  0
 11 44  1  0  0  0
 12 13  1  0  0  0
 12 45  1  0  0  0
 12 46  1  0  0  0
 13 14  1  0  0  0
 13 47  1  0  0  0
 14 15  1  0  0  0
 14 48  1  0  0  0
 14 49  1  0  0  0
 15 17  1  0  0  0
 15 16  1  0  0  0
 15 50  1  0  0  0
 16 18  1  0  0  0
 16 51  1  0  0  0
 16 52  1  0  0  0
 17 53  1  0  0  0
 18 19  1  0  0  0
 19 20  2  0  0  0
 19 24  1  0  0  0
 20 21  1  0  0  0
 20 54  1  0  0  0
 21 22  2  0  0  0
 21 55  1  0  0  0
 22 23  1  0  0  0
 22 56  1  0  0  0
 23 24  2  0  0  0
 23 57  1  0  0  0
 24 58  1  0  0  0
 25 26  1  0  0  0
 25 29  2  0  0  0
 26 27  1  0  0  0
 26 30  1  0  0  0
 27 28  2  0  0  0
 27 59  1  0  0  0
 28 29  1  0  0  0
 28 60  1  0  0  0
 30 31  2  0  0  0
 30 35  1  0  0  0
 31 32  1  0  0  0
 31 61  1  0  0  0
 32 33  2  0  0  0
 32 62  1  0  0  0
 33 34  1  0  0  0
 33 63  1  0  0  0
 34 35  2  0  0  0
 34 64  1  0  0  0
 35 65  1  0  0  0
M  END
> <s_m_entry_id>
3211

> <s_m_entry_name>
dock_pv.303

> <s_m_Source_Path>
/home/csk/Desktop/cluster/DUD-E-result/adrb1

> <s_m_Source_File>
dock_pv.maegz

> <i_m_Source_File_Index>
303

> <chembl_id>
CHEMBL467082

> <chembl_pref_name>
None

> <i_lp_mmshare_version>
53161

> <i_f3d_flags>
0

> <r_lp_tautomer_probability>
1

> <s_lp_Force_Field>
OPLS_2005

> <r_lp_Energy>
43.274576

> <b_lp_Chiralities_Consistent>
1

> <s_lp_Variant>
CHEMBL213_lig924-1

> <s_i_glide_gridfile>
glide-grid_2vt4

> <i_i_glide_lignum>
1032

> <i_i_glide_rotatable_bonds>
14

> <r_i_docking_score>
-7.23061349844147

> <r_i_glide_ligand_efficiency>
-0.206588957098328

> <r_i_glide_ligand_efficiency_sa>
-0.675766176820475

> <r_i_glide_ligand_efficiency_ln>
-1.58728013772835

> <r_i_glide_gscore>
-7.23061349844147

> <r_i_glide_lipo>
-2.61879428497762

> <r_i_glide_hbond>
-0.141982509278489

> <r_i_glide_metal>
0

> <r_i_glide_rewards>
-1.82848666176142

> <r_i_glide_evdw>
-46.5665283203125

> <r_i_glide_ecoul>
-9.38702869415283

> <r_i_glide_erotb>
1.09503067771461

> <r_i_glide_esite>
0

> <r_i_glide_emodel>
-76.7346297808096

> <r_i_glide_energy>
-55.9535570144653

> <r_i_glide_einternal>
10.251654624939

> <i_i_glide_confnum>
20

> <i_i_glide_posenum>
142

> <r_i_glide_eff_state_penalty>
0

> <s_user_duplicate_titles>
CHEMBL213_lig924,480455

> <s_m_subgroup_title>
dock_pv

> <s_m_subgroupid>
dock_pv

> <b_m_subgroup_collapsed>
1

$$$$
CHEMBL213_lig437
                    3D
 Schrodinger Suite 2021-1.
 56 58  0  0  1  0            999 V2000
   26.9601    5.0095    1.9576 C   0  0  0  0  0  0
   26.0172    5.1232    3.9951 N   0  0  0  0  0  0
   25.8072    4.6501    2.7196 C   0  0  0  0  0  0
   31.8777    5.4500   -2.4519 C   0  0  0  0  0  0
   27.8616    5.6492    2.8739 C   0  0  0  0  0  0
   27.2477    5.7213    4.1084 C   0  0  0  0  0  0
   30.8098    4.9892   -1.7299 O   0  0  0  0  0  0
   27.0006    4.6728    0.5902 C   0  0  0  0  0  0
   28.1468    5.0506   -0.0927 O   0  0  0  0  0  0
   31.8075    5.8501   -3.6150 O   0  0  0  0  0  0
   33.1720    5.4258   -1.7029 C   0  0  0  0  0  0
   29.8080    3.1734   -3.8163 N   0  0  1  0  0  0
   29.7852    2.5650   -5.1432 C   0  0  0  0  0  0
   29.4470    5.0270   -2.2055 C   0  0  2  0  0  0
   28.5580    4.2504   -1.2042 C   0  0  0  0  0  0
   29.2231    4.5050   -3.6564 C   0  0  0  0  0  0
   24.7264    3.9531    2.1732 C   0  0  0  0  0  0
   27.7064    6.3042    5.4218 C   0  0  0  0  0  0
   24.7894    3.6610    0.8124 C   0  0  0  0  0  0
   25.8877    4.0158    0.0360 C   0  0  0  0  0  0
   30.4470    1.1954   -4.9193 C   0  0  0  0  0  0
   30.6207    3.3947   -6.1436 C   0  0  0  0  0  0
   28.3328    2.3502   -5.6148 C   0  0  0  0  0  0
   34.3761    5.4488   -2.4214 C   0  0  0  0  0  0
   33.2106    5.4500   -0.3018 C   0  0  0  0  0  0
   34.4326    5.4704    0.3654 C   0  0  0  0  0  0
   35.5957    5.4724   -1.7522 C   0  0  0  0  0  0
   35.6200    5.4806   -0.3610 C   0  0  0  0  0  0
   25.3823    5.0580    4.7766 H   0  0  0  0  0  0
   28.8493    6.0236    2.6594 H   0  0  0  0  0  0
   29.3203    2.5411   -3.1790 H   0  0  0  0  0  0
   29.1173    6.0677   -2.1964 H   0  0  0  0  0  0
   27.7140    3.8502   -1.7601 H   0  0  0  0  0  0
   29.0886    3.3806   -0.8156 H   0  0  0  0  0  0
   28.1524    4.4771   -3.8601 H   0  0  0  0  0  0
   29.6345    5.2068   -4.3784 H   0  0  0  0  0  0
   23.8576    3.6862    2.7577 H   0  0  0  0  0  0
   28.6736    6.8008    5.3297 H   0  0  0  0  0  0
   27.0023    7.0490    5.7955 H   0  0  0  0  0  0
   27.8076    5.5402    6.1922 H   0  0  0  0  0  0
   23.9558    3.1632    0.3352 H   0  0  0  0  0  0
   25.8297    3.7811   -1.0146 H   0  0  0  0  0  0
   29.8337    0.5706   -4.2759 H   0  0  0  0  0  0
   30.6067    0.6587   -5.8541 H   0  0  0  0  0  0
   31.4080    1.2989   -4.4149 H   0  0  0  0  0  0
   30.2074    4.3863   -6.3166 H   0  0  0  0  0  0
   31.6393    3.5425   -5.7781 H   0  0  0  0  0  0
   30.6896    2.9010   -7.1127 H   0  0  0  0  0  0
   27.7516    3.2698   -5.6168 H   0  0  0  0  0  0
   28.2969    1.9370   -6.6230 H   0  0  0  0  0  0
   27.8077    1.6605   -4.9547 H   0  0  0  0  0  0
   34.3837    5.4498   -3.5044 H   0  0  0  0  0  0
   32.3012    5.4574    0.2833 H   0  0  0  0  0  0
   34.4554    5.4866    1.4447 H   0  0  0  0  0  0
   36.5188    5.4862   -2.3129 H   0  0  0  0  0  0
   36.5668    5.4968    0.1548 H   0  0  0  0  0  0
  1  3  2  0  0  0
  1  5  1  0  0  0
  1  8  1  0  0  0
  2  3  1  0  0  0
  2  6  1  0  0  0
  2 29  1  0  0  0
  3 17  1  0  0  0
  4  7  1  0  0  0
  4 10  2  0  0  0
  4 11  1  0  0  0
  5  6  2  0  0  0
  5 30  1  0  0  0
  6 18  1  0  0  0
  7 14  1  0  0  0
  8  9  1  0  0  0
  8 20  2  0  0  0
  9 15  1  0  0  0
 11 24  2  0  0  0
 11 25  1  0  0  0
 12 16  1  0  0  0
 12 13  1  0  0  0
 12 31  1  0  0  0
 13 21  1  0  0  0
 13 22  1  0  0  0
 13 23  1  0  0  0
 14 15  1  0  0  0
 14 16  1  0  0  0
 14 32  1  0  0  0
 15 33  1  0  0  0
 15 34  1  0  0  0
 16 35  1  0  0  0
 16 36  1  0  0  0
 17 19  2  0  0  0
 17 37  1  0  0  0
 18 38  1  0  0  0
 18 39  1  0  0  0
 18 40  1  0  0  0
 19 20  1  0  0  0
 19 41  1  0  0  0
 20 42  1  0  0  0
 21 43  1  0  0  0
 21 44  1  0  0  0
 21 45  1  0  0  0
 22 46  1  0  0  0
 22 47  1  0  0  0
 22 48  1  0  0  0
 23 49  1  0  0  0
 23 50  1  0  0  0
 23 51  1  0  0  0
 24 27  1  0  0  0
 24 52  1  0  0  0
 25 26  2  0  0  0
 25 53  1  0  0  0
 26 28  1  0  0  0
 26 54  1  0  0  0
 27 28  2  0  0  0
 27 55  1  0  0  0
 28 56  1  0  0  0
M  END
> <s_m_entry_id>
3212

> <s_m_entry_name>
dock_pv.304

> <s_m_Source_Path>
/home/csk/Desktop/cluster/DUD-E-result/adrb1

> <s_m_Source_File>
dock_pv.maegz

> <i_m_Source_File_Index>
304

> <chembl_id>
CHEMBL357995

> <chembl_pref_name>
BOPINDOLOL

> <i_lp_mmshare_version>
53161

> <i_f3d_flags>
0

> <r_lp_tautomer_probability>
1

> <s_lp_Force_Field>
OPLS_2005

> <r_lp_Energy>
23.214334

> <b_lp_Chiralities_Consistent>
1

> <s_lp_Variant>
CHEMBL213_lig437-1

> <s_i_glide_gridfile>
glide-grid_2vt4

> <i_i_glide_lignum>
514

> <i_i_glide_rotatable_bonds>
9

> <r_i_docking_score>
-7.22766767635936

> <r_i_glide_ligand_efficiency>
-0.258130988441406

> <r_i_glide_ligand_efficiency_sa>
-0.783837711929901

> <r_i_glide_ligand_efficiency_ln>
-1.66835791324797

> <r_i_glide_gscore>
-7.22766767635936

> <r_i_glide_lipo>
-2.85202151211957

> <r_i_glide_hbond>
-0.608

> <r_i_glide_metal>
0

> <r_i_glide_rewards>
-1.77457795742902

> <r_i_glide_evdw>
-42.328052520752

> <r_i_glide_ecoul>
-5.43188285827637

> <r_i_glide_erotb>
0.938116847968283

> <r_i_glide_esite>
0

> <r_i_glide_emodel>
-64.9864300843489

> <r_i_glide_energy>
-47.7599353790283

> <r_i_glide_einternal>
6.27262687683105

> <i_i_glide_confnum>
131

> <i_i_glide_posenum>
280

> <r_i_glide_eff_state_penalty>
0

> <s_user_duplicate_titles>
CHEMBL213_lig437

> <s_m_subgroup_title>
dock_pv

> <s_m_subgroupid>
dock_pv

> <b_m_subgroup_collapsed>
1

$$$$
CHEMBL213_lig1199
                    3D
 Schrodinger Suite 2021-1.
 44 46  0  0  1  0            999 V2000
   32.2555    5.0110   -3.8581 C   0  0  0  0  0  0
   32.2427    4.0330   -4.8517 C   0  0  0  0  0  0
   29.8537    4.7624   -3.5447 C   0  0  0  0  0  0
   31.0727    5.3727   -3.2152 C   0  0  0  0  0  0
   29.8346    3.7804   -4.5511 C   0  0  0  0  0  0
   31.0332    3.4155   -5.1973 C   0  0  0  0  0  0
   31.0046    2.3910   -6.1634 N   0  0  0  0  0  0
   29.9408    1.6360   -6.5057 C   0  0  0  0  0  0
   28.6923    2.0730   -5.9190 C   0  0  0  0  0  0
   28.6128    3.0500   -4.9918 C   0  0  0  0  0  0
   30.0490    0.6500   -7.2160 O   0  0  0  0  0  0
   33.4204    3.6952   -5.4752 O   0  0  0  0  0  0
   28.5604    5.1811   -2.8437 C   0  0  1  0  0  0
   28.7482    5.4499   -1.4136 N   0  0  2  0  0  0
   27.8894    6.3744   -3.5608 C   0  0  0  0  0  0
   26.6058    6.6500   -3.0385 O   0  0  0  0  0  0
   27.6841    4.7718   -0.6871 C   0  0  0  0  0  0
   27.6226    5.1535    0.7930 C   0  0  0  0  0  0
   26.3729    4.6502    1.5175 C   0  0  0  0  0  0
   26.1645    4.9937    2.8625 C   0  0  0  0  0  0
   24.9683    4.6485    3.4887 C   0  0  0  0  0  0
   23.9796    3.9500    2.7909 C   0  0  0  0  0  0
   24.1946    3.5688    1.4746 C   0  0  0  0  0  0
   25.3853    3.9048    0.8435 C   0  0  0  0  0  0
   27.3539    5.8499    3.7829 Cl  0  0  0  0  0  0
   33.1845    5.4826   -3.5759 H   0  0  0  0  0  0
   31.1007    6.1278   -2.4448 H   0  0  0  0  0  0
   31.8747    2.1008   -6.5790 H   0  0  0  0  0  0
   27.7929    1.5675   -6.2354 H   0  0  0  0  0  0
   27.6280    3.2968   -4.6239 H   0  0  0  0  0  0
   34.1240    4.3369   -5.3443 H   0  0  0  0  0  0
   27.8935    4.3259   -2.9376 H   0  0  0  0  0  0
   28.6082    6.4440   -1.2865 H   0  0  0  0  0  0
   28.5116    7.2686   -3.5111 H   0  0  0  0  0  0
   27.7616    6.1400   -4.6153 H   0  0  0  0  0  0
   26.0145    5.9052   -3.2149 H   0  0  0  0  0  0
   26.7227    5.0278   -1.1351 H   0  0  0  0  0  0
   27.7851    3.6882   -0.7827 H   0  0  0  0  0  0
   28.5200    4.8142    1.3105 H   0  0  0  0  0  0
   27.6121    6.2406    0.8751 H   0  0  0  0  0  0
   24.7933    4.9406    4.5118 H   0  0  0  0  0  0
   23.0428    3.7100    3.2704 H   0  0  0  0  0  0
   23.4220    3.0499    0.9260 H   0  0  0  0  0  0
   25.4867    3.6058   -0.1876 H   0  0  0  0  0  0
  1  2  2  0  0  0
  1  4  1  0  0  0
  1 26  1  0  0  0
  2  6  1  0  0  0
  2 12  1  0  0  0
  3  5  1  0  0  0
  3  4  2  0  0  0
  3 13  1  0  0  0
  4 27  1  0  0  0
  5  6  2  0  0  0
  5 10  1  0  0  0
  6  7  1  0  0  0
  7  8  1  0  0  0
  7 28  1  0  0  0
  8  9  1  0  0  0
  8 11  2  0  0  0
  9 10  2  0  0  0
  9 29  1  0  0  0
 10 30  1  0  0  0
 12 31  1  0  0  0
 13 14  1  0  0  0
 13 15  1  0  0  0
 13 32  1  0  0  0
 14 17  1  0  0  0
 14 33  1  0  0  0
 15 16  1  0  0  0
 15 34  1  0  0  0
 15 35  1  0  0  0
 16 36  1  0  0  0
 17 18  1  0  0  0
 17 37  1  0  0  0
 17 38  1  0  0  0
 18 19  1  0  0  0
 18 39  1  0  0  0
 18 40  1  0  0  0
 19 20  2  0  0  0
 19 24  1  0  0  0
 20 21  1  0  0  0
 20 25  1  0  0  0
 21 22  2  0  0  0
 21 41  1  0  0  0
 22 23  1  0  0  0
 22 42  1  0  0  0
 23 24  2  0  0  0
 23 43  1  0  0  0
 24 44  1  0  0  0
M  END
> <s_m_entry_id>
3213

> <s_m_entry_name>
dock_pv.305

> <s_m_Source_Path>
/home/csk/Desktop/cluster/DUD-E-result/adrb1

> <s_m_Source_File>
dock_pv.maegz

> <i_m_Source_File_Index>
305

> <chembl_id>
CHEMBL4278577

> <chembl_pref_name>
None

> <i_lp_mmshare_version>
53161

> <i_f3d_flags>
0

> <r_lp_tautomer_probability>
1

> <s_lp_Force_Field>
OPLS_2005

> <r_lp_Energy>
29.879846

> <b_lp_Chiralities_Consistent>
1

> <s_lp_Variant>
CHEMBL213_lig1199-2

> <s_i_glide_gridfile>
glide-grid_2vt4

> <i_i_glide_lignum>
1411

> <i_i_glide_rotatable_bonds>
8

> <r_i_docking_score>
-7.22688624785929

> <r_i_glide_ligand_efficiency>
-0.289075449914372

> <r_i_glide_ligand_efficiency_sa>
-0.845261742324557

> <r_i_glide_ligand_efficiency_ln>
-1.71298861304719

> <r_i_glide_gscore>
-7.22688624785929

> <r_i_glide_lipo>
-2.61470059072076

> <r_i_glide_hbond>
-0.433082823521959

> <r_i_glide_metal>
0

> <r_i_glide_rewards>
-1.78160831346817

> <r_i_glide_evdw>
-41.882740020752

> <r_i_glide_ecoul>
-6.98292589187622

> <r_i_glide_erotb>
0.74408136467063

> <r_i_glide_esite>
0

> <r_i_glide_emodel>
-66.6443351364973

> <r_i_glide_energy>
-48.8656659126282

> <r_i_glide_einternal>
9.2389497756958

> <i_i_glide_confnum>
163

> <i_i_glide_posenum>
399

> <r_i_glide_eff_state_penalty>
0

> <s_user_duplicate_titles>
CHEMBL213_lig1199

> <s_m_subgroup_title>
dock_pv

> <s_m_subgroupid>
dock_pv

> <b_m_subgroup_collapsed>
1

$$$$
CHEMBL213_lig1348
                    3D
 Schrodinger Suite 2021-1.
 68 74  0  0  1  0            999 V2000
   26.6824    4.7569   -0.2556 C   0  0  0  0  0  0
   26.2699    4.5700    1.1780 N   0  0  0  0  0  0
   25.1172    3.8677    1.4436 C   0  0  0  0  0  0
   27.1031    5.1266    2.1158 C   0  0  0  0  0  0
   24.4861    4.2439    2.7769 C   0  0  0  0  0  0
   23.1709    3.8612    3.0495 C   0  0  0  0  0  0
   22.5551    4.2520    4.2434 C   0  0  0  0  0  0
   23.2714    4.9252    5.2270 C   0  0  0  0  0  0
   26.5127    5.3540    3.4763 C   0  0  0  0  0  0
   25.1873    4.9983    3.7600 C   0  0  0  0  0  0
   24.6004    5.3539    4.9987 C   0  0  0  0  0  0
   25.3848    6.0174    5.9712 C   0  0  0  0  0  0
   26.7333    6.2516    5.7134 C   0  0  0  0  0  0
   27.2877    5.9549    4.4732 C   0  0  0  0  0  0
   24.6270    3.0404    0.6745 O   0  0  0  0  0  0
   28.2501    5.4484    1.8732 O   0  0  0  0  0  0
   33.7379    5.8495   -0.0965 C   0  0  0  0  0  0
   32.6217    5.4500   -0.8257 C   0  0  0  0  0  0
   32.7537    4.9329   -2.1077 C   0  0  0  0  0  0
   31.6407    4.6645   -2.8616 O   0  0  0  0  0  0
   31.3584    5.6492   -3.8611 C   0  0  0  0  0  0
   30.0469    5.3204   -4.6015 C   0  0  2  0  0  0
   28.7555    5.8901   -3.9595 C   0  0  0  0  0  0
   29.9538    3.9366   -4.8945 O   0  0  0  0  0  0
   28.4928    5.6483   -2.5280 N   0  0  1  0  0  0
   27.2735    6.3959   -2.1985 C   0  0  0  0  0  0
   26.7665    6.2267   -0.7514 C   0  0  0  0  0  0
   27.9431    3.9973   -0.7172 C   0  0  0  0  0  0
   28.2937    4.2311   -2.2086 C   0  0  0  0  0  0
   35.0324    5.6901   -0.5908 C   0  0  0  0  0  0
   35.1686    5.1015   -1.8532 C   0  0  0  0  0  0
   34.0453    4.7092   -2.6304 C   0  0  0  0  0  0
   36.3008    4.7913   -2.5779 N   0  0  0  0  0  0
   35.9580    4.2086   -3.7804 C   0  0  0  0  0  0
   34.5396    4.1416   -3.8273 C   0  0  0  0  0  0
   33.9229    3.5642   -4.9498 C   0  0  0  0  0  0
   34.7250    3.0859   -5.9863 C   0  0  0  0  0  0
   36.1122    3.1721   -5.9212 C   0  0  0  0  0  0
   36.7619    3.7394   -4.8246 C   0  0  0  0  0  0
   25.8964    4.3264   -0.8832 H   0  0  0  0  0  0
   22.6174    3.2943    2.3181 H   0  0  0  0  0  0
   21.5340    3.9622    4.4464 H   0  0  0  0  0  0
   22.8102    5.0873    6.1711 H   0  0  0  0  0  0
   24.9482    6.2735    6.9257 H   0  0  0  0  0  0
   27.3543    6.7014    6.4730 H   0  0  0  0  0  0
   28.3246    6.2044    4.2941 H   0  0  0  0  0  0
   33.5921    6.2644    0.8904 H   0  0  0  0  0  0
   31.6351    5.5672   -0.4045 H   0  0  0  0  0  0
   32.1761    5.6950   -4.5827 H   0  0  0  0  0  0
   31.2854    6.6480   -3.4217 H   0  0  0  0  0  0
   30.1194    5.7983   -5.5803 H   0  0  0  0  0  0
   27.9029    5.5296   -4.5393 H   0  0  0  0  0  0
   28.7730    6.9679   -4.1372 H   0  0  0  0  0  0
   30.0126    3.4614   -4.0596 H   0  0  0  0  0  0
   26.4937    6.1127   -2.8998 H   0  0  0  0  0  0
   27.4744    7.4470   -2.3859 H   0  0  0  0  0  0
   25.7825    6.6823   -0.6867 H   0  0  0  0  0  0
   27.4117    6.8322   -0.1190 H   0  0  0  0  0  0
   28.8324    4.2686   -0.1542 H   0  0  0  0  0  0
   27.7923    2.9502   -0.4627 H   0  0  0  0  0  0
   27.4952    3.8475   -2.8462 H   0  0  0  0  0  0
   29.1867    3.6546   -2.4502 H   0  0  0  0  0  0
   35.8870    5.9960   -0.0077 H   0  0  0  0  0  0
   37.2486    4.9585   -2.2749 H   0  0  0  0  0  0
   32.8476    3.4831   -5.0145 H   0  0  0  0  0  0
   34.2644    2.6393   -6.8545 H   0  0  0  0  0  0
   36.7026    2.7982   -6.7458 H   0  0  0  0  0  0
   37.8408    3.8049   -4.7852 H   0  0  0  0  0  0
  1 27  1  0  0  0
  1 28  1  0  0  0
  1  2  1  0  0  0
  1 40  1  0  0  0
  2  3  1  0  0  0
  2  4  1  0  0  0
  3  5  1  0  0  0
  3 15  2  0  0  0
  4  9  1  0  0  0
  4 16  2  0  0  0
  5 10  2  0  0  0
  5  6  1  0  0  0
  6  7  2  0  0  0
  6 41  1  0  0  0
  7  8  1  0  0  0
  7 42  1  0  0  0
  8 11  2  0  0  0
  8 43  1  0  0  0
  9 10  1  0  0  0
  9 14  2  0  0  0
 10 11  1  0  0  0
 11 12  1  0  0  0
 12 13  2  0  0  0
 12 44  1  0  0  0
 13 14  1  0  0  0
 13 45  1  0  0  0
 14 46  1  0  0  0
 17 30  1  0  0  0
 17 18  2  0  0  0
 17 47  1  0  0  0
 18 19  1  0  0  0
 18 48  1  0  0  0
 19 32  2  0  0  0
 19 20  1  0  0  0
 20 21  1  0  0  0
 21 22  1  0  0  0
 21 49  1  0  0  0
 21 50  1  0  0  0
 22 23  1  0  0  0
 22 24  1  0  0  0
 22 51  1  0  0  0
 23 25  1  0  0  0
 23 52  1  0  0  0
 23 53  1  0  0  0
 24 54  1  0  0  0
 25 26  1  0  0  0
 25 29  1  0  0  0
 26 27  1  0  0  0
 26 55  1  0  0  0
 26 56  1  0  0  0
 27 57  1  0  0  0
 27 58  1  0  0  0
 28 29  1  0  0  0
 28 59  1  0  0  0
 28 60  1  0  0  0
 29 61  1  0  0  0
 29 62  1  0  0  0
 30 31  2  0  0  0
 30 63  1  0  0  0
 31 32  1  0  0  0
 31 33  1  0  0  0
 32 35  1  0  0  0
 33 34  1  0  0  0
 33 64  1  0  0  0
 34 35  2  0  0  0
 34 39  1  0  0  0
 35 36  1  0  0  0
 36 37  2  0  0  0
 36 65  1  0  0  0
 37 38  1  0  0  0
 37 66  1  0  0  0
 38 39  2  0  0  0
 38 67  1  0  0  0
 39 68  1  0  0  0
M  END
> <s_m_entry_id>
3214

> <s_m_entry_name>
dock_pv.306

> <s_m_Source_Path>
/home/csk/Desktop/cluster/DUD-E-result/adrb1

> <s_m_Source_File>
dock_pv.maegz

> <i_m_Source_File_Index>
306

> <chembl_id>
CHEMBL1083363

> <chembl_pref_name>
None

> <i_lp_mmshare_version>
53161

> <i_f3d_flags>
0

> <r_lp_tautomer_probability>
1

> <s_lp_Force_Field>
OPLS_2005

> <r_lp_Energy>
79.393679

> <b_lp_Chiralities_Consistent>
1

> <s_lp_Variant>
CHEMBL213_lig1348-1

> <s_i_glide_gridfile>
glide-grid_2vt4

> <i_i_glide_lignum>
1626

> <i_i_glide_rotatable_bonds>
7

> <r_i_docking_score>
-7.22585155019008

> <r_i_glide_ligand_efficiency>
-0.185278244876669

> <r_i_glide_ligand_efficiency_sa>
-0.628317703400046

> <r_i_glide_ligand_efficiency_ln>
-1.54942769035484

> <r_i_glide_gscore>
-7.22585155019008

> <r_i_glide_lipo>
-3.56415889810634

> <r_i_glide_hbond>
0

> <r_i_glide_metal>
0

> <r_i_glide_rewards>
-1.47762555349202

> <r_i_glide_evdw>
-41.1591339111328

> <r_i_glide_ecoul>
-3.37749433517456

> <r_i_glide_erotb>
0.380513747241117

> <r_i_glide_esite>
0

> <r_i_glide_emodel>
-44.1401523943011

> <r_i_glide_energy>
-44.5366282463074

> <r_i_glide_einternal>
14.1606483459473

> <i_i_glide_confnum>
1

> <i_i_glide_posenum>
71

> <r_i_glide_eff_state_penalty>
0

> <s_user_duplicate_titles>
CHEMBL213_lig1348,630996

> <s_m_subgroup_title>
dock_pv

> <s_m_subgroupid>
dock_pv

> <b_m_subgroup_collapsed>
1

$$$$
CHEMBL213_lig771
                    3D
 Schrodinger Suite 2021-1.
 54 56  0  0  1  0            999 V2000
   33.4391    5.8460   -0.6655 C   0  0  0  0  0  0
   34.7808    6.1907   -0.8149 C   0  0  0  0  0  0
   35.5074    5.8500   -1.9060 N   0  0  0  0  0  0
   34.8875    5.1471   -2.8876 C   0  0  0  0  0  0
   33.5390    4.7545   -2.8308 C   0  0  0  0  0  0
   32.8192    5.1223   -1.6844 C   0  0  0  0  0  0
   32.8684    3.9929   -3.9889 C   0  0  2  0  0  0
   31.9354    2.8155   -3.5669 C   0  0  0  0  0  0
   30.6080    3.1875   -3.0652 N   0  0  1  0  0  0
   29.7911    3.8971   -4.0454 C   0  0  0  0  0  0
   29.6309    5.3874   -3.6870 C   0  0  0  0  0  0
   28.5504    5.6634   -2.6465 C   0  0  0  0  0  0
   27.4080    6.3751   -3.0205 C   0  0  0  0  0  0
   26.4178    6.6500   -2.0833 C   0  0  0  0  0  0
   26.5670    6.2262   -0.7682 C   0  0  0  0  0  0
   27.6838    5.4829   -0.3753 C   0  0  0  0  0  0
   28.6792    5.2189   -1.3220 C   0  0  0  0  0  0
   33.7946    3.4500   -4.9149 O   0  0  0  0  0  0
   27.8695    5.0500    0.9245 O   0  0  0  0  0  0
   26.8104    4.9031    1.7996 C   0  0  0  0  0  0
   25.7203    4.0735    1.5178 C   0  0  0  0  0  0
   24.6749    3.9435    2.4358 C   0  0  0  0  0  0
   24.6955    4.6500    3.6513 C   0  0  0  0  0  0
   25.8079    5.4705    3.9516 C   0  0  0  0  0  0
   26.8552    5.5717    3.0206 C   0  0  0  0  0  0
   25.8908    6.2500    5.2488 C   0  0  0  0  0  0
   26.6292    7.3949    5.1850 O   0  0  0  0  0  0
   25.3305    5.8967    6.2840 O   0  0  0  0  0  0
   23.6344    4.6500    4.5465 O   0  0  0  0  0  0
   22.3282    4.2500    4.1199 C   0  0  0  0  0  0
   32.8908    6.1396    0.2181 H   0  0  0  0  0  0
   35.2932    6.7565   -0.0508 H   0  0  0  0  0  0
   35.5131    4.9140   -3.7370 H   0  0  0  0  0  0
   31.7804    4.8605   -1.5704 H   0  0  0  0  0  0
   32.3047    4.7182   -4.5755 H   0  0  0  0  0  0
   32.4398    2.2081   -2.8150 H   0  0  0  0  0  0
   31.7639    2.1530   -4.4164 H   0  0  0  0  0  0
   30.0828    2.3819   -2.7327 H   0  0  0  0  0  0
   28.8021    3.4352   -4.0149 H   0  0  0  0  0  0
   30.1248    3.7611   -5.0760 H   0  0  0  0  0  0
   29.3870    5.9299   -4.6017 H   0  0  0  0  0  0
   30.5720    5.8251   -3.3566 H   0  0  0  0  0  0
   27.2770    6.7171   -4.0371 H   0  0  0  0  0  0
   25.5296    7.1882   -2.3762 H   0  0  0  0  0  0
   25.8080    6.4733   -0.0489 H   0  0  0  0  0  0
   29.5510    4.6590   -1.0212 H   0  0  0  0  0  0
   34.2317    4.1744   -5.3709 H   0  0  0  0  0  0
   25.6831    3.5369    0.5804 H   0  0  0  0  0  0
   23.8399    3.3097    2.1787 H   0  0  0  0  0  0
   27.7195    6.1884    3.2250 H   0  0  0  0  0  0
   26.6080    7.8403    6.0499 H   0  0  0  0  0  0
   21.6012    4.5613    4.8701 H   0  0  0  0  0  0
   22.0371    4.7183    3.1850 H   0  0  0  0  0  0
   22.2080    3.1767    3.9880 H   0  0  0  0  0  0
  1  6  1  0  0  0
  1  2  2  0  0  0
  1 31  1  0  0  0
  2  3  1  0  0  0
  2 32  1  0  0  0
  3  4  2  0  0  0
  4  5  1  0  0  0
  4 33  1  0  0  0
  5  6  2  0  0  0
  5  7  1  0  0  0
  6 34  1  0  0  0
  7  8  1  0  0  0
  7 18  1  0  0  0
  7 35  1  0  0  0
  8  9  1  0  0  0
  8 36  1  0  0  0
  8 37  1  0  0  0
  9 10  1  0  0  0
  9 38  1  0  0  0
 10 11  1  0  0  0
 10 39  1  0  0  0
 10 40  1  0  0  0
 11 12  1  0  0  0
 11 41  1  0  0  0
 11 42  1  0  0  0
 12 17  1  0  0  0
 12 13  2  0  0  0
 13 14  1  0  0  0
 13 43  1  0  0  0
 14 15  2  0  0  0
 14 44  1  0  0  0
 15 16  1  0  0  0
 15 45  1  0  0  0
 16 17  2  0  0  0
 16 19  1  0  0  0
 17 46  1  0  0  0
 18 47  1  0  0  0
 19 20  1  0  0  0
 20 21  2  0  0  0
 20 25  1  0  0  0
 21 22  1  0  0  0
 21 48  1  0  0  0
 22 23  2  0  0  0
 22 49  1  0  0  0
 23 24  1  0  0  0
 23 29  1  0  0  0
 24 25  2  0  0  0
 24 26  1  0  0  0
 25 50  1  0  0  0
 26 27  1  0  0  0
 26 28  2  0  0  0
 27 51  1  0  0  0
 29 30  1  0  0  0
 30 52  1  0  0  0
 30 53  1  0  0  0
 30 54  1  0  0  0
M  END
> <s_m_entry_id>
3215

> <s_m_entry_name>
dock_pv.307

> <s_m_Source_Path>
/home/csk/Desktop/cluster/DUD-E-result/adrb1

> <s_m_Source_File>
dock_pv.maegz

> <i_m_Source_File_Index>
307

> <chembl_id>
CHEMBL490415

> <chembl_pref_name>
None

> <i_lp_mmshare_version>
53161

> <i_f3d_flags>
0

> <r_lp_tautomer_probability>
1

> <s_lp_Force_Field>
OPLS_2005

> <r_lp_Energy>
29.193824

> <b_lp_Chiralities_Consistent>
1

> <s_lp_Variant>
CHEMBL213_lig771-1

> <s_i_glide_gridfile>
glide-grid_2vt4

> <i_i_glide_lignum>
877

> <i_i_glide_rotatable_bonds>
12

> <r_i_docking_score>
-7.21849460000564

> <r_i_glide_ligand_efficiency>
-0.240616486666855

> <r_i_glide_ligand_efficiency_sa>
-0.747651367992027

> <r_i_glide_ligand_efficiency_ln>
-1.64012062491946

> <r_i_glide_gscore>
-7.21849460000564

> <r_i_glide_lipo>
-2.92375199321108

> <r_i_glide_hbond>
-0.298319367969385

> <r_i_glide_metal>
0

> <r_i_glide_rewards>
-1.12937152884253

> <r_i_glide_evdw>
-42.6786575317383

> <r_i_glide_ecoul>
-11.1793804168701

> <r_i_glide_erotb>
0.943788229134787

> <r_i_glide_esite>
0

> <r_i_glide_emodel>
-71.7217381487324

> <r_i_glide_energy>
-53.8580379486084

> <r_i_glide_einternal>
9.99637126922607

> <i_i_glide_confnum>
42

> <i_i_glide_posenum>
102

> <r_i_glide_eff_state_penalty>
0

> <s_user_duplicate_titles>
CHEMBL213_lig771,491925

> <s_m_subgroup_title>
dock_pv

> <s_m_subgroupid>
dock_pv

> <b_m_subgroup_collapsed>
1

$$$$
CHEMBL213_lig1445
                    3D
 Schrodinger Suite 2021-1.
 30 32  0  0  1  0            999 V2000
   28.3371    5.4101    2.6345 C   0  0  0  0  0  0
   29.0803    6.1028    3.5859 C   0  0  0  0  0  0
   28.5020    6.5960    4.7498 C   0  0  0  0  0  0
   26.9684    5.1535    2.7906 C   0  0  0  0  0  0
   26.3678    5.5689    4.0058 C   0  0  0  0  0  0
   27.1519    6.3055    4.9474 C   0  0  0  0  0  0
   26.3157    6.6499    5.9818 N   0  0  0  0  0  0
   25.0571    6.1613    5.7780 C   0  0  0  0  0  0
   25.0624    5.4508    4.6033 C   0  0  0  0  0  0
   26.2434    4.5226    1.7780 N   0  0  0  0  0  0
   26.4804    4.7511    0.3441 C   0  0  0  0  0  0
   26.4614    3.4502   -0.4801 C   0  0  0  0  0  0
   25.2066    2.7259   -0.3337 N   0  0  0  0  0  0
   24.8507    2.5145    1.0619 C   0  0  0  0  0  0
   25.0082    3.7472    1.9758 C   0  0  0  0  0  0
   28.8522    5.0552    1.7544 H   0  0  0  0  0  0
   30.1323    6.2742    3.4045 H   0  0  0  0  0  0
   29.0774    7.1643    5.4657 H   0  0  0  0  0  0
   26.5462    7.2662    6.7596 H   0  0  0  0  0  0
   24.2680    6.3651    6.4878 H   0  0  0  0  0  0
   24.2077    4.9299    4.2142 H   0  0  0  0  0  0
   25.7155    5.4343   -0.0278 H   0  0  0  0  0  0
   27.4191    5.2754    0.1701 H   0  0  0  0  0  0
   27.2867    2.8080   -0.1755 H   0  0  0  0  0  0
   26.6059    3.6872   -1.5350 H   0  0  0  0  0  0
   24.4521    3.1228   -0.8983 H   0  0  0  0  0  0
   25.4798    1.7222    1.4606 H   0  0  0  0  0  0
   23.8196    2.1667    1.1064 H   0  0  0  0  0  0
   24.9751    3.3787    2.9997 H   0  0  0  0  0  0
   24.1482    4.4040    1.8413 H   0  0  0  0  0  0
  1  4  1  0  0  0
  1  2  2  0  0  0
  1 16  1  0  0  0
  2  3  1  0  0  0
  2 17  1  0  0  0
  3  6  2  0  0  0
  3 18  1  0  0  0
  4  5  2  0  0  0
  4 10  1  0  0  0
  5  9  1  0  0  0
  5  6  1  0  0  0
  6  7  1  0  0  0
  7  8  1  0  0  0
  7 19  1  0  0  0
  8  9  2  0  0  0
  8 20  1  0  0  0
  9 21  1  0  0  0
 10 11  1  0  0  0
 10 15  1  0  0  0
 11 12  1  0  0  0
 11 22  1  0  0  0
 11 23  1  0  0  0
 12 13  1  0  0  0
 12 24  1  0  0  0
 12 25  1  0  0  0
 13 14  1  0  0  0
 13 26  1  0  0  0
 14 15  1  0  0  0
 14 27  1  0  0  0
 14 28  1  0  0  0
 15 29  1  0  0  0
 15 30  1  0  0  0
M  END
> <s_m_entry_id>
3216

> <s_m_entry_name>
dock_pv.308

> <s_m_Source_Path>
/home/csk/Desktop/cluster/DUD-E-result/adrb1

> <s_m_Source_File>
dock_pv.maegz

> <i_m_Source_File_Index>
308

> <chembl_id>
CHEMBL200234

> <chembl_pref_name>
None

> <i_lp_mmshare_version>
53161

> <i_f3d_flags>
0

> <r_lp_tautomer_probability>
1

> <s_lp_Force_Field>
OPLS_2005

> <r_lp_Energy>
33.241507

> <b_lp_Chiralities_Consistent>
1

> <s_lp_Variant>
CHEMBL213_lig1445-1

> <s_i_glide_gridfile>
glide-grid_2vt4

> <i_i_glide_lignum>
1779

> <i_i_glide_rotatable_bonds>
1

> <r_i_docking_score>
-7.21815818791452

> <r_i_glide_ligand_efficiency>
-0.481210545860968

> <r_i_glide_ligand_efficiency_sa>
-1.1867672574262

> <r_i_glide_ligand_efficiency_ln>
-1.94661824852558

> <r_i_glide_gscore>
-7.21815818791452

> <r_i_glide_lipo>
-2.36978259634278

> <r_i_glide_hbond>
-0.552332508195801

> <r_i_glide_metal>
0

> <r_i_glide_rewards>
-2.45694135978663

> <r_i_glide_evdw>
-21.5364646911621

> <r_i_glide_ecoul>
-7.77555227279663

> <r_i_glide_erotb>
0.404054351888284

> <r_i_glide_esite>
0

> <r_i_glide_emodel>
-40.9229019152981

> <r_i_glide_energy>
-29.3120169639587

> <r_i_glide_einternal>
0.307778090238571

> <i_i_glide_confnum>
9

> <i_i_glide_posenum>
308

> <r_i_glide_eff_state_penalty>
0

> <s_user_duplicate_titles>
CHEMBL213_lig1445

> <s_m_subgroup_title>
dock_pv

> <s_m_subgroupid>
dock_pv

> <b_m_subgroup_collapsed>
1

$$$$
CHEMBL213_lig474
                    3D
 Schrodinger Suite 2021-1.
 63 66  0  0  1  0            999 V2000
   33.0155    4.2888   -5.3943 C   0  0  0  0  0  0
   32.5554    3.5980   -6.5136 C   0  0  0  0  0  0
   30.9577    3.7634   -4.2022 C   0  0  0  0  0  0
   32.2268    4.3610   -4.2452 C   0  0  0  0  0  0
   30.5083    3.0689   -5.3387 C   0  0  0  0  0  0
   31.3009    2.9817   -6.4807 C   0  0  0  0  0  0
   30.7047    2.2491   -7.4962 N   0  0  0  0  0  0
   29.4492    1.7271   -7.2614 C   0  0  0  0  0  0
   28.9878    2.2101   -5.5696 S   0  0  0  0  0  0
   28.7512    1.0542   -8.0145 O   0  0  0  0  0  0
   33.3370    3.5215   -7.6371 O   0  0  0  0  0  0
   30.1180    3.8509   -2.9269 C   0  0  2  0  0  0
   30.0068    5.2853   -2.3488 C   0  0  0  0  0  0
   28.9894    5.4495   -1.3060 N   0  0  2  0  0  0
   27.6350    5.2254   -1.8011 C   0  0  0  0  0  0
   26.6019    5.8673   -0.8654 C   0  0  0  0  0  0
   26.2088    5.0502    0.3599 C   0  0  0  0  0  0
   25.3165    3.9842    0.2241 C   0  0  0  0  0  0
   24.7490    3.3915    1.3499 C   0  0  0  0  0  0
   25.0864    3.8542    2.6200 C   0  0  0  0  0  0
   26.0375    4.8655    2.7838 C   0  0  0  0  0  0
   26.6079    5.4526    1.6400 C   0  0  0  0  0  0
   30.6081    2.9792   -1.9316 O   0  0  0  0  0  0
   26.4055    5.2849    4.2109 C   0  0  0  0  0  0
   26.9186    6.6499    4.3394 N   0  0  2  0  0  0
   28.1913    6.7616    5.0563 C   0  0  0  0  0  0
   29.4413    6.5422    4.1954 C   0  0  0  0  0  0
   30.5981    7.2744    4.4714 C   0  0  0  0  0  0
   31.7631    7.0557    3.7356 C   0  0  0  0  0  0
   31.7791    6.1414    2.6755 C   0  0  0  0  0  0
   30.6174    5.4367    2.3841 C   0  0  0  0  0  0
   29.4807    5.5938    3.1690 C   0  0  0  0  0  0
   32.8847    5.8502    1.9020 O   0  0  0  0  0  0
   34.1544    6.3604    2.2920 C   0  0  0  0  0  0
   33.9856    4.7640   -5.4066 H   0  0  0  0  0  0
   32.6125    4.8830   -3.3825 H   0  0  0  0  0  0
   31.1616    2.1072   -8.3854 H   0  0  0  0  0  0
   34.1520    4.0234   -7.5569 H   0  0  0  0  0  0
   29.1168    3.5110   -3.1857 H   0  0  0  0  0  0
   30.9712    5.5837   -1.9370 H   0  0  0  0  0  0
   29.7972    5.9950   -3.1514 H   0  0  0  0  0  0
   29.0509    6.3590   -0.8711 H   0  0  0  0  0  0
   27.4885    5.5979   -2.8175 H   0  0  0  0  0  0
   27.4576    4.1502   -1.8424 H   0  0  0  0  0  0
   26.9118    6.8709   -0.5710 H   0  0  0  0  0  0
   25.6890    6.0340   -1.4398 H   0  0  0  0  0  0
   25.0085    3.6614   -0.7601 H   0  0  0  0  0  0
   24.0241    2.5993    1.2328 H   0  0  0  0  0  0
   24.6137    3.4255    3.4874 H   0  0  0  0  0  0
   27.2938    6.2796    1.7370 H   0  0  0  0  0  0
   29.8498    2.4707   -1.6174 H   0  0  0  0  0  0
   25.5637    5.1232    4.8863 H   0  0  0  0  0  0
   27.1631    4.5730    4.5448 H   0  0  0  0  0  0
   26.2336    7.2288    4.8064 H   0  0  0  0  0  0
   28.2377    7.7796    5.4469 H   0  0  0  0  0  0
   28.2047    6.1028    5.9254 H   0  0  0  0  0  0
   30.6098    8.0100    5.2634 H   0  0  0  0  0  0
   32.6445    7.6245    3.9848 H   0  0  0  0  0  0
   30.6204    4.7062    1.5904 H   0  0  0  0  0  0
   28.6598    4.9337    2.9712 H   0  0  0  0  0  0
   34.9141    6.0112    1.5919 H   0  0  0  0  0  0
   34.1801    7.4508    2.2872 H   0  0  0  0  0  0
   34.4320    6.0048    3.2860 H   0  0  0  0  0  0
  1  4  1  0  0  0
  1  2  2  0  0  0
  1 35  1  0  0  0
  2 11  1  0  0  0
  2  6  1  0  0  0
  3 12  1  0  0  0
  3  5  1  0  0  0
  3  4  2  0  0  0
  4 36  1  0  0  0
  5  9  1  0  0  0
  5  6  2  0  0  0
  6  7  1  0  0  0
  7  8  1  0  0  0
  7 37  1  0  0  0
  8  9  1  0  0  0
  8 10  2  0  0  0
 11 38  1  0  0  0
 12 23  1  0  0  0
 12 13  1  0  0  0
 12 39  1  0  0  0
 13 14  1  0  0  0
 13 40  1  0  0  0
 13 41  1  0  0  0
 14 15  1  0  0  0
 14 42  1  0  0  0
 15 16  1  0  0  0
 15 43  1  0  0  0
 15 44  1  0  0  0
 16 17  1  0  0  0
 16 45  1  0  0  0
 16 46  1  0  0  0
 17 18  2  0  0  0
 17 22  1  0  0  0
 18 19  1  0  0  0
 18 47  1  0  0  0
 19 20  2  0  0  0
 19 48  1  0  0  0
 20 21  1  0  0  0
 20 49  1  0  0  0
 21 22  2  0  0  0
 21 24  1  0  0  0
 22 50  1  0  0  0
 23 51  1  0  0  0
 24 25  1  0  0  0
 24 52  1  0  0  0
 24 53  1  0  0  0
 25 26  1  0  0  0
 25 54  1  0  0  0
 26 27  1  0  0  0
 26 55  1  0  0  0
 26 56  1  0  0  0
 27 28  2  0  0  0
 27 32  1  0  0  0
 28 29  1  0  0  0
 28 57  1  0  0  0
 29 30  2  0  0  0
 29 58  1  0  0  0
 30 31  1  0  0  0
 30 33  1  0  0  0
 31 32  2  0  0  0
 31 59  1  0  0  0
 32 60  1  0  0  0
 33 34  1  0  0  0
 34 61  1  0  0  0
 34 62  1  0  0  0
 34 63  1  0  0  0
M  END
> <s_m_entry_id>
3217

> <s_m_entry_name>
dock_pv.309

> <s_m_Source_Path>
/home/csk/Desktop/cluster/DUD-E-result/adrb1

> <s_m_Source_File>
dock_pv.maegz

> <i_m_Source_File_Index>
309

> <chembl_id>
CHEMBL1945289

> <chembl_pref_name>
None

> <i_lp_mmshare_version>
53161

> <i_f3d_flags>
0

> <r_lp_tautomer_probability>
1

> <s_lp_Force_Field>
OPLS_2005

> <r_lp_Energy>
36.28289

> <b_lp_Chiralities_Consistent>
1

> <s_lp_Variant>
CHEMBL213_lig474-1

> <s_i_glide_gridfile>
glide-grid_2vt4

> <i_i_glide_lignum>
563

> <i_i_glide_rotatable_bonds>
13

> <r_i_docking_score>
-7.21780415350504

> <r_i_glide_ligand_efficiency>
-0.212288357456031

> <r_i_glide_ligand_efficiency_sa>
-0.687731867279973

> <r_i_glide_ligand_efficiency_ln>
-1.59461539005824

> <r_i_glide_gscore>
-7.21780415350504

> <r_i_glide_lipo>
-3.1324096019018

> <r_i_glide_hbond>
-0.492119053307532

> <r_i_glide_metal>
0

> <r_i_glide_rewards>
-0.962378511545393

> <r_i_glide_evdw>
-53.6206703186035

> <r_i_glide_ecoul>
-5.54173564910889

> <r_i_glide_erotb>
0.881396876546197

> <r_i_glide_esite>
0

> <r_i_glide_emodel>
-77.5113968736711

> <r_i_glide_energy>
-59.1624059677124

> <r_i_glide_einternal>
15.7602319717407

> <i_i_glide_confnum>
144

> <i_i_glide_posenum>
73

> <r_i_glide_eff_state_penalty>
0

> <s_user_duplicate_titles>
CHEMBL213_lig474

> <s_m_subgroup_title>
dock_pv

> <s_m_subgroupid>
dock_pv

> <b_m_subgroup_collapsed>
1

$$$$
CHEMBL213_lig1306
                    3D
 Schrodinger Suite 2021-1.
 52 55  0  0  1  0            999 V2000
   26.6080    4.6500    1.2097 C   0  0  0  0  0  0
   25.4797    3.8552    1.4237 C   0  0  0  0  0  0
   24.7950    3.8579    2.5950 N   0  0  0  0  0  0
   25.2368    4.6778    3.5850 C   0  0  0  0  0  0
   26.3626    5.5082    3.4673 C   0  0  0  0  0  0
   27.0499    5.4754    2.2469 C   0  0  0  0  0  0
   26.8220    6.4646    4.5831 C   0  0  2  0  0  0
   28.2021    6.0924    5.2045 C   0  0  0  0  0  0
   25.8755    6.6500    5.6219 O   0  0  0  0  0  0
   29.1370    7.2281    5.1850 N   0  0  2  0  0  0
   30.5298    6.9299    4.8130 C   0  0  0  0  0  0
   30.6088    6.4088    3.3695 C   0  0  0  0  0  0
   31.9280    6.2787    2.8336 O   0  0  0  0  0  0
   32.0531    5.8500    1.5180 C   0  0  0  0  0  0
   33.3288    5.8500    0.9517 C   0  0  0  0  0  0
   33.5220    5.4693   -0.3794 C   0  0  0  0  0  0
   32.4394    5.0747   -1.1783 C   0  0  0  0  0  0
   31.1609    5.0500   -0.6045 C   0  0  0  0  0  0
   30.9752    5.4298    0.7244 C   0  0  0  0  0  0
   32.6483    4.6717   -2.6105 C   0  0  0  0  0  0
   33.7971    4.9006   -3.3735 C   0  0  0  0  0  0
   33.5961    4.2564   -4.9727 S   0  0  0  0  0  0
   32.0010    3.7347   -4.5126 C   0  0  0  0  0  0
   31.6921    4.0325   -3.2716 N   0  0  0  0  0  0
   31.0802    3.0063   -5.4557 C   0  0  0  0  0  0
   29.8172    2.5655   -5.0252 C   0  0  0  0  0  0
   28.9837    1.8870   -5.9174 C   0  0  0  0  0  0
   29.3363    1.6251   -7.2012 N   0  0  0  0  0  0
   30.5549    2.0544   -7.6143 C   0  0  0  0  0  0
   31.4434    2.7390   -6.7854 C   0  0  0  0  0  0
   27.1228    4.6292    0.2598 H   0  0  0  0  0  0
   25.1022    3.2093    0.6433 H   0  0  0  0  0  0
   24.6452    4.6726    4.4883 H   0  0  0  0  0  0
   27.9095    6.1084    2.0936 H   0  0  0  0  0  0
   26.8798    7.4385    4.0953 H   0  0  0  0  0  0
   28.0815    5.7694    6.2396 H   0  0  0  0  0  0
   28.6079    5.2160    4.7015 H   0  0  0  0  0  0
   26.2080    7.3347    6.2181 H   0  0  0  0  0  0
   29.0964    7.7553    6.0476 H   0  0  0  0  0  0
   31.0978    7.8584    4.8757 H   0  0  0  0  0  0
   31.0079    6.2500    5.5142 H   0  0  0  0  0  0
   30.1022    5.4500    3.2872 H   0  0  0  0  0  0
   30.0600    7.1337    2.7850 H   0  0  0  0  0  0
   34.1726    6.1673    1.5452 H   0  0  0  0  0  0
   34.5236    5.4874   -0.7820 H   0  0  0  0  0  0
   30.3006    4.7432   -1.1817 H   0  0  0  0  0  0
   29.9700    5.3937    1.1091 H   0  0  0  0  0  0
   34.7181    5.3932   -3.0962 H   0  0  0  0  0  0
   29.4760    2.7407   -4.0149 H   0  0  0  0  0  0
   28.0060    1.5479   -5.6030 H   0  0  0  0  0  0
   30.8224    1.8500   -8.6393 H   0  0  0  0  0  0
   32.3959    3.0538   -7.1845 H   0  0  0  0  0  0
  1  6  1  0  0  0
  1  2  2  0  0  0
  1 31  1  0  0  0
  2  3  1  0  0  0
  2 32  1  0  0  0
  3  4  2  0  0  0
  4  5  1  0  0  0
  4 33  1  0  0  0
  5  6  2  0  0  0
  5  7  1  0  0  0
  6 34  1  0  0  0
  7  8  1  0  0  0
  7  9  1  0  0  0
  7 35  1  0  0  0
  8 10  1  0  0  0
  8 36  1  0  0  0
  8 37  1  0  0  0
  9 38  1  0  0  0
 10 11  1  0  0  0
 10 39  1  0  0  0
 11 12  1  0  0  0
 11 40  1  0  0  0
 11 41  1  0  0  0
 12 13  1  0  0  0
 12 42  1  0  0  0
 12 43  1  0  0  0
 13 14  1  0  0  0
 14 15  2  0  0  0
 14 19  1  0  0  0
 15 16  1  0  0  0
 15 44  1  0  0  0
 16 17  2  0  0  0
 16 45  1  0  0  0
 17 18  1  0  0  0
 17 20  1  0  0  0
 18 19  2  0  0  0
 18 46  1  0  0  0
 19 47  1  0  0  0
 20 21  2  0  0  0
 20 24  1  0  0  0
 21 22  1  0  0  0
 21 48  1  0  0  0
 22 23  1  0  0  0
 23 24  2  0  0  0
 23 25  1  0  0  0
 25 26  2  0  0  0
 25 30  1  0  0  0
 26 27  1  0  0  0
 26 49  1  0  0  0
 27 28  2  0  0  0
 27 50  1  0  0  0
 28 29  1  0  0  0
 29 30  2  0  0  0
 29 51  1  0  0  0
 30 52  1  0  0  0
M  END
> <s_m_entry_id>
3218

> <s_m_entry_name>
dock_pv.310

> <s_m_Source_Path>
/home/csk/Desktop/cluster/DUD-E-result/adrb1

> <s_m_Source_File>
dock_pv.maegz

> <i_m_Source_File_Index>
310

> <chembl_id>
CHEMBL399522

> <chembl_pref_name>
None

> <i_lp_mmshare_version>
53161

> <i_f3d_flags>
0

> <r_lp_tautomer_probability>
1

> <s_lp_Force_Field>
OPLS_2005

> <r_lp_Energy>
27.441661

> <b_lp_Chiralities_Consistent>
1

> <s_lp_Variant>
CHEMBL213_lig1306-1

> <s_i_glide_gridfile>
glide-grid_2vt4

> <i_i_glide_lignum>
1558

> <i_i_glide_rotatable_bonds>
10

> <r_i_docking_score>
-7.21598610140991

> <r_i_glide_ligand_efficiency>
-0.240532870046997

> <r_i_glide_ligand_efficiency_sa>
-0.747391551713062

> <r_i_glide_ligand_efficiency_ln>
-1.63955066670623

> <r_i_glide_gscore>
-7.21598610140991

> <r_i_glide_lipo>
-3.45328812904653

> <r_i_glide_hbond>
-0.388916299432612

> <r_i_glide_metal>
0

> <r_i_glide_rewards>
-1.26456288401135

> <r_i_glide_evdw>
-44.407527923584

> <r_i_glide_ecoul>
-5.28034782409668

> <r_i_glide_erotb>
0.90320978087429

> <r_i_glide_esite>
0

> <r_i_glide_emodel>
-65.2299697213053

> <r_i_glide_energy>
-49.6878757476807

> <r_i_glide_einternal>
11.2490768432617

> <i_i_glide_confnum>
17

> <i_i_glide_posenum>
296

> <r_i_glide_eff_state_penalty>
0

> <s_user_duplicate_titles>
CHEMBL213_lig1306,417434

> <s_m_subgroup_title>
dock_pv

> <s_m_subgroupid>
dock_pv

> <b_m_subgroup_collapsed>
1

$$$$
CHEMBL213_lig1003
                    3D
 Schrodinger Suite 2021-1.
 50 52  0  0  1  0            999 V2000
   25.3625    5.4500    4.6452 C   0  0  0  0  0  0
   24.4312    4.6500    3.9850 C   0  0  0  0  0  0
   24.6775    4.1861    2.6963 C   0  0  0  0  0  0
   25.8877    4.4715    2.0479 C   0  0  0  0  0  0
   25.0555    5.9579    5.8830 O   0  0  0  0  0  0
   26.1331    4.0002    0.6046 C   0  0  2  0  0  0
   26.4213    5.1583   -0.3854 C   0  0  0  0  0  0
   25.0841    3.1954    0.0777 O   0  0  0  0  0  0
   27.0080    4.6156   -1.6150 N   0  0  2  0  0  0
   28.1820    5.2560   -2.2084 C   0  0  0  0  0  0
   28.4269    4.4895   -3.5507 C   0  0  0  0  0  0
   29.8712    4.4550   -4.0479 C   0  0  0  0  0  0
   30.6924    3.3773   -3.6995 C   0  0  0  0  0  0
   32.0175    3.3416   -4.1245 C   0  0  0  0  0  0
   32.5163    4.3793   -4.9081 C   0  0  0  0  0  0
   31.7012    5.4500   -5.2667 C   0  0  0  0  0  0
   30.3780    5.4913   -4.8345 C   0  0  0  0  0  0
   27.8621    6.7421   -2.4915 C   0  0  0  0  0  0
   29.3584    5.0932   -1.2094 C   0  0  0  0  0  0
   26.5965    5.6963    4.0438 C   0  0  0  0  0  0
   26.8647    5.1835    2.7689 C   0  0  0  0  0  0
   28.0984    5.4500    2.2053 O   0  0  0  0  0  0
   29.2022    5.5350    3.1431 C   0  0  0  0  0  0
   28.9004    6.4263    4.3850 C   0  0  0  0  0  0
   27.5923    6.4284    4.6922 N   0  0  0  0  0  0
   29.7400    7.0500    5.0303 O   0  0  0  0  0  0
   23.4811    4.4298    4.4494 H   0  0  0  0  0  0
   23.9063    3.6143    2.1998 H   0  0  0  0  0  0
   24.1096    6.0102    6.0391 H   0  0  0  0  0  0
   27.0080    3.3603    0.6532 H   0  0  0  0  0  0
   27.0892    5.8874    0.0672 H   0  0  0  0  0  0
   25.5117    5.7145   -0.6175 H   0  0  0  0  0  0
   24.9296    3.4500   -0.8415 H   0  0  0  0  0  0
   26.2850    4.5491   -2.3371 H   0  0  0  0  0  0
   27.7870    4.8883   -4.3402 H   0  0  0  0  0  0
   28.1051    3.4500   -3.4753 H   0  0  0  0  0  0
   30.3036    2.5750   -3.0884 H   0  0  0  0  0  0
   32.6551    2.5152   -3.8472 H   0  0  0  0  0  0
   33.5439    4.3554   -5.2414 H   0  0  0  0  0  0
   32.0975    6.2474   -5.8789 H   0  0  0  0  0  0
   29.7551    6.3286   -5.1129 H   0  0  0  0  0  0
   28.6080    7.1975   -3.1402 H   0  0  0  0  0  0
   26.9039    6.8534   -3.0020 H   0  0  0  0  0  0
   27.8080    7.3340   -1.5776 H   0  0  0  0  0  0
   30.2906    5.4846   -1.6150 H   0  0  0  0  0  0
   29.1880    5.6109   -0.2680 H   0  0  0  0  0  0
   29.5237    4.0427   -0.9653 H   0  0  0  0  0  0
   29.3905    4.5365    3.5388 H   0  0  0  0  0  0
   30.1134    5.8834    2.6573 H   0  0  0  0  0  0
   27.3527    6.9396    5.5309 H   0  0  0  0  0  0
  1 20  2  0  0  0
  1  2  1  0  0  0
  1  5  1  0  0  0
  2  3  2  0  0  0
  2 27  1  0  0  0
  3  4  1  0  0  0
  3 28  1  0  0  0
  4  6  1  0  0  0
  4 21  2  0  0  0
  5 29  1  0  0  0
  6  7  1  0  0  0
  6  8  1  0  0  0
  6 30  1  0  0  0
  7  9  1  0  0  0
  7 31  1  0  0  0
  7 32  1  0  0  0
  8 33  1  0  0  0
  9 10  1  0  0  0
  9 34  1  0  0  0
 10 18  1  0  0  0
 10 19  1  0  0  0
 10 11  1  0  0  0
 11 12  1  0  0  0
 11 35  1  0  0  0
 11 36  1  0  0  0
 12 13  2  0  0  0
 12 17  1  0  0  0
 13 14  1  0  0  0
 13 37  1  0  0  0
 14 15  2  0  0  0
 14 38  1  0  0  0
 15 16  1  0  0  0
 15 39  1  0  0  0
 16 17  2  0  0  0
 16 40  1  0  0  0
 17 41  1  0  0  0
 18 42  1  0  0  0
 18 43  1  0  0  0
 18 44  1  0  0  0
 19 45  1  0  0  0
 19 46  1  0  0  0
 19 47  1  0  0  0
 20 21  1  0  0  0
 20 25  1  0  0  0
 21 22  1  0  0  0
 22 23  1  0  0  0
 23 24  1  0  0  0
 23 48  1  0  0  0
 23 49  1  0  0  0
 24 25  1  0  0  0
 24 26  2  0  0  0
 25 50  1  0  0  0
M  END
> <s_m_entry_id>
3219

> <s_m_entry_name>
dock_pv.311

> <s_m_Source_Path>
/home/csk/Desktop/cluster/DUD-E-result/adrb1

> <s_m_Source_File>
dock_pv.maegz

> <i_m_Source_File_Index>
311

> <chembl_id>
CHEMBL567863

> <chembl_pref_name>
None

> <i_lp_mmshare_version>
53161

> <i_f3d_flags>
0

> <r_lp_tautomer_probability>
0.9999999999415

> <s_lp_Force_Field>
OPLS_2005

> <r_lp_Energy>
31.577898

> <b_lp_Chiralities_Consistent>
1

> <s_lp_Variant>
CHEMBL213_lig1003-1

> <s_i_glide_gridfile>
glide-grid_2vt4

> <i_i_glide_lignum>
1125

> <i_i_glide_rotatable_bonds>
8

> <r_i_docking_score>
-7.21496033278333

> <r_i_glide_ligand_efficiency>
-0.27749847433782

> <r_i_glide_ligand_efficiency_sa>
-0.822088138322023

> <r_i_glide_ligand_efficiency_ln>
-1.69440975993836

> <r_i_glide_gscore>
-7.21496033278333

> <r_i_glide_lipo>
-2.44707303053884

> <r_i_glide_hbond>
-0.407078395860329

> <r_i_glide_metal>
0

> <r_i_glide_rewards>
-2.18498122675307

> <r_i_glide_evdw>
-36.6452407836914

> <r_i_glide_ecoul>
-7.31071519851685

> <r_i_glide_erotb>
0.753041639331003

> <r_i_glide_esite>
0

> <r_i_glide_emodel>
-56.2297613206592

> <r_i_glide_energy>
-43.9559559822083

> <r_i_glide_einternal>
13.9505825042725

> <i_i_glide_confnum>
156

> <i_i_glide_posenum>
220

> <r_i_glide_eff_state_penalty>
0

> <s_user_duplicate_titles>
CHEMBL213_lig1003,573756

> <s_m_subgroup_title>
dock_pv

> <s_m_subgroupid>
dock_pv

> <b_m_subgroup_collapsed>
1

$$$$
CHEMBL213_lig966
                    3D
 Schrodinger Suite 2021-1.
 63 65  0  0  1  0            999 V2000
   28.2085    6.6499    6.1239 O   0  0  0  0  0  0
   28.6255    6.9053    4.7916 C   0  0  1  0  0  0
   30.1567    7.1309    4.8189 C   0  0  0  0  0  0
   30.6835    7.4500    3.4971 N   0  0  2  0  0  0
   32.1201    7.2177    3.4046 C   0  0  0  0  0  0
   32.4430    5.8499    2.7657 C   0  0  0  0  0  0
   32.3252    5.7224    1.2483 C   0  0  0  0  0  0
   33.4703    5.8500    0.4593 C   0  0  0  0  0  0
   33.4084    5.6174   -0.9111 C   0  0  0  0  0  0
   32.2073    5.2039   -1.5030 C   0  0  0  0  0  0
   32.0687    5.0265   -2.8956 N   0  0  0  0  0  0
   32.9207    4.5558   -3.8596 C   0  0  0  0  0  0
   34.3670    3.7537   -3.5562 S   0  0  0  0  0  0
   32.4294    4.8043   -5.1126 N   0  0  0  0  0  0
   33.0424    4.3791   -6.3841 C   0  0  0  0  0  0
   32.7468    2.9137   -6.7986 C   0  0  0  0  0  0
   31.2854    2.4651   -6.7041 C   0  0  0  0  0  0
   30.6876    2.2451   -5.4580 C   0  0  0  0  0  0
   29.3485    1.8776   -5.3772 C   0  0  0  0  0  0
   28.6087    1.7112   -6.5430 C   0  0  0  0  0  0
   29.2016    1.8833   -7.7895 C   0  0  0  0  0  0
   30.5439    2.2500   -7.8681 C   0  0  0  0  0  0
   31.0622    5.0500   -0.7103 C   0  0  0  0  0  0
   31.1158    5.3364    0.6597 C   0  0  0  0  0  0
   28.1964    5.7317    3.8782 C   0  0  0  0  0  0
   26.7702    5.6515    3.8027 O   0  0  0  0  0  0
   26.1903    4.9381    2.7720 C   0  0  0  0  0  0
   26.6869    4.9108    1.4582 C   0  0  0  0  0  0
   26.0155    4.1948    0.4685 C   0  0  0  0  0  0
   24.8470    3.5070    0.7860 C   0  0  0  0  0  0
   24.3391    3.5322    2.0814 C   0  0  0  0  0  0
   25.0091    4.2524    3.0673 C   0  0  0  0  0  0
   27.5128    7.2767    6.3661 H   0  0  0  0  0  0
   28.1329    7.8220    4.4681 H   0  0  0  0  0  0
   30.4037    7.9537    5.4916 H   0  0  0  0  0  0
   30.6621    6.2479    5.1976 H   0  0  0  0  0  0
   30.5080    8.4194    3.2671 H   0  0  0  0  0  0
   32.5354    8.0072    2.7849 H   0  0  0  0  0  0
   32.6336    7.3446    4.3596 H   0  0  0  0  0  0
   33.4526    5.5588    3.0589 H   0  0  0  0  0  0
   31.8101    5.0763    3.1849 H   0  0  0  0  0  0
   34.4097    6.1420    0.9045 H   0  0  0  0  0  0
   34.2985    5.7789   -1.5000 H   0  0  0  0  0  0
   31.1301    5.2091   -3.2183 H   0  0  0  0  0  0
   31.5754    5.3378   -5.1909 H   0  0  0  0  0  0
   32.6077    5.0492   -7.1224 H   0  0  0  0  0  0
   34.1149    4.5838   -6.3774 H   0  0  0  0  0  0
   33.1242    2.7471   -7.8086 H   0  0  0  0  0  0
   33.3492    2.2503   -6.1843 H   0  0  0  0  0  0
   31.2543    2.3675   -4.5470 H   0  0  0  0  0  0
   28.8802    1.7333   -4.4152 H   0  0  0  0  0  0
   27.5647    1.4501   -6.4742 H   0  0  0  0  0  0
   28.6209    1.7464   -8.6907 H   0  0  0  0  0  0
   31.0005    2.3900   -8.8355 H   0  0  0  0  0  0
   30.1247    4.7403   -1.1508 H   0  0  0  0  0  0
   30.2341    5.2073    1.2690 H   0  0  0  0  0  0
   28.5970    4.7870    4.2505 H   0  0  0  0  0  0
   28.6476    5.8882    2.9018 H   0  0  0  0  0  0
   27.5699    5.4588    1.1728 H   0  0  0  0  0  0
   26.3870    4.1825   -0.5465 H   0  0  0  0  0  0
   24.3203    2.9663    0.0118 H   0  0  0  0  0  0
   23.4257    3.0049    2.3160 H   0  0  0  0  0  0
   24.6094    4.2833    4.0691 H   0  0  0  0  0  0
  1  2  1  0  0  0
  1 33  1  0  0  0
  2  3  1  0  0  0
  2 25  1  0  0  0
  2 34  1  0  0  0
  3  4  1  0  0  0
  3 35  1  0  0  0
  3 36  1  0  0  0
  4  5  1  0  0  0
  4 37  1  0  0  0
  5  6  1  0  0  0
  5 38  1  0  0  0
  5 39  1  0  0  0
  6  7  1  0  0  0
  6 40  1  0  0  0
  6 41  1  0  0  0
  7  8  2  0  0  0
  7 24  1  0  0  0
  8  9  1  0  0  0
  8 42  1  0  0  0
  9 10  2  0  0  0
  9 43  1  0  0  0
 10 11  1  0  0  0
 10 23  1  0  0  0
 11 12  1  0  0  0
 11 44  1  0  0  0
 12 13  2  0  0  0
 12 14  1  0  0  0
 14 15  1  0  0  0
 14 45  1  0  0  0
 15 16  1  0  0  0
 15 46  1  0  0  0
 15 47  1  0  0  0
 16 17  1  0  0  0
 16 48  1  0  0  0
 16 49  1  0  0  0
 17 18  2  0  0  0
 17 22  1  0  0  0
 18 19  1  0  0  0
 18 50  1  0  0  0
 19 20  2  0  0  0
 19 51  1  0  0  0
 20 21  1  0  0  0
 20 52  1  0  0  0
 21 22  2  0  0  0
 21 53  1  0  0  0
 22 54  1  0  0  0
 23 24  2  0  0  0
 23 55  1  0  0  0
 24 56  1  0  0  0
 25 26  1  0  0  0
 25 57  1  0  0  0
 25 58  1  0  0  0
 26 27  1  0  0  0
 27 28  2  0  0  0
 27 32  1  0  0  0
 28 29  1  0  0  0
 28 59  1  0  0  0
 29 30  2  0  0  0
 29 60  1  0  0  0
 30 31  1  0  0  0
 30 61  1  0  0  0
 31 32  2  0  0  0
 31 62  1  0  0  0
 32 63  1  0  0  0
M  END
> <s_m_entry_id>
3220

> <s_m_entry_name>
dock_pv.312

> <s_m_Source_Path>
/home/csk/Desktop/cluster/DUD-E-result/adrb1

> <s_m_Source_File>
dock_pv.maegz

> <i_m_Source_File_Index>
312

> <chembl_id>
CHEMBL1203987

> <chembl_pref_name>
None

> <i_lp_mmshare_version>
53161

> <i_f3d_flags>
0

> <r_lp_tautomer_probability>
1

> <s_lp_Force_Field>
OPLS_2005

> <r_lp_Energy>
41.976377

> <b_lp_Chiralities_Consistent>
1

> <s_lp_Variant>
CHEMBL213_lig966-1

> <s_i_glide_gridfile>
glide-grid_2vt4

> <i_i_glide_lignum>
1078

> <i_i_glide_rotatable_bonds>
15

> <r_i_docking_score>
-7.21494451428944

> <r_i_glide_ligand_efficiency>
-0.225467016071545

> <r_i_glide_ligand_efficiency_sa>
-0.715813156165263

> <r_i_glide_ligand_efficiency_ln>
-1.61562274870893

> <r_i_glide_gscore>
-7.21494451428944

> <r_i_glide_lipo>
-3.87687555822046

> <r_i_glide_hbond>
0

> <r_i_glide_metal>
0

> <r_i_glide_rewards>
-1.16310594487181

> <r_i_glide_evdw>
-45.5549583435059

> <r_i_glide_ecoul>
-7.2464771270752

> <r_i_glide_erotb>
1.1897564750394

> <r_i_glide_esite>
0

> <r_i_glide_emodel>
-71.4194795895086

> <r_i_glide_energy>
-52.8014354705811

> <r_i_glide_einternal>
9.77148914337158

> <i_i_glide_confnum>
28

> <i_i_glide_posenum>
76

> <r_i_glide_eff_state_penalty>
0

> <s_user_duplicate_titles>
CHEMBL213_lig966,677938

> <s_m_subgroup_title>
dock_pv

> <s_m_subgroupid>
dock_pv

> <b_m_subgroup_collapsed>
1

$$$$
CHEMBL213_lig1190
                    3D
 Schrodinger Suite 2021-1.
 44 46  0  0  1  0            999 V2000
   32.2153    5.0501   -4.3119 C   0  0  0  0  0  0
   32.1507    4.0529   -5.2797 C   0  0  0  0  0  0
   29.8513    4.7502   -3.7779 C   0  0  0  0  0  0
   31.0786    5.4062   -3.5894 C   0  0  0  0  0  0
   29.7902    3.7338   -4.7550 C   0  0  0  0  0  0
   30.9374    3.3955   -5.5059 C   0  0  0  0  0  0
   30.8552    2.3749   -6.4759 N   0  0  0  0  0  0
   29.7719    1.6290   -6.7796 C   0  0  0  0  0  0
   28.5928    1.9896   -6.0219 C   0  0  0  0  0  0
   28.5738    2.9554   -5.0751 C   0  0  0  0  0  0
   29.8075    0.7310   -7.6130 O   0  0  0  0  0  0
   33.2813    3.7411   -5.9979 O   0  0  0  0  0  0
   28.6238    5.1475   -2.9286 C   0  0  1  0  0  0
   29.0638    5.3467   -1.5405 N   0  0  1  0  0  0
   27.9007    6.3791   -3.5508 C   0  0  0  0  0  0
   26.6082    6.6496   -3.0262 O   0  0  0  0  0  0
   28.0363    5.5704   -0.5309 C   0  0  0  0  0  0
   27.0594    4.3802   -0.3727 C   0  0  0  0  0  0
   26.2083    4.3627    0.8988 C   0  0  0  0  0  0
   26.6083    5.0114    2.0772 C   0  0  0  0  0  0
   25.8081    4.9556    3.2142 C   0  0  0  0  0  0
   24.6095    4.2500    3.1809 C   0  0  0  0  0  0
   24.2071    3.5910    2.0211 C   0  0  0  0  0  0
   25.0070    3.6458    0.8831 C   0  0  0  0  0  0
   33.1533    5.5466   -4.1163 H   0  0  0  0  0  0
   31.1515    6.1951   -2.8546 H   0  0  0  0  0  0
   31.6862    2.1405   -6.9942 H   0  0  0  0  0  0
   27.6858    1.4499   -6.2343 H   0  0  0  0  0  0
   27.6360    3.1444   -4.5749 H   0  0  0  0  0  0
   33.9706    4.4104   -5.9387 H   0  0  0  0  0  0
   27.9481    4.2958   -2.9155 H   0  0  0  0  0  0
   29.5728    4.5165   -1.2693 H   0  0  0  0  0  0
   28.5186    7.2756   -3.4752 H   0  0  0  0  0  0
   27.7526    6.1966   -4.6127 H   0  0  0  0  0  0
   26.0243    5.8995   -3.2154 H   0  0  0  0  0  0
   28.5857    5.7288    0.3921 H   0  0  0  0  0  0
   27.5047    6.5111   -0.6801 H   0  0  0  0  0  0
   26.3923    4.3661   -1.2363 H   0  0  0  0  0  0
   27.6108    3.4397   -0.4122 H   0  0  0  0  0  0
   27.5348    5.5582    2.1417 H   0  0  0  0  0  0
   26.1135    5.4638    4.1159 H   0  0  0  0  0  0
   23.9775    4.2443    4.0573 H   0  0  0  0  0  0
   23.2729    3.0506    1.9984 H   0  0  0  0  0  0
   24.6810    3.1412   -0.0155 H   0  0  0  0  0  0
  1  2  2  0  0  0
  1  4  1  0  0  0
  1 25  1  0  0  0
  2  6  1  0  0  0
  2 12  1  0  0  0
  3  5  1  0  0  0
  3  4  2  0  0  0
  3 13  1  0  0  0
  4 26  1  0  0  0
  5  6  2  0  0  0
  5 10  1  0  0  0
  6  7  1  0  0  0
  7  8  1  0  0  0
  7 27  1  0  0  0
  8  9  1  0  0  0
  8 11  2  0  0  0
  9 10  2  0  0  0
  9 28  1  0  0  0
 10 29  1  0  0  0
 12 30  1  0  0  0
 13 14  1  0  0  0
 13 15  1  0  0  0
 13 31  1  0  0  0
 14 17  1  0  0  0
 14 32  1  0  0  0
 15 16  1  0  0  0
 15 33  1  0  0  0
 15 34  1  0  0  0
 16 35  1  0  0  0
 17 18  1  0  0  0
 17 36  1  0  0  0
 17 37  1  0  0  0
 18 19  1  0  0  0
 18 38  1  0  0  0
 18 39  1  0  0  0
 19 20  2  0  0  0
 19 24  1  0  0  0
 20 21  1  0  0  0
 20 40  1  0  0  0
 21 22  2  0  0  0
 21 41  1  0  0  0
 22 23  1  0  0  0
 22 42  1  0  0  0
 23 24  2  0  0  0
 23 43  1  0  0  0
 24 44  1  0  0  0
M  END
> <s_m_entry_id>
3221

> <s_m_entry_name>
dock_pv.313

> <s_m_Source_Path>
/home/csk/Desktop/cluster/DUD-E-result/adrb1

> <s_m_Source_File>
dock_pv.maegz

> <i_m_Source_File_Index>
313

> <chembl_id>
CHEMBL4289813

> <chembl_pref_name>
None

> <i_lp_mmshare_version>
53161

> <i_f3d_flags>
0

> <r_lp_tautomer_probability>
1

> <s_lp_Force_Field>
OPLS_2005

> <r_lp_Energy>
25.218106

> <b_lp_Chiralities_Consistent>
1

> <s_lp_Variant>
CHEMBL213_lig1190-2

> <s_i_glide_gridfile>
glide-grid_2vt4

> <i_i_glide_lignum>
1393

> <i_i_glide_rotatable_bonds>
8

> <r_i_docking_score>
-7.21456746685234

> <r_i_glide_ligand_efficiency>
-0.300606977785514

> <r_i_glide_ligand_efficiency_sa>
-0.867100568166568

> <r_i_glide_ligand_efficiency_ln>
-1.72677704974699

> <r_i_glide_gscore>
-7.21456746685234

> <r_i_glide_lipo>
-2.58470654682644

> <r_i_glide_hbond>
-0.456

> <r_i_glide_metal>
0

> <r_i_glide_rewards>
-1.90578537878788

> <r_i_glide_evdw>
-38.3884315490723

> <r_i_glide_ecoul>
-8.25703716278076

> <r_i_glide_erotb>
0.889901610632714

> <r_i_glide_esite>
0

> <r_i_glide_emodel>
-66.4783533282734

> <r_i_glide_energy>
-46.645468711853

> <r_i_glide_einternal>
4.57071733474731

> <i_i_glide_confnum>
27

> <i_i_glide_posenum>
255

> <r_i_glide_eff_state_penalty>
0

> <s_user_duplicate_titles>
CHEMBL213_lig1190

> <s_m_subgroup_title>
dock_pv

> <s_m_subgroupid>
dock_pv

> <b_m_subgroup_collapsed>
1

$$$$
CHEMBL213_lig1334
                    3D
 Schrodinger Suite 2021-1.
 65 69  0  0  1  0            999 V2000
   26.7797    4.7853   -0.2001 C   0  0  0  0  0  0
   26.3642    4.5783    1.2177 N   0  0  0  0  0  0
   25.2123    3.8505    1.4100 C   0  0  0  0  0  0
   27.1763    5.1119    2.1967 C   0  0  0  0  0  0
   24.5120    4.1843    2.7070 C   0  0  0  0  0  0
   23.1607    3.8677    2.8562 C   0  0  0  0  0  0
   22.4785    4.2499    4.0164 C   0  0  0  0  0  0
   23.1529    4.7777    5.1124 C   0  0  0  0  0  0
   26.5044    5.2851    3.5385 C   0  0  0  0  0  0
   25.1678    4.8804    3.7536 C   0  0  0  0  0  0
   24.5006    5.1790    4.9693 C   0  0  0  0  0  0
   25.2179    5.8506    5.9861 C   0  0  0  0  0  0
   26.5589    6.1766    5.7924 C   0  0  0  0  0  0
   27.1937    5.9145    4.5809 C   0  0  0  0  0  0
   24.7679    3.0291    0.6037 O   0  0  0  0  0  0
   28.3460    5.4503    2.0130 O   0  0  0  0  0  0
   35.2743    4.8520   -0.6194 C   0  0  0  0  0  0
   34.1977    5.4450   -1.2774 C   0  0  0  0  0  0
   33.8466    5.0312   -2.5653 C   0  0  0  0  0  0
   32.8061    5.6470   -3.2140 O   0  0  0  0  0  0
   31.5055    5.2259   -2.8250 C   0  0  0  0  0  0
   30.5226    5.3677   -4.0188 C   0  0  2  0  0  0
   29.1458    6.0062   -3.6831 C   0  0  0  0  0  0
   30.3498    4.1183   -4.6703 O   0  0  0  0  0  0
   28.5782    5.6781   -2.3682 N   0  0  1  0  0  0
   27.3191    6.3964   -2.1586 C   0  0  0  0  0  0
   26.8047    6.2505   -0.7110 C   0  0  0  0  0  0
   28.0228    4.0037   -0.6507 C   0  0  0  0  0  0
   28.3674    4.2498   -2.1310 C   0  0  0  0  0  0
   36.0041    3.8440   -1.2478 C   0  0  0  0  0  0
   35.6563    3.4253   -2.5319 C   0  0  0  0  0  0
   34.5796    4.0172   -3.2030 C   0  0  0  0  0  0
   34.2076    3.5426   -4.6053 C   0  0  0  0  0  0
   34.3818    4.6116   -5.6697 C   0  0  0  0  0  0
   33.4092    5.0473   -6.4878 C   0  0  0  0  0  0
   26.0116    4.3512   -0.8464 H   0  0  0  0  0  0
   22.6086    3.4158    2.0444 H   0  0  0  0  0  0
   21.4164    4.0831    4.1124 H   0  0  0  0  0  0
   22.6080    5.0278    5.9929 H   0  0  0  0  0  0
   24.7265    6.0845    6.9195 H   0  0  0  0  0  0
   27.1107    6.6505    6.5892 H   0  0  0  0  0  0
   28.2237    6.2205    4.4548 H   0  0  0  0  0  0
   35.5452    5.1745    0.3752 H   0  0  0  0  0  0
   33.6385    6.2310   -0.7923 H   0  0  0  0  0  0
   31.4970    4.2049   -2.4370 H   0  0  0  0  0  0
   31.2021    5.8502   -1.9884 H   0  0  0  0  0  0
   30.9836    6.0211   -4.7623 H   0  0  0  0  0  0
   29.2505    7.0894   -3.7709 H   0  0  0  0  0  0
   28.4243    5.7332   -4.4562 H   0  0  0  0  0  0
   29.8372    3.5432   -4.0967 H   0  0  0  0  0  0
   27.5150    7.4500   -2.3402 H   0  0  0  0  0  0
   26.5681    6.0971   -2.8931 H   0  0  0  0  0  0
   27.4072    6.8927   -0.0730 H   0  0  0  0  0  0
   25.7997    6.6627   -0.6775 H   0  0  0  0  0  0
   27.8345    2.9538   -0.4246 H   0  0  0  0  0  0
   28.9086    4.2583   -0.0712 H   0  0  0  0  0  0
   27.6022    3.8725   -2.8120 H   0  0  0  0  0  0
   29.2797    3.6940   -2.3370 H   0  0  0  0  0  0
   36.8448    3.3865   -0.7455 H   0  0  0  0  0  0
   36.2363    2.6443   -3.0029 H   0  0  0  0  0  0
   33.1743    3.1923   -4.5908 H   0  0  0  0  0  0
   34.8142    2.6817   -4.8885 H   0  0  0  0  0  0
   35.3723    5.0403   -5.7607 H   0  0  0  0  0  0
   32.4072    4.6483   -6.4384 H   0  0  0  0  0  0
   33.6088    5.8176   -7.2180 H   0  0  0  0  0  0
  1 27  1  0  0  0
  1 28  1  0  0  0
  1  2  1  0  0  0
  1 36  1  0  0  0
  2  4  1  0  0  0
  2  3  1  0  0  0
  3  5  1  0  0  0
  3 15  2  0  0  0
  4  9  1  0  0  0
  4 16  2  0  0  0
  5 10  2  0  0  0
  5  6  1  0  0  0
  6  7  2  0  0  0
  6 37  1  0  0  0
  7  8  1  0  0  0
  7 38  1  0  0  0
  8 11  2  0  0  0
  8 39  1  0  0  0
  9 10  1  0  0  0
  9 14  2  0  0  0
 10 11  1  0  0  0
 11 12  1  0  0  0
 12 13  2  0  0  0
 12 40  1  0  0  0
 13 14  1  0  0  0
 13 41  1  0  0  0
 14 42  1  0  0  0
 17 30  1  0  0  0
 17 18  2  0  0  0
 17 43  1  0  0  0
 18 19  1  0  0  0
 18 44  1  0  0  0
 19 32  2  0  0  0
 19 20  1  0  0  0
 20 21  1  0  0  0
 21 22  1  0  0  0
 21 45  1  0  0  0
 21 46  1  0  0  0
 22 23  1  0  0  0
 22 24  1  0  0  0
 22 47  1  0  0  0
 23 25  1  0  0  0
 23 48  1  0  0  0
 23 49  1  0  0  0
 24 50  1  0  0  0
 25 26  1  0  0  0
 25 29  1  0  0  0
 26 27  1  0  0  0
 26 51  1  0  0  0
 26 52  1  0  0  0
 27 53  1  0  0  0
 27 54  1  0  0  0
 28 29  1  0  0  0
 28 55  1  0  0  0
 28 56  1  0  0  0
 29 57  1  0  0  0
 29 58  1  0  0  0
 30 31  2  0  0  0
 30 59  1  0  0  0
 31 32  1  0  0  0
 31 60  1  0  0  0
 32 33  1  0  0  0
 33 34  1  0  0  0
 33 61  1  0  0  0
 33 62  1  0  0  0
 34 35  2  0  0  0
 34 63  1  0  0  0
 35 64  1  0  0  0
 35 65  1  0  0  0
M  END
> <s_m_entry_id>
3222

> <s_m_entry_name>
dock_pv.314

> <s_m_Source_Path>
/home/csk/Desktop/cluster/DUD-E-result/adrb1

> <s_m_Source_File>
dock_pv.maegz

> <i_m_Source_File_Index>
314

> <chembl_id>
CHEMBL1083364

> <chembl_pref_name>
None

> <i_lp_mmshare_version>
53161

> <i_f3d_flags>
0

> <r_lp_tautomer_probability>
1

> <s_lp_Force_Field>
OPLS_2005

> <r_lp_Energy>
75.165256

> <b_lp_Chiralities_Consistent>
1

> <s_lp_Variant>
CHEMBL213_lig1334-1

> <s_i_glide_gridfile>
glide-grid_2vt4

> <i_i_glide_lignum>
1598

> <i_i_glide_rotatable_bonds>
9

> <r_i_docking_score>
-7.21367639570354

> <r_i_glide_ligand_efficiency>
-0.206105039877244

> <r_i_glide_ligand_efficiency_sa>
-0.674183251503544

> <r_i_glide_ligand_efficiency_ln>
-1.58356206777863

> <r_i_glide_gscore>
-7.21367639570354

> <r_i_glide_lipo>
-3.35099970524534

> <r_i_glide_hbond>
-0.307115871212421

> <r_i_glide_metal>
0

> <r_i_glide_rewards>
-1.68910554654196

> <r_i_glide_evdw>
-36.5396995544434

> <r_i_glide_ecoul>
-5.13000059127808

> <r_i_glide_erotb>
0.730029793710066

> <r_i_glide_esite>
0

> <r_i_glide_emodel>
-40.9983067707963

> <r_i_glide_energy>
-41.6697001457214

> <r_i_glide_einternal>
11.6038198471069

> <i_i_glide_confnum>
38

> <i_i_glide_posenum>
162

> <r_i_glide_eff_state_penalty>
0

> <s_user_duplicate_titles>
CHEMBL213_lig1334

> <s_m_subgroup_title>
dock_pv

> <s_m_subgroupid>
dock_pv

> <b_m_subgroup_collapsed>
1

$$$$
CHEMBL213_lig1304
                    3D
 Schrodinger Suite 2021-1.
 66 68  0  0  1  0            999 V2000
   30.4659    5.4212   -2.5545 N   0  0  1  0  0  0
   31.5849    4.6481   -3.1027 C   0  0  1  0  0  0
   31.5934    4.7512   -4.6629 C   0  0  0  0  0  0
   32.0726    3.4609   -5.3685 C   0  0  0  0  0  0
   26.2076    4.6505    2.1882 C   0  0  0  0  0  0
   25.4080    3.6458    1.6161 C   0  0  0  0  0  0
   25.4767    3.3811    0.2531 C   0  0  0  0  0  0
   26.3135    4.1344   -0.5629 C   0  0  0  0  0  0
   27.0549    5.1991   -0.0403 C   0  0  0  0  0  0
   27.0079    5.4351    1.3410 C   0  0  0  0  0  0
   24.5588    2.8833    2.3788 O   0  0  0  0  0  0
   26.1684    4.8013    3.5877 N   0  0  0  0  0  0
   27.0363    5.9947    4.5745 S   0  0  0  0  0  0
   25.9593    7.5195    4.3847 C   0  0  0  0  0  0
   28.3485    6.2443    3.9716 O   0  0  0  0  0  0
   26.9320    5.5266    5.9596 O   0  0  0  0  0  0
   27.8659    6.1548   -0.9253 C   0  0  0  0  0  0
   27.9932    5.8400   -2.4434 C   0  0  2  0  0  0
   29.1326    4.8513   -2.8088 C   0  0  0  0  0  0
   28.1678    7.0500   -3.1641 O   0  0  0  0  0  0
   32.9304    5.0663   -2.4520 C   0  0  0  0  0  0
   32.9869    5.4486   -1.1034 C   0  0  0  0  0  0
   34.1883    5.8489   -0.5238 C   0  0  0  0  0  0
   35.3687    5.8634   -1.2635 C   0  0  0  0  0  0
   35.3313    5.4508   -2.6006 C   0  0  0  0  0  0
   34.1317    5.0502   -3.1815 C   0  0  0  0  0  0
   30.9119    2.6036   -5.8533 C   0  0  0  0  0  0
   30.1198    1.8926   -4.9465 C   0  0  0  0  0  0
   29.0070    1.1903   -5.4029 C   0  0  0  0  0  0
   28.6886    1.2041   -6.7580 C   0  0  0  0  0  0
   29.4862    1.8895   -7.6663 C   0  0  0  0  0  0
   30.6083    2.5745   -7.2154 C   0  0  0  0  0  0
   36.5094    6.2916   -0.6111 O   0  0  0  0  0  0
   37.7500    6.2974   -1.3151 C   0  0  0  0  0  0
   30.5747    5.4508   -1.5523 H   0  0  0  0  0  0
   31.4383    3.6080   -2.8047 H   0  0  0  0  0  0
   30.6263    5.0356   -5.0766 H   0  0  0  0  0  0
   32.2135    5.5946   -4.9663 H   0  0  0  0  0  0
   32.6997    3.7323   -6.2204 H   0  0  0  0  0  0
   32.7222    2.8659   -4.7239 H   0  0  0  0  0  0
   24.8738    2.6026   -0.1906 H   0  0  0  0  0  0
   26.3286    3.8915   -1.6145 H   0  0  0  0  0  0
   27.5906    6.2482    1.7369 H   0  0  0  0  0  0
   24.0594    2.2552    1.8523 H   0  0  0  0  0  0
   25.5639    4.1634    4.0828 H   0  0  0  0  0  0
   26.4622    8.3496    4.8771 H   0  0  0  0  0  0
   25.0043    7.3278    4.8720 H   0  0  0  0  0  0
   25.8076    7.7188    3.3245 H   0  0  0  0  0  0
   27.3901    7.1314   -0.8114 H   0  0  0  0  0  0
   28.8632    6.2503   -0.4993 H   0  0  0  0  0  0
   27.0512    5.4500   -2.8261 H   0  0  0  0  0  0
   29.0190    3.9355   -2.2259 H   0  0  0  0  0  0
   29.0057    4.5548   -3.8489 H   0  0  0  0  0  0
   28.4371    6.8348   -4.0592 H   0  0  0  0  0  0
   32.1016    5.4492   -0.4885 H   0  0  0  0  0  0
   34.2047    6.1599    0.5109 H   0  0  0  0  0  0
   36.2233    5.4445   -3.2120 H   0  0  0  0  0  0
   34.1663    4.7438   -4.2158 H   0  0  0  0  0  0
   30.3400    1.9074   -3.8892 H   0  0  0  0  0  0
   28.3747    0.6582   -4.7089 H   0  0  0  0  0  0
   27.8150    0.6808   -7.1135 H   0  0  0  0  0  0
   29.2243    1.9096   -8.7150 H   0  0  0  0  0  0
   31.2221    3.1080   -7.9255 H   0  0  0  0  0  0
   38.5353    6.6680   -0.6568 H   0  0  0  0  0  0
   38.0393    5.2935   -1.6331 H   0  0  0  0  0  0
   37.7150    6.9525   -2.1870 H   0  0  0  0  0  0
  1 19  1  0  0  0
  1  2  1  0  0  0
  1 35  1  0  0  0
  2  3  1  0  0  0
  2 21  1  0  0  0
  2 36  1  0  0  0
  3  4  1  0  0  0
  3 37  1  0  0  0
  3 38  1  0  0  0
  4 27  1  0  0  0
  4 39  1  0  0  0
  4 40  1  0  0  0
  5 10  1  0  0  0
  5  6  2  0  0  0
  5 12  1  0  0  0
  6 11  1  0  0  0
  6  7  1  0  0  0
  7  8  2  0  0  0
  7 41  1  0  0  0
  8  9  1  0  0  0
  8 42  1  0  0  0
  9 10  2  0  0  0
  9 17  1  0  0  0
 10 43  1  0  0  0
 11 44  1  0  0  0
 12 13  1  0  0  0
 12 45  1  0  0  0
 13 14  1  0  0  0
 13 15  2  0  0  0
 13 16  2  0  0  0
 14 46  1  0  0  0
 14 47  1  0  0  0
 14 48  1  0  0  0
 17 18  1  0  0  0
 17 49  1  0  0  0
 17 50  1  0  0  0
 18 19  1  0  0  0
 18 20  1  0  0  0
 18 51  1  0  0  0
 19 52  1  0  0  0
 19 53  1  0  0  0
 20 54  1  0  0  0
 21 22  2  0  0  0
 21 26  1  0  0  0
 22 23  1  0  0  0
 22 55  1  0  0  0
 23 24  2  0  0  0
 23 56  1  0  0  0
 24 25  1  0  0  0
 24 33  1  0  0  0
 25 26  2  0  0  0
 25 57  1  0  0  0
 26 58  1  0  0  0
 27 28  2  0  0  0
 27 32  1  0  0  0
 28 29  1  0  0  0
 28 59  1  0  0  0
 29 30  2  0  0  0
 29 60  1  0  0  0
 30 31  1  0  0  0
 30 61  1  0  0  0
 31 32  2  0  0  0
 31 62  1  0  0  0
 32 63  1  0  0  0
 33 34  1  0  0  0
 34 64  1  0  0  0
 34 65  1  0  0  0
 34 66  1  0  0  0
M  END
> <s_m_entry_id>
3223

> <s_m_entry_name>
dock_pv.315

> <s_m_Source_Path>
/home/csk/Desktop/cluster/DUD-E-result/adrb1

> <s_m_Source_File>
dock_pv.maegz

> <i_m_Source_File_Index>
315

> <chembl_id>
CHEMBL251347

> <chembl_pref_name>
None

> <i_lp_mmshare_version>
53161

> <i_f3d_flags>
0

> <r_lp_tautomer_probability>
1

> <s_lp_Force_Field>
OPLS_2005

> <r_lp_Energy>
12.069955

> <b_lp_Chiralities_Consistent>
1

> <s_lp_Variant>
CHEMBL213_lig1304-1

> <s_i_glide_gridfile>
glide-grid_2vt4

> <i_i_glide_lignum>
1556

> <i_i_glide_rotatable_bonds>
14

> <r_i_docking_score>
-7.21261158904954

> <r_i_glide_ligand_efficiency>
-0.212135634972045

> <r_i_glide_ligand_efficiency_sa>
-0.687237105719115

> <r_i_glide_ligand_efficiency_ln>
-1.59346820692353

> <r_i_glide_gscore>
-7.21261158904954

> <r_i_glide_lipo>
-3.36984488346942

> <r_i_glide_hbond>
0

> <r_i_glide_metal>
0

> <r_i_glide_rewards>
-1.1353768153846

> <r_i_glide_evdw>
-56.4866065979004

> <r_i_glide_ecoul>
-4.40912485122681

> <r_i_glide_erotb>
0.778309167383521

> <r_i_glide_esite>
0

> <r_i_glide_emodel>
-80.4724010570335

> <r_i_glide_energy>
-60.8957314491272

> <r_i_glide_einternal>
13.922384262085

> <i_i_glide_confnum>
88

> <i_i_glide_posenum>
373

> <r_i_glide_eff_state_penalty>
0

> <s_user_duplicate_titles>
CHEMBL213_lig1304,417113

> <s_m_subgroup_title>
dock_pv

> <s_m_subgroupid>
dock_pv

> <b_m_subgroup_collapsed>
1

$$$$
CHEMBL213_lig1039
                    3D
 Schrodinger Suite 2021-1.
 62 64  0  0  1  0            999 V2000
   26.7110    6.5827   -4.0164 C   0  0  0  0  0  0
   27.9811    5.8912   -3.4592 C   0  0  0  0  0  0
   27.9097    4.3614   -3.6942 C   0  0  0  0  0  0
   25.2219    4.4904    3.3032 C   0  0  0  0  0  0
   24.6191    3.8503    2.2216 C   0  0  0  0  0  0
   25.2272    3.8291    0.9674 C   0  0  0  0  0  0
   26.4913    4.3985    0.7915 C   0  0  0  0  0  0
   26.4887    5.0425    3.1477 C   0  0  0  0  0  0
   27.1373    4.9447    1.9131 C   0  0  0  0  0  0
   28.4126    5.4500    1.7969 O   0  0  0  0  0  0
   29.2050    5.4163    3.0070 C   0  0  0  0  0  0
   28.4506    5.9959    4.2385 C   0  0  0  0  0  0
   27.1375    5.7006    4.1913 N   0  0  0  0  0  0
   28.9693    6.6498    5.1421 O   0  0  0  0  0  0
   23.4079    3.2607    2.3848 O   0  0  0  0  0  0
   27.0741    4.5123   -0.6168 C   0  0  1  0  0  0
   27.1364    5.9968   -1.0445 C   0  0  0  0  0  0
   28.3149    3.8500   -0.7704 O   0  0  0  0  0  0
   28.1147    6.3397   -2.0763 N   0  0  2  0  0  0
   29.2699    6.4149   -4.1649 C   0  0  0  0  0  0
   30.6265    5.7424   -3.8689 C   0  0  0  0  0  0
   31.4802    5.4499   -4.9354 C   0  0  0  0  0  0
   32.7409    4.9054   -4.7075 C   0  0  0  0  0  0
   33.1941    4.6528   -3.4049 C   0  0  0  0  0  0
   32.3216    4.9217   -2.3405 C   0  0  0  0  0  0
   31.0551    5.4495   -2.5694 C   0  0  0  0  0  0
   34.6237    4.0973   -3.1782 C   0  0  0  0  0  0
   35.0566    4.0954   -1.6889 C   0  0  0  0  0  0
   35.6691    4.9549   -3.9288 C   0  0  0  0  0  0
   34.6933    2.6505   -3.7062 C   0  0  0  0  0  0
   26.2760    6.0065   -4.8251 H   0  0  0  0  0  0
   25.8888    6.6502   -3.3082 H   0  0  0  0  0  0
   26.9112    7.5869   -4.3860 H   0  0  0  0  0  0
   27.9245    4.1270   -4.7595 H   0  0  0  0  0  0
   28.7615    3.8429   -3.2585 H   0  0  0  0  0  0
   27.0081    3.9063   -3.3030 H   0  0  0  0  0  0
   24.7102    4.5344    4.2527 H   0  0  0  0  0  0
   24.7076    3.3925    0.1250 H   0  0  0  0  0  0
   29.4081    4.3710    3.2424 H   0  0  0  0  0  0
   30.1529    5.9371    2.8731 H   0  0  0  0  0  0
   26.6111    5.9922    5.0010 H   0  0  0  0  0  0
   23.0119    2.9933    1.5511 H   0  0  0  0  0  0
   26.3848    4.0064   -1.2904 H   0  0  0  0  0  0
   27.4519    6.5903   -0.1884 H   0  0  0  0  0  0
   26.1393    6.3668   -1.2743 H   0  0  0  0  0  0
   28.2130    3.1604   -1.4417 H   0  0  0  0  0  0
   28.2575    7.3382   -2.0760 H   0  0  0  0  0  0
   29.3831    7.4944   -4.0423 H   0  0  0  0  0  0
   29.0907    6.2536   -5.2156 H   0  0  0  0  0  0
   31.1800    5.6728   -5.9490 H   0  0  0  0  0  0
   33.3739    4.6983   -5.5586 H   0  0  0  0  0  0
   32.6045    4.7319   -1.3175 H   0  0  0  0  0  0
   30.4275    5.6370   -1.7144 H   0  0  0  0  0  0
   36.0783    3.7306   -1.5714 H   0  0  0  0  0  0
   34.4258    3.4509   -1.0826 H   0  0  0  0  0  0
   35.0229    5.0967   -1.2563 H   0  0  0  0  0  0
   35.5082    4.9853   -5.0055 H   0  0  0  0  0  0
   35.6551    5.9802   -3.5671 H   0  0  0  0  0  0
   36.6828    4.5801   -3.7842 H   0  0  0  0  0  0
   34.4986    2.6111   -4.7779 H   0  0  0  0  0  0
   35.6769    2.2055   -3.5440 H   0  0  0  0  0  0
   33.9589    2.0121   -3.2137 H   0  0  0  0  0  0
  1  2  1  0  0  0
  1 31  1  0  0  0
  1 32  1  0  0  0
  1 33  1  0  0  0
  2 19  1  0  0  0
  2  3  1  0  0  0
  2 20  1  0  0  0
  3 34  1  0  0  0
  3 35  1  0  0  0
  3 36  1  0  0  0
  4  8  2  0  0  0
  4  5  1  0  0  0
  4 37  1  0  0  0
  5 15  1  0  0  0
  5  6  2  0  0  0
  6  7  1  0  0  0
  6 38  1  0  0  0
  7 16  1  0  0  0
  7  9  2  0  0  0
  8  9  1  0  0  0
  8 13  1  0  0  0
  9 10  1  0  0  0
 10 11  1  0  0  0
 11 12  1  0  0  0
 11 39  1  0  0  0
 11 40  1  0  0  0
 12 13  1  0  0  0
 12 14  2  0  0  0
 13 41  1  0  0  0
 15 42  1  0  0  0
 16 17  1  0  0  0
 16 18  1  0  0  0
 16 43  1  0  0  0
 17 19  1  0  0  0
 17 44  1  0  0  0
 17 45  1  0  0  0
 18 46  1  0  0  0
 19 47  1  0  0  0
 20 21  1  0  0  0
 20 48  1  0  0  0
 20 49  1  0  0  0
 21 22  2  0  0  0
 21 26  1  0  0  0
 22 23  1  0  0  0
 22 50  1  0  0  0
 23 24  2  0  0  0
 23 51  1  0  0  0
 24 25  1  0  0  0
 24 27  1  0  0  0
 25 26  2  0  0  0
 25 52  1  0  0  0
 26 53  1  0  0  0
 27 28  1  0  0  0
 27 29  1  0  0  0
 27 30  1  0  0  0
 28 54  1  0  0  0
 28 55  1  0  0  0
 28 56  1  0  0  0
 29 57  1  0  0  0
 29 58  1  0  0  0
 29 59  1  0  0  0
 30 60  1  0  0  0
 30 61  1  0  0  0
 30 62  1  0  0  0
M  END
> <s_m_entry_id>
3224

> <s_m_entry_name>
dock_pv.316

> <s_m_Source_Path>
/home/csk/Desktop/cluster/DUD-E-result/adrb1

> <s_m_Source_File>
dock_pv.maegz

> <i_m_Source_File_Index>
316

> <chembl_id>
CHEMBL606208

> <chembl_pref_name>
None

> <i_lp_mmshare_version>
53161

> <i_f3d_flags>
0

> <r_lp_tautomer_probability>
0.999999999999998

> <s_lp_Force_Field>
OPLS_2005

> <r_lp_Energy>
38.300943

> <b_lp_Chiralities_Consistent>
1

> <s_lp_Variant>
CHEMBL213_lig1039-2

> <s_i_glide_gridfile>
glide-grid_2vt4

> <i_i_glide_lignum>
1199

> <i_i_glide_rotatable_bonds>
9

> <r_i_docking_score>
-7.21218521127878

> <r_i_glide_ligand_efficiency>
-0.240406173709293

> <r_i_glide_ligand_efficiency_sa>
-0.746997876734609

> <r_i_glide_ligand_efficiency_ln>
-1.63868706305442

> <r_i_glide_gscore>
-7.21218521127878

> <r_i_glide_lipo>
-2.67071955049901

> <r_i_glide_hbond>
-0.287771706589586

> <r_i_glide_metal>
0

> <r_i_glide_rewards>
-1.18674310649472

> <r_i_glide_evdw>
-43.2574615478516

> <r_i_glide_ecoul>
-10.6623659133911

> <r_i_glide_erotb>
0.695277116705782

> <r_i_glide_esite>
0

> <r_i_glide_emodel>
-66.632706854981

> <r_i_glide_energy>
-53.9198274612427

> <r_i_glide_einternal>
11.8917102813721

> <i_i_glide_confnum>
29

> <i_i_glide_posenum>
400

> <r_i_glide_eff_state_penalty>
0

> <s_user_duplicate_titles>
CHEMBL213_lig1039,602913

> <s_m_subgroup_title>
dock_pv

> <s_m_subgroupid>
dock_pv

> <b_m_subgroup_collapsed>
1

$$$$
CHEMBL213_lig1471
                    3D
 Schrodinger Suite 2021-1.
 67 70  0  0  1  0            999 V2000
   34.0685    5.7996   -0.6537 C   0  0  0  0  0  0
   35.3122    6.0399   -0.0675 C   0  0  0  0  0  0
   36.4188    5.2525   -0.4230 C   0  0  0  0  0  0
   36.2565    4.2606   -1.3964 C   0  0  0  0  0  0
   35.0088    4.0045   -1.9808 C   0  0  0  0  0  0
   33.9148    4.7793   -1.5898 C   0  0  0  0  0  0
   35.4075    7.0499    0.8553 O   0  0  0  0  0  0
   37.7944    5.4390    0.2174 C   0  0  0  0  0  0
   38.3194    4.2501    0.7849 O   0  0  0  0  0  0
   34.8298    2.8542   -2.9773 C   0  0  1  0  0  0
   34.8121    3.2728   -4.4697 C   0  0  0  0  0  0
   35.8079    1.8500   -2.8150 O   0  0  0  0  0  0
   33.4693    3.5803   -4.9573 N   0  0  2  0  0  0
   33.1973    5.0086   -5.0048 C   0  0  0  0  0  0
   31.7482    5.2704   -5.4580 C   0  0  0  0  0  0
   30.6611    5.2660   -4.3766 C   0  0  0  0  0  0
   29.6948    6.2710   -4.3953 C   0  0  0  0  0  0
   28.6238    6.2450   -3.5023 C   0  0  0  0  0  0
   28.5016    5.2200   -2.5521 C   0  0  0  0  0  0
   29.5106    4.2500   -2.5066 C   0  0  0  0  0  0
   30.5682    4.2567   -3.4154 C   0  0  0  0  0  0
   27.4032    5.1519   -1.6903 N   0  0  0  0  0  0
   26.5597    6.2811   -1.2753 C   0  0  0  0  0  0
   26.7438    6.5084    0.2402 C   0  0  0  0  0  0
   26.3241    5.2866    1.0923 C   0  0  0  0  0  0
   27.0928    4.1090    0.5297 C   0  0  0  0  0  0
   26.9093    3.9602   -0.9774 C   0  0  0  0  0  0
   26.6083    5.4855    2.5908 C   0  0  0  0  0  0
   25.5664    5.3816    3.5152 C   0  0  0  0  0  0
   25.7722    5.7274    4.8481 C   0  0  0  0  0  0
   27.0423    6.1008    5.2785 C   0  0  0  0  0  0
   28.1095    6.1247    4.3852 C   0  0  0  0  0  0
   27.8928    5.8133    3.0461 C   0  0  0  0  0  0
   33.2067    6.3869   -0.3736 H   0  0  0  0  0  0
   37.1113    3.6638   -1.6805 H   0  0  0  0  0  0
   32.9369    4.5867   -2.0004 H   0  0  0  0  0  0
   34.5623    7.5038    0.9609 H   0  0  0  0  0  0
   38.4941    5.8124   -0.5312 H   0  0  0  0  0  0
   37.7629    6.1911    1.0053 H   0  0  0  0  0  0
   38.5427    3.6312    0.0707 H   0  0  0  0  0  0
   33.9015    2.3365   -2.7363 H   0  0  0  0  0  0
   35.5350    4.0656   -4.6768 H   0  0  0  0  0  0
   35.1249    2.4234   -5.0796 H   0  0  0  0  0  0
   35.7451    1.2081   -3.5278 H   0  0  0  0  0  0
   32.7643    3.1075   -4.4123 H   0  0  0  0  0  0
   33.3491    5.4502   -4.0231 H   0  0  0  0  0  0
   33.8934    5.5148   -5.6767 H   0  0  0  0  0  0
   31.7513    6.2500   -5.9310 H   0  0  0  0  0  0
   31.4619    4.5825   -6.2551 H   0  0  0  0  0  0
   29.7606    7.0637   -5.1265 H   0  0  0  0  0  0
   27.8750    7.0167   -3.5922 H   0  0  0  0  0  0
   29.4661    3.4565   -1.7773 H   0  0  0  0  0  0
   31.2910    3.4584   -3.3730 H   0  0  0  0  0  0
   26.7889    7.1846   -1.8270 H   0  0  0  0  0  0
   25.5187    6.0371   -1.4978 H   0  0  0  0  0  0
   27.8079    6.6500    0.3861 H   0  0  0  0  0  0
   26.2081    7.4096    0.5352 H   0  0  0  0  0  0
   25.2760    5.0494    0.9437 H   0  0  0  0  0  0
   26.7336    3.1921    0.9958 H   0  0  0  0  0  0
   28.1553    4.2500    0.7042 H   0  0  0  0  0  0
   25.8546    3.8096   -1.2146 H   0  0  0  0  0  0
   27.4078    3.0500   -1.2379 H   0  0  0  0  0  0
   24.5882    5.0524    3.1925 H   0  0  0  0  0  0
   24.9515    5.6912    5.5500 H   0  0  0  0  0  0
   27.1988    6.3670    6.3142 H   0  0  0  0  0  0
   29.0981    6.4014    4.7219 H   0  0  0  0  0  0
   28.7257    5.8500    2.3616 H   0  0  0  0  0  0
  1  2  2  0  0  0
  1  6  1  0  0  0
  1 34  1  0  0  0
  2  3  1  0  0  0
  2  7  1  0  0  0
  3  4  2  0  0  0
  3  8  1  0  0  0
  4  5  1  0  0  0
  4 35  1  0  0  0
  5  6  2  0  0  0
  5 10  1  0  0  0
  6 36  1  0  0  0
  7 37  1  0  0  0
  8  9  1  0  0  0
  8 38  1  0  0  0
  8 39  1  0  0  0
  9 40  1  0  0  0
 10 11  1  0  0  0
 10 12  1  0  0  0
 10 41  1  0  0  0
 11 13  1  0  0  0
 11 42  1  0  0  0
 11 43  1  0  0  0
 12 44  1  0  0  0
 13 14  1  0  0  0
 13 45  1  0  0  0
 14 15  1  0  0  0
 14 46  1  0  0  0
 14 47  1  0  0  0
 15 16  1  0  0  0
 15 48  1  0  0  0
 15 49  1  0  0  0
 16 17  2  0  0  0
 16 21  1  0  0  0
 17 18  1  0  0  0
 17 50  1  0  0  0
 18 19  2  0  0  0
 18 51  1  0  0  0
 19 20  1  0  0  0
 19 22  1  0  0  0
 20 21  2  0  0  0
 20 52  1  0  0  0
 21 53  1  0  0  0
 22 23  1  0  0  0
 22 27  1  0  0  0
 23 24  1  0  0  0
 23 54  1  0  0  0
 23 55  1  0  0  0
 24 25  1  0  0  0
 24 56  1  0  0  0
 24 57  1  0  0  0
 25 26  1  0  0  0
 25 28  1  0  0  0
 25 58  1  0  0  0
 26 27  1  0  0  0
 26 59  1  0  0  0
 26 60  1  0  0  0
 27 61  1  0  0  0
 27 62  1  0  0  0
 28 29  2  0  0  0
 28 33  1  0  0  0
 29 30  1  0  0  0
 29 63  1  0  0  0
 30 31  2  0  0  0
 30 64  1  0  0  0
 31 32  1  0  0  0
 31 65  1  0  0  0
 32 33  2  0  0  0
 32 66  1  0  0  0
 33 67  1  0  0  0
M  END
> <s_m_entry_id>
3225

> <s_m_entry_name>
dock_pv.317

> <s_m_Source_Path>
/home/csk/Desktop/cluster/DUD-E-result/adrb1

> <s_m_Source_File>
dock_pv.maegz

> <i_m_Source_File_Index>
317

> <chembl_id>
CHEMBL3290974

> <chembl_pref_name>
None

> <i_lp_mmshare_version>
53161

> <i_f3d_flags>
0

> <r_lp_tautomer_probability>
0.999999999997365

> <s_lp_Force_Field>
OPLS_2005

> <r_lp_Energy>
36.438206

> <b_lp_Chiralities_Consistent>
1

> <s_lp_Variant>
CHEMBL213_lig1471-2

> <s_i_glide_gridfile>
glide-grid_2vt4

> <i_i_glide_lignum>
1811

> <i_i_glide_rotatable_bonds>
12

> <r_i_docking_score>
-7.2101659698602

> <r_i_glide_ligand_efficiency>
-0.218489877874551

> <r_i_glide_ligand_efficiency_sa>
-0.700813783222419

> <r_i_glide_ligand_efficiency_ln>
-1.60350357945549

> <r_i_glide_gscore>
-7.2101659698602

> <r_i_glide_lipo>
-3.16307850741939

> <r_i_glide_hbond>
-0.673430719161876

> <r_i_glide_metal>
0

> <r_i_glide_rewards>
-1.01726742852257

> <r_i_glide_evdw>
-35.9520149230957

> <r_i_glide_ecoul>
-9.38890743255615

> <r_i_glide_erotb>
0.903344777960012

> <r_i_glide_esite>
-0.0537972316781614

> <r_i_glide_emodel>
-53.2379786639415

> <r_i_glide_energy>
-45.3409223556519

> <r_i_glide_einternal>
8.44584465026855

> <i_i_glide_confnum>
85

> <i_i_glide_posenum>
102

> <r_i_glide_eff_state_penalty>
0

> <s_user_duplicate_titles>
CHEMBL213_lig1471

> <s_m_subgroup_title>
dock_pv

> <s_m_subgroupid>
dock_pv

> <b_m_subgroup_collapsed>
1

$$$$
CHEMBL213_lig1270
                    3D
 Schrodinger Suite 2021-1.
 60 63  0  0  1  0            999 V2000
   35.3005    4.1109   -1.9639 N   0  0  0  0  0  0
   34.2462    3.9617   -2.8581 C   0  0  0  0  0  0
   33.1525    4.7311   -2.4845 N   0  0  0  0  0  0
   33.1869    5.7779   -1.5635 N   0  0  0  0  0  0
   34.2108    5.8498   -0.7994 C   0  0  0  0  0  0
   35.3830    4.9889   -0.8967 C   0  0  0  0  0  0
   36.3154    5.0786   -0.0938 O   0  0  0  0  0  0
   34.2465    3.1828   -3.8186 O   0  0  0  0  0  0
   36.5065    3.3054   -2.2428 C   0  0  0  0  0  0
   31.8487    4.4649   -3.1073 C   0  0  0  0  0  0
   31.5301    5.3836   -4.3074 C   0  0  0  0  0  0
   30.1439    5.1322   -4.9463 C   0  0  0  0  0  0
   28.9429    5.8747   -4.3076 C   0  0  0  0  0  0
   28.7645    5.6350   -2.8771 N   0  0  0  0  0  0
   27.5123    4.9694   -0.3202 N   0  0  0  0  0  0
   27.6559    6.3386   -0.8103 C   0  0  0  0  0  0
   27.6873    6.4734   -2.3469 C   0  0  0  0  0  0
   28.4042    4.2500   -2.5630 C   0  0  0  0  0  0
   28.4002    4.0493   -1.0268 C   0  0  0  0  0  0
   26.5274    4.5799    0.5689 C   0  0  0  0  0  0
   25.4191    3.8918    0.0784 C   0  0  0  0  0  0
   24.3522    3.5544    0.9002 C   0  0  0  0  0  0
   24.3555    3.9136    2.2425 C   0  0  0  0  0  0
   26.5876    4.9114    1.9609 C   0  0  0  0  0  0
   25.4572    4.6224    2.7862 C   0  0  0  0  0  0
   25.4552    5.0646    4.1270 C   0  0  0  0  0  0
   26.5541    5.7312    4.6629 C   0  0  0  0  0  0
   27.6972    5.9572    3.8922 C   0  0  0  0  0  0
   27.7142    5.5367    2.5643 C   0  0  0  0  0  0
   28.8289    6.5988    4.3496 O   0  0  0  0  0  0
   28.7239    7.4501    5.4838 C   0  0  0  0  0  0
   34.2099    6.6260   -0.0390 H   0  0  0  0  0  0
   36.3992    2.2918   -1.8446 H   0  0  0  0  0  0
   36.7029    3.2318   -3.3153 H   0  0  0  0  0  0
   37.4079    3.7459   -1.8131 H   0  0  0  0  0  0
   31.7458    3.4219   -3.4134 H   0  0  0  0  0  0
   31.0927    4.5769   -2.3343 H   0  0  0  0  0  0
   31.6014    6.4308   -4.0165 H   0  0  0  0  0  0
   32.2914    5.2276   -5.0728 H   0  0  0  0  0  0
   30.2030    5.4839   -5.9770 H   0  0  0  0  0  0
   29.9324    4.0674   -5.0517 H   0  0  0  0  0  0
   29.0871    6.9457   -4.4633 H   0  0  0  0  0  0
   28.0174    5.6019   -4.8149 H   0  0  0  0  0  0
   26.8899    6.9891   -0.3833 H   0  0  0  0  0  0
   28.6121    6.6508   -0.4152 H   0  0  0  0  0  0
   27.8658    7.5169   -2.6140 H   0  0  0  0  0  0
   26.7217    6.1986   -2.7778 H   0  0  0  0  0  0
   27.4284    3.9940   -2.9811 H   0  0  0  0  0  0
   29.1136    3.5559   -3.0098 H   0  0  0  0  0  0
   28.0666    3.0501   -0.7961 H   0  0  0  0  0  0
   29.4079    4.1355   -0.6192 H   0  0  0  0  0  0
   25.3783    3.6305   -0.9696 H   0  0  0  0  0  0
   23.4972    3.0501    0.4744 H   0  0  0  0  0  0
   23.5027    3.6848    2.8668 H   0  0  0  0  0  0
   24.5854    4.8822    4.7440 H   0  0  0  0  0  0
   26.5102    6.0555    5.6920 H   0  0  0  0  0  0
   28.5951    5.7271    1.9722 H   0  0  0  0  0  0
   29.6489    8.0179    5.5843 H   0  0  0  0  0  0
   27.9132    8.1675    5.3649 H   0  0  0  0  0  0
   28.5748    6.8860    6.4039 H   0  0  0  0  0  0
  1  6  1  0  0  0
  1  9  1  0  0  0
  1  2  1  0  0  0
  2  8  2  0  0  0
  2  3  1  0  0  0
  3 10  1  0  0  0
  3  4  1  0  0  0
  4  5  2  0  0  0
  5  6  1  0  0  0
  5 32  1  0  0  0
  6  7  2  0  0  0
  9 33  1  0  0  0
  9 34  1  0  0  0
  9 35  1  0  0  0
 10 11  1  0  0  0
 10 36  1  0  0  0
 10 37  1  0  0  0
 11 12  1  0  0  0
 11 38  1  0  0  0
 11 39  1  0  0  0
 12 13  1  0  0  0
 12 40  1  0  0  0
 12 41  1  0  0  0
 13 14  1  0  0  0
 13 42  1  0  0  0
 13 43  1  0  0  0
 14 17  1  0  0  0
 14 18  1  0  0  0
 15 19  1  0  0  0
 15 16  1  0  0  0
 15 20  1  0  0  0
 16 17  1  0  0  0
 16 44  1  0  0  0
 16 45  1  0  0  0
 17 46  1  0  0  0
 17 47  1  0  0  0
 18 19  1  0  0  0
 18 48  1  0  0  0
 18 49  1  0  0  0
 19 50  1  0  0  0
 19 51  1  0  0  0
 20 21  2  0  0  0
 20 24  1  0  0  0
 21 22  1  0  0  0
 21 52  1  0  0  0
 22 23  2  0  0  0
 22 53  1  0  0  0
 23 25  1  0  0  0
 23 54  1  0  0  0
 24 25  2  0  0  0
 24 29  1  0  0  0
 25 26  1  0  0  0
 26 27  2  0  0  0
 26 55  1  0  0  0
 27 28  1  0  0  0
 27 56  1  0  0  0
 28 29  2  0  0  0
 28 30  1  0  0  0
 29 57  1  0  0  0
 30 31  1  0  0  0
 31 58  1  0  0  0
 31 59  1  0  0  0
 31 60  1  0  0  0
M  ISO  1  31  11
M  END
> <s_m_entry_id>
3226

> <s_m_entry_name>
dock_pv.318

> <s_m_Source_Path>
/home/csk/Desktop/cluster/DUD-E-result/adrb1

> <s_m_Source_File>
dock_pv.maegz

> <i_m_Source_File_Index>
318

> <chembl_id>
CHEMBL199824

> <chembl_pref_name>
None

> <i_lp_mmshare_version>
53161

> <i_f3d_flags>
0

> <r_lp_tautomer_probability>
1

> <s_lp_Force_Field>
OPLS_2005

> <r_lp_Energy>
68.630035

> <b_lp_Chiralities_Consistent>
1

> <s_lp_Variant>
CHEMBL213_lig1270-1

> <s_i_glide_gridfile>
glide-grid_2vt4

> <i_i_glide_lignum>
1522

> <i_i_glide_rotatable_bonds>
7

> <r_i_docking_score>
-7.20695916721539

> <r_i_glide_ligand_efficiency>
-0.232482553781142

> <r_i_glide_ligand_efficiency_sa>
-0.730316195630654

> <r_i_glide_ligand_efficiency_ln>
-1.62539015898045

> <r_i_glide_gscore>
-7.20695916721539

> <r_i_glide_lipo>
-3.41412365879346

> <r_i_glide_hbond>
-0.0544944126532855

> <r_i_glide_metal>
0

> <r_i_glide_rewards>
-1.62292284918684

> <r_i_glide_evdw>
-47.341869354248

> <r_i_glide_ecoul>
-2.74235606193542

> <r_i_glide_erotb>
0.663028630420919

> <r_i_glide_esite>
0

> <r_i_glide_emodel>
-62.031611463094

> <r_i_glide_energy>
-50.0842254161835

> <r_i_glide_einternal>
13.5058279037476

> <i_i_glide_confnum>
25

> <i_i_glide_posenum>
33

> <r_i_glide_eff_state_penalty>
0

> <s_user_duplicate_titles>
CHEMBL213_lig1270,335202

> <s_m_subgroup_title>
dock_pv

> <s_m_subgroupid>
dock_pv

> <b_m_subgroup_collapsed>
1

$$$$
CHEMBL213_lig456
                    3D
 Schrodinger Suite 2021-1.
 62 65  0  0  1  0            999 V2000
   23.7911    4.2500    3.5405 C   0  0  0  0  0  0
   24.6080    5.0090    4.3848 C   0  0  0  0  0  0
   25.5550    4.1696    1.8667 C   0  0  0  0  0  0
   24.2533    3.8550    2.2907 C   0  0  0  0  0  0
   26.3957    4.8616    2.7677 C   0  0  0  0  0  0
   25.9137    5.2975    4.0001 C   0  0  0  0  0  0
   26.8463    5.9921    4.7523 N   0  0  0  0  0  0
   28.1210    6.1037    4.2497 C   0  0  0  0  0  0
   28.1051    5.2715    2.6213 S   0  0  0  0  0  0
   29.0888    6.6500    4.7736 O   0  0  0  0  0  0
   24.1240    5.4501    5.5885 O   0  0  0  0  0  0
   26.0064    3.7145    0.4659 C   0  0  2  0  0  0
   26.0141    4.8244   -0.6101 C   0  0  0  0  0  0
   27.0773    5.8035   -0.4146 N   0  0  2  0  0  0
   27.0092    6.9036   -1.3680 C   0  0  0  0  0  0
   27.2221    6.5318   -2.8597 C   0  0  0  0  0  0
   28.5822    5.9295   -3.2114 C   0  0  0  0  0  0
   29.4748    6.6422   -4.0149 C   0  0  0  0  0  0
   30.7116    6.0897   -4.3347 C   0  0  0  0  0  0
   31.0728    4.8257   -3.8711 C   0  0  0  0  0  0
   30.1681    4.1025   -3.0875 C   0  0  0  0  0  0
   28.9292    4.6501   -2.7679 C   0  0  0  0  0  0
   25.2299    2.6500   -0.0672 O   0  0  0  0  0  0
   32.4477    4.2808   -4.2561 C   0  0  0  0  0  0
   32.9927    3.3156   -3.3042 N   0  0  2  0  0  0
   34.3969    3.0063   -3.5635 C   0  0  0  0  0  0
   35.3745    4.1511   -3.2069 C   0  0  0  0  0  0
   35.3871    4.5064   -1.7244 C   0  0  0  0  0  0
   36.2079    3.7918   -0.8468 C   0  0  0  0  0  0
   36.2272    4.1032    0.5119 C   0  0  0  0  0  0
   35.4264    5.1329    1.0043 C   0  0  0  0  0  0
   34.6061    5.8499    0.1346 C   0  0  0  0  0  0
   34.5837    5.5398   -1.2252 C   0  0  0  0  0  0
   33.7836    6.2499   -2.0521 F   0  0  0  0  0  0
   22.7773    4.0116    3.8290 H   0  0  0  0  0  0
   23.5759    3.3106    1.6489 H   0  0  0  0  0  0
   26.6117    6.4078    5.6423 H   0  0  0  0  0  0
   23.1843    5.2820    5.6918 H   0  0  0  0  0  0
   27.0080    3.3045    0.5448 H   0  0  0  0  0  0
   26.2079    4.3529   -1.5739 H   0  0  0  0  0  0
   25.0395    5.3144   -0.6570 H   0  0  0  0  0  0
   27.9794    5.3549   -0.5063 H   0  0  0  0  0  0
   26.0757    7.4497   -1.2217 H   0  0  0  0  0  0
   27.8080    7.5836   -1.0795 H   0  0  0  0  0  0
   26.4502    5.8501   -3.2009 H   0  0  0  0  0  0
   27.0598    7.4274   -3.4621 H   0  0  0  0  0  0
   29.2212    7.6255   -4.3856 H   0  0  0  0  0  0
   31.4031    6.6499   -4.9406 H   0  0  0  0  0  0
   30.4075    3.1123   -2.7289 H   0  0  0  0  0  0
   28.2447    4.0566   -2.1832 H   0  0  0  0  0  0
   24.5603    3.0227   -0.6590 H   0  0  0  0  0  0
   32.3185    3.7655   -5.2092 H   0  0  0  0  0  0
   33.1225    5.1118   -4.4638 H   0  0  0  0  0  0
   32.4572    2.4613   -3.3608 H   0  0  0  0  0  0
   34.6282    2.1635   -2.9103 H   0  0  0  0  0  0
   34.5530    2.6489   -4.5823 H   0  0  0  0  0  0
   36.3822    3.8552   -3.5025 H   0  0  0  0  0  0
   35.1806    5.0480   -3.7955 H   0  0  0  0  0  0
   36.8364    2.9930   -1.2148 H   0  0  0  0  0  0
   36.8603    3.5372    1.1789 H   0  0  0  0  0  0
   35.4353    5.3720    2.0569 H   0  0  0  0  0  0
   33.9866    6.6494    0.5124 H   0  0  0  0  0  0
  1  4  1  0  0  0
  1  2  2  0  0  0
  1 35  1  0  0  0
  2 11  1  0  0  0
  2  6  1  0  0  0
  3 12  1  0  0  0
  3  5  1  0  0  0
  3  4  2  0  0  0
  4 36  1  0  0  0
  5  9  1  0  0  0
  5  6  2  0  0  0
  6  7  1  0  0  0
  7  8  1  0  0  0
  7 37  1  0  0  0
  8  9  1  0  0  0
  8 10  2  0  0  0
 11 38  1  0  0  0
 12 23  1  0  0  0
 12 13  1  0  0  0
 12 39  1  0  0  0
 13 14  1  0  0  0
 13 40  1  0  0  0
 13 41  1  0  0  0
 14 15  1  0  0  0
 14 42  1  0  0  0
 15 16  1  0  0  0
 15 43  1  0  0  0
 15 44  1  0  0  0
 16 17  1  0  0  0
 16 45  1  0  0  0
 16 46  1  0  0  0
 17 18  2  0  0  0
 17 22  1  0  0  0
 18 19  1  0  0  0
 18 47  1  0  0  0
 19 20  2  0  0  0
 19 48  1  0  0  0
 20 21  1  0  0  0
 20 24  1  0  0  0
 21 22  2  0  0  0
 21 49  1  0  0  0
 22 50  1  0  0  0
 23 51  1  0  0  0
 24 25  1  0  0  0
 24 52  1  0  0  0
 24 53  1  0  0  0
 25 26  1  0  0  0
 25 54  1  0  0  0
 26 27  1  0  0  0
 26 55  1  0  0  0
 26 56  1  0  0  0
 27 28  1  0  0  0
 27 57  1  0  0  0
 27 58  1  0  0  0
 28 29  2  0  0  0
 28 33  1  0  0  0
 29 30  1  0  0  0
 29 59  1  0  0  0
 30 31  2  0  0  0
 30 60  1  0  0  0
 31 32  1  0  0  0
 31 61  1  0  0  0
 32 33  2  0  0  0
 32 62  1  0  0  0
 33 34  1  0  0  0
M  END
> <s_m_entry_id>
3227

> <s_m_entry_name>
dock_pv.319

> <s_m_Source_Path>
/home/csk/Desktop/cluster/DUD-E-result/adrb1

> <s_m_Source_File>
dock_pv.maegz

> <i_m_Source_File_Index>
319

> <chembl_id>
CHEMBL1944692

> <chembl_pref_name>
None

> <i_lp_mmshare_version>
53161

> <i_f3d_flags>
0

> <r_lp_tautomer_probability>
1

> <s_lp_Force_Field>
OPLS_2005

> <r_lp_Energy>
33.185047

> <b_lp_Chiralities_Consistent>
1

> <s_lp_Variant>
CHEMBL213_lig456-1

> <s_i_glide_gridfile>
glide-grid_2vt4

> <i_i_glide_lignum>
544

> <i_i_glide_rotatable_bonds>
13

> <r_i_docking_score>
-7.20384620982918

> <r_i_glide_ligand_efficiency>
-0.211877829700858

> <r_i_glide_ligand_efficiency_sa>
-0.686401916721128

> <r_i_glide_ligand_efficiency_ln>
-1.59153168879319

> <r_i_glide_gscore>
-7.20384620982918

> <r_i_glide_lipo>
-3.0676489079228

> <r_i_glide_hbond>
-0.275568513524834

> <r_i_glide_metal>
0

> <r_i_glide_rewards>
-1.19589498256485

> <r_i_glide_evdw>
-45.8570022583008

> <r_i_glide_ecoul>
-8.12802791595459

> <r_i_glide_erotb>
0.874747813407384

> <r_i_glide_esite>
-0.027427318915853

> <r_i_glide_emodel>
-75.1086303840558

> <r_i_glide_energy>
-53.9850301742554

> <r_i_glide_einternal>
5.191650390625

> <i_i_glide_confnum>
42

> <i_i_glide_posenum>
372

> <r_i_glide_eff_state_penalty>
0

> <s_user_duplicate_titles>
CHEMBL213_lig456

> <s_m_subgroup_title>
dock_pv

> <s_m_subgroupid>
dock_pv

> <b_m_subgroup_collapsed>
1

$$$$
CHEMBL213_lig1157
                    3D
 Schrodinger Suite 2021-1.
 70 74  0  0  1  0            999 V2000
   27.6530    6.5259    5.6834 C   0  0  0  0  0  0
   25.3713    4.1521    2.7087 C   0  0  0  0  0  0
   30.1965    1.0996   -6.8520 O   0  0  0  0  0  0
   31.1398    5.3282   -2.2017 O   0  0  0  0  0  0
   26.4331    5.0127    2.3842 C   0  0  0  0  0  0
   34.1400    2.9866   -9.0405 O   0  0  0  0  0  0
   32.4595    2.6791   -7.5830 N   0  0  0  0  0  0
   31.7205    3.9452   -4.1546 C   0  0  0  0  0  0
   34.2095    6.5861    2.3774 C   0  0  0  0  0  0
   28.9597    6.8766    5.3496 C   0  0  0  0  0  0
   29.4738    6.5903    4.0894 C   0  0  0  0  0  0
   25.0051    3.6394    0.3897 C   0  0  0  0  0  0
   33.5676    3.3199   -8.0103 C   0  0  0  0  0  0
   28.6153    5.9592    3.1836 C   0  0  0  0  0  0
   35.0833    5.3784    0.2833 C   0  0  0  0  0  0
   31.6067    5.8070    1.7616 C   0  0  0  0  0  0
   34.0009    4.3868   -7.1230 C   0  0  0  0  0  0
   30.7292    2.0247   -5.9869 C   0  0  0  0  0  0
   26.7700    6.0079    4.7289 C   0  0  0  0  0  0
   33.9616    5.8456    1.2171 C   0  0  0  0  0  0
   33.4394    4.6277   -5.9159 C   0  0  0  0  0  0
   33.1444    6.9418    3.2144 C   0  0  0  0  0  0
   31.8285    6.5555    2.9228 C   0  0  0  0  0  0
   32.2980    3.8148   -5.4332 C   0  0  0  0  0  0
   30.1830    2.1332   -4.7126 C   0  0  0  0  0  0
   33.9061    6.1280   -1.8166 N   0  0  1  0  0  0
   32.1333    5.0703   -3.1849 C   0  0  2  0  0  0
   31.8080    2.8478   -6.3421 C   0  0  0  0  0  0
   35.1707    6.1027   -1.0847 C   0  0  0  0  0  0
   26.7253    5.1936    1.0193 C   0  0  0  0  0  0
   26.0265    4.5087    0.0306 C   0  0  0  0  0  0
   32.6575    5.4575    0.9279 C   0  0  0  0  0  0
   30.8277    6.9204    3.8517 N   0  0  0  0  0  0
   27.2654    5.6774    3.4515 C   0  0  0  0  0  0
   24.6625    3.4680    1.7245 C   0  0  0  0  0  0
   33.5126    4.8800   -2.4850 C   0  0  0  0  0  0
   30.6770    3.0703   -3.8103 C   0  0  0  0  0  0
   25.4268    5.8270    5.0061 O   0  0  0  0  0  0
   24.8130    6.5763    6.0499 C   0  0  0  0  0  0
   27.3212    6.6506    6.6999 H   0  0  0  0  0  0
   25.1110    3.9386    3.7319 H   0  0  0  0  0  0
   29.3466    0.7789   -6.5365 H   0  0  0  0  0  0
   31.3619    6.1344   -1.7389 H   0  0  0  0  0  0
   32.1448    1.9461   -8.1975 H   0  0  0  0  0  0
   35.2142    6.8872    2.6308 H   0  0  0  0  0  0
   29.5878    7.3241    6.1012 H   0  0  0  0  0  0
   24.4712    3.1017   -0.3790 H   0  0  0  0  0  0
   28.9533    5.7352    2.1996 H   0  0  0  0  0  0
   34.9444    4.3115    0.1137 H   0  0  0  0  0  0
   36.0431    5.4563    0.7950 H   0  0  0  0  0  0
   30.6567    5.4343    1.4499 H   0  0  0  0  0  0
   34.8249    5.0029   -7.4553 H   0  0  0  0  0  0
   33.8335    5.4438   -5.3278 H   0  0  0  0  0  0
   33.3530    7.5117    4.1061 H   0  0  0  0  0  0
   29.3552    1.5029   -4.4197 H   0  0  0  0  0  0
   33.2244    6.3604   -1.1071 H   0  0  0  0  0  0
   32.1669    5.9715   -3.7982 H   0  0  0  0  0  0
   35.9746    5.7027   -1.7077 H   0  0  0  0  0  0
   35.4086    7.1502   -0.8916 H   0  0  0  0  0  0
   27.4996    5.8696    0.6951 H   0  0  0  0  0  0
   26.2700    4.6490   -1.0124 H   0  0  0  0  0  0
   32.4497    4.8774    0.0483 H   0  0  0  0  0  0
   31.2314    7.4418    4.6144 H   0  0  0  0  0  0
   23.8649    2.7930    1.9956 H   0  0  0  0  0  0
   33.4650    4.0449   -1.7831 H   0  0  0  0  0  0
   34.2771    4.6312   -3.2232 H   0  0  0  0  0  0
   30.2021    3.1332   -2.8401 H   0  0  0  0  0  0
   23.7326    6.4477    5.9927 H   0  0  0  0  0  0
   25.1324    6.2313    7.0320 H   0  0  0  0  0  0
   25.0142    7.6439    5.9613 H   0  0  0  0  0  0
  1 10  2  0  0  0
  1 19  1  0  0  0
  1 40  1  0  0  0
  2 35  1  0  0  0
  2  5  2  0  0  0
  2 41  1  0  0  0
  3 18  1  0  0  0
  3 42  1  0  0  0
  4 27  1  0  0  0
  4 43  1  0  0  0
  5 30  1  0  0  0
  5 34  1  0  0  0
  6 13  2  0  0  0
  7 28  1  0  0  0
  7 13  1  0  0  0
  7 44  1  0  0  0
  8 37  2  0  0  0
  8 27  1  0  0  0
  8 24  1  0  0  0
  9 20  2  0  0  0
  9 22  1  0  0  0
  9 45  1  0  0  0
 10 11  1  0  0  0
 10 46  1  0  0  0
 11 14  2  0  0  0
 11 33  1  0  0  0
 12 31  1  0  0  0
 12 35  2  0  0  0
 12 47  1  0  0  0
 13 17  1  0  0  0
 14 34  1  0  0  0
 14 48  1  0  0  0
 15 29  1  0  0  0
 15 20  1  0  0  0
 15 49  1  0  0  0
 15 50  1  0  0  0
 16 32  2  0  0  0
 16 23  1  0  0  0
 16 51  1  0  0  0
 17 21  2  0  0  0
 17 52  1  0  0  0
 18 28  1  0  0  0
 18 25  2  0  0  0
 19 34  2  0  0  0
 19 38  1  0  0  0
 20 32  1  0  0  0
 21 24  1  0  0  0
 21 53  1  0  0  0
 22 23  2  0  0  0
 22 54  1  0  0  0
 23 33  1  0  0  0
 24 28  2  0  0  0
 25 37  1  0  0  0
 25 55  1  0  0  0
 26 29  1  0  0  0
 26 36  1  0  0  0
 26 56  1  0  0  0
 27 36  1  0  0  0
 27 57  1  0  0  0
 29 58  1  0  0  0
 29 59  1  0  0  0
 30 31  2  0  0  0
 30 60  1  0  0  0
 31 61  1  0  0  0
 32 62  1  0  0  0
 33 63  1  0  0  0
 35 64  1  0  0  0
 36 65  1  0  0  0
 36 66  1  0  0  0
 37 67  1  0  0  0
 38 39  1  0  0  0
 39 68  1  0  0  0
 39 69  1  0  0  0
 39 70  1  0  0  0
M  END
> <s_m_entry_id>
3228

> <s_m_entry_name>
dock_pv.320

> <s_m_Source_Path>
/home/csk/Desktop/cluster/DUD-E-result/adrb1

> <s_m_Source_File>
dock_pv.maegz

> <i_m_Source_File_Index>
320

> <chembl_id>
CHEMBL3290999

> <chembl_pref_name>
None

> <i_lp_mmshare_version>
53161

> <i_f3d_flags>
0

> <r_lp_tautomer_probability>
1

> <s_lp_Force_Field>
OPLS_2005

> <r_lp_Energy>
51.091273

> <b_lp_Chiralities_Consistent>
1

> <s_lp_Variant>
CHEMBL213_lig1157-1

> <s_i_glide_gridfile>
glide-grid_2vt4

> <i_i_glide_lignum>
1353

> <i_i_glide_rotatable_bonds>
12

> <r_i_docking_score>
-7.20238384280174

> <r_i_glide_ligand_efficiency>
-0.184676508789788

> <r_i_glide_ligand_efficiency_sa>
-0.626277089099035

> <r_i_glide_ligand_efficiency_ln>
-1.54439554772029

> <r_i_glide_gscore>
-7.20238384280174

> <r_i_glide_lipo>
-4.20458200236156

> <r_i_glide_hbond>
-0.0455129193148452

> <r_i_glide_metal>
0

> <r_i_glide_rewards>
-0.751257944344023

> <r_i_glide_evdw>
-56.9459571838379

> <r_i_glide_ecoul>
-0.225321054458618

> <r_i_glide_erotb>
0.680065040579367

> <r_i_glide_esite>
0

> <r_i_glide_emodel>
-57.9261848276363

> <r_i_glide_energy>
-57.1712782382965

> <r_i_glide_einternal>
24.4760456085205

> <i_i_glide_confnum>
14

> <i_i_glide_posenum>
252

> <r_i_glide_eff_state_penalty>
0

> <s_user_duplicate_titles>
CHEMBL213_lig1157

> <s_m_subgroup_title>
dock_pv

> <s_m_subgroupid>
dock_pv

> <b_m_subgroup_collapsed>
1

$$$$
CHEMBL213_lig1201
                    3D
 Schrodinger Suite 2021-1.
 44 46  0  0  1  0            999 V2000
   31.7580    4.9816   -3.3302 C   0  0  0  0  0  0
   31.8355    4.0292   -4.3436 C   0  0  0  0  0  0
   29.3292    4.7438   -3.2270 C   0  0  0  0  0  0
   30.5219    5.3316   -2.7883 C   0  0  0  0  0  0
   29.4133    3.7743   -4.2501 C   0  0  0  0  0  0
   30.6618    3.4230   -4.8068 C   0  0  0  0  0  0
   30.7187    2.4481   -5.8307 N   0  0  0  0  0  0
   29.6844    1.7548   -6.3567 C   0  0  0  0  0  0
   28.4043    2.1288   -5.7935 C   0  0  0  0  0  0
   28.2553    3.0509   -4.8183 C   0  0  0  0  0  0
   29.8319    0.8885   -7.2148 O   0  0  0  0  0  0
   33.0629    3.7045   -4.8707 O   0  0  0  0  0  0
   27.9878    5.1964   -2.5971 C   0  0  1  0  0  0
   27.8835    4.6515   -1.2310 N   0  0  1  0  0  0
   27.7438    6.7395   -2.6412 C   0  0  0  0  0  0
   28.2075    7.3573   -3.8318 O   0  0  0  0  0  0
   26.6060    4.9643   -0.5769 C   0  0  0  0  0  0
   26.4073    4.2512    0.7793 C   0  0  0  0  0  0
   27.0387    4.9469    1.9875 C   0  0  0  0  0  0
   28.4279    5.0502    2.0875 C   0  0  0  0  0  0
   29.0079    5.6811    3.1851 C   0  0  0  0  0  0
   28.1970    6.2128    4.1862 C   0  0  0  0  0  0
   26.8106    6.0886    4.1107 C   0  0  0  0  0  0
   26.2331    5.4490    3.0156 C   0  0  0  0  0  0
   28.9162    7.0501    5.5122 Cl  0  0  0  0  0  0
   32.6568    5.4512   -2.9568 H   0  0  0  0  0  0
   30.4777    6.0760   -2.0151 H   0  0  0  0  0  0
   31.6202    2.2092   -6.2113 H   0  0  0  0  0  0
   27.5300    1.6227   -6.1723 H   0  0  0  0  0  0
   27.2650    3.2464   -4.4462 H   0  0  0  0  0  0
   33.7607    4.3222   -4.6374 H   0  0  0  0  0  0
   27.1733    4.7685   -3.1733 H   0  0  0  0  0  0
   27.9480    3.6429   -1.3199 H   0  0  0  0  0  0
   26.6746    6.9412   -2.5629 H   0  0  0  0  0  0
   28.2080    7.2392   -1.7925 H   0  0  0  0  0  0
   27.8048    8.2296   -3.9204 H   0  0  0  0  0  0
   26.5591    6.0383   -0.3944 H   0  0  0  0  0  0
   25.7571    4.7281   -1.2151 H   0  0  0  0  0  0
   25.3327    4.1779    0.9545 H   0  0  0  0  0  0
   26.7373    3.2156    0.7244 H   0  0  0  0  0  0
   29.0655    4.6642    1.3067 H   0  0  0  0  0  0
   30.0830    5.7685    3.2491 H   0  0  0  0  0  0
   26.1869    6.4939    4.8934 H   0  0  0  0  0  0
   25.1578    5.3548    2.9663 H   0  0  0  0  0  0
  1  2  2  0  0  0
  1  4  1  0  0  0
  1 26  1  0  0  0
  2  6  1  0  0  0
  2 12  1  0  0  0
  3  5  1  0  0  0
  3  4  2  0  0  0
  3 13  1  0  0  0
  4 27  1  0  0  0
  5  6  2  0  0  0
  5 10  1  0  0  0
  6  7  1  0  0  0
  7  8  1  0  0  0
  7 28  1  0  0  0
  8  9  1  0  0  0
  8 11  2  0  0  0
  9 10  2  0  0  0
  9 29  1  0  0  0
 10 30  1  0  0  0
 12 31  1  0  0  0
 13 14  1  0  0  0
 13 15  1  0  0  0
 13 32  1  0  0  0
 14 17  1  0  0  0
 14 33  1  0  0  0
 15 16  1  0  0  0
 15 34  1  0  0  0
 15 35  1  0  0  0
 16 36  1  0  0  0
 17 18  1  0  0  0
 17 37  1  0  0  0
 17 38  1  0  0  0
 18 19  1  0  0  0
 18 39  1  0  0  0
 18 40  1  0  0  0
 19 20  2  0  0  0
 19 24  1  0  0  0
 20 21  1  0  0  0
 20 41  1  0  0  0
 21 22  2  0  0  0
 21 42  1  0  0  0
 22 23  1  0  0  0
 22 25  1  0  0  0
 23 24  2  0  0  0
 23 43  1  0  0  0
 24 44  1  0  0  0
M  END
> <s_m_entry_id>
3229

> <s_m_entry_name>
dock_pv.321

> <s_m_Source_Path>
/home/csk/Desktop/cluster/DUD-E-result/adrb1

> <s_m_Source_File>
dock_pv.maegz

> <i_m_Source_File_Index>
321

> <chembl_id>
CHEMBL4282047

> <chembl_pref_name>
None

> <i_lp_mmshare_version>
53161

> <i_f3d_flags>
0

> <r_lp_tautomer_probability>
1

> <s_lp_Force_Field>
OPLS_2005

> <r_lp_Energy>
24.668841

> <b_lp_Chiralities_Consistent>
1

> <s_lp_Variant>
CHEMBL213_lig1201-2

> <s_i_glide_gridfile>
glide-grid_2vt4

> <i_i_glide_lignum>
1415

> <i_i_glide_rotatable_bonds>
8

> <r_i_docking_score>
-7.19687019343835

> <r_i_glide_ligand_efficiency>
-0.287874807737534

> <r_i_glide_ligand_efficiency_sa>
-0.841751043306004

> <r_i_glide_ligand_efficiency_ln>
-1.70587390864086

> <r_i_glide_gscore>
-7.19687019343835

> <r_i_glide_lipo>
-2.25054303235951

> <r_i_glide_hbond>
-0.634972413460356

> <r_i_glide_metal>
0

> <r_i_glide_rewards>
-1.75166237533538

> <r_i_glide_evdw>
-37.8608589172363

> <r_i_glide_ecoul>
-9.40487194061279

> <r_i_glide_erotb>
0.74408136467063

> <r_i_glide_esite>
0

> <r_i_glide_emodel>
-67.2342852855792

> <r_i_glide_energy>
-47.2657308578491

> <r_i_glide_einternal>
4.14300727844238

> <i_i_glide_confnum>
147

> <i_i_glide_posenum>
98

> <r_i_glide_eff_state_penalty>
0

> <s_user_duplicate_titles>
CHEMBL213_lig1201

> <s_m_subgroup_title>
dock_pv

> <s_m_subgroupid>
dock_pv

> <b_m_subgroup_collapsed>
1

$$$$
CHEMBL213_lig1043
                    3D
 Schrodinger Suite 2021-1.
 53 55  0  0  1  0            999 V2000
   31.4972    4.8192   -1.6095 C   0  0  0  0  0  0
   30.7409    4.7052   -2.9515 C   0  0  0  0  0  0
   31.3549    5.7010   -3.9615 C   0  0  0  0  0  0
   25.0431    3.9783    2.1868 C   0  0  0  0  0  0
   24.9222    3.7075    0.8228 C   0  0  0  0  0  0
   25.9004    4.1406   -0.0782 C   0  0  0  0  0  0
   27.0189    4.8619    0.3634 C   0  0  0  0  0  0
   26.1523    4.6789    2.6423 C   0  0  0  0  0  0
   27.1424    5.0901    1.7452 C   0  0  0  0  0  0
   28.2078    5.8142    2.2561 O   0  0  0  0  0  0
   28.6137    5.4471    3.5977 C   0  0  0  0  0  0
   27.4157    5.4212    4.5912 C   0  0  0  0  0  0
   26.2826    5.0249    3.9845 N   0  0  0  0  0  0
   27.4758    5.7263    5.7834 O   0  0  0  0  0  0
   23.8087    3.0485    0.3848 O   0  0  0  0  0  0
   27.9957    5.4704   -0.6559 C   0  0  1  0  0  0
   28.4565    4.5131   -1.8044 C   0  0  0  0  0  0
   27.4251    6.6497   -1.2055 O   0  0  0  0  0  0
   29.3539    5.1652   -2.7800 N   0  0  2  0  0  0
   30.8292    3.2259   -3.4438 C   0  0  0  0  0  0
   30.7418    2.9331   -4.9446 C   0  0  0  0  0  0
   31.8879    3.0522   -5.7403 C   0  0  0  0  0  0
   31.8585    2.7104   -7.0892 C   0  0  0  0  0  0
   30.6751    2.2505   -7.6567 C   0  0  0  0  0  0
   29.5145    2.1335   -6.8829 C   0  0  0  0  0  0
   29.5509    2.4785   -5.5246 C   0  0  0  0  0  0
   28.2226    1.6514   -7.5096 C   0  0  0  0  0  0
   32.5184    4.4438   -1.6947 H   0  0  0  0  0  0
   31.5757    5.8472   -1.2681 H   0  0  0  0  0  0
   31.0077    4.2536   -0.8172 H   0  0  0  0  0  0
   32.4069    5.4874   -4.1526 H   0  0  0  0  0  0
   30.8295    5.6858   -4.9190 H   0  0  0  0  0  0
   31.2828    6.7259   -3.6017 H   0  0  0  0  0  0
   24.2601    3.6695    2.8634 H   0  0  0  0  0  0
   25.7651    3.9545   -1.1347 H   0  0  0  0  0  0
   29.0076    4.4244    3.5756 H   0  0  0  0  0  0
   29.3938    6.1158    3.9714 H   0  0  0  0  0  0
   25.4927    4.9414    4.5949 H   0  0  0  0  0  0
   23.5857    3.1916   -0.5563 H   0  0  0  0  0  0
   28.9041    5.7932   -0.1374 H   0  0  0  0  0  0
   27.5917    4.1456   -2.3585 H   0  0  0  0  0  0
   28.9237    3.6348   -1.3599 H   0  0  0  0  0  0
   27.4479    7.3390   -0.5364 H   0  0  0  0  0  0
   28.9002    5.2152   -3.6829 H   0  0  0  0  0  0
   30.0823    2.6506   -2.9185 H   0  0  0  0  0  0
   31.7753    2.7849   -3.1212 H   0  0  0  0  0  0
   32.8159    3.3943   -5.3031 H   0  0  0  0  0  0
   32.7473    2.8234   -7.6937 H   0  0  0  0  0  0
   30.6623    2.0101   -8.7059 H   0  0  0  0  0  0
   28.6652    2.3651   -4.9180 H   0  0  0  0  0  0
   27.9950    0.6465   -7.1547 H   0  0  0  0  0  0
   27.4021    2.3111   -7.2225 H   0  0  0  0  0  0
   28.2768    1.6443   -8.6014 H   0  0  0  0  0  0
  1  2  1  0  0  0
  1 28  1  0  0  0
  1 29  1  0  0  0
  1 30  1  0  0  0
  2 19  1  0  0  0
  2  3  1  0  0  0
  2 20  1  0  0  0
  3 31  1  0  0  0
  3 32  1  0  0  0
  3 33  1  0  0  0
  4  8  2  0  0  0
  4  5  1  0  0  0
  4 34  1  0  0  0
  5 15  1  0  0  0
  5  6  2  0  0  0
  6  7  1  0  0  0
  6 35  1  0  0  0
  7  9  2  0  0  0
  7 16  1  0  0  0
  8  9  1  0  0  0
  8 13  1  0  0  0
  9 10  1  0  0  0
 10 11  1  0  0  0
 11 12  1  0  0  0
 11 36  1  0  0  0
 11 37  1  0  0  0
 12 14  2  0  0  0
 12 13  1  0  0  0
 13 38  1  0  0  0
 15 39  1  0  0  0
 16 17  1  0  0  0
 16 18  1  0  0  0
 16 40  1  0  0  0
 17 19  1  0  0  0
 17 41  1  0  0  0
 17 42  1  0  0  0
 18 43  1  0  0  0
 19 44  1  0  0  0
 20 21  1  0  0  0
 20 45  1  0  0  0
 20 46  1  0  0  0
 21 22  2  0  0  0
 21 26  1  0  0  0
 22 23  1  0  0  0
 22 47  1  0  0  0
 23 24  2  0  0  0
 23 48  1  0  0  0
 24 25  1  0  0  0
 24 49  1  0  0  0
 25 26  2  0  0  0
 25 27  1  0  0  0
 26 50  1  0  0  0
 27 51  1  0  0  0
 27 52  1  0  0  0
 27 53  1  0  0  0
M  END
> <s_m_entry_id>
3230

> <s_m_entry_name>
dock_pv.322

> <s_m_Source_Path>
/home/csk/Desktop/cluster/DUD-E-result/adrb1

> <s_m_Source_File>
dock_pv.maegz

> <i_m_Source_File_Index>
322

> <chembl_id>
CHEMBL602257

> <chembl_pref_name>
None

> <i_lp_mmshare_version>
53161

> <i_f3d_flags>
0

> <r_lp_tautomer_probability>
0.999999999999998

> <s_lp_Force_Field>
OPLS_2005

> <r_lp_Energy>
28.219452

> <b_lp_Chiralities_Consistent>
1

> <s_lp_Variant>
CHEMBL213_lig1043-2

> <s_i_glide_gridfile>
glide-grid_2vt4

> <i_i_glide_lignum>
1209

> <i_i_glide_rotatable_bonds>
8

> <r_i_docking_score>
-7.19475488415981

> <r_i_glide_ligand_efficiency>
-0.26647240311703

> <r_i_glide_ligand_efficiency_sa>
-0.799417208472841

> <r_i_glide_ligand_efficiency_ln>
-1.67482032222789

> <r_i_glide_gscore>
-7.19475488415981

> <r_i_glide_lipo>
-2.71454941019853

> <r_i_glide_hbond>
-0.16

> <r_i_glide_metal>
0

> <r_i_glide_rewards>
-2.0235022122962

> <r_i_glide_evdw>
-40.0357475280762

> <r_i_glide_ecoul>
-7.58951234817505

> <r_i_glide_erotb>
0.843510966964976

> <r_i_glide_esite>
0

> <r_i_glide_emodel>
-60.5097418689566

> <r_i_glide_energy>
-47.6252598762512

> <r_i_glide_einternal>
13.84157371521

> <i_i_glide_confnum>
150

> <i_i_glide_posenum>
86

> <r_i_glide_eff_state_penalty>
0

> <s_user_duplicate_titles>
CHEMBL213_lig1043,602910

> <s_m_subgroup_title>
dock_pv

> <s_m_subgroupid>
dock_pv

> <b_m_subgroup_collapsed>
1

$$$$
CHEMBL213_lig1038
                    3D
 Schrodinger Suite 2021-1.
 60 63  0  0  1  0            999 V2000
   35.8144    4.4696    0.7332 C   0  0  0  0  0  0
   35.5025    5.9809    0.6604 C   0  0  0  0  0  0
   36.6169    6.7895    1.3700 C   0  0  0  0  0  0
   28.8698    5.0504    1.9151 C   0  0  0  0  0  0
   29.9905    5.0500    1.0859 C   0  0  0  0  0  0
   31.2186    5.4906    1.5669 C   0  0  0  0  0  0
   31.3381    6.1259    2.8121 C   0  0  0  0  0  0
   28.9604    5.6518    3.1673 C   0  0  0  0  0  0
   30.1589    6.2506    3.5847 C   0  0  0  0  0  0
   30.1930    6.8175    4.8493 O   0  0  0  0  0  0
   28.9372    7.3508    5.3334 C   0  0  0  0  0  0
   27.7412    6.3763    5.1489 C   0  0  0  0  0  0
   27.8674    5.6494    4.0273 N   0  0  0  0  0  0
   26.8011    6.2460    5.9266 O   0  0  0  0  0  0
   29.8951    4.5860   -0.1979 O   0  0  0  0  0  0
   32.7158    6.5782    3.3672 C   0  0  2  0  0  0
   34.0334    6.0088    2.7346 C   0  0  0  0  0  0
   32.8699    6.2502    4.7361 O   0  0  0  0  0  0
   34.2084    6.2526    1.3021 N   0  0  1  0  0  0
   35.4150    6.4694   -0.8219 C   0  0  0  0  0  0
   34.5255    5.6642   -1.7760 C   0  0  0  0  0  0
   33.1371    5.7172   -1.6636 C   0  0  0  0  0  0
   32.3303    5.0080   -2.5489 C   0  0  0  0  0  0
   32.8968    4.2469   -3.5794 C   0  0  0  0  0  0
   34.2938    4.2023   -3.6892 C   0  0  0  0  0  0
   35.1027    4.9015   -2.7956 C   0  0  0  0  0  0
   32.0295    3.5054   -4.5417 C   0  0  0  0  0  0
   30.8658    2.8567   -4.1010 C   0  0  0  0  0  0
   30.0486    2.1736   -4.9991 C   0  0  0  0  0  0
   30.3863    2.1328   -6.3487 C   0  0  0  0  0  0
   31.5379    2.7693   -6.8067 C   0  0  0  0  0  0
   32.3540    3.4502   -5.9052 C   0  0  0  0  0  0
   36.7241    4.2238    0.1855 H   0  0  0  0  0  0
   35.9414    4.1237    1.7565 H   0  0  0  0  0  0
   35.0088    3.8746    0.3033 H   0  0  0  0  0  0
   37.5546    6.7448    0.8145 H   0  0  0  0  0  0
   36.3512    7.8432    1.4659 H   0  0  0  0  0  0
   36.8302    6.4185    2.3715 H   0  0  0  0  0  0
   27.9281    4.6500    1.5691 H   0  0  0  0  0  0
   32.0607    5.3389    0.9210 H   0  0  0  0  0  0
   28.6973    8.2420    4.7490 H   0  0  0  0  0  0
   29.0079    7.6283    6.3842 H   0  0  0  0  0  0
   27.0817    5.0507    3.8274 H   0  0  0  0  0  0
   29.0103    4.3024   -0.4398 H   0  0  0  0  0  0
   32.7297    7.6665    3.2946 H   0  0  0  0  0  0
   34.8609    6.4745    3.2714 H   0  0  0  0  0  0
   34.1045    4.9408    2.9197 H   0  0  0  0  0  0
   32.4522    5.3880    4.8669 H   0  0  0  0  0  0
   33.8419    7.1685    1.0359 H   0  0  0  0  0  0
   35.0865    7.5092   -0.8559 H   0  0  0  0  0  0
   36.4196    6.4936   -1.2489 H   0  0  0  0  0  0
   32.6797    6.3194   -0.8951 H   0  0  0  0  0  0
   31.2572    5.0716   -2.4449 H   0  0  0  0  0  0
   34.7636    3.6225   -4.4715 H   0  0  0  0  0  0
   36.1771    4.8574   -2.9068 H   0  0  0  0  0  0
   30.5901    2.8720   -3.0556 H   0  0  0  0  0  0
   29.1532    1.6812   -4.6440 H   0  0  0  0  0  0
   29.7501    1.6061   -7.0450 H   0  0  0  0  0  0
   31.7927    2.7408   -7.8551 H   0  0  0  0  0  0
   33.2372    3.9511   -6.2758 H   0  0  0  0  0  0
  1  2  1  0  0  0
  1 33  1  0  0  0
  1 34  1  0  0  0
  1 35  1  0  0  0
  2 19  1  0  0  0
  2  3  1  0  0  0
  2 20  1  0  0  0
  3 36  1  0  0  0
  3 37  1  0  0  0
  3 38  1  0  0  0
  4  8  2  0  0  0
  4  5  1  0  0  0
  4 39  1  0  0  0
  5  6  2  0  0  0
  5 15  1  0  0  0
  6  7  1  0  0  0
  6 40  1  0  0  0
  7 16  1  0  0  0
  7  9  2  0  0  0
  8 13  1  0  0  0
  8  9  1  0  0  0
  9 10  1  0  0  0
 10 11  1  0  0  0
 11 12  1  0  0  0
 11 41  1  0  0  0
 11 42  1  0  0  0
 12 13  1  0  0  0
 12 14  2  0  0  0
 13 43  1  0  0  0
 15 44  1  0  0  0
 16 17  1  0  0  0
 16 18  1  0  0  0
 16 45  1  0  0  0
 17 19  1  0  0  0
 17 46  1  0  0  0
 17 47  1  0  0  0
 18 48  1  0  0  0
 19 49  1  0  0  0
 20 21  1  0  0  0
 20 50  1  0  0  0
 20 51  1  0  0  0
 21 22  2  0  0  0
 21 26  1  0  0  0
 22 23  1  0  0  0
 22 52  1  0  0  0
 23 24  2  0  0  0
 23 53  1  0  0  0
 24 25  1  0  0  0
 24 27  1  0  0  0
 25 26  2  0  0  0
 25 54  1  0  0  0
 26 55  1  0  0  0
 27 28  2  0  0  0
 27 32  1  0  0  0
 28 29  1  0  0  0
 28 56  1  0  0  0
 29 30  2  0  0  0
 29 57  1  0  0  0
 30 31  1  0  0  0
 30 58  1  0  0  0
 31 32  2  0  0  0
 31 59  1  0  0  0
 32 60  1  0  0  0
M  END
> <s_m_entry_id>
3231

> <s_m_entry_name>
dock_pv.323

> <s_m_Source_Path>
/home/csk/Desktop/cluster/DUD-E-result/adrb1

> <s_m_Source_File>
dock_pv.maegz

> <i_m_Source_File_Index>
323

> <chembl_id>
CHEMBL601858

> <chembl_pref_name>
None

> <i_lp_mmshare_version>
53161

> <i_f3d_flags>
0

> <r_lp_tautomer_probability>
0.999999999999998

> <s_lp_Force_Field>
OPLS_2005

> <r_lp_Energy>
36.550466

> <b_lp_Chiralities_Consistent>
1

> <s_lp_Variant>
CHEMBL213_lig1038-1

> <s_i_glide_gridfile>
glide-grid_2vt4

> <i_i_glide_lignum>
1196

> <i_i_glide_rotatable_bonds>
9

> <r_i_docking_score>
-7.19078170483157

> <r_i_glide_ligand_efficiency>
-0.224711928275987

> <r_i_glide_ligand_efficiency_sa>
-0.713415901846037

> <r_i_glide_ligand_efficiency_ln>
-1.610212037018

> <r_i_glide_gscore>
-7.19078170483157

> <r_i_glide_lipo>
-3.14501196504479

> <r_i_glide_hbond>
-0.546587068579526

> <r_i_glide_metal>
0

> <r_i_glide_rewards>
-0.894201928997699

> <r_i_glide_evdw>
-43.0951271057129

> <r_i_glide_ecoul>
-7.965660572052

> <r_i_glide_erotb>
0.74462469888389

> <r_i_glide_esite>
0

> <r_i_glide_emodel>
-67.4591401619387

> <r_i_glide_energy>
-51.0607876777649

> <r_i_glide_einternal>
11.9731330871582

> <i_i_glide_confnum>
15

> <i_i_glide_posenum>
249

> <r_i_glide_eff_state_penalty>
0

> <s_user_duplicate_titles>
CHEMBL213_lig1038,602914

> <s_m_subgroup_title>
dock_pv

> <s_m_subgroupid>
dock_pv

> <b_m_subgroup_collapsed>
1

$$$$
CHEMBL213_lig92
                    3D
 Schrodinger Suite 2021-1.
 56 58  0  0  1  0            999 V2000
   32.8141    4.3271   -3.5093 S   0  0  0  0  0  0
   33.7307    5.5053   -2.5483 N   0  0  0  0  0  0
   31.1160    4.8913   -3.4847 C   0  0  0  0  0  0
   33.2925    4.4746   -4.8869 O   0  0  0  0  0  0
   32.8791    3.0383   -2.8150 O   0  0  0  0  0  0
   30.1424    4.1571   -2.8008 C   0  0  0  0  0  0
   30.7815    6.0901   -4.1152 C   0  0  0  0  0  0
   33.7183    5.5424   -1.1460 C   0  0  0  0  0  0
   28.1107    5.8500    2.7477 O   0  0  0  0  0  0
   27.0080    5.1512    2.2955 C   0  0  0  0  0  0
   28.5297    5.8695   -3.3024 C   0  0  0  0  0  0
   24.8678    3.7463    1.1904 C   0  0  0  0  0  0
   29.0361    7.0694    4.6551 C   0  0  1  0  0  0
   28.5803    5.7036    4.0886 C   0  0  0  0  0  0
   29.4866    6.5855   -4.0150 C   0  0  0  0  0  0
   28.8445    4.6500   -2.7097 C   0  0  0  0  0  0
   31.5190    6.6500    4.2142 N   0  0  2  0  0  0
   26.6080    6.6500   -3.1069 I   0  0  0  0  0  0
   23.8379    3.0500    0.6704 F   0  0  0  0  0  0
   33.7161    5.8500    1.6406 C   0  0  0  0  0  0
   34.9156    5.7626   -0.4641 C   0  0  0  0  0  0
   32.5262    5.4500   -0.4248 C   0  0  0  0  0  0
   25.9748    4.6691    3.1171 C   0  0  0  0  0  0
   26.9279    4.9579    0.9139 C   0  0  0  0  0  0
   25.8637    4.2500    0.3587 C   0  0  0  0  0  0
   24.9134    3.9614    2.5618 C   0  0  0  0  0  0
   34.9170    5.9047    0.9237 C   0  0  0  0  0  0
   32.5199    5.6136    0.9587 C   0  0  0  0  0  0
   29.0080    7.0500    6.0697 O   0  0  0  0  0  0
   30.4062    7.5976    4.1498 C   0  0  0  0  0  0
   32.7630    7.1686    3.6474 C   0  0  0  0  0  0
   33.7135    6.0519    3.1573 C   0  0  0  0  0  0
   34.5753    5.8213   -3.0017 H   0  0  0  0  0  0
   30.3845    3.2173   -2.3240 H   0  0  0  0  0  0
   31.5200    6.6499   -4.6688 H   0  0  0  0  0  0
   28.2871    7.8131    4.3850 H   0  0  0  0  0  0
   27.8574    5.2619    4.7695 H   0  0  0  0  0  0
   29.4079    5.0004    4.0710 H   0  0  0  0  0  0
   29.2301    7.5281   -4.4771 H   0  0  0  0  0  0
   28.0886    4.0909   -2.1762 H   0  0  0  0  0  0
   31.3030    5.6918    3.9539 H   0  0  0  0  0  0
   35.8474    5.8382   -1.0065 H   0  0  0  0  0  0
   31.5848    5.3012   -0.9232 H   0  0  0  0  0  0
   25.9557    4.8375    4.1804 H   0  0  0  0  0  0
   27.7026    5.3482    0.2702 H   0  0  0  0  0  0
   25.8036    4.0939   -0.7099 H   0  0  0  0  0  0
   24.1178    3.5842    3.1850 H   0  0  0  0  0  0
   35.8528    6.0818    1.4326 H   0  0  0  0  0  0
   31.5841    5.5683    1.4963 H   0  0  0  0  0  0
   28.1212    7.2865    6.3661 H   0  0  0  0  0  0
   30.2875    7.9154    3.1154 H   0  0  0  0  0  0
   30.6624    8.4817    4.7363 H   0  0  0  0  0  0
   32.5537    7.8500    2.8201 H   0  0  0  0  0  0
   33.2784    7.7623    4.4013 H   0  0  0  0  0  0
   34.7232    6.3259    3.4651 H   0  0  0  0  0  0
   33.5153    5.1044    3.6610 H   0  0  0  0  0  0
  1  2  1  0  0  0
  1  3  1  0  0  0
  1  4  2  0  0  0
  1  5  2  0  0  0
  2  8  1  0  0  0
  2 33  1  0  0  0
  3  6  2  0  0  0
  3  7  1  0  0  0
  6 16  1  0  0  0
  6 34  1  0  0  0
  7 15  2  0  0  0
  7 35  1  0  0  0
  8 21  1  0  0  0
  8 22  2  0  0  0
  9 14  1  0  0  0
  9 10  1  0  0  0
 10 23  2  0  0  0
 10 24  1  0  0  0
 11 15  1  0  0  0
 11 18  1  0  0  0
 11 16  2  0  0  0
 12 25  1  0  0  0
 12 19  1  0  0  0
 12 26  2  0  0  0
 13 30  1  0  0  0
 13 14  1  0  0  0
 13 29  1  0  0  0
 13 36  1  0  0  0
 14 37  1  0  0  0
 14 38  1  0  0  0
 15 39  1  0  0  0
 16 40  1  0  0  0
 17 31  1  0  0  0
 17 30  1  0  0  0
 17 41  1  0  0  0
 20 28  2  0  0  0
 20 32  1  0  0  0
 20 27  1  0  0  0
 21 27  2  0  0  0
 21 42  1  0  0  0
 22 28  1  0  0  0
 22 43  1  0  0  0
 23 26  1  0  0  0
 23 44  1  0  0  0
 24 25  2  0  0  0
 24 45  1  0  0  0
 25 46  1  0  0  0
 26 47  1  0  0  0
 27 48  1  0  0  0
 28 49  1  0  0  0
 29 50  1  0  0  0
 30 51  1  0  0  0
 30 52  1  0  0  0
 31 32  1  0  0  0
 31 53  1  0  0  0
 31 54  1  0  0  0
 32 55  1  0  0  0
 32 56  1  0  0  0
M  END
> <s_m_entry_id>
3232

> <s_m_entry_name>
dock_pv.324

> <s_m_Source_Path>
/home/csk/Desktop/cluster/DUD-E-result/adrb1

> <s_m_Source_File>
dock_pv.maegz

> <i_m_Source_File_Index>
324

> <chembl_id>
CHEMBL304878

> <chembl_pref_name>
None

> <i_lp_mmshare_version>
53161

> <i_f3d_flags>
0

> <r_lp_tautomer_probability>
1

> <s_lp_Force_Field>
OPLS_2005

> <r_lp_Energy>
24.409317

> <b_lp_Chiralities_Consistent>
1

> <s_lp_Variant>
CHEMBL213_lig92-1

> <s_i_glide_gridfile>
glide-grid_2vt4

> <i_i_glide_lignum>
115

> <i_i_glide_rotatable_bonds>
12

> <r_i_docking_score>
-7.1778482571682

> <r_i_glide_ligand_efficiency>
-0.224307758036506

> <r_i_glide_ligand_efficiency_sa>
-0.712132741320869

> <r_i_glide_ligand_efficiency_ln>
-1.6073158855337

> <r_i_glide_gscore>
-7.1778482571682

> <r_i_glide_lipo>
-3.08473754136626

> <r_i_glide_hbond>
-0.685828361480296

> <r_i_glide_metal>
0

> <r_i_glide_rewards>
-0.305113706516227

> <r_i_glide_evdw>
-47.9333801269531

> <r_i_glide_ecoul>
-8.19226360321045

> <r_i_glide_erotb>
0.550435984909382

> <r_i_glide_esite>
-0.0270960858855765

> <r_i_glide_emodel>
-71.2940260334162

> <r_i_glide_energy>
-56.1256437301636

> <r_i_glide_einternal>
11.1595735549927

> <i_i_glide_confnum>
84

> <i_i_glide_posenum>
361

> <r_i_glide_eff_state_penalty>
0

> <s_user_duplicate_titles>
CHEMBL213_lig92,103829

> <s_m_subgroup_title>
dock_pv

> <s_m_subgroupid>
dock_pv

> <b_m_subgroup_collapsed>
1

$$$$
CHEMBL213_lig961
                    3D
 Schrodinger Suite 2021-1.
 56 58  0  0  1  0            999 V2000
   27.4837    6.2500    6.3850 O   0  0  0  0  0  0
   27.7007    6.4527    4.9991 C   0  0  1  0  0  0
   28.9546    7.3438    4.7846 C   0  0  0  0  0  0
   30.2041    6.6500    5.0664 N   0  0  2  0  0  0
   31.3587    7.5286    5.0543 C   0  0  0  0  0  0
   32.6778    6.7490    4.8685 C   0  0  0  0  0  0
   33.0667    6.3878    3.4308 C   0  0  0  0  0  0
   32.1119    6.2239    2.4206 C   0  0  0  0  0  0
   32.5034    5.8500    1.1383 C   0  0  0  0  0  0
   33.8620    5.6682    0.8395 C   0  0  0  0  0  0
   34.3265    5.2402   -0.4166 N   0  0  0  0  0  0
   33.6636    5.2649   -1.6375 C   0  0  0  0  0  0
   32.6080    5.8500   -1.8904 O   0  0  0  0  0  0
   34.3765    4.5248   -2.5309 O   0  0  0  0  0  0
   33.8847    4.2847   -3.7994 C   0  0  0  0  0  0
   34.6718    4.6500   -4.8922 C   0  0  0  0  0  0
   34.2097    4.4456   -6.1894 C   0  0  0  0  0  0
   32.9662    3.8507   -6.3929 C   0  0  0  0  0  0
   32.1848    3.4520   -5.3102 C   0  0  0  0  0  0
   32.6462    3.6629   -4.0134 C   0  0  0  0  0  0
   34.8158    5.8483    1.8421 C   0  0  0  0  0  0
   34.4194    6.2007    3.1304 C   0  0  0  0  0  0
   27.7302    5.0902    4.2702 C   0  0  0  0  0  0
   27.5217    5.2887    2.8711 O   0  0  0  0  0  0
   26.4473    4.6948    2.2373 C   0  0  0  0  0  0
   26.5629    4.5370    0.8563 C   0  0  0  0  0  0
   25.5456    3.9265    0.1301 C   0  0  0  0  0  0
   24.3967    3.4918    0.7850 C   0  0  0  0  0  0
   24.2503    3.6669    2.1563 C   0  0  0  0  0  0
   25.2718    4.2718    2.8831 C   0  0  0  0  0  0
   27.2943    7.1128    6.7847 H   0  0  0  0  0  0
   26.8304    7.0031    4.6372 H   0  0  0  0  0  0
   29.0081    7.6537    3.7427 H   0  0  0  0  0  0
   28.8713    8.2499    5.3872 H   0  0  0  0  0  0
   30.3643    5.8993    4.3997 H   0  0  0  0  0  0
   31.2575    8.2314    4.2243 H   0  0  0  0  0  0
   31.4079    8.1239    5.9687 H   0  0  0  0  0  0
   33.4716    7.3823    5.2666 H   0  0  0  0  0  0
   32.6845    5.8500    5.4860 H   0  0  0  0  0  0
   31.0599    6.3631    2.6102 H   0  0  0  0  0  0
   31.7389    5.6974    0.3935 H   0  0  0  0  0  0
   35.2358    4.8049   -0.4273 H   0  0  0  0  0  0
   35.6352    5.1158   -4.7373 H   0  0  0  0  0  0
   34.8127    4.7590   -7.0298 H   0  0  0  0  0  0
   32.6061    3.6986   -7.3995 H   0  0  0  0  0  0
   31.2242    2.9869   -5.4739 H   0  0  0  0  0  0
   32.0378    3.3600   -3.1740 H   0  0  0  0  0  0
   35.8651    5.6989    1.6320 H   0  0  0  0  0  0
   35.1680    6.3255    3.8981 H   0  0  0  0  0  0
   27.0402    4.3872    4.7331 H   0  0  0  0  0  0
   28.6959    4.6028    4.3902 H   0  0  0  0  0  0
   27.4536    4.8740    0.3465 H   0  0  0  0  0  0
   25.6416    3.7985   -0.9384 H   0  0  0  0  0  0
   23.6014    3.0383    0.2118 H   0  0  0  0  0  0
   23.3439    3.3467    2.6481 H   0  0  0  0  0  0
   25.1164    4.4208    3.9394 H   0  0  0  0  0  0
  1  2  1  0  0  0
  1 31  1  0  0  0
  2  3  1  0  0  0
  2 23  1  0  0  0
  2 32  1  0  0  0
  3  4  1  0  0  0
  3 33  1  0  0  0
  3 34  1  0  0  0
  4  5  1  0  0  0
  4 35  1  0  0  0
  5  6  1  0  0  0
  5 36  1  0  0  0
  5 37  1  0  0  0
  6  7  1  0  0  0
  6 38  1  0  0  0
  6 39  1  0  0  0
  7  8  2  0  0  0
  7 22  1  0  0  0
  8  9  1  0  0  0
  8 40  1  0  0  0
  9 10  2  0  0  0
  9 41  1  0  0  0
 10 11  1  0  0  0
 10 21  1  0  0  0
 11 12  1  0  0  0
 11 42  1  0  0  0
 12 13  2  0  0  0
 12 14  1  0  0  0
 14 15  1  0  0  0
 15 16  2  0  0  0
 15 20  1  0  0  0
 16 17  1  0  0  0
 16 43  1  0  0  0
 17 18  2  0  0  0
 17 44  1  0  0  0
 18 19  1  0  0  0
 18 45  1  0  0  0
 19 20  2  0  0  0
 19 46  1  0  0  0
 20 47  1  0  0  0
 21 22  2  0  0  0
 21 48  1  0  0  0
 22 49  1  0  0  0
 23 24  1  0  0  0
 23 50  1  0  0  0
 23 51  1  0  0  0
 24 25  1  0  0  0
 25 26  2  0  0  0
 25 30  1  0  0  0
 26 27  1  0  0  0
 26 52  1  0  0  0
 27 28  2  0  0  0
 27 53  1  0  0  0
 28 29  1  0  0  0
 28 54  1  0  0  0
 29 30  2  0  0  0
 29 55  1  0  0  0
 30 56  1  0  0  0
M  END
> <s_m_entry_id>
3233

> <s_m_entry_name>
dock_pv.325

> <s_m_Source_Path>
/home/csk/Desktop/cluster/DUD-E-result/adrb1

> <s_m_Source_File>
dock_pv.maegz

> <i_m_Source_File_Index>
325

> <chembl_id>
CHEMBL1203992

> <chembl_pref_name>
None

> <i_lp_mmshare_version>
53161

> <i_f3d_flags>
0

> <r_lp_tautomer_probability>
1

> <s_lp_Force_Field>
OPLS_2005

> <r_lp_Energy>
36.272352

> <b_lp_Chiralities_Consistent>
1

> <s_lp_Variant>
CHEMBL213_lig961-1

> <s_i_glide_gridfile>
glide-grid_2vt4

> <i_i_glide_lignum>
1073

> <i_i_glide_rotatable_bonds>
13

> <r_i_docking_score>
-7.1742563781444

> <r_i_glide_ligand_efficiency>
-0.23914187927148

> <r_i_glide_ligand_efficiency_sa>
-0.743069419964794

> <r_i_glide_ligand_efficiency_ln>
-1.63006921889856

> <r_i_glide_gscore>
-7.1742563781444

> <r_i_glide_lipo>
-3.00935303833083

> <r_i_glide_hbond>
-0.924470725572181

> <r_i_glide_metal>
0

> <r_i_glide_rewards>
-0.255932110849848

> <r_i_glide_evdw>
-41.250846862793

> <r_i_glide_ecoul>
-14.0802459716797

> <r_i_glide_erotb>
1.19007873550005

> <r_i_glide_esite>
0

> <r_i_glide_emodel>
-68.9164271488962

> <r_i_glide_energy>
-55.3310928344727

> <r_i_glide_einternal>
13.931957244873

> <i_i_glide_confnum>
20

> <i_i_glide_posenum>
279

> <r_i_glide_eff_state_penalty>
0

> <s_user_duplicate_titles>
CHEMBL213_lig961,677943

> <s_m_subgroup_title>
dock_pv

> <s_m_subgroupid>
dock_pv

> <b_m_subgroup_collapsed>
1

$$$$
CHEMBL213_lig1236
                    3D
 Schrodinger Suite 2021-1.
 59 61  0  0  1  0            999 V2000
   26.6814    6.2311    4.9626 S   0  0  0  0  0  0
   26.9061    4.3246   -0.2186 S   0  0  0  0  0  0
   25.9556    5.2581    3.6349 C   0  0  0  0  0  0
   26.6491    5.1376    2.4245 C   0  0  0  0  0  0
   36.9825    4.4796   -0.5264 N   0  0  0  0  0  0
   26.0811    4.4376    1.3569 C   0  0  0  0  0  0
   34.8484    5.1163   -1.4997 C   0  0  0  0  0  0
   35.9834    4.2880   -1.4817 C   0  0  0  0  0  0
   37.1612    5.5359    0.2915 C   0  0  0  0  0  0
   24.6932    4.6501    3.7682 C   0  0  0  0  0  0
   26.6192    5.4503    6.1990 O   0  0  0  0  0  0
   27.9629    6.7649    4.4931 O   0  0  0  0  0  0
   26.4714    3.0507   -0.7928 O   0  0  0  0  0  0
   28.3230    4.6500   -0.0148 O   0  0  0  0  0  0
   34.7554    6.1971   -0.4284 C   0  0  0  0  0  0
   26.2005    5.5941   -1.1942 N   0  0  1  0  0  0
   33.8450    4.8892   -2.4549 C   0  0  0  0  0  0
   25.6093    7.5820    5.1830 N   0  0  0  0  0  0
   32.7343    5.7157   -2.4247 O   0  0  0  0  0  0
   24.8365    3.8218    1.5031 C   0  0  0  0  0  0
   38.0618    5.5873    1.1230 O   0  0  0  0  0  0
   24.1517    3.9221    2.7092 C   0  0  0  0  0  0
   36.1535    6.6845    0.0429 C   0  0  0  0  0  0
   31.4846    5.2500   -2.9448 C   0  0  0  0  0  0
   23.7259    4.8479    5.1912 Cl  0  0  0  0  0  0
   31.0980    5.9735   -4.2569 C   0  0  1  0  0  0
   27.0956    6.4727   -1.9531 C   0  0  0  0  0  0
   28.7730    6.5694   -3.6932 N   0  0  2  0  0  0
   36.1262    3.2590   -2.4114 C   0  0  0  0  0  0
   31.8493    5.4500   -5.3320 O   0  0  0  0  0  0
   35.1376    3.0421   -3.3653 C   0  0  0  0  0  0
   34.0030    3.8488   -3.3854 C   0  0  0  0  0  0
   29.6092    5.8244   -4.6291 C   0  0  0  0  0  0
   27.8046    5.6906   -3.0625 C   0  0  0  0  0  0
   27.6125    5.6104    2.2959 H   0  0  0  0  0  0
   37.7028    3.7706   -0.4461 H   0  0  0  0  0  0
   34.1950    5.8071    0.4213 H   0  0  0  0  0  0
   34.1879    7.0488   -0.8031 H   0  0  0  0  0  0
   25.4726    5.2011   -1.8119 H   0  0  0  0  0  0
   24.7339    7.2847    5.6183 H   0  0  0  0  0  0
   26.0505    8.2495    5.8314 H   0  0  0  0  0  0
   24.3878    3.2830    0.6783 H   0  0  0  0  0  0
   23.1750    3.4674    2.8062 H   0  0  0  0  0  0
   36.5985    7.3273   -0.7161 H   0  0  0  0  0  0
   36.0650    7.2750    0.9541 H   0  0  0  0  0  0
   31.4125    4.1659   -3.0450 H   0  0  0  0  0  0
   30.7524    5.4971   -2.1762 H   0  0  0  0  0  0
   31.3419    7.0343   -4.1784 H   0  0  0  0  0  0
   27.8024    6.9410   -1.2667 H   0  0  0  0  0  0
   26.4715    7.2399   -2.4069 H   0  0  0  0  0  0
   28.2831    7.3106   -4.1812 H   0  0  0  0  0  0
   37.0064    2.6321   -2.4035 H   0  0  0  0  0  0
   31.8692    6.1203   -6.0213 H   0  0  0  0  0  0
   35.2551    2.2512   -4.0915 H   0  0  0  0  0  0
   33.2585    3.6622   -4.1432 H   0  0  0  0  0  0
   29.4101    6.2346   -5.6150 H   0  0  0  0  0  0
   29.3455    4.7642   -4.6827 H   0  0  0  0  0  0
   27.0783    5.3255   -3.7918 H   0  0  0  0  0  0
   28.3086    4.8194   -2.6406 H   0  0  0  0  0  0
  1  3  1  0  0  0
  1 11  2  0  0  0
  1 12  2  0  0  0
  1 18  1  0  0  0
  2  6  1  0  0  0
  2 13  2  0  0  0
  2 14  2  0  0  0
  2 16  1  0  0  0
  3  4  2  0  0  0
  3 10  1  0  0  0
  4  6  1  0  0  0
  4 35  1  0  0  0
  5  8  1  0  0  0
  5  9  1  0  0  0
  5 36  1  0  0  0
  6 20  2  0  0  0
  7 17  2  0  0  0
  7  8  1  0  0  0
  7 15  1  0  0  0
  8 29  2  0  0  0
  9 23  1  0  0  0
  9 21  2  0  0  0
 10 22  2  0  0  0
 10 25  1  0  0  0
 15 23  1  0  0  0
 15 37  1  0  0  0
 15 38  1  0  0  0
 16 27  1  0  0  0
 16 39  1  0  0  0
 17 19  1  0  0  0
 17 32  1  0  0  0
 18 40  1  0  0  0
 18 41  1  0  0  0
 19 24  1  0  0  0
 20 22  1  0  0  0
 20 42  1  0  0  0
 22 43  1  0  0  0
 23 44  1  0  0  0
 23 45  1  0  0  0
 24 26  1  0  0  0
 24 46  1  0  0  0
 24 47  1  0  0  0
 26 33  1  0  0  0
 26 30  1  0  0  0
 26 48  1  0  0  0
 27 34  1  0  0  0
 27 49  1  0  0  0
 27 50  1  0  0  0
 28 34  1  0  0  0
 28 33  1  0  0  0
 28 51  1  0  0  0
 29 31  1  0  0  0
 29 52  1  0  0  0
 30 53  1  0  0  0
 31 32  2  0  0  0
 31 54  1  0  0  0
 32 55  1  0  0  0
 33 56  1  0  0  0
 33 57  1  0  0  0
 34 58  1  0  0  0
 34 59  1  0  0  0
M  END
> <s_m_entry_id>
3234

> <s_m_entry_name>
dock_pv.326

> <s_m_Source_Path>
/home/csk/Desktop/cluster/DUD-E-result/adrb1

> <s_m_Source_File>
dock_pv.maegz

> <i_m_Source_File_Index>
326

> <chembl_id>
CHEMBL290313

> <chembl_pref_name>
None

> <i_lp_mmshare_version>
53161

> <i_f3d_flags>
0

> <r_lp_tautomer_probability>
1

> <s_lp_Force_Field>
OPLS_2005

> <r_lp_Energy>
38.845537

> <b_lp_Chiralities_Consistent>
1

> <s_lp_Variant>
CHEMBL213_lig1236-1

> <s_i_glide_gridfile>
glide-grid_2vt4

> <i_i_glide_lignum>
1476

> <i_i_glide_rotatable_bonds>
12

> <r_i_docking_score>
-7.17378267326152

> <r_i_glide_ligand_efficiency>
-0.210993608037103

> <r_i_glide_ligand_efficiency_sa>
-0.683537381787649

> <r_i_glide_ligand_efficiency_ln>
-1.58488981031175

> <r_i_glide_gscore>
-7.17378267326152

> <r_i_glide_lipo>
-2.44694583509229

> <r_i_glide_hbond>
-0.881779586640041

> <r_i_glide_metal>
0

> <r_i_glide_rewards>
0.187267929072003

> <r_i_glide_evdw>
-48.4119529724121

> <r_i_glide_ecoul>
-14.4605283737183

> <r_i_glide_erotb>
0.653503559504972

> <r_i_glide_esite>
-0.0961518354278108

> <r_i_glide_emodel>
-80.6621443311812

> <r_i_glide_energy>
-62.8724813461304

> <r_i_glide_einternal>
12.9248380661011

> <i_i_glide_confnum>
90

> <i_i_glide_posenum>
276

> <r_i_glide_eff_state_penalty>
0

> <s_user_duplicate_titles>
CHEMBL213_lig1236,61659

> <s_m_subgroup_title>
dock_pv

> <s_m_subgroupid>
dock_pv

> <b_m_subgroup_collapsed>
1

$$$$
CHEMBL213_lig853
                    3D
 Schrodinger Suite 2021-1.
 69 71  0  0  1  0            999 V2000
   31.0783    5.4412    0.8414 C   0  0  0  0  0  0
   32.4200    5.6245    0.5055 C   0  0  0  0  0  0
   32.8483    5.4507   -0.8029 C   0  0  0  0  0  0
   31.9572    5.0499   -1.8089 C   0  0  0  0  0  0
   30.6146    4.8463   -1.4595 C   0  0  0  0  0  0
   30.1774    5.0470   -0.1511 C   0  0  0  0  0  0
   32.4448    4.8411   -3.2087 C   0  0  0  0  0  0
   31.5924    4.9503   -4.3110 C   0  0  0  0  0  0
   32.0646    4.7366   -5.6013 C   0  0  0  0  0  0
   33.4107    4.4296   -5.8370 C   0  0  0  0  0  0
   34.2968    4.3056   -4.7409 C   0  0  0  0  0  0
   33.7840    4.5174   -3.4559 C   0  0  0  0  0  0
   30.6127    5.5455    2.2925 C   0  0  0  0  0  0
   30.9732    6.8519    3.0480 C   0  0  0  0  0  0
   32.3931    6.9846    3.3272 N   0  0  2  0  0  0
   32.8019    6.5584    4.6614 C   0  0  0  0  0  0
   34.2100    5.9072    4.6599 C   0  0  1  0  0  0
   35.2260    6.5911    3.7402 C   0  0  0  0  0  0
   34.6739    5.8497    5.9962 O   0  0  0  0  0  0
   35.6261    5.9580    2.5573 C   0  0  0  0  0  0
   36.5209    6.5866    1.6968 C   0  0  0  0  0  0
   37.0104    7.8501    2.0159 C   0  0  0  0  0  0
   36.6078    8.4931    3.1848 C   0  0  0  0  0  0
   35.7196    7.8625    4.0503 C   0  0  0  0  0  0
   33.8522    4.2129   -7.2608 C   0  0  0  0  0  0
   33.3313    3.3380   -7.9509 O   0  0  0  0  0  0
   34.8858    5.0499   -7.7306 N   0  0  0  0  0  0
   35.6203    5.0007   -9.3185 S   0  0  0  0  0  0
   37.3978    5.4737   -8.9507 C   0  0  0  0  0  0
   35.0270    6.0815  -10.1109 O   0  0  0  0  0  0
   35.6084    3.6190   -9.8098 O   0  0  0  0  0  0
   35.7837    3.9377   -4.9449 C   0  0  0  0  0  0
   36.6744    3.5231   -3.7344 C   0  0  0  0  0  0
   36.1628    2.2941   -2.9480 C   0  0  0  0  0  0
   37.1204    4.6951   -2.8329 C   0  0  0  0  0  0
   33.1511    5.9025    1.2446 H   0  0  0  0  0  0
   33.8899    5.6399   -1.0105 H   0  0  0  0  0  0
   29.8947    4.5146   -2.1923 H   0  0  0  0  0  0
   29.1391    4.8705    0.0896 H   0  0  0  0  0  0
   30.5520    5.2060   -4.1834 H   0  0  0  0  0  0
   31.3619    4.8215   -6.4150 H   0  0  0  0  0  0
   34.4321    4.4031   -2.6117 H   0  0  0  0  0  0
   29.5297    5.4252    2.3380 H   0  0  0  0  0  0
   31.0120    4.6644    2.7849 H   0  0  0  0  0  0
   30.7704    7.6878    2.3854 H   0  0  0  0  0  0
   30.3421    7.0226    3.9224 H   0  0  0  0  0  0
   32.6796    7.9418    3.1529 H   0  0  0  0  0  0
   32.7894    7.4474    5.2942 H   0  0  0  0  0  0
   32.0871    5.8587    5.0946 H   0  0  0  0  0  0
   34.0991    4.8744    4.3221 H   0  0  0  0  0  0
   34.1397    5.2137    6.4856 H   0  0  0  0  0  0
   35.2380    4.9836    2.2963 H   0  0  0  0  0  0
   36.8280    6.0990    0.7826 H   0  0  0  0  0  0
   37.6963    8.3413    1.3428 H   0  0  0  0  0  0
   36.9821    9.4768    3.4180 H   0  0  0  0  0  0
   35.4008    8.3647    4.9524 H   0  0  0  0  0  0
   35.0993    5.9202   -7.2148 H   0  0  0  0  0  0
   37.9470    5.5029   -9.8913 H   0  0  0  0  0  0
   37.8260    4.7299   -8.2803 H   0  0  0  0  0  0
   37.4065    6.4557   -8.4759 H   0  0  0  0  0  0
   35.8215    3.1101   -5.6553 H   0  0  0  0  0  0
   36.2688    4.7849   -5.4338 H   0  0  0  0  0  0
   37.6048    3.1847   -4.1940 H   0  0  0  0  0  0
   35.2310    2.4621   -2.4163 H   0  0  0  0  0  0
   36.0038    1.4502   -3.6175 H   0  0  0  0  0  0
   36.8900    1.9781   -2.2003 H   0  0  0  0  0  0
   36.3085    5.2080   -2.3228 H   0  0  0  0  0  0
   37.8092    4.3488   -2.0630 H   0  0  0  0  0  0
   37.6499    5.4496   -3.4158 H   0  0  0  0  0  0
  1  6  1  0  0  0
  1 13  1  0  0  0
  1  2  2  0  0  0
  2  3  1  0  0  0
  2 36  1  0  0  0
  3  4  2  0  0  0
  3 37  1  0  0  0
  4  5  1  0  0  0
  4  7  1  0  0  0
  5  6  2  0  0  0
  5 38  1  0  0  0
  6 39  1  0  0  0
  7 12  1  0  0  0
  7  8  2  0  0  0
  8  9  1  0  0  0
  8 40  1  0  0  0
  9 10  2  0  0  0
  9 41  1  0  0  0
 10 11  1  0  0  0
 10 25  1  0  0  0
 11 12  2  0  0  0
 11 32  1  0  0  0
 12 42  1  0  0  0
 13 14  1  0  0  0
 13 43  1  0  0  0
 13 44  1  0  0  0
 14 15  1  0  0  0
 14 45  1  0  0  0
 14 46  1  0  0  0
 15 16  1  0  0  0
 15 47  1  0  0  0
 16 17  1  0  0  0
 16 48  1  0  0  0
 16 49  1  0  0  0
 17 18  1  0  0  0
 17 19  1  0  0  0
 17 50  1  0  0  0
 18 20  2  0  0  0
 18 24  1  0  0  0
 19 51  1  0  0  0
 20 21  1  0  0  0
 20 52  1  0  0  0
 21 22  2  0  0  0
 21 53  1  0  0  0
 22 23  1  0  0  0
 22 54  1  0  0  0
 23 24  2  0  0  0
 23 55  1  0  0  0
 24 56  1  0  0  0
 25 26  2  0  0  0
 25 27  1  0  0  0
 27 28  1  0  0  0
 27 57  1  0  0  0
 28 29  1  0  0  0
 28 30  2  0  0  0
 28 31  2  0  0  0
 29 58  1  0  0  0
 29 59  1  0  0  0
 29 60  1  0  0  0
 32 33  1  0  0  0
 32 61  1  0  0  0
 32 62  1  0  0  0
 33 34  1  0  0  0
 33 35  1  0  0  0
 33 63  1  0  0  0
 34 64  1  0  0  0
 34 65  1  0  0  0
 34 66  1  0  0  0
 35 67  1  0  0  0
 35 68  1  0  0  0
 35 69  1  0  0  0
M  END
> <s_m_entry_id>
3235

> <s_m_entry_name>
dock_pv.327

> <s_m_Source_Path>
/home/csk/Desktop/cluster/DUD-E-result/adrb1

> <s_m_Source_File>
dock_pv.maegz

> <i_m_Source_File_Index>
327

> <chembl_id>
CHEMBL469821

> <chembl_pref_name>
None

> <i_lp_mmshare_version>
53161

> <i_f3d_flags>
0

> <r_lp_tautomer_probability>
1

> <s_lp_Force_Field>
OPLS_2005

> <r_lp_Energy>
24.108564

> <b_lp_Chiralities_Consistent>
1

> <s_lp_Variant>
CHEMBL213_lig853-1

> <s_i_glide_gridfile>
glide-grid_2vt4

> <i_i_glide_lignum>
961

> <i_i_glide_rotatable_bonds>
13

> <r_i_docking_score>
-7.17349248532538

> <r_i_glide_ligand_efficiency>
-0.204956928152154

> <r_i_glide_ligand_efficiency_sa>
-0.670427701923719

> <r_i_glide_ligand_efficiency_ln>
-1.57474080761678

> <r_i_glide_gscore>
-7.17349248532538

> <r_i_glide_lipo>
-2.44350886474464

> <r_i_glide_hbond>
-0.341304534516602

> <r_i_glide_metal>
0

> <r_i_glide_rewards>
-0.0890825926537646

> <r_i_glide_evdw>
-46.4261932373047

> <r_i_glide_ecoul>
-17.4636325836182

> <r_i_glide_erotb>
0.749643344889021

> <r_i_glide_esite>
-0.108385288891436

> <r_i_glide_emodel>
-82.9630627025001

> <r_i_glide_energy>
-63.8898258209229

> <r_i_glide_einternal>
15.2982902526855

> <i_i_glide_confnum>
2

> <i_i_glide_posenum>
275

> <r_i_glide_eff_state_penalty>
0

> <s_user_duplicate_titles>
CHEMBL213_lig853

> <s_m_subgroup_title>
dock_pv

> <s_m_subgroupid>
dock_pv

> <b_m_subgroup_collapsed>
1

$$$$
CHEMBL213_lig882
                    3D
 Schrodinger Suite 2021-1.
 62 65  0  0  1  0            999 V2000
   26.0287    6.7178    4.5689 C   0  0  0  0  0  0
   26.0335    5.4330    4.0345 C   0  0  0  0  0  0
   27.1779    4.7627    3.7526 N   0  0  0  0  0  0
   28.3591    5.3895    3.9730 C   0  0  0  0  0  0
   28.4488    6.6968    4.4644 C   0  0  0  0  0  0
   27.2514    7.3471    4.7863 C   0  0  0  0  0  0
   29.7892    7.4169    4.6214 C   0  0  2  0  0  0
   30.7720    7.2032    3.4372 C   0  0  0  0  0  0
   30.4276    7.0499    5.8047 O   0  0  0  0  0  0
   32.0995    6.6495    3.7701 N   0  0  1  0  0  0
   32.9447    6.5435    2.5838 C   0  0  1  0  0  0
   34.3287    5.9195    2.8139 C   0  0  0  0  0  0
   35.2446    6.1823    1.5940 C   0  0  0  0  0  0
   32.2788    5.8557    1.3509 C   0  0  0  0  0  0
   33.2031    5.6402    0.1533 C   0  0  0  0  0  0
   34.5998    5.7867    0.2620 C   0  0  0  0  0  0
   35.3784    5.6029   -0.8873 C   0  0  0  0  0  0
   34.7965    5.2958   -2.1177 C   0  0  0  0  0  0
   33.4176    5.1302   -2.2350 C   0  0  0  0  0  0
   32.6430    5.2875   -1.0801 C   0  0  0  0  0  0
   32.9216    4.8028   -3.4884 O   0  0  0  0  0  0
   31.5864    4.5693   -3.7662 C   0  0  0  0  0  0
   31.2617    3.4500   -4.5377 C   0  0  0  0  0  0
   29.9319    3.1466   -4.8821 C   0  0  0  0  0  0
   28.9299    4.0104   -4.4150 C   0  0  0  0  0  0
   29.2268    5.1578   -3.6708 C   0  0  0  0  0  0
   30.5631    5.4394   -3.3722 C   0  0  0  0  0  0
   24.5352    4.6480    3.7237 Cl  0  0  0  0  0  0
   28.1180    6.0338   -3.1494 C   0  0  0  0  0  0
   27.0136    6.0758   -3.9411 O   0  0  0  0  0  0
   28.2058    6.6494   -2.0908 O   0  0  0  0  0  0
   29.5972    2.0176   -5.6815 N   0  0  0  0  0  0
   30.6126    1.0512   -6.0776 C   0  0  0  0  0  0
   28.2082    1.5794   -5.7982 C   0  0  0  0  0  0
   25.0999    7.2189    4.8012 H   0  0  0  0  0  0
   29.2447    4.8216    3.7226 H   0  0  0  0  0  0
   27.2548    8.3459    5.1862 H   0  0  0  0  0  0
   29.5984    8.4877    4.7046 H   0  0  0  0  0  0
   30.9077    8.1496    2.9181 H   0  0  0  0  0  0
   30.2855    6.5322    2.7378 H   0  0  0  0  0  0
   31.2570    6.6460    5.5116 H   0  0  0  0  0  0
   32.5638    7.3413    4.3483 H   0  0  0  0  0  0
   33.1554    7.5889    2.3850 H   0  0  0  0  0  0
   34.2369    4.8538    3.0151 H   0  0  0  0  0  0
   34.7919    6.3554    3.6994 H   0  0  0  0  0  0
   36.1971    5.6652    1.7204 H   0  0  0  0  0  0
   35.4777    7.2475    1.5483 H   0  0  0  0  0  0
   31.4653    6.4775    0.9900 H   0  0  0  0  0  0
   31.8261    4.9049    1.6320 H   0  0  0  0  0  0
   36.4514    5.7175   -0.8333 H   0  0  0  0  0  0
   35.4258    5.1772   -2.9887 H   0  0  0  0  0  0
   31.5780    5.1260   -1.1058 H   0  0  0  0  0  0
   32.0721    2.8172   -4.8588 H   0  0  0  0  0  0
   27.8930    3.7949   -4.6287 H   0  0  0  0  0  0
   30.8110    6.3315   -2.8182 H   0  0  0  0  0  0
   26.2973    6.5377   -3.5037 H   0  0  0  0  0  0
   31.0019    0.5363   -5.1987 H   0  0  0  0  0  0
   30.2128    0.3012   -6.7607 H   0  0  0  0  0  0
   31.4453    1.5461   -6.5765 H   0  0  0  0  0  0
   27.5778    2.3631   -6.2193 H   0  0  0  0  0  0
   28.1128    0.6986   -6.4333 H   0  0  0  0  0  0
   27.8084    1.3253   -4.8159 H   0  0  0  0  0  0
  1  6  1  0  0  0
  1  2  2  0  0  0
  1 35  1  0  0  0
  2  3  1  0  0  0
  2 28  1  0  0  0
  3  4  2  0  0  0
  4  5  1  0  0  0
  4 36  1  0  0  0
  5  6  2  0  0  0
  5  7  1  0  0  0
  6 37  1  0  0  0
  7  8  1  0  0  0
  7  9  1  0  0  0
  7 38  1  0  0  0
  8 10  1  0  0  0
  8 39  1  0  0  0
  8 40  1  0  0  0
  9 41  1  0  0  0
 10 11  1  0  0  0
 10 42  1  0  0  0
 11 12  1  0  0  0
 11 14  1  0  0  0
 11 43  1  0  0  0
 12 13  1  0  0  0
 12 44  1  0  0  0
 12 45  1  0  0  0
 13 16  1  0  0  0
 13 46  1  0  0  0
 13 47  1  0  0  0
 14 15  1  0  0  0
 14 48  1  0  0  0
 14 49  1  0  0  0
 15 20  1  0  0  0
 15 16  2  0  0  0
 16 17  1  0  0  0
 17 18  2  0  0  0
 17 50  1  0  0  0
 18 19  1  0  0  0
 18 51  1  0  0  0
 19 20  2  0  0  0
 19 21  1  0  0  0
 20 52  1  0  0  0
 21 22  1  0  0  0
 22 23  2  0  0  0
 22 27  1  0  0  0
 23 24  1  0  0  0
 23 53  1  0  0  0
 24 25  2  0  0  0
 24 32  1  0  0  0
 25 26  1  0  0  0
 25 54  1  0  0  0
 26 27  2  0  0  0
 26 29  1  0  0  0
 27 55  1  0  0  0
 29 30  1  0  0  0
 29 31  2  0  0  0
 30 56  1  0  0  0
 32 33  1  0  0  0
 32 34  1  0  0  0
 33 57  1  0  0  0
 33 58  1  0  0  0
 33 59  1  0  0  0
 34 60  1  0  0  0
 34 61  1  0  0  0
 34 62  1  0  0  0
M  END
> <s_m_entry_id>
3236

> <s_m_entry_name>
dock_pv.328

> <s_m_Source_Path>
/home/csk/Desktop/cluster/DUD-E-result/adrb1

> <s_m_Source_File>
dock_pv.maegz

> <i_m_Source_File_Index>
328

> <chembl_id>
CHEMBL463181

> <chembl_pref_name>
None

> <i_lp_mmshare_version>
53161

> <i_f3d_flags>
0

> <r_lp_tautomer_probability>
1

> <s_lp_Force_Field>
OPLS_2005

> <r_lp_Energy>
33.796313

> <b_lp_Chiralities_Consistent>
1

> <s_lp_Variant>
CHEMBL213_lig882-1

> <s_i_glide_gridfile>
glide-grid_2vt4

> <i_i_glide_lignum>
990

> <i_i_glide_rotatable_bonds>
10

> <r_i_docking_score>
-7.17254580687061

> <r_i_glide_ligand_efficiency>
-0.210957229613842

> <r_i_glide_ligand_efficiency_sa>
-0.683419529818477

> <r_i_glide_ligand_efficiency_ln>
-1.58461655183308

> <r_i_glide_gscore>
-7.17254580687061

> <r_i_glide_lipo>
-3.47379188036471

> <r_i_glide_hbond>
-0.32

> <r_i_glide_metal>
0

> <r_i_glide_rewards>
-0.82822295323175

> <r_i_glide_evdw>
-46.4793434143066

> <r_i_glide_ecoul>
-5.00427293777466

> <r_i_glide_erotb>
0.524077138107383

> <r_i_glide_esite>
0

> <r_i_glide_emodel>
-54.1416577405477

> <r_i_glide_energy>
-51.4836163520813

> <r_i_glide_einternal>
17.5109767913818

> <i_i_glide_confnum>
18

> <i_i_glide_posenum>
115

> <r_i_glide_eff_state_penalty>
0

> <s_user_duplicate_titles>
CHEMBL213_lig882,512009

> <s_m_subgroup_title>
dock_pv

> <s_m_subgroupid>
dock_pv

> <b_m_subgroup_collapsed>
1

$$$$
CHEMBL213_lig462
                    3D
 Schrodinger Suite 2021-1.
 61 64  0  0  1  0            999 V2000
   24.0353    4.0201    2.7845 C   0  0  0  0  0  0
   24.5754    4.6500    3.9071 C   0  0  0  0  0  0
   26.1057    4.3948    1.5597 C   0  0  0  0  0  0
   24.7926    3.8965    1.6198 C   0  0  0  0  0  0
   26.6522    4.9743    2.7200 C   0  0  0  0  0  0
   25.8848    5.1276    3.8707 C   0  0  0  0  0  0
   26.5562    5.7793    4.8936 N   0  0  0  0  0  0
   27.8787    6.1010    4.6892 C   0  0  0  0  0  0
   28.3002    5.5179    3.0085 S   0  0  0  0  0  0
   28.6492    6.6550    5.4698 O   0  0  0  0  0  0
   23.8080    4.8160    5.0372 O   0  0  0  0  0  0
   26.9090    4.2585    0.2615 C   0  0  2  0  0  0
   26.7419    5.4388   -0.7219 C   0  0  0  0  0  0
   27.8602    5.4395   -1.6690 N   0  0  2  0  0  0
   27.6399    6.3008   -2.8203 C   0  0  0  0  0  0
   28.8987    6.3014   -3.7193 C   0  0  0  0  0  0
   29.3256    4.9879   -4.3841 C   0  0  0  0  0  0
   28.5071    3.8501   -4.4149 C   0  0  0  0  0  0
   28.9411    2.6874   -5.0516 C   0  0  0  0  0  0
   30.2004    2.6423   -5.6467 C   0  0  0  0  0  0
   31.0360    3.7625   -5.6190 C   0  0  0  0  0  0
   30.5812    4.9359   -5.0009 C   0  0  0  0  0  0
   26.6094    3.0497   -0.4150 O   0  0  0  0  0  0
   32.4193    3.6669   -6.2685 C   0  0  0  0  0  0
   33.4599    4.5252   -5.7058 N   0  0  2  0  0  0
   33.7574    4.2591   -4.3022 C   0  0  0  0  0  0
   34.8624    5.2017   -3.8001 C   0  0  0  0  0  0
   35.0917    5.0890   -2.3033 C   0  0  0  0  0  0
   36.1464    4.3309   -1.7846 C   0  0  0  0  0  0
   36.3006    4.2654   -0.3988 C   0  0  0  0  0  0
   35.4095    4.9561    0.4259 C   0  0  0  0  0  0
   34.3818    5.6910   -0.1697 C   0  0  0  0  0  0
   34.2113    5.7637   -1.5146 N   0  0  0  0  0  0
   23.0222    3.6453    2.7984 H   0  0  0  0  0  0
   24.3465    3.4317    0.7504 H   0  0  0  0  0  0
   26.1024    6.0251    5.7609 H   0  0  0  0  0  0
   22.8914    4.5568    4.9115 H   0  0  0  0  0  0
   27.9564    4.2501    0.5488 H   0  0  0  0  0  0
   25.7714    5.3739   -1.2162 H   0  0  0  0  0  0
   26.7626    6.3824   -0.1739 H   0  0  0  0  0  0
   28.0487    4.5041   -2.0032 H   0  0  0  0  0  0
   26.7845    5.9182   -3.3807 H   0  0  0  0  0  0
   27.4078    7.3196   -2.5101 H   0  0  0  0  0  0
   28.7607    7.0464   -4.5010 H   0  0  0  0  0  0
   29.7470    6.6490   -3.1330 H   0  0  0  0  0  0
   27.5227    3.8550   -3.9693 H   0  0  0  0  0  0
   28.2974    1.8198   -5.0710 H   0  0  0  0  0  0
   30.5267    1.7300   -6.1241 H   0  0  0  0  0  0
   31.2088    5.8154   -4.9926 H   0  0  0  0  0  0
   27.2950    2.8559   -1.0649 H   0  0  0  0  0  0
   32.7550    2.6325   -6.3520 H   0  0  0  0  0  0
   32.2856    3.9880   -7.3021 H   0  0  0  0  0  0
   33.3461    5.5047   -5.9332 H   0  0  0  0  0  0
   32.8721    4.3739   -3.6758 H   0  0  0  0  0  0
   34.0837    3.2259   -4.1703 H   0  0  0  0  0  0
   35.7945    5.0164   -4.3377 H   0  0  0  0  0  0
   34.6084    6.2383   -4.0151 H   0  0  0  0  0  0
   36.8332    3.8045   -2.4324 H   0  0  0  0  0  0
   37.1068    3.6825    0.0244 H   0  0  0  0  0  0
   35.5085    4.9147    1.5000 H   0  0  0  0  0  0
   33.6707    6.2367    0.4337 H   0  0  0  0  0  0
  1  4  1  0  0  0
  1  2  2  0  0  0
  1 34  1  0  0  0
  2 11  1  0  0  0
  2  6  1  0  0  0
  3 12  1  0  0  0
  3  5  1  0  0  0
  3  4  2  0  0  0
  4 35  1  0  0  0
  5  9  1  0  0  0
  5  6  2  0  0  0
  6  7  1  0  0  0
  7  8  1  0  0  0
  7 36  1  0  0  0
  8  9  1  0  0  0
  8 10  2  0  0  0
 11 37  1  0  0  0
 12 23  1  0  0  0
 12 13  1  0  0  0
 12 38  1  0  0  0
 13 14  1  0  0  0
 13 39  1  0  0  0
 13 40  1  0  0  0
 14 15  1  0  0  0
 14 41  1  0  0  0
 15 16  1  0  0  0
 15 42  1  0  0  0
 15 43  1  0  0  0
 16 17  1  0  0  0
 16 44  1  0  0  0
 16 45  1  0  0  0
 17 18  2  0  0  0
 17 22  1  0  0  0
 18 19  1  0  0  0
 18 46  1  0  0  0
 19 20  2  0  0  0
 19 47  1  0  0  0
 20 21  1  0  0  0
 20 48  1  0  0  0
 21 22  2  0  0  0
 21 24  1  0  0  0
 22 49  1  0  0  0
 23 50  1  0  0  0
 24 25  1  0  0  0
 24 51  1  0  0  0
 24 52  1  0  0  0
 25 26  1  0  0  0
 25 53  1  0  0  0
 26 27  1  0  0  0
 26 54  1  0  0  0
 26 55  1  0  0  0
 27 28  1  0  0  0
 27 56  1  0  0  0
 27 57  1  0  0  0
 28 29  2  0  0  0
 28 33  1  0  0  0
 29 30  1  0  0  0
 29 58  1  0  0  0
 30 31  2  0  0  0
 30 59  1  0  0  0
 31 32  1  0  0  0
 31 60  1  0  0  0
 32 33  2  0  0  0
 32 61  1  0  0  0
M  END
> <s_m_entry_id>
3237

> <s_m_entry_name>
dock_pv.329

> <s_m_Source_Path>
/home/csk/Desktop/cluster/DUD-E-result/adrb1

> <s_m_Source_File>
dock_pv.maegz

> <i_m_Source_File_Index>
329

> <chembl_id>
CHEMBL1945033

> <chembl_pref_name>
None

> <i_lp_mmshare_version>
53161

> <i_f3d_flags>
0

> <r_lp_tautomer_probability>
1

> <s_lp_Force_Field>
OPLS_2005

> <r_lp_Energy>
27.917521

> <b_lp_Chiralities_Consistent>
1

> <s_lp_Variant>
CHEMBL213_lig462-1

> <s_i_glide_gridfile>
glide-grid_2vt4

> <i_i_glide_lignum>
550

> <i_i_glide_rotatable_bonds>
13

> <r_i_docking_score>
-7.17204016265258

> <r_i_glide_ligand_efficiency>
-0.217334550383412

> <r_i_glide_ligand_efficiency_sa>
-0.697108030636519

> <r_i_glide_ligand_efficiency_ln>
-1.59502459733739

> <r_i_glide_gscore>
-7.17204016265258

> <r_i_glide_lipo>
-3.20588799457887

> <r_i_glide_hbond>
-0.557767150778475

> <r_i_glide_metal>
0

> <r_i_glide_rewards>
-0.881952717512543

> <r_i_glide_evdw>
-46.3152389526367

> <r_i_glide_ecoul>
-7.631591796875

> <r_i_glide_erotb>
0.934068417380389

> <r_i_glide_esite>
0

> <r_i_glide_emodel>
-73.9056808733765

> <r_i_glide_energy>
-53.9468307495117

> <r_i_glide_einternal>
8.50763893127441

> <i_i_glide_confnum>
150

> <i_i_glide_posenum>
294

> <r_i_glide_eff_state_penalty>
0

> <s_user_duplicate_titles>
CHEMBL213_lig462

> <s_m_subgroup_title>
dock_pv

> <s_m_subgroupid>
dock_pv

> <b_m_subgroup_collapsed>
1

$$$$
CHEMBL213_lig1033
                    3D
 Schrodinger Suite 2021-1.
 50 52  0  0  1  0            999 V2000
   30.8649    2.8781   -2.0703 C   0  0  0  0  0  0
   30.7459    4.3108   -2.6428 C   0  0  0  0  0  0
   31.6489    5.2508   -1.8208 C   0  0  0  0  0  0
   24.9878    4.0084    2.2278 C   0  0  0  0  0  0
   24.8870    3.7438    0.8627 C   0  0  0  0  0  0
   25.8708    4.1935   -0.0157 C   0  0  0  0  0  0
   26.9853    4.9107    0.4443 C   0  0  0  0  0  0
   26.0834    4.7264    2.7042 C   0  0  0  0  0  0
   27.0890    5.1443    1.8266 C   0  0  0  0  0  0
   28.1561    5.8499    2.3524 O   0  0  0  0  0  0
   28.5486    5.4717    3.6919 C   0  0  0  0  0  0
   27.3474    5.4070    4.6771 C   0  0  0  0  0  0
   26.2101    5.0497    4.0519 N   0  0  0  0  0  0
   27.4079    5.6498    5.8802 O   0  0  0  0  0  0
   23.8081    3.0557    0.3850 O   0  0  0  0  0  0
   28.0318    5.4249   -0.5548 C   0  0  1  0  0  0
   28.3785    4.4125   -1.6702 C   0  0  0  0  0  0
   27.5992    6.6247   -1.1692 O   0  0  0  0  0  0
   29.4000    4.9065   -2.6092 N   0  0  2  0  0  0
   31.2067    4.3144   -4.1361 C   0  0  0  0  0  0
   30.5003    3.3864   -5.1453 C   0  0  0  0  0  0
   29.2143    2.8675   -4.9330 C   0  0  0  0  0  0
   28.6054    2.0722   -5.8929 C   0  0  0  0  0  0
   29.2711    1.7859   -7.0746 C   0  0  0  0  0  0
   30.5611    2.2588   -7.2937 C   0  0  0  0  0  0
   31.1696    3.0665   -6.3333 C   0  0  0  0  0  0
   28.6478    1.0503   -8.0155 F   0  0  0  0  0  0
   31.8790    2.4978   -2.1805 H   0  0  0  0  0  0
   30.6077    2.8280   -1.0139 H   0  0  0  0  0  0
   30.2126    2.1792   -2.5843 H   0  0  0  0  0  0
   32.6745    4.8825   -1.7720 H   0  0  0  0  0  0
   31.6810    6.2499   -2.2546 H   0  0  0  0  0  0
   31.2930    5.3540   -0.7949 H   0  0  0  0  0  0
   24.2108    3.6717    2.8978 H   0  0  0  0  0  0
   25.7467    3.9981   -1.0698 H   0  0  0  0  0  0
   28.9654    4.4632    3.6601 H   0  0  0  0  0  0
   29.3095    6.1467    4.0838 H   0  0  0  0  0  0
   25.4150    4.9432    4.6620 H   0  0  0  0  0  0
   23.5921    3.2077   -0.5563 H   0  0  0  0  0  0
   28.9482    5.6549   -0.0139 H   0  0  0  0  0  0
   27.4887    4.2135   -2.2681 H   0  0  0  0  0  0
   28.6234    3.4546   -1.2142 H   0  0  0  0  0  0
   28.1344    6.7294   -1.9615 H   0  0  0  0  0  0
   29.0312    4.8980   -3.5517 H   0  0  0  0  0  0
   32.2667    4.0528   -4.1527 H   0  0  0  0  0  0
   31.1572    5.3285   -4.5387 H   0  0  0  0  0  0
   28.6529    3.0495   -4.0323 H   0  0  0  0  0  0
   27.6091    1.6909   -5.7235 H   0  0  0  0  0  0
   31.0736    2.0284   -8.2159 H   0  0  0  0  0  0
   32.1606    3.4549   -6.5211 H   0  0  0  0  0  0
  1  2  1  0  0  0
  1 28  1  0  0  0
  1 29  1  0  0  0
  1 30  1  0  0  0
  2 19  1  0  0  0
  2  3  1  0  0  0
  2 20  1  0  0  0
  3 31  1  0  0  0
  3 32  1  0  0  0
  3 33  1  0  0  0
  4  8  2  0  0  0
  4  5  1  0  0  0
  4 34  1  0  0  0
  5 15  1  0  0  0
  5  6  2  0  0  0
  6  7  1  0  0  0
  6 35  1  0  0  0
  7  9  2  0  0  0
  7 16  1  0  0  0
  8  9  1  0  0  0
  8 13  1  0  0  0
  9 10  1  0  0  0
 10 11  1  0  0  0
 11 12  1  0  0  0
 11 36  1  0  0  0
 11 37  1  0  0  0
 12 14  2  0  0  0
 12 13  1  0  0  0
 13 38  1  0  0  0
 15 39  1  0  0  0
 16 17  1  0  0  0
 16 18  1  0  0  0
 16 40  1  0  0  0
 17 19  1  0  0  0
 17 41  1  0  0  0
 17 42  1  0  0  0
 18 43  1  0  0  0
 19 44  1  0  0  0
 20 21  1  0  0  0
 20 45  1  0  0  0
 20 46  1  0  0  0
 21 22  2  0  0  0
 21 26  1  0  0  0
 22 23  1  0  0  0
 22 47  1  0  0  0
 23 24  2  0  0  0
 23 48  1  0  0  0
 24 25  1  0  0  0
 24 27  1  0  0  0
 25 26  2  0  0  0
 25 49  1  0  0  0
 26 50  1  0  0  0
M  END
> <s_m_entry_id>
3238

> <s_m_entry_name>
dock_pv.330

> <s_m_Source_Path>
/home/csk/Desktop/cluster/DUD-E-result/adrb1

> <s_m_Source_File>
dock_pv.maegz

> <i_m_Source_File_Index>
330

> <chembl_id>
CHEMBL600401

> <chembl_pref_name>
None

> <i_lp_mmshare_version>
53161

> <i_f3d_flags>
0

> <r_lp_tautomer_probability>
0.999999999999998

> <s_lp_Force_Field>
OPLS_2005

> <r_lp_Energy>
33.615826

> <b_lp_Chiralities_Consistent>
1

> <s_lp_Variant>
CHEMBL213_lig1033-2

> <s_i_glide_gridfile>
glide-grid_2vt4

> <i_i_glide_lignum>
1187

> <i_i_glide_rotatable_bonds>
8

> <r_i_docking_score>
-7.17145439974296

> <r_i_glide_ligand_efficiency>
-0.265609422212702

> <r_i_glide_ligand_efficiency_sa>
-0.796828265762702

> <r_i_glide_ligand_efficiency_ln>
-1.66939635359415

> <r_i_glide_gscore>
-7.17145439974296

> <r_i_glide_lipo>
-2.24957619332645

> <r_i_glide_hbond>
-0.16

> <r_i_glide_metal>
0

> <r_i_glide_rewards>
-2.17386412417606

> <r_i_glide_evdw>
-39.3504829406738

> <r_i_glide_ecoul>
-8.73441791534424

> <r_i_glide_erotb>
0.689672752094874

> <r_i_glide_esite>
0

> <r_i_glide_emodel>
-61.5419234441304

> <r_i_glide_energy>
-48.0849008560181

> <r_i_glide_einternal>
13.6885080337524

> <i_i_glide_confnum>
59

> <i_i_glide_posenum>
329

> <r_i_glide_eff_state_penalty>
0

> <s_user_duplicate_titles>
CHEMBL213_lig1033,602985

> <s_m_subgroup_title>
dock_pv

> <s_m_subgroupid>
dock_pv

> <b_m_subgroup_collapsed>
1

$$$$
CHEMBL213_lig1231
                    3D
 Schrodinger Suite 2021-1.
 56 58  0  0  1  0            999 V2000
   26.6496    6.3106    4.9896 S   0  0  0  0  0  0
   26.1174    5.3457    3.5725 C   0  0  0  0  0  0
   26.9184    5.3296    2.4286 C   0  0  0  0  0  0
   27.4079    4.6534    0.0514 C   0  0  0  0  0  0
   26.5394    4.6085    1.2852 C   0  0  0  0  0  0
   24.9105    4.6273    3.5724 C   0  0  0  0  0  0
   26.6069    5.4511    6.1761 O   0  0  0  0  0  0
   27.8906    7.0058    4.6403 O   0  0  0  0  0  0
   25.4202    7.5287    5.1839 N   0  0  0  0  0  0
   35.0231    5.4706   -1.9451 C   0  0  0  0  0  0
   33.8503    5.0947   -2.6658 C   0  0  0  0  0  0
   32.6892    5.8083   -2.4158 O   0  0  0  0  0  0
   28.5735    5.0502    0.1110 O   0  0  0  0  0  0
   25.3577    3.8512    1.3276 C   0  0  0  0  0  0
   24.5498    3.8685    2.4586 C   0  0  0  0  0  0
   26.8334    4.2512   -1.0907 N   0  0  0  0  0  0
   36.2519    4.7787   -2.1786 C   0  0  0  0  0  0
   31.4187    5.3006   -2.8275 C   0  0  0  0  0  0
   23.8063    4.6513    4.9087 Cl  0  0  0  0  0  0
   30.8596    6.0841   -4.0346 C   0  0  1  0  0  0
   28.5447    6.3910   -3.2403 N   0  0  2  0  0  0
   31.5573    5.7383   -5.2144 O   0  0  0  0  0  0
   35.1329    3.3694   -3.8123 C   0  0  0  0  0  0
   29.3719    5.7963   -4.2848 C   0  0  0  0  0  0
   33.9408    4.0480   -3.5960 C   0  0  0  0  0  0
   35.0131    6.5181   -0.9859 C   0  0  0  0  0  0
   36.2807    3.7218   -3.1156 C   0  0  0  0  0  0
   27.4579    4.3000   -2.4071 C   0  0  0  0  0  0
   27.2816    5.6848   -3.0815 C   0  0  0  0  0  0
   37.4154    5.1638   -1.4665 C   0  0  0  0  0  0
   36.1715    6.8652   -0.2947 C   0  0  0  0  0  0
   37.3637    6.1966   -0.5361 C   0  0  0  0  0  0
   27.8418    5.8955    2.4173 H   0  0  0  0  0  0
   24.5723    7.1236    5.5867 H   0  0  0  0  0  0
   25.7626    8.2504    5.8326 H   0  0  0  0  0  0
   25.0333    3.2617    0.4815 H   0  0  0  0  0  0
   23.6279    3.3061    2.4629 H   0  0  0  0  0  0
   25.8569    3.9944   -1.0915 H   0  0  0  0  0  0
   31.3829    4.2223   -2.9837 H   0  0  0  0  0  0
   30.7590    5.4518   -1.9724 H   0  0  0  0  0  0
   31.0059    7.1522   -3.8861 H   0  0  0  0  0  0
   28.3377    7.3548   -3.4696 H   0  0  0  0  0  0
   31.4734    6.4771   -5.8316 H   0  0  0  0  0  0
   35.1690    2.5679   -4.5371 H   0  0  0  0  0  0
   29.0526    6.2470   -5.2154 H   0  0  0  0  0  0
   29.2178    4.7205   -4.3781 H   0  0  0  0  0  0
   33.0916    3.7535   -4.1916 H   0  0  0  0  0  0
   34.0957    7.0483   -0.7902 H   0  0  0  0  0  0
   37.2076    3.1944   -3.2896 H   0  0  0  0  0  0
   27.0093    3.5287   -3.0342 H   0  0  0  0  0  0
   28.5079    4.0133   -2.3211 H   0  0  0  0  0  0
   26.6355    6.3126   -2.4636 H   0  0  0  0  0  0
   26.7588    5.5966   -4.0372 H   0  0  0  0  0  0
   38.3483    4.6498   -1.6488 H   0  0  0  0  0  0
   36.1451    7.6642    0.4324 H   0  0  0  0  0  0
   38.2604    6.4748   -0.0010 H   0  0  0  0  0  0
  1  2  1  0  0  0
  1  7  2  0  0  0
  1  8  2  0  0  0
  1  9  1  0  0  0
  2  3  2  0  0  0
  2  6  1  0  0  0
  3  5  1  0  0  0
  3 33  1  0  0  0
  4  5  1  0  0  0
  4 13  2  0  0  0
  4 16  1  0  0  0
  5 14  2  0  0  0
  6 15  2  0  0  0
  6 19  1  0  0  0
  9 34  1  0  0  0
  9 35  1  0  0  0
 10 11  2  0  0  0
 10 17  1  0  0  0
 10 26  1  0  0  0
 11 12  1  0  0  0
 11 25  1  0  0  0
 12 18  1  0  0  0
 14 15  1  0  0  0
 14 36  1  0  0  0
 15 37  1  0  0  0
 16 28  1  0  0  0
 16 38  1  0  0  0
 17 30  1  0  0  0
 17 27  2  0  0  0
 18 20  1  0  0  0
 18 39  1  0  0  0
 18 40  1  0  0  0
 20 24  1  0  0  0
 20 22  1  0  0  0
 20 41  1  0  0  0
 21 29  1  0  0  0
 21 24  1  0  0  0
 21 42  1  0  0  0
 22 43  1  0  0  0
 23 25  2  0  0  0
 23 27  1  0  0  0
 23 44  1  0  0  0
 24 45  1  0  0  0
 24 46  1  0  0  0
 25 47  1  0  0  0
 26 31  2  0  0  0
 26 48  1  0  0  0
 27 49  1  0  0  0
 28 29  1  0  0  0
 28 50  1  0  0  0
 28 51  1  0  0  0
 29 52  1  0  0  0
 29 53  1  0  0  0
 30 32  2  0  0  0
 30 54  1  0  0  0
 31 32  1  0  0  0
 31 55  1  0  0  0
 32 56  1  0  0  0
M  END
> <s_m_entry_id>
3239

> <s_m_entry_name>
dock_pv.331

> <s_m_Source_Path>
/home/csk/Desktop/cluster/DUD-E-result/adrb1

> <s_m_Source_File>
dock_pv.maegz

> <i_m_Source_File_Index>
331

> <chembl_id>
CHEMBL44097

> <chembl_pref_name>
None

> <i_lp_mmshare_version>
53161

> <i_f3d_flags>
0

> <r_lp_tautomer_probability>
1

> <s_lp_Force_Field>
OPLS_2005

> <r_lp_Energy>
41.248187

> <b_lp_Chiralities_Consistent>
1

> <s_lp_Variant>
CHEMBL213_lig1231-1

> <s_i_glide_gridfile>
glide-grid_2vt4

> <i_i_glide_lignum>
1466

> <i_i_glide_rotatable_bonds>
12

> <r_i_docking_score>
-7.16405471259085

> <r_i_glide_ligand_efficiency>
-0.223876709768464

> <r_i_glide_ligand_efficiency_sa>
-0.710764248374171

> <r_i_glide_ligand_efficiency_ln>
-1.60422713490501

> <r_i_glide_gscore>
-7.16405471259085

> <r_i_glide_lipo>
-2.31094183488075

> <r_i_glide_hbond>
-0.576

> <r_i_glide_metal>
0

> <r_i_glide_rewards>
-0.564449760823467

> <r_i_glide_evdw>
-47.6574058532715

> <r_i_glide_ecoul>
-13.766489982605

> <r_i_glide_erotb>
0.798208479827341

> <r_i_glide_esite>
-0.0630278066596532

> <r_i_glide_emodel>
-81.5092705249412

> <r_i_glide_energy>
-61.4238958358765

> <r_i_glide_einternal>
9.40850925445557

> <i_i_glide_confnum>
73

> <i_i_glide_posenum>
123

> <r_i_glide_eff_state_penalty>
0

> <s_user_duplicate_titles>
CHEMBL213_lig1231,61677

> <s_m_subgroup_title>
dock_pv

> <s_m_subgroupid>
dock_pv

> <b_m_subgroup_collapsed>
1

$$$$
CHEMBL213_lig1212 
                    3D
 Schrodinger Suite 2021-1.
 51 53  0  0  1  0            999 V2000
   34.0507    3.7446   -5.7596 C   0  0  0  0  0  0
   34.9801    4.4008   -4.9565 C   0  0  0  0  0  0
   32.4113    3.7684   -3.9600 C   0  0  0  0  0  0
   32.7812    3.4393   -5.2704 C   0  0  0  0  0  0
   33.3205    4.5017   -3.1728 C   0  0  0  0  0  0
   34.6179    4.7840   -3.6575 C   0  0  0  0  0  0
   35.5347    5.4495   -2.8136 N   0  0  0  0  0  0
   35.2993    5.9256   -1.5716 C   0  0  0  0  0  0
   33.9518    5.6711   -1.0929 C   0  0  0  0  0  0
   33.0145    5.0157   -1.8130 C   0  0  0  0  0  0
   36.1480    6.5424   -0.9385 O   0  0  0  0  0  0
   36.2294    4.6495   -5.4779 O   0  0  0  0  0  0
   31.0577    3.3035   -3.3996 C   0  0  1  0  0  0
   29.9488    4.3676   -3.5713 C   0  0  0  0  0  0
   30.6079    2.0658   -3.9334 O   0  0  0  0  0  0
   28.9731    4.2502   -2.4925 N   0  0  1  0  0  0
   27.8215    5.1251   -2.6721 C   0  0  0  0  0  0
   27.1022    5.3265   -1.3237 C   0  0  0  0  0  0
   26.7050    4.0247   -0.5865 C   0  0  0  0  0  0
   26.0940    4.2499    0.7904 C   0  0  0  0  0  0
   26.7742    5.0043    1.7545 C   0  0  0  0  0  0
   26.2381    5.2072    3.0264 C   0  0  0  0  0  0
   25.0065    4.6122    3.3388 C   0  0  0  0  0  0
   24.3246    3.8493    2.3882 C   0  0  0  0  0  0
   24.8638    3.6739    1.1155 C   0  0  0  0  0  0
   26.9693    5.9965    3.8921 O   0  0  0  0  0  0
   26.4183    6.3332    5.1616 C   0  0  0  0  0  0
   34.3199    3.4610   -6.7675 H   0  0  0  0  0  0
   32.0915    2.9033   -5.9071 H   0  0  0  0  0  0
   36.4702    5.6381   -3.1452 H   0  0  0  0  0  0
   33.7075    6.0491   -0.1107 H   0  0  0  0  0  0
   32.0297    4.8933   -1.3835 H   0  0  0  0  0  0
   36.5931    5.5328   -5.3027 H   0  0  0  0  0  0
   31.2298    3.0955   -2.3423 H   0  0  0  0  0  0
   29.4822    4.2832   -4.5555 H   0  0  0  0  0  0
   30.3845    5.3654   -3.5076 H   0  0  0  0  0  0
   29.7623    1.8515   -3.5224 H   0  0  0  0  0  0
   28.6365    3.2877   -2.4155 H   0  0  0  0  0  0
   27.1463    4.6767   -3.4019 H   0  0  0  0  0  0
   28.1296    6.0966   -3.0637 H   0  0  0  0  0  0
   26.2068    5.9267   -1.4963 H   0  0  0  0  0  0
   27.7479    5.9371   -0.6913 H   0  0  0  0  0  0
   27.5777    3.3894   -0.4330 H   0  0  0  0  0  0
   26.0209    3.4501   -1.2137 H   0  0  0  0  0  0
   27.7316    5.4455    1.5207 H   0  0  0  0  0  0
   24.5573    4.7359    4.3117 H   0  0  0  0  0  0
   23.3742    3.4004    2.6363 H   0  0  0  0  0  0
   24.3229    3.0903    0.3819 H   0  0  0  0  0  0
   27.0975    7.0160    5.6727 H   0  0  0  0  0  0
   25.4575    6.8403    5.0617 H   0  0  0  0  0  0
   26.2939    5.4537    5.7925 H   0  0  0  0  0  0
  1  2  2  0  0  0
  1  4  1  0  0  0
  1 28  1  0  0  0
  2  6  1  0  0  0
  2 12  1  0  0  0
  3  5  1  0  0  0
  3  4  2  0  0  0
  3 13  1  0  0  0
  4 29  1  0  0  0
  5  6  2  0  0  0
  5 10  1  0  0  0
  6  7  1  0  0  0
  7  8  1  0  0  0
  7 30  1  0  0  0
  8  9  1  0  0  0
  8 11  2  0  0  0
  9 10  2  0  0  0
  9 31  1  0  0  0
 10 32  1  0  0  0
 12 33  1  0  0  0
 13 14  1  0  0  0
 13 15  1  0  0  0
 13 34  1  0  0  0
 14 16  1  0  0  0
 14 35  1  0  0  0
 14 36  1  0  0  0
 15 37  1  0  0  0
 16 17  1  0  0  0
 16 38  1  0  0  0
 17 18  1  0  0  0
 17 39  1  0  0  0
 17 40  1  0  0  0
 18 19  1  0  0  0
 18 41  1  0  0  0
 18 42  1  0  0  0
 19 20  1  0  0  0
 19 43  1  0  0  0
 19 44  1  0  0  0
 20 21  2  0  0  0
 20 25  1  0  0  0
 21 22  1  0  0  0
 21 45  1  0  0  0
 22 23  2  0  0  0
 22 26  1  0  0  0
 23 24  1  0  0  0
 23 46  1  0  0  0
 24 25  2  0  0  0
 24 47  1  0  0  0
 25 48  1  0  0  0
 26 27  1  0  0  0
 27 49  1  0  0  0
 27 50  1  0  0  0
 27 51  1  0  0  0
M  END
> <s_m_entry_id>
3240

> <s_m_entry_name>
dock_pv.332

> <s_m_Source_Path>
/home/csk/Desktop/cluster/DUD-E-result/adrb1

> <s_m_Source_File>
dock_pv.maegz

> <i_m_Source_File_Index>
332

> <chembl_id>
CHEMBL4577508

> <chembl_pref_name>
None

> <i_lp_mmshare_version>
53161

> <i_f3d_flags>
0

> <r_lp_tautomer_probability>
1

> <s_lp_Force_Field>
OPLS_2005

> <r_lp_Energy>
28.008791

> <b_lp_Chiralities_Consistent>
1

> <s_lp_Variant>
CHEMBL213_lig1212 -2

> <s_i_glide_gridfile>
glide-grid_2vt4

> <i_i_glide_lignum>
1436

> <i_i_glide_rotatable_bonds>
10

> <r_i_docking_score>
-7.16136506102094

> <r_i_glide_ligand_efficiency>
-0.265235743000775

> <r_i_glide_ligand_efficiency_sa>
-0.795707228128153

> <r_i_glide_ligand_efficiency_ln>
-1.66704772187541

> <r_i_glide_gscore>
-7.16136506102094

> <r_i_glide_lipo>
-2.39730632755646

> <r_i_glide_hbond>
-0.72

> <r_i_glide_metal>
0

> <r_i_glide_rewards>
-1.38861686840307

> <r_i_glide_evdw>
-39.7787857055664

> <r_i_glide_ecoul>
-10.8736963272095

> <r_i_glide_erotb>
0.993738951746631

> <r_i_glide_esite>
-0.0291870824482992

> <r_i_glide_emodel>
-69.7444887814384

> <r_i_glide_energy>
-50.6524820327759

> <r_i_glide_einternal>
8.70670890808105

> <i_i_glide_confnum>
143

> <i_i_glide_posenum>
140

> <r_i_glide_eff_state_penalty>
0

> <s_user_duplicate_titles>
CHEMBL213_lig1212 

> <s_m_subgroup_title>
dock_pv

> <s_m_subgroupid>
dock_pv

> <b_m_subgroup_collapsed>
1

$$$$
CHEMBL213_lig1256
                    3D
 Schrodinger Suite 2021-1.
 48 49  0  0  1  0            999 V2000
   27.4741    4.9203   -0.5069 C   0  0  0  0  0  0
   26.6865    3.9209   -0.8150 N   0  0  0  0  0  0
   27.2580    5.4499    1.1176 S   0  0  0  0  0  0
   25.8951    3.5687    0.1784 C   0  0  0  0  0  0
   28.5243    5.5357   -1.4246 C   0  0  0  0  0  0
   26.0179    4.2500    1.3881 C   0  0  0  0  0  0
   30.5243    3.0170   -4.8650 C   0  0  0  0  0  0
   27.3768    6.0150    5.4232 C   0  0  0  0  0  0
   31.4281    2.8326   -5.9185 C   0  0  0  0  0  0
   29.3667    5.7265   -3.8042 N   0  0  1  0  0  0
   28.4208    6.6510    5.3158 O   0  0  0  0  0  0
   30.7213    5.2446   -3.5122 C   0  0  0  0  0  0
   30.9869    3.7151   -3.5800 C   0  0  1  0  0  0
   31.0453    2.1555   -7.0763 C   0  0  0  0  0  0
   28.2353    5.3824   -2.9399 C   0  0  2  0  0  0
   26.4280    6.2500    6.3706 O   0  0  0  0  0  0
   32.2086    1.8504   -8.3136 Cl  0  0  0  0  0  0
   30.6081    3.0497   -2.3880 O   0  0  0  0  0  0
   25.2584    4.0672    2.6951 C   0  0  0  0  0  0
   26.9900    4.8631    4.4920 C   0  0  0  0  0  0
   25.5993    5.0655    3.8273 C   0  0  0  0  0  0
   29.2160    2.5380   -5.0131 C   0  0  0  0  0  0
   28.8206    1.8907   -6.1816 C   0  0  0  0  0  0
   29.7353    1.6992   -7.2147 C   0  0  0  0  0  0
   27.0786    6.2900   -3.3953 C   0  0  0  0  0  0
   25.1887    2.7717    0.0009 H   0  0  0  0  0  0
   28.6450    6.5959   -1.1995 H   0  0  0  0  0  0
   29.4744    5.0734   -1.1682 H   0  0  0  0  0  0
   32.4457    3.1859   -5.8291 H   0  0  0  0  0  0
   29.3338    6.6893   -4.1136 H   0  0  0  0  0  0
   31.3590    5.7110   -4.2644 H   0  0  0  0  0  0
   31.0783    5.6531   -2.5671 H   0  0  0  0  0  0
   32.0730    3.6064   -3.5529 H   0  0  0  0  0  0
   27.9599    4.3497   -3.1441 H   0  0  0  0  0  0
   26.6079    7.1040    6.7945 H   0  0  0  0  0  0
   29.6677    2.8273   -2.4245 H   0  0  0  0  0  0
   25.3944    3.0509    3.0661 H   0  0  0  0  0  0
   24.1910    4.1479    2.4826 H   0  0  0  0  0  0
   27.7769    4.7739    3.7456 H   0  0  0  0  0  0
   27.0264    3.9327    5.0509 H   0  0  0  0  0  0
   24.8285    4.9798    4.5950 H   0  0  0  0  0  0
   25.5006    6.0819    3.4394 H   0  0  0  0  0  0
   28.4920    2.6510   -4.2234 H   0  0  0  0  0  0
   27.8069    1.5323   -6.2769 H   0  0  0  0  0  0
   29.4267    1.1908   -8.1149 H   0  0  0  0  0  0
   26.2075    6.1714   -2.7544 H   0  0  0  0  0  0
   27.3461    7.3474   -3.3586 H   0  0  0  0  0  0
   26.7653    6.0578   -4.4134 H   0  0  0  0  0  0
  1  2  2  0  0  0
  1  3  1  0  0  0
  1  5  1  0  0  0
  2  4  1  0  0  0
  3  6  1  0  0  0
  4  6  2  0  0  0
  4 26  1  0  0  0
  5 15  1  0  0  0
  5 27  1  0  0  0
  5 28  1  0  0  0
  6 19  1  0  0  0
  7 13  1  0  0  0
  7  9  2  0  0  0
  7 22  1  0  0  0
  8 20  1  0  0  0
  8 11  2  0  0  0
  8 16  1  0  0  0
  9 14  1  0  0  0
  9 29  1  0  0  0
 10 15  1  0  0  0
 10 12  1  0  0  0
 10 30  1  0  0  0
 12 13  1  0  0  0
 12 31  1  0  0  0
 12 32  1  0  0  0
 13 18  1  0  0  0
 13 33  1  0  0  0
 14 17  1  0  0  0
 14 24  2  0  0  0
 15 25  1  0  0  0
 15 34  1  0  0  0
 16 35  1  0  0  0
 18 36  1  0  0  0
 19 21  1  0  0  0
 19 37  1  0  0  0
 19 38  1  0  0  0
 20 21  1  0  0  0
 20 39  1  0  0  0
 20 40  1  0  0  0
 21 41  1  0  0  0
 21 42  1  0  0  0
 22 23  2  0  0  0
 22 43  1  0  0  0
 23 24  1  0  0  0
 23 44  1  0  0  0
 24 45  1  0  0  0
 25 46  1  0  0  0
 25 47  1  0  0  0
 25 48  1  0  0  0
M  END
> <s_m_entry_id>
3241

> <s_m_entry_name>
dock_pv.333

> <s_m_Source_Path>
/home/csk/Desktop/cluster/DUD-E-result/adrb1

> <s_m_Source_File>
dock_pv.maegz

> <i_m_Source_File_Index>
333

> <chembl_id>
CHEMBL72168

> <chembl_pref_name>
None

> <i_lp_mmshare_version>
53161

> <i_f3d_flags>
0

> <r_lp_tautomer_probability>
1

> <s_lp_Force_Field>
OPLS_2005

> <r_lp_Energy>
7.522904

> <b_lp_Chiralities_Consistent>
1

> <s_lp_Variant>
CHEMBL213_lig1256-2

> <s_i_glide_gridfile>
glide-grid_2vt4

> <i_i_glide_lignum>
1504

> <i_i_glide_rotatable_bonds>
12

> <r_i_docking_score>
-7.16084762380573

> <r_i_glide_ligand_efficiency>
-0.286433904952229

> <r_i_glide_ligand_efficiency_sa>
-0.837537818007253

> <r_i_glide_ligand_efficiency_ln>
-1.69733548012863

> <r_i_glide_gscore>
-7.16084762380573

> <r_i_glide_lipo>
-2.58347448278244

> <r_i_glide_hbond>
-0.390535787581808

> <r_i_glide_metal>
0

> <r_i_glide_rewards>
-1.71760445195286

> <r_i_glide_evdw>
-43.8103103637695

> <r_i_glide_ecoul>
-9.80805015563965

> <r_i_glide_erotb>
1.19249014004581

> <r_i_glide_esite>
0

> <r_i_glide_emodel>
-71.8253975222171

> <r_i_glide_energy>
-53.6183605194092

> <r_i_glide_einternal>
10.1516551971436

> <i_i_glide_confnum>
240

> <i_i_glide_posenum>
235

> <r_i_glide_eff_state_penalty>
0

> <s_user_duplicate_titles>
CHEMBL213_lig1256

> <s_m_subgroup_title>
dock_pv

> <s_m_subgroupid>
dock_pv

> <b_m_subgroup_collapsed>
1

$$$$
CHEMBL213_lig1325
                    3D
 Schrodinger Suite 2021-1.
 65 69  0  0  1  0            999 V2000
   35.5257    5.6182   -1.8365 C   0  0  0  0  0  0
   35.2997    5.6255   -0.4539 C   0  0  0  0  0  0
   33.9870    5.5661    0.0170 C   0  0  0  0  0  0
   32.9114    5.4722   -0.8652 C   0  0  0  0  0  0
   33.1364    5.4854   -2.2479 C   0  0  0  0  0  0
   34.4493    5.5522   -2.7180 C   0  0  0  0  0  0
   32.1493    5.4885   -3.2146 O   0  0  0  0  0  0
   30.7629    5.3611   -2.8771 C   0  0  0  0  0  0
   29.9082    6.0075   -3.9928 C   0  0  2  0  0  0
   28.3667    5.9156   -3.8367 C   0  0  0  0  0  0
   30.2153    5.3599   -5.2146 O   0  0  0  0  0  0
   27.7548    6.7038   -2.7601 N   0  0  2  0  0  0
   36.2946    5.6877    0.5038 O   0  0  0  0  0  0
   37.6584    5.6943    0.0846 C   0  0  0  0  0  0
   27.7317    6.1540   -1.4043 C   0  0  0  0  0  0
   26.8346    6.9565   -0.4427 C   0  0  0  0  0  0
   26.8859    6.4349    1.0167 C   0  0  0  0  0  0
   26.7130    4.9944    1.1789 N   0  0  0  0  0  0
   27.3835    4.1983    0.1403 C   0  0  0  0  0  0
   27.2373    4.7091   -1.2875 C   0  0  0  0  0  0
   25.8026    4.4899    2.0903 C   0  0  0  0  0  0
   24.8895    3.6824    1.5053 N   0  0  0  0  0  0
   23.7348    3.5198    2.1597 C   0  0  0  0  0  0
   23.3780    4.0379    3.3520 N   0  0  0  0  0  0
   25.6518    4.9637    3.4362 C   0  0  0  0  0  0
   24.3726    4.6504    4.0085 C   0  0  0  0  0  0
   24.1243    5.4504    5.5847 S   0  0  0  0  0  0
   25.7554    6.0450    5.5075 C   0  0  0  0  0  0
   26.4867    5.7124    4.3712 C   0  0  0  0  0  0
   27.9341    6.1149    4.2401 C   0  0  0  0  0  0
   28.4252    7.2473    4.9131 C   0  0  0  0  0  0
   29.7342    7.6816    4.7173 C   0  0  0  0  0  0
   30.5621    6.9956    3.8365 C   0  0  0  0  0  0
   30.1034    5.8526    3.1848 C   0  0  0  0  0  0
   28.8081    5.3994    3.4156 C   0  0  0  0  0  0
   36.5214    5.6773   -2.2474 H   0  0  0  0  0  0
   33.8013    5.5736    1.0816 H   0  0  0  0  0  0
   31.9176    5.4155   -0.4471 H   0  0  0  0  0  0
   34.6366    5.5688   -3.7823 H   0  0  0  0  0  0
   30.5141    4.3051   -2.7453 H   0  0  0  0  0  0
   30.5314    5.8694   -1.9512 H   0  0  0  0  0  0
   30.1958    7.0544   -4.1059 H   0  0  0  0  0  0
   27.9410    6.3437   -4.7424 H   0  0  0  0  0  0
   28.0184    4.8830   -3.8316 H   0  0  0  0  0  0
   30.1606    4.4097   -5.0746 H   0  0  0  0  0  0
   26.8394    7.0474   -3.0247 H   0  0  0  0  0  0
   38.2990    5.6883    0.9652 H   0  0  0  0  0  0
   37.8984    6.5986   -0.4861 H   0  0  0  0  0  0
   37.9091    4.8106   -0.5136 H   0  0  0  0  0  0
   28.7363    6.2069   -0.9943 H   0  0  0  0  0  0
   27.1195    8.0036   -0.4146 H   0  0  0  0  0  0
   25.8078    6.9572   -0.7992 H   0  0  0  0  0  0
   27.8065    6.6454    1.4936 H   0  0  0  0  0  0
   26.2073    7.0041    1.6399 H   0  0  0  0  0  0
   28.4469    4.2503    0.3701 H   0  0  0  0  0  0
   27.0533    3.1584    0.1850 H   0  0  0  0  0  0
   26.2080    4.6016   -1.6161 H   0  0  0  0  0  0
   27.8144    4.0415   -1.9235 H   0  0  0  0  0  0
   22.9654    3.0499    1.5867 H   0  0  0  0  0  0
   26.1095    6.6193    6.3531 H   0  0  0  0  0  0
   27.7973    7.8222    5.5813 H   0  0  0  0  0  0
   30.0991    8.5715    5.2064 H   0  0  0  0  0  0
   31.5709    7.3419    3.6665 H   0  0  0  0  0  0
   30.7592    5.3016    2.5274 H   0  0  0  0  0  0
   28.4895    4.4913    2.9317 H   0  0  0  0  0  0
  1  6  1  0  0  0
  1  2  2  0  0  0
  1 36  1  0  0  0
  2  3  1  0  0  0
  2 13  1  0  0  0
  3  4  2  0  0  0
  3 37  1  0  0  0
  4  5  1  0  0  0
  4 38  1  0  0  0
  5  6  2  0  0  0
  5  7  1  0  0  0
  6 39  1  0  0  0
  7  8  1  0  0  0
  8  9  1  0  0  0
  8 40  1  0  0  0
  8 41  1  0  0  0
  9 11  1  0  0  0
  9 10  1  0  0  0
  9 42  1  0  0  0
 10 12  1  0  0  0
 10 43  1  0  0  0
 10 44  1  0  0  0
 11 45  1  0  0  0
 12 15  1  0  0  0
 12 46  1  0  0  0
 13 14  1  0  0  0
 14 47  1  0  0  0
 14 48  1  0  0  0
 14 49  1  0  0  0
 15 20  1  0  0  0
 15 16  1  0  0  0
 15 50  1  0  0  0
 16 17  1  0  0  0
 16 51  1  0  0  0
 16 52  1  0  0  0
 17 18  1  0  0  0
 17 53  1  0  0  0
 17 54  1  0  0  0
 18 19  1  0  0  0
 18 21  1  0  0  0
 19 20  1  0  0  0
 19 55  1  0  0  0
 19 56  1  0  0  0
 20 57  1  0  0  0
 20 58  1  0  0  0
 21 22  2  0  0  0
 21 25  1  0  0  0
 22 23  1  0  0  0
 23 24  2  0  0  0
 23 59  1  0  0  0
 24 26  1  0  0  0
 25 26  2  0  0  0
 25 29  1  0  0  0
 26 27  1  0  0  0
 27 28  1  0  0  0
 28 29  2  0  0  0
 28 60  1  0  0  0
 29 30  1  0  0  0
 30 31  2  0  0  0
 30 35  1  0  0  0
 31 32  1  0  0  0
 31 61  1  0  0  0
 32 33  2  0  0  0
 32 62  1  0  0  0
 33 34  1  0  0  0
 33 63  1  0  0  0
 34 35  2  0  0  0
 34 64  1  0  0  0
 35 65  1  0  0  0
M  END
> <s_m_entry_id>
3242

> <s_m_entry_name>
dock_pv.334

> <s_m_Source_Path>
/home/csk/Desktop/cluster/DUD-E-result/adrb1

> <s_m_Source_File>
dock_pv.maegz

> <i_m_Source_File_Index>
334

> <chembl_id>
CHEMBL1083995

> <chembl_pref_name>
None

> <i_lp_mmshare_version>
53161

> <i_f3d_flags>
0

> <r_lp_tautomer_probability>
1

> <s_lp_Force_Field>
OPLS_2005

> <r_lp_Energy>
43.522748

> <b_lp_Chiralities_Consistent>
1

> <s_lp_Variant>
CHEMBL213_lig1325-1

> <s_i_glide_gridfile>
glide-grid_2vt4

> <i_i_glide_lignum>
1580

> <i_i_glide_rotatable_bonds>
10

> <r_i_docking_score>
-7.16018435587602

> <r_i_glide_ligand_efficiency>
-0.204576695882172

> <r_i_glide_ligand_efficiency_sa>
-0.669183936956809

> <r_i_glide_ligand_efficiency_ln>
-1.57181937784463

> <r_i_glide_gscore>
-7.16018435587602

> <r_i_glide_lipo>
-3.98752846322257

> <r_i_glide_hbond>
-0.203833157749461

> <r_i_glide_metal>
0

> <r_i_glide_rewards>
-1.23327731346697

> <r_i_glide_evdw>
-36.132740020752

> <r_i_glide_ecoul>
-4.0354118347168

> <r_i_glide_erotb>
0.676403354808092

> <r_i_glide_esite>
0

> <r_i_glide_emodel>
-40.3036311421199

> <r_i_glide_energy>
-40.1681518554688

> <r_i_glide_einternal>
13.9027948379517

> <i_i_glide_confnum>
67

> <i_i_glide_posenum>
312

> <r_i_glide_eff_state_penalty>
0

> <s_user_duplicate_titles>
CHEMBL213_lig1325

> <s_m_subgroup_title>
dock_pv

> <s_m_subgroupid>
dock_pv

> <b_m_subgroup_collapsed>
1

$$$$
CHEMBL213_lig1265
                    3D
 Schrodinger Suite 2021-1.
 72 75  0  0  1  0            999 V2000
   33.6431    3.6302   -4.3981 N   0  0  0  0  0  0
   34.3514    3.5406   -5.5448 C   0  0  0  0  0  0
   34.2948    3.6690   -3.2151 C   0  0  0  0  0  0
   26.8607    4.3972   -0.2257 S   0  0  0  0  0  0
   36.1137    3.5140   -5.1716 S   0  0  0  0  0  0
   35.8118    3.6931   -3.4086 C   0  0  1  0  0  0
   27.3054    5.1726    2.4903 C   0  0  0  0  0  0
   26.6081    4.4006    1.5385 N   0  0  0  0  0  0
   35.9684    5.9157    2.7834 N   0  0  0  0  0  0
   32.1594    3.6554   -4.4402 C   0  0  0  0  0  0
   28.6783    5.4069    2.3718 C   0  0  0  0  0  0
   29.3983    6.1265    3.3262 C   0  0  0  0  0  0
   31.6778    5.1133   -4.4166 C   0  0  0  0  0  0
   33.9109    3.4580   -6.6919 O   0  0  0  0  0  0
   36.0349    5.6967    1.4064 C   0  0  0  0  0  0
   28.2756    4.6469   -0.5132 O   0  0  0  0  0  0
   26.2020    3.1759   -0.6926 O   0  0  0  0  0  0
   26.6554    5.6390    3.6443 C   0  0  0  0  0  0
   33.7607    3.6964   -2.1063 O   0  0  0  0  0  0
   36.4629    4.9950   -2.8587 C   0  0  0  0  0  0
   36.0191    7.2300    3.4419 C   0  0  0  0  0  0
   35.3614    4.9609    3.7202 C   0  0  0  0  0  0
   32.4161    7.0500    4.9968 N   0  0  1  0  0  0
   28.7211    6.5857    4.4636 C   0  0  0  0  0  0
   31.8056    5.8500   -3.4634 O   0  0  0  0  0  0
   27.3592    6.3435    4.6198 C   0  0  0  0  0  0
   31.5546    7.4932    3.8924 C   0  0  0  0  0  0
   33.9083    5.3032    3.9812 C   0  0  0  0  0  0
   34.6031    7.7304    3.8012 C   0  0  0  0  0  0
   30.9109    6.3263    3.1348 C   0  0  2  0  0  0
   35.8090    6.7271    0.4859 C   0  0  0  0  0  0
   36.3874    4.4329    0.9145 C   0  0  0  0  0  0
   33.7766    6.6885    4.6128 C   0  0  0  0  0  0
   36.3030    5.2418   -1.3570 C   0  0  0  0  0  0
   25.8732    5.8747   -0.8137 C   0  0  0  0  0  0
   31.1365    5.4529   -5.6149 O   0  0  0  0  0  0
   35.9340    6.5028   -0.8845 C   0  0  0  0  0  0
   36.5371    4.2108   -0.4480 C   0  0  0  0  0  0
   25.3282    5.3928    3.8679 O   0  0  0  0  0  0
   31.4068    6.2506    1.8018 O   0  0  0  0  0  0
   36.2343    2.8131   -2.9222 H   0  0  0  0  0  0
   25.8729    3.7915    1.8607 H   0  0  0  0  0  0
   31.7393    3.1438   -3.5730 H   0  0  0  0  0  0
   31.7655    3.1403   -5.3193 H   0  0  0  0  0  0
   29.2295    5.0177    1.5346 H   0  0  0  0  0  0
   37.5336    4.9809   -3.0706 H   0  0  0  0  0  0
   36.0702    5.8506   -3.4101 H   0  0  0  0  0  0
   36.6167    7.1402    4.3509 H   0  0  0  0  0  0
   36.5502    7.9519    2.8212 H   0  0  0  0  0  0
   35.4076    3.9244    3.3903 H   0  0  0  0  0  0
   35.8745    5.0500    4.6776 H   0  0  0  0  0  0
   32.4970    7.8590    5.6003 H   0  0  0  0  0  0
   29.2369    7.1120    5.2519 H   0  0  0  0  0  0
   26.8503    6.6958    5.5062 H   0  0  0  0  0  0
   30.7891    8.1441    4.3093 H   0  0  0  0  0  0
   32.0835    8.1568    3.2102 H   0  0  0  0  0  0
   33.3944    5.2553    3.0283 H   0  0  0  0  0  0
   33.4814    4.5451    4.6377 H   0  0  0  0  0  0
   34.7035    8.6496    4.3737 H   0  0  0  0  0  0
   34.1218    7.9914    2.8603 H   0  0  0  0  0  0
   31.3079    5.4500    3.5841 H   0  0  0  0  0  0
   35.5254    7.7095    0.8251 H   0  0  0  0  0  0
   36.5895    3.6101    1.5820 H   0  0  0  0  0  0
   34.3065    6.5955    5.5627 H   0  0  0  0  0  0
   26.0609    5.9999   -1.8795 H   0  0  0  0  0  0
   24.8177    5.6674   -0.6520 H   0  0  0  0  0  0
   26.2024    6.7563   -0.2662 H   0  0  0  0  0  0
   30.9679    6.4010   -5.6591 H   0  0  0  0  0  0
   35.7509    7.3128   -1.5751 H   0  0  0  0  0  0
   36.8435    3.2312   -0.7874 H   0  0  0  0  0  0
   24.8932    5.0017    3.1094 H   0  0  0  0  0  0
   32.1631    6.8390    1.7076 H   0  0  0  0  0  0
  1  2  1  0  0  0
  1  3  1  0  0  0
  1 10  1  0  0  0
  2  5  1  0  0  0
  2 14  2  0  0  0
  3  6  1  0  0  0
  3 19  2  0  0  0
  4  8  1  0  0  0
  4 16  2  0  0  0
  4 17  2  0  0  0
  4 35  1  0  0  0
  5  6  1  0  0  0
  6 20  1  0  0  0
  6 41  1  0  0  0
  7 11  2  0  0  0
  7  8  1  0  0  0
  7 18  1  0  0  0
  8 42  1  0  0  0
  9 15  1  0  0  0
  9 21  1  0  0  0
  9 22  1  0  0  0
 10 13  1  0  0  0
 10 43  1  0  0  0
 10 44  1  0  0  0
 11 12  1  0  0  0
 11 45  1  0  0  0
 12 30  1  0  0  0
 12 24  2  0  0  0
 13 25  2  0  0  0
 13 36  1  0  0  0
 15 32  1  0  0  0
 15 31  2  0  0  0
 18 26  2  0  0  0
 18 39  1  0  0  0
 20 34  1  0  0  0
 20 46  1  0  0  0
 20 47  1  0  0  0
 21 29  1  0  0  0
 21 48  1  0  0  0
 21 49  1  0  0  0
 22 28  1  0  0  0
 22 50  1  0  0  0
 22 51  1  0  0  0
 23 33  1  0  0  0
 23 27  1  0  0  0
 23 52  1  0  0  0
 24 26  1  0  0  0
 24 53  1  0  0  0
 26 54  1  0  0  0
 27 30  1  0  0  0
 27 55  1  0  0  0
 27 56  1  0  0  0
 28 33  1  0  0  0
 28 57  1  0  0  0
 28 58  1  0  0  0
 29 33  1  0  0  0
 29 59  1  0  0  0
 29 60  1  0  0  0
 30 40  1  0  0  0
 30 61  1  0  0  0
 31 37  1  0  0  0
 31 62  1  0  0  0
 32 38  2  0  0  0
 32 63  1  0  0  0
 33 64  1  0  0  0
 34 37  2  0  0  0
 34 38  1  0  0  0
 35 65  1  0  0  0
 35 66  1  0  0  0
 35 67  1  0  0  0
 36 68  1  0  0  0
 37 69  1  0  0  0
 38 70  1  0  0  0
 39 71  1  0  0  0
 40 72  1  0  0  0
M  END
> <s_m_entry_id>
3243

> <s_m_entry_name>
dock_pv.335

> <s_m_Source_Path>
/home/csk/Desktop/cluster/DUD-E-result/adrb1

> <s_m_Source_File>
dock_pv.maegz

> <i_m_Source_File_Index>
335

> <chembl_id>
CHEMBL354906

> <chembl_pref_name>
None

> <i_lp_mmshare_version>
53161

> <i_f3d_flags>
0

> <r_lp_tautomer_probability>
0.999999999999911

> <s_lp_Force_Field>
OPLS_2005

> <r_lp_Energy>
33.603037

> <b_lp_Chiralities_Consistent>
1

> <s_lp_Variant>
CHEMBL213_lig1265-1

> <s_i_glide_gridfile>
glide-grid_2vt4

> <i_i_glide_lignum>
1516

> <i_i_glide_rotatable_bonds>
14

> <r_i_docking_score>
-7.15709322162898

> <r_i_glide_ligand_efficiency>
-0.178927330540725

> <r_i_glide_ligand_efficiency_sa>
-0.611922862102983

> <r_i_glide_ligand_efficiency_ln>
-1.5263973603223

> <r_i_glide_gscore>
-7.15709322162898

> <r_i_glide_lipo>
-2.12815188552677

> <r_i_glide_hbond>
-0.577168083501137

> <r_i_glide_metal>
0

> <r_i_glide_rewards>
-0.686178161414052

> <r_i_glide_evdw>
-51.8779678344727

> <r_i_glide_ecoul>
-10.2342939376831

> <r_i_glide_erotb>
0.486142577840595

> <r_i_glide_esite>
-0.122695186651516

> <r_i_glide_emodel>
-76.2746701930118

> <r_i_glide_energy>
-62.1122617721558

> <r_i_glide_einternal>
22.8480644226074

> <i_i_glide_confnum>
114

> <i_i_glide_posenum>
151

> <r_i_glide_eff_state_penalty>
0

> <s_user_duplicate_titles>
CHEMBL213_lig1265

> <s_m_subgroup_title>
dock_pv

> <s_m_subgroupid>
dock_pv

> <b_m_subgroup_collapsed>
1

$$$$
CHEMBL213_lig1419
                    3D
 Schrodinger Suite 2021-1.
 61 65  0  0  1  0            999 V2000
   27.0080    5.9588   -2.9015 N   0  0  1  0  0  0
   27.2425    5.4956   -1.5483 C   0  0  0  0  0  0
   26.8651    6.5129   -0.4735 C   0  0  0  0  0  0
   27.2650    5.9691    0.9118 C   0  0  0  0  0  0
   26.6953    4.6508    1.2374 N   0  0  0  0  0  0
   26.9107    3.6905    0.1324 C   0  0  0  0  0  0
   26.4691    4.2181   -1.2149 C   0  0  0  0  0  0
   25.7649    4.4714    2.2613 C   0  0  0  0  0  0
   24.7113    3.6811    1.9183 N   0  0  0  0  0  0
   23.6710    3.6159    2.7687 C   0  0  0  0  0  0
   23.5373    4.2500    3.9434 N   0  0  0  0  0  0
   25.8239    5.0934    3.5568 C   0  0  0  0  0  0
   24.6080    4.9603    4.3146 C   0  0  0  0  0  0
   24.6087    5.8511    5.8148 S   0  0  0  0  0  0
   26.2712    6.2490    5.5316 C   0  0  0  0  0  0
   26.8316    5.8041    4.3375 C   0  0  0  0  0  0
   27.8507    5.2520   -3.8713 C   0  0  0  0  0  0
   29.3027    5.7855   -4.0267 C   0  0  2  0  0  0
   30.3181    5.3558   -2.9423 C   0  0  0  0  0  0
   29.2330    7.1943   -4.0819 O   0  0  0  0  0  0
   31.6487    5.4927   -3.4472 O   0  0  0  0  0  0
   32.7325    5.4504   -2.5911 C   0  0  0  0  0  0
   33.9915    5.4447   -3.1939 C   0  0  0  0  0  0
   35.1503    5.4496   -2.4227 C   0  0  0  0  0  0
   35.0509    5.4527   -1.0343 C   0  0  0  0  0  0
   33.8038    5.4500   -0.4158 C   0  0  0  0  0  0
   32.6459    5.4484   -1.1899 C   0  0  0  0  0  0
   28.2901    6.0412    4.0426 C   0  0  0  0  0  0
   28.9480    7.1519    4.5944 C   0  0  0  0  0  0
   30.2664    7.4415    4.2540 C   0  0  0  0  0  0
   30.9269    6.6499    3.3204 C   0  0  0  0  0  0
   30.3004    5.5268    2.7850 C   0  0  0  0  0  0
   29.0109    5.1947    3.1961 C   0  0  0  0  0  0
   26.0640    5.6243   -3.1191 H   0  0  0  0  0  0
   28.2949    5.2631   -1.4235 H   0  0  0  0  0  0
   27.3912    7.4496   -0.6602 H   0  0  0  0  0  0
   25.8083    6.7676   -0.5092 H   0  0  0  0  0  0
   28.3432    5.8497    0.8975 H   0  0  0  0  0  0
   27.0176    6.6910    1.6856 H   0  0  0  0  0  0
   27.9746    3.5494   -0.0150 H   0  0  0  0  0  0
   26.5014    2.7016    0.3438 H   0  0  0  0  0  0
   25.4025    4.3996   -1.2141 H   0  0  0  0  0  0
   26.6365    3.4499   -1.9687 H   0  0  0  0  0  0
   22.8357    3.0174    2.4440 H   0  0  0  0  0  0
   26.7767    6.7867    6.3188 H   0  0  0  0  0  0
   27.3373    5.3934   -4.8150 H   0  0  0  0  0  0
   27.8382    4.1722   -3.7150 H   0  0  0  0  0  0
   29.6784    5.4368   -4.9900 H   0  0  0  0  0  0
   30.1598    4.3109   -2.6709 H   0  0  0  0  0  0
   30.1617    5.9516   -2.0466 H   0  0  0  0  0  0
   28.4212    7.4339   -3.6170 H   0  0  0  0  0  0
   34.0715    5.4483   -4.2713 H   0  0  0  0  0  0
   36.1195    5.4559   -2.9026 H   0  0  0  0  0  0
   35.9499    5.4542   -0.4355 H   0  0  0  0  0  0
   33.7338    5.4533    0.6623 H   0  0  0  0  0  0
   31.6981    5.4494   -0.6765 H   0  0  0  0  0  0
   28.4374    7.8228    5.2695 H   0  0  0  0  0  0
   30.7719    8.2877    4.6914 H   0  0  0  0  0  0
   31.9394    6.8921    3.0307 H   0  0  0  0  0  0
   30.8334    4.8850    2.0992 H   0  0  0  0  0  0
   28.5749    4.2807    2.8281 H   0  0  0  0  0  0
  1 17  1  0  0  0
  1  2  1  0  0  0
  1 34  1  0  0  0
  2  3  1  0  0  0
  2  7  1  0  0  0
  2 35  1  0  0  0
  3  4  1  0  0  0
  3 36  1  0  0  0
  3 37  1  0  0  0
  4  5  1  0  0  0
  4 38  1  0  0  0
  4 39  1  0  0  0
  5  6  1  0  0  0
  5  8  1  0  0  0
  6  7  1  0  0  0
  6 40  1  0  0  0
  6 41  1  0  0  0
  7 42  1  0  0  0
  7 43  1  0  0  0
  8  9  2  0  0  0
  8 12  1  0  0  0
  9 10  1  0  0  0
 10 11  2  0  0  0
 10 44  1  0  0  0
 11 13  1  0  0  0
 12 16  1  0  0  0
 12 13  2  0  0  0
 13 14  1  0  0  0
 14 15  1  0  0  0
 15 16  2  0  0  0
 15 45  1  0  0  0
 16 28  1  0  0  0
 17 18  1  0  0  0
 17 46  1  0  0  0
 17 47  1  0  0  0
 18 19  1  0  0  0
 18 20  1  0  0  0
 18 48  1  0  0  0
 19 21  1  0  0  0
 19 49  1  0  0  0
 19 50  1  0  0  0
 20 51  1  0  0  0
 21 22  1  0  0  0
 22 23  2  0  0  0
 22 27  1  0  0  0
 23 24  1  0  0  0
 23 52  1  0  0  0
 24 25  2  0  0  0
 24 53  1  0  0  0
 25 26  1  0  0  0
 25 54  1  0  0  0
 26 27  2  0  0  0
 26 55  1  0  0  0
 27 56  1  0  0  0
 28 29  2  0  0  0
 28 33  1  0  0  0
 29 30  1  0  0  0
 29 57  1  0  0  0
 30 31  2  0  0  0
 30 58  1  0  0  0
 31 32  1  0  0  0
 31 59  1  0  0  0
 32 33  2  0  0  0
 32 60  1  0  0  0
 33 61  1  0  0  0
M  END
> <s_m_entry_id>
3244

> <s_m_entry_name>
dock_pv.336

> <s_m_Source_Path>
/home/csk/Desktop/cluster/DUD-E-result/adrb1

> <s_m_Source_File>
dock_pv.maegz

> <i_m_Source_File_Index>
336

> <chembl_id>
CHEMBL1255596

> <chembl_pref_name>
None

> <i_lp_mmshare_version>
53161

> <i_f3d_flags>
0

> <r_lp_tautomer_probability>
1

> <s_lp_Force_Field>
OPLS_2005

> <r_lp_Energy>
45.699352

> <b_lp_Chiralities_Consistent>
1

> <s_lp_Variant>
CHEMBL213_lig1419-1

> <s_i_glide_gridfile>
glide-grid_2vt4

> <i_i_glide_lignum>
1741

> <i_i_glide_rotatable_bonds>
9

> <r_i_docking_score>
-7.14984079012459

> <r_i_glide_ligand_efficiency>
-0.216661842124988

> <r_i_glide_ligand_efficiency_sa>
-0.694950295806067

> <r_i_glide_ligand_efficiency_ln>
-1.59008757182936

> <r_i_glide_gscore>
-7.14984079012459

> <r_i_glide_lipo>
-3.7937092885789

> <r_i_glide_hbond>
-0.238572145270886

> <r_i_glide_metal>
0

> <r_i_glide_rewards>
-1.25876378765708

> <r_i_glide_evdw>
-32.8762741088867

> <r_i_glide_ecoul>
-5.86123037338257

> <r_i_glide_erotb>
0.664202692833996

> <r_i_glide_esite>
0

> <r_i_glide_emodel>
-37.1550828908522

> <r_i_glide_energy>
-38.7375044822693

> <r_i_glide_einternal>
10.6680955886841

> <i_i_glide_confnum>
28

> <i_i_glide_posenum>
116

> <r_i_glide_eff_state_penalty>
0

> <s_user_duplicate_titles>
CHEMBL213_lig1419

> <s_m_subgroup_title>
dock_pv

> <s_m_subgroupid>
dock_pv

> <b_m_subgroup_collapsed>
1

$$$$
CHEMBL213_lig1415
                    3D
 Schrodinger Suite 2021-1.
 61 65  0  0  1  0            999 V2000
   27.0080    5.9384   -2.9247 N   0  0  1  0  0  0
   27.2432    5.4892   -1.5699 C   0  0  0  0  0  0
   26.8742    6.5103   -0.4977 C   0  0  0  0  0  0
   27.3296    5.9729    0.8727 C   0  0  0  0  0  0
   26.7807    4.6499    1.2021 N   0  0  0  0  0  0
   27.0077    3.6912    0.1075 C   0  0  0  0  0  0
   26.4853    4.2065   -1.2150 C   0  0  0  0  0  0
   25.8078    4.4725    2.1724 C   0  0  0  0  0  0
   24.7593    3.7058    1.7692 N   0  0  0  0  0  0
   23.6909    3.6417    2.5755 C   0  0  0  0  0  0
   23.5390    4.2500    3.7675 N   0  0  0  0  0  0
   25.8414    5.0791    3.4696 C   0  0  0  0  0  0
   24.6082    4.9409    4.1894 C   0  0  0  0  0  0
   24.5931    5.8500    5.6878 S   0  0  0  0  0  0
   26.2563    6.2493    5.4432 C   0  0  0  0  0  0
   26.8386    5.7870    4.2710 C   0  0  0  0  0  0
   27.8698    5.2257   -3.8721 C   0  0  0  0  0  0
   29.3206    5.7669   -4.0223 C   0  0  2  0  0  0
   30.3375    5.3460   -2.9344 C   0  0  0  0  0  0
   29.2410    7.1746   -4.0772 O   0  0  0  0  0  0
   31.6718    5.4950   -3.4278 O   0  0  0  0  0  0
   32.7489    5.4501   -2.5625 C   0  0  0  0  0  0
   34.0145    5.4470   -3.1525 C   0  0  0  0  0  0
   35.1651    5.4501   -2.3680 C   0  0  0  0  0  0
   35.0518    5.4582   -0.9808 C   0  0  0  0  0  0
   33.7986    5.4500   -0.3765 C   0  0  0  0  0  0
   32.6485    5.4438   -1.1620 C   0  0  0  0  0  0
   28.3039    6.0279    4.0089 C   0  0  0  0  0  0
   28.9475    7.1461    4.5634 C   0  0  0  0  0  0
   30.2689    7.4414    4.2410 C   0  0  0  0  0  0
   30.9478    6.6497    3.3213 C   0  0  0  0  0  0
   30.3358    5.5193    2.7850 C   0  0  0  0  0  0
   29.0448    5.1788    3.1845 C   0  0  0  0  0  0
   36.1640    5.4767   -0.2128 F   0  0  0  0  0  0
   26.0672    5.5926   -3.1449 H   0  0  0  0  0  0
   28.2990    5.2670   -1.4561 H   0  0  0  0  0  0
   27.3841    7.4507   -0.7028 H   0  0  0  0  0  0
   25.8101    6.7459   -0.5080 H   0  0  0  0  0  0
   28.4080    5.8499    0.8336 H   0  0  0  0  0  0
   27.1013    6.6856    1.6591 H   0  0  0  0  0  0
   28.0819    3.6045   -0.0165 H   0  0  0  0  0  0
   26.6363    2.6900    0.3339 H   0  0  0  0  0  0
   25.4105    4.3759   -1.1657 H   0  0  0  0  0  0
   26.6259    3.4414   -1.9766 H   0  0  0  0  0  0
   22.8619    3.0506    2.2223 H   0  0  0  0  0  0
   26.7397    6.8110    6.2287 H   0  0  0  0  0  0
   27.3579    5.3534   -4.8150 H   0  0  0  0  0  0
   27.8650    4.1474   -3.7042 H   0  0  0  0  0  0
   29.7021    5.4215   -4.9844 H   0  0  0  0  0  0
   30.1872    4.2998   -2.6635 H   0  0  0  0  0  0
   30.1718    5.9421   -2.0397 H   0  0  0  0  0  0
   28.4070    7.4063   -3.6489 H   0  0  0  0  0  0
   34.1063    5.4502   -4.2295 H   0  0  0  0  0  0
   36.1407    5.4588   -2.8335 H   0  0  0  0  0  0
   33.7205    5.4567    0.7007 H   0  0  0  0  0  0
   31.6957    5.4389   -0.6580 H   0  0  0  0  0  0
   28.4230    7.8217    5.2226 H   0  0  0  0  0  0
   30.7618    8.2934    4.6807 H   0  0  0  0  0  0
   31.9626    6.8968    3.0444 H   0  0  0  0  0  0
   30.8815    4.8756    2.1111 H   0  0  0  0  0  0
   28.6218    4.2587    2.8164 H   0  0  0  0  0  0
  1 17  1  0  0  0
  1  2  1  0  0  0
  1 35  1  0  0  0
  2  3  1  0  0  0
  2  7  1  0  0  0
  2 36  1  0  0  0
  3  4  1  0  0  0
  3 37  1  0  0  0
  3 38  1  0  0  0
  4  5  1  0  0  0
  4 39  1  0  0  0
  4 40  1  0  0  0
  5  6  1  0  0  0
  5  8  1  0  0  0
  6  7  1  0  0  0
  6 41  1  0  0  0
  6 42  1  0  0  0
  7 43  1  0  0  0
  7 44  1  0  0  0
  8  9  2  0  0  0
  8 12  1  0  0  0
  9 10  1  0  0  0
 10 11  2  0  0  0
 10 45  1  0  0  0
 11 13  1  0  0  0
 12 16  1  0  0  0
 12 13  2  0  0  0
 13 14  1  0  0  0
 14 15  1  0  0  0
 15 16  2  0  0  0
 15 46  1  0  0  0
 16 28  1  0  0  0
 17 18  1  0  0  0
 17 47  1  0  0  0
 17 48  1  0  0  0
 18 19  1  0  0  0
 18 20  1  0  0  0
 18 49  1  0  0  0
 19 21  1  0  0  0
 19 50  1  0  0  0
 19 51  1  0  0  0
 20 52  1  0  0  0
 21 22  1  0  0  0
 22 23  2  0  0  0
 22 27  1  0  0  0
 23 24  1  0  0  0
 23 53  1  0  0  0
 24 25  2  0  0  0
 24 54  1  0  0  0
 25 26  1  0  0  0
 25 34  1  0  0  0
 26 27  2  0  0  0
 26 55  1  0  0  0
 27 56  1  0  0  0
 28 29  2  0  0  0
 28 33  1  0  0  0
 29 30  1  0  0  0
 29 57  1  0  0  0
 30 31  2  0  0  0
 30 58  1  0  0  0
 31 32  1  0  0  0
 31 59  1  0  0  0
 32 33  2  0  0  0
 32 60  1  0  0  0
 33 61  1  0  0  0
M  END
> <s_m_entry_id>
3245

> <s_m_entry_name>
dock_pv.337

> <s_m_Source_Path>
/home/csk/Desktop/cluster/DUD-E-result/adrb1

> <s_m_Source_File>
dock_pv.maegz

> <i_m_Source_File_Index>
337

> <chembl_id>
CHEMBL1258370

> <chembl_pref_name>
None

> <i_lp_mmshare_version>
53161

> <i_f3d_flags>
0

> <r_lp_tautomer_probability>
1

> <s_lp_Force_Field>
OPLS_2005

> <r_lp_Energy>
44.870149

> <b_lp_Chiralities_Consistent>
1

> <s_lp_Variant>
CHEMBL213_lig1415-1

> <s_i_glide_gridfile>
glide-grid_2vt4

> <i_i_glide_lignum>
1733

> <i_i_glide_rotatable_bonds>
9

> <r_i_docking_score>
-7.14858405007343

> <r_i_glide_ligand_efficiency>
-0.210252472060983

> <r_i_glide_ligand_efficiency_sa>
-0.681136388935882

> <r_i_glide_ligand_efficiency_ln>
-1.57932272765207

> <r_i_glide_gscore>
-7.14858405007343

> <r_i_glide_lipo>
-3.81199060333404

> <r_i_glide_hbond>
-0.250048818901795

> <r_i_glide_metal>
0

> <r_i_glide_rewards>
-1.17022802306008

> <r_i_glide_evdw>
-34.2236251831055

> <r_i_glide_ecoul>
-5.49662351608276

> <r_i_glide_erotb>
0.619358181790172

> <r_i_glide_esite>
0

> <r_i_glide_emodel>
-43.1496455900557

> <r_i_glide_energy>
-39.7202486991882

> <r_i_glide_einternal>
10.4686622619629

> <i_i_glide_confnum>
81

> <i_i_glide_posenum>
205

> <r_i_glide_eff_state_penalty>
0

> <s_user_duplicate_titles>
CHEMBL213_lig1415

> <s_m_subgroup_title>
dock_pv

> <s_m_subgroupid>
dock_pv

> <b_m_subgroup_collapsed>
1

$$$$
CHEMBL213_lig1213 
                    3D
 Schrodinger Suite 2021-1.
 51 53  0  0  1  0            999 V2000
   31.7198    4.2267   -2.3888 C   0  0  0  0  0  0
   31.8038    3.2912   -3.4155 C   0  0  0  0  0  0
   29.3796    4.6426   -2.9122 C   0  0  0  0  0  0
   30.5189    4.8799   -2.1313 C   0  0  0  0  0  0
   29.4664    3.7040   -3.9608 C   0  0  0  0  0  0
   30.6749    3.0176   -4.2009 C   0  0  0  0  0  0
   30.7132    2.0299   -5.2103 N   0  0  0  0  0  0
   29.6886    1.5996   -5.9787 C   0  0  0  0  0  0
   28.4538    2.3192   -5.7369 C   0  0  0  0  0  0
   28.3259    3.3019   -4.8150 C   0  0  0  0  0  0
   29.8086    0.6918   -6.7968 O   0  0  0  0  0  0
   33.0008    2.6500   -3.6169 O   0  0  0  0  0  0
   28.0667    5.3718   -2.5918 C   0  0  1  0  0  0
   27.0078    4.5045   -1.8842 C   0  0  0  0  0  0
   28.2080    6.5684   -1.8448 O   0  0  0  0  0  0
   27.4158    3.8502   -0.6478 N   0  0  1  0  0  0
   26.2650    3.2505    0.0344 C   0  0  0  0  0  0
   25.3408    4.2958    0.7003 C   0  0  0  0  0  0
   25.2464    4.2385    2.2492 C   0  0  0  0  0  0
   26.3183    4.9986    3.0432 C   0  0  0  0  0  0
   25.9805    5.5822    4.2683 C   0  0  0  0  0  0
   26.9435    6.2504    5.0253 C   0  0  0  0  0  0
   28.2575    6.3530    4.5706 C   0  0  0  0  0  0
   28.5998    5.7559    3.3496 C   0  0  0  0  0  0
   27.6378    5.0950    2.5932 C   0  0  0  0  0  0
   29.1469    7.0508    5.3669 O   0  0  0  0  0  0
   30.4598    7.3087    4.8721 C   0  0  0  0  0  0
   32.5773    4.4332   -1.7635 H   0  0  0  0  0  0
   30.4673    5.5600   -1.2969 H   0  0  0  0  0  0
   31.5798    1.5424   -5.3660 H   0  0  0  0  0  0
   27.5978    2.0453   -6.3342 H   0  0  0  0  0  0
   27.3645    3.7826   -4.7125 H   0  0  0  0  0  0
   33.7415    3.0720   -3.1743 H   0  0  0  0  0  0
   27.6459    5.7119   -3.5392 H   0  0  0  0  0  0
   26.6894    3.7079   -2.5555 H   0  0  0  0  0  0
   26.1463    5.1392   -1.6901 H   0  0  0  0  0  0
   27.4402    6.6492   -1.2707 H   0  0  0  0  0  0
   28.0435    3.0999   -0.9273 H   0  0  0  0  0  0
   26.6079    2.5437    0.7841 H   0  0  0  0  0  0
   25.7017    2.6505   -0.6823 H   0  0  0  0  0  0
   24.3384    4.1354    0.2958 H   0  0  0  0  0  0
   25.6043    5.3068    0.3846 H   0  0  0  0  0  0
   25.2195    3.2031    2.5895 H   0  0  0  0  0  0
   24.2752    4.6500    2.5250 H   0  0  0  0  0  0
   24.9697    5.5166    4.6440 H   0  0  0  0  0  0
   26.6695    6.7052    5.9663 H   0  0  0  0  0  0
   29.6085    5.7983    2.9665 H   0  0  0  0  0  0
   27.9387    4.6510    1.6630 H   0  0  0  0  0  0
   31.0057    7.9262    5.5844 H   0  0  0  0  0  0
   30.4344    7.8498    3.9251 H   0  0  0  0  0  0
   31.0270    6.3855    4.7390 H   0  0  0  0  0  0
  1  2  2  0  0  0
  1  4  1  0  0  0
  1 28  1  0  0  0
  2  6  1  0  0  0
  2 12  1  0  0  0
  3  5  1  0  0  0
  3  4  2  0  0  0
  3 13  1  0  0  0
  4 29  1  0  0  0
  5  6  2  0  0  0
  5 10  1  0  0  0
  6  7  1  0  0  0
  7  8  1  0  0  0
  7 30  1  0  0  0
  8  9  1  0  0  0
  8 11  2  0  0  0
  9 10  2  0  0  0
  9 31  1  0  0  0
 10 32  1  0  0  0
 12 33  1  0  0  0
 13 14  1  0  0  0
 13 15  1  0  0  0
 13 34  1  0  0  0
 14 16  1  0  0  0
 14 35  1  0  0  0
 14 36  1  0  0  0
 15 37  1  0  0  0
 16 17  1  0  0  0
 16 38  1  0  0  0
 17 18  1  0  0  0
 17 39  1  0  0  0
 17 40  1  0  0  0
 18 19  1  0  0  0
 18 41  1  0  0  0
 18 42  1  0  0  0
 19 20  1  0  0  0
 19 43  1  0  0  0
 19 44  1  0  0  0
 20 21  2  0  0  0
 20 25  1  0  0  0
 21 22  1  0  0  0
 21 45  1  0  0  0
 22 23  2  0  0  0
 22 46  1  0  0  0
 23 24  1  0  0  0
 23 26  1  0  0  0
 24 25  2  0  0  0
 24 47  1  0  0  0
 25 48  1  0  0  0
 26 27  1  0  0  0
 27 49  1  0  0  0
 27 50  1  0  0  0
 27 51  1  0  0  0
M  END
> <s_m_entry_id>
3246

> <s_m_entry_name>
dock_pv.338

> <s_m_Source_Path>
/home/csk/Desktop/cluster/DUD-E-result/adrb1

> <s_m_Source_File>
dock_pv.maegz

> <i_m_Source_File_Index>
338

> <chembl_id>
CHEMBL4588479

> <chembl_pref_name>
None

> <i_lp_mmshare_version>
53161

> <i_f3d_flags>
0

> <r_lp_tautomer_probability>
1

> <s_lp_Force_Field>
OPLS_2005

> <r_lp_Energy>
29.809796

> <b_lp_Chiralities_Consistent>
1

> <s_lp_Variant>
CHEMBL213_lig1213 -2

> <s_i_glide_gridfile>
glide-grid_2vt4

> <i_i_glide_lignum>
1438

> <i_i_glide_rotatable_bonds>
10

> <r_i_docking_score>
-7.14797129396811

> <r_i_glide_ligand_efficiency>
-0.264739677554374

> <r_i_glide_ligand_efficiency_sa>
-0.794219031790584

> <r_i_glide_ligand_efficiency_ln>
-1.66392987371902

> <r_i_glide_gscore>
-7.14797129396811

> <r_i_glide_lipo>
-2.49343277390874

> <r_i_glide_hbond>
-0.648615036520212

> <r_i_glide_metal>
0

> <r_i_glide_rewards>
-1.56676210188124

> <r_i_glide_evdw>
-39.419319152832

> <r_i_glide_ecoul>
-9.74622917175293

> <r_i_glide_erotb>
0.993738951746631

> <r_i_glide_esite>
0

> <r_i_glide_emodel>
-65.040240784518

> <r_i_glide_energy>
-49.165548324585

> <r_i_glide_einternal>
9.67462348937988

> <i_i_glide_confnum>
104

> <i_i_glide_posenum>
363

> <r_i_glide_eff_state_penalty>
0

> <s_user_duplicate_titles>
CHEMBL213_lig1213 

> <s_m_subgroup_title>
dock_pv

> <s_m_subgroupid>
dock_pv

> <b_m_subgroup_collapsed>
1

$$$$
CHEMBL213_lig1036
                    3D
 Schrodinger Suite 2021-1.
 53 55  0  0  1  0            999 V2000
   30.5366    3.1370   -1.6324 C   0  0  0  0  0  0
   29.9680    4.5676   -1.7522 C   0  0  0  0  0  0
   30.2176    5.2914   -0.4184 C   0  0  0  0  0  0
   25.0540    4.3625    3.5254 C   0  0  0  0  0  0
   24.5588    3.8033    2.3493 C   0  0  0  0  0  0
   25.2096    3.9996    1.1337 C   0  0  0  0  0  0
   26.3935    4.7413    1.0904 C   0  0  0  0  0  0
   26.2673    5.0437    3.5049 C   0  0  0  0  0  0
   26.9562    5.1796    2.2982 C   0  0  0  0  0  0
   28.1597    5.8500    2.3027 O   0  0  0  0  0  0
   28.9256    5.7467    3.5213 C   0  0  0  0  0  0
   28.0792    6.0678    4.7846 C   0  0  0  0  0  0
   26.8106    5.6307    4.6498 N   0  0  0  0  0  0
   28.5067    6.6499    5.7797 O   0  0  0  0  0  0
   23.4080    3.0835    2.3850 O   0  0  0  0  0  0
   26.9503    5.1949   -0.2526 C   0  0  1  0  0  0
   27.5939    4.0407   -1.0471 C   0  0  0  0  0  0
   25.9735    5.8500   -1.0440 O   0  0  0  0  0  0
   28.5295    4.5376   -2.0514 N   0  0  2  0  0  0
   30.6399    5.3204   -2.9452 C   0  0  0  0  0  0
   30.7459    4.4987   -4.2358 C   0  0  0  0  0  0
   31.9984    4.2264   -4.7947 C   0  0  0  0  0  0
   32.1002    3.3849   -5.9009 C   0  0  0  0  0  0
   30.9494    2.7882   -6.4276 C   0  0  0  0  0  0
   29.7044    3.0599   -5.8709 C   0  0  0  0  0  0
   29.5993    3.9482   -4.8151 C   0  0  0  0  0  0
   30.9936    1.8507   -7.6170 C   0  0  0  0  0  0
   30.6079    0.6500   -7.2150 F   0  0  0  0  0  0
   30.1088    2.2500   -8.5191 F   0  0  0  0  0  0
   32.1999    1.7712   -8.1818 F   0  0  0  0  0  0
   31.6260    3.1444   -1.6150 H   0  0  0  0  0  0
   30.1891    2.6500   -0.7276 H   0  0  0  0  0  0
   30.2411    2.5066   -2.4698 H   0  0  0  0  0  0
   31.2815    5.4500   -0.2393 H   0  0  0  0  0  0
   29.7086    6.2499   -0.4151 H   0  0  0  0  0  0
   29.8312    4.7332    0.4347 H   0  0  0  0  0  0
   24.4944    4.2500    4.4391 H   0  0  0  0  0  0
   24.7653    3.6401    0.2149 H   0  0  0  0  0  0
   29.2588    4.7132    3.6267 H   0  0  0  0  0  0
   29.8025    6.3937    3.4915 H   0  0  0  0  0  0
   26.2343    5.7574    5.4670 H   0  0  0  0  0  0
   23.0801    2.8682    1.5080 H   0  0  0  0  0  0
   27.6850    5.9639   -0.0451 H   0  0  0  0  0  0
   26.8061    3.4717   -1.5444 H   0  0  0  0  0  0
   28.0964    3.3186   -0.4150 H   0  0  0  0  0  0
   25.9049    5.3927   -1.8930 H   0  0  0  0  0  0
   28.4204    3.9244   -2.8465 H   0  0  0  0  0  0
   31.6439    5.6261   -2.6480 H   0  0  0  0  0  0
   30.1122    6.2499   -3.1659 H   0  0  0  0  0  0
   32.8960    4.6496   -4.3673 H   0  0  0  0  0  0
   33.0728    3.1843   -6.3267 H   0  0  0  0  0  0
   28.8063    2.6197   -6.2812 H   0  0  0  0  0  0
   28.6080    4.1804   -4.4642 H   0  0  0  0  0  0
  1  2  1  0  0  0
  1 31  1  0  0  0
  1 32  1  0  0  0
  1 33  1  0  0  0
  2 19  1  0  0  0
  2  3  1  0  0  0
  2 20  1  0  0  0
  3 34  1  0  0  0
  3 35  1  0  0  0
  3 36  1  0  0  0
  4  8  2  0  0  0
  4  5  1  0  0  0
  4 37  1  0  0  0
  5 15  1  0  0  0
  5  6  2  0  0  0
  6  7  1  0  0  0
  6 38  1  0  0  0
  7 16  1  0  0  0
  7  9  2  0  0  0
  8  9  1  0  0  0
  8 13  1  0  0  0
  9 10  1  0  0  0
 10 11  1  0  0  0
 11 12  1  0  0  0
 11 39  1  0  0  0
 11 40  1  0  0  0
 12 13  1  0  0  0
 12 14  2  0  0  0
 13 41  1  0  0  0
 15 42  1  0  0  0
 16 17  1  0  0  0
 16 18  1  0  0  0
 16 43  1  0  0  0
 17 19  1  0  0  0
 17 44  1  0  0  0
 17 45  1  0  0  0
 18 46  1  0  0  0
 19 47  1  0  0  0
 20 21  1  0  0  0
 20 48  1  0  0  0
 20 49  1  0  0  0
 21 22  2  0  0  0
 21 26  1  0  0  0
 22 23  1  0  0  0
 22 50  1  0  0  0
 23 24  2  0  0  0
 23 51  1  0  0  0
 24 25  1  0  0  0
 24 27  1  0  0  0
 25 26  2  0  0  0
 25 52  1  0  0  0
 26 53  1  0  0  0
 27 28  1  0  0  0
 27 29  1  0  0  0
 27 30  1  0  0  0
M  END
> <s_m_entry_id>
3247

> <s_m_entry_name>
dock_pv.339

> <s_m_Source_Path>
/home/csk/Desktop/cluster/DUD-E-result/adrb1

> <s_m_Source_File>
dock_pv.maegz

> <i_m_Source_File_Index>
339

> <chembl_id>
CHEMBL601430

> <chembl_pref_name>
None

> <i_lp_mmshare_version>
53161

> <i_f3d_flags>
0

> <r_lp_tautomer_probability>
0.999999999999998

> <s_lp_Force_Field>
OPLS_2005

> <r_lp_Energy>
35.450333

> <b_lp_Chiralities_Consistent>
1

> <s_lp_Variant>
CHEMBL213_lig1036-2

> <s_i_glide_gridfile>
glide-grid_2vt4

> <i_i_glide_lignum>
1193

> <i_i_glide_rotatable_bonds>
9

> <r_i_docking_score>
-7.1477169930843

> <r_i_glide_ligand_efficiency>
-0.23825723310281

> <r_i_glide_ligand_efficiency_sa>
-0.740320618636351

> <r_i_glide_ligand_efficiency_ln>
-1.62403918144314

> <r_i_glide_gscore>
-7.1477169930843

> <r_i_glide_lipo>
-2.40330113298177

> <r_i_glide_hbond>
-0.382238109766889

> <r_i_glide_metal>
0

> <r_i_glide_rewards>
-2.41140995306118

> <r_i_glide_evdw>
-33.8134727478027

> <r_i_glide_ecoul>
-6.1161732673645

> <r_i_glide_erotb>
0.660471721983722

> <r_i_glide_esite>
-0.00313989176336665

> <r_i_glide_emodel>
-49.4281937103008

> <r_i_glide_energy>
-39.9296460151672

> <r_i_glide_einternal>
8.28135681152344

> <i_i_glide_confnum>
28

> <i_i_glide_posenum>
324

> <r_i_glide_eff_state_penalty>
0

> <s_user_duplicate_titles>
CHEMBL213_lig1036

> <s_m_subgroup_title>
dock_pv

> <s_m_subgroupid>
dock_pv

> <b_m_subgroup_collapsed>
1

$$$$
CHEMBL213_lig597
                    3D
 Schrodinger Suite 2021-1.
 85 88  0  0  1  0            999 V2000
   29.4816    6.6762    4.5990 C   0  0  0  0  0  0
   30.6648    6.6609    3.9169 N   0  0  0  0  0  0
   30.8107    6.4597    2.4533 C   0  0  0  0  0  0
   31.8251    7.3181    4.5418 C   0  0  0  0  0  0
   29.4086    7.0500    5.7754 O   0  0  0  0  0  0
   34.5088    5.4501    2.6020 N   0  0  0  0  0  0
   28.3945    6.1483    4.0059 N   0  0  0  0  0  0
   32.0650    5.6388    2.1917 C   0  0  0  0  0  0
   33.0876    6.4635    4.3139 C   0  0  0  0  0  0
   33.3250    6.2822    2.8123 C   0  0  0  0  0  0
   31.2943    3.7027   -4.2781 O   0  0  0  0  0  0
   35.1785    5.3742    1.3653 C   0  0  0  0  0  0
   30.5764    3.0507   -5.2574 C   0  0  0  0  0  0
   33.4474    4.8125   -4.0767 C   0  0  1  0  0  0
   28.9877    1.7236   -7.1174 C   0  0  0  0  0  0
   32.6973    3.4673   -4.1531 C   0  0  0  0  0  0
   35.5388    3.6898   -3.3406 N   0  0  2  0  0  0
   36.6403    5.1712   -1.0096 C   0  0  0  0  0  0
   36.1050    4.3497    1.1896 C   0  0  0  0  0  0
   34.9669    6.2745    0.3220 C   0  0  0  0  0  0
   29.2471    2.7574   -4.9630 C   0  0  0  0  0  0
   31.0973    2.7141   -6.5167 C   0  0  0  0  0  0
   30.3006    2.0476   -7.4434 C   0  0  0  0  0  0
   28.4526    2.0839   -5.8853 C   0  0  0  0  0  0
   36.8437    4.2502    0.0176 C   0  0  0  0  0  0
   35.6995    6.1881   -0.8549 C   0  0  0  0  0  0
   33.1835    5.4497   -2.8351 O   0  0  0  0  0  0
   28.2084    1.0504   -8.0150 O   0  0  0  0  0  0
   34.9799    4.6994   -4.2399 C   0  0  0  0  0  0
   25.0585    4.1270    2.0383 C   0  0  0  0  0  0
   27.0492    6.2857    4.5854 C   0  0  0  0  0  0
   36.9833    3.8012   -3.1568 C   0  0  0  0  0  0
   37.4029    5.0331   -2.3219 C   0  0  0  0  0  0
   25.5851    4.4951    3.4383 C   0  0  0  0  0  0
   26.0641    4.4641    0.9084 C   0  0  0  0  0  0
   24.7232    2.6440    1.8550 C   0  0  0  0  0  0
   25.9193    5.9966    3.5905 C   0  0  0  0  0  0
   24.8215    2.4681    0.3461 C   0  0  0  0  0  0
   26.0037    3.3174   -0.0990 C   0  0  0  0  0  0
   31.0080    7.4205    1.9724 H   0  0  0  0  0  0
   29.9941    5.8685    2.0260 H   0  0  0  0  0  0
   31.8957    8.2500    3.9850 H   0  0  0  0  0  0
   31.7117    7.5370    5.6038 H   0  0  0  0  0  0
   34.5385    4.6082    3.1572 H   0  0  0  0  0  0
   28.4848    5.6692    3.1232 H   0  0  0  0  0  0
   32.1940    5.4882    1.1186 H   0  0  0  0  0  0
   31.8048    4.6843    2.6196 H   0  0  0  0  0  0
   33.0087    5.5058    4.8341 H   0  0  0  0  0  0
   33.9432    6.9747    4.7574 H   0  0  0  0  0  0
   33.5044    7.2689    2.3850 H   0  0  0  0  0  0
   33.0660    5.4501   -4.8740 H   0  0  0  0  0  0
   32.8620    2.8850   -3.2446 H   0  0  0  0  0  0
   33.1232    2.8590   -4.9493 H   0  0  0  0  0  0
   35.3310    2.7611   -3.6793 H   0  0  0  0  0  0
   36.2454    3.6192    1.9733 H   0  0  0  0  0  0
   34.2313    7.0476    0.4098 H   0  0  0  0  0  0
   28.8289    3.0432   -4.0084 H   0  0  0  0  0  0
   32.1029    2.9814   -6.8002 H   0  0  0  0  0  0
   30.7004    1.7972   -8.4145 H   0  0  0  0  0  0
   27.4250    1.8516   -5.6372 H   0  0  0  0  0  0
   37.5586    3.4500   -0.0896 H   0  0  0  0  0  0
   35.5199    6.8984   -1.6479 H   0  0  0  0  0  0
   33.7444    5.0190   -2.1798 H   0  0  0  0  0  0
   27.3003    0.9701   -7.7195 H   0  0  0  0  0  0
   35.2255    4.4285   -5.2688 H   0  0  0  0  0  0
   35.4244    5.6808   -4.0714 H   0  0  0  0  0  0
   24.1189    4.6500    1.8712 H   0  0  0  0  0  0
   26.9646    5.6212    5.4477 H   0  0  0  0  0  0
   26.9057    7.2930    4.9864 H   0  0  0  0  0  0
   37.2793    2.9048   -2.6159 H   0  0  0  0  0  0
   37.4925    3.7840   -4.1217 H   0  0  0  0  0  0
   38.4699    4.9738   -2.1038 H   0  0  0  0  0  0
   37.2867    5.9443   -2.9094 H   0  0  0  0  0  0
   26.4481    3.8745    3.6807 H   0  0  0  0  0  0
   24.8291    4.2414    4.1812 H   0  0  0  0  0  0
   25.8078    5.4038    0.4158 H   0  0  0  0  0  0
   27.0819    4.5753    1.2845 H   0  0  0  0  0  0
   25.4078    1.9830    2.3775 H   0  0  0  0  0  0
   23.7232    2.4089    2.2196 H   0  0  0  0  0  0
   25.0118    6.5142    3.9099 H   0  0  0  0  0  0
   26.1878    6.4546    2.6364 H   0  0  0  0  0  0
   23.8900    2.8233   -0.0855 H   0  0  0  0  0  0
   24.9650    1.4495    0.0254 H   0  0  0  0  0  0
   25.8885    3.6696   -1.1252 H   0  0  0  0  0  0
   26.9240    2.7324   -0.0610 H   0  0  0  0  0  0
  1  2  1  0  0  0
  1  5  2  0  0  0
  1  7  1  0  0  0
  2  3  1  0  0  0
  2  4  1  0  0  0
  3  8  1  0  0  0
  3 40  1  0  0  0
  3 41  1  0  0  0
  4  9  1  0  0  0
  4 42  1  0  0  0
  4 43  1  0  0  0
  6 10  1  0  0  0
  6 12  1  0  0  0
  6 44  1  0  0  0
  7 31  1  0  0  0
  7 45  1  0  0  0
  8 10  1  0  0  0
  8 46  1  0  0  0
  8 47  1  0  0  0
  9 10  1  0  0  0
  9 48  1  0  0  0
  9 49  1  0  0  0
 10 50  1  0  0  0
 11 16  1  0  0  0
 11 13  1  0  0  0
 12 19  1  0  0  0
 12 20  2  0  0  0
 13 21  2  0  0  0
 13 22  1  0  0  0
 14 29  1  0  0  0
 14 16  1  0  0  0
 14 27  1  0  0  0
 14 51  1  0  0  0
 15 23  1  0  0  0
 15 28  1  0  0  0
 15 24  2  0  0  0
 16 52  1  0  0  0
 16 53  1  0  0  0
 17 32  1  0  0  0
 17 29  1  0  0  0
 17 54  1  0  0  0
 18 26  2  0  0  0
 18 33  1  0  0  0
 18 25  1  0  0  0
 19 25  2  0  0  0
 19 55  1  0  0  0
 20 26  1  0  0  0
 20 56  1  0  0  0
 21 24  1  0  0  0
 21 57  1  0  0  0
 22 23  2  0  0  0
 22 58  1  0  0  0
 23 59  1  0  0  0
 24 60  1  0  0  0
 25 61  1  0  0  0
 26 62  1  0  0  0
 27 63  1  0  0  0
 28 64  1  0  0  0
 29 65  1  0  0  0
 29 66  1  0  0  0
 30 34  1  0  0  0
 30 35  1  0  0  0
 30 36  1  0  0  0
 30 67  1  0  0  0
 31 37  1  0  0  0
 31 68  1  0  0  0
 31 69  1  0  0  0
 32 33  1  0  0  0
 32 70  1  0  0  0
 32 71  1  0  0  0
 33 72  1  0  0  0
 33 73  1  0  0  0
 34 37  1  0  0  0
 34 74  1  0  0  0
 34 75  1  0  0  0
 35 39  1  0  0  0
 35 76  1  0  0  0
 35 77  1  0  0  0
 36 38  1  0  0  0
 36 78  1  0  0  0
 36 79  1  0  0  0
 37 80  1  0  0  0
 37 81  1  0  0  0
 38 39  1  0  0  0
 38 82  1  0  0  0
 38 83  1  0  0  0
 39 84  1  0  0  0
 39 85  1  0  0  0
M  END
> <s_m_entry_id>
3248

> <s_m_entry_name>
dock_pv.340

> <s_m_Source_Path>
/home/csk/Desktop/cluster/DUD-E-result/adrb1

> <s_m_Source_File>
dock_pv.maegz

> <i_m_Source_File_Index>
340

> <chembl_id>
CHEMBL323258

> <chembl_pref_name>
None

> <i_lp_mmshare_version>
53161

> <i_f3d_flags>
0

> <r_lp_tautomer_probability>
1

> <s_lp_Force_Field>
OPLS_2005

> <r_lp_Energy>
70.866911

> <b_lp_Chiralities_Consistent>
1

> <s_lp_Variant>
CHEMBL213_lig597-1

> <s_i_glide_gridfile>
glide-grid_2vt4

> <i_i_glide_lignum>
697

> <i_i_glide_rotatable_bonds>
18

> <r_i_docking_score>
-7.14674146237831

> <r_i_glide_ligand_efficiency>
-0.183249781086623

> <r_i_glide_ligand_efficiency_sa>
-0.621438753791905

> <r_i_glide_ligand_efficiency_ln>
-1.53246424185461

> <r_i_glide_gscore>
-7.14674146237831

> <r_i_glide_lipo>
-3.68902091792046

> <r_i_glide_hbond>
-0.404938629282094

> <r_i_glide_metal>
0

> <r_i_glide_rewards>
-0.458964733792885

> <r_i_glide_evdw>
-44.5218963623047

> <r_i_glide_ecoul>
-9.57165431976318

> <r_i_glide_erotb>
1.06802578469684

> <r_i_glide_esite>
0

> <r_i_glide_emodel>
-65.3768546555262

> <r_i_glide_energy>
-54.0935506820679

> <r_i_glide_einternal>
14.4043369293213

> <i_i_glide_confnum>
19

> <i_i_glide_posenum>
129

> <r_i_glide_eff_state_penalty>
0

> <s_user_duplicate_titles>
CHEMBL213_lig597,173427

> <s_m_subgroup_title>
dock_pv

> <s_m_subgroupid>
dock_pv

> <b_m_subgroup_collapsed>
1

$$$$
CHEMBL213_lig33
                    3D
 Schrodinger Suite 2021-1.
 67 68  0  0  1  0            999 V2000
   26.3279    6.0051    4.5932 C   0  0  0  0  0  0
   25.8875    5.4662    3.3752 C   0  0  0  0  0  0
   26.7817    5.0665    2.3690 C   0  0  0  0  0  0
   27.7058    6.1115    4.8259 C   0  0  0  0  0  0
   28.1548    5.1794    2.6406 C   0  0  0  0  0  0
   28.6080    5.6863    3.8542 C   0  0  0  0  0  0
   26.2178    4.6329    0.9953 C   0  0  2  0  0  0
   27.0530    4.5490   -1.4147 N   0  0  2  0  0  0
   28.2079    6.6501    5.9845 O   0  0  0  0  0  0
   25.3097    6.5114    5.6161 C   0  0  0  0  0  0
   25.1194    3.7423    1.1093 O   0  0  0  0  0  0
   35.9715    6.5517    1.4884 C   0  0  0  0  0  0
   24.2083    5.6501    5.7970 O   0  0  0  0  0  0
   32.6074    5.2902   -2.7560 O   0  0  0  0  0  0
   27.2166    4.0527   -0.0514 C   0  0  0  0  0  0
   27.4210    5.9512   -1.6057 C   0  0  0  0  0  0
   36.2874    6.0275    0.0846 C   0  0  0  0  0  0
   31.9206    4.5887   -3.7971 C   0  0  0  0  0  0
   33.3878    4.4045   -1.9558 C   0  0  0  0  0  0
   36.6076    7.7048    1.9593 C   0  0  0  0  0  0
   35.0781    5.8675    2.3218 C   0  0  0  0  0  0
   27.5479    6.2470   -3.1129 C   0  0  0  0  0  0
   35.1320    6.0843   -0.9515 C   0  0  0  0  0  0
   33.9941    5.0685   -0.7043 C   0  0  0  0  0  0
   31.1208    5.5455   -4.6940 C   0  0  0  0  0  0
   28.6992    5.4953   -3.8226 C   0  0  0  0  0  0
   29.9948    6.3135   -3.9755 C   0  0  0  0  0  0
   34.7924    6.3527    3.5959 C   0  0  0  0  0  0
   36.3161    8.1964    3.2303 C   0  0  0  0  0  0
   35.4080    7.5197    4.0412 C   0  0  0  0  0  0
   24.8274    5.3974    3.1857 H   0  0  0  0  0  0
   28.9131    4.9112    1.9262 H   0  0  0  0  0  0
   29.6708    5.7732    4.0283 H   0  0  0  0  0  0
   25.8086    5.5464    0.5783 H   0  0  0  0  0  0
   26.1529    4.3350   -1.8527 H   0  0  0  0  0  0
   27.5744    7.2159    6.4427 H   0  0  0  0  0  0
   25.7660    6.6499    6.5961 H   0  0  0  0  0  0
   24.9487    7.4876    5.2894 H   0  0  0  0  0  0
   24.7879    3.5530    0.2249 H   0  0  0  0  0  0
   23.4777    6.1604    6.1575 H   0  0  0  0  0  0
   28.2557    4.2503    0.1817 H   0  0  0  0  0  0
   27.1346    2.9653   -0.0712 H   0  0  0  0  0  0
   26.6797    6.6118   -1.1565 H   0  0  0  0  0  0
   28.3805    6.1535   -1.1285 H   0  0  0  0  0  0
   36.6569    5.0036    0.1718 H   0  0  0  0  0  0
   37.1316    6.5910   -0.3167 H   0  0  0  0  0  0
   31.2483    3.8394   -3.3735 H   0  0  0  0  0  0
   32.6436    4.0534   -4.4179 H   0  0  0  0  0  0
   32.7574    3.5790   -1.6215 H   0  0  0  0  0  0
   34.1820    3.9607   -2.5601 H   0  0  0  0  0  0
   37.3115    8.2362    1.3333 H   0  0  0  0  0  0
   34.6007    4.9604    1.9897 H   0  0  0  0  0  0
   26.6055    5.9969   -3.6015 H   0  0  0  0  0  0
   27.6623    7.3216   -3.2598 H   0  0  0  0  0  0
   35.5675    5.8890   -1.9339 H   0  0  0  0  0  0
   34.7248    7.0939   -1.0150 H   0  0  0  0  0  0
   33.2059    5.5260   -0.1046 H   0  0  0  0  0  0
   34.3893    4.2509   -0.1039 H   0  0  0  0  0  0
   30.7057    4.9897   -5.5360 H   0  0  0  0  0  0
   31.8087    6.2492   -5.1474 H   0  0  0  0  0  0
   28.9094    4.5523   -3.3182 H   0  0  0  0  0  0
   28.3562    5.2116   -4.8150 H   0  0  0  0  0  0
   29.7747    7.2223   -4.5381 H   0  0  0  0  0  0
   30.3498    6.6457   -3.0010 H   0  0  0  0  0  0
   34.0908    5.8303    4.2319 H   0  0  0  0  0  0
   36.7880    9.1008    3.5846 H   0  0  0  0  0  0
   35.1768    7.9039    5.0244 H   0  0  0  0  0  0
  1  2  1  0  0  0
  1  4  2  0  0  0
  1 10  1  0  0  0
  2  3  2  0  0  0
  2 31  1  0  0  0
  3  7  1  0  0  0
  3  5  1  0  0  0
  4  6  1  0  0  0
  4  9  1  0  0  0
  5  6  2  0  0  0
  5 32  1  0  0  0
  6 33  1  0  0  0
  7 11  1  0  0  0
  7 15  1  0  0  0
  7 34  1  0  0  0
  8 15  1  0  0  0
  8 16  1  0  0  0
  8 35  1  0  0  0
  9 36  1  0  0  0
 10 13  1  0  0  0
 10 37  1  0  0  0
 10 38  1  0  0  0
 11 39  1  0  0  0
 12 17  1  0  0  0
 12 20  2  0  0  0
 12 21  1  0  0  0
 13 40  1  0  0  0
 14 18  1  0  0  0
 14 19  1  0  0  0
 15 41  1  0  0  0
 15 42  1  0  0  0
 16 22  1  0  0  0
 16 43  1  0  0  0
 16 44  1  0  0  0
 17 23  1  0  0  0
 17 45  1  0  0  0
 17 46  1  0  0  0
 18 25  1  0  0  0
 18 47  1  0  0  0
 18 48  1  0  0  0
 19 24  1  0  0  0
 19 49  1  0  0  0
 19 50  1  0  0  0
 20 29  1  0  0  0
 20 51  1  0  0  0
 21 28  2  0  0  0
 21 52  1  0  0  0
 22 26  1  0  0  0
 22 53  1  0  0  0
 22 54  1  0  0  0
 23 24  1  0  0  0
 23 55  1  0  0  0
 23 56  1  0  0  0
 24 57  1  0  0  0
 24 58  1  0  0  0
 25 27  1  0  0  0
 25 59  1  0  0  0
 25 60  1  0  0  0
 26 27  1  0  0  0
 26 61  1  0  0  0
 26 62  1  0  0  0
 27 63  1  0  0  0
 27 64  1  0  0  0
 28 30  1  0  0  0
 28 65  1  0  0  0
 29 30  2  0  0  0
 29 66  1  0  0  0
 30 67  1  0  0  0
M  END
> <s_m_entry_id>
3249

> <s_m_entry_name>
dock_pv.341

> <s_m_Source_Path>
/home/csk/Desktop/cluster/DUD-E-result/adrb1

> <s_m_Source_File>
dock_pv.maegz

> <i_m_Source_File_Index>
341

> <chembl_id>
CHEMBL1263

> <chembl_pref_name>
SALMETEROL

> <i_lp_mmshare_version>
53161

> <i_f3d_flags>
0

> <r_lp_tautomer_probability>
0.999999999997365

> <s_lp_Force_Field>
OPLS_2005

> <r_lp_Energy>
21.141707

> <b_lp_Chiralities_Consistent>
1

> <s_lp_Variant>
CHEMBL213_lig33-1

> <s_i_glide_gridfile>
glide-grid_2vt4

> <i_i_glide_lignum>
52

> <i_i_glide_rotatable_bonds>
19

> <r_i_docking_score>
-7.14520630426563

> <r_i_glide_ligand_efficiency>
-0.238173543475521

> <r_i_glide_ligand_efficiency_sa>
-0.740060575506323

> <r_i_glide_ligand_efficiency_ln>
-1.62346872558739

> <r_i_glide_gscore>
-7.14520630426563

> <r_i_glide_lipo>
-3.42681734505937

> <r_i_glide_hbond>
-0.62469138860497

> <r_i_glide_metal>
0

> <r_i_glide_rewards>
-0.959022560606059

> <r_i_glide_evdw>
-46.4245262145996

> <r_i_glide_ecoul>
-10.1914939880371

> <r_i_glide_erotb>
1.71527539894031

> <r_i_glide_esite>
0

> <r_i_glide_emodel>
-72.687301133592

> <r_i_glide_energy>
-56.6160202026367

> <r_i_glide_einternal>
15.931324005127

> <i_i_glide_confnum>
207

> <i_i_glide_posenum>
394

> <r_i_glide_eff_state_penalty>
0

> <s_user_duplicate_titles>
CHEMBL213_lig33,242716

> <s_m_subgroup_title>
dock_pv

> <s_m_subgroupid>
dock_pv

> <b_m_subgroup_collapsed>
1

$$$$
CHEMBL213_lig32
                    3D
 Schrodinger Suite 2021-1.
 57 60  0  0  1  0            999 V2000
   35.2976    3.6522   -4.1531 C   0  0  0  0  0  0
   34.5287    3.4507   -5.2963 C   0  0  0  0  0  0
   33.1929    3.8394   -5.3296 C   0  0  0  0  0  0
   32.5848    4.4441   -4.2197 C   0  0  0  0  0  0
   34.7177    4.2507   -3.0247 C   0  0  0  0  0  0
   33.3609    4.6442   -3.0602 C   0  0  0  0  0  0
   32.8436    5.2684   -1.8244 C   0  0  0  0  0  0
   33.6377    5.4504   -0.7455 C   0  0  0  0  0  0
   35.0330    5.0497   -0.7017 C   0  0  0  0  0  0
   35.4652    4.4671   -1.8407 N   0  0  0  0  0  0
   36.6081    3.2437   -4.1835 O   0  0  0  0  0  0
   35.7704    5.2129    0.2633 O   0  0  0  0  0  0
   31.1069    4.8647   -4.3084 C   0  0  1  0  0  0
   30.7085    5.2422   -5.6150 O   0  0  0  0  0  0
   30.1191    3.7686   -3.8067 C   0  0  0  0  0  0
   29.8080    3.8523   -2.3747 N   0  0  1  0  0  0
   28.9111    4.9844   -2.1065 C   0  0  0  0  0  0
   29.1523    5.5750   -0.7180 C   0  0  0  0  0  0
   27.4230    4.6016   -2.0999 C   0  0  0  0  0  0
   27.0362    4.5218   -0.6381 C   0  0  0  0  0  0
   28.0444    5.0501    0.1563 C   0  0  0  0  0  0
   27.8739    5.1620    1.5370 C   0  0  0  0  0  0
   26.6840    4.7523    2.1380 C   0  0  0  0  0  0
   25.6485    4.2491    1.3299 C   0  0  0  0  0  0
   25.8408    4.1260   -0.0474 C   0  0  0  0  0  0
   24.3248    3.7625    1.8961 C   0  0  0  0  0  0
   24.3554    2.2458    2.0550 C   0  0  0  0  0  0
   26.5733    4.8356    3.6563 C   0  0  0  0  0  0
   26.0004    6.1697    4.1518 C   0  0  0  0  0  0
   34.9756    2.9909   -6.1666 H   0  0  0  0  0  0
   32.6276    3.6674   -6.2357 H   0  0  0  0  0  0
   31.8117    5.5638   -1.7613 H   0  0  0  0  0  0
   33.2305    5.8927    0.1522 H   0  0  0  0  0  0
   36.4296    4.1816   -1.7828 H   0  0  0  0  0  0
   37.1858    3.6500   -3.5306 H   0  0  0  0  0  0
   30.9750    5.7971   -3.7625 H   0  0  0  0  0  0
   31.1174    6.0865   -5.8324 H   0  0  0  0  0  0
   29.1744    3.8145   -4.3527 H   0  0  0  0  0  0
   30.5295    2.7837   -4.0296 H   0  0  0  0  0  0
   29.2909    2.9984   -2.1446 H   0  0  0  0  0  0
   29.0732    5.7731   -2.8421 H   0  0  0  0  0  0
   30.1589    5.4395   -0.3248 H   0  0  0  0  0  0
   29.0084    6.6498   -0.8149 H   0  0  0  0  0  0
   26.8653    5.4156   -2.5652 H   0  0  0  0  0  0
   27.1952    3.7239   -2.7057 H   0  0  0  0  0  0
   28.6647    5.5582    2.1571 H   0  0  0  0  0  0
   25.0508    3.7138   -0.6526 H   0  0  0  0  0  0
   24.0687    4.2583    2.8305 H   0  0  0  0  0  0
   23.5257    4.0343    1.2047 H   0  0  0  0  0  0
   23.4080    1.8545    2.3850 H   0  0  0  0  0  0
   24.5892    1.7829    1.0977 H   0  0  0  0  0  0
   25.0929    1.9217    2.7851 H   0  0  0  0  0  0
   25.9777    3.9980    4.0113 H   0  0  0  0  0  0
   27.5577    4.6752    4.0976 H   0  0  0  0  0  0
   25.9184    6.1818    5.2397 H   0  0  0  0  0  0
   26.6326    7.0075    3.8584 H   0  0  0  0  0  0
   25.0083    6.3513    3.7432 H   0  0  0  0  0  0
  1  2  2  0  0  0
  1  5  1  0  0  0
  1 11  1  0  0  0
  2  3  1  0  0  0
  2 30  1  0  0  0
  3  4  2  0  0  0
  3 31  1  0  0  0
  4  6  1  0  0  0
  4 13  1  0  0  0
  5  6  2  0  0  0
  5 10  1  0  0  0
  6  7  1  0  0  0
  7  8  2  0  0  0
  7 32  1  0  0  0
  8  9  1  0  0  0
  8 33  1  0  0  0
  9 10  1  0  0  0
  9 12  2  0  0  0
 10 34  1  0  0  0
 11 35  1  0  0  0
 13 14  1  0  0  0
 13 15  1  0  0  0
 13 36  1  0  0  0
 14 37  1  0  0  0
 15 16  1  0  0  0
 15 38  1  0  0  0
 15 39  1  0  0  0
 16 17  1  0  0  0
 16 40  1  0  0  0
 17 18  1  0  0  0
 17 19  1  0  0  0
 17 41  1  0  0  0
 18 21  1  0  0  0
 18 42  1  0  0  0
 18 43  1  0  0  0
 19 20  1  0  0  0
 19 44  1  0  0  0
 19 45  1  0  0  0
 20 21  2  0  0  0
 20 25  1  0  0  0
 21 22  1  0  0  0
 22 23  2  0  0  0
 22 46  1  0  0  0
 23 24  1  0  0  0
 23 28  1  0  0  0
 24 25  2  0  0  0
 24 26  1  0  0  0
 25 47  1  0  0  0
 26 27  1  0  0  0
 26 48  1  0  0  0
 26 49  1  0  0  0
 27 50  1  0  0  0
 27 51  1  0  0  0
 27 52  1  0  0  0
 28 29  1  0  0  0
 28 53  1  0  0  0
 28 54  1  0  0  0
 29 55  1  0  0  0
 29 56  1  0  0  0
 29 57  1  0  0  0
M  END
> <s_m_entry_id>
3250

> <s_m_entry_name>
dock_pv.342

> <s_m_Source_Path>
/home/csk/Desktop/cluster/DUD-E-result/adrb1

> <s_m_Source_File>
dock_pv.maegz

> <i_m_Source_File_Index>
342

> <chembl_id>
CHEMBL1095777

> <chembl_pref_name>
INDACATEROL

> <i_lp_mmshare_version>
53161

> <i_f3d_flags>
0

> <r_lp_tautomer_probability>
1

> <s_lp_Force_Field>
OPLS_2005

> <r_lp_Energy>
47.39364

> <b_lp_Chiralities_Consistent>
1

> <s_lp_Variant>
CHEMBL213_lig32-1

> <s_i_glide_gridfile>
glide-grid_2vt4

> <i_i_glide_lignum>
51

> <i_i_glide_rotatable_bonds>
8

> <r_i_docking_score>
-7.14436057257571

> <r_i_glide_ligand_efficiency>
-0.2463572611233

> <r_i_glide_ligand_efficiency_sa>
-0.756887557629443

> <r_i_glide_ligand_efficiency_ln>
-1.63587740576709

> <r_i_glide_gscore>
-7.14436057257571

> <r_i_glide_lipo>
-2.78790928319243

> <r_i_glide_hbond>
-0.459661372212984

> <r_i_glide_metal>
0

> <r_i_glide_rewards>
-1.45213668136532

> <r_i_glide_evdw>
-38.2019691467285

> <r_i_glide_ecoul>
-6.94362592697144

> <r_i_glide_erotb>
0.50698911057716

> <r_i_glide_esite>
0

> <r_i_glide_emodel>
-60.3488654246537

> <r_i_glide_energy>
-45.1455950737

> <r_i_glide_einternal>
6.69953107833862

> <i_i_glide_confnum>
49

> <i_i_glide_posenum>
300

> <r_i_glide_eff_state_penalty>
0

> <s_user_duplicate_titles>
CHEMBL213_lig32,625589

> <s_m_subgroup_title>
dock_pv

> <s_m_subgroupid>
dock_pv

> <b_m_subgroup_collapsed>
1

$$$$
CHEMBL213_lig1046
                    3D
 Schrodinger Suite 2021-1.
 65 66  0  0  1  0            999 V2000
   26.3804    6.1648    4.7117 C   0  0  0  0  0  0
   27.7592    6.3768    4.8952 C   0  0  0  0  0  0
   28.6688    5.9269    3.9414 C   0  0  0  0  0  0
   28.2253    5.2907    2.7860 C   0  0  0  0  0  0
   26.8574    5.0924    2.5609 C   0  0  0  0  0  0
   25.9446    5.5222    3.5384 C   0  0  0  0  0  0
   25.3737    6.6457    5.7594 C   0  0  0  0  0  0
   24.2090    5.8496    5.8701 O   0  0  0  0  0  0
   28.2510    7.0462    5.9853 O   0  0  0  0  0  0
   26.4219    4.4161    1.2522 C   0  0  2  0  0  0
   26.7376    5.2932    0.0115 C   0  0  0  0  0  0
   25.0631    4.0093    1.2334 O   0  0  0  0  0  0
   26.7806    4.4939   -1.2142 N   0  0  2  0  0  0
   27.4187    5.1718   -2.3396 C   0  0  0  0  0  0
   28.9528    5.2350   -2.1856 C   0  0  0  0  0  0
   29.6794    5.4426   -3.5299 C   0  0  0  0  0  0
   31.1939    5.6913   -3.3934 C   0  0  0  0  0  0
   31.9832    4.5249   -2.7603 C   0  0  0  0  0  0
   33.4994    4.7729   -2.6695 C   0  0  0  0  0  0
   33.7497    5.8888   -1.8186 O   0  0  0  0  0  0
   35.1273    6.2073   -1.6256 C   0  0  0  0  0  0
   35.8336    5.2926   -0.5981 C   0  0  0  0  0  0
   35.3331    5.4186    0.7343 O   0  0  0  0  0  0
   35.6394    6.6510    1.3895 C   0  0  0  0  0  0
   35.4142    6.5275    2.8937 C   0  0  0  0  0  0
   34.2406    5.9419    3.3836 C   0  0  0  0  0  0
   34.0340    5.8340    4.7580 C   0  0  0  0  0  0
   34.9998    6.3102    5.6423 C   0  0  0  0  0  0
   36.1682    6.9022    5.1648 C   0  0  0  0  0  0
   36.3740    7.0172    3.7910 C   0  0  0  0  0  0
   29.7297    6.0825    4.0876 H   0  0  0  0  0  0
   28.9533    4.9604    2.0591 H   0  0  0  0  0  0
   24.8874    5.3654    3.3770 H   0  0  0  0  0  0
   25.8320    6.6491    6.7488 H   0  0  0  0  0  0
   25.0849    7.6719    5.5267 H   0  0  0  0  0  0
   23.5319    6.3606    6.3213 H   0  0  0  0  0  0
   27.5965    7.5937    6.4421 H   0  0  0  0  0  0
   27.0055    3.4995    1.1820 H   0  0  0  0  0  0
   26.0162    6.1086   -0.0825 H   0  0  0  0  0  0
   27.7116    5.7624    0.1519 H   0  0  0  0  0  0
   24.8387    3.7563    0.3348 H   0  0  0  0  0  0
   25.8478    4.2502   -1.5448 H   0  0  0  0  0  0
   27.1905    4.5784   -3.2281 H   0  0  0  0  0  0
   26.9824    6.1572   -2.5199 H   0  0  0  0  0  0
   29.2167    6.0333   -1.4908 H   0  0  0  0  0  0
   29.3049    4.3029   -1.7374 H   0  0  0  0  0  0
   29.5073    4.5718   -4.1670 H   0  0  0  0  0  0
   29.2299    6.2886   -4.0564 H   0  0  0  0  0  0
   31.6002    5.9073   -4.3826 H   0  0  0  0  0  0
   31.3460    6.5933   -2.8056 H   0  0  0  0  0  0
   31.6083    4.3230   -1.7569 H   0  0  0  0  0  0
   31.8065    3.6169   -3.3383 H   0  0  0  0  0  0
   33.9901    3.8804   -2.2765 H   0  0  0  0  0  0
   33.9089    4.9569   -3.6661 H   0  0  0  0  0  0
   35.6611    6.1875   -2.5758 H   0  0  0  0  0  0
   35.1764    7.2422   -1.2865 H   0  0  0  0  0  0
   35.7029    4.2505   -0.8919 H   0  0  0  0  0  0
   36.9109    5.4705   -0.6139 H   0  0  0  0  0  0
   36.6784    6.9358    1.2000 H   0  0  0  0  0  0
   35.0086    7.4495    1.0016 H   0  0  0  0  0  0
   33.4936    5.5674    2.6969 H   0  0  0  0  0  0
   33.1255    5.3859    5.1351 H   0  0  0  0  0  0
   34.8397    6.2160    6.7060 H   0  0  0  0  0  0
   36.9090    7.2749    5.8570 H   0  0  0  0  0  0
   37.2813    7.4778    3.4242 H   0  0  0  0  0  0
  1  2  2  0  0  0
  1  6  1  0  0  0
  1  7  1  0  0  0
  2  9  1  0  0  0
  2  3  1  0  0  0
  3  4  2  0  0  0
  3 31  1  0  0  0
  4  5  1  0  0  0
  4 32  1  0  0  0
  5 10  1  0  0  0
  5  6  2  0  0  0
  6 33  1  0  0  0
  7  8  1  0  0  0
  7 34  1  0  0  0
  7 35  1  0  0  0
  8 36  1  0  0  0
  9 37  1  0  0  0
 10 11  1  0  0  0
 10 12  1  0  0  0
 10 38  1  0  0  0
 11 13  1  0  0  0
 11 39  1  0  0  0
 11 40  1  0  0  0
 12 41  1  0  0  0
 13 14  1  0  0  0
 13 42  1  0  0  0
 14 15  1  0  0  0
 14 43  1  0  0  0
 14 44  1  0  0  0
 15 16  1  0  0  0
 15 45  1  0  0  0
 15 46  1  0  0  0
 16 17  1  0  0  0
 16 47  1  0  0  0
 16 48  1  0  0  0
 17 18  1  0  0  0
 17 49  1  0  0  0
 17 50  1  0  0  0
 18 19  1  0  0  0
 18 51  1  0  0  0
 18 52  1  0  0  0
 19 20  1  0  0  0
 19 53  1  0  0  0
 19 54  1  0  0  0
 20 21  1  0  0  0
 21 22  1  0  0  0
 21 55  1  0  0  0
 21 56  1  0  0  0
 22 23  1  0  0  0
 22 57  1  0  0  0
 22 58  1  0  0  0
 23 24  1  0  0  0
 24 25  1  0  0  0
 24 59  1  0  0  0
 24 60  1  0  0  0
 25 26  2  0  0  0
 25 30  1  0  0  0
 26 27  1  0  0  0
 26 61  1  0  0  0
 27 28  2  0  0  0
 27 62  1  0  0  0
 28 29  1  0  0  0
 28 63  1  0  0  0
 29 30  2  0  0  0
 29 64  1  0  0  0
 30 65  1  0  0  0
M  END
> <s_m_entry_id>
3251

> <s_m_entry_name>
dock_pv.343

> <s_m_Source_Path>
/home/csk/Desktop/cluster/DUD-E-result/adrb1

> <s_m_Source_File>
dock_pv.maegz

> <i_m_Source_File_Index>
343

> <chembl_id>
CHEMBL1085395

> <chembl_pref_name>
None

> <i_lp_mmshare_version>
53161

> <i_f3d_flags>
0

> <r_lp_tautomer_probability>
0.999999999997365

> <s_lp_Force_Field>
OPLS_2005

> <r_lp_Energy>
21.123726

> <b_lp_Chiralities_Consistent>
1

> <s_lp_Variant>
CHEMBL213_lig1046-1

> <s_i_glide_gridfile>
glide-grid_2vt4

> <i_i_glide_lignum>
1214

> <i_i_glide_rotatable_bonds>
19

> <r_i_docking_score>
-7.1436097546189

> <r_i_glide_ligand_efficiency>
-0.238120325153963

> <r_i_glide_ligand_efficiency_sa>
-0.739895213807854

> <r_i_glide_ligand_efficiency_ln>
-1.62310597211185

> <r_i_glide_gscore>
-7.1436097546189

> <r_i_glide_lipo>
-3.41694834908674

> <r_i_glide_hbond>
-0.453355209282429

> <r_i_glide_metal>
0

> <r_i_glide_rewards>
-0.970571515151514

> <r_i_glide_evdw>
-47.3744812011719

> <r_i_glide_ecoul>
-10.8978261947632

> <r_i_glide_erotb>
1.70066330817485

> <r_i_glide_esite>
0

> <r_i_glide_emodel>
-79.5260437445431

> <r_i_glide_energy>
-58.2723073959351

> <r_i_glide_einternal>
7.4854793548584

> <i_i_glide_confnum>
174

> <i_i_glide_posenum>
216

> <r_i_glide_eff_state_penalty>
0

> <s_user_duplicate_titles>
CHEMBL213_lig1046,631503

> <s_m_subgroup_title>
dock_pv

> <s_m_subgroupid>
dock_pv

> <b_m_subgroup_collapsed>
1

$$$$
CHEMBL213_lig766
                    3D
 Schrodinger Suite 2021-1.
 67 69  0  0  1  0            999 V2000
   35.1631    7.0555    4.5186 C   0  0  0  0  0  0
   35.9586    6.6640    3.4440 C   0  0  0  0  0  0
   35.3644    6.2593    2.2507 C   0  0  0  0  0  0
   33.9747    6.2500    2.1349 C   0  0  0  0  0  0
   33.1536    6.6471    3.2024 C   0  0  0  0  0  0
   33.7720    7.0472    4.3986 C   0  0  0  0  0  0
   35.8987    7.5541    5.9959 Cl  0  0  0  0  0  0
   31.6224    6.6442    3.0173 C   0  0  2  0  0  0
   30.7901    6.8997    4.3179 C   0  0  0  0  0  0
   29.3291    7.0072    4.1831 N   0  0  1  0  0  0
   28.6120    5.7512    3.9571 C   0  0  0  0  0  0
   27.0819    5.9762    3.8439 C   0  0  0  0  0  0
   26.4885    5.2389    2.6421 C   0  0  0  0  0  0
   25.5008    4.2528    2.7779 C   0  0  0  0  0  0
   25.0102    3.5922    1.6468 C   0  0  0  0  0  0
   25.5083    3.9107    0.3811 C   0  0  0  0  0  0
   26.4936    4.8919    0.2313 C   0  0  0  0  0  0
   26.9581    5.5576    1.3652 C   0  0  0  0  0  0
   31.2038    5.4502    2.3852 O   0  0  0  0  0  0
   26.9178    5.2501   -1.0300 O   0  0  0  0  0  0
   28.1874    4.9553   -1.4900 C   0  0  0  0  0  0
   29.3434    5.0500   -0.7080 C   0  0  0  0  0  0
   30.5937    4.8007   -1.2600 C   0  0  0  0  0  0
   30.7299    4.4196   -2.6023 C   0  0  0  0  0  0
   29.5660    4.2493   -3.3899 C   0  0  0  0  0  0
   28.3177    4.5835   -2.8285 C   0  0  0  0  0  0
   29.6102    3.7111   -4.8055 C   0  0  0  0  0  0
   28.6061    2.8314   -5.0854 O   0  0  0  0  0  0
   30.5101    3.9805   -5.5992 O   0  0  0  0  0  0
   32.0018    4.1201   -3.1375 N   0  0  0  0  0  0
   33.1966    4.6827   -2.8386 C   0  0  0  0  0  0
   34.4426    4.0640   -3.5470 C   0  0  0  0  0  0
   33.3198    5.6463   -2.0737 O   0  0  0  0  0  0
   34.2426    4.0718   -5.0874 C   0  0  0  0  0  0
   34.6455    2.6110   -3.0521 C   0  0  0  0  0  0
   35.7386    4.8502   -3.2252 C   0  0  0  0  0  0
   37.0349    6.6802    3.5290 H   0  0  0  0  0  0
   35.9738    5.9564    1.4116 H   0  0  0  0  0  0
   33.5313    5.9492    1.1967 H   0  0  0  0  0  0
   33.1883    7.3695    5.2443 H   0  0  0  0  0  0
   31.4045    7.4588    2.3237 H   0  0  0  0  0  0
   31.1012    7.8697    4.7010 H   0  0  0  0  0  0
   31.0498    6.1982    5.1071 H   0  0  0  0  0  0
   28.9228    7.5211    4.9551 H   0  0  0  0  0  0
   28.8103    5.0778    4.7862 H   0  0  0  0  0  0
   28.9668    5.2610    3.0555 H   0  0  0  0  0  0
   26.8324    7.0388    3.7339 H   0  0  0  0  0  0
   26.5913    5.6550    4.7623 H   0  0  0  0  0  0
   25.1173    3.9964    3.7545 H   0  0  0  0  0  0
   24.2445    2.8362    1.7517 H   0  0  0  0  0  0
   25.1147    3.4161   -0.4947 H   0  0  0  0  0  0
   27.6756    6.3488    1.2538 H   0  0  0  0  0  0
   31.0473    4.7953    3.0794 H   0  0  0  0  0  0
   29.3067    5.3314    0.3282 H   0  0  0  0  0  0
   31.4566    4.8977   -0.6192 H   0  0  0  0  0  0
   27.4102    4.5181   -3.4149 H   0  0  0  0  0  0
   28.0784    2.6641   -4.2986 H   0  0  0  0  0  0
   31.9888    3.5280   -3.9560 H   0  0  0  0  0  0
   35.1160    3.6610   -5.6005 H   0  0  0  0  0  0
   34.0982    5.0841   -5.4698 H   0  0  0  0  0  0
   33.3867    3.4737   -5.4023 H   0  0  0  0  0  0
   34.8775    2.5820   -1.9876 H   0  0  0  0  0  0
   33.7674    1.9858   -3.2148 H   0  0  0  0  0  0
   35.4775    2.1315   -3.5667 H   0  0  0  0  0  0
   35.9261    4.9153   -2.1513 H   0  0  0  0  0  0
   36.6166    4.3818   -3.6744 H   0  0  0  0  0  0
   35.6950    5.8636   -3.6136 H   0  0  0  0  0  0
  1  6  1  0  0  0
  1  2  2  0  0  0
  1  7  1  0  0  0
  2  3  1  0  0  0
  2 37  1  0  0  0
  3  4  2  0  0  0
  3 38  1  0  0  0
  4  5  1  0  0  0
  4 39  1  0  0  0
  5  6  2  0  0  0
  5  8  1  0  0  0
  6 40  1  0  0  0
  8  9  1  0  0  0
  8 19  1  0  0  0
  8 41  1  0  0  0
  9 10  1  0  0  0
  9 42  1  0  0  0
  9 43  1  0  0  0
 10 11  1  0  0  0
 10 44  1  0  0  0
 11 12  1  0  0  0
 11 45  1  0  0  0
 11 46  1  0  0  0
 12 13  1  0  0  0
 12 47  1  0  0  0
 12 48  1  0  0  0
 13 18  1  0  0  0
 13 14  2  0  0  0
 14 15  1  0  0  0
 14 49  1  0  0  0
 15 16  2  0  0  0
 15 50  1  0  0  0
 16 17  1  0  0  0
 16 51  1  0  0  0
 17 18  2  0  0  0
 17 20  1  0  0  0
 18 52  1  0  0  0
 19 53  1  0  0  0
 20 21  1  0  0  0
 21 22  2  0  0  0
 21 26  1  0  0  0
 22 23  1  0  0  0
 22 54  1  0  0  0
 23 24  2  0  0  0
 23 55  1  0  0  0
 24 25  1  0  0  0
 24 30  1  0  0  0
 25 26  2  0  0  0
 25 27  1  0  0  0
 26 56  1  0  0  0
 27 28  1  0  0  0
 27 29  2  0  0  0
 28 57  1  0  0  0
 30 31  1  0  0  0
 30 58  1  0  0  0
 31 32  1  0  0  0
 31 33  2  0  0  0
 32 34  1  0  0  0
 32 35  1  0  0  0
 32 36  1  0  0  0
 34 59  1  0  0  0
 34 60  1  0  0  0
 34 61  1  0  0  0
 35 62  1  0  0  0
 35 63  1  0  0  0
 35 64  1  0  0  0
 36 65  1  0  0  0
 36 66  1  0  0  0
 36 67  1  0  0  0
M  END
> <s_m_entry_id>
3252

> <s_m_entry_name>
dock_pv.344

> <s_m_Source_Path>
/home/csk/Desktop/cluster/DUD-E-result/adrb1

> <s_m_Source_File>
dock_pv.maegz

> <i_m_Source_File_Index>
344

> <chembl_id>
CHEMBL491645

> <chembl_pref_name>
None

> <i_lp_mmshare_version>
53161

> <i_f3d_flags>
0

> <r_lp_tautomer_probability>
1

> <s_lp_Force_Field>
OPLS_2005

> <r_lp_Energy>
42.578731

> <b_lp_Chiralities_Consistent>
1

> <s_lp_Variant>
CHEMBL213_lig766-1

> <s_i_glide_gridfile>
glide-grid_2vt4

> <i_i_glide_lignum>
872

> <i_i_glide_rotatable_bonds>
14

> <r_i_docking_score>
-7.13932175528484

> <r_i_glide_ligand_efficiency>
-0.198314493202357

> <r_i_glide_ligand_efficiency_sa>
-0.654820028173403

> <r_i_glide_ligand_efficiency_ln>
-1.55760712481961

> <r_i_glide_gscore>
-7.13932175528484

> <r_i_glide_lipo>
-2.71445298343639

> <r_i_glide_hbond>
-0.411572837179907

> <r_i_glide_metal>
0

> <r_i_glide_rewards>
-0.661993747544727

> <r_i_glide_evdw>
-57.7766265869141

> <r_i_glide_ecoul>
-8.31431007385254

> <r_i_glide_erotb>
0.784675653299769

> <r_i_glide_esite>
0

> <r_i_glide_emodel>
-83.0597159921591

> <r_i_glide_energy>
-66.0909366607666

> <r_i_glide_einternal>
20.6547832489014

> <i_i_glide_confnum>
42

> <i_i_glide_posenum>
383

> <r_i_glide_eff_state_penalty>
0

> <s_user_duplicate_titles>
CHEMBL213_lig766,492874

> <s_m_subgroup_title>
dock_pv

> <s_m_subgroupid>
dock_pv

> <b_m_subgroup_collapsed>
1

$$$$
CHEMBL213_lig917
                    3D
 Schrodinger Suite 2021-1.
 61 64  0  0  1  0            999 V2000
   29.9024    5.3359   -4.6599 C   0  0  0  0  0  0
   29.0108    4.2892   -4.3837 C   0  0  0  0  0  0
   29.2326    3.0170   -4.8146 N   0  0  0  0  0  0
   30.3732    2.7612   -5.5043 C   0  0  0  0  0  0
   31.3141    3.7482   -5.8033 C   0  0  0  0  0  0
   31.0682    5.0538   -5.3739 C   0  0  0  0  0  0
   27.6941    4.5171   -3.6330 C   0  0  0  0  0  0
   27.8646    4.9972   -2.1810 C   0  0  0  0  0  0
   27.0084    4.4742   -1.2697 N   0  0  0  0  0  0
   28.7150    5.8502   -1.9217 O   0  0  0  0  0  0
   27.0091    4.6627    0.1271 C   0  0  0  0  0  0
   25.8358    4.4142    0.8474 C   0  0  0  0  0  0
   25.8007    4.6352    2.2334 C   0  0  0  0  0  0
   26.9372    5.0820    2.9141 C   0  0  0  0  0  0
   28.1104    5.2413    2.1917 C   0  0  0  0  0  0
   28.1565    5.0501    0.8206 C   0  0  0  0  0  0
   26.9172    5.3774    4.4245 C   0  0  0  0  0  0
   27.6229    6.6915    4.8744 C   0  0  0  0  0  0
   29.0787    6.5436    4.9405 N   0  0  2  0  0  0
   29.8810    7.7026    4.5276 C   0  0  0  0  0  0
   31.2827    7.2707    4.0103 C   0  0  1  0  0  0
   32.2561    6.7721    5.0982 C   0  0  0  0  0  0
   31.1369    6.2515    3.0381 O   0  0  0  0  0  0
   33.2129    5.8501    4.5826 O   0  0  0  0  0  0
   34.2617    6.3503    3.8580 C   0  0  0  0  0  0
   34.2317    6.5554    2.4775 C   0  0  0  0  0  0
   35.3708    6.9619    1.7871 C   0  0  0  0  0  0
   36.5894    7.1512    2.4336 C   0  0  0  0  0  0
   35.4591    6.5296    4.5524 C   0  0  0  0  0  0
   36.6133    6.9135    3.8097 C   0  0  0  0  0  0
   37.6464    6.9450    4.7097 N   0  0  0  0  0  0
   37.2013    6.6499    5.9725 C   0  0  0  0  0  0
   35.8532    6.3871    5.9232 C   0  0  0  0  0  0
   29.6954    6.3450   -4.3342 H   0  0  0  0  0  0
   30.5241    1.7383   -5.8176 H   0  0  0  0  0  0
   32.2101    3.5138   -6.3596 H   0  0  0  0  0  0
   31.7687    5.8457   -5.6036 H   0  0  0  0  0  0
   27.1450    5.3074   -4.1453 H   0  0  0  0  0  0
   27.0628    3.6268   -3.6795 H   0  0  0  0  0  0
   26.2175    3.9695   -1.6536 H   0  0  0  0  0  0
   24.9415    4.0892    0.3352 H   0  0  0  0  0  0
   24.8759    4.4733    2.7691 H   0  0  0  0  0  0
   29.0117    5.5168    2.6831 H   0  0  0  0  0  0
   29.1052    5.1837    0.3269 H   0  0  0  0  0  0
   25.8751    5.4494    4.7374 H   0  0  0  0  0  0
   27.3294    4.5226    4.9610 H   0  0  0  0  0  0
   27.3644    7.4502    4.1415 H   0  0  0  0  0  0
   27.2211    7.0493    5.8229 H   0  0  0  0  0  0
   29.3729    5.7459    4.3850 H   0  0  0  0  0  0
   29.4078    8.2404    3.7127 H   0  0  0  0  0  0
   29.9742    8.4073    5.3540 H   0  0  0  0  0  0
   31.7583    8.1057    3.4981 H   0  0  0  0  0  0
   32.7531    7.6020    5.5897 H   0  0  0  0  0  0
   31.7090    6.2494    5.8793 H   0  0  0  0  0  0
   31.6890    5.5137    3.3313 H   0  0  0  0  0  0
   33.3279    6.3932    1.9116 H   0  0  0  0  0  0
   35.3028    7.1153    0.7197 H   0  0  0  0  0  0
   37.4709    7.4394    1.8790 H   0  0  0  0  0  0
   38.6118    7.1676    4.5120 H   0  0  0  0  0  0
   37.8977    6.6397    6.7968 H   0  0  0  0  0  0
   35.2294    6.0989    6.7572 H   0  0  0  0  0  0
  1  6  1  0  0  0
  1  2  2  0  0  0
  1 34  1  0  0  0
  2  3  1  0  0  0
  2  7  1  0  0  0
  3  4  2  0  0  0
  4  5  1  0  0  0
  4 35  1  0  0  0
  5  6  2  0  0  0
  5 36  1  0  0  0
  6 37  1  0  0  0
  7  8  1  0  0  0
  7 38  1  0  0  0
  7 39  1  0  0  0
  8  9  1  0  0  0
  8 10  2  0  0  0
  9 11  1  0  0  0
  9 40  1  0  0  0
 11 16  1  0  0  0
 11 12  2  0  0  0
 12 13  1  0  0  0
 12 41  1  0  0  0
 13 14  2  0  0  0
 13 42  1  0  0  0
 14 17  1  0  0  0
 14 15  1  0  0  0
 15 16  2  0  0  0
 15 43  1  0  0  0
 16 44  1  0  0  0
 17 18  1  0  0  0
 17 45  1  0  0  0
 17 46  1  0  0  0
 18 19  1  0  0  0
 18 47  1  0  0  0
 18 48  1  0  0  0
 19 20  1  0  0  0
 19 49  1  0  0  0
 20 21  1  0  0  0
 20 50  1  0  0  0
 20 51  1  0  0  0
 21 22  1  0  0  0
 21 23  1  0  0  0
 21 52  1  0  0  0
 22 24  1  0  0  0
 22 53  1  0  0  0
 22 54  1  0  0  0
 23 55  1  0  0  0
 24 25  1  0  0  0
 25 26  2  0  0  0
 25 29  1  0  0  0
 26 27  1  0  0  0
 26 56  1  0  0  0
 27 28  2  0  0  0
 27 57  1  0  0  0
 28 30  1  0  0  0
 28 58  1  0  0  0
 29 30  2  0  0  0
 29 33  1  0  0  0
 30 31  1  0  0  0
 31 32  1  0  0  0
 31 59  1  0  0  0
 32 33  2  0  0  0
 32 60  1  0  0  0
 33 61  1  0  0  0
M  END
> <s_m_entry_id>
3253

> <s_m_entry_name>
dock_pv.345

> <s_m_Source_Path>
/home/csk/Desktop/cluster/DUD-E-result/adrb1

> <s_m_Source_File>
dock_pv.maegz

> <i_m_Source_File_Index>
345

> <chembl_id>
CHEMBL466704

> <chembl_pref_name>
None

> <i_lp_mmshare_version>
53161

> <i_f3d_flags>
0

> <r_lp_tautomer_probability>
1

> <s_lp_Force_Field>
OPLS_2005

> <r_lp_Energy>
34.611351

> <b_lp_Chiralities_Consistent>
1

> <s_lp_Variant>
CHEMBL213_lig917-1

> <s_i_glide_gridfile>
glide-grid_2vt4

> <i_i_glide_lignum>
1025

> <i_i_glide_rotatable_bonds>
13

> <r_i_docking_score>
-7.13906985987523

> <r_i_glide_ligand_efficiency>
-0.216335450299249

> <r_i_glide_ligand_efficiency_sa>
-0.693903382821202

> <r_i_glide_ligand_efficiency_ln>
-1.58769217271079

> <r_i_glide_gscore>
-7.13906985987523

> <r_i_glide_lipo>
-3.01360912493683

> <r_i_glide_hbond>
-0.331650970209603

> <r_i_glide_metal>
0

> <r_i_glide_rewards>
-0.871213067025275

> <r_i_glide_evdw>
-47.0934295654297

> <r_i_glide_ecoul>
-9.74924087524414

> <r_i_glide_erotb>
1.0121646076673

> <r_i_glide_esite>
-0.117703695812712

> <r_i_glide_emodel>
-71.6613038748695

> <r_i_glide_energy>
-56.8426704406738

> <r_i_glide_einternal>
18.1928844451904

> <i_i_glide_confnum>
11

> <i_i_glide_posenum>
344

> <r_i_glide_eff_state_penalty>
0

> <s_user_duplicate_titles>
CHEMBL213_lig917

> <s_m_subgroup_title>
dock_pv

> <s_m_subgroupid>
dock_pv

> <b_m_subgroup_collapsed>
1

$$$$
CHEMBL213_lig1185
                    3D
 Schrodinger Suite 2021-1.
 68 70  0  0  1  0            999 V2000
   33.3027    4.3816   -6.0637 O   0  0  0  0  0  0
   32.0657    3.9916   -5.3839 S   0  0  0  0  0  0
   31.2140    2.9354   -5.9402 O   0  0  0  0  0  0
   34.6302    5.9565   -1.1646 C   0  0  0  0  0  0
   33.2541    5.7745   -1.0089 C   0  0  0  0  0  0
   32.5498    4.9542   -1.8842 C   0  0  0  0  0  0
   33.2155    4.3223   -2.9316 C   0  0  0  0  0  0
   34.5830    4.5255   -3.1175 C   0  0  0  0  0  0
   35.2904    5.3406   -2.2332 C   0  0  0  0  0  0
   32.5033    3.4569   -3.7625 N   0  0  0  0  0  0
   31.0762    5.4497   -5.2908 N   0  0  0  0  0  0
   35.4111    6.8253   -0.1742 C   0  0  0  0  0  0
   35.5166    6.2518    1.2606 C   0  0  0  0  0  0
   34.2393    6.2502    1.9730 N   0  0  1  0  0  0
   34.2717    7.0256    3.2113 C   0  0  0  0  0  0
   33.1111    6.6826    4.1863 C   0  0  1  0  0  0
   31.6960    6.6238    3.5593 C   0  0  0  0  0  0
   30.7052    6.7150    4.5917 O   0  0  0  0  0  0
   33.4082    5.4528    4.8336 O   0  0  0  0  0  0
   29.3676    6.5526    4.2795 C   0  0  0  0  0  0
   28.4457    7.1130    5.1643 C   0  0  0  0  0  0
   27.0760    7.0345    4.9124 C   0  0  0  0  0  0
   26.6079    6.3583    3.7923 C   0  0  0  0  0  0
   27.5094    5.7723    2.8969 C   0  0  0  0  0  0
   28.8846    5.8501    3.1615 C   0  0  0  0  0  0
   26.9963    5.0795    1.6382 C   0  0  0  0  0  0
   25.8140    4.2502    1.8933 N   0  0  0  0  0  0
   25.2040    3.4064    1.0496 C   0  0  0  0  0  0
   25.7536    3.2120   -0.3602 C   0  0  0  0  0  0
   24.2096    2.7874    1.4123 O   0  0  0  0  0  0
   29.9169    5.5709   -4.5113 C   0  0  0  0  0  0
   29.4076    6.8547   -4.3172 C   0  0  0  0  0  0
   28.2228    7.0453   -3.6100 C   0  0  0  0  0  0
   27.5648    5.9484   -3.0641 C   0  0  0  0  0  0
   28.0747    4.6646   -3.2337 C   0  0  0  0  0  0
   29.2461    4.4712   -3.9611 C   0  0  0  0  0  0
   32.7187    6.2503   -0.2022 H   0  0  0  0  0  0
   31.4901    4.8059   -1.7425 H   0  0  0  0  0  0
   35.1032    4.0364   -3.9290 H   0  0  0  0  0  0
   36.3520    5.4781   -2.3802 H   0  0  0  0  0  0
   31.6842    3.0834   -3.3086 H   0  0  0  0  0  0
   31.4979    6.3099   -5.6134 H   0  0  0  0  0  0
   35.0085    7.8386   -0.1631 H   0  0  0  0  0  0
   36.4247    6.9586   -0.5536 H   0  0  0  0  0  0
   36.3304    6.7281    1.8056 H   0  0  0  0  0  0
   35.8003    5.2002    1.1855 H   0  0  0  0  0  0
   33.5780    6.7160    1.3625 H   0  0  0  0  0  0
   34.2124    8.0832    2.9464 H   0  0  0  0  0  0
   35.2218    6.8965    3.7344 H   0  0  0  0  0  0
   33.1073    7.4465    4.9644 H   0  0  0  0  0  0
   31.6094    5.7115    2.9694 H   0  0  0  0  0  0
   31.5603    7.4632    2.8726 H   0  0  0  0  0  0
   32.6262    4.8850    4.7853 H   0  0  0  0  0  0
   28.7938    7.6434    6.0377 H   0  0  0  0  0  0
   26.3662    7.4917    5.5853 H   0  0  0  0  0  0
   25.5413    6.3181    3.6108 H   0  0  0  0  0  0
   29.5703    5.3834    2.4715 H   0  0  0  0  0  0
   27.8041    4.5078    1.1722 H   0  0  0  0  0  0
   26.7153    5.8633    0.9303 H   0  0  0  0  0  0
   25.3950    4.3422    2.8063 H   0  0  0  0  0  0
   25.9211    4.1707   -0.8518 H   0  0  0  0  0  0
   25.0375    2.6570   -0.9660 H   0  0  0  0  0  0
   26.6902    2.6553   -0.3365 H   0  0  0  0  0  0
   29.8981    7.7148   -4.7493 H   0  0  0  0  0  0
   27.8114    8.0386   -3.4945 H   0  0  0  0  0  0
   26.6388    6.0835   -2.5259 H   0  0  0  0  0  0
   27.5442    3.8190   -2.8224 H   0  0  0  0  0  0
   29.6014    3.4619   -4.0963 H   0  0  0  0  0  0
  1  2  2  0  0  0
  2  3  2  0  0  0
  2 10  1  0  0  0
  2 11  1  0  0  0
  4  5  2  0  0  0
  4  9  1  0  0  0
  4 12  1  0  0  0
  5  6  1  0  0  0
  5 37  1  0  0  0
  6  7  2  0  0  0
  6 38  1  0  0  0
  7  8  1  0  0  0
  7 10  1  0  0  0
  8  9  2  0  0  0
  8 39  1  0  0  0
  9 40  1  0  0  0
 10 41  1  0  0  0
 11 31  1  0  0  0
 11 42  1  0  0  0
 12 13  1  0  0  0
 12 43  1  0  0  0
 12 44  1  0  0  0
 13 14  1  0  0  0
 13 45  1  0  0  0
 13 46  1  0  0  0
 14 15  1  0  0  0
 14 47  1  0  0  0
 15 16  1  0  0  0
 15 48  1  0  0  0
 15 49  1  0  0  0
 16 17  1  0  0  0
 16 19  1  0  0  0
 16 50  1  0  0  0
 17 18  1  0  0  0
 17 51  1  0  0  0
 17 52  1  0  0  0
 18 20  1  0  0  0
 19 53  1  0  0  0
 20 21  2  0  0  0
 20 25  1  0  0  0
 21 22  1  0  0  0
 21 54  1  0  0  0
 22 23  2  0  0  0
 22 55  1  0  0  0
 23 24  1  0  0  0
 23 56  1  0  0  0
 24 25  2  0  0  0
 24 26  1  0  0  0
 25 57  1  0  0  0
 26 27  1  0  0  0
 26 58  1  0  0  0
 26 59  1  0  0  0
 27 28  1  0  0  0
 27 60  1  0  0  0
 28 29  1  0  0  0
 28 30  2  0  0  0
 29 61  1  0  0  0
 29 62  1  0  0  0
 29 63  1  0  0  0
 31 32  2  0  0  0
 31 36  1  0  0  0
 32 33  1  0  0  0
 32 64  1  0  0  0
 33 34  2  0  0  0
 33 65  1  0  0  0
 34 35  1  0  0  0
 34 66  1  0  0  0
 35 36  2  0  0  0
 35 67  1  0  0  0
 36 68  1  0  0  0
M  END
> <s_m_entry_id>
3254

> <s_m_entry_name>
dock_pv.346

> <s_m_Source_Path>
/home/csk/Desktop/cluster/DUD-E-result/adrb1

> <s_m_Source_File>
dock_pv.maegz

> <i_m_Source_File_Index>
346

> <chembl_id>
CHEMBL4241176

> <chembl_pref_name>
None

> <i_lp_mmshare_version>
53161

> <i_f3d_flags>
0

> <r_lp_tautomer_probability>
1

> <s_lp_Force_Field>
OPLS_2005

> <r_lp_Energy>
20.272763

> <b_lp_Chiralities_Consistent>
1

> <s_lp_Variant>
CHEMBL213_lig1185-1

> <s_i_glide_gridfile>
glide-grid_2vt4

> <i_i_glide_lignum>
1387

> <i_i_glide_rotatable_bonds>
16

> <r_i_docking_score>
-7.13578775934274

> <r_i_glide_ligand_efficiency>
-0.198216326648409

> <r_i_glide_ligand_efficiency_sa>
-0.654495889354381

> <r_i_glide_ligand_efficiency_ln>
-1.55683610238258

> <r_i_glide_gscore>
-7.13578775934274

> <r_i_glide_lipo>
-3.17775820014375

> <r_i_glide_hbond>
-0.552022640866387

> <r_i_glide_metal>
0

> <r_i_glide_rewards>
0.470472009372083

> <r_i_glide_evdw>
-57.8997611999512

> <r_i_glide_ecoul>
-13.3045415878296

> <r_i_glide_erotb>
1.01419037046732

> <r_i_glide_esite>
0

> <r_i_glide_emodel>
-84.5741640708865

> <r_i_glide_energy>
-71.2043027877808

> <r_i_glide_einternal>
22.84592628479

> <i_i_glide_confnum>
47

> <i_i_glide_posenum>
320

> <r_i_glide_eff_state_penalty>
0

> <s_user_duplicate_titles>
CHEMBL213_lig1185

> <s_m_subgroup_title>
dock_pv

> <s_m_subgroupid>
dock_pv

> <b_m_subgroup_collapsed>
1

$$$$
CHEMBL213_lig1237
                    3D
 Schrodinger Suite 2021-1.
 57 59  0  0  1  0            999 V2000
   25.2870    6.0959    5.6570 S   0  0  0  0  0  0
   25.4664    3.8098    0.6787 S   0  0  0  0  0  0
   26.2263    5.6900    4.1966 C   0  0  0  0  0  0
   25.6079    4.9529    3.1848 C   0  0  0  0  0  0
   31.8191    2.6484   -7.6131 S   0  0  0  0  0  0
   32.9117    3.3195   -6.3895 C   0  0  0  0  0  0
   34.6952    3.4833   -8.0588 N   0  0  0  0  0  0
   26.3041    4.6508    2.0137 C   0  0  0  0  0  0
   34.2143    3.6828   -6.7638 C   0  0  0  0  0  0
   34.2668    2.6444   -9.0202 C   0  0  0  0  0  0
   27.5663    6.0932    4.0530 C   0  0  0  0  0  0
   23.9748    5.4500    5.5846 O   0  0  0  0  0  0
   26.1838    5.8503    6.7849 O   0  0  0  0  0  0
   24.0695    4.2500    0.7242 O   0  0  0  0  0  0
   25.8072    2.3901    0.7793 O   0  0  0  0  0  0
   26.2101    4.4099   -0.7891 N   0  0  1  0  0  0
   32.4608    3.5622   -5.0830 C   0  0  0  0  0  0
   25.0062    7.7945    5.5474 N   0  0  0  0  0  0
   33.0583    1.7677   -8.6277 C   0  0  0  0  0  0
   31.1477    3.2505   -4.7706 O   0  0  0  0  0  0
   27.6348    5.0499    1.8766 C   0  0  0  0  0  0
   34.8711    2.5295  -10.0829 O   0  0  0  0  0  0
   28.2689    5.7411    2.9039 C   0  0  0  0  0  0
   30.4505    4.0240   -3.7870 C   0  0  0  0  0  0
   28.4020    7.0491    5.2312 Cl  0  0  0  0  0  0
   30.0750    5.4593   -4.2495 C   0  0  2  0  0  0
   26.1471    5.8404   -1.1649 C   0  0  0  0  0  0
   27.9863    5.7186   -2.8383 N   0  0  2  0  0  0
   35.0771    4.2498   -5.8266 C   0  0  0  0  0  0
   31.2383    6.2497   -4.4308 O   0  0  0  0  0  0
   34.6551    4.4427   -4.5147 C   0  0  0  0  0  0
   33.3606    4.0899   -4.1408 C   0  0  0  0  0  0
   29.2970    6.2465   -3.1844 C   0  0  0  0  0  0
   27.5085    6.3777   -1.6233 C   0  0  0  0  0  0
   24.5765    4.6424    3.2850 H   0  0  0  0  0  0
   35.5423    3.9674   -8.3175 H   0  0  0  0  0  0
   26.9783    3.8581   -1.1758 H   0  0  0  0  0  0
   25.8202    8.3612    5.8222 H   0  0  0  0  0  0
   24.5010    8.1050    4.7157 H   0  0  0  0  0  0
   32.5599    1.4499   -9.5423 H   0  0  0  0  0  0
   33.4002    0.8911   -8.0779 H   0  0  0  0  0  0
   28.1908    4.8070    0.9842 H   0  0  0  0  0  0
   29.3026    6.0329    2.7900 H   0  0  0  0  0  0
   29.5316    3.4748   -3.5789 H   0  0  0  0  0  0
   30.9738    4.0357   -2.8308 H   0  0  0  0  0  0
   29.5266    5.4259   -5.1940 H   0  0  0  0  0  0
   25.8088    6.4098   -0.3002 H   0  0  0  0  0  0
   25.4038    5.9931   -1.9412 H   0  0  0  0  0  0
   27.9490    4.7091   -2.7876 H   0  0  0  0  0  0
   36.0795    4.5451   -6.1046 H   0  0  0  0  0  0
   31.0663    6.9239   -5.1030 H   0  0  0  0  0  0
   35.3308    4.8760   -3.7915 H   0  0  0  0  0  0
   33.0644    4.2614   -3.1197 H   0  0  0  0  0  0
   29.9154    6.2502   -2.2823 H   0  0  0  0  0  0
   29.1486    7.2676   -3.5446 H   0  0  0  0  0  0
   28.2311    6.2407   -0.8185 H   0  0  0  0  0  0
   27.4252    7.4493   -1.8019 H   0  0  0  0  0  0
  1  3  1  0  0  0
  1 12  2  0  0  0
  1 13  2  0  0  0
  1 18  1  0  0  0
  2  8  1  0  0  0
  2 14  2  0  0  0
  2 15  2  0  0  0
  2 16  1  0  0  0
  3  4  2  0  0  0
  3 11  1  0  0  0
  4  8  1  0  0  0
  4 35  1  0  0  0
  5  6  1  0  0  0
  5 19  1  0  0  0
  6 17  2  0  0  0
  6  9  1  0  0  0
  7  9  1  0  0  0
  7 10  1  0  0  0
  7 36  1  0  0  0
  8 21  2  0  0  0
  9 29  2  0  0  0
 10 22  2  0  0  0
 10 19  1  0  0  0
 11 23  2  0  0  0
 11 25  1  0  0  0
 16 27  1  0  0  0
 16 37  1  0  0  0
 17 20  1  0  0  0
 17 32  1  0  0  0
 18 38  1  0  0  0
 18 39  1  0  0  0
 19 40  1  0  0  0
 19 41  1  0  0  0
 20 24  1  0  0  0
 21 23  1  0  0  0
 21 42  1  0  0  0
 23 43  1  0  0  0
 24 26  1  0  0  0
 24 44  1  0  0  0
 24 45  1  0  0  0
 26 33  1  0  0  0
 26 30  1  0  0  0
 26 46  1  0  0  0
 27 34  1  0  0  0
 27 47  1  0  0  0
 27 48  1  0  0  0
 28 34  1  0  0  0
 28 33  1  0  0  0
 28 49  1  0  0  0
 29 31  1  0  0  0
 29 50  1  0  0  0
 30 51  1  0  0  0
 31 32  2  0  0  0
 31 52  1  0  0  0
 32 53  1  0  0  0
 33 54  1  0  0  0
 33 55  1  0  0  0
 34 56  1  0  0  0
 34 57  1  0  0  0
M  END
> <s_m_entry_id>
3255

> <s_m_entry_name>
dock_pv.347

> <s_m_Source_Path>
/home/csk/Desktop/cluster/DUD-E-result/adrb1

> <s_m_Source_File>
dock_pv.maegz

> <i_m_Source_File_Index>
347

> <chembl_id>
CHEMBL289390

> <chembl_pref_name>
None

> <i_lp_mmshare_version>
53161

> <i_f3d_flags>
0

> <r_lp_tautomer_probability>
1

> <s_lp_Force_Field>
OPLS_2005

> <r_lp_Energy>
35.726814

> <b_lp_Chiralities_Consistent>
1

> <s_lp_Variant>
CHEMBL213_lig1237-2

> <s_i_glide_gridfile>
glide-grid_2vt4

> <i_i_glide_lignum>
1479

> <i_i_glide_rotatable_bonds>
12

> <r_i_docking_score>
-7.13047969113544

> <r_i_glide_ligand_efficiency>
-0.209719990915748

> <r_i_glide_ligand_efficiency_sa>
-0.679411356735848

> <r_i_glide_ligand_efficiency_ln>
-1.5753229669526

> <r_i_glide_gscore>
-7.13047969113544

> <r_i_glide_lipo>
-2.84301384618443

> <r_i_glide_hbond>
-0.237281622185553

> <r_i_glide_metal>
0

> <r_i_glide_rewards>
-0.311613321252315

> <r_i_glide_evdw>
-44.8172607421875

> <r_i_glide_ecoul>
-12.6868562698364

> <r_i_glide_erotb>
0.544861028410026

> <r_i_glide_esite>
-0.139540452338338

> <r_i_glide_emodel>
-70.4715971686451

> <r_i_glide_energy>
-57.5041170120239

> <r_i_glide_einternal>
12.9530601501465

> <i_i_glide_confnum>
18

> <i_i_glide_posenum>
367

> <r_i_glide_eff_state_penalty>
0

> <s_user_duplicate_titles>
CHEMBL213_lig1237,61936

> <s_m_subgroup_title>
dock_pv

> <s_m_subgroupid>
dock_pv

> <b_m_subgroup_collapsed>
1

$$$$
CHEMBL213_lig236
                    3D
 Schrodinger Suite 2021-1.
 70 72  0  0  1  0            999 V2000
   36.6124    3.8971   -3.0918 S   0  0  0  0  0  0
   35.6101    4.6491   -4.3292 N   0  0  0  0  0  0
   36.2493    4.7709   -1.5764 C   0  0  0  0  0  0
   37.9813    4.2501   -3.4743 O   0  0  0  0  0  0
   36.1708    2.5048   -2.9440 O   0  0  0  0  0  0
   35.2637    6.7663    3.0763 C   0  0  0  0  0  0
   35.0168    6.9684    1.7662 N   0  0  0  0  0  0
   35.9550    5.8502    3.5119 O   0  0  0  0  0  0
   36.2082    6.1572   -1.6131 C   0  0  0  0  0  0
   35.9646    4.0821   -0.3965 C   0  0  0  0  0  0
   34.2266    4.4969   -4.4343 C   0  0  0  0  0  0
   35.4844    6.1930    0.6891 C   0  0  0  0  0  0
   27.6117    5.0515    1.2452 O   0  0  0  0  0  0
   27.1338    5.2634    2.5237 C   0  0  0  0  0  0
   27.2881    4.7975   -1.1784 C   0  0  1  0  0  0
   26.3341    5.9163    5.1196 C   0  0  0  0  0  0
   26.8193    4.4034    0.2453 C   0  0  0  0  0  0
   35.5910    4.7953    0.7413 C   0  0  0  0  0  0
   35.8003    6.8693   -0.4908 C   0  0  0  0  0  0
   29.2609    5.4362   -2.6288 N   0  0  1  0  0  0
   31.4479    4.4687   -4.6852 C   0  0  0  0  0  0
   33.6347    4.8286   -5.6484 C   0  0  0  0  0  0
   33.4339    4.0942   -3.3559 C   0  0  0  0  0  0
   25.8374    4.9572    2.9631 C   0  0  0  0  0  0
   28.0320    5.8504    3.4173 C   0  0  0  0  0  0
   25.4388    5.2963    4.2535 C   0  0  0  0  0  0
   27.6343    6.1912    4.7076 C   0  0  0  0  0  0
   32.2537    4.7960   -5.7760 C   0  0  0  0  0  0
   32.0498    4.0877   -3.4798 C   0  0  0  0  0  0
   26.5947    5.9549   -1.6146 O   0  0  0  0  0  0
   25.9266    6.2486    6.3842 O   0  0  0  0  0  0
   34.6563    7.7929    4.0425 C   0  0  0  0  0  0
   28.8145    5.0478   -1.2887 C   0  0  0  0  0  0
   29.0674    4.3619   -3.5992 C   0  0  0  0  0  0
   29.9319    4.5751   -4.8558 C   0  0  0  0  0  0
   34.8219    7.4734    5.5518 C   0  0  0  0  0  0
   36.2463    7.6120    6.1126 C   0  0  0  0  0  0
   36.0847    5.2613   -4.9794 H   0  0  0  0  0  0
   34.4759    7.7844    1.5046 H   0  0  0  0  0  0
   36.4655    6.6511   -2.5347 H   0  0  0  0  0  0
   36.0139    3.0024   -0.3662 H   0  0  0  0  0  0
   27.0090    3.9789   -1.8451 H   0  0  0  0  0  0
   25.7530    4.6146    0.3295 H   0  0  0  0  0  0
   26.9459    3.3291    0.3820 H   0  0  0  0  0  0
   35.3414    4.2503    1.6391 H   0  0  0  0  0  0
   35.7248    7.9429   -0.5476 H   0  0  0  0  0  0
   28.6777    6.2160   -2.9064 H   0  0  0  0  0  0
   34.2438    5.1375   -6.4881 H   0  0  0  0  0  0
   33.8694    3.8286   -2.4057 H   0  0  0  0  0  0
   25.1164    4.4773    2.3214 H   0  0  0  0  0  0
   29.0385    6.0735    3.0928 H   0  0  0  0  0  0
   24.4363    5.0694    4.5859 H   0  0  0  0  0  0
   28.3309    6.6697    5.3785 H   0  0  0  0  0  0
   31.8104    5.0539   -6.7211 H   0  0  0  0  0  0
   31.4603    3.8200   -2.6166 H   0  0  0  0  0  0
   25.8394    5.6535   -2.1404 H   0  0  0  0  0  0
   26.3946    7.0074    6.7542 H   0  0  0  0  0  0
   33.5922    7.8493    3.8123 H   0  0  0  0  0  0
   35.0745    8.7762    3.8282 H   0  0  0  0  0  0
   29.3703    4.1684   -0.9580 H   0  0  0  0  0  0
   29.0968    5.8491   -0.6048 H   0  0  0  0  0  0
   28.0186    4.2408   -3.8745 H   0  0  0  0  0  0
   29.3771    3.4351   -3.1274 H   0  0  0  0  0  0
   29.7072    5.5603   -5.2689 H   0  0  0  0  0  0
   29.6344    3.8475   -5.6124 H   0  0  0  0  0  0
   34.4255    6.4824    5.7763 H   0  0  0  0  0  0
   34.2083    8.1743    6.1073 H   0  0  0  0  0  0
   36.2612    7.4022    7.1831 H   0  0  0  0  0  0
   36.6078    8.6297    5.9727 H   0  0  0  0  0  0
   36.9518    6.9325    5.6335 H   0  0  0  0  0  0
  1  2  1  0  0  0
  1  3  1  0  0  0
  1  4  2  0  0  0
  1  5  2  0  0  0
  2 11  1  0  0  0
  2 38  1  0  0  0
  3  9  1  0  0  0
  3 10  2  0  0  0
  6  7  1  0  0  0
  6  8  2  0  0  0
  6 32  1  0  0  0
  7 12  1  0  0  0
  7 39  1  0  0  0
  9 19  2  0  0  0
  9 40  1  0  0  0
 10 18  1  0  0  0
 10 41  1  0  0  0
 11 22  1  0  0  0
 11 23  2  0  0  0
 12 18  2  0  0  0
 12 19  1  0  0  0
 13 17  1  0  0  0
 13 14  1  0  0  0
 14 24  2  0  0  0
 14 25  1  0  0  0
 15 33  1  0  0  0
 15 17  1  0  0  0
 15 30  1  0  0  0
 15 42  1  0  0  0
 16 27  1  0  0  0
 16 31  1  0  0  0
 16 26  2  0  0  0
 17 43  1  0  0  0
 17 44  1  0  0  0
 18 45  1  0  0  0
 19 46  1  0  0  0
 20 34  1  0  0  0
 20 33  1  0  0  0
 20 47  1  0  0  0
 21 29  2  0  0  0
 21 35  1  0  0  0
 21 28  1  0  0  0
 22 28  2  0  0  0
 22 48  1  0  0  0
 23 29  1  0  0  0
 23 49  1  0  0  0
 24 26  1  0  0  0
 24 50  1  0  0  0
 25 27  2  0  0  0
 25 51  1  0  0  0
 26 52  1  0  0  0
 27 53  1  0  0  0
 28 54  1  0  0  0
 29 55  1  0  0  0
 30 56  1  0  0  0
 31 57  1  0  0  0
 32 36  1  0  0  0
 32 58  1  0  0  0
 32 59  1  0  0  0
 33 60  1  0  0  0
 33 61  1  0  0  0
 34 35  1  0  0  0
 34 62  1  0  0  0
 34 63  1  0  0  0
 35 64  1  0  0  0
 35 65  1  0  0  0
 36 37  1  0  0  0
 36 66  1  0  0  0
 36 67  1  0  0  0
 37 68  1  0  0  0
 37 69  1  0  0  0
 37 70  1  0  0  0
M  END
> <s_m_entry_id>
3256

> <s_m_entry_name>
dock_pv.348

> <s_m_Source_Path>
/home/csk/Desktop/cluster/DUD-E-result/adrb1

> <s_m_Source_File>
dock_pv.maegz

> <i_m_Source_File_Index>
348

> <chembl_id>
CHEMBL13453

> <chembl_pref_name>
None

> <i_lp_mmshare_version>
53161

> <i_f3d_flags>
0

> <r_lp_tautomer_probability>
1

> <s_lp_Force_Field>
OPLS_2005

> <r_lp_Energy>
33.096151

> <b_lp_Chiralities_Consistent>
1

> <s_lp_Variant>
CHEMBL213_lig236-1

> <s_i_glide_gridfile>
glide-grid_2vt4

> <i_i_glide_lignum>
271

> <i_i_glide_rotatable_bonds>
17

> <r_i_docking_score>
-7.12390314523424

> <r_i_glide_ligand_efficiency>
-0.192537922844169

> <r_i_glide_ligand_efficiency_sa>
-0.641579072999631

> <r_i_glide_ligand_efficiency_ln>
-1.54500758421633

> <r_i_glide_gscore>
-7.12390314523424

> <r_i_glide_lipo>
-3.00807972029544

> <r_i_glide_hbond>
-0.979516190703862

> <r_i_glide_metal>
0

> <r_i_glide_rewards>
0.688509594170729

> <r_i_glide_evdw>
-54.1006736755371

> <r_i_glide_ecoul>
-14.0712509155273

> <r_i_glide_erotb>
1.03575195961446

> <r_i_glide_esite>
-0.0448474669141728

> <r_i_glide_emodel>
-86.2067929302112

> <r_i_glide_energy>
-68.1719245910645

> <r_i_glide_einternal>
18.8028583526611

> <i_i_glide_confnum>
8

> <i_i_glide_posenum>
169

> <r_i_glide_eff_state_penalty>
0

> <s_user_duplicate_titles>
CHEMBL213_lig236,11787

> <s_m_subgroup_title>
dock_pv

> <s_m_subgroupid>
dock_pv

> <b_m_subgroup_collapsed>
1

$$$$
CHEMBL213_lig1195
                    3D
 Schrodinger Suite 2021-1.
 45 47  0  0  1  0            999 V2000
   31.8065    4.4575   -2.0278 C   0  0  0  0  0  0
   31.9453    3.6930   -3.1864 C   0  0  0  0  0  0
   29.3948    4.6060   -2.3650 C   0  0  0  0  0  0
   30.5471    4.8947   -1.6182 C   0  0  0  0  0  0
   29.5421    3.8620   -3.5559 C   0  0  0  0  0  0
   30.8110    3.3964   -3.9539 C   0  0  0  0  0  0
   30.9190    2.5883   -5.1088 N   0  0  0  0  0  0
   29.9090    2.1261   -5.8775 C   0  0  0  0  0  0
   28.6089    2.6488   -5.4946 C   0  0  0  0  0  0
   28.4105    3.4520   -4.4244 C   0  0  0  0  0  0
   30.0980    1.3319   -6.7950 O   0  0  0  0  0  0
   33.1898    3.2314   -3.5426 O   0  0  0  0  0  0
   28.0041    5.0917   -1.9060 C   0  0  1  0  0  0
   27.9096    5.2469   -0.4471 N   0  0  2  0  0  0
   27.5896    6.3712   -2.6849 C   0  0  0  0  0  0
   26.2080    6.6500   -2.5657 O   0  0  0  0  0  0
   26.5285    5.2419    0.0433 C   0  0  0  0  0  0
   26.3994    4.5170    1.3962 C   0  0  0  0  0  0
   26.9955    5.2385    2.6050 C   0  0  0  0  0  0
   26.1552    5.8520    3.5414 C   0  0  0  0  0  0
   26.6921    6.4707    4.6700 C   0  0  0  0  0  0
   28.0724    6.4651    4.8644 C   0  0  0  0  0  0
   28.9159    5.8598    3.9349 C   0  0  0  0  0  0
   28.3776    5.2429    2.8081 C   0  0  0  0  0  0
   28.6004    7.0492    5.9842 O   0  0  0  0  0  0
   32.6707    4.6933   -1.4252 H   0  0  0  0  0  0
   30.4717    5.4497   -0.6949 H   0  0  0  0  0  0
   31.8318    2.2437   -5.3632 H   0  0  0  0  0  0
   27.7621    2.3569   -6.0996 H   0  0  0  0  0  0
   27.4005    3.7790   -4.2162 H   0  0  0  0  0  0
   33.9068    3.6196   -3.0344 H   0  0  0  0  0  0
   27.3241    4.2778   -2.1596 H   0  0  0  0  0  0
   28.2575    6.1721   -0.2450 H   0  0  0  0  0  0
   28.1766    7.2353   -2.3739 H   0  0  0  0  0  0
   27.7808    6.2385   -3.7520 H   0  0  0  0  0  0
   25.7247    5.8366   -2.7968 H   0  0  0  0  0  0
   26.2191    6.2843    0.1495 H   0  0  0  0  0  0
   25.8224    4.7979   -0.6634 H   0  0  0  0  0  0
   25.3426    4.3211    1.5849 H   0  0  0  0  0  0
   26.8389    3.5260    1.3112 H   0  0  0  0  0  0
   25.0842    5.8453    3.3998 H   0  0  0  0  0  0
   26.0375    6.9369    5.3914 H   0  0  0  0  0  0
   29.9851    5.8525    4.0892 H   0  0  0  0  0  0
   29.0364    4.7594    2.1004 H   0  0  0  0  0  0
   27.9347    7.5542    6.4657 H   0  0  0  0  0  0
  1  2  2  0  0  0
  1  4  1  0  0  0
  1 26  1  0  0  0
  2  6  1  0  0  0
  2 12  1  0  0  0
  3  5  1  0  0  0
  3  4  2  0  0  0
  3 13  1  0  0  0
  4 27  1  0  0  0
  5  6  2  0  0  0
  5 10  1  0  0  0
  6  7  1  0  0  0
  7  8  1  0  0  0
  7 28  1  0  0  0
  8  9  1  0  0  0
  8 11  2  0  0  0
  9 10  2  0  0  0
  9 29  1  0  0  0
 10 30  1  0  0  0
 12 31  1  0  0  0
 13 14  1  0  0  0
 13 15  1  0  0  0
 13 32  1  0  0  0
 14 17  1  0  0  0
 14 33  1  0  0  0
 15 16  1  0  0  0
 15 34  1  0  0  0
 15 35  1  0  0  0
 16 36  1  0  0  0
 17 18  1  0  0  0
 17 37  1  0  0  0
 17 38  1  0  0  0
 18 19  1  0  0  0
 18 39  1  0  0  0
 18 40  1  0  0  0
 19 20  2  0  0  0
 19 24  1  0  0  0
 20 21  1  0  0  0
 20 41  1  0  0  0
 21 22  2  0  0  0
 21 42  1  0  0  0
 22 23  1  0  0  0
 22 25  1  0  0  0
 23 24  2  0  0  0
 23 43  1  0  0  0
 24 44  1  0  0  0
 25 45  1  0  0  0
M  END
> <s_m_entry_id>
3257

> <s_m_entry_name>
dock_pv.349

> <s_m_Source_Path>
/home/csk/Desktop/cluster/DUD-E-result/adrb1

> <s_m_Source_File>
dock_pv.maegz

> <i_m_Source_File_Index>
349

> <chembl_id>
CHEMBL4283676

> <chembl_pref_name>
None

> <i_lp_mmshare_version>
53161

> <i_f3d_flags>
0

> <r_lp_tautomer_probability>
0.999999999997365

> <s_lp_Force_Field>
OPLS_2005

> <r_lp_Energy>
25.88861

> <b_lp_Chiralities_Consistent>
1

> <s_lp_Variant>
CHEMBL213_lig1195-2

> <s_i_glide_gridfile>
glide-grid_2vt4

> <i_i_glide_lignum>
1403

> <i_i_glide_rotatable_bonds>
9

> <r_i_docking_score>
-7.12285822380617

> <r_i_glide_ligand_efficiency>
-0.284914328952247

> <r_i_glide_ligand_efficiency_sa>
-0.83309455083351

> <r_i_glide_ligand_efficiency_ln>
-1.68833085387828

> <r_i_glide_gscore>
-7.12285822380617

> <r_i_glide_lipo>
-2.17818937707491

> <r_i_glide_hbond>
-0.609726064839765

> <r_i_glide_metal>
0

> <r_i_glide_rewards>
-1.79833215034699

> <r_i_glide_evdw>
-39.0869140625

> <r_i_glide_ecoul>
-10.4198436737061

> <r_i_glide_erotb>
0.980711622636398

> <r_i_glide_esite>
0

> <r_i_glide_emodel>
-68.7437642437006

> <r_i_glide_energy>
-49.5067577362061

> <r_i_glide_einternal>
6.084144115448

> <i_i_glide_confnum>
94

> <i_i_glide_posenum>
45

> <r_i_glide_eff_state_penalty>
0

> <s_user_duplicate_titles>
CHEMBL213_lig1195

> <s_m_subgroup_title>
dock_pv

> <s_m_subgroupid>
dock_pv

> <b_m_subgroup_collapsed>
1

$$$$
CHEMBL213_lig406
                    3D
 Schrodinger Suite 2021-1.
 75 80  0  0  1  0            999 V2000
   27.7375    5.5409    3.0777 C   0  0  0  0  0  0
   26.6191    5.2822    3.8736 C   0  0  0  0  0  0
   25.5091    4.6451    3.3352 C   0  0  0  0  0  0
   25.5123    4.2499    1.9939 C   0  0  0  0  0  0
   26.6071    4.5500    1.1821 C   0  0  0  0  0  0
   27.7154    5.1871    1.7232 C   0  0  0  0  0  0
   24.3389    3.4922    1.3958 C   0  0  0  0  0  0
   23.8081    4.2364    0.4322 F   0  0  0  0  0  0
   24.7573    2.3392    0.8735 F   0  0  0  0  0  0
   23.4079    3.2298    2.3126 F   0  0  0  0  0  0
   28.4922    4.6508   -3.4572 C   0  0  0  0  0  0
   28.7332    6.0183   -3.3738 C   0  0  0  0  0  0
   29.8050    6.5879   -4.0555 C   0  0  0  0  0  0
   30.6406    5.7839   -4.8244 C   0  0  0  0  0  0
   30.4142    4.4070   -4.9237 C   0  0  0  0  0  0
   29.3288    3.8508   -4.2303 C   0  0  0  0  0  0
   31.2852    3.5532   -5.8642 C   0  0  2  0  0  0
   31.0072    2.1659   -5.7937 O   0  0  0  0  0  0
   33.4646    3.4168   -4.4734 N   0  0  1  0  0  0
   32.8275    3.7568   -5.7426 C   0  0  1  0  0  0
   33.6639    3.0580   -6.8321 C   0  0  0  0  0  0
   35.0463    2.8829   -6.1940 C   0  0  0  0  0  0
   34.8859    3.4713   -4.7886 C   0  0  2  0  0  0
   35.8718    2.8911   -3.7377 C   0  0  0  0  0  0
   36.2402    3.8836   -2.6446 C   0  0  0  0  0  0
   36.8901    5.0539   -3.0183 C   0  0  0  0  0  0
   37.1007    6.0695   -2.0947 C   0  0  0  0  0  0
   36.7190    5.9014   -0.7699 C   0  0  0  0  0  0
   36.2228    4.6549   -0.3561 C   0  0  0  0  0  0
   35.9510    3.6592   -1.2978 C   0  0  0  0  0  0
   32.9607    4.8249   -5.9278 H   0  0  0  0  0  0
   36.8461    7.0087    1.8167 S   0  0  0  0  0  0
   37.6499    5.8503    2.2007 O   0  0  0  0  0  0
   37.2392    8.3567    2.2385 O   0  0  0  0  0  0
   35.1809    6.7536    2.4272 C   0  0  0  0  0  0
   34.8870    7.1228    3.7389 C   0  0  0  0  0  0
   33.5757    7.0497    4.2005 C   0  0  0  0  0  0
   32.5420    6.6246    3.3539 C   0  0  0  0  0  0
   32.8637    6.1829    2.0702 C   0  0  0  0  0  0
   34.1705    6.2501    1.6068 C   0  0  0  0  0  0
   31.0997    6.6498    3.7648 C   0  0  0  0  0  0
   30.1328    6.0311    3.1330 N   0  0  0  0  0  0
   28.9388    6.1837    3.6861 C   0  0  0  0  0  0
   28.9460    6.9663    4.8388 C   0  0  0  0  0  0
   30.5649    7.4507    5.1849 S   0  0  0  0  0  0
   36.7843    7.0384    0.0527 N   0  0  0  0  0  0
   26.6090    5.5528    4.9181 H   0  0  0  0  0  0
   24.6618    4.4412    3.9747 H   0  0  0  0  0  0
   26.6103    4.2641    0.1387 H   0  0  0  0  0  0
   28.5614    5.3885    1.0847 H   0  0  0  0  0  0
   27.6498    4.2121   -2.9401 H   0  0  0  0  0  0
   28.0741    6.6405   -2.7855 H   0  0  0  0  0  0
   29.9749    7.6538   -4.0157 H   0  0  0  0  0  0
   31.4438    6.2494   -5.3753 H   0  0  0  0  0  0
   29.1035    2.7952   -4.2966 H   0  0  0  0  0  0
   30.9990    3.8500   -6.8722 H   0  0  0  0  0  0
   31.5311    1.8235   -5.0669 H   0  0  0  0  0  0
   33.2209    4.0680   -3.7406 H   0  0  0  0  0  0
   33.2383    2.1097   -7.1609 H   0  0  0  0  0  0
   33.7559    3.7019   -7.7085 H   0  0  0  0  0  0
   35.3950    1.8507   -6.1867 H   0  0  0  0  0  0
   35.7684    3.4723   -6.7610 H   0  0  0  0  0  0
   35.1799    4.5173   -4.9021 H   0  0  0  0  0  0
   35.4996    1.9540   -3.3185 H   0  0  0  0  0  0
   36.8117    2.6492   -4.2340 H   0  0  0  0  0  0
   37.1763    5.2130   -4.0460 H   0  0  0  0  0  0
   37.5243    7.0038   -2.4369 H   0  0  0  0  0  0
   35.9756    4.4639    0.6766 H   0  0  0  0  0  0
   35.4991    2.7307   -0.9832 H   0  0  0  0  0  0
   35.6638    7.5071    4.3837 H   0  0  0  0  0  0
   33.3662    7.3861    5.2047 H   0  0  0  0  0  0
   32.0936    5.8478    1.3919 H   0  0  0  0  0  0
   34.3400    6.0007    0.5745 H   0  0  0  0  0  0
   28.1265    7.2594    5.4791 H   0  0  0  0  0  0
   36.9267    7.9323   -0.3874 H   0  0  0  0  0  0
  1  2  2  0  0  0
  1  6  1  0  0  0
  1 43  1  0  0  0
  2  3  1  0  0  0
  2 47  1  0  0  0
  3  4  2  0  0  0
  3 48  1  0  0  0
  4  5  1  0  0  0
  4  7  1  0  0  0
  5  6  2  0  0  0
  5 49  1  0  0  0
  6 50  1  0  0  0
  7 10  1  0  0  0
  7  8  1  0  0  0
  7  9  1  0  0  0
 11 12  2  0  0  0
 11 16  1  0  0  0
 11 51  1  0  0  0
 12 13  1  0  0  0
 12 52  1  0  0  0
 13 14  2  0  0  0
 13 53  1  0  0  0
 14 15  1  0  0  0
 14 54  1  0  0  0
 15 17  1  0  0  0
 15 16  2  0  0  0
 16 55  1  0  0  0
 17 18  1  0  0  0
 17 20  1  0  0  0
 17 56  1  0  0  0
 18 57  1  0  0  0
 19 23  1  0  0  0
 19 20  1  0  0  0
 19 58  1  0  0  0
 20 31  1  0  0  0
 20 21  1  0  0  0
 21 22  1  0  0  0
 21 59  1  0  0  0
 21 60  1  0  0  0
 22 23  1  0  0  0
 22 61  1  0  0  0
 22 62  1  0  0  0
 23 24  1  0  0  0
 23 63  1  0  0  0
 24 25  1  0  0  0
 24 64  1  0  0  0
 24 65  1  0  0  0
 25 26  2  0  0  0
 25 30  1  0  0  0
 26 27  1  0  0  0
 26 66  1  0  0  0
 27 28  2  0  0  0
 27 67  1  0  0  0
 28 29  1  0  0  0
 28 46  1  0  0  0
 29 30  2  0  0  0
 29 68  1  0  0  0
 30 69  1  0  0  0
 32 33  2  0  0  0
 32 34  2  0  0  0
 32 35  1  0  0  0
 32 46  1  0  0  0
 35 36  2  0  0  0
 35 40  1  0  0  0
 36 37  1  0  0  0
 36 70  1  0  0  0
 37 38  2  0  0  0
 37 71  1  0  0  0
 38 39  1  0  0  0
 38 41  1  0  0  0
 39 40  2  0  0  0
 39 72  1  0  0  0
 40 73  1  0  0  0
 41 42  2  0  0  0
 41 45  1  0  0  0
 42 43  1  0  0  0
 43 44  2  0  0  0
 44 45  1  0  0  0
 44 74  1  0  0  0
 46 75  1  0  0  0
M  END
> <s_m_entry_id>
3258

> <s_m_entry_name>
dock_pv.350

> <s_m_Source_Path>
/home/csk/Desktop/cluster/DUD-E-result/adrb1

> <s_m_Source_File>
dock_pv.maegz

> <i_m_Source_File_Index>
350

> <chembl_id>
CHEMBL1684580

> <chembl_pref_name>
None

> <i_lp_mmshare_version>
53161

> <i_f3d_flags>
0

> <r_lp_tautomer_probability>
1

> <s_lp_Force_Field>
OPLS_2005

> <r_lp_Energy>
54.412864

> <b_lp_Chiralities_Consistent>
1

> <s_lp_Variant>
CHEMBL213_lig406-2

> <s_i_glide_gridfile>
glide-grid_2vt4

> <i_i_glide_lignum>
477

> <i_i_glide_rotatable_bonds>
11

> <r_i_docking_score>
-7.11578144045881

> <r_i_glide_ligand_efficiency>
-0.15812847645464

> <r_i_glide_ligand_efficiency_sa>
-0.562446118437043

> <r_i_glide_ligand_efficiency_ln>
-1.48039964436921

> <r_i_glide_gscore>
-7.11578144045881

> <r_i_glide_lipo>
-3.63446137213894

> <r_i_glide_hbond>
0

> <r_i_glide_metal>
0

> <r_i_glide_rewards>
-0.373065557003731

> <r_i_glide_evdw>
-56.8485717773438

> <r_i_glide_ecoul>
-3.37919425964355

> <r_i_glide_erotb>
0.302011196900584

> <r_i_glide_esite>
-0.0609579804029947

> <r_i_glide_emodel>
-75.8335250652781

> <r_i_glide_energy>
-60.2277660369873

> <r_i_glide_einternal>
7.57826948165894

> <i_i_glide_confnum>
2

> <i_i_glide_posenum>
84

> <r_i_glide_eff_state_penalty>
0

> <s_user_duplicate_titles>
CHEMBL213_lig406

> <s_m_subgroup_title>
dock_pv

> <s_m_subgroupid>
dock_pv

> <b_m_subgroup_collapsed>
1

$$$$
CHEMBL213_lig407
                    3D
 Schrodinger Suite 2021-1.
 75 80  0  0  1  0            999 V2000
   30.3391    6.6501    4.1346 C   0  0  0  0  0  0
   29.7095    5.8501    3.1760 C   0  0  0  0  0  0
   28.3293    5.6500    3.2193 C   0  0  0  0  0  0
   27.5701    6.2498    4.2272 C   0  0  0  0  0  0
   28.2048    7.0345    5.1850 C   0  0  0  0  0  0
   29.5740    7.2512    5.1315 C   0  0  0  0  0  0
   26.0571    6.0681    4.3116 C   0  0  0  0  0  0
   25.4881    7.1984    3.8993 F   0  0  0  0  0  0
   25.6208    5.0584    3.5565 F   0  0  0  0  0  0
   25.6772    5.8500    5.5717 F   0  0  0  0  0  0
   26.9342    6.2606   -1.9345 C   0  0  0  0  0  0
   26.6514    5.4637   -0.8289 C   0  0  0  0  0  0
   27.6367    4.6503   -0.2801 C   0  0  0  0  0  0
   28.9228    4.6525   -0.8174 C   0  0  0  0  0  0
   29.2156    5.4502   -1.9282 C   0  0  0  0  0  0
   28.2085    6.2472   -2.4899 C   0  0  0  0  0  0
   30.6107    5.4465   -2.5589 C   0  0  1  0  0  0
   31.6783    5.4499   -1.6202 O   0  0  0  0  0  0
   31.9539    4.5057   -4.4221 N   0  0  1  0  0  0
   30.8291    4.2656   -3.5344 C   0  0  1  0  0  0
   31.0806    2.8953   -2.8746 C   0  0  0  0  0  0
   32.1910    2.2520   -3.6939 C   0  0  0  0  0  0
   32.4008    3.2051   -4.8865 C   0  0  2  0  0  0
   33.8301    3.2207   -5.4872 C   0  0  0  0  0  0
   34.9030    3.6365   -4.4876 C   0  0  0  0  0  0
   35.7139    2.6767   -3.8873 C   0  0  0  0  0  0
   36.6063    3.0469   -2.8991 C   0  0  0  0  0  0
   36.8009    4.3812   -2.5700 C   0  0  0  0  0  0
   36.0113    5.3425   -3.1952 C   0  0  0  0  0  0
   35.0535    4.9759   -4.1363 C   0  0  0  0  0  0
   29.9287    4.1864   -4.1479 H   0  0  0  0  0  0
   38.1539    6.2349   -0.8682 S   0  0  0  0  0  0
   39.4204    6.0657   -0.1478 O   0  0  0  0  0  0
   38.0092    7.2934   -1.8710 O   0  0  0  0  0  0
   36.8934    6.4730    0.3813 C   0  0  0  0  0  0
   37.2395    6.9853    1.6334 C   0  0  0  0  0  0
   36.2666    7.1133    2.6229 C   0  0  0  0  0  0
   34.9454    6.7261    2.3653 C   0  0  0  0  0  0
   34.6080    6.2496    1.0982 C   0  0  0  0  0  0
   35.5704    6.1301    0.1105 C   0  0  0  0  0  0
   33.8733    6.7782    3.4059 C   0  0  0  0  0  0
   32.5840    6.8198    3.1359 N   0  0  0  0  0  0
   31.8273    6.7376    4.2121 C   0  0  0  0  0  0
   32.5453    6.6450    5.3982 C   0  0  0  0  0  0
   34.2469    6.6505    5.0963 S   0  0  0  0  0  0
   37.8079    4.6715   -1.6356 N   0  0  0  0  0  0
   30.2937    5.3522    2.4157 H   0  0  0  0  0  0
   27.8607    5.0254    2.4765 H   0  0  0  0  0  0
   27.6239    7.4505    5.9850 H   0  0  0  0  0  0
   30.0465    7.8498    5.8878 H   0  0  0  0  0  0
   26.1554    6.8678   -2.3735 H   0  0  0  0  0  0
   25.6532    5.4529   -0.4180 H   0  0  0  0  0  0
   27.3966    4.0072    0.5519 H   0  0  0  0  0  0
   29.6860    4.0200   -0.3910 H   0  0  0  0  0  0
   28.4084    6.8580   -3.3585 H   0  0  0  0  0  0
   30.7087    6.3792   -3.1175 H   0  0  0  0  0  0
   32.4291    5.0508   -2.0720 H   0  0  0  0  0  0
   31.7338    5.1362   -5.1830 H   0  0  0  0  0  0
   31.3297    2.9328   -1.8164 H   0  0  0  0  0  0
   30.2081    2.2621   -2.9959 H   0  0  0  0  0  0
   33.0934    2.0922   -3.1052 H   0  0  0  0  0  0
   31.8079    1.2859   -4.0150 H   0  0  0  0  0  0
   31.7609    2.8599   -5.7011 H   0  0  0  0  0  0
   34.0845    2.2532   -5.9167 H   0  0  0  0  0  0
   33.8637    3.9064   -6.3365 H   0  0  0  0  0  0
   35.6785    1.6395   -4.1572 H   0  0  0  0  0  0
   37.1707    2.2714   -2.4147 H   0  0  0  0  0  0
   36.1477    6.3755   -2.9545 H   0  0  0  0  0  0
   34.4512    5.7354   -4.6086 H   0  0  0  0  0  0
   38.2605    7.2673    1.8455 H   0  0  0  0  0  0
   36.5505    7.5022    3.5900 H   0  0  0  0  0  0
   33.5931    5.9553    0.8665 H   0  0  0  0  0  0
   35.2663    5.7415   -0.8428 H   0  0  0  0  0  0
   32.1517    6.4756    6.3849 H   0  0  0  0  0  0
   38.3622    3.8835   -1.3054 H   0  0  0  0  0  0
  1  2  2  0  0  0
  1  6  1  0  0  0
  1 43  1  0  0  0
  2  3  1  0  0  0
  2 47  1  0  0  0
  3  4  2  0  0  0
  3 48  1  0  0  0
  4  5  1  0  0  0
  4  7  1  0  0  0
  5  6  2  0  0  0
  5 49  1  0  0  0
  6 50  1  0  0  0
  7 10  1  0  0  0
  7  8  1  0  0  0
  7  9  1  0  0  0
 11 12  2  0  0  0
 11 16  1  0  0  0
 11 51  1  0  0  0
 12 13  1  0  0  0
 12 52  1  0  0  0
 13 14  2  0  0  0
 13 53  1  0  0  0
 14 15  1  0  0  0
 14 54  1  0  0  0
 15 17  1  0  0  0
 15 16  2  0  0  0
 16 55  1  0  0  0
 17 18  1  0  0  0
 17 20  1  0  0  0
 17 56  1  0  0  0
 18 57  1  0  0  0
 19 23  1  0  0  0
 19 20  1  0  0  0
 19 58  1  0  0  0
 20 31  1  0  0  0
 20 21  1  0  0  0
 21 22  1  0  0  0
 21 59  1  0  0  0
 21 60  1  0  0  0
 22 23  1  0  0  0
 22 61  1  0  0  0
 22 62  1  0  0  0
 23 24  1  0  0  0
 23 63  1  0  0  0
 24 25  1  0  0  0
 24 64  1  0  0  0
 24 65  1  0  0  0
 25 26  2  0  0  0
 25 30  1  0  0  0
 26 27  1  0  0  0
 26 66  1  0  0  0
 27 28  2  0  0  0
 27 67  1  0  0  0
 28 29  1  0  0  0
 28 46  1  0  0  0
 29 30  2  0  0  0
 29 68  1  0  0  0
 30 69  1  0  0  0
 32 33  2  0  0  0
 32 34  2  0  0  0
 32 35  1  0  0  0
 32 46  1  0  0  0
 35 36  2  0  0  0
 35 40  1  0  0  0
 36 37  1  0  0  0
 36 70  1  0  0  0
 37 38  2  0  0  0
 37 71  1  0  0  0
 38 39  1  0  0  0
 38 41  1  0  0  0
 39 40  2  0  0  0
 39 72  1  0  0  0
 40 73  1  0  0  0
 41 42  2  0  0  0
 41 45  1  0  0  0
 42 43  1  0  0  0
 43 44  2  0  0  0
 44 45  1  0  0  0
 44 74  1  0  0  0
 46 75  1  0  0  0
M  END
> <s_m_entry_id>
3259

> <s_m_entry_name>
dock_pv.351

> <s_m_Source_Path>
/home/csk/Desktop/cluster/DUD-E-result/adrb1

> <s_m_Source_File>
dock_pv.maegz

> <i_m_Source_File_Index>
351

> <chembl_id>
CHEMBL1684581

> <chembl_pref_name>
None

> <i_lp_mmshare_version>
53161

> <i_f3d_flags>
0

> <r_lp_tautomer_probability>
1

> <s_lp_Force_Field>
OPLS_2005

> <r_lp_Energy>
54.113755

> <b_lp_Chiralities_Consistent>
1

> <s_lp_Variant>
CHEMBL213_lig407-2

> <s_i_glide_gridfile>
glide-grid_2vt4

> <i_i_glide_lignum>
479

> <i_i_glide_rotatable_bonds>
11

> <r_i_docking_score>
-7.11529690426962

> <r_i_glide_ligand_efficiency>
-0.158117708983769

> <r_i_glide_ligand_efficiency_sa>
-0.562407819692045

> <r_i_glide_ligand_efficiency_ln>
-1.48029883924919

> <r_i_glide_gscore>
-7.11529690426962

> <r_i_glide_lipo>
-2.77389655323939

> <r_i_glide_hbond>
-0.16

> <r_i_glide_metal>
0

> <r_i_glide_rewards>
-0.738212439807028

> <r_i_glide_evdw>
-47.459831237793

> <r_i_glide_ecoul>
-9.14805030822754

> <r_i_glide_erotb>
0.302011196900584

> <r_i_glide_esite>
0

> <r_i_glide_emodel>
-64.3516224223373

> <r_i_glide_energy>
-56.6078815460205

> <r_i_glide_einternal>
6.64611625671387

> <i_i_glide_confnum>
1

> <i_i_glide_posenum>
78

> <r_i_glide_eff_state_penalty>
0

> <s_user_duplicate_titles>
CHEMBL213_lig407

> <s_m_subgroup_title>
dock_pv

> <s_m_subgroupid>
dock_pv

> <b_m_subgroup_collapsed>
1

$$$$
CHEMBL213_lig1211 
                    3D
 Schrodinger Suite 2021-1.
 51 53  0  0  1  0            999 V2000
   23.8641    4.2500    3.3833 C   0  0  0  0  0  0
   24.6956    4.9931    4.2281 C   0  0  0  0  0  0
   25.6051    4.1350    1.6835 C   0  0  0  0  0  0
   24.3040    3.8500    2.1264 C   0  0  0  0  0  0
   26.4750    4.8084    2.5737 C   0  0  0  0  0  0
   26.0070    5.2607    3.8269 C   0  0  0  0  0  0
   26.8850    5.9449    4.6961 N   0  0  0  0  0  0
   28.2080    6.1412    4.5231 C   0  0  0  0  0  0
   28.6968    5.6664    3.2413 C   0  0  0  0  0  0
   27.9160    5.0500    2.3244 C   0  0  0  0  0  0
   28.9068    6.6501    5.3939 O   0  0  0  0  0  0
   24.2080    5.4500    5.4348 O   0  0  0  0  0  0
   26.0475    3.6531    0.2827 C   0  0  2  0  0  0
   26.1706    4.7388   -0.8145 C   0  0  0  0  0  0
   25.2078    2.6458   -0.2652 O   0  0  0  0  0  0
   27.1159    5.8083   -0.5147 N   0  0  1  0  0  0
   27.3962    6.6500   -1.6737 C   0  0  0  0  0  0
   28.2079    5.9559   -2.7914 C   0  0  0  0  0  0
   29.4675    5.1993   -2.3068 C   0  0  0  0  0  0
   30.3552    4.6776   -3.4394 C   0  0  0  0  0  0
   31.7323    4.9733   -3.4927 C   0  0  0  0  0  0
   32.4960    4.4509   -4.5526 C   0  0  0  0  0  0
   31.9107    3.6466   -5.5284 C   0  0  0  0  0  0
   30.5553    3.3413   -5.4568 C   0  0  0  0  0  0
   29.7841    3.8499   -4.4150 C   0  0  0  0  0  0
   32.2738    5.7713   -2.4984 O   0  0  0  0  0  0
   33.6902    5.8282   -2.3419 C   0  0  0  0  0  0
   22.8487    4.0258    3.6784 H   0  0  0  0  0  0
   23.6094    3.3164    1.4930 H   0  0  0  0  0  0
   26.5331    6.2695    5.5835 H   0  0  0  0  0  0
   29.7478    5.8118    3.0379 H   0  0  0  0  0  0
   28.3738    4.7175    1.4046 H   0  0  0  0  0  0
   23.2479    5.4605    5.4782 H   0  0  0  0  0  0
   27.0080    3.1567    0.3850 H   0  0  0  0  0  0
   25.1954    5.1890   -1.0025 H   0  0  0  0  0  0
   26.5052    4.2301   -1.7183 H   0  0  0  0  0  0
   24.5618    3.0500   -0.8651 H   0  0  0  0  0  0
   26.7482    6.3859    0.2293 H   0  0  0  0  0  0
   27.9736    7.4958   -1.3041 H   0  0  0  0  0  0
   26.4624    7.0500   -2.0718 H   0  0  0  0  0  0
   28.5014    6.7181   -3.5146 H   0  0  0  0  0  0
   27.5528    5.2803   -3.3419 H   0  0  0  0  0  0
   29.1732    4.3445   -1.6955 H   0  0  0  0  0  0
   30.0327    5.8500   -1.6423 H   0  0  0  0  0  0
   33.5504    4.6619   -4.6423 H   0  0  0  0  0  0
   32.5114    3.2565   -6.3369 H   0  0  0  0  0  0
   30.1014    2.7089   -6.2054 H   0  0  0  0  0  0
   28.7361    3.5900   -4.3640 H   0  0  0  0  0  0
   33.9322    6.4619   -1.4884 H   0  0  0  0  0  0
   34.1050    4.8381   -2.1461 H   0  0  0  0  0  0
   34.1883    6.2500   -3.2147 H   0  0  0  0  0  0
  1  2  2  0  0  0
  1  4  1  0  0  0
  1 28  1  0  0  0
  2  6  1  0  0  0
  2 12  1  0  0  0
  3  5  1  0  0  0
  3  4  2  0  0  0
  3 13  1  0  0  0
  4 29  1  0  0  0
  5  6  2  0  0  0
  5 10  1  0  0  0
  6  7  1  0  0  0
  7  8  1  0  0  0
  7 30  1  0  0  0
  8  9  1  0  0  0
  8 11  2  0  0  0
  9 10  2  0  0  0
  9 31  1  0  0  0
 10 32  1  0  0  0
 12 33  1  0  0  0
 13 14  1  0  0  0
 13 15  1  0  0  0
 13 34  1  0  0  0
 14 16  1  0  0  0
 14 35  1  0  0  0
 14 36  1  0  0  0
 15 37  1  0  0  0
 16 17  1  0  0  0
 16 38  1  0  0  0
 17 18  1  0  0  0
 17 39  1  0  0  0
 17 40  1  0  0  0
 18 19  1  0  0  0
 18 41  1  0  0  0
 18 42  1  0  0  0
 19 20  1  0  0  0
 19 43  1  0  0  0
 19 44  1  0  0  0
 20 21  2  0  0  0
 20 25  1  0  0  0
 21 22  1  0  0  0
 21 26  1  0  0  0
 22 23  2  0  0  0
 22 45  1  0  0  0
 23 24  1  0  0  0
 23 46  1  0  0  0
 24 25  2  0  0  0
 24 47  1  0  0  0
 25 48  1  0  0  0
 26 27  1  0  0  0
 27 49  1  0  0  0
 27 50  1  0  0  0
 27 51  1  0  0  0
M  END
> <s_m_entry_id>
3260

> <s_m_entry_name>
dock_pv.352

> <s_m_Source_Path>
/home/csk/Desktop/cluster/DUD-E-result/adrb1

> <s_m_Source_File>
dock_pv.maegz

> <i_m_Source_File_Index>
352

> <chembl_id>
CHEMBL4473790

> <chembl_pref_name>
None

> <i_lp_mmshare_version>
53161

> <i_f3d_flags>
0

> <r_lp_tautomer_probability>
1

> <s_lp_Force_Field>
OPLS_2005

> <r_lp_Energy>
34.847878

> <b_lp_Chiralities_Consistent>
1

> <s_lp_Variant>
CHEMBL213_lig1211 -1

> <s_i_glide_gridfile>
glide-grid_2vt4

> <i_i_glide_lignum>
1433

> <i_i_glide_rotatable_bonds>
10

> <r_i_docking_score>
-7.11162196503404

> <r_i_glide_ligand_efficiency>
-0.263393406112372

> <r_i_glide_ligand_efficiency_sa>
-0.790180217469014

> <r_i_glide_ligand_efficiency_ln>
-1.65546834920869

> <r_i_glide_gscore>
-7.11162196503404

> <r_i_glide_lipo>
-2.76812215540724

> <r_i_glide_hbond>
-0.792273148828035

> <r_i_glide_metal>
0

> <r_i_glide_rewards>
-1.49286247457543

> <r_i_glide_evdw>
-35.4092597961426

> <r_i_glide_ecoul>
-8.54426765441895

> <r_i_glide_erotb>
0.993738951746631

> <r_i_glide_esite>
0

> <r_i_glide_emodel>
-61.1816797856363

> <r_i_glide_energy>
-43.9535274505615

> <r_i_glide_einternal>
6.11443519592285

> <i_i_glide_confnum>
174

> <i_i_glide_posenum>
148

> <r_i_glide_eff_state_penalty>
0

> <s_user_duplicate_titles>
CHEMBL213_lig1211 

> <s_m_subgroup_title>
dock_pv

> <s_m_subgroupid>
dock_pv

> <b_m_subgroup_collapsed>
1

$$$$
CHEMBL213_lig811
                    3D
 Schrodinger Suite 2021-1.
 64 66  0  0  1  0            999 V2000
   30.3330    7.4515    4.5092 C   0  0  0  0  0  0
   31.2653    6.9501    3.6063 C   0  0  0  0  0  0
   30.9164    5.9336    2.7269 C   0  0  0  0  0  0
   29.6288    5.4054    2.7630 C   0  0  0  0  0  0
   28.6802    5.8821    3.6735 C   0  0  0  0  0  0
   29.0445    6.9258    4.5398 C   0  0  0  0  0  0
   27.3041    5.1980    3.7801 C   0  0  2  0  0  0
   26.3547    5.2955    2.5256 C   0  0  1  0  0  0
   26.5981    5.5931    4.9499 O   0  0  0  0  0  0
   26.9285    4.6500    1.3367 N   0  0  2  0  0  0
   26.2508    4.8940    0.0545 C   0  0  0  0  0  0
   26.8139    6.0928   -0.7454 C   0  0  0  0  0  0
   28.0458    5.8038   -1.6134 C   0  0  0  0  0  0
   29.0175    4.8846   -1.2138 C   0  0  0  0  0  0
   30.1353    4.6499   -2.0062 C   0  0  0  0  0  0
   30.3346    5.3450   -3.2079 C   0  0  0  0  0  0
   29.3417    6.2501   -3.6147 C   0  0  0  0  0  0
   28.2079    6.4740   -2.8297 C   0  0  0  0  0  0
   31.5737    5.1137   -4.0241 C   0  0  0  0  0  0
   31.5848    5.3032   -5.4105 C   0  0  0  0  0  0
   32.7288    5.0498   -6.1650 C   0  0  0  0  0  0
   33.8912    4.5632   -5.5638 C   0  0  0  0  0  0
   33.9156    4.3727   -4.1732 C   0  0  0  0  0  0
   32.7660    4.6811   -3.4244 C   0  0  0  0  0  0
   35.0420    4.1241   -6.4324 C   0  0  0  0  0  0
   35.5084    2.9887   -6.3555 O   0  0  0  0  0  0
   35.4800    5.0500   -7.3343 O   0  0  0  0  0  0
   35.0812    3.8851   -3.6096 O   0  0  0  0  0  0
   35.1047    3.3928   -2.2738 C   0  0  0  0  0  0
   35.4410    4.5277   -1.2923 C   0  0  0  0  0  0
   36.1599    2.2851   -2.2550 C   0  0  0  0  0  0
   24.9916    4.6015    2.8140 C   0  0  0  0  0  0
   32.5369    7.4500    3.5851 O   0  0  0  0  0  0
   30.6055    8.2495    5.1850 H   0  0  0  0  0  0
   31.6440    5.5465    2.0291 H   0  0  0  0  0  0
   29.3895    4.5998    2.0919 H   0  0  0  0  0  0
   28.3420    7.3230    5.2588 H   0  0  0  0  0  0
   27.5277    4.1475    3.9674 H   0  0  0  0  0  0
   26.2080    6.3543    2.3067 H   0  0  0  0  0  0
   25.6694    5.3872    4.8259 H   0  0  0  0  0  0
   26.9787    3.6515    1.4856 H   0  0  0  0  0  0
   26.4267    4.0033   -0.5523 H   0  0  0  0  0  0
   25.1648    4.9437    0.1141 H   0  0  0  0  0  0
   26.0163    6.4214   -1.4142 H   0  0  0  0  0  0
   27.0091    6.9413   -0.0887 H   0  0  0  0  0  0
   28.9170    4.3382   -0.2909 H   0  0  0  0  0  0
   30.8469    3.9134   -1.6658 H   0  0  0  0  0  0
   29.4493    6.8126   -4.5302 H   0  0  0  0  0  0
   27.4668    7.1863   -3.1638 H   0  0  0  0  0  0
   30.6980    5.6385   -5.9275 H   0  0  0  0  0  0
   32.6880    5.1866   -7.2343 H   0  0  0  0  0  0
   32.7881    4.5702   -2.3539 H   0  0  0  0  0  0
   35.4081    5.9804   -7.0408 H   0  0  0  0  0  0
   34.1538    2.9297   -2.0145 H   0  0  0  0  0  0
   35.4508    4.1636   -0.2646 H   0  0  0  0  0  0
   36.4240    4.9496   -1.5056 H   0  0  0  0  0  0
   34.7180    5.3407   -1.3476 H   0  0  0  0  0  0
   36.3329    1.9018   -1.2489 H   0  0  0  0  0  0
   35.8620    1.4500   -2.8886 H   0  0  0  0  0  0
   37.1026    2.6663   -2.6392 H   0  0  0  0  0  0
   24.4762    5.0501    3.6604 H   0  0  0  0  0  0
   24.2875    4.6500    1.9861 H   0  0  0  0  0  0
   25.1281    3.5454    3.0517 H   0  0  0  0  0  0
   32.6080    8.3132    4.0302 H   0  0  0  0  0  0
  1  6  1  0  0  0
  1  2  2  0  0  0
  1 34  1  0  0  0
  2  3  1  0  0  0
  2 33  1  0  0  0
  3  4  2  0  0  0
  3 35  1  0  0  0
  4  5  1  0  0  0
  4 36  1  0  0  0
  5  6  2  0  0  0
  5  7  1  0  0  0
  6 37  1  0  0  0
  7  8  1  0  0  0
  7  9  1  0  0  0
  7 38  1  0  0  0
  8 10  1  0  0  0
  8 32  1  0  0  0
  8 39  1  0  0  0
  9 40  1  0  0  0
 10 11  1  0  0  0
 10 41  1  0  0  0
 11 12  1  0  0  0
 11 42  1  0  0  0
 11 43  1  0  0  0
 12 13  1  0  0  0
 12 44  1  0  0  0
 12 45  1  0  0  0
 13 18  1  0  0  0
 13 14  2  0  0  0
 14 15  1  0  0  0
 14 46  1  0  0  0
 15 16  2  0  0  0
 15 47  1  0  0  0
 16 17  1  0  0  0
 16 19  1  0  0  0
 17 18  2  0  0  0
 17 48  1  0  0  0
 18 49  1  0  0  0
 19 20  2  0  0  0
 19 24  1  0  0  0
 20 21  1  0  0  0
 20 50  1  0  0  0
 21 22  2  0  0  0
 21 51  1  0  0  0
 22 23  1  0  0  0
 22 25  1  0  0  0
 23 24  2  0  0  0
 23 28  1  0  0  0
 24 52  1  0  0  0
 25 26  2  0  0  0
 25 27  1  0  0  0
 27 53  1  0  0  0
 28 29  1  0  0  0
 29 30  1  0  0  0
 29 31  1  0  0  0
 29 54  1  0  0  0
 30 55  1  0  0  0
 30 56  1  0  0  0
 30 57  1  0  0  0
 31 58  1  0  0  0
 31 59  1  0  0  0
 31 60  1  0  0  0
 32 61  1  0  0  0
 32 62  1  0  0  0
 32 63  1  0  0  0
 33 64  1  0  0  0
M  END
> <s_m_entry_id>
3261

> <s_m_entry_name>
dock_pv.353

> <s_m_Source_Path>
/home/csk/Desktop/cluster/DUD-E-result/adrb1

> <s_m_Source_File>
dock_pv.maegz

> <i_m_Source_File_Index>
353

> <chembl_id>
CHEMBL510100

> <chembl_pref_name>
None

> <i_lp_mmshare_version>
53161

> <i_f3d_flags>
0

> <r_lp_tautomer_probability>
0.999999999997365

> <s_lp_Force_Field>
OPLS_2005

> <r_lp_Energy>
39.159818

> <b_lp_Chiralities_Consistent>
1

> <s_lp_Variant>
CHEMBL213_lig811-1

> <s_i_glide_gridfile>
glide-grid_2vt4

> <i_i_glide_lignum>
919

> <i_i_glide_rotatable_bonds>
13

> <r_i_docking_score>
-7.11016764365514

> <r_i_glide_ligand_efficiency>
-0.215459625565307

> <r_i_glide_ligand_efficiency_sa>
-0.691094144923298

> <r_i_glide_ligand_efficiency_ln>
-1.58126446947111

> <r_i_glide_gscore>
-7.11016764365514

> <r_i_glide_lipo>
-2.83408636862964

> <r_i_glide_hbond>
-0.304

> <r_i_glide_metal>
0

> <r_i_glide_rewards>
-0.654775776300305

> <r_i_glide_evdw>
-44.6482391357422

> <r_i_glide_ecoul>
-12.8787984848022

> <r_i_glide_erotb>
0.892571788925587

> <r_i_glide_esite>
-0.0456455581433331

> <r_i_glide_emodel>
-73.8017311982869

> <r_i_glide_energy>
-57.5270376205444

> <r_i_glide_einternal>
16.0964756011963

> <i_i_glide_confnum>
109

> <i_i_glide_posenum>
209

> <r_i_glide_eff_state_penalty>
0

> <s_user_duplicate_titles>
CHEMBL213_lig811,448255

> <s_m_subgroup_title>
dock_pv

> <s_m_subgroupid>
dock_pv

> <b_m_subgroup_collapsed>
1

$$$$
CHEMBL213_lig1288
                    3D
 Schrodinger Suite 2021-1.
 63 65  0  0  1  0            999 V2000
   27.8099    5.8500   -0.3321 N   0  0  1  0  0  0
   28.5643    4.8546    0.4088 C   0  0  2  0  0  0
   28.0312    4.9744    1.8705 C   0  0  0  0  0  0
   30.0936    5.0500    0.2383 C   0  0  0  0  0  0
   26.5478    4.6500    2.0939 C   0  0  0  0  0  0
   30.6880    4.8325   -1.0144 C   0  0  0  0  0  0
   32.0501    5.0500   -1.2153 C   0  0  0  0  0  0
   32.8530    5.4507   -0.1523 C   0  0  0  0  0  0
   32.3024    5.6762    1.1103 C   0  0  0  0  0  0
   30.9284    5.4500    1.3003 C   0  0  0  0  0  0
   25.8091    3.8715    1.1850 C   0  0  0  0  0  0
   24.5024    3.4941    1.4740 C   0  0  0  0  0  0
   23.9327    3.8774    2.6826 C   0  0  0  0  0  0
   24.6537    4.6500    3.5910 C   0  0  0  0  0  0
   25.9555    5.0426    3.2960 C   0  0  0  0  0  0
   30.0167    3.4979   -4.5730 C   0  0  0  0  0  0
   31.1967    4.2191   -4.8001 C   0  0  0  0  0  0
   31.1640    5.6123   -4.7498 C   0  0  0  0  0  0
   29.9762    6.2865   -4.4626 C   0  0  0  0  0  0
   28.7967    5.5692   -4.2670 C   0  0  0  0  0  0
   28.8264    4.1760   -4.3270 C   0  0  0  0  0  0
   32.3899    3.5905   -5.0520 O   0  0  0  0  0  0
   29.9667    2.1066   -4.5501 N   0  0  0  0  0  0
   29.7431    1.2074   -6.0388 S   0  0  0  0  0  0
   28.2079    1.9777   -6.7986 C   0  0  0  0  0  0
   29.4080   -0.1500   -5.6150 O   0  0  0  0  0  0
   30.8836    1.4782   -6.9182 O   0  0  0  0  0  0
   27.4664    6.2736   -4.0151 C   0  0  0  0  0  0
   27.1684    6.5518   -2.5426 C   0  0  2  0  0  0
   27.3834    5.3513   -1.6221 C   0  0  0  0  0  0
   25.8080    6.8801   -2.4141 O   0  0  0  0  0  0
   33.1702    6.1029    2.0973 O   0  0  0  0  0  0
   32.6357    6.6238    3.3094 C   0  0  0  0  0  0
   26.9935    6.1148    0.2034 H   0  0  0  0  0  0
   28.3452    3.8680   -0.0150 H   0  0  0  0  0  0
   28.5866    4.3001    2.5250 H   0  0  0  0  0  0
   28.2071    5.9841    2.2453 H   0  0  0  0  0  0
   30.1124    4.4902   -1.8543 H   0  0  0  0  0  0
   32.4880    4.8774   -2.1874 H   0  0  0  0  0  0
   33.9099    5.6095   -0.3086 H   0  0  0  0  0  0
   30.5066    5.6116    2.2780 H   0  0  0  0  0  0
   26.2419    3.5146    0.2645 H   0  0  0  0  0  0
   23.9408    2.8986    0.7677 H   0  0  0  0  0  0
   22.9212    3.5800    2.9147 H   0  0  0  0  0  0
   24.2039    4.9421    4.5284 H   0  0  0  0  0  0
   26.5117    5.6236    4.0173 H   0  0  0  0  0  0
   32.0576    6.1821   -4.9415 H   0  0  0  0  0  0
   29.9702    7.3670   -4.4280 H   0  0  0  0  0  0
   27.9145    3.6171   -4.1602 H   0  0  0  0  0  0
   33.1055    4.2003   -5.2450 H   0  0  0  0  0  0
   29.4759    1.7144   -3.7568 H   0  0  0  0  0  0
   27.9284    1.4002   -7.6779 H   0  0  0  0  0  0
   28.4417    3.0005   -7.0855 H   0  0  0  0  0  0
   27.4080    1.9575   -6.0609 H   0  0  0  0  0  0
   27.4454    7.2245   -4.5475 H   0  0  0  0  0  0
   26.6669    5.6750   -4.4569 H   0  0  0  0  0  0
   27.7941    7.3984   -2.2470 H   0  0  0  0  0  0
   26.4879    4.7345   -1.5388 H   0  0  0  0  0  0
   28.1311    4.6797   -2.0149 H   0  0  0  0  0  0
   25.3090    6.1006   -2.7001 H   0  0  0  0  0  0
   33.4463    7.0284    3.9151 H   0  0  0  0  0  0
   31.9309    7.4362    3.1218 H   0  0  0  0  0  0
   32.1434    5.8501    3.8970 H   0  0  0  0  0  0
  1  2  1  0  0  0
  1 30  1  0  0  0
  1 34  1  0  0  0
  2  3  1  0  0  0
  2  4  1  0  0  0
  2 35  1  0  0  0
  3  5  1  0  0  0
  3 36  1  0  0  0
  3 37  1  0  0  0
  4 10  1  0  0  0
  4  6  2  0  0  0
  5 11  2  0  0  0
  5 15  1  0  0  0
  6  7  1  0  0  0
  6 38  1  0  0  0
  7  8  2  0  0  0
  7 39  1  0  0  0
  8  9  1  0  0  0
  8 40  1  0  0  0
  9 10  2  0  0  0
  9 32  1  0  0  0
 10 41  1  0  0  0
 11 12  1  0  0  0
 11 42  1  0  0  0
 12 13  2  0  0  0
 12 43  1  0  0  0
 13 14  1  0  0  0
 13 44  1  0  0  0
 14 15  2  0  0  0
 14 45  1  0  0  0
 15 46  1  0  0  0
 16 17  2  0  0  0
 16 21  1  0  0  0
 16 23  1  0  0  0
 17 18  1  0  0  0
 17 22  1  0  0  0
 18 19  2  0  0  0
 18 47  1  0  0  0
 19 20  1  0  0  0
 19 48  1  0  0  0
 20 21  2  0  0  0
 20 28  1  0  0  0
 21 49  1  0  0  0
 22 50  1  0  0  0
 23 24  1  0  0  0
 23 51  1  0  0  0
 24 25  1  0  0  0
 24 26  2  0  0  0
 24 27  2  0  0  0
 25 52  1  0  0  0
 25 53  1  0  0  0
 25 54  1  0  0  0
 28 29  1  0  0  0
 28 55  1  0  0  0
 28 56  1  0  0  0
 29 30  1  0  0  0
 29 31  1  0  0  0
 29 57  1  0  0  0
 30 58  1  0  0  0
 30 59  1  0  0  0
 31 60  1  0  0  0
 32 33  1  0  0  0
 33 61  1  0  0  0
 33 62  1  0  0  0
 33 63  1  0  0  0
M  END
> <s_m_entry_id>
3262

> <s_m_entry_name>
dock_pv.354

> <s_m_Source_Path>
/home/csk/Desktop/cluster/DUD-E-result/adrb1

> <s_m_Source_File>
dock_pv.maegz

> <i_m_Source_File_Index>
354

> <chembl_id>
CHEMBL398320

> <chembl_pref_name>
None

> <i_lp_mmshare_version>
53161

> <i_f3d_flags>
0

> <r_lp_tautomer_probability>
1

> <s_lp_Force_Field>
OPLS_2005

> <r_lp_Energy>
14.810253

> <b_lp_Chiralities_Consistent>
1

> <s_lp_Variant>
CHEMBL213_lig1288-1

> <s_i_glide_gridfile>
glide-grid_2vt4

> <i_i_glide_lignum>
1540

> <i_i_glide_rotatable_bonds>
13

> <r_i_docking_score>
-7.10321020886733

> <r_i_glide_ligand_efficiency>
-0.215248794208101

> <r_i_glide_ligand_efficiency_sa>
-0.690417896108006

> <r_i_glide_ligand_efficiency_ln>
-1.57971717199797

> <r_i_glide_gscore>
-7.10321020886733

> <r_i_glide_lipo>
-3.25384425412211

> <r_i_glide_hbond>
-0.456

> <r_i_glide_metal>
0

> <r_i_glide_rewards>
-1.15031520782302

> <r_i_glide_evdw>
-37.2690925598145

> <r_i_glide_ecoul>
-7.94443082809448

> <r_i_glide_erotb>
0.821211546880351

> <r_i_glide_esite>
-0.00914304159764787

> <r_i_glide_emodel>
-52.8624353455822

> <r_i_glide_energy>
-45.2135233879089

> <r_i_glide_einternal>
18.9625587463379

> <i_i_glide_confnum>
133

> <i_i_glide_posenum>
370

> <r_i_glide_eff_state_penalty>
0

> <s_user_duplicate_titles>
CHEMBL213_lig1288

> <s_m_subgroup_title>
dock_pv

> <s_m_subgroupid>
dock_pv

> <b_m_subgroup_collapsed>
1

$$$$
CHEMBL213_lig942
                    3D
 Schrodinger Suite 2021-1.
 63 65  0  0  1  0            999 V2000
   35.2419    6.2925    5.8285 C   0  0  0  0  0  0
   36.1532    6.6671    4.8476 C   0  0  0  0  0  0
   35.7177    7.1024    3.5994 C   0  0  0  0  0  0
   34.3522    7.1852    3.3443 C   0  0  0  0  0  0
   33.4240    6.8561    4.3315 C   0  0  0  0  0  0
   33.8778    6.3854    5.5741 C   0  0  0  0  0  0
   37.4897    6.6041    5.1175 O   0  0  0  0  0  0
   32.0989    7.0499    3.9978 O   0  0  0  0  0  0
   31.0978    7.0707    5.0153 C   0  0  0  0  0  0
   29.7028    7.0009    4.3671 C   0  0  2  0  0  0
   28.5256    6.9227    5.3839 C   0  0  0  0  0  0
   27.2746    7.4496    4.8271 N   0  0  1  0  0  0
   26.0810    6.6198    5.0086 C   0  0  0  0  0  0
   26.0885    5.1879    4.4070 C   0  0  0  0  0  0
   26.1543    5.0433    2.8892 C   0  0  0  0  0  0
   25.4081    4.0552    2.2322 C   0  0  0  0  0  0
   25.5585    3.8595    0.8564 C   0  0  0  0  0  0
   26.4642    4.6521    0.1468 C   0  0  0  0  0  0
   27.1486    5.6756    0.7901 C   0  0  0  0  0  0
   27.0073    5.8501    2.1470 C   0  0  0  0  0  0
   26.6537    4.4259   -1.2150 N   0  0  0  0  0  0
   27.7927    4.6054   -1.9254 C   0  0  0  0  0  0
   27.6751    4.2743   -3.4260 C   0  0  0  0  0  0
   28.8704    4.9579   -1.4360 O   0  0  0  0  0  0
   29.0042    4.3101   -4.1823 C   0  0  0  0  0  0
   29.6608    5.5302   -4.4123 C   0  0  0  0  0  0
   30.9072    5.5091   -5.0568 C   0  0  0  0  0  0
   31.4644    4.3129   -5.5050 C   0  0  0  0  0  0
   30.7867    3.1133   -5.3052 C   0  0  0  0  0  0
   29.5624    3.1118   -4.6409 C   0  0  0  0  0  0
   29.6847    5.8500    3.5481 O   0  0  0  0  0  0
   29.0216    6.6780   -3.9737 O   0  0  0  0  0  0
   29.5493    7.9666   -4.2603 C   0  0  0  0  0  0
   35.5907    5.9343    6.7852 H   0  0  0  0  0  0
   36.4230    7.3837    2.8316 H   0  0  0  0  0  0
   34.0013    7.5357    2.3850 H   0  0  0  0  0  0
   33.2002    6.0886    6.3576 H   0  0  0  0  0  0
   38.0329    6.8729    4.3726 H   0  0  0  0  0  0
   31.1914    7.9936    5.5850 H   0  0  0  0  0  0
   31.2147    6.2500    5.7113 H   0  0  0  0  0  0
   29.5969    7.8799    3.7306 H   0  0  0  0  0  0
   28.7543    7.5336    6.2580 H   0  0  0  0  0  0
   28.4145    5.9081    5.7676 H   0  0  0  0  0  0
   27.0736    8.2845    5.3698 H   0  0  0  0  0  0
   25.2833    7.1746    4.5132 H   0  0  0  0  0  0
   25.7980    6.5915    6.0623 H   0  0  0  0  0  0
   25.1637    4.7154    4.7377 H   0  0  0  0  0  0
   26.9062    4.6025    4.8263 H   0  0  0  0  0  0
   24.7355    3.4167    2.7852 H   0  0  0  0  0  0
   24.9980    3.0825    0.3554 H   0  0  0  0  0  0
   27.8080    6.3343    0.2488 H   0  0  0  0  0  0
   27.5786    6.6380    2.5914 H   0  0  0  0  0  0
   25.8454    4.1161   -1.7474 H   0  0  0  0  0  0
   27.0088    5.0095   -3.8799 H   0  0  0  0  0  0
   27.1846    3.3096   -3.5587 H   0  0  0  0  0  0
   31.4642    6.4149   -5.2150 H   0  0  0  0  0  0
   32.4227    4.3190   -6.0041 H   0  0  0  0  0  0
   31.2170    2.1852   -5.6497 H   0  0  0  0  0  0
   29.0535    2.1752   -4.4607 H   0  0  0  0  0  0
   30.3022    5.1951    3.9045 H   0  0  0  0  0  0
   29.0078    8.7049   -3.6678 H   0  0  0  0  0  0
   30.6065    8.0544   -4.0150 H   0  0  0  0  0  0
   29.4080    8.2516   -5.2934 H   0  0  0  0  0  0
  1  6  1  0  0  0
  1  2  2  0  0  0
  1 34  1  0  0  0
  2  3  1  0  0  0
  2  7  1  0  0  0
  3  4  2  0  0  0
  3 35  1  0  0  0
  4  5  1  0  0  0
  4 36  1  0  0  0
  5  8  1  0  0  0
  5  6  2  0  0  0
  6 37  1  0  0  0
  7 38  1  0  0  0
  8  9  1  0  0  0
  9 10  1  0  0  0
  9 39  1  0  0  0
  9 40  1  0  0  0
 10 11  1  0  0  0
 10 31  1  0  0  0
 10 41  1  0  0  0
 11 12  1  0  0  0
 11 42  1  0  0  0
 11 43  1  0  0  0
 12 13  1  0  0  0
 12 44  1  0  0  0
 13 14  1  0  0  0
 13 45  1  0  0  0
 13 46  1  0  0  0
 14 15  1  0  0  0
 14 47  1  0  0  0
 14 48  1  0  0  0
 15 20  1  0  0  0
 15 16  2  0  0  0
 16 17  1  0  0  0
 16 49  1  0  0  0
 17 18  2  0  0  0
 17 50  1  0  0  0
 18 19  1  0  0  0
 18 21  1  0  0  0
 19 20  2  0  0  0
 19 51  1  0  0  0
 20 52  1  0  0  0
 21 22  1  0  0  0
 21 53  1  0  0  0
 22 23  1  0  0  0
 22 24  2  0  0  0
 23 25  1  0  0  0
 23 54  1  0  0  0
 23 55  1  0  0  0
 25 26  2  0  0  0
 25 30  1  0  0  0
 26 27  1  0  0  0
 26 32  1  0  0  0
 27 28  2  0  0  0
 27 56  1  0  0  0
 28 29  1  0  0  0
 28 57  1  0  0  0
 29 30  2  0  0  0
 29 58  1  0  0  0
 30 59  1  0  0  0
 31 60  1  0  0  0
 32 33  1  0  0  0
 33 61  1  0  0  0
 33 62  1  0  0  0
 33 63  1  0  0  0
M  END
> <s_m_entry_id>
3263

> <s_m_entry_name>
dock_pv.355

> <s_m_Source_Path>
/home/csk/Desktop/cluster/DUD-E-result/adrb1

> <s_m_Source_File>
dock_pv.maegz

> <i_m_Source_File_Index>
355

> <chembl_id>
CHEMBL557269

> <chembl_pref_name>
None

> <i_lp_mmshare_version>
53161

> <i_f3d_flags>
0

> <r_lp_tautomer_probability>
0.999999999999998

> <s_lp_Force_Field>
OPLS_2005

> <r_lp_Energy>
38.238252

> <b_lp_Chiralities_Consistent>
1

> <s_lp_Variant>
CHEMBL213_lig942-1

> <s_i_glide_gridfile>
glide-grid_2vt4

> <i_i_glide_lignum>
1053

> <i_i_glide_rotatable_bonds>
15

> <r_i_docking_score>
-7.09730014645559

> <r_i_glide_ligand_efficiency>
-0.215069701407745

> <r_i_glide_ligand_efficiency_sa>
-0.68984344980328

> <r_i_glide_ligand_efficiency_ln>
-1.57840280471827

> <r_i_glide_gscore>
-7.09730014645559

> <r_i_glide_lipo>
-3.1424008237919

> <r_i_glide_hbond>
-0.341359066602235

> <r_i_glide_metal>
0

> <r_i_glide_rewards>
-0.849797620196196

> <r_i_glide_evdw>
-47.6831512451172

> <r_i_glide_ecoul>
-9.56543159484863

> <r_i_glide_erotb>
1.18535444977123

> <r_i_glide_esite>
-0.130124784153332

> <r_i_glide_emodel>
-73.8570214635241

> <r_i_glide_energy>
-57.2485828399658

> <r_i_glide_einternal>
11.9018869400024

> <i_i_glide_confnum>
64

> <i_i_glide_posenum>
37

> <r_i_glide_eff_state_penalty>
0

> <s_user_duplicate_titles>
CHEMBL213_lig942,566564

> <s_m_subgroup_title>
dock_pv

> <s_m_subgroupid>
dock_pv

> <b_m_subgroup_collapsed>
1

$$$$
CHEMBL213_lig1478
                    3D
 Schrodinger Suite 2021-1.
 54 56  0  0  1  0            999 V2000
   30.6216    3.5568   -2.2523 C   0  0  0  0  0  0
   29.6555    4.4610   -2.6853 C   0  0  0  0  0  0
   30.0110    5.5334   -3.5190 C   0  0  0  0  0  0
   31.3496    5.6627   -3.9212 C   0  0  0  0  0  0
   32.3264    4.7610   -3.4794 C   0  0  0  0  0  0
   31.9473    3.7105   -2.6398 C   0  0  0  0  0  0
   28.3597    4.2500   -2.2944 O   0  0  0  0  0  0
   28.9387    6.5104   -4.0078 C   0  0  0  0  0  0
   29.4081    7.7855   -4.4150 O   0  0  0  0  0  0
   33.7907    4.9267   -3.8978 C   0  0  1  0  0  0
   34.6322    5.7474   -2.8851 C   0  0  0  0  0  0
   34.4436    3.6950   -4.1622 O   0  0  0  0  0  0
   34.6432    5.1720   -1.5431 N   0  0  2  0  0  0
   35.4750    5.9471   -0.6296 C   0  0  0  0  0  0
   35.3903    5.3994    0.8134 C   0  0  0  0  0  0
   34.1646    5.8534    1.6078 C   0  0  0  0  0  0
   32.8764    5.6272    1.1178 C   0  0  0  0  0  0
   31.7645    6.0132    1.8576 C   0  0  0  0  0  0
   31.9210    6.6482    3.0949 C   0  0  0  0  0  0
   33.2088    6.9197    3.5609 C   0  0  0  0  0  0
   34.3246    6.5127    2.8308 C   0  0  0  0  0  0
   30.8366    7.0500    3.8966 N   0  0  0  0  0  0
   29.4990    6.6213    3.9850 C   0  0  0  0  0  0
   28.6407    7.3563    4.8054 C   0  0  0  0  0  0
   27.3044    6.9780    4.9441 C   0  0  0  0  0  0
   26.8204    5.8670    4.2629 C   0  0  0  0  0  0
   29.0079    5.4755    3.3400 C   0  0  0  0  0  0
   27.6686    5.1162    3.4602 C   0  0  0  0  0  0
   25.5239    5.5067    4.3901 F   0  0  0  0  0  0
   30.3455    2.7285   -1.6153 H   0  0  0  0  0  0
   31.6324    6.4661   -4.5830 H   0  0  0  0  0  0
   32.6918    3.0161   -2.2826 H   0  0  0  0  0  0
   28.2081    3.3240   -2.0506 H   0  0  0  0  0  0
   28.3741    6.0481   -4.8150 H   0  0  0  0  0  0
   28.2228    6.6899   -3.2043 H   0  0  0  0  0  0
   30.0279    7.7014   -5.1498 H   0  0  0  0  0  0
   33.7979    5.4499   -4.8564 H   0  0  0  0  0  0
   35.6533    5.8500   -3.2618 H   0  0  0  0  0  0
   34.2068    6.7458   -2.8144 H   0  0  0  0  0  0
   35.3673    3.8769   -4.3553 H   0  0  0  0  0  0
   34.9630    4.2125   -1.5885 H   0  0  0  0  0  0
   36.5156    5.9826   -0.9601 H   0  0  0  0  0  0
   35.1159    6.9780   -0.6261 H   0  0  0  0  0  0
   35.4343    4.3087    0.8180 H   0  0  0  0  0  0
   36.2889    5.7220    1.3404 H   0  0  0  0  0  0
   32.7253    5.1418    0.1663 H   0  0  0  0  0  0
   30.7953    5.8499    1.4203 H   0  0  0  0  0  0
   33.3481    7.4426    4.4964 H   0  0  0  0  0  0
   35.3124    6.7181    3.2169 H   0  0  0  0  0  0
   31.1114    7.6901    4.6268 H   0  0  0  0  0  0
   29.0009    8.2242    5.3367 H   0  0  0  0  0  0
   26.6385    7.5395    5.5815 H   0  0  0  0  0  0
   29.6510    4.8242    2.7735 H   0  0  0  0  0  0
   27.2899    4.2500    2.9427 H   0  0  0  0  0  0
  1  2  2  0  0  0
  1  6  1  0  0  0
  1 30  1  0  0  0
  2  3  1  0  0  0
  2  7  1  0  0  0
  3  4  2  0  0  0
  3  8  1  0  0  0
  4  5  1  0  0  0
  4 31  1  0  0  0
  5  6  2  0  0  0
  5 10  1  0  0  0
  6 32  1  0  0  0
  7 33  1  0  0  0
  8  9  1  0  0  0
  8 34  1  0  0  0
  8 35  1  0  0  0
  9 36  1  0  0  0
 10 11  1  0  0  0
 10 12  1  0  0  0
 10 37  1  0  0  0
 11 13  1  0  0  0
 11 38  1  0  0  0
 11 39  1  0  0  0
 12 40  1  0  0  0
 13 14  1  0  0  0
 13 41  1  0  0  0
 14 15  1  0  0  0
 14 42  1  0  0  0
 14 43  1  0  0  0
 15 16  1  0  0  0
 15 44  1  0  0  0
 15 45  1  0  0  0
 16 17  2  0  0  0
 16 21  1  0  0  0
 17 18  1  0  0  0
 17 46  1  0  0  0
 18 19  2  0  0  0
 18 47  1  0  0  0
 19 20  1  0  0  0
 19 22  1  0  0  0
 20 21  2  0  0  0
 20 48  1  0  0  0
 21 49  1  0  0  0
 22 23  1  0  0  0
 22 50  1  0  0  0
 23 24  2  0  0  0
 23 27  1  0  0  0
 24 25  1  0  0  0
 24 51  1  0  0  0
 25 26  2  0  0  0
 25 52  1  0  0  0
 26 28  1  0  0  0
 26 29  1  0  0  0
 27 28  2  0  0  0
 27 53  1  0  0  0
 28 54  1  0  0  0
M  END
> <s_m_entry_id>
3264

> <s_m_entry_name>
dock_pv.356

> <s_m_Source_Path>
/home/csk/Desktop/cluster/DUD-E-result/adrb1

> <s_m_Source_File>
dock_pv.maegz

> <i_m_Source_File_Index>
356

> <chembl_id>
CHEMBL3290995

> <chembl_pref_name>
None

> <i_lp_mmshare_version>
53161

> <i_f3d_flags>
0

> <r_lp_tautomer_probability>
0.999999999997365

> <s_lp_Force_Field>
OPLS_2005

> <r_lp_Energy>
28.516822

> <b_lp_Chiralities_Consistent>
1

> <s_lp_Variant>
CHEMBL213_lig1478-2

> <s_i_glide_gridfile>
glide-grid_2vt4

> <i_i_glide_lignum>
1825

> <i_i_glide_rotatable_bonds>
12

> <r_i_docking_score>
-7.09311266843189

> <r_i_glide_ligand_efficiency>
-0.244590092014893

> <r_i_glide_ligand_efficiency_sa>
-0.751458254249944

> <r_i_glide_ligand_efficiency_ln>
-1.62414293525288

> <r_i_glide_gscore>
-7.09311266843189

> <r_i_glide_lipo>
-2.92389070442275

> <r_i_glide_hbond>
-0.608

> <r_i_glide_metal>
0

> <r_i_glide_rewards>
-1.47609783198801

> <r_i_glide_evdw>
-39.9986953735352

> <r_i_glide_ecoul>
-8.03661727905273

> <r_i_glide_erotb>
1.12030322851354

> <r_i_glide_esite>
0

> <r_i_glide_emodel>
-66.5258502389807

> <r_i_glide_energy>
-48.0353126525879

> <r_i_glide_einternal>
5.7050313949585

> <i_i_glide_confnum>
147

> <i_i_glide_posenum>
376

> <r_i_glide_eff_state_penalty>
0

> <s_user_duplicate_titles>
CHEMBL213_lig1478

> <s_m_subgroup_title>
dock_pv

> <s_m_subgroupid>
dock_pv

> <b_m_subgroup_collapsed>
1

$$$$
CHEMBL213_lig723
                    3D
 Schrodinger Suite 2021-1.
 67 70  0  0  1  0            999 V2000
   34.0289    5.6164   -0.0315 C   0  0  0  0  0  0
   32.6972    5.4504   -0.4102 C   0  0  0  0  0  0
   31.6834    5.4736    0.5354 C   0  0  0  0  0  0
   31.9461    5.8502    1.8564 C   0  0  0  0  0  0
   33.2817    6.0373    2.2429 C   0  0  0  0  0  0
   34.3166    5.8917    1.3110 C   0  0  0  0  0  0
   30.7975    6.0633    2.7852 C   0  0  0  0  0  0
   30.7678    7.1268    3.6966 C   0  0  0  0  0  0
   29.6333    7.3722    4.4750 C   0  0  0  0  0  0
   28.5076    6.5464    4.3569 C   0  0  0  0  0  0
   28.5255    5.4789    3.4587 C   0  0  0  0  0  0
   29.6696    5.2363    2.7053 C   0  0  0  0  0  0
   35.1673    5.5120   -1.0578 C   0  0  0  0  0  0
   34.7975    4.9836   -2.4715 C   0  0  0  0  0  0
   34.4007    3.5800   -2.3889 N   0  0  2  0  0  0
   33.6814    3.0535   -3.5509 C   0  0  0  0  0  0
   32.1883    3.4925   -3.6525 C   0  0  1  0  0  0
   31.4902    2.9418   -4.9085 C   0  0  0  0  0  0
   31.5362    3.1138   -2.4454 O   0  0  0  0  0  0
   30.2858    2.2249   -4.8256 C   0  0  0  0  0  0
   29.6760    1.7246   -5.9720 C   0  0  0  0  0  0
   30.2680    1.9347   -7.2130 C   0  0  0  0  0  0
   31.4601    2.6462   -7.3146 C   0  0  0  0  0  0
   32.0616    3.1600   -6.1689 C   0  0  0  0  0  0
   27.2926    6.7810    5.1863 C   0  0  0  0  0  0
   26.5554    7.8493    4.7847 O   0  0  0  0  0  0
   26.9813    6.0445    6.1207 O   0  0  0  0  0  0
   27.4862    4.5873    3.3932 O   0  0  0  0  0  0
   26.3419    4.8730    2.5852 C   0  0  0  0  0  0
   26.5999    4.4565    1.1174 C   0  0  0  0  0  0
   25.3308    4.4318    0.2402 C   0  0  0  0  0  0
   24.1792    3.6452    0.9047 C   0  0  0  0  0  0
   23.8935    4.0764    2.3559 C   0  0  0  0  0  0
   25.1602    4.0958    3.2226 C   0  0  0  0  0  0
   32.4224    5.2594   -1.4317 H   0  0  0  0  0  0
   30.6681    5.3288    0.1976 H   0  0  0  0  0  0
   33.5180    6.3011    3.2633 H   0  0  0  0  0  0
   35.3391    6.0377    1.6248 H   0  0  0  0  0  0
   31.6140    7.7944    3.7767 H   0  0  0  0  0  0
   29.6366    8.2093    5.1598 H   0  0  0  0  0  0
   29.6854    4.3824    2.0486 H   0  0  0  0  0  0
   35.6059    6.5052   -1.1616 H   0  0  0  0  0  0
   35.9524    4.8791   -0.6398 H   0  0  0  0  0  0
   33.9779    5.5780   -2.8742 H   0  0  0  0  0  0
   35.6378    5.1051   -3.1572 H   0  0  0  0  0  0
   33.8463    3.4330   -1.5533 H   0  0  0  0  0  0
   34.2402    3.3044   -4.4531 H   0  0  0  0  0  0
   33.7057    1.9665   -3.4747 H   0  0  0  0  0  0
   32.1371    4.5787   -3.7277 H   0  0  0  0  0  0
   30.6133    3.3757   -2.5010 H   0  0  0  0  0  0
   29.8088    2.0446   -3.8758 H   0  0  0  0  0  0
   28.7465    1.1794   -5.8950 H   0  0  0  0  0  0
   29.7943    1.5512   -8.1036 H   0  0  0  0  0  0
   31.9140    2.8073   -8.2806 H   0  0  0  0  0  0
   32.9797    3.7204   -6.2682 H   0  0  0  0  0  0
   25.8800    7.9985    5.4515 H   0  0  0  0  0  0
   26.1325    5.9436    2.6242 H   0  0  0  0  0  0
   26.9961    3.4485    1.0981 H   0  0  0  0  0  0
   27.3300    5.1251    0.6596 H   0  0  0  0  0  0
   25.5669    3.9680   -0.7191 H   0  0  0  0  0  0
   25.0194    5.4416   -0.0214 H   0  0  0  0  0  0
   24.4218    2.5808    0.8904 H   0  0  0  0  0  0
   23.2650    3.7507    0.3223 H   0  0  0  0  0  0
   23.1594    3.3956    2.7912 H   0  0  0  0  0  0
   23.4264    5.0510    2.3851 H   0  0  0  0  0  0
   24.9069    4.5462    4.1831 H   0  0  0  0  0  0
   25.4082    3.0497    3.3899 H   0  0  0  0  0  0
  1  6  1  0  0  0
  1 13  1  0  0  0
  1  2  2  0  0  0
  2  3  1  0  0  0
  2 35  1  0  0  0
  3  4  2  0  0  0
  3 36  1  0  0  0
  4  5  1  0  0  0
  4  7  1  0  0  0
  5  6  2  0  0  0
  5 37  1  0  0  0
  6 38  1  0  0  0
  7 12  1  0  0  0
  7  8  2  0  0  0
  8  9  1  0  0  0
  8 39  1  0  0  0
  9 10  2  0  0  0
  9 40  1  0  0  0
 10 11  1  0  0  0
 10 25  1  0  0  0
 11 12  2  0  0  0
 11 28  1  0  0  0
 12 41  1  0  0  0
 13 14  1  0  0  0
 13 42  1  0  0  0
 13 43  1  0  0  0
 14 15  1  0  0  0
 14 44  1  0  0  0
 14 45  1  0  0  0
 15 16  1  0  0  0
 15 46  1  0  0  0
 16 17  1  0  0  0
 16 47  1  0  0  0
 16 48  1  0  0  0
 17 18  1  0  0  0
 17 19  1  0  0  0
 17 49  1  0  0  0
 18 20  2  0  0  0
 18 24  1  0  0  0
 19 50  1  0  0  0
 20 21  1  0  0  0
 20 51  1  0  0  0
 21 22  2  0  0  0
 21 52  1  0  0  0
 22 23  1  0  0  0
 22 53  1  0  0  0
 23 24  2  0  0  0
 23 54  1  0  0  0
 24 55  1  0  0  0
 25 26  1  0  0  0
 25 27  2  0  0  0
 26 56  1  0  0  0
 28 29  1  0  0  0
 29 30  1  0  0  0
 29 34  1  0  0  0
 29 57  1  0  0  0
 30 31  1  0  0  0
 30 58  1  0  0  0
 30 59  1  0  0  0
 31 32  1  0  0  0
 31 60  1  0  0  0
 31 61  1  0  0  0
 32 33  1  0  0  0
 32 62  1  0  0  0
 32 63  1  0  0  0
 33 34  1  0  0  0
 33 64  1  0  0  0
 33 65  1  0  0  0
 34 66  1  0  0  0
 34 67  1  0  0  0
M  END
> <s_m_entry_id>
3265

> <s_m_entry_name>
dock_pv.357

> <s_m_Source_Path>
/home/csk/Desktop/cluster/DUD-E-result/adrb1

> <s_m_Source_File>
dock_pv.maegz

> <i_m_Source_File_Index>
357

> <chembl_id>
CHEMBL409718

> <chembl_pref_name>
None

> <i_lp_mmshare_version>
53161

> <i_f3d_flags>
0

> <r_lp_tautomer_probability>
1

> <s_lp_Force_Field>
OPLS_2005

> <r_lp_Energy>
47.383778

> <b_lp_Chiralities_Consistent>
1

> <s_lp_Variant>
CHEMBL213_lig723-1

> <s_i_glide_gridfile>
glide-grid_2vt4

> <i_i_glide_lignum>
829

> <i_i_glide_rotatable_bonds>
12

> <r_i_docking_score>
-7.09151114896936

> <r_i_glide_ligand_efficiency>
-0.208573857322628

> <r_i_glide_ligand_efficiency_sa>
-0.675698328826101

> <r_i_glide_ligand_efficiency_ln>
-1.56671372295752

> <r_i_glide_gscore>
-7.09151114896936

> <r_i_glide_lipo>
-3.93472961027889

> <r_i_glide_hbond>
0

> <r_i_glide_metal>
0

> <r_i_glide_rewards>
-1.27583676393464

> <r_i_glide_evdw>
-42.9595031738281

> <r_i_glide_ecoul>
-3.93589782714844

> <r_i_glide_erotb>
0.857415058007841

> <r_i_glide_esite>
0

> <r_i_glide_emodel>
-51.9544976096011

> <r_i_glide_energy>
-46.8954010009766

> <r_i_glide_einternal>
21.8301563262939

> <i_i_glide_confnum>
108

> <i_i_glide_posenum>
188

> <r_i_glide_eff_state_penalty>
0

> <s_user_duplicate_titles>
CHEMBL213_lig723,439193

> <s_m_subgroup_title>
dock_pv

> <s_m_subgroupid>
dock_pv

> <b_m_subgroup_collapsed>
1

$$$$
CHEMBL213_lig800
                    3D
 Schrodinger Suite 2021-1.
 61 63  0  0  1  0            999 V2000
   29.5220    1.4523   -6.9257 C   0  0  0  0  0  0
   29.3841    0.7139   -5.7514 C   0  0  0  0  0  0
   30.1473    1.0500   -4.6354 C   0  0  0  0  0  0
   31.0080    2.1302   -4.6720 C   0  0  0  0  0  0
   31.1685    2.8687   -5.8397 C   0  0  0  0  0  0
   30.4374    2.5061   -6.9793 C   0  0  0  0  0  0
   32.0901    4.0832   -5.8078 C   0  0  2  0  0  0
   31.3084    5.3756   -5.4539 C   0  0  0  0  0  0
   32.8150    4.2523   -7.0128 O   0  0  0  0  0  0
   30.7225    5.3509   -4.1066 N   0  0  1  0  0  0
   31.6877    5.6676   -3.0595 C   0  0  0  0  0  0
   31.6671    4.6978   -1.8617 C   0  0  0  0  0  0
   30.6189    4.9367   -0.7749 C   0  0  0  0  0  0
   31.0423    5.0500    0.5507 C   0  0  0  0  0  0
   30.1345    5.0500    1.5946 C   0  0  0  0  0  0
   28.7636    5.0500    1.3274 C   0  0  0  0  0  0
   28.3374    5.0420   -0.0150 C   0  0  0  0  0  0
   29.2552    4.9450   -1.0586 C   0  0  0  0  0  0
   27.7847    5.1971    2.4403 C   0  0  0  0  0  0
   28.0868    5.9001    3.6110 C   0  0  0  0  0  0
   27.1197    6.1109    4.5900 C   0  0  0  0  0  0
   25.8114    5.6329    4.4188 C   0  0  0  0  0  0
   25.5035    4.8970    3.2514 C   0  0  0  0  0  0
   26.5052    4.6738    2.3064 C   0  0  0  0  0  0
   24.7804    5.8500    5.5081 C   0  0  0  0  0  0
   23.8061    5.1164    5.6513 O   0  0  0  0  0  0
   25.0080    6.9163    6.3211 O   0  0  0  0  0  0
   24.2080    4.4607    3.0537 O   0  0  0  0  0  0
   23.7928    3.5557    2.0249 C   0  0  0  0  0  0
   24.4834    2.1962    2.1551 C   0  0  0  0  0  0
   23.8212    4.0484    0.5607 C   0  0  0  0  0  0
   28.7504    1.1461   -8.0150 O   0  0  0  0  0  0
   28.6865   -0.1096   -5.7005 H   0  0  0  0  0  0
   30.0829    0.5017   -3.7141 H   0  0  0  0  0  0
   31.5827    2.3657   -3.7941 H   0  0  0  0  0  0
   30.5774    3.0500   -7.8981 H   0  0  0  0  0  0
   32.8600    3.9117   -5.0528 H   0  0  0  0  0  0
   30.4916    5.4968   -6.1663 H   0  0  0  0  0  0
   31.9457    6.2500   -5.5684 H   0  0  0  0  0  0
   33.3794    5.0266   -6.9296 H   0  0  0  0  0  0
   29.9319    5.9818   -4.0697 H   0  0  0  0  0  0
   31.4080    6.6500   -2.6970 H   0  0  0  0  0  0
   32.7081    5.7798   -3.4323 H   0  0  0  0  0  0
   32.6557    4.7451   -1.4025 H   0  0  0  0  0  0
   31.5741    3.6679   -2.1897 H   0  0  0  0  0  0
   32.0965    5.0515    0.7879 H   0  0  0  0  0  0
   30.5084    5.0730    2.6082 H   0  0  0  0  0  0
   27.2880    5.0848   -0.2674 H   0  0  0  0  0  0
   28.9029    4.8599   -2.0765 H   0  0  0  0  0  0
   29.0699    6.3219    3.7595 H   0  0  0  0  0  0
   27.4130    6.6546    5.4771 H   0  0  0  0  0  0
   26.3059    4.0988    1.4266 H   0  0  0  0  0  0
   25.8041    7.4122    6.1183 H   0  0  0  0  0  0
   22.7407    3.4094    2.2673 H   0  0  0  0  0  0
   23.8080    1.4500    1.7596 H   0  0  0  0  0  0
   24.7107    1.9374    3.1850 H   0  0  0  0  0  0
   25.4080    2.1266    1.5849 H   0  0  0  0  0  0
   23.2098    3.3582   -0.0150 H   0  0  0  0  0  0
   23.4080    5.0371    0.3850 H   0  0  0  0  0  0
   24.7968    4.0281    0.0833 H   0  0  0  0  0  0
   28.8760    1.7482   -8.7528 H   0  0  0  0  0  0
  1  6  1  0  0  0
  1  2  2  0  0  0
  1 32  1  0  0  0
  2  3  1  0  0  0
  2 33  1  0  0  0
  3  4  2  0  0  0
  3 34  1  0  0  0
  4  5  1  0  0  0
  4 35  1  0  0  0
  5  6  2  0  0  0
  5  7  1  0  0  0
  6 36  1  0  0  0
  7  8  1  0  0  0
  7  9  1  0  0  0
  7 37  1  0  0  0
  8 10  1  0  0  0
  8 38  1  0  0  0
  8 39  1  0  0  0
  9 40  1  0  0  0
 10 11  1  0  0  0
 10 41  1  0  0  0
 11 12  1  0  0  0
 11 42  1  0  0  0
 11 43  1  0  0  0
 12 13  1  0  0  0
 12 44  1  0  0  0
 12 45  1  0  0  0
 13 18  1  0  0  0
 13 14  2  0  0  0
 14 15  1  0  0  0
 14 46  1  0  0  0
 15 16  2  0  0  0
 15 47  1  0  0  0
 16 17  1  0  0  0
 16 19  1  0  0  0
 17 18  2  0  0  0
 17 48  1  0  0  0
 18 49  1  0  0  0
 19 20  2  0  0  0
 19 24  1  0  0  0
 20 21  1  0  0  0
 20 50  1  0  0  0
 21 22  2  0  0  0
 21 51  1  0  0  0
 22 23  1  0  0  0
 22 25  1  0  0  0
 23 24  2  0  0  0
 23 28  1  0  0  0
 24 52  1  0  0  0
 25 26  2  0  0  0
 25 27  1  0  0  0
 27 53  1  0  0  0
 28 29  1  0  0  0
 29 30  1  0  0  0
 29 31  1  0  0  0
 29 54  1  0  0  0
 30 55  1  0  0  0
 30 56  1  0  0  0
 30 57  1  0  0  0
 31 58  1  0  0  0
 31 59  1  0  0  0
 31 60  1  0  0  0
 32 61  1  0  0  0
M  END
> <s_m_entry_id>
3266

> <s_m_entry_name>
dock_pv.358

> <s_m_Source_Path>
/home/csk/Desktop/cluster/DUD-E-result/adrb1

> <s_m_Source_File>
dock_pv.maegz

> <i_m_Source_File_Index>
358

> <chembl_id>
CHEMBL518168

> <chembl_pref_name>
None

> <i_lp_mmshare_version>
53161

> <i_f3d_flags>
0

> <r_lp_tautomer_probability>
0.999999999997365

> <s_lp_Force_Field>
OPLS_2005

> <r_lp_Energy>
29.17816

> <b_lp_Chiralities_Consistent>
1

> <s_lp_Variant>
CHEMBL213_lig800-1

> <s_i_glide_gridfile>
glide-grid_2vt4

> <i_i_glide_lignum>
908

> <i_i_glide_rotatable_bonds>
13

> <r_i_docking_score>
-7.08613338556992

> <r_i_glide_ligand_efficiency>
-0.22144166829906

> <r_i_glide_ligand_efficiency_sa>
-0.703033473602865

> <r_i_glide_ligand_efficiency_ln>
-1.58677842572987

> <r_i_glide_gscore>
-7.08613338556992

> <r_i_glide_lipo>
-3.5691071577297

> <r_i_glide_hbond>
-0.190315748646338

> <r_i_glide_metal>
0

> <r_i_glide_rewards>
-1.49534532699406

> <r_i_glide_evdw>
-35.0065727233887

> <r_i_glide_ecoul>
-6.84324932098389

> <r_i_glide_erotb>
0.9454508821172

> <r_i_glide_esite>
0

> <r_i_glide_emodel>
-55.6955682503395

> <r_i_glide_energy>
-41.8498220443726

> <r_i_glide_einternal>
8.31794929504395

> <i_i_glide_confnum>
147

> <i_i_glide_posenum>
179

> <r_i_glide_eff_state_penalty>
0

> <s_user_duplicate_titles>
CHEMBL213_lig800,447577

> <s_m_subgroup_title>
dock_pv

> <s_m_subgroupid>
dock_pv

> <b_m_subgroup_collapsed>
1

$$$$
CHEMBL213_lig939
                    3D
 Schrodinger Suite 2021-1.
 59 61  0  0  1  0            999 V2000
   27.4826    5.1521    2.9064 C   0  0  0  0  0  0
   26.4534    5.3413    3.8253 C   0  0  0  0  0  0
   26.6834    6.0335    5.0106 C   0  0  0  0  0  0
   27.9570    6.5224    5.2849 C   0  0  0  0  0  0
   29.0053    6.3275    4.3851 C   0  0  0  0  0  0
   28.7583    5.6407    3.1853 C   0  0  0  0  0  0
   25.2097    4.8321    3.5704 O   0  0  0  0  0  0
   30.2378    6.8133    4.7804 O   0  0  0  0  0  0
   31.3523    6.7759    3.8838 C   0  0  0  0  0  0
   32.6644    6.9932    4.6727 C   0  0  2  0  0  0
   33.8645    7.3839    3.7754 C   0  0  0  0  0  0
   34.2581    6.3144    2.8632 N   0  0  1  0  0  0
   35.3991    6.7092    2.0448 C   0  0  0  0  0  0
   35.7918    5.6105    1.0334 C   0  0  0  0  0  0
   34.9430    5.5521   -0.2354 C   0  0  0  0  0  0
   33.5532    5.4501   -0.1572 C   0  0  0  0  0  0
   32.7901    5.3277   -1.3113 C   0  0  0  0  0  0
   33.4110    5.3174   -2.5674 C   0  0  0  0  0  0
   34.7996    5.4386   -2.6493 C   0  0  0  0  0  0
   35.5623    5.5548   -1.4902 C   0  0  0  0  0  0
   32.7164    5.1499   -3.7774 N   0  0  0  0  0  0
   31.4162    5.3964   -4.0369 C   0  0  0  0  0  0
   30.9523    5.1101   -5.4669 C   0  0  0  0  0  0
   30.6115    5.8505   -3.2252 O   0  0  0  0  0  0
   30.4531    3.6733   -5.6406 C   0  0  0  0  0  0
   31.1343    2.7329   -6.4350 C   0  0  0  0  0  0
   30.6085    1.4504   -6.6101 C   0  0  0  0  0  0
   29.4126    1.0866   -5.9950 C   0  0  0  0  0  0
   28.7301    2.0152   -5.2151 C   0  0  0  0  0  0
   29.2516    3.2935   -5.0295 C   0  0  0  0  0  0
   33.0081    5.8500    5.4360 O   0  0  0  0  0  0
   32.6307    3.1044   -7.2153 Cl  0  0  0  0  0  0
   27.3055    4.6166    1.9848 H   0  0  0  0  0  0
   25.8809    6.1850    5.7174 H   0  0  0  0  0  0
   28.1333    7.0495    6.2119 H   0  0  0  0  0  0
   29.5385    5.4623    2.4622 H   0  0  0  0  0  0
   25.1428    4.4205    2.7049 H   0  0  0  0  0  0
   31.2197    7.5737    3.1508 H   0  0  0  0  0  0
   31.4328    5.8474    3.3228 H   0  0  0  0  0  0
   32.4843    7.7800    5.4039 H   0  0  0  0  0  0
   34.7064    7.6731    4.4080 H   0  0  0  0  0  0
   33.5856    8.2547    3.1846 H   0  0  0  0  0  0
   34.4470    5.4742    3.3925 H   0  0  0  0  0  0
   36.2615    6.9877    2.6535 H   0  0  0  0  0  0
   35.1146    7.6016    1.4828 H   0  0  0  0  0  0
   35.7839    4.6281    1.5049 H   0  0  0  0  0  0
   36.8307    5.7826    0.7484 H   0  0  0  0  0  0
   33.0535    5.4313    0.7980 H   0  0  0  0  0  0
   31.7232    5.2084   -1.2030 H   0  0  0  0  0  0
   35.3027    5.4318   -3.6073 H   0  0  0  0  0  0
   36.6381    5.6262   -1.5740 H   0  0  0  0  0  0
   33.2851    4.8606   -4.5599 H   0  0  0  0  0  0
   31.7489    5.3577   -6.1662 H   0  0  0  0  0  0
   30.1436    5.7984   -5.7178 H   0  0  0  0  0  0
   31.1407    0.7307   -7.2155 H   0  0  0  0  0  0
   29.0133    0.0897   -6.1095 H   0  0  0  0  0  0
   27.8028    1.7405   -4.7341 H   0  0  0  0  0  0
   28.7049    3.9964   -4.4150 H   0  0  0  0  0  0
   32.4043    5.1356    5.1851 H   0  0  0  0  0  0
  1  6  1  0  0  0
  1  2  2  0  0  0
  1 33  1  0  0  0
  2  3  1  0  0  0
  2  7  1  0  0  0
  3  4  2  0  0  0
  3 34  1  0  0  0
  4  5  1  0  0  0
  4 35  1  0  0  0
  5  8  1  0  0  0
  5  6  2  0  0  0
  6 36  1  0  0  0
  7 37  1  0  0  0
  8  9  1  0  0  0
  9 10  1  0  0  0
  9 38  1  0  0  0
  9 39  1  0  0  0
 10 11  1  0  0  0
 10 31  1  0  0  0
 10 40  1  0  0  0
 11 12  1  0  0  0
 11 41  1  0  0  0
 11 42  1  0  0  0
 12 13  1  0  0  0
 12 43  1  0  0  0
 13 14  1  0  0  0
 13 44  1  0  0  0
 13 45  1  0  0  0
 14 15  1  0  0  0
 14 46  1  0  0  0
 14 47  1  0  0  0
 15 16  2  0  0  0
 15 20  1  0  0  0
 16 17  1  0  0  0
 16 48  1  0  0  0
 17 18  2  0  0  0
 17 49  1  0  0  0
 18 19  1  0  0  0
 18 21  1  0  0  0
 19 20  2  0  0  0
 19 50  1  0  0  0
 20 51  1  0  0  0
 21 22  1  0  0  0
 21 52  1  0  0  0
 22 23  1  0  0  0
 22 24  2  0  0  0
 23 25  1  0  0  0
 23 53  1  0  0  0
 23 54  1  0  0  0
 25 26  2  0  0  0
 25 30  1  0  0  0
 26 27  1  0  0  0
 26 32  1  0  0  0
 27 28  2  0  0  0
 27 55  1  0  0  0
 28 29  1  0  0  0
 28 56  1  0  0  0
 29 30  2  0  0  0
 29 57  1  0  0  0
 30 58  1  0  0  0
 31 59  1  0  0  0
M  END
> <s_m_entry_id>
3267

> <s_m_entry_name>
dock_pv.359

> <s_m_Source_Path>
/home/csk/Desktop/cluster/DUD-E-result/adrb1

> <s_m_Source_File>
dock_pv.maegz

> <i_m_Source_File_Index>
359

> <chembl_id>
CHEMBL564544

> <chembl_pref_name>
None

> <i_lp_mmshare_version>
53161

> <i_f3d_flags>
0

> <r_lp_tautomer_probability>
0.999999999999998

> <s_lp_Force_Field>
OPLS_2005

> <r_lp_Energy>
33.438328

> <b_lp_Chiralities_Consistent>
1

> <s_lp_Variant>
CHEMBL213_lig939-1

> <s_i_glide_gridfile>
glide-grid_2vt4

> <i_i_glide_lignum>
1050

> <i_i_glide_rotatable_bonds>
14

> <r_i_docking_score>
-7.08581997577088

> <r_i_glide_ligand_efficiency>
-0.22143187424284

> <r_i_glide_ligand_efficiency_sa>
-0.703002379412609

> <r_i_glide_ligand_efficiency_ln>
-1.58670824473264

> <r_i_glide_gscore>
-7.08581997577088

> <r_i_glide_lipo>
-3.34929851443328

> <r_i_glide_hbond>
-0.226513682878378

> <r_i_glide_metal>
0

> <r_i_glide_rewards>
-0.78912747132515

> <r_i_glide_evdw>
-51.1220169067383

> <r_i_glide_ecoul>
-8.21488571166992

> <r_i_glide_erotb>
1.06745339495333

> <r_i_glide_esite>
0

> <r_i_glide_emodel>
-81.4515987244176

> <r_i_glide_energy>
-59.3369026184082

> <r_i_glide_einternal>
9.1443338394165

> <i_i_glide_confnum>
2

> <i_i_glide_posenum>
306

> <r_i_glide_eff_state_penalty>
0

> <s_user_duplicate_titles>
CHEMBL213_lig939,564756

> <s_m_subgroup_title>
dock_pv

> <s_m_subgroupid>
dock_pv

> <b_m_subgroup_collapsed>
1

$$$$
CHEMBL213_lig938
                    3D
 Schrodinger Suite 2021-1.
 61 63  0  0  1  0            999 V2000
   34.1802    5.9433    3.9814 C   0  0  0  0  0  0
   35.2201    6.5986    4.6353 C   0  0  0  0  0  0
   36.2007    7.2681    3.9095 C   0  0  0  0  0  0
   36.1466    7.2669    2.5178 C   0  0  0  0  0  0
   35.1202    6.6013    1.8471 C   0  0  0  0  0  0
   34.1272    5.9482    2.5890 C   0  0  0  0  0  0
   35.2787    6.5809    6.0019 O   0  0  0  0  0  0
   35.1578    6.6499    0.4681 O   0  0  0  0  0  0
   34.2631    5.8462   -0.3078 C   0  0  0  0  0  0
   34.6023    6.0329   -1.8035 C   0  0  2  0  0  0
   33.6712    5.3023   -2.8026 C   0  0  0  0  0  0
   32.3135    5.8499   -2.8154 N   0  0  1  0  0  0
   31.6167    5.4984   -4.0518 C   0  0  0  0  0  0
   30.2448    6.2084   -4.1449 C   0  0  0  0  0  0
   29.1719    5.8205   -3.1235 C   0  0  0  0  0  0
   29.2828    4.6691   -2.3371 C   0  0  0  0  0  0
   28.3079    4.3713   -1.3925 C   0  0  0  0  0  0
   27.1974    5.2081   -1.2343 C   0  0  0  0  0  0
   27.0748    6.3462   -2.0316 C   0  0  0  0  0  0
   28.0527    6.6468   -2.9790 C   0  0  0  0  0  0
   26.2186    5.0042   -0.2460 N   0  0  0  0  0  0
   25.9021    3.8501    0.3831 C   0  0  0  0  0  0
   25.1796    4.0211    1.7521 C   0  0  2  0  0  0
   26.2080    2.7239   -0.0154 O   0  0  0  0  0  0
   25.9860    4.7473    2.8267 C   0  0  0  0  0  0
   27.3565    5.0503    2.7196 C   0  0  0  0  0  0
   28.0165    5.7434    3.7304 C   0  0  0  0  0  0
   27.3127    6.1514    4.8606 C   0  0  0  0  0  0
   25.9600    5.8520    4.9918 C   0  0  0  0  0  0
   25.3102    5.1413    3.9854 C   0  0  0  0  0  0
   35.9153    5.5535   -2.0396 O   0  0  0  0  0  0
   24.5955    2.7235    2.1519 N   0  0  0  0  0  0
   33.4151    5.4350    4.5520 H   0  0  0  0  0  0
   37.0041    7.7851    4.4108 H   0  0  0  0  0  0
   36.9055    7.7820    1.9491 H   0  0  0  0  0  0
   33.3053    5.4508    2.1006 H   0  0  0  0  0  0
   36.0459    7.0397    6.3464 H   0  0  0  0  0  0
   33.2336    6.1582   -0.1229 H   0  0  0  0  0  0
   34.3403    4.7947   -0.0290 H   0  0  0  0  0  0
   34.6063    7.1021   -2.0140 H   0  0  0  0  0  0
   33.6336    4.2343   -2.5797 H   0  0  0  0  0  0
   34.1019    5.4089   -3.8013 H   0  0  0  0  0  0
   31.7872    5.4494   -2.0473 H   0  0  0  0  0  0
   31.4752    4.4178   -4.0736 H   0  0  0  0  0  0
   32.2085    5.7577   -4.9328 H   0  0  0  0  0  0
   29.8300    6.0315   -5.1386 H   0  0  0  0  0  0
   30.4100    7.2847   -4.0828 H   0  0  0  0  0  0
   30.1159    3.9917   -2.4384 H   0  0  0  0  0  0
   28.4340    3.4785   -0.7992 H   0  0  0  0  0  0
   26.2209    6.9991   -1.9259 H   0  0  0  0  0  0
   27.9442    7.5327   -3.5888 H   0  0  0  0  0  0
   25.7805    5.8453    0.0944 H   0  0  0  0  0  0
   24.3223    4.6480    1.5099 H   0  0  0  0  0  0
   27.9320    4.7496    1.8565 H   0  0  0  0  0  0
   29.0701    5.9675    3.6359 H   0  0  0  0  0  0
   27.8162    6.7018    5.6436 H   0  0  0  0  0  0
   25.4177    6.1670    5.8708 H   0  0  0  0  0  0
   24.2623    4.9031    4.1029 H   0  0  0  0  0  0
   36.2162    5.8463   -2.9062 H   0  0  0  0  0  0
   23.8973    2.4416    1.4742 H   0  0  0  0  0  0
   25.3134    2.0119    2.0955 H   0  0  0  0  0  0
  1  6  1  0  0  0
  1  2  2  0  0  0
  1 33  1  0  0  0
  2  3  1  0  0  0
  2  7  1  0  0  0
  3  4  2  0  0  0
  3 34  1  0  0  0
  4  5  1  0  0  0
  4 35  1  0  0  0
  5  8  1  0  0  0
  5  6  2  0  0  0
  6 36  1  0  0  0
  7 37  1  0  0  0
  8  9  1  0  0  0
  9 10  1  0  0  0
  9 38  1  0  0  0
  9 39  1  0  0  0
 10 11  1  0  0  0
 10 31  1  0  0  0
 10 40  1  0  0  0
 11 12  1  0  0  0
 11 41  1  0  0  0
 11 42  1  0  0  0
 12 13  1  0  0  0
 12 43  1  0  0  0
 13 14  1  0  0  0
 13 44  1  0  0  0
 13 45  1  0  0  0
 14 15  1  0  0  0
 14 46  1  0  0  0
 14 47  1  0  0  0
 15 16  2  0  0  0
 15 20  1  0  0  0
 16 17  1  0  0  0
 16 48  1  0  0  0
 17 18  2  0  0  0
 17 49  1  0  0  0
 18 19  1  0  0  0
 18 21  1  0  0  0
 19 20  2  0  0  0
 19 50  1  0  0  0
 20 51  1  0  0  0
 21 22  1  0  0  0
 21 52  1  0  0  0
 22 23  1  0  0  0
 22 24  2  0  0  0
 23 25  1  0  0  0
 23 32  1  0  0  0
 23 53  1  0  0  0
 25 26  2  0  0  0
 25 30  1  0  0  0
 26 27  1  0  0  0
 26 54  1  0  0  0
 27 28  2  0  0  0
 27 55  1  0  0  0
 28 29  1  0  0  0
 28 56  1  0  0  0
 29 30  2  0  0  0
 29 57  1  0  0  0
 30 58  1  0  0  0
 31 59  1  0  0  0
 32 60  1  0  0  0
 32 61  1  0  0  0
M  END
> <s_m_entry_id>
3268

> <s_m_entry_name>
dock_pv.360

> <s_m_Source_Path>
/home/csk/Desktop/cluster/DUD-E-result/adrb1

> <s_m_Source_File>
dock_pv.maegz

> <i_m_Source_File_Index>
360

> <chembl_id>
CHEMBL550743

> <chembl_pref_name>
None

> <i_lp_mmshare_version>
53161

> <i_f3d_flags>
0

> <r_lp_tautomer_probability>
0.999999999999998

> <s_lp_Force_Field>
OPLS_2005

> <r_lp_Energy>
36.120839

> <b_lp_Chiralities_Consistent>
1

> <s_lp_Variant>
CHEMBL213_lig938-1

> <s_i_glide_gridfile>
glide-grid_2vt4

> <i_i_glide_lignum>
1048

> <i_i_glide_rotatable_bonds>
14

> <r_i_docking_score>
-7.08540757982253

> <r_i_glide_ligand_efficiency>
-0.221418986869454

> <r_i_glide_ligand_efficiency_sa>
-0.702961464552516

> <r_i_glide_ligand_efficiency_ln>
-1.58661589803831

> <r_i_glide_gscore>
-7.08540757982253

> <r_i_glide_lipo>
-3.0965319850963

> <r_i_glide_hbond>
-0.321710512038153

> <r_i_glide_metal>
0

> <r_i_glide_rewards>
-1.13099709826795

> <r_i_glide_evdw>
-53.1850051879883

> <r_i_glide_ecoul>
-6.62491989135742

> <r_i_glide_erotb>
1.15553520148557

> <r_i_glide_esite>
-0.038714942802666

> <r_i_glide_emodel>
-77.0750690031771

> <r_i_glide_energy>
-59.8099250793457

> <r_i_glide_einternal>
14.6427030563354

> <i_i_glide_confnum>
7

> <i_i_glide_posenum>
94

> <r_i_glide_eff_state_penalty>
0

> <s_user_duplicate_titles>
CHEMBL213_lig938,564755

> <s_m_subgroup_title>
dock_pv

> <s_m_subgroupid>
dock_pv

> <b_m_subgroup_collapsed>
1

$$$$
CHEMBL213_lig719
                    3D
 Schrodinger Suite 2021-1.
 65 68  0  0  1  0            999 V2000
   31.5152    7.1607    3.3789 C   0  0  0  0  0  0
   31.5182    6.2141    2.3657 C   0  0  0  0  0  0
   30.4579    5.3263    2.2264 C   0  0  0  0  0  0
   29.4037    5.3630    3.1361 C   0  0  0  0  0  0
   29.3964    6.2920    4.1833 C   0  0  0  0  0  0
   30.4550    7.2102    4.2765 C   0  0  0  0  0  0
   28.3123    6.2274    5.2762 C   0  0  2  0  0  0
   26.8560    6.4296    4.8149 C   0  0  0  0  0  0
   28.6083    7.0500    6.3872 O   0  0  0  0  0  0
   26.3800    5.1856    4.2137 N   0  0  1  0  0  0
   25.0627    5.3073    3.6252 C   0  0  0  0  0  0
   24.8947    4.2506    2.5094 C   0  0  0  0  0  0
   25.8242    4.3833    1.2957 C   0  0  0  0  0  0
   25.7693    3.4219    0.2907 C   0  0  0  0  0  0
   26.6075    3.5280   -0.8150 C   0  0  0  0  0  0
   27.5278    4.5773   -0.9457 C   0  0  0  0  0  0
   27.5392    5.5510    0.0433 C   0  0  0  0  0  0
   26.7049    5.4608    1.1463 C   0  0  0  0  0  0
   28.4820    4.6548   -2.0954 C   0  0  0  0  0  0
   28.0849    4.2496   -3.3682 C   0  0  0  0  0  0
   28.9980    4.1458   -4.4077 C   0  0  0  0  0  0
   30.3264    4.5632   -4.2512 C   0  0  0  0  0  0
   30.7126    5.1021   -3.0098 C   0  0  0  0  0  0
   29.8055    5.0970   -1.9387 C   0  0  0  0  0  0
   31.2917    4.4480   -5.4085 C   0  0  0  0  0  0
   32.2878    5.1517   -5.5342 O   0  0  0  0  0  0
   30.9837    3.4509   -6.2846 O   0  0  0  0  0  0
   31.9496    5.6881   -2.8484 O   0  0  0  0  0  0
   32.8954    5.0405   -2.0041 C   0  0  0  0  0  0
   34.0362    4.4332   -2.8411 C   0  0  0  0  0  0
   35.1504    3.8953   -1.9202 C   0  0  0  0  0  0
   35.5956    4.9235   -1.0344 O   0  0  0  0  0  0
   34.5801    5.4421   -0.1781 C   0  0  0  0  0  0
   33.4826    6.0828   -1.0455 C   0  0  0  0  0  0
   32.3387    7.8519    3.4738 H   0  0  0  0  0  0
   32.3569    6.1689    1.6908 H   0  0  0  0  0  0
   30.4699    4.5854    1.4409 H   0  0  0  0  0  0
   28.6397    4.6092    3.0512 H   0  0  0  0  0  0
   30.4926    7.9456    5.0662 H   0  0  0  0  0  0
   28.3120    5.2254    5.6984 H   0  0  0  0  0  0
   26.7921    7.2745    4.1283 H   0  0  0  0  0  0
   26.2147    6.6405    5.6743 H   0  0  0  0  0  0
   27.8140    7.5380    6.6484 H   0  0  0  0  0  0
   27.0231    4.8551    3.5072 H   0  0  0  0  0  0
   25.0075    6.3047    3.1903 H   0  0  0  0  0  0
   24.2878    5.2095    4.3865 H   0  0  0  0  0  0
   23.8664    4.2865    2.1463 H   0  0  0  0  0  0
   25.0212    3.2542    2.9370 H   0  0  0  0  0  0
   25.0773    2.5950    0.3554 H   0  0  0  0  0  0
   26.5376    2.7801   -1.5843 H   0  0  0  0  0  0
   28.2028    6.3904   -0.0477 H   0  0  0  0  0  0
   26.7577    6.2605    1.8666 H   0  0  0  0  0  0
   27.0698    3.9196   -3.5393 H   0  0  0  0  0  0
   28.6354    3.7295   -5.3317 H   0  0  0  0  0  0
   30.1414    5.4477   -0.9758 H   0  0  0  0  0  0
   30.2449    2.9403   -5.9542 H   0  0  0  0  0  0
   32.4231    4.2543   -1.4110 H   0  0  0  0  0  0
   34.4765    5.1973   -3.4844 H   0  0  0  0  0  0
   33.6639    3.6229   -3.4683 H   0  0  0  0  0  0
   35.9998    3.5521   -2.5137 H   0  0  0  0  0  0
   34.8057    3.0370   -1.3456 H   0  0  0  0  0  0
   35.0201    6.1883    0.4839 H   0  0  0  0  0  0
   34.1805    4.6503    0.4582 H   0  0  0  0  0  0
   32.6983    6.4905   -0.4154 H   0  0  0  0  0  0
   33.9433    6.8971   -1.6048 H   0  0  0  0  0  0
  1  6  1  0  0  0
  1  2  2  0  0  0
  1 35  1  0  0  0
  2  3  1  0  0  0
  2 36  1  0  0  0
  3  4  2  0  0  0
  3 37  1  0  0  0
  4  5  1  0  0  0
  4 38  1  0  0  0
  5  6  2  0  0  0
  5  7  1  0  0  0
  6 39  1  0  0  0
  7  9  1  0  0  0
  7  8  1  0  0  0
  7 40  1  0  0  0
  8 10  1  0  0  0
  8 41  1  0  0  0
  8 42  1  0  0  0
  9 43  1  0  0  0
 10 11  1  0  0  0
 10 44  1  0  0  0
 11 12  1  0  0  0
 11 45  1  0  0  0
 11 46  1  0  0  0
 12 13  1  0  0  0
 12 47  1  0  0  0
 12 48  1  0  0  0
 13 18  1  0  0  0
 13 14  2  0  0  0
 14 15  1  0  0  0
 14 49  1  0  0  0
 15 16  2  0  0  0
 15 50  1  0  0  0
 16 17  1  0  0  0
 16 19  1  0  0  0
 17 18  2  0  0  0
 17 51  1  0  0  0
 18 52  1  0  0  0
 19 20  2  0  0  0
 19 24  1  0  0  0
 20 21  1  0  0  0
 20 53  1  0  0  0
 21 22  2  0  0  0
 21 54  1  0  0  0
 22 23  1  0  0  0
 22 25  1  0  0  0
 23 24  2  0  0  0
 23 28  1  0  0  0
 24 55  1  0  0  0
 25 26  2  0  0  0
 25 27  1  0  0  0
 27 56  1  0  0  0
 28 29  1  0  0  0
 29 30  1  0  0  0
 29 34  1  0  0  0
 29 57  1  0  0  0
 30 31  1  0  0  0
 30 58  1  0  0  0
 30 59  1  0  0  0
 31 32  1  0  0  0
 31 60  1  0  0  0
 31 61  1  0  0  0
 32 33  1  0  0  0
 33 34  1  0  0  0
 33 62  1  0  0  0
 33 63  1  0  0  0
 34 64  1  0  0  0
 34 65  1  0  0  0
M  END
> <s_m_entry_id>
3269

> <s_m_entry_name>
dock_pv.361

> <s_m_Source_Path>
/home/csk/Desktop/cluster/DUD-E-result/adrb1

> <s_m_Source_File>
dock_pv.maegz

> <i_m_Source_File_Index>
361

> <chembl_id>
CHEMBL271401

> <chembl_pref_name>
None

> <i_lp_mmshare_version>
53161

> <i_f3d_flags>
0

> <r_lp_tautomer_probability>
1

> <s_lp_Force_Field>
OPLS_2005

> <r_lp_Energy>
39.305917

> <b_lp_Chiralities_Consistent>
1

> <s_lp_Variant>
CHEMBL213_lig719-1

> <s_i_glide_gridfile>
glide-grid_2vt4

> <i_i_glide_lignum>
825

> <i_i_glide_rotatable_bonds>
12

> <r_i_docking_score>
-7.07935824688295

> <r_i_glide_ligand_efficiency>
-0.208216419025969

> <r_i_glide_ligand_efficiency_sa>
-0.674540367503376

> <r_i_glide_ligand_efficiency_ln>
-1.56402880600928

> <r_i_glide_gscore>
-7.07935824688295

> <r_i_glide_lipo>
-2.98786080752085

> <r_i_glide_hbond>
-0.769006790313664

> <r_i_glide_metal>
0

> <r_i_glide_rewards>
-1.14518001299225

> <r_i_glide_evdw>
-40.6764183044434

> <r_i_glide_ecoul>
-6.62827014923096

> <r_i_glide_erotb>
0.850750801550629

> <r_i_glide_esite>
0

> <r_i_glide_emodel>
-62.6649406614209

> <r_i_glide_energy>
-47.3046884536743

> <r_i_glide_einternal>
9.63308525085449

> <i_i_glide_confnum>
33

> <i_i_glide_posenum>
306

> <r_i_glide_eff_state_penalty>
0

> <s_user_duplicate_titles>
CHEMBL213_lig719

> <s_m_subgroup_title>
dock_pv

> <s_m_subgroupid>
dock_pv

> <b_m_subgroup_collapsed>
1

$$$$
CHEMBL213_lig796
                    3D
 Schrodinger Suite 2021-1.
 69 71  0  0  1  0            999 V2000
   33.0631    4.8265   -4.6417 C   0  0  0  0  0  0
   33.9069    4.7803   -5.7651 C   0  0  0  0  0  0
   35.1927    4.2499   -5.6619 C   0  0  0  0  0  0
   35.6653    3.7866   -4.4372 C   0  0  0  0  0  0
   34.8486    3.8361   -3.3039 C   0  0  0  0  0  0
   33.5457    4.3387   -3.4185 C   0  0  0  0  0  0
   35.3797    3.3951   -1.9361 C   0  0  2  0  0  0
   36.1099    4.5110   -1.1468 C   0  0  0  0  0  0
   36.2078    2.2513   -2.0153 O   0  0  0  0  0  0
   35.2493    5.6838   -0.9880 N   0  0  1  0  0  0
   35.6811    6.6176    0.0471 C   0  0  0  0  0  0
   35.4007    6.1456    1.4995 C   0  0  0  0  0  0
   33.9476    6.2186    1.9852 C   0  0  0  0  0  0
   32.8833    5.8500    1.1606 C   0  0  0  0  0  0
   31.5784    5.8538    1.6361 C   0  0  0  0  0  0
   31.2848    6.2530    2.9493 C   0  0  0  0  0  0
   32.3623    6.6499    3.7631 C   0  0  0  0  0  0
   33.6743    6.6231    3.2910 C   0  0  0  0  0  0
   29.8674    6.2501    3.4635 C   0  0  0  0  0  0
   29.5011    7.0018    4.5886 C   0  0  0  0  0  0
   28.1969    6.9878    5.0736 C   0  0  0  0  0  0
   27.1848    6.2939    4.3954 C   0  0  0  0  0  0
   27.5125    5.5639    3.2336 C   0  0  0  0  0  0
   28.8560    5.5038    2.8279 C   0  0  0  0  0  0
   25.7656    6.3249    4.9145 C   0  0  0  0  0  0
   24.9723    5.4134    4.7262 O   0  0  0  0  0  0
   25.4080    7.4501    5.5850 O   0  0  0  0  0  0
   26.4881    4.9530    2.5239 O   0  0  0  0  0  0
   26.6080    4.5744    1.1468 C   0  0  0  0  0  0
   26.8844    5.7645    0.2048 C   0  0  0  0  0  0
   25.3092    3.8446    0.7740 C   0  0  0  0  0  0
   31.8080    5.4500   -4.7830 N   0  0  0  0  0  0
   30.4133    5.3200   -3.7006 S   0  0  0  0  0  0
   29.8229    3.5708   -4.0150 C   0  0  0  0  0  0
   30.8850    5.4445   -2.3182 O   0  0  0  0  0  0
   29.4089    6.2470   -4.2265 O   0  0  0  0  0  0
   33.5205    5.3122   -6.9707 O   0  0  0  0  0  0
   35.8468    4.2272   -6.5211 H   0  0  0  0  0  0
   36.6764    3.4116   -4.3642 H   0  0  0  0  0  0
   32.9434    4.3774   -2.5276 H   0  0  0  0  0  0
   34.5299    3.0776   -1.3350 H   0  0  0  0  0  0
   37.0235    4.8092   -1.6660 H   0  0  0  0  0  0
   36.4046    4.1137   -0.1733 H   0  0  0  0  0  0
   37.0868    2.4563   -1.6647 H   0  0  0  0  0  0
   35.1794    6.1667   -1.8746 H   0  0  0  0  0  0
   35.0859    7.5162   -0.1163 H   0  0  0  0  0  0
   36.7149    6.9397   -0.0891 H   0  0  0  0  0  0
   36.0109    6.7677    2.1552 H   0  0  0  0  0  0
   35.7576    5.1281    1.6547 H   0  0  0  0  0  0
   33.0469    5.5303    0.1441 H   0  0  0  0  0  0
   30.8029    5.5571    0.9474 H   0  0  0  0  0  0
   32.2080    6.9531    4.7857 H   0  0  0  0  0  0
   34.4758    6.9110    3.9541 H   0  0  0  0  0  0
   30.2286    7.6025    5.1143 H   0  0  0  0  0  0
   27.9961    7.5318    5.9848 H   0  0  0  0  0  0
   29.1070    4.8947    1.9771 H   0  0  0  0  0  0
   26.1506    7.9852    5.8865 H   0  0  0  0  0  0
   27.4064    3.8500    1.0309 H   0  0  0  0  0  0
   26.7766    5.4715   -0.8405 H   0  0  0  0  0  0
   27.8944    6.1407    0.3205 H   0  0  0  0  0  0
   26.2080    6.5973    0.3884 H   0  0  0  0  0  0
   25.3219    3.5101   -0.2645 H   0  0  0  0  0  0
   25.1624    2.9647    1.4005 H   0  0  0  0  0  0
   24.4376    4.4862    0.8983 H   0  0  0  0  0  0
   31.6436    5.9403   -5.6530 H   0  0  0  0  0  0
   28.8630    3.4501   -3.5158 H   0  0  0  0  0  0
   29.7023    3.4283   -5.0876 H   0  0  0  0  0  0
   30.5541    2.8698   -3.6148 H   0  0  0  0  0  0
   34.2832    5.6348   -7.4621 H   0  0  0  0  0  0
  1  6  1  0  0  0
  1  2  2  0  0  0
  1 32  1  0  0  0
  2  3  1  0  0  0
  2 37  1  0  0  0
  3  4  2  0  0  0
  3 38  1  0  0  0
  4  5  1  0  0  0
  4 39  1  0  0  0
  5  6  2  0  0  0
  5  7  1  0  0  0
  6 40  1  0  0  0
  7  9  1  0  0  0
  7  8  1  0  0  0
  7 41  1  0  0  0
  8 10  1  0  0  0
  8 42  1  0  0  0
  8 43  1  0  0  0
  9 44  1  0  0  0
 10 11  1  0  0  0
 10 45  1  0  0  0
 11 12  1  0  0  0
 11 46  1  0  0  0
 11 47  1  0  0  0
 12 13  1  0  0  0
 12 48  1  0  0  0
 12 49  1  0  0  0
 13 18  1  0  0  0
 13 14  2  0  0  0
 14 15  1  0  0  0
 14 50  1  0  0  0
 15 16  2  0  0  0
 15 51  1  0  0  0
 16 19  1  0  0  0
 16 17  1  0  0  0
 17 18  2  0  0  0
 17 52  1  0  0  0
 18 53  1  0  0  0
 19 20  2  0  0  0
 19 24  1  0  0  0
 20 21  1  0  0  0
 20 54  1  0  0  0
 21 22  2  0  0  0
 21 55  1  0  0  0
 22 23  1  0  0  0
 22 25  1  0  0  0
 23 24  2  0  0  0
 23 28  1  0  0  0
 24 56  1  0  0  0
 25 26  2  0  0  0
 25 27  1  0  0  0
 27 57  1  0  0  0
 28 29  1  0  0  0
 29 30  1  0  0  0
 29 31  1  0  0  0
 29 58  1  0  0  0
 30 59  1  0  0  0
 30 60  1  0  0  0
 30 61  1  0  0  0
 31 62  1  0  0  0
 31 63  1  0  0  0
 31 64  1  0  0  0
 32 33  1  0  0  0
 32 65  1  0  0  0
 33 34  1  0  0  0
 33 35  2  0  0  0
 33 36  2  0  0  0
 34 66  1  0  0  0
 34 67  1  0  0  0
 34 68  1  0  0  0
 37 69  1  0  0  0
M  END
> <s_m_entry_id>
3270

> <s_m_entry_name>
dock_pv.362

> <s_m_Source_Path>
/home/csk/Desktop/cluster/DUD-E-result/adrb1

> <s_m_Source_File>
dock_pv.maegz

> <i_m_Source_File_Index>
362

> <chembl_id>
CHEMBL512147

> <chembl_pref_name>
None

> <i_lp_mmshare_version>
53161

> <i_f3d_flags>
0

> <r_lp_tautomer_probability>
1

> <s_lp_Force_Field>
OPLS_2005

> <r_lp_Energy>
31.01788

> <b_lp_Chiralities_Consistent>
1

> <s_lp_Variant>
CHEMBL213_lig796-1

> <s_i_glide_gridfile>
glide-grid_2vt4

> <i_i_glide_lignum>
904

> <i_i_glide_rotatable_bonds>
15

> <r_i_docking_score>
-7.07699490169961

> <r_i_glide_ligand_efficiency>
-0.191270132478368

> <r_i_glide_ligand_efficiency_sa>
-0.637354514244489

> <r_i_glide_ligand_efficiency_ln>
-1.53483428587892

> <r_i_glide_gscore>
-7.07699490169961

> <r_i_glide_lipo>
-2.77463856443128

> <r_i_glide_hbond>
-0.129551963026321

> <r_i_glide_metal>
0

> <r_i_glide_rewards>
-0.872838230206548

> <r_i_glide_evdw>
-52.145824432373

> <r_i_glide_ecoul>
-9.53308486938477

> <r_i_glide_erotb>
0.737287807990908

> <r_i_glide_esite>
0

> <r_i_glide_emodel>
-81.2485986163148

> <r_i_glide_energy>
-61.6789093017578

> <r_i_glide_einternal>
12.420597076416

> <i_i_glide_confnum>
42

> <i_i_glide_posenum>
201

> <r_i_glide_eff_state_penalty>
0

> <s_user_duplicate_titles>
CHEMBL213_lig796,447843

> <s_m_subgroup_title>
dock_pv

> <s_m_subgroupid>
dock_pv

> <b_m_subgroup_collapsed>
1

$$$$
CHEMBL213_lig427
                    3D
 Schrodinger Suite 2021-1.
 64 67  0  0  1  0            999 V2000
   32.7546    5.1749   -3.7298 C   0  0  0  0  0  0
   32.9125    5.7097   -2.4201 O   0  0  0  0  0  0
   34.2170    5.5351   -1.8771 C   0  0  0  0  0  0
   34.1360    5.7728   -0.3576 C   0  0  0  0  0  0
   35.4562    6.0052    0.3937 C   0  0  0  0  0  0
   37.8755    6.5003    1.7630 C   0  0  0  0  0  0
   37.8836    6.0971    0.4336 C   0  0  0  0  0  0
   36.6945    5.8542   -0.2405 C   0  0  0  0  0  0
   30.3340    5.2552   -3.5782 O   0  0  0  0  0  0
   31.4447    5.6811   -4.3547 C   0  0  0  0  0  0
   24.6080    5.0501    4.4839 C   0  0  0  0  0  0
   25.5870    5.8499    5.0695 C   0  0  0  0  0  0
   26.0223    4.6501    2.5520 C   0  0  0  0  0  0
   24.8037    4.4945    3.2245 C   0  0  0  0  0  0
   27.0671    5.3067    3.2362 C   0  0  0  0  0  0
   26.8362    5.9457    4.4558 C   0  0  0  0  0  0
   27.9409    6.6330    4.9340 N   0  0  0  0  0  0
   29.1132    6.5324    4.2210 C   0  0  0  0  0  0
   28.7615    5.4500    2.7850 S   0  0  0  0  0  0
   30.1937    7.0496    4.4903 O   0  0  0  0  0  0
   25.3193    6.4866    6.2550 O   0  0  0  0  0  0
   26.1670    4.1240    1.1130 C   0  0  2  0  0  0
   26.4578    5.2438    0.0824 C   0  0  0  0  0  0
   25.0596    3.3597    0.6552 O   0  0  0  0  0  0
   26.8420    4.6859   -1.2117 N   0  0  2  0  0  0
   27.7895    5.5293   -1.9204 C   0  0  0  0  0  0
   27.9510    4.9807   -3.3457 C   0  0  0  0  0  0
   29.0854    5.6584   -4.1222 C   0  0  0  0  0  0
   36.6522    6.6506    2.4581 C   0  0  0  0  0  0
   35.4186    6.3934    1.7763 C   0  0  0  0  0  0
   34.2075    6.5412    2.5141 C   0  0  0  0  0  0
   34.2218    6.9338    3.8497 C   0  0  0  0  0  0
   35.4239    7.1867    4.4970 C   0  0  0  0  0  0
   36.6310    7.0505    3.8190 C   0  0  0  0  0  0
   32.7418    4.0853   -3.6756 H   0  0  0  0  0  0
   33.5941    5.4500   -4.3711 H   0  0  0  0  0  0
   34.5962    4.5285   -2.0686 H   0  0  0  0  0  0
   34.8835    6.2521   -2.3596 H   0  0  0  0  0  0
   33.5132    6.6500   -0.2127 H   0  0  0  0  0  0
   33.6090    4.9377    0.1028 H   0  0  0  0  0  0
   38.8088    6.6873    2.2744 H   0  0  0  0  0  0
   38.8230    5.9687   -0.0852 H   0  0  0  0  0  0
   36.7593    5.5446   -1.2727 H   0  0  0  0  0  0
   31.3661    5.3012   -5.3761 H   0  0  0  0  0  0
   31.4414    6.7698   -4.4138 H   0  0  0  0  0  0
   23.6532    4.9323    4.9759 H   0  0  0  0  0  0
   23.9808    3.9606    2.7713 H   0  0  0  0  0  0
   27.9128    7.1966    5.7709 H   0  0  0  0  0  0
   25.9429    7.1779    6.5047 H   0  0  0  0  0  0
   27.0080    3.4500    1.1315 H   0  0  0  0  0  0
   25.5928    5.8896   -0.0515 H   0  0  0  0  0  0
   27.2587    5.8814    0.4589 H   0  0  0  0  0  0
   25.0836    3.3610   -0.3073 H   0  0  0  0  0  0
   26.0346    4.5810   -1.8312 H   0  0  0  0  0  0
   27.4496    6.5664   -1.9571 H   0  0  0  0  0  0
   28.7506    5.5126   -1.4021 H   0  0  0  0  0  0
   28.1357    3.9026   -3.3207 H   0  0  0  0  0  0
   27.0160    5.1168   -3.8932 H   0  0  0  0  0  0
   29.0298    5.3554   -5.1670 H   0  0  0  0  0  0
   28.9820    6.7451   -4.0931 H   0  0  0  0  0  0
   33.2542    6.3587    2.0401 H   0  0  0  0  0  0
   33.2862    7.0461    4.3819 H   0  0  0  0  0  0
   35.4176    7.4907    5.5328 H   0  0  0  0  0  0
   37.5632    7.2502    4.3284 H   0  0  0  0  0  0
  1 10  1  0  0  0
  1  2  1  0  0  0
  1 35  1  0  0  0
  1 36  1  0  0  0
  2  3  1  0  0  0
  3  4  1  0  0  0
  3 37  1  0  0  0
  3 38  1  0  0  0
  4  5  1  0  0  0
  4 39  1  0  0  0
  4 40  1  0  0  0
  5  8  1  0  0  0
  5 30  2  0  0  0
  6 29  2  0  0  0
  6  7  1  0  0  0
  6 41  1  0  0  0
  7  8  2  0  0  0
  7 42  1  0  0  0
  8 43  1  0  0  0
  9 10  1  0  0  0
  9 28  1  0  0  0
 10 44  1  0  0  0
 10 45  1  0  0  0
 11 12  2  0  0  0
 11 14  1  0  0  0
 11 46  1  0  0  0
 12 21  1  0  0  0
 12 16  1  0  0  0
 13 22  1  0  0  0
 13 15  1  0  0  0
 13 14  2  0  0  0
 14 47  1  0  0  0
 15 19  1  0  0  0
 15 16  2  0  0  0
 16 17  1  0  0  0
 17 18  1  0  0  0
 17 48  1  0  0  0
 18 19  1  0  0  0
 18 20  2  0  0  0
 21 49  1  0  0  0
 22 23  1  0  0  0
 22 24  1  0  0  0
 22 50  1  0  0  0
 23 25  1  0  0  0
 23 51  1  0  0  0
 23 52  1  0  0  0
 24 53  1  0  0  0
 25 26  1  0  0  0
 25 54  1  0  0  0
 26 27  1  0  0  0
 26 55  1  0  0  0
 26 56  1  0  0  0
 27 28  1  0  0  0
 27 57  1  0  0  0
 27 58  1  0  0  0
 28 59  1  0  0  0
 28 60  1  0  0  0
 29 30  1  0  0  0
 29 34  1  0  0  0
 30 31  1  0  0  0
 31 32  2  0  0  0
 31 61  1  0  0  0
 32 33  1  0  0  0
 32 62  1  0  0  0
 33 34  2  0  0  0
 33 63  1  0  0  0
 34 64  1  0  0  0
M  END
> <s_m_entry_id>
3271

> <s_m_entry_name>
dock_pv.363

> <s_m_Source_Path>
/home/csk/Desktop/cluster/DUD-E-result/adrb1

> <s_m_Source_File>
dock_pv.maegz

> <i_m_Source_File_Index>
363

> <chembl_id>
CHEMBL1807822

> <chembl_pref_name>
None

> <i_lp_mmshare_version>
53161

> <i_f3d_flags>
0

> <r_lp_tautomer_probability>
1

> <s_lp_Force_Field>
OPLS_2005

> <r_lp_Energy>
38.705235

> <b_lp_Chiralities_Consistent>
1

> <s_lp_Variant>
CHEMBL213_lig427-1

> <s_i_glide_gridfile>
glide-grid_2vt4

> <i_i_glide_lignum>
501

> <i_i_glide_rotatable_bonds>
15

> <r_i_docking_score>
-7.07570886964806

> <r_i_glide_ligand_efficiency>
-0.208109084401414

> <r_i_glide_ligand_efficiency_sa>
-0.674192644987389

> <r_i_glide_ligand_efficiency_ln>
-1.56322255621653

> <r_i_glide_gscore>
-7.07570886964806

> <r_i_glide_lipo>
-3.08981861145581

> <r_i_glide_hbond>
-0.72

> <r_i_glide_metal>
0

> <r_i_glide_rewards>
-0.502018787878787

> <r_i_glide_evdw>
-48.9433746337891

> <r_i_glide_ecoul>
-9.08259296417236

> <r_i_glide_erotb>
1.04568620600184

> <r_i_glide_esite>
0

> <r_i_glide_emodel>
-74.7554818504585

> <r_i_glide_energy>
-58.0259675979614

> <r_i_glide_einternal>
14.1499805450439

> <i_i_glide_confnum>
66

> <i_i_glide_posenum>
358

> <r_i_glide_eff_state_penalty>
0

> <s_user_duplicate_titles>
CHEMBL213_lig427

> <s_m_subgroup_title>
dock_pv

> <s_m_subgroupid>
dock_pv

> <b_m_subgroup_collapsed>
1

$$$$
CHEMBL213_lig952
                    3D
 Schrodinger Suite 2021-1.
 64 67  0  0  1  0            999 V2000
   28.0325    5.4334    3.1004 C   0  0  0  0  0  0
   27.1251    5.8490    4.0692 C   0  0  0  0  0  0
   27.5424    6.6630    5.1184 C   0  0  0  0  0  0
   28.8728    7.0677    5.1911 C   0  0  0  0  0  0
   29.8019    6.6497    4.2359 C   0  0  0  0  0  0
   29.3650    5.8292    3.1840 C   0  0  0  0  0  0
   25.8157    5.4601    3.9913 O   0  0  0  0  0  0
   31.1093    7.0492    4.4399 O   0  0  0  0  0  0
   32.1110    6.8599    3.4351 C   0  0  0  0  0  0
   33.4948    6.7562    4.1127 C   0  0  2  0  0  0
   34.6631    7.0678    3.1451 C   0  0  0  0  0  0
   35.9108    7.2875    3.8790 N   0  0  1  0  0  0
   36.9874    7.8801    3.0881 C   0  0  0  0  0  0
   37.8023    6.8623    2.2530 C   0  0  0  0  0  0
   37.1198    6.2603    1.0272 C   0  0  0  0  0  0
   37.3193    4.9110    0.7217 C   0  0  0  0  0  0
   36.7208    4.3480   -0.3992 C   0  0  0  0  0  0
   35.9196    5.1287   -1.2308 C   0  0  0  0  0  0
   35.7392    6.4882   -0.9452 C   0  0  0  0  0  0
   36.3432    7.0472    0.1765 C   0  0  0  0  0  0
   35.3742    4.4855   -2.3519 N   0  0  0  0  0  0
   34.2931    4.8396   -3.0735 C   0  0  0  0  0  0
   33.9725    3.9219   -4.2679 C   0  0  0  0  0  0
   33.5732    5.8082   -2.8175 O   0  0  0  0  0  0
   33.6537    5.4497    4.6471 O   0  0  0  0  0  0
   32.4975    3.5502   -4.4717 C   0  0  0  0  0  0
   32.2065    3.0658   -5.7105 N   0  0  0  0  0  0
   30.2116    3.3374   -3.7471 C   0  0  0  0  0  0
   31.5337    3.6631   -3.4619 C   0  0  0  0  0  0
   29.8793    2.8543   -5.0303 C   0  0  0  0  0  0
   30.9191    2.7263   -5.9987 C   0  0  0  0  0  0
   30.5987    2.2491   -7.2951 C   0  0  0  0  0  0
   29.2773    1.9322   -7.6164 C   0  0  0  0  0  0
   28.2679    2.0657   -6.6698 C   0  0  0  0  0  0
   28.5594    2.5075   -5.3820 C   0  0  0  0  0  0
   27.7140    4.8021    2.2845 H   0  0  0  0  0  0
   26.8356    6.9921    5.8659 H   0  0  0  0  0  0
   29.1896    7.7103    5.9965 H   0  0  0  0  0  0
   30.0349    5.4664    2.4241 H   0  0  0  0  0  0
   25.6212    4.9586    3.1984 H   0  0  0  0  0  0
   32.0724    7.7343    2.7858 H   0  0  0  0  0  0
   31.9768    5.9908    2.7941 H   0  0  0  0  0  0
   33.5104    7.4574    4.9452 H   0  0  0  0  0  0
   34.4179    7.9751    2.5918 H   0  0  0  0  0  0
   34.7676    6.2652    2.4143 H   0  0  0  0  0  0
   35.7383    7.8131    4.7244 H   0  0  0  0  0  0
   37.6780    8.3728    3.7704 H   0  0  0  0  0  0
   36.5803    8.6738    2.4609 H   0  0  0  0  0  0
   38.1504    6.0697    2.9150 H   0  0  0  0  0  0
   38.7038    7.3570    1.8897 H   0  0  0  0  0  0
   37.9561    4.2930    1.3308 H   0  0  0  0  0  0
   36.9017    3.3049   -0.6203 H   0  0  0  0  0  0
   35.1585    7.1304   -1.5860 H   0  0  0  0  0  0
   36.2102    8.0933    0.3638 H   0  0  0  0  0  0
   35.8380    3.6282   -2.6091 H   0  0  0  0  0  0
   34.5429    2.9931   -4.2077 H   0  0  0  0  0  0
   34.3254    4.4404   -5.1613 H   0  0  0  0  0  0
   32.7776    5.0753    4.8029 H   0  0  0  0  0  0
   29.4426    3.4494   -2.9963 H   0  0  0  0  0  0
   31.7785    4.0177   -2.4730 H   0  0  0  0  0  0
   31.3774    2.1606   -8.0372 H   0  0  0  0  0  0
   29.0162    1.6018   -8.6108 H   0  0  0  0  0  0
   27.2447    1.8500   -6.9387 H   0  0  0  0  0  0
   27.7770    2.6065   -4.6463 H   0  0  0  0  0  0
  1  6  1  0  0  0
  1  2  2  0  0  0
  1 36  1  0  0  0
  2  3  1  0  0  0
  2  7  1  0  0  0
  3  4  2  0  0  0
  3 37  1  0  0  0
  4  5  1  0  0  0
  4 38  1  0  0  0
  5  6  2  0  0  0
  5  8  1  0  0  0
  6 39  1  0  0  0
  7 40  1  0  0  0
  8  9  1  0  0  0
  9 10  1  0  0  0
  9 41  1  0  0  0
  9 42  1  0  0  0
 10 11  1  0  0  0
 10 25  1  0  0  0
 10 43  1  0  0  0
 11 12  1  0  0  0
 11 44  1  0  0  0
 11 45  1  0  0  0
 12 13  1  0  0  0
 12 46  1  0  0  0
 13 14  1  0  0  0
 13 47  1  0  0  0
 13 48  1  0  0  0
 14 15  1  0  0  0
 14 49  1  0  0  0
 14 50  1  0  0  0
 15 20  1  0  0  0
 15 16  2  0  0  0
 16 17  1  0  0  0
 16 51  1  0  0  0
 17 18  2  0  0  0
 17 52  1  0  0  0
 18 19  1  0  0  0
 18 21  1  0  0  0
 19 20  2  0  0  0
 19 53  1  0  0  0
 20 54  1  0  0  0
 21 22  1  0  0  0
 21 55  1  0  0  0
 22 23  1  0  0  0
 22 24  2  0  0  0
 23 26  1  0  0  0
 23 56  1  0  0  0
 23 57  1  0  0  0
 25 58  1  0  0  0
 26 27  2  0  0  0
 26 29  1  0  0  0
 27 31  1  0  0  0
 28 30  1  0  0  0
 28 29  2  0  0  0
 28 59  1  0  0  0
 29 60  1  0  0  0
 30 31  1  0  0  0
 30 35  2  0  0  0
 31 32  2  0  0  0
 32 33  1  0  0  0
 32 61  1  0  0  0
 33 34  2  0  0  0
 33 62  1  0  0  0
 34 35  1  0  0  0
 34 63  1  0  0  0
 35 64  1  0  0  0
M  END
> <s_m_entry_id>
3272

> <s_m_entry_name>
dock_pv.364

> <s_m_Source_Path>
/home/csk/Desktop/cluster/DUD-E-result/adrb1

> <s_m_Source_File>
dock_pv.maegz

> <i_m_Source_File_Index>
364

> <chembl_id>
CHEMBL552089

> <chembl_pref_name>
None

> <i_lp_mmshare_version>
53161

> <i_f3d_flags>
0

> <r_lp_tautomer_probability>
0.999999999999998

> <s_lp_Force_Field>
OPLS_2005

> <r_lp_Energy>
41.132669

> <b_lp_Chiralities_Consistent>
1

> <s_lp_Variant>
CHEMBL213_lig952-1

> <s_i_glide_gridfile>
glide-grid_2vt4

> <i_i_glide_lignum>
1064

> <i_i_glide_rotatable_bonds>
14

> <r_i_docking_score>
-7.07312524849201

> <r_i_glide_ligand_efficiency>
-0.202089292814057

> <r_i_glide_ligand_efficiency_sa>
-0.661047476590482

> <r_i_glide_ligand_efficiency_ln>
-1.55270797160105

> <r_i_glide_gscore>
-7.07312524849201

> <r_i_glide_lipo>
-3.0240366771871

> <r_i_glide_hbond>
-0.189645112770717

> <r_i_glide_metal>
0

> <r_i_glide_rewards>
-0.732981063100832

> <r_i_glide_evdw>
-54.483470916748

> <r_i_glide_ecoul>
-9.34829902648926

> <r_i_glide_erotb>
0.99995600437743

> <r_i_glide_esite>
0

> <r_i_glide_emodel>
-86.0930004970554

> <r_i_glide_energy>
-63.8317699432373

> <r_i_glide_einternal>
9.24012756347656

> <i_i_glide_confnum>
4

> <i_i_glide_posenum>
304

> <r_i_glide_eff_state_penalty>
0

> <s_user_duplicate_titles>
CHEMBL213_lig952

> <s_m_subgroup_title>
dock_pv

> <s_m_subgroupid>
dock_pv

> <b_m_subgroup_collapsed>
1

$$$$
CHEMBL213_lig1238
                    3D
 Schrodinger Suite 2021-1.
 54 56  0  0  1  0            999 V2000
   26.9842    6.0008    4.6283 S   0  0  0  0  0  0
   26.2493    5.1649    3.2060 C   0  0  0  0  0  0
   26.9407    5.1422    1.9852 C   0  0  0  0  0  0
   24.9915    4.5430    3.2879 C   0  0  0  0  0  0
   27.0126    5.0501    5.7424 O   0  0  0  0  0  0
   28.2239    6.6497    4.1926 O   0  0  0  0  0  0
   25.8711    7.2685    5.0734 N   0  0  0  0  0  0
   34.1543    5.0852   -1.9851 C   0  0  0  0  0  0
   33.3738    5.0478   -3.1821 C   0  0  0  0  0  0
   32.1671    5.7386   -3.2007 O   0  0  0  0  0  0
   26.3916    4.5140    0.8552 C   0  0  0  0  0  0
   24.4801    3.8524    2.1868 C   0  0  0  0  0  0
   35.3986    4.3788   -1.9269 C   0  0  0  0  0  0
   31.3254    5.7001   -4.3605 C   0  0  0  0  0  0
   23.9988    4.6500    4.7041 Cl  0  0  0  0  0  0
   26.9833    4.5464   -0.4180 N   0  0  0  0  0  0
   30.6558    4.3175   -4.6144 C   0  0  2  0  0  0
   25.1706    3.8481    0.9767 C   0  0  0  0  0  0
   29.0947    4.2500   -2.6503 N   0  0  1  0  0  0
   30.6445    4.0589   -6.0104 O   0  0  0  0  0  0
   35.0796    3.6456   -4.2195 C   0  0  0  0  0  0
   29.2042    4.1694   -4.1044 C   0  0  0  0  0  0
   33.8730    4.3315   -4.2825 C   0  0  0  0  0  0
   33.7417    5.8108   -0.8343 C   0  0  0  0  0  0
   35.8404    3.6570   -3.0582 C   0  0  0  0  0  0
   28.0901    5.4528   -0.7186 C   0  0  0  0  0  0
   28.4581    5.4878   -2.2125 C   0  0  0  0  0  0
   36.1714    4.4171   -0.7403 C   0  0  0  0  0  0
   34.5305    5.8421    0.3133 C   0  0  0  0  0  0
   35.7331    5.1469    0.3613 C   0  0  0  0  0  0
   27.8964    5.6392    1.9111 H   0  0  0  0  0  0
   25.0261    6.8728    5.4911 H   0  0  0  0  0  0
   26.2964    7.8969    5.7697 H   0  0  0  0  0  0
   23.5178    3.3652    2.2508 H   0  0  0  0  0  0
   31.9126    6.0192   -5.2230 H   0  0  0  0  0  0
   30.5627    6.4755   -4.2710 H   0  0  0  0  0  0
   26.3670    4.3354   -1.1958 H   0  0  0  0  0  0
   31.2539    3.5216   -4.1659 H   0  0  0  0  0  0
   24.7286    3.3557    0.1202 H   0  0  0  0  0  0
   28.6092    3.4214   -2.2956 H   0  0  0  0  0  0
   30.2535    4.8131   -6.4601 H   0  0  0  0  0  0
   35.4351    3.1068   -5.0849 H   0  0  0  0  0  0
   28.8392    3.1794   -4.3842 H   0  0  0  0  0  0
   28.5448    4.8854   -4.5992 H   0  0  0  0  0  0
   33.3322    4.2906   -5.2153 H   0  0  0  0  0  0
   32.8062    6.3499   -0.8484 H   0  0  0  0  0  0
   36.7833    3.1298   -3.0191 H   0  0  0  0  0  0
   27.7895    6.4590   -0.4199 H   0  0  0  0  0  0
   28.9562    5.2125   -0.1001 H   0  0  0  0  0  0
   27.5515    5.6807   -2.7918 H   0  0  0  0  0  0
   29.1426    6.3149   -2.3942 H   0  0  0  0  0  0
   37.1088    3.8798   -0.6982 H   0  0  0  0  0  0
   34.2016    6.4068    1.1734 H   0  0  0  0  0  0
   36.3336    5.1742    1.2575 H   0  0  0  0  0  0
  1  2  1  0  0  0
  1  5  2  0  0  0
  1  6  2  0  0  0
  1  7  1  0  0  0
  2  3  2  0  0  0
  2  4  1  0  0  0
  3 11  1  0  0  0
  3 31  1  0  0  0
  4 12  2  0  0  0
  4 15  1  0  0  0
  7 32  1  0  0  0
  7 33  1  0  0  0
  8  9  2  0  0  0
  8 13  1  0  0  0
  8 24  1  0  0  0
  9 10  1  0  0  0
  9 23  1  0  0  0
 10 14  1  0  0  0
 11 16  1  0  0  0
 11 18  2  0  0  0
 12 18  1  0  0  0
 12 34  1  0  0  0
 13 28  1  0  0  0
 13 25  2  0  0  0
 14 17  1  0  0  0
 14 35  1  0  0  0
 14 36  1  0  0  0
 16 26  1  0  0  0
 16 37  1  0  0  0
 17 22  1  0  0  0
 17 20  1  0  0  0
 17 38  1  0  0  0
 18 39  1  0  0  0
 19 27  1  0  0  0
 19 22  1  0  0  0
 19 40  1  0  0  0
 20 41  1  0  0  0
 21 23  2  0  0  0
 21 25  1  0  0  0
 21 42  1  0  0  0
 22 43  1  0  0  0
 22 44  1  0  0  0
 23 45  1  0  0  0
 24 29  2  0  0  0
 24 46  1  0  0  0
 25 47  1  0  0  0
 26 27  1  0  0  0
 26 48  1  0  0  0
 26 49  1  0  0  0
 27 50  1  0  0  0
 27 51  1  0  0  0
 28 30  2  0  0  0
 28 52  1  0  0  0
 29 30  1  0  0  0
 29 53  1  0  0  0
 30 54  1  0  0  0
M  END
> <s_m_entry_id>
3273

> <s_m_entry_name>
dock_pv.365

> <s_m_Source_Path>
/home/csk/Desktop/cluster/DUD-E-result/adrb1

> <s_m_Source_File>
dock_pv.maegz

> <i_m_Source_File_Index>
365

> <chembl_id>
CHEMBL40297

> <chembl_pref_name>
None

> <i_lp_mmshare_version>
53161

> <i_f3d_flags>
0

> <r_lp_tautomer_probability>
1

> <s_lp_Force_Field>
OPLS_2005

> <r_lp_Energy>
36.348952

> <b_lp_Chiralities_Consistent>
1

> <s_lp_Variant>
CHEMBL213_lig1238-2

> <s_i_glide_gridfile>
glide-grid_2vt4

> <i_i_glide_lignum>
1481

> <i_i_glide_rotatable_bonds>
11

> <r_i_docking_score>
-7.07076054515375

> <r_i_glide_ligand_efficiency>
-0.235692018171792

> <r_i_glide_ligand_efficiency_sa>
-0.73234989942697

> <r_i_glide_ligand_efficiency_ln>
-1.60655383796566

> <r_i_glide_gscore>
-7.07076054515375

> <r_i_glide_lipo>
-2.48180935914412

> <r_i_glide_hbond>
-0.864

> <r_i_glide_metal>
0

> <r_i_glide_rewards>
-0.452161290166673

> <r_i_glide_evdw>
-45.520393371582

> <r_i_glide_ecoul>
-11.9247570037842

> <r_i_glide_erotb>
0.792073886871952

> <r_i_glide_esite>
-0.000130563568178784

> <r_i_glide_emodel>
-75.3377665817394

> <r_i_glide_energy>
-57.4451503753662

> <r_i_glide_einternal>
8.72965240478516

> <i_i_glide_confnum>
22

> <i_i_glide_posenum>
62

> <r_i_glide_eff_state_penalty>
0

> <s_user_duplicate_titles>
CHEMBL213_lig1238

> <s_m_subgroup_title>
dock_pv

> <s_m_subgroupid>
dock_pv

> <b_m_subgroup_collapsed>
1

$$$$
CHEMBL213_lig1490
                    3D
 Schrodinger Suite 2021-1.
 51 54  0  0  1  0            999 V2000
   29.8080    3.8500   -1.6009 C   0  0  0  0  0  0
   31.0339    3.8636   -2.2659 C   0  0  0  0  0  0
   31.2700    4.8130   -3.2537 C   0  0  0  0  0  0
   28.7721    4.7303   -1.9576 C   0  0  0  0  0  0
   29.0176    5.6645   -2.9670 C   0  0  0  0  0  0
   30.2615    5.7185   -3.5812 C   0  0  0  0  0  0
   30.3777    6.7983   -4.4150 N   0  0  0  0  0  0
   29.3715    7.7338   -4.4147 C   0  0  0  0  0  0
   27.9678    6.9538   -3.5492 S   0  0  0  0  0  0
   27.4628    4.7461   -1.1700 C   0  0  2  0  0  0
   27.6748    5.6705    0.0546 C   0  0  0  0  0  0
   27.0226    3.4500   -0.8146 O   0  0  0  0  0  0
   26.6080    5.7063    1.0497 N   0  0  2  0  0  0
   26.5977    4.5385    1.9312 C   0  0  1  0  0  0
   26.6944    4.8955    3.4383 C   0  0  2  0  0  0
   25.2484    5.2773    3.8035 C   0  0  0  0  0  0
   24.3366    4.4415    2.8864 C   0  0  0  0  0  0
   25.2552    3.7968    1.8460 C   0  0  0  0  0  0
   29.4080    8.8917   -4.8150 O   0  0  0  0  0  0
   32.4981    4.8953   -3.8579 O   0  0  0  0  0  0
   27.8350    5.8150    3.9098 C   0  0  0  0  0  0
   27.6786    6.6500    5.0226 C   0  0  0  0  0  0
   28.7346    7.4500    5.4598 C   0  0  0  0  0  0
   29.9517    7.4499    4.7851 C   0  0  0  0  0  0
   30.1320    6.6128    3.6855 C   0  0  0  0  0  0
   29.0861    5.7776    3.2783 C   0  0  0  0  0  0
   31.4672    6.5692    2.9642 C   0  0  0  0  0  0
   29.6522    3.1254   -0.8150 H   0  0  0  0  0  0
   31.8034    3.1580   -1.9907 H   0  0  0  0  0  0
   31.2056    6.9815   -4.9685 H   0  0  0  0  0  0
   26.6636    5.1593   -1.7876 H   0  0  0  0  0  0
   28.6253    5.4484    0.5340 H   0  0  0  0  0  0
   27.7762    6.6850   -0.3304 H   0  0  0  0  0  0
   27.3125    2.8368   -1.5066 H   0  0  0  0  0  0
   25.7292    5.7047    0.5506 H   0  0  0  0  0  0
   27.4080    3.8501    1.7219 H   0  0  0  0  0  0
   26.8996    3.9738    3.9850 H   0  0  0  0  0  0
   25.1103    6.3375    3.5856 H   0  0  0  0  0  0
   25.0343    5.1851    4.8679 H   0  0  0  0  0  0
   23.5899    5.0500    2.3850 H   0  0  0  0  0  0
   23.7816    3.6925    3.4434 H   0  0  0  0  0  0
   24.8161    3.8470    0.8474 H   0  0  0  0  0  0
   25.4010    2.7331    2.0357 H   0  0  0  0  0  0
   33.1211    4.2336   -3.5487 H   0  0  0  0  0  0
   26.7439    6.6870    5.5621 H   0  0  0  0  0  0
   28.6080    8.0884    6.3191 H   0  0  0  0  0  0
   30.7546    8.0906    5.1223 H   0  0  0  0  0  0
   29.2597    5.0871    2.4698 H   0  0  0  0  0  0
   32.2643    7.0142    3.5608 H   0  0  0  0  0  0
   31.7542    5.5357    2.7666 H   0  0  0  0  0  0
   31.4080    7.0890    2.0077 H   0  0  0  0  0  0
  1  2  2  0  0  0
  1  4  1  0  0  0
  1 28  1  0  0  0
  2  3  1  0  0  0
  2 29  1  0  0  0
  3  6  2  0  0  0
  3 20  1  0  0  0
  4  5  2  0  0  0
  4 10  1  0  0  0
  5  6  1  0  0  0
  5  9  1  0  0  0
  6  7  1  0  0  0
  7  8  1  0  0  0
  7 30  1  0  0  0
  8  9  1  0  0  0
  8 19  2  0  0  0
 10 11  1  0  0  0
 10 12  1  0  0  0
 10 31  1  0  0  0
 11 13  1  0  0  0
 11 32  1  0  0  0
 11 33  1  0  0  0
 12 34  1  0  0  0
 13 14  1  0  0  0
 13 35  1  0  0  0
 14 15  1  0  0  0
 14 18  1  0  0  0
 14 36  1  0  0  0
 15 16  1  0  0  0
 15 21  1  0  0  0
 15 37  1  0  0  0
 16 17  1  0  0  0
 16 38  1  0  0  0
 16 39  1  0  0  0
 17 18  1  0  0  0
 17 40  1  0  0  0
 17 41  1  0  0  0
 18 42  1  0  0  0
 18 43  1  0  0  0
 20 44  1  0  0  0
 21 22  2  0  0  0
 21 26  1  0  0  0
 22 23  1  0  0  0
 22 45  1  0  0  0
 23 24  2  0  0  0
 23 46  1  0  0  0
 24 25  1  0  0  0
 24 47  1  0  0  0
 25 26  2  0  0  0
 25 27  1  0  0  0
 26 48  1  0  0  0
 27 49  1  0  0  0
 27 50  1  0  0  0
 27 51  1  0  0  0
M  END
> <s_m_entry_id>
3274

> <s_m_entry_name>
dock_pv.366

> <s_m_Source_Path>
/home/csk/Desktop/cluster/DUD-E-result/adrb1

> <s_m_Source_File>
dock_pv.maegz

> <i_m_Source_File_Index>
366

> <chembl_id>
CHEMBL3323661

> <chembl_pref_name>
None

> <i_lp_mmshare_version>
53161

> <i_f3d_flags>
0

> <r_lp_tautomer_probability>
1

> <s_lp_Force_Field>
OPLS_2005

> <r_lp_Energy>
50.259998

> <b_lp_Chiralities_Consistent>
1

> <s_lp_Variant>
CHEMBL213_lig1490-1

> <s_i_glide_gridfile>
glide-grid_2vt4

> <i_i_glide_lignum>
1838

> <i_i_glide_rotatable_bonds>
7

> <r_i_docking_score>
-7.06414264805458

> <r_i_glide_ligand_efficiency>
-0.26163491289091

> <r_i_glide_ligand_efficiency_sa>
-0.784904737810425

> <r_i_glide_ligand_efficiency_ln>
-1.64441594697359

> <r_i_glide_gscore>
-7.06414264805458

> <r_i_glide_lipo>
-3.49320174118415

> <r_i_glide_hbond>
-0.482720223623074

> <r_i_glide_metal>
0

> <r_i_glide_rewards>
-1.511946303202

> <r_i_glide_evdw>
-28.1743335723877

> <r_i_glide_ecoul>
-5.3928918838501

> <r_i_glide_erotb>
0.657597915822005

> <r_i_glide_esite>
-0.0162218346704674

> <r_i_glide_emodel>
-44.1748084558321

> <r_i_glide_energy>
-33.5672254562378

> <r_i_glide_einternal>
7.07760810852051

> <i_i_glide_confnum>
82

> <i_i_glide_posenum>
359

> <r_i_glide_eff_state_penalty>
0

> <s_user_duplicate_titles>
CHEMBL213_lig1490

> <s_m_subgroup_title>
dock_pv

> <s_m_subgroupid>
dock_pv

> <b_m_subgroup_collapsed>
1

$$$$
CHEMBL213_lig1196
                    3D
 Schrodinger Suite 2021-1.
 48 50  0  0  1  0            999 V2000
   32.3034    5.0267   -4.1518 C   0  0  0  0  0  0
   32.1227    4.0295   -5.1061 C   0  0  0  0  0  0
   29.9285    4.9948   -3.5992 C   0  0  0  0  0  0
   31.2216    5.4913   -3.4075 C   0  0  0  0  0  0
   29.7486    3.9493   -4.5367 C   0  0  0  0  0  0
   30.8481    3.4805   -5.2917 C   0  0  0  0  0  0
   30.6494    2.4666   -6.2549 N   0  0  0  0  0  0
   29.4892    1.8544   -6.5687 C   0  0  0  0  0  0
   28.3759    2.2851   -5.7458 C   0  0  0  0  0  0
   28.4625    3.2658   -4.8153 C   0  0  0  0  0  0
   29.4096    1.0479   -7.4894 O   0  0  0  0  0  0
   33.2010    3.6045   -5.8455 O   0  0  0  0  0  0
   28.7993    5.6354   -2.7634 C   0  0  2  0  0  0
   28.0177    4.6019   -2.0999 N   0  0  2  0  0  0
   27.8920    6.6054   -3.5697 C   0  0  0  0  0  0
   28.6080    7.7433   -4.0150 O   0  0  0  0  0  0
   27.1047    5.0536   -1.0618 C   0  0  0  0  0  0
   26.5840    3.8059   -0.3327 C   0  0  0  0  0  0
   25.8967    4.0904    0.9963 C   0  0  0  0  0  0
   26.5947    4.6811    2.0691 C   0  0  0  0  0  0
   25.9248    4.8606    3.2909 C   0  0  0  0  0  0
   24.6079    4.4402    3.4469 C   0  0  0  0  0  0
   23.9280    3.8495    2.3850 C   0  0  0  0  0  0
   24.5673    3.6839    1.1605 C   0  0  0  0  0  0
   27.9183    5.0398    1.8775 O   0  0  0  0  0  0
   28.7090    5.4463    2.9901 C   0  0  0  0  0  0
   33.2848    5.4500   -3.9854 H   0  0  0  0  0  0
   31.3927    6.2507   -2.6631 H   0  0  0  0  0  0
   31.4371    2.1795   -6.8128 H   0  0  0  0  0  0
   27.4212    1.8144   -5.9209 H   0  0  0  0  0  0
   27.5629    3.5301   -4.2779 H   0  0  0  0  0  0
   33.9573    4.1951   -5.7901 H   0  0  0  0  0  0
   29.2693    6.2001   -1.9555 H   0  0  0  0  0  0
   28.5945    3.8336   -1.7747 H   0  0  0  0  0  0
   27.4251    6.1008   -4.4149 H   0  0  0  0  0  0
   27.0872    6.9974   -2.9508 H   0  0  0  0  0  0
   27.9829    8.4017   -4.3538 H   0  0  0  0  0  0
   27.6021    5.7443   -0.3793 H   0  0  0  0  0  0
   26.2535    5.5898   -1.4860 H   0  0  0  0  0  0
   25.9193    3.2594   -1.0057 H   0  0  0  0  0  0
   27.3996    3.1181   -0.1165 H   0  0  0  0  0  0
   26.4142    5.3164    4.1379 H   0  0  0  0  0  0
   24.1075    4.5788    4.3950 H   0  0  0  0  0  0
   22.9053    3.5277    2.5085 H   0  0  0  0  0  0
   24.0272    3.2286    0.3399 H   0  0  0  0  0  0
   29.7377    5.5961    2.6620 H   0  0  0  0  0  0
   28.3555    6.3870    3.4129 H   0  0  0  0  0  0
   28.7193    4.6816    3.7698 H   0  0  0  0  0  0
  1  2  2  0  0  0
  1  4  1  0  0  0
  1 27  1  0  0  0
  2  6  1  0  0  0
  2 12  1  0  0  0
  3  5  1  0  0  0
  3  4  2  0  0  0
  3 13  1  0  0  0
  4 28  1  0  0  0
  5  6  2  0  0  0
  5 10  1  0  0  0
  6  7  1  0  0  0
  7  8  1  0  0  0
  7 29  1  0  0  0
  8  9  1  0  0  0
  8 11  2  0  0  0
  9 10  2  0  0  0
  9 30  1  0  0  0
 10 31  1  0  0  0
 12 32  1  0  0  0
 13 14  1  0  0  0
 13 15  1  0  0  0
 13 33  1  0  0  0
 14 17  1  0  0  0
 14 34  1  0  0  0
 15 16  1  0  0  0
 15 35  1  0  0  0
 15 36  1  0  0  0
 16 37  1  0  0  0
 17 18  1  0  0  0
 17 38  1  0  0  0
 17 39  1  0  0  0
 18 19  1  0  0  0
 18 40  1  0  0  0
 18 41  1  0  0  0
 19 20  2  0  0  0
 19 24  1  0  0  0
 20 21  1  0  0  0
 20 25  1  0  0  0
 21 22  2  0  0  0
 21 42  1  0  0  0
 22 23  1  0  0  0
 22 43  1  0  0  0
 23 24  2  0  0  0
 23 44  1  0  0  0
 24 45  1  0  0  0
 25 26  1  0  0  0
 26 46  1  0  0  0
 26 47  1  0  0  0
 26 48  1  0  0  0
M  END
> <s_m_entry_id>
3275

> <s_m_entry_name>
dock_pv.367

> <s_m_Source_Path>
/home/csk/Desktop/cluster/DUD-E-result/adrb1

> <s_m_Source_File>
dock_pv.maegz

> <i_m_Source_File_Index>
367

> <chembl_id>
CHEMBL4281324

> <chembl_pref_name>
None

> <i_lp_mmshare_version>
53161

> <i_f3d_flags>
0

> <r_lp_tautomer_probability>
1

> <s_lp_Force_Field>
OPLS_2005

> <r_lp_Energy>
37.93032

> <b_lp_Chiralities_Consistent>
1

> <s_lp_Variant>
CHEMBL213_lig1196-1

> <s_i_glide_gridfile>
glide-grid_2vt4

> <i_i_glide_lignum>
1404

> <i_i_glide_rotatable_bonds>
9

> <r_i_docking_score>
-7.06319613463775

> <r_i_glide_ligand_efficiency>
-0.27166138979376

> <r_i_glide_ligand_efficiency_sa>
-0.804795798328061

> <r_i_glide_ligand_efficiency_ln>
-1.65876843598282

> <r_i_glide_gscore>
-7.06319613463775

> <r_i_glide_lipo>
-2.62690535209146

> <r_i_glide_hbond>
-0.601762692724329

> <r_i_glide_metal>
0

> <r_i_glide_rewards>
-1.59775149217487

> <r_i_glide_evdw>
-41.2986831665039

> <r_i_glide_ecoul>
-7.23109483718872

> <r_i_glide_erotb>
0.912821786256415

> <r_i_glide_esite>
0

> <r_i_glide_emodel>
-65.5933484588547

> <r_i_glide_energy>
-48.5297780036926

> <r_i_glide_einternal>
7.50441551208496

> <i_i_glide_confnum>
200

> <i_i_glide_posenum>
100

> <r_i_glide_eff_state_penalty>
0

> <s_user_duplicate_titles>
CHEMBL213_lig1196

> <s_m_subgroup_title>
dock_pv

> <s_m_subgroupid>
dock_pv

> <b_m_subgroup_collapsed>
1

$$$$
CHEMBL213_lig306
                    3D
 Schrodinger Suite 2021-1.
 58 61  0  0  1  0            999 V2000
   31.2835    4.0255   -4.1884 C   0  0  0  0  0  0
   26.6320    5.2847    4.1332 C   0  0  0  0  0  0
   32.2188    5.0505   -3.9885 C   0  0  0  0  0  0
   29.8879    4.3230   -4.7796 C   0  0  1  0  0  0
   27.9376    5.6530    3.7945 C   0  0  0  0  0  0
   25.7704    4.7344    3.1701 C   0  0  0  0  0  0
   27.4939    5.0499    1.4639 C   0  0  0  0  0  0
   31.6556    2.7090   -3.8475 C   0  0  0  0  0  0
   33.4542    4.8086   -3.3951 C   0  0  0  0  0  0
   26.2080    4.6499    1.8382 C   0  0  0  0  0  0
   28.3686    5.4526    2.4777 C   0  0  0  0  0  0
   32.9042    2.4757   -3.2622 C   0  0  0  0  0  0
   33.8031    3.5109   -3.0292 C   0  0  0  0  0  0
   28.9874    3.1646   -4.8074 N   0  0  1  0  0  0
   27.9178    5.0925    0.0279 C   0  0  0  0  0  0
   29.1923    5.5446   -4.1103 C   0  0  0  0  0  0
   26.9971    5.3923   -0.9851 C   0  0  0  0  0  0
   29.2591    4.9128   -0.3329 C   0  0  0  0  0  0
   28.7492    5.3568   -2.6537 C   0  0  0  0  0  0
   26.2198    5.4500    5.4349 O   0  0  0  0  0  0
   28.7196    6.2421    4.7766 O   0  0  0  0  0  0
   24.5157    4.3307    3.5856 O   0  0  0  0  0  0
   34.3135    5.8487   -3.1657 O   0  0  0  0  0  0
   29.6520    1.9279   -5.1870 C   0  0  0  0  0  0
   35.0199    3.2476   -2.4501 O   0  0  0  0  0  0
   29.6715    5.0498   -1.6511 C   0  0  0  0  0  0
   27.4080    5.5284   -2.3092 C   0  0  0  0  0  0
   30.6878    1.5623   -4.1093 C   0  0  0  0  0  0
   25.4378    6.6120    5.6706 C   0  0  0  0  0  0
   29.9553    6.8544    4.4129 C   0  0  0  0  0  0
   23.6507    3.6551    2.6783 C   0  0  0  0  0  0
   31.9728    6.0603   -4.2763 H   0  0  0  0  0  0
   30.0684    4.5802   -5.8245 H   0  0  0  0  0  0
   25.5451    4.2783    1.0724 H   0  0  0  0  0  0
   29.3733    5.7352    2.2155 H   0  0  0  0  0  0
   33.1797    1.4644   -3.0075 H   0  0  0  0  0  0
   28.6057    3.0441   -3.8734 H   0  0  0  0  0  0
   29.8179    6.4346   -4.1646 H   0  0  0  0  0  0
   28.3177    5.8014   -4.7090 H   0  0  0  0  0  0
   25.9537    5.5535   -0.7565 H   0  0  0  0  0  0
   30.0042    4.6733    0.4108 H   0  0  0  0  0  0
   35.1807    5.5140   -2.9138 H   0  0  0  0  0  0
   30.1158    2.0126   -6.1715 H   0  0  0  0  0  0
   28.9023    1.1394   -5.2656 H   0  0  0  0  0  0
   35.1667    2.3204   -2.2508 H   0  0  0  0  0  0
   30.7195    4.9283   -1.8619 H   0  0  0  0  0  0
   26.6731    5.7728   -3.0638 H   0  0  0  0  0  0
   31.2068    0.6599   -4.4154 H   0  0  0  0  0  0
   30.2081    1.3014   -3.1715 H   0  0  0  0  0  0
   25.2634    6.7124    6.7421 H   0  0  0  0  0  0
   25.9407    7.5166    5.3249 H   0  0  0  0  0  0
   24.4645    6.5444    5.1852 H   0  0  0  0  0  0
   30.4052    7.3117    5.2943 H   0  0  0  0  0  0
   30.6696    6.1321    4.0174 H   0  0  0  0  0  0
   29.8086    7.6443    3.6745 H   0  0  0  0  0  0
   22.7087    3.4493    3.1850 H   0  0  0  0  0  0
   23.4199    4.2505    1.7962 H   0  0  0  0  0  0
   24.0759    2.7020    2.3600 H   0  0  0  0  0  0
  1  3  2  0  0  0
  1  4  1  0  0  0
  1  8  1  0  0  0
  2  5  1  0  0  0
  2 20  1  0  0  0
  2  6  2  0  0  0
  3  9  1  0  0  0
  3 32  1  0  0  0
  4 14  1  0  0  0
  4 16  1  0  0  0
  4 33  1  0  0  0
  5 11  2  0  0  0
  5 21  1  0  0  0
  6 10  1  0  0  0
  6 22  1  0  0  0
  7 15  1  0  0  0
  7 10  2  0  0  0
  7 11  1  0  0  0
  8 12  2  0  0  0
  8 28  1  0  0  0
  9 23  1  0  0  0
  9 13  2  0  0  0
 10 34  1  0  0  0
 11 35  1  0  0  0
 12 13  1  0  0  0
 12 36  1  0  0  0
 13 25  1  0  0  0
 14 24  1  0  0  0
 14 37  1  0  0  0
 15 17  2  0  0  0
 15 18  1  0  0  0
 16 19  1  0  0  0
 16 38  1  0  0  0
 16 39  1  0  0  0
 17 27  1  0  0  0
 17 40  1  0  0  0
 18 26  2  0  0  0
 18 41  1  0  0  0
 19 26  1  0  0  0
 19 27  2  0  0  0
 20 29  1  0  0  0
 21 30  1  0  0  0
 22 31  1  0  0  0
 23 42  1  0  0  0
 24 28  1  0  0  0
 24 43  1  0  0  0
 24 44  1  0  0  0
 25 45  1  0  0  0
 26 46  1  0  0  0
 27 47  1  0  0  0
 28 48  1  0  0  0
 28 49  1  0  0  0
 29 50  1  0  0  0
 29 51  1  0  0  0
 29 52  1  0  0  0
 30 53  1  0  0  0
 30 54  1  0  0  0
 30 55  1  0  0  0
 31 56  1  0  0  0
 31 57  1  0  0  0
 31 58  1  0  0  0
M  END
> <s_m_entry_id>
3276

> <s_m_entry_name>
dock_pv.368

> <s_m_Source_Path>
/home/csk/Desktop/cluster/DUD-E-result/adrb1

> <s_m_Source_File>
dock_pv.maegz

> <i_m_Source_File_Index>
368

> <chembl_id>
CHEMBL421871

> <chembl_pref_name>
None

> <i_lp_mmshare_version>
53161

> <i_f3d_flags>
0

> <r_lp_tautomer_probability>
0.999999999999776

> <s_lp_Force_Field>
OPLS_2005

> <r_lp_Energy>
43.597812

> <b_lp_Chiralities_Consistent>
1

> <s_lp_Variant>
CHEMBL213_lig306-2

> <s_i_glide_gridfile>
glide-grid_2vt4

> <i_i_glide_lignum>
358

> <i_i_glide_rotatable_bonds>
8

> <r_i_docking_score>
-7.0584357846261

> <r_i_glide_ligand_efficiency>
-0.227691476923423

> <r_i_glide_ligand_efficiency_sa>
-0.715265599502923

> <r_i_glide_ligand_efficiency_ln>
-1.59189358451153

> <r_i_glide_gscore>
-7.0584357846261

> <r_i_glide_lipo>
-3.24811657952093

> <r_i_glide_hbond>
-0.265562799065939

> <r_i_glide_metal>
0

> <r_i_glide_rewards>
-1.01451581930754

> <r_i_glide_evdw>
-42.4642105102539

> <r_i_glide_ecoul>
-4.94284677505493

> <r_i_glide_erotb>
0.334396955039244

> <r_i_glide_esite>
0

> <r_i_glide_emodel>
-58.2392388929228

> <r_i_glide_energy>
-47.4070572853088

> <r_i_glide_einternal>
6.98192834854126

> <i_i_glide_confnum>
18

> <i_i_glide_posenum>
24

> <r_i_glide_eff_state_penalty>
0

> <s_user_duplicate_titles>
CHEMBL213_lig306

> <s_m_subgroup_title>
dock_pv

> <s_m_subgroupid>
dock_pv

> <b_m_subgroup_collapsed>
1

$$$$
CHEMBL213_lig667
                    3D
 Schrodinger Suite 2021-1.
 69 72  0  0  1  0            999 V2000
   27.2329    5.5602    1.1443 S   0  0  0  0  0  0
   35.7703    7.0474    4.1897 S   0  0  0  0  0  0
   26.0879    4.1950    1.0745 C   0  0  0  0  0  0
   34.2081    6.2500    0.4855 N   0  0  0  0  0  0
   35.5598    6.1283    0.6843 C   0  0  0  0  0  0
   34.9205    4.9494   -1.2145 C   0  0  0  0  0  0
   35.9021    7.5528    2.5978 O   0  0  0  0  0  0
   36.4016    6.6803    1.6591 C   0  0  0  0  0  0
   36.0387    5.2767   -0.3573 C   0  0  0  0  0  0
   27.1825    6.2500   -0.4925 N   0  0  0  0  0  0
   33.8319    5.5773   -0.6413 C   0  0  0  0  0  0
   25.0079    3.8501    2.3931 S   0  0  0  0  0  0
   28.5782    5.0500    1.4189 O   0  0  0  0  0  0
   26.6080    6.5307    2.0445 O   0  0  0  0  0  0
   35.4078    8.2117    5.0056 O   0  0  0  0  0  0
   36.9542    6.2521    4.5353 O   0  0  0  0  0  0
   25.8877    3.3682   -0.0146 C   0  0  0  0  0  0
   29.6332    4.5042   -2.7579 C   0  0  0  0  0  0
   34.9611    4.0862   -2.4677 C   0  0  0  0  0  0
   34.2632    5.8908    4.0201 C   0  0  0  0  0  0
   27.9679    5.8672   -1.5958 C   0  0  0  0  0  0
   28.8711    4.7889   -1.6110 C   0  0  0  0  0  0
   24.3692    2.5172    1.5212 C   0  0  0  0  0  0
   24.9118    2.4139    0.2471 C   0  0  0  0  0  0
   32.6071    4.5955   -3.3856 N   0  0  1  0  0  0
   32.0494    3.4435   -2.6730 C   0  0  0  0  0  0
   30.5172    3.2512   -2.8326 C   0  0  2  0  0  0
   37.7563    6.3519    1.5844 C   0  0  0  0  0  0
   34.0511    4.5469   -3.6464 C   0  0  2  0  0  0
   37.4064    4.9568   -0.3702 C   0  0  0  0  0  0
   30.2737    2.5088   -4.0150 O   0  0  0  0  0  0
   38.2481    5.4965    0.6020 C   0  0  0  0  0  0
   29.5052    5.3302   -3.8796 C   0  0  0  0  0  0
   28.6100    6.3924   -3.8731 C   0  0  0  0  0  0
   27.8303    6.6411   -2.7499 C   0  0  0  0  0  0
   32.9618    6.7096    4.0623 C   0  0  0  0  0  0
   34.3404    4.8050    5.1027 C   0  0  0  0  0  0
   34.2869    3.7036   -4.9108 C   0  0  0  0  0  0
   33.5651    6.8413    1.0002 H   0  0  0  0  0  0
   26.5296    7.0056   -0.6283 H   0  0  0  0  0  0
   32.7998    5.6228   -0.9567 H   0  0  0  0  0  0
   26.4155    3.4492   -0.9544 H   0  0  0  0  0  0
   35.9854    4.0852   -2.8436 H   0  0  0  0  0  0
   34.7612    3.0453   -2.2140 H   0  0  0  0  0  0
   34.3458    5.4005    3.0532 H   0  0  0  0  0  0
   28.9636    4.1369   -0.7577 H   0  0  0  0  0  0
   23.6224    1.8925    1.9848 H   0  0  0  0  0  0
   24.6102    1.6852   -0.4827 H   0  0  0  0  0  0
   32.1185    4.6776   -4.2668 H   0  0  0  0  0  0
   32.5493    2.5200   -2.9696 H   0  0  0  0  0  0
   32.2692    3.5645   -1.6149 H   0  0  0  0  0  0
   30.2115    2.5872   -2.0243 H   0  0  0  0  0  0
   38.4399    6.7681    2.3101 H   0  0  0  0  0  0
   34.3429    5.5677   -3.8980 H   0  0  0  0  0  0
   37.8087    4.3023   -1.1314 H   0  0  0  0  0  0
   29.3780    2.1630   -3.9351 H   0  0  0  0  0  0
   39.3016    5.2549    0.5808 H   0  0  0  0  0  0
   30.0723    5.1277   -4.7763 H   0  0  0  0  0  0
   28.5062    7.0135   -4.7481 H   0  0  0  0  0  0
   27.1206    7.4500   -2.7919 H   0  0  0  0  0  0
   32.0911    6.0779    3.8823 H   0  0  0  0  0  0
   32.9618    7.4911    3.3011 H   0  0  0  0  0  0
   32.8277    7.1964    5.0289 H   0  0  0  0  0  0
   33.4079    4.2919    5.2649 H   0  0  0  0  0  0
   35.0080    4.0139    4.7848 H   0  0  0  0  0  0
   34.6667    5.1975    6.0666 H   0  0  0  0  0  0
   35.3236    3.7802   -5.2396 H   0  0  0  0  0  0
   34.0783    2.6496   -4.7382 H   0  0  0  0  0  0
   33.6630    4.0355   -5.7418 H   0  0  0  0  0  0
  1  3  1  0  0  0
  1 10  1  0  0  0
  1 13  2  0  0  0
  1 14  2  0  0  0
  2  7  1  0  0  0
  2 15  2  0  0  0
  2 16  2  0  0  0
  2 20  1  0  0  0
  3 12  1  0  0  0
  3 17  2  0  0  0
  4 11  1  0  0  0
  4  5  1  0  0  0
  4 39  1  0  0  0
  5  9  2  0  0  0
  5  8  1  0  0  0
  6 19  1  0  0  0
  6  9  1  0  0  0
  6 11  2  0  0  0
  7  8  1  0  0  0
  8 28  2  0  0  0
  9 30  1  0  0  0
 10 21  1  0  0  0
 10 40  1  0  0  0
 11 41  1  0  0  0
 12 23  1  0  0  0
 17 24  1  0  0  0
 17 42  1  0  0  0
 18 22  2  0  0  0
 18 27  1  0  0  0
 18 33  1  0  0  0
 19 29  1  0  0  0
 19 43  1  0  0  0
 19 44  1  0  0  0
 20 36  1  0  0  0
 20 37  1  0  0  0
 20 45  1  0  0  0
 21 22  1  0  0  0
 21 35  2  0  0  0
 22 46  1  0  0  0
 23 24  2  0  0  0
 23 47  1  0  0  0
 24 48  1  0  0  0
 25 26  1  0  0  0
 25 29  1  0  0  0
 25 49  1  0  0  0
 26 27  1  0  0  0
 26 50  1  0  0  0
 26 51  1  0  0  0
 27 31  1  0  0  0
 27 52  1  0  0  0
 28 32  1  0  0  0
 28 53  1  0  0  0
 29 38  1  0  0  0
 29 54  1  0  0  0
 30 32  2  0  0  0
 30 55  1  0  0  0
 31 56  1  0  0  0
 32 57  1  0  0  0
 33 34  2  0  0  0
 33 58  1  0  0  0
 34 35  1  0  0  0
 34 59  1  0  0  0
 35 60  1  0  0  0
 36 61  1  0  0  0
 36 62  1  0  0  0
 36 63  1  0  0  0
 37 64  1  0  0  0
 37 65  1  0  0  0
 37 66  1  0  0  0
 38 67  1  0  0  0
 38 68  1  0  0  0
 38 69  1  0  0  0
M  END
> <s_m_entry_id>
3277

> <s_m_entry_name>
dock_pv.369

> <s_m_Source_Path>
/home/csk/Desktop/cluster/DUD-E-result/adrb1

> <s_m_Source_File>
dock_pv.maegz

> <i_m_Source_File_Index>
369

> <chembl_id>
CHEMBL185660

> <chembl_pref_name>
None

> <i_lp_mmshare_version>
53161

> <i_f3d_flags>
0

> <r_lp_tautomer_probability>
1

> <s_lp_Force_Field>
OPLS_2005

> <r_lp_Energy>
17.269301

> <b_lp_Chiralities_Consistent>
1

> <s_lp_Variant>
CHEMBL213_lig667-1

> <s_i_glide_gridfile>
glide-grid_2vt4

> <i_i_glide_lignum>
769

> <i_i_glide_rotatable_bonds>
13

> <r_i_docking_score>
-7.05148849647343

> <r_i_glide_ligand_efficiency>
-0.185565486749301

> <r_i_glide_ligand_efficiency_sa>
-0.623866602045372

> <r_i_glide_ligand_efficiency_ln>
-1.52050835361503

> <r_i_glide_gscore>
-7.05148849647343

> <r_i_glide_lipo>
-2.74265445950772

> <r_i_glide_hbond>
-0.351901854110627

> <r_i_glide_metal>
0

> <r_i_glide_rewards>
-0.419749560327603

> <r_i_glide_evdw>
-50.8040809631348

> <r_i_glide_ecoul>
-10.5409526824951

> <r_i_glide_erotb>
0.590995765904981

> <r_i_glide_esite>
-0.00683143790145854

> <r_i_glide_emodel>
-80.3576820131912

> <r_i_glide_energy>
-61.3450336456299

> <r_i_glide_einternal>
11.581371307373

> <i_i_glide_confnum>
15

> <i_i_glide_posenum>
252

> <r_i_glide_eff_state_penalty>
0

> <s_user_duplicate_titles>
CHEMBL213_lig667,312958

> <s_m_subgroup_title>
dock_pv

> <s_m_subgroupid>
dock_pv

> <b_m_subgroup_collapsed>
1

$$$$
CHEMBL213_lig1229
                    3D
 Schrodinger Suite 2021-1.
 58 61  0  0  1  0            999 V2000
   27.0854    6.1659    4.5152 S   0  0  0  0  0  0
   26.2357    5.3154    3.1734 C   0  0  0  0  0  0
   26.8077    5.3862    1.9005 C   0  0  0  0  0  0
   34.4165    6.2499   -1.2272 S   0  0  0  0  0  0
   34.7222    4.8361   -2.2540 C   0  0  0  0  0  0
   36.6387    4.2432   -0.8408 N   0  0  0  0  0  0
   26.7517    4.9155   -0.4429 N   0  0  0  0  0  0
   35.8260    4.0216   -1.9561 C   0  0  0  0  0  0
   26.2121    4.7516    0.8096 C   0  0  0  0  0  0
   36.3791    4.9457    0.2774 C   0  0  0  0  0  0
   28.7216    5.3414   -2.5638 N   0  0  0  0  0  0
   25.0177    4.6270    3.3268 C   0  0  0  0  0  0
   27.0075    5.3429    5.7250 O   0  0  0  0  0  0
   28.3897    6.6181    4.0204 O   0  0  0  0  0  0
   33.9218    4.5738   -3.3811 C   0  0  0  0  0  0
   26.1381    7.5928    4.7853 N   0  0  0  0  0  0
   34.9415    5.5060    0.3543 C   0  0  0  0  0  0
   32.8544    5.4321   -3.6161 O   0  0  0  0  0  0
   27.4797    3.8496   -1.1012 C   0  0  0  0  0  0
   26.6911    6.1386   -1.2579 C   0  0  0  0  0  0
   37.1964    5.0513    1.1853 O   0  0  0  0  0  0
   25.0805    3.9553    0.9983 C   0  0  0  0  0  0
   24.4806    3.9044    2.2552 C   0  0  0  0  0  0
   30.0230    5.7334   -3.1194 C   0  0  0  0  0  0
   28.8745    4.3185   -1.5237 C   0  0  0  0  0  0
   28.0350    6.4980   -1.9544 C   0  0  0  0  0  0
   30.5607    4.8130   -4.2520 C   0  0  1  0  0  0
   31.9587    5.2639   -4.7285 C   0  0  0  0  0  0
   24.1001    4.6655    4.7850 Cl  0  0  0  0  0  0
   30.6222    3.4409   -3.9129 O   0  0  0  0  0  0
   36.1468    2.9537   -2.7891 C   0  0  0  0  0  0
   35.3654    2.6797   -3.9041 C   0  0  0  0  0  0
   34.2517    3.4693   -4.1899 C   0  0  0  0  0  0
   27.7157    5.9494    1.7360 H   0  0  0  0  0  0
   37.5417    3.7828   -0.8199 H   0  0  0  0  0  0
   26.2047    7.8987    5.7669 H   0  0  0  0  0  0
   26.4354    8.3501    4.1731 H   0  0  0  0  0  0
   34.2499    4.6977    0.5898 H   0  0  0  0  0  0
   34.8800    6.2707    1.1246 H   0  0  0  0  0  0
   27.5768    3.0066   -0.4154 H   0  0  0  0  0  0
   26.8980    3.4764   -1.9459 H   0  0  0  0  0  0
   26.3638    6.9754   -0.6386 H   0  0  0  0  0  0
   25.9137    6.0096   -2.0099 H   0  0  0  0  0  0
   24.6290    3.4470    0.1586 H   0  0  0  0  0  0
   23.5608    3.3490    2.3783 H   0  0  0  0  0  0
   30.7605    5.8480   -2.3236 H   0  0  0  0  0  0
   29.9144    6.7207   -3.5742 H   0  0  0  0  0  0
   29.4403    3.4509   -1.8569 H   0  0  0  0  0  0
   29.4193    4.7189   -0.6662 H   0  0  0  0  0  0
   28.6645    6.9837   -1.2151 H   0  0  0  0  0  0
   27.8345    7.2405   -2.7296 H   0  0  0  0  0  0
   29.8837    4.9003   -5.1029 H   0  0  0  0  0  0
   31.8365    6.2492   -5.1702 H   0  0  0  0  0  0
   32.3295    4.6521   -5.5469 H   0  0  0  0  0  0
   29.7535    3.1804   -3.5816 H   0  0  0  0  0  0
   37.0080    2.3361   -2.5677 H   0  0  0  0  0  0
   35.6257    1.8503   -4.5487 H   0  0  0  0  0  0
   33.6683    3.2022   -5.0535 H   0  0  0  0  0  0
  1  2  1  0  0  0
  1 13  2  0  0  0
  1 14  2  0  0  0
  1 16  1  0  0  0
  2  3  2  0  0  0
  2 12  1  0  0  0
  3  9  1  0  0  0
  3 34  1  0  0  0
  4  5  1  0  0  0
  4 17  1  0  0  0
  5 15  2  0  0  0
  5  8  1  0  0  0
  6  8  1  0  0  0
  6 10  1  0  0  0
  6 35  1  0  0  0
  7  9  1  0  0  0
  7 19  1  0  0  0
  7 20  1  0  0  0
  8 31  2  0  0  0
  9 22  2  0  0  0
 10 21  2  0  0  0
 10 17  1  0  0  0
 11 26  1  0  0  0
 11 24  1  0  0  0
 11 25  1  0  0  0
 12 23  2  0  0  0
 12 29  1  0  0  0
 15 18  1  0  0  0
 15 33  1  0  0  0
 16 36  1  0  0  0
 16 37  1  0  0  0
 17 38  1  0  0  0
 17 39  1  0  0  0
 18 28  1  0  0  0
 19 25  1  0  0  0
 19 40  1  0  0  0
 19 41  1  0  0  0
 20 26  1  0  0  0
 20 42  1  0  0  0
 20 43  1  0  0  0
 22 23  1  0  0  0
 22 44  1  0  0  0
 23 45  1  0  0  0
 24 27  1  0  0  0
 24 46  1  0  0  0
 24 47  1  0  0  0
 25 48  1  0  0  0
 25 49  1  0  0  0
 26 50  1  0  0  0
 26 51  1  0  0  0
 27 28  1  0  0  0
 27 30  1  0  0  0
 27 52  1  0  0  0
 28 53  1  0  0  0
 28 54  1  0  0  0
 30 55  1  0  0  0
 31 32  1  0  0  0
 31 56  1  0  0  0
 32 33  2  0  0  0
 32 57  1  0  0  0
 33 58  1  0  0  0
M  END
> <s_m_entry_id>
3278

> <s_m_entry_name>
dock_pv.370

> <s_m_Source_Path>
/home/csk/Desktop/cluster/DUD-E-result/adrb1

> <s_m_Source_File>
dock_pv.maegz

> <i_m_Source_File_Index>
370

> <chembl_id>
CHEMBL40609

> <chembl_pref_name>
None

> <i_lp_mmshare_version>
53161

> <i_f3d_flags>
0

> <r_lp_tautomer_probability>
1

> <s_lp_Force_Field>
OPLS_2005

> <r_lp_Energy>
74.766612

> <b_lp_Chiralities_Consistent>
1

> <s_lp_Variant>
CHEMBL213_lig1229-2

> <s_i_glide_gridfile>
glide-grid_2vt4

> <i_i_glide_lignum>
1464

> <i_i_glide_rotatable_bonds>
8

> <r_i_docking_score>
-7.04831994848004

> <r_i_glide_ligand_efficiency>
-0.213585452984244

> <r_i_glide_ligand_efficiency_sa>
-0.685082672036205

> <r_i_glide_ligand_efficiency_ln>
-1.5675098622944

> <r_i_glide_gscore>
-7.04831994848004

> <r_i_glide_lipo>
-2.60088889127905

> <r_i_glide_hbond>
-0.436316406476538

> <r_i_glide_metal>
0

> <r_i_glide_rewards>
-0.702109458475579

> <r_i_glide_evdw>
-49.2622184753418

> <r_i_glide_ecoul>
-8.136155128479

> <r_i_glide_erotb>
0.389501339304951

> <r_i_glide_esite>
-0.0149723385148793

> <r_i_glide_emodel>
-73.1934395525279

> <r_i_glide_energy>
-57.3983736038208

> <r_i_glide_einternal>
12.1333885192871

> <i_i_glide_confnum>
11

> <i_i_glide_posenum>
135

> <r_i_glide_eff_state_penalty>
0

> <s_user_duplicate_titles>
CHEMBL213_lig1229,61593

> <s_m_subgroup_title>
dock_pv

> <s_m_subgroupid>
dock_pv

> <b_m_subgroup_collapsed>
1

$$$$
CHEMBL213_lig1035
                    3D
 Schrodinger Suite 2021-1.
 53 55  0  0  1  0            999 V2000
   26.4352    6.3910   -3.0017 C   0  0  0  0  0  0
   27.6499    5.8185   -2.2429 C   0  0  0  0  0  0
   28.0786    6.9260   -1.2925 C   0  0  0  0  0  0
   34.6760    5.2006   -3.7982 C   0  0  0  0  0  0
   33.7588    4.6423   -4.6834 C   0  0  0  0  0  0
   32.4651    4.3405   -4.2559 C   0  0  0  0  0  0
   32.0519    4.6192   -2.9415 C   0  0  0  0  0  0
   34.2852    5.4943   -2.4959 C   0  0  0  0  0  0
   32.9876    5.2022   -2.0674 C   0  0  0  0  0  0
   32.6079    5.5837   -0.7954 O   0  0  0  0  0  0
   33.6544    5.6577    0.2068 C   0  0  0  0  0  0
   35.0041    6.2500   -0.2905 C   0  0  0  0  0  0
   35.1709    6.1018   -1.6146 N   0  0  0  0  0  0
   35.8305    6.8012    0.4326 O   0  0  0  0  0  0
   34.1269    4.4082   -5.9798 O   0  0  0  0  0  0
   30.6357    4.2473   -2.4711 C   0  0  1  0  0  0
   29.4755    4.4998   -3.4920 C   0  0  0  0  0  0
   30.6080    2.8983   -2.0382 O   0  0  0  0  0  0
   28.7080    5.7347   -3.2710 N   0  0  2  0  0  0
   27.3841    4.4639   -1.4787 C   0  0  0  0  0  0
   26.6366    4.4670   -0.1346 C   0  0  0  0  0  0
   25.4306    3.7743   -0.0149 C   0  0  0  0  0  0
   24.7840    3.6669    1.2151 C   0  0  0  0  0  0
   25.3458    4.2501    2.3496 C   0  0  0  0  0  0
   26.5580    4.9466    2.2627 C   0  0  0  0  0  0
   27.2031    5.0300    1.0204 C   0  0  0  0  0  0
   27.1529    5.5864    3.5185 C   0  0  0  0  0  0
   28.2908    6.2407    3.2772 F   0  0  0  0  0  0
   26.2796    6.4543    4.0308 F   0  0  0  0  0  0
   27.4053    4.6472    4.4295 F   0  0  0  0  0  0
   25.5438    6.3983   -2.3745 H   0  0  0  0  0  0
   26.6076    7.4147   -3.3398 H   0  0  0  0  0  0
   26.2081    5.8500   -3.9179 H   0  0  0  0  0  0
   27.3291    7.1274   -0.5280 H   0  0  0  0  0  0
   29.0080    6.6500   -0.8150 H   0  0  0  0  0  0
   28.2080    7.8710   -1.8132 H   0  0  0  0  0  0
   35.6774    5.4375   -4.1310 H   0  0  0  0  0  0
   31.7964    3.8720   -4.9611 H   0  0  0  0  0  0
   33.3190    6.2313    1.0709 H   0  0  0  0  0  0
   33.8945    4.6501    0.5372 H   0  0  0  0  0  0
   36.0602    6.4300   -1.9607 H   0  0  0  0  0  0
   34.9204    4.8949   -6.2242 H   0  0  0  0  0  0
   30.4229    4.8024   -1.5573 H   0  0  0  0  0  0
   28.7751    3.6637   -3.5249 H   0  0  0  0  0  0
   29.8656    4.5526   -4.5061 H   0  0  0  0  0  0
   29.6940    2.5739   -2.0193 H   0  0  0  0  0  0
   29.3151    6.5387   -3.2126 H   0  0  0  0  0  0
   28.3247    3.9936   -1.2109 H   0  0  0  0  0  0
   26.9137    3.7562   -2.1612 H   0  0  0  0  0  0
   25.0080    3.2887   -0.8790 H   0  0  0  0  0  0
   23.8511    3.1267    1.2854 H   0  0  0  0  0  0
   24.8345    4.1650    3.2976 H   0  0  0  0  0  0
   28.1678    5.5076    0.9598 H   0  0  0  0  0  0
  1  2  1  0  0  0
  1 31  1  0  0  0
  1 32  1  0  0  0
  1 33  1  0  0  0
  2 19  1  0  0  0
  2  3  1  0  0  0
  2 20  1  0  0  0
  3 34  1  0  0  0
  3 35  1  0  0  0
  3 36  1  0  0  0
  4  8  2  0  0  0
  4  5  1  0  0  0
  4 37  1  0  0  0
  5 15  1  0  0  0
  5  6  2  0  0  0
  6  7  1  0  0  0
  6 38  1  0  0  0
  7 16  1  0  0  0
  7  9  2  0  0  0
  8  9  1  0  0  0
  8 13  1  0  0  0
  9 10  1  0  0  0
 10 11  1  0  0  0
 11 12  1  0  0  0
 11 39  1  0  0  0
 11 40  1  0  0  0
 12 13  1  0  0  0
 12 14  2  0  0  0
 13 41  1  0  0  0
 15 42  1  0  0  0
 16 17  1  0  0  0
 16 18  1  0  0  0
 16 43  1  0  0  0
 17 19  1  0  0  0
 17 44  1  0  0  0
 17 45  1  0  0  0
 18 46  1  0  0  0
 19 47  1  0  0  0
 20 21  1  0  0  0
 20 48  1  0  0  0
 20 49  1  0  0  0
 21 22  2  0  0  0
 21 26  1  0  0  0
 22 23  1  0  0  0
 22 50  1  0  0  0
 23 24  2  0  0  0
 23 51  1  0  0  0
 24 25  1  0  0  0
 24 52  1  0  0  0
 25 26  2  0  0  0
 25 27  1  0  0  0
 26 53  1  0  0  0
 27 28  1  0  0  0
 27 29  1  0  0  0
 27 30  1  0  0  0
M  END
> <s_m_entry_id>
3279

> <s_m_entry_name>
dock_pv.371

> <s_m_Source_Path>
/home/csk/Desktop/cluster/DUD-E-result/adrb1

> <s_m_Source_File>
dock_pv.maegz

> <i_m_Source_File_Index>
371

> <chembl_id>
CHEMBL604333

> <chembl_pref_name>
None

> <i_lp_mmshare_version>
53161

> <i_f3d_flags>
0

> <r_lp_tautomer_probability>
0.999999999999998

> <s_lp_Force_Field>
OPLS_2005

> <r_lp_Energy>
35.012033

> <b_lp_Chiralities_Consistent>
1

> <s_lp_Variant>
CHEMBL213_lig1035-2

> <s_i_glide_gridfile>
glide-grid_2vt4

> <i_i_glide_lignum>
1191

> <i_i_glide_rotatable_bonds>
9

> <r_i_docking_score>
-7.04261850720733

> <r_i_glide_ligand_efficiency>
-0.234753950240244

> <r_i_glide_ligand_efficiency_sa>
-0.729435104260578

> <r_i_glide_ligand_efficiency_ln>
-1.60015966031217

> <r_i_glide_gscore>
-7.04261850720733

> <r_i_glide_lipo>
-1.7991687220356

> <r_i_glide_hbond>
-0.32

> <r_i_glide_metal>
0

> <r_i_glide_rewards>
-2.42888758496001

> <r_i_glide_evdw>
-38.856143951416

> <r_i_glide_ecoul>
-8.08151149749756

> <r_i_glide_erotb>
0.660471721983722

> <r_i_glide_esite>
0

> <r_i_glide_emodel>
-55.1092850761467

> <r_i_glide_energy>
-46.9376554489136

> <r_i_glide_einternal>
14.9288845062256

> <i_i_glide_confnum>
190

> <i_i_glide_posenum>
271

> <r_i_glide_eff_state_penalty>
0

> <s_user_duplicate_titles>
CHEMBL213_lig1035

> <s_m_subgroup_title>
dock_pv

> <s_m_subgroupid>
dock_pv

> <b_m_subgroup_collapsed>
1

$$$$
CHEMBL213_lig1440
                    3D
 Schrodinger Suite 2021-1.
 60 63  0  0  1  0            999 V2000
   33.6000    4.5604   -4.5122 C   0  0  0  0  0  0
   33.8919    4.5127   -5.8717 C   0  0  0  0  0  0
   33.0962    3.7692   -6.7347 C   0  0  0  0  0  0
   32.5305    3.8300   -3.9680 C   0  0  0  0  0  0
   31.7410    3.0519   -4.8421 C   0  0  0  0  0  0
   32.0077    3.0513   -6.2281 C   0  0  0  0  0  0
   31.1664    2.3237   -7.0970 N   0  0  0  0  0  0
   30.0832    1.5934   -6.7598 C   0  0  0  0  0  0
   29.8559    1.5289   -5.3255 C   0  0  0  0  0  0
   30.6083    2.1947   -4.4179 C   0  0  0  0  0  0
   29.3860    1.0502   -7.6105 O   0  0  0  0  0  0
   33.4114    3.7511   -8.0683 O   0  0  0  0  0  0
   32.2692    3.8965   -2.4512 C   0  0  2  0  0  0
   31.1734    4.9164   -2.0556 C   0  0  0  0  0  0
   29.8228    4.4075   -2.3050 N   0  0  1  0  0  0
   28.7047    5.3532   -2.2340 C   0  0  0  0  0  0
   27.4054    4.5410   -2.2338 C   0  0  0  0  0  0
   28.6103    6.1152   -0.8957 C   0  0  0  0  0  0
   27.7055    5.2972   -0.0095 C   0  0  0  0  0  0
   27.0279    4.3630   -0.7773 C   0  0  0  0  0  0
   26.0344    3.5863   -0.1881 C   0  0  0  0  0  0
   25.7539    3.7065    1.1790 C   0  0  0  0  0  0
   26.4458    4.6501    1.9681 C   0  0  0  0  0  0
   27.4033    5.4514    1.3456 C   0  0  0  0  0  0
   24.6567    2.8297    1.7573 C   0  0  0  0  0  0
   33.4253    4.2493   -1.7082 O   0  0  0  0  0  0
   26.1454    4.8216    3.4694 C   0  0  0  0  0  0
   28.7659    6.2618   -3.4908 C   0  0  0  0  0  0
   27.1795    5.5986    4.3069 C   0  0  0  0  0  0
   23.3497    3.6066    1.8713 C   0  0  0  0  0  0
   34.2352    5.1668   -3.8816 H   0  0  0  0  0  0
   34.7463    5.0533   -6.2505 H   0  0  0  0  0  0
   31.3510    2.3651   -8.0866 H   0  0  0  0  0  0
   29.0418    0.9038   -4.9897 H   0  0  0  0  0  0
   30.3907    2.0546   -3.3706 H   0  0  0  0  0  0
   34.1222    4.3592   -8.2896 H   0  0  0  0  0  0
   32.0029    2.9072   -2.0753 H   0  0  0  0  0  0
   31.2504    5.0932   -0.9826 H   0  0  0  0  0  0
   31.3572    5.8631   -2.5611 H   0  0  0  0  0  0
   29.7723    3.9298   -3.1928 H   0  0  0  0  0  0
   26.6090    5.1455   -2.6705 H   0  0  0  0  0  0
   27.4284    3.6243   -2.8236 H   0  0  0  0  0  0
   29.5667    6.2499   -0.4155 H   0  0  0  0  0  0
   28.1643    7.0956   -1.0561 H   0  0  0  0  0  0
   25.4543    2.9128   -0.8002 H   0  0  0  0  0  0
   27.8747    6.2149    1.9335 H   0  0  0  0  0  0
   24.5071    1.9507    1.1285 H   0  0  0  0  0  0
   24.9578    2.4221    2.7211 H   0  0  0  0  0  0
   34.0917    3.5673   -1.8292 H   0  0  0  0  0  0
   25.1778    5.3082    3.5804 H   0  0  0  0  0  0
   26.0559    3.8391    3.9283 H   0  0  0  0  0  0
   27.9800    7.0180   -3.4735 H   0  0  0  0  0  0
   29.7097    6.7911   -3.6123 H   0  0  0  0  0  0
   28.6323    5.6762   -4.4011 H   0  0  0  0  0  0
   26.9168    5.5725    5.3649 H   0  0  0  0  0  0
   28.1766    5.1668    4.2081 H   0  0  0  0  0  0
   27.2286    6.6487    4.0209 H   0  0  0  0  0  0
   22.6081    3.0214    2.3972 H   0  0  0  0  0  0
   23.4608    4.5392    2.4202 H   0  0  0  0  0  0
   22.9622    3.8482    0.8803 H   0  0  0  0  0  0
  1  4  1  0  0  0
  1  2  2  0  0  0
  1 31  1  0  0  0
  2  3  1  0  0  0
  2 32  1  0  0  0
  3 12  1  0  0  0
  3  6  2  0  0  0
  4 13  1  0  0  0
  4  5  2  0  0  0
  5 10  1  0  0  0
  5  6  1  0  0  0
  6  7  1  0  0  0
  7  8  1  0  0  0
  7 33  1  0  0  0
  8  9  1  0  0  0
  8 11  2  0  0  0
  9 10  2  0  0  0
  9 34  1  0  0  0
 10 35  1  0  0  0
 12 36  1  0  0  0
 13 26  1  0  0  0
 13 14  1  0  0  0
 13 37  1  0  0  0
 14 15  1  0  0  0
 14 38  1  0  0  0
 14 39  1  0  0  0
 15 16  1  0  0  0
 15 40  1  0  0  0
 16 17  1  0  0  0
 16 18  1  0  0  0
 16 28  1  0  0  0
 17 20  1  0  0  0
 17 41  1  0  0  0
 17 42  1  0  0  0
 18 19  1  0  0  0
 18 43  1  0  0  0
 18 44  1  0  0  0
 19 20  2  0  0  0
 19 24  1  0  0  0
 20 21  1  0  0  0
 21 22  2  0  0  0
 21 45  1  0  0  0
 22 23  1  0  0  0
 22 25  1  0  0  0
 23 24  2  0  0  0
 23 27  1  0  0  0
 24 46  1  0  0  0
 25 30  1  0  0  0
 25 47  1  0  0  0
 25 48  1  0  0  0
 26 49  1  0  0  0
 27 29  1  0  0  0
 27 50  1  0  0  0
 27 51  1  0  0  0
 28 52  1  0  0  0
 28 53  1  0  0  0
 28 54  1  0  0  0
 29 55  1  0  0  0
 29 56  1  0  0  0
 29 57  1  0  0  0
 30 58  1  0  0  0
 30 59  1  0  0  0
 30 60  1  0  0  0
M  END
> <s_m_entry_id>
3280

> <s_m_entry_name>
dock_pv.372

> <s_m_Source_Path>
/home/csk/Desktop/cluster/DUD-E-result/adrb1

> <s_m_Source_File>
dock_pv.maegz

> <i_m_Source_File_Index>
372

> <chembl_id>
CHEMBL2088201

> <chembl_pref_name>
None

> <i_lp_mmshare_version>
53161

> <i_f3d_flags>
0

> <r_lp_tautomer_probability>
1

> <s_lp_Force_Field>
OPLS_2005

> <r_lp_Energy>
41.876831

> <b_lp_Chiralities_Consistent>
1

> <s_lp_Variant>
CHEMBL213_lig1440-1

> <s_i_glide_gridfile>
glide-grid_2vt4

> <i_i_glide_lignum>
1774

> <i_i_glide_rotatable_bonds>
8

> <r_i_docking_score>
-7.04073861144182

> <r_i_glide_ligand_efficiency>
-0.234691287048061

> <r_i_glide_ligand_efficiency_sa>
-0.729240395153119

> <r_i_glide_ligand_efficiency_ln>
-1.59973252751114

> <r_i_glide_gscore>
-7.04073861144182

> <r_i_glide_lipo>
-3.20929084485545

> <r_i_glide_hbond>
-0.284079899141214

> <r_i_glide_metal>
0

> <r_i_glide_rewards>
-1.37353602104802

> <r_i_glide_evdw>
-41.9057006835938

> <r_i_glide_ecoul>
-3.69658279418945

> <r_i_glide_erotb>
0.475940606910962

> <r_i_glide_esite>
0

> <r_i_glide_emodel>
-59.2538217995417

> <r_i_glide_energy>
-45.6022834777832

> <r_i_glide_einternal>
9.35402679443359

> <i_i_glide_confnum>
48

> <i_i_glide_posenum>
47

> <r_i_glide_eff_state_penalty>
0

> <s_user_duplicate_titles>
CHEMBL213_lig1440

> <s_m_subgroup_title>
dock_pv

> <s_m_subgroupid>
dock_pv

> <b_m_subgroup_collapsed>
1

$$$$
CHEMBL213_lig1232
                    3D
 Schrodinger Suite 2021-1.
 54 56  0  0  1  0            999 V2000
   26.2081    6.2501    5.3300 S   0  0  0  0  0  0
   25.8015    5.3639    3.8226 C   0  0  0  0  0  0
   33.0987    5.4500   -0.8150 S   0  0  0  0  0  0
   33.8648    4.9311   -2.3242 C   0  0  0  0  0  0
   35.8506    4.2309   -1.0697 N   0  0  0  0  0  0
   35.1344    4.3334   -2.2687 C   0  0  0  0  0  0
   35.7032    4.9224    0.0786 C   0  0  0  0  0  0
   26.7351    5.4500    2.7866 C   0  0  0  0  0  0
   24.6080    4.6500    3.6172 C   0  0  0  0  0  0
   25.0130    6.4427    6.1542 O   0  0  0  0  0  0
   27.4080    5.6206    5.8878 O   0  0  0  0  0  0
   33.1843    5.0500   -3.5456 C   0  0  0  0  0  0
   26.6753    7.8357    4.7850 N   0  0  0  0  0  0
   34.6141    6.0171    0.0291 C   0  0  0  0  0  0
   31.9607    5.6993   -3.5446 O   0  0  0  0  0  0
   36.4363    4.7423    1.0477 O   0  0  0  0  0  0
   26.4762    4.8978    1.5354 C   0  0  0  0  0  0
   24.4064    3.9843    2.4020 C   0  0  0  0  0  0
   31.0476    5.4863   -4.6220 C   0  0  0  0  0  0
   23.3219    4.6500    4.7850 Cl  0  0  0  0  0  0
   27.3417    5.2620    0.4969 N   0  0  0  0  0  0
   29.6996    6.1897   -4.3405 C   0  0  2  0  0  0
   25.3303    4.1126    1.3608 C   0  0  0  0  0  0
   28.1680    4.7095   -3.0522 N   0  0  2  0  0  0
   35.7166    3.8363   -3.4345 C   0  0  0  0  0  0
   29.8080    7.5991   -4.4150 O   0  0  0  0  0  0
   35.0483    3.9482   -4.6515 C   0  0  0  0  0  0
   33.7932    4.5525   -4.7089 C   0  0  0  0  0  0
   29.0748    5.8500   -2.9709 C   0  0  0  0  0  0
   26.9330    5.2885   -0.9037 C   0  0  0  0  0  0
   27.6917    4.2500   -1.7494 C   0  0  0  0  0  0
   36.6481    3.6096   -1.0462 H   0  0  0  0  0  0
   27.6334    6.0328    2.9288 H   0  0  0  0  0  0
   26.6080    8.4552    5.6089 H   0  0  0  0  0  0
   27.6520    7.8410    4.4874 H   0  0  0  0  0  0
   34.3432    6.3093    1.0435 H   0  0  0  0  0  0
   34.9932    6.8888   -0.5048 H   0  0  0  0  0  0
   23.4953    3.4276    2.2364 H   0  0  0  0  0  0
   31.4628    5.8500   -5.5630 H   0  0  0  0  0  0
   30.8744    4.4141   -4.7315 H   0  0  0  0  0  0
   28.2584    5.6205    0.7189 H   0  0  0  0  0  0
   29.0080    5.9197   -5.1366 H   0  0  0  0  0  0
   25.1161    3.6511    0.4078 H   0  0  0  0  0  0
   28.5809    3.9295   -3.5462 H   0  0  0  0  0  0
   36.6966    3.3799   -3.4066 H   0  0  0  0  0  0
   30.3868    7.8496   -5.1547 H   0  0  0  0  0  0
   35.5123    3.5817   -5.5556 H   0  0  0  0  0  0
   33.3162    4.6429   -5.6721 H   0  0  0  0  0  0
   29.8478    5.6982   -2.2156 H   0  0  0  0  0  0
   28.4837    6.7091   -2.6560 H   0  0  0  0  0  0
   27.1120    6.3038   -1.2490 H   0  0  0  0  0  0
   25.8577    5.1541   -1.0277 H   0  0  0  0  0  0
   27.0080    3.4229   -1.9237 H   0  0  0  0  0  0
   28.5415    3.8389   -1.2018 H   0  0  0  0  0  0
  1  2  1  0  0  0
  1 10  2  0  0  0
  1 11  2  0  0  0
  1 13  1  0  0  0
  2  8  2  0  0  0
  2  9  1  0  0  0
  3  4  1  0  0  0
  3 14  1  0  0  0
  4 12  2  0  0  0
  4  6  1  0  0  0
  5  6  1  0  0  0
  5  7  1  0  0  0
  5 32  1  0  0  0
  6 25  2  0  0  0
  7 16  2  0  0  0
  7 14  1  0  0  0
  8 17  1  0  0  0
  8 33  1  0  0  0
  9 18  2  0  0  0
  9 20  1  0  0  0
 12 15  1  0  0  0
 12 28  1  0  0  0
 13 34  1  0  0  0
 13 35  1  0  0  0
 14 36  1  0  0  0
 14 37  1  0  0  0
 15 19  1  0  0  0
 17 21  1  0  0  0
 17 23  2  0  0  0
 18 23  1  0  0  0
 18 38  1  0  0  0
 19 22  1  0  0  0
 19 39  1  0  0  0
 19 40  1  0  0  0
 21 30  1  0  0  0
 21 41  1  0  0  0
 22 29  1  0  0  0
 22 26  1  0  0  0
 22 42  1  0  0  0
 23 43  1  0  0  0
 24 31  1  0  0  0
 24 29  1  0  0  0
 24 44  1  0  0  0
 25 27  1  0  0  0
 25 45  1  0  0  0
 26 46  1  0  0  0
 27 28  2  0  0  0
 27 47  1  0  0  0
 28 48  1  0  0  0
 29 49  1  0  0  0
 29 50  1  0  0  0
 30 31  1  0  0  0
 30 51  1  0  0  0
 30 52  1  0  0  0
 31 53  1  0  0  0
 31 54  1  0  0  0
M  END
> <s_m_entry_id>
3281

> <s_m_entry_name>
dock_pv.373

> <s_m_Source_Path>
/home/csk/Desktop/cluster/DUD-E-result/adrb1

> <s_m_Source_File>
dock_pv.maegz

> <i_m_Source_File_Index>
373

> <chembl_id>
CHEMBL43968

> <chembl_pref_name>
None

> <i_lp_mmshare_version>
53161

> <i_f3d_flags>
0

> <r_lp_tautomer_probability>
1

> <s_lp_Force_Field>
OPLS_2005

> <r_lp_Energy>
42.712451

> <b_lp_Chiralities_Consistent>
1

> <s_lp_Variant>
CHEMBL213_lig1232-2

> <s_i_glide_gridfile>
glide-grid_2vt4

> <i_i_glide_lignum>
1469

> <i_i_glide_rotatable_bonds>
11

> <r_i_docking_score>
-7.04073515252044

> <r_i_glide_ligand_efficiency>
-0.227120488790982

> <r_i_glide_ligand_efficiency_sa>
-0.713471908432983

> <r_i_glide_ligand_efficiency_ln>
-1.58790154951247

> <r_i_glide_gscore>
-7.04073515252044

> <r_i_glide_lipo>
-2.40921378096517

> <r_i_glide_hbond>
-0.535881238171139

> <r_i_glide_metal>
0

> <r_i_glide_rewards>
-0.2748773445424

> <r_i_glide_evdw>
-46.9297103881836

> <r_i_glide_ecoul>
-14.1669263839722

> <r_i_glide_erotb>
0.685643105698527

> <r_i_glide_esite>
-0.0348814175352546

> <r_i_glide_emodel>
-74.3953748659568

> <r_i_glide_energy>
-61.0966367721558

> <r_i_glide_einternal>
17.1055583953857

> <i_i_glide_confnum>
24

> <i_i_glide_posenum>
104

> <r_i_glide_eff_state_penalty>
0

> <s_user_duplicate_titles>
CHEMBL213_lig1232,62071

> <s_m_subgroup_title>
dock_pv

> <s_m_subgroupid>
dock_pv

> <b_m_subgroup_collapsed>
1

$$$$
CHEMBL213_lig1030
                    3D
 Schrodinger Suite 2021-1.
 53 55  0  0  1  0            999 V2000
   31.6135    5.1956   -2.2514 C   0  0  0  0  0  0
   30.3388    4.7003   -2.9829 C   0  0  0  0  0  0
   29.9405    5.7060   -4.0964 C   0  0  0  0  0  0
   25.1259    3.3622    1.6207 C   0  0  0  0  0  0
   25.2985    3.1993    0.2524 C   0  0  0  0  0  0
   26.1390    4.0279   -0.4728 C   0  0  0  0  0  0
   26.8302    5.0615    0.1473 C   0  0  0  0  0  0
   25.8603    4.3483    2.2700 C   0  0  0  0  0  0
   26.7237    5.1752    1.5427 C   0  0  0  0  0  0
   27.5373    6.0457    2.2343 O   0  0  0  0  0  0
   27.0115    6.5447    3.4875 C   0  0  0  0  0  0
   26.3962    5.4500    4.3842 C   0  0  0  0  0  0
   25.8080    4.4870    3.6504 N   0  0  0  0  0  0
   26.4517    5.4550    5.6115 O   0  0  0  0  0  0
   24.6080    2.2500   -0.4150 O   0  0  0  0  0  0
   27.5563    6.0920   -0.7142 C   0  0  1  0  0  0
   29.0081    5.7341   -1.1055 C   0  0  0  0  0  0
   26.8699    6.4163   -1.9096 O   0  0  0  0  0  0
   29.1705    4.6370   -2.0766 N   0  0  2  0  0  0
   30.6563    3.2535   -3.5065 C   0  0  0  0  0  0
   30.3111    2.9131   -4.9623 C   0  0  0  0  0  0
   29.0067    2.4690   -5.2150 C   0  0  0  0  0  0
   28.6080    2.0891   -6.4910 C   0  0  0  0  0  0
   29.5186    2.1328   -7.5378 C   0  0  0  0  0  0
   30.8191    2.5754   -7.3070 C   0  0  0  0  0  0
   31.2379    2.9983   -6.0345 C   0  0  0  0  0  0
   32.6760    3.5470   -5.8929 C   0  0  0  0  0  0
   33.3364    3.0500   -4.8514 F   0  0  0  0  0  0
   33.4161    3.2757   -6.9706 F   0  0  0  0  0  0
   32.6408    4.8704   -5.7650 F   0  0  0  0  0  0
   32.5049    5.0650   -2.8669 H   0  0  0  0  0  0
   31.5714    6.2500   -2.0150 H   0  0  0  0  0  0
   31.7811    4.6527   -1.3203 H   0  0  0  0  0  0
   30.7204    5.8371   -4.8406 H   0  0  0  0  0  0
   29.0383    5.3877   -4.6202 H   0  0  0  0  0  0
   29.7247    6.6989   -3.7033 H   0  0  0  0  0  0
   24.4605    2.7075    2.1646 H   0  0  0  0  0  0
   26.2080    3.8971   -1.5438 H   0  0  0  0  0  0
   27.7902    7.0500    4.0571 H   0  0  0  0  0  0
   26.1990    7.2420    3.2786 H   0  0  0  0  0  0
   25.3377    3.7771    4.1899 H   0  0  0  0  0  0
   24.0259    2.6538   -1.0894 H   0  0  0  0  0  0
   27.5679    7.0187   -0.1463 H   0  0  0  0  0  0
   29.6024    5.5228   -0.2154 H   0  0  0  0  0  0
   29.4080    6.6414   -1.5406 H   0  0  0  0  0  0
   27.1608    5.7883   -2.5800 H   0  0  0  0  0  0
   29.0777    3.7185   -1.6559 H   0  0  0  0  0  0
   30.2080    2.4992   -2.8634 H   0  0  0  0  0  0
   31.6960    2.9978   -3.3355 H   0  0  0  0  0  0
   28.2823    2.4213   -4.4150 H   0  0  0  0  0  0
   27.5902    1.7720   -6.6625 H   0  0  0  0  0  0
   29.2098    1.8500   -8.5333 H   0  0  0  0  0  0
   31.4915    2.6206   -8.1514 H   0  0  0  0  0  0
  1  2  1  0  0  0
  1 31  1  0  0  0
  1 32  1  0  0  0
  1 33  1  0  0  0
  2 19  1  0  0  0
  2  3  1  0  0  0
  2 20  1  0  0  0
  3 34  1  0  0  0
  3 35  1  0  0  0
  3 36  1  0  0  0
  4  8  2  0  0  0
  4  5  1  0  0  0
  4 37  1  0  0  0
  5 15  1  0  0  0
  5  6  2  0  0  0
  6  7  1  0  0  0
  6 38  1  0  0  0
  7 16  1  0  0  0
  7  9  2  0  0  0
  8  9  1  0  0  0
  8 13  1  0  0  0
  9 10  1  0  0  0
 10 11  1  0  0  0
 11 12  1  0  0  0
 11 39  1  0  0  0
 11 40  1  0  0  0
 12 13  1  0  0  0
 12 14  2  0  0  0
 13 41  1  0  0  0
 15 42  1  0  0  0
 16 17  1  0  0  0
 16 18  1  0  0  0
 16 43  1  0  0  0
 17 19  1  0  0  0
 17 44  1  0  0  0
 17 45  1  0  0  0
 18 46  1  0  0  0
 19 47  1  0  0  0
 20 21  1  0  0  0
 20 48  1  0  0  0
 20 49  1  0  0  0
 21 22  2  0  0  0
 21 26  1  0  0  0
 22 23  1  0  0  0
 22 50  1  0  0  0
 23 24  2  0  0  0
 23 51  1  0  0  0
 24 25  1  0  0  0
 24 52  1  0  0  0
 25 26  2  0  0  0
 25 53  1  0  0  0
 26 27  1  0  0  0
 27 28  1  0  0  0
 27 29  1  0  0  0
 27 30  1  0  0  0
M  END
> <s_m_entry_id>
3282

> <s_m_entry_name>
dock_pv.374

> <s_m_Source_Path>
/home/csk/Desktop/cluster/DUD-E-result/adrb1

> <s_m_Source_File>
dock_pv.maegz

> <i_m_Source_File_Index>
374

> <chembl_id>
CHEMBL600617

> <chembl_pref_name>
None

> <i_lp_mmshare_version>
53161

> <i_f3d_flags>
0

> <r_lp_tautomer_probability>
0.999999999999998

> <s_lp_Force_Field>
OPLS_2005

> <r_lp_Energy>
38.073003

> <b_lp_Chiralities_Consistent>
1

> <s_lp_Variant>
CHEMBL213_lig1030-2

> <s_i_glide_gridfile>
glide-grid_2vt4

> <i_i_glide_lignum>
1181

> <i_i_glide_rotatable_bonds>
9

> <r_i_docking_score>
-7.04043896495497

> <r_i_glide_ligand_efficiency>
-0.234681298831832

> <r_i_glide_ligand_efficiency_sa>
-0.729209359443012

> <r_i_glide_ligand_efficiency_ln>
-1.59966444456442

> <r_i_glide_gscore>
-7.04043896495497

> <r_i_glide_lipo>
-2.53197721539664

> <r_i_glide_hbond>
-0.376966692175288

> <r_i_glide_metal>
0

> <r_i_glide_rewards>
-1.91097565425996

> <r_i_glide_evdw>
-33.4604835510254

> <r_i_glide_ecoul>
-8.05311298370361

> <r_i_glide_erotb>
0.660471721983722

> <r_i_glide_esite>
0

> <r_i_glide_emodel>
-51.2225264150189

> <r_i_glide_energy>
-41.513596534729

> <r_i_glide_einternal>
15.295467376709

> <i_i_glide_confnum>
132

> <i_i_glide_posenum>
318

> <r_i_glide_eff_state_penalty>
0

> <s_user_duplicate_titles>
CHEMBL213_lig1030,603130

> <s_m_subgroup_title>
dock_pv

> <s_m_subgroupid>
dock_pv

> <b_m_subgroup_collapsed>
1

$$$$
CHEMBL213_lig572
                    3D
 Schrodinger Suite 2021-1.
 48 50  0  0  1  0            999 V2000
   28.2117    5.3245    2.1666 N   0  0  0  0  0  0
   27.0791    4.6375    0.3380 C   0  0  0  0  0  0
   26.9370    5.0633    2.6083 C   0  0  0  0  0  0
   26.2242    4.5341    1.4904 C   0  0  0  0  0  0
   28.3012    5.0501    0.8258 C   0  0  0  0  0  0
   32.0298    4.0343   -2.8927 C   0  0  0  0  0  0
   26.6718    4.3142   -1.0873 C   0  0  0  0  0  0
   26.3477    5.2441    3.8631 C   0  0  0  0  0  0
   33.2734    3.4354   -3.1302 C   0  0  0  0  0  0
   28.8424    4.2500   -2.2629 N   0  0  1  0  0  0
   29.4916    4.3564   -3.5756 C   0  0  0  0  0  0
   30.8252    3.5672   -3.7185 C   0  0  2  0  0  0
   34.4056    3.8314   -2.4203 C   0  0  0  0  0  0
   35.9149    3.0514   -2.7165 Cl  0  0  0  0  0  0
   27.5310    4.8975   -2.2403 C   0  0  2  0  0  0
   27.1279    5.8038    4.8551 O   0  0  0  0  0  0
   24.9105    4.0797    1.6862 C   0  0  0  0  0  0
   30.6080    2.1693   -3.6149 O   0  0  0  0  0  0
   31.9453    5.0463   -1.9269 C   0  0  0  0  0  0
   24.3171    4.2500    2.9338 C   0  0  0  0  0  0
   33.0792    5.4499   -1.2191 C   0  0  0  0  0  0
   25.0094    4.8476    3.9847 C   0  0  0  0  0  0
   34.3109    4.8451   -1.4687 C   0  0  0  0  0  0
   26.4979    6.2500    6.0493 C   0  0  0  0  0  0
   27.6469    6.4362   -2.2049 C   0  0  0  0  0  0
   28.9865    5.6739    2.7127 H   0  0  0  0  0  0
   29.2335    5.2145    0.3036 H   0  0  0  0  0  0
   25.6669    4.7117   -1.2150 H   0  0  0  0  0  0
   26.5644    3.2365   -1.2150 H   0  0  0  0  0  0
   33.3602    2.6514   -3.8684 H   0  0  0  0  0  0
   28.6767    3.2719   -2.0231 H   0  0  0  0  0  0
   29.6885    5.4041   -3.8060 H   0  0  0  0  0  0
   28.8046    3.9948   -4.3437 H   0  0  0  0  0  0
   31.1269    3.7244   -4.7555 H   0  0  0  0  0  0
   27.0082    4.6224   -3.1591 H   0  0  0  0  0  0
   24.3476    3.6590    0.8646 H   0  0  0  0  0  0
   29.7490    2.0235   -3.1947 H   0  0  0  0  0  0
   31.0035    5.5257   -1.7139 H   0  0  0  0  0  0
   23.2912    3.9420    3.0798 H   0  0  0  0  0  0
   33.0061    6.2312   -0.4755 H   0  0  0  0  0  0
   24.4841    4.9861    4.9170 H   0  0  0  0  0  0
   35.1881    5.1532   -0.9188 H   0  0  0  0  0  0
   27.2595    6.6498    6.7180 H   0  0  0  0  0  0
   25.7811    7.0470    5.8445 H   0  0  0  0  0  0
   25.9897    5.4503    6.5841 H   0  0  0  0  0  0
   26.6564    6.8897   -2.1654 H   0  0  0  0  0  0
   28.2028    6.7872   -1.3364 H   0  0  0  0  0  0
   28.1386    6.8315   -3.0930 H   0  0  0  0  0  0
  1  3  1  0  0  0
  1  5  1  0  0  0
  1 26  1  0  0  0
  2  5  2  0  0  0
  2  7  1  0  0  0
  2  4  1  0  0  0
  3  4  2  0  0  0
  3  8  1  0  0  0
  4 17  1  0  0  0
  5 27  1  0  0  0
  6 12  1  0  0  0
  6  9  2  0  0  0
  6 19  1  0  0  0
  7 15  1  0  0  0
  7 28  1  0  0  0
  7 29  1  0  0  0
  8 16  1  0  0  0
  8 22  2  0  0  0
  9 13  1  0  0  0
  9 30  1  0  0  0
 10 15  1  0  0  0
 10 11  1  0  0  0
 10 31  1  0  0  0
 11 12  1  0  0  0
 11 32  1  0  0  0
 11 33  1  0  0  0
 12 18  1  0  0  0
 12 34  1  0  0  0
 13 14  1  0  0  0
 13 23  2  0  0  0
 15 25  1  0  0  0
 15 35  1  0  0  0
 16 24  1  0  0  0
 17 20  2  0  0  0
 17 36  1  0  0  0
 18 37  1  0  0  0
 19 21  2  0  0  0
 19 38  1  0  0  0
 20 22  1  0  0  0
 20 39  1  0  0  0
 21 23  1  0  0  0
 21 40  1  0  0  0
 22 41  1  0  0  0
 23 42  1  0  0  0
 24 43  1  0  0  0
 24 44  1  0  0  0
 24 45  1  0  0  0
 25 46  1  0  0  0
 25 47  1  0  0  0
 25 48  1  0  0  0
M  END
> <s_m_entry_id>
3283

> <s_m_entry_name>
dock_pv.375

> <s_m_Source_Path>
/home/csk/Desktop/cluster/DUD-E-result/adrb1

> <s_m_Source_File>
dock_pv.maegz

> <i_m_Source_File_Index>
375

> <chembl_id>
CHEMBL26183

> <chembl_pref_name>
None

> <i_lp_mmshare_version>
53161

> <i_f3d_flags>
0

> <r_lp_tautomer_probability>
1

> <s_lp_Force_Field>
OPLS_2005

> <r_lp_Energy>
23.832968

> <b_lp_Chiralities_Consistent>
1

> <s_lp_Variant>
CHEMBL213_lig572-1

> <s_i_glide_gridfile>
glide-grid_2vt4

> <i_i_glide_lignum>
672

> <i_i_glide_rotatable_bonds>
8

> <r_i_docking_score>
-7.03824111976861

> <r_i_glide_ligand_efficiency>
-0.281529644790745

> <r_i_glide_ligand_efficiency_sa>
-0.823197674317648

> <r_i_glide_ligand_efficiency_ln>
-1.6682740644514

> <r_i_glide_gscore>
-7.03824111976861

> <r_i_glide_lipo>
-2.78486694868796

> <r_i_glide_hbond>
-0.608

> <r_i_glide_metal>
0

> <r_i_glide_rewards>
-1.3951020238471

> <r_i_glide_evdw>
-33.1540489196777

> <r_i_glide_ecoul>
-8.90994644165039

> <r_i_glide_erotb>
0.743922264997896

> <r_i_glide_esite>
0

> <r_i_glide_emodel>
-56.7429408653743

> <r_i_glide_energy>
-42.0639953613281

> <r_i_glide_einternal>
5.81153917312622

> <i_i_glide_confnum>
168

> <i_i_glide_posenum>
302

> <r_i_glide_eff_state_penalty>
0

> <s_user_duplicate_titles>
CHEMBL213_lig572,CHEMBL213_lig1100,32192

> <s_m_subgroup_title>
dock_pv

> <s_m_subgroupid>
dock_pv

> <b_m_subgroup_collapsed>
1

$$$$
CHEMBL213_lig867
                    3D
 Schrodinger Suite 2021-1.
 55 58  0  0  1  0            999 V2000
   28.1738    5.7645   -2.6208 C   0  0  0  0  0  0
   28.4400    6.6963   -3.6155 C   0  0  0  0  0  0
   29.6387    6.6374   -4.3190 C   0  0  0  0  0  0
   30.5827    5.6524   -4.0241 C   0  0  0  0  0  0
   30.3305    4.7050   -3.0189 C   0  0  0  0  0  0
   29.1127    4.7716   -2.3237 C   0  0  0  0  0  0
   31.3164    3.5695   -2.6961 C   0  0  2  0  0  0
   32.7900    3.7512   -3.1682 C   0  0  0  0  0  0
   30.8711    2.3406   -3.2360 O   0  0  0  0  0  0
   26.6701    5.8544   -1.7821 Cl  0  0  0  0  0  0
   33.5327    4.9058   -2.6421 N   0  0  1  0  0  0
   33.8023    4.8829   -1.2047 C   0  0  1  0  0  0
   35.1824    5.4698   -0.8498 C   0  0  0  0  0  0
   35.5020    5.2365    0.6425 C   0  0  0  0  0  0
   32.7399    5.6662   -0.4142 C   0  0  0  0  0  0
   33.0582    5.8493    1.0695 C   0  0  0  0  0  0
   34.3705    5.7006    1.5629 C   0  0  0  0  0  0
   34.6041    5.9424    2.9220 C   0  0  0  0  0  0
   33.5654    6.3011    3.7817 C   0  0  0  0  0  0
   32.2640    6.4520    3.3048 C   0  0  0  0  0  0
   32.0434    6.2499    1.9421 C   0  0  0  0  0  0
   31.3027    6.8693    4.2095 O   0  0  0  0  0  0
   29.9353    6.6500    4.1268 C   0  0  0  0  0  0
   29.1726    7.2462    5.1253 C   0  0  0  0  0  0
   27.7998    7.0411    5.1850 C   0  0  0  0  0  0
   27.1312    6.3098    4.2182 C   0  0  0  0  0  0
   27.8645    5.7224    3.1779 C   0  0  0  0  0  0
   29.2669    5.8350    3.1950 C   0  0  0  0  0  0
   27.1862    5.0491    2.0152 C   0  0  0  0  0  0
   27.8270    5.2205    0.8325 O   0  0  0  0  0  0
   26.1404    4.4135    2.1081 O   0  0  0  0  0  0
   25.4083    6.2007    4.3711 Cl  0  0  0  0  0  0
   27.7140    7.4615   -3.8552 H   0  0  0  0  0  0
   29.8086    7.3579   -5.1030 H   0  0  0  0  0  0
   31.4989    5.6298   -4.5958 H   0  0  0  0  0  0
   28.8882    4.0355   -1.5646 H   0  0  0  0  0  0
   31.3278    3.4194   -1.6172 H   0  0  0  0  0  0
   32.8002    3.8282   -4.2566 H   0  0  0  0  0  0
   33.3623    2.8503   -2.9374 H   0  0  0  0  0  0
   29.9830    2.1627   -2.8997 H   0  0  0  0  0  0
   34.4001    5.0274   -3.1512 H   0  0  0  0  0  0
   33.8077    3.8502   -0.8638 H   0  0  0  0  0  0
   35.2237    6.5318   -1.1000 H   0  0  0  0  0  0
   35.9567    4.9927   -1.4526 H   0  0  0  0  0  0
   36.4388    5.7289    0.9060 H   0  0  0  0  0  0
   35.6568    4.1695    0.8096 H   0  0  0  0  0  0
   31.7354    5.2764   -0.5572 H   0  0  0  0  0  0
   32.7150    6.6560   -0.8496 H   0  0  0  0  0  0
   35.6009    5.8369    3.3187 H   0  0  0  0  0  0
   33.7693    6.4760    4.8272 H   0  0  0  0  0  0
   31.0895    6.4799    1.5033 H   0  0  0  0  0  0
   29.6525    7.8494    5.8778 H   0  0  0  0  0  0
   27.2214    7.4498    5.9850 H   0  0  0  0  0  0
   29.8191    5.2617    2.4715 H   0  0  0  0  0  0
   27.2988    4.8511    0.1207 H   0  0  0  0  0  0
  1 10  1  0  0  0
  1  6  1  0  0  0
  1  2  2  0  0  0
  2  3  1  0  0  0
  2 33  1  0  0  0
  3  4  2  0  0  0
  3 34  1  0  0  0
  4  5  1  0  0  0
  4 35  1  0  0  0
  5  6  2  0  0  0
  5  7  1  0  0  0
  6 36  1  0  0  0
  7  8  1  0  0  0
  7  9  1  0  0  0
  7 37  1  0  0  0
  8 11  1  0  0  0
  8 38  1  0  0  0
  8 39  1  0  0  0
  9 40  1  0  0  0
 11 12  1  0  0  0
 11 41  1  0  0  0
 12 13  1  0  0  0
 12 15  1  0  0  0
 12 42  1  0  0  0
 13 14  1  0  0  0
 13 43  1  0  0  0
 13 44  1  0  0  0
 14 17  1  0  0  0
 14 45  1  0  0  0
 14 46  1  0  0  0
 15 16  1  0  0  0
 15 47  1  0  0  0
 15 48  1  0  0  0
 16 17  2  0  0  0
 16 21  1  0  0  0
 17 18  1  0  0  0
 18 19  2  0  0  0
 18 49  1  0  0  0
 19 20  1  0  0  0
 19 50  1  0  0  0
 20 21  2  0  0  0
 20 22  1  0  0  0
 21 51  1  0  0  0
 22 23  1  0  0  0
 23 24  2  0  0  0
 23 28  1  0  0  0
 24 25  1  0  0  0
 24 52  1  0  0  0
 25 26  2  0  0  0
 25 53  1  0  0  0
 26 27  1  0  0  0
 26 32  1  0  0  0
 27 28  2  0  0  0
 27 29  1  0  0  0
 28 54  1  0  0  0
 29 30  1  0  0  0
 29 31  2  0  0  0
 30 55  1  0  0  0
M  END
> <s_m_entry_id>
3285

> <s_m_entry_name>
dock_pv.377

> <s_m_Source_Path>
/home/csk/Desktop/cluster/DUD-E-result/adrb1

> <s_m_Source_File>
dock_pv.maegz

> <i_m_Source_File_Index>
377

> <chembl_id>
CHEMBL497115

> <chembl_pref_name>
None

> <i_lp_mmshare_version>
53161

> <i_f3d_flags>
0

> <r_lp_tautomer_probability>
1

> <s_lp_Force_Field>
OPLS_2005

> <r_lp_Energy>
32.516696

> <b_lp_Chiralities_Consistent>
1

> <s_lp_Variant>
CHEMBL213_lig867-1

> <s_i_glide_gridfile>
glide-grid_2vt4

> <i_i_glide_lignum>
975

> <i_i_glide_rotatable_bonds>
9

> <r_i_docking_score>
-7.03668625358025

> <r_i_glide_ligand_efficiency>
-0.219896445424383

> <r_i_glide_ligand_efficiency_sa>
-0.698127696774958

> <r_i_glide_ligand_efficiency_ln>
-1.57570586499947

> <r_i_glide_gscore>
-7.03668625358025

> <r_i_glide_lipo>
-3.35024459322349

> <r_i_glide_hbond>
-0.32

> <r_i_glide_metal>
0

> <r_i_glide_rewards>
-0.863584035830041

> <r_i_glide_evdw>
-43.4911041259766

> <r_i_glide_ecoul>
-5.8134822845459

> <r_i_glide_erotb>
0.543719924453996

> <r_i_glide_esite>
0

> <r_i_glide_emodel>
-60.8438995407625

> <r_i_glide_energy>
-49.3045864105225

> <r_i_glide_einternal>
12.1364183425903

> <i_i_glide_confnum>
57

> <i_i_glide_posenum>
363

> <r_i_glide_eff_state_penalty>
0

> <s_user_duplicate_titles>
CHEMBL213_lig867

> <s_m_subgroup_title>
dock_pv

> <s_m_subgroupid>
dock_pv

> <b_m_subgroup_collapsed>
1

$$$$
CHEMBL213_lig392
                    3D
 Schrodinger Suite 2021-1.
 63 67  0  0  1  0            999 V2000
   30.2723    6.2501    3.1851 C   0  0  0  0  0  0
   30.5757    7.1729    4.1852 C   0  0  0  0  0  0
   29.6977    7.5140    5.1593 N   0  0  0  0  0  0
   28.4712    6.9353    5.1370 C   0  0  0  0  0  0
   28.0691    6.0011    4.1671 C   0  0  0  0  0  0
   29.0092    5.6533    3.1855 C   0  0  0  0  0  0
   26.6702    5.3658    4.1880 C   0  0  2  0  0  0
   25.8661    5.5187    2.8677 C   0  0  0  0  0  0
   25.8491    5.8501    5.2417 O   0  0  0  0  0  0
   26.2071    4.4973    1.8807 N   0  0  1  0  0  0
   25.3453    4.4975    0.6938 C   0  0  0  0  0  0
   25.8421    5.4686   -0.4124 C   0  0  0  0  0  0
   27.2153    5.1705   -1.0140 C   0  0  0  0  0  0
   27.9357    4.0397   -0.6438 C   0  0  0  0  0  0
   29.2564    3.8619   -1.0393 C   0  0  0  0  0  0
   29.8465    4.7886   -1.8880 C   0  0  0  0  0  0
   29.0747    5.8500   -2.3917 C   0  0  0  0  0  0
   27.7775    6.0575   -1.9296 C   0  0  0  0  0  0
   31.2008    4.5547   -2.1748 N   0  0  0  0  0  0
   32.0015    5.2187   -3.0238 C   0  0  0  0  0  0
   31.7113    6.2500   -3.6151 O   0  0  0  0  0  0
   33.3056    4.5401   -3.3099 C   0  0  0  0  0  0
   34.4482    4.9467   -2.6093 C   0  0  0  0  0  0
   35.6925    4.3982   -2.9131 C   0  0  0  0  0  0
   35.8061    3.4539   -3.9289 C   0  0  0  0  0  0
   34.6740    3.0501   -4.6349 C   0  0  0  0  0  0
   33.4078    3.5663   -4.3288 C   0  0  0  0  0  0
   32.2251    3.0764   -5.1238 C   0  0  0  0  0  0
   32.2215    2.9027   -6.4260 N   0  0  0  0  0  0
   31.0055    2.7717   -4.5574 N   0  0  0  0  0  0
   30.1280    2.4849   -5.5647 C   0  0  0  0  0  0
   30.9353    2.5367   -6.7260 C   0  0  0  0  0  0
   30.3645    2.2496   -7.9692 C   0  0  0  0  0  0
   28.9934    1.9897   -8.0147 C   0  0  0  0  0  0
   28.2090    1.9950   -6.8632 C   0  0  0  0  0  0
   28.7590    2.2131   -5.6004 C   0  0  0  0  0  0
   31.0040    5.9938    2.4329 H   0  0  0  0  0  0
   31.5419    7.6563    4.2162 H   0  0  0  0  0  0
   27.8088    7.2384    5.9355 H   0  0  0  0  0  0
   28.7829    4.9187    2.4291 H   0  0  0  0  0  0
   26.7939    4.3031    4.4065 H   0  0  0  0  0  0
   26.0113    6.5227    2.4655 H   0  0  0  0  0  0
   24.8055    5.3880    3.0916 H   0  0  0  0  0  0
   25.4913    6.7045    4.9896 H   0  0  0  0  0  0
   27.1487    4.6603    1.5543 H   0  0  0  0  0  0
   24.2902    4.6465    0.9299 H   0  0  0  0  0  0
   25.3866    3.4847    0.2917 H   0  0  0  0  0  0
   25.8875    6.4816   -0.0151 H   0  0  0  0  0  0
   25.1095    5.5068   -1.2150 H   0  0  0  0  0  0
   27.4906    3.2847   -0.0166 H   0  0  0  0  0  0
   29.8058    3.0000   -0.6916 H   0  0  0  0  0  0
   29.4597    6.5657   -3.0995 H   0  0  0  0  0  0
   27.2186    6.9161   -2.2715 H   0  0  0  0  0  0
   31.6074    3.7502   -1.7241 H   0  0  0  0  0  0
   34.3860    5.7019   -1.8373 H   0  0  0  0  0  0
   36.5745    4.7159   -2.3753 H   0  0  0  0  0  0
   36.7754    3.0436   -4.1731 H   0  0  0  0  0  0
   34.7853    2.3213   -5.4249 H   0  0  0  0  0  0
   30.8096    2.8563   -3.5716 H   0  0  0  0  0  0
   30.9631    2.2567   -8.8667 H   0  0  0  0  0  0
   28.5226    1.8044   -8.9631 H   0  0  0  0  0  0
   27.1428    1.8501   -6.9501 H   0  0  0  0  0  0
   28.1449    2.2119   -4.7087 H   0  0  0  0  0  0
  1  6  1  0  0  0
  1  2  2  0  0  0
  1 37  1  0  0  0
  2  3  1  0  0  0
  2 38  1  0  0  0
  3  4  2  0  0  0
  4  5  1  0  0  0
  4 39  1  0  0  0
  5  6  2  0  0  0
  5  7  1  0  0  0
  6 40  1  0  0  0
  7  9  1  0  0  0
  7  8  1  0  0  0
  7 41  1  0  0  0
  8 10  1  0  0  0
  8 42  1  0  0  0
  8 43  1  0  0  0
  9 44  1  0  0  0
 10 11  1  0  0  0
 10 45  1  0  0  0
 11 12  1  0  0  0
 11 46  1  0  0  0
 11 47  1  0  0  0
 12 13  1  0  0  0
 12 48  1  0  0  0
 12 49  1  0  0  0
 13 18  1  0  0  0
 13 14  2  0  0  0
 14 15  1  0  0  0
 14 50  1  0  0  0
 15 16  2  0  0  0
 15 51  1  0  0  0
 16 19  1  0  0  0
 16 17  1  0  0  0
 17 18  2  0  0  0
 17 52  1  0  0  0
 18 53  1  0  0  0
 19 20  1  0  0  0
 19 54  1  0  0  0
 20 21  2  0  0  0
 20 22  1  0  0  0
 22 23  2  0  0  0
 22 27  1  0  0  0
 23 24  1  0  0  0
 23 55  1  0  0  0
 24 25  2  0  0  0
 24 56  1  0  0  0
 25 26  1  0  0  0
 25 57  1  0  0  0
 26 27  2  0  0  0
 26 58  1  0  0  0
 27 28  1  0  0  0
 28 29  2  0  0  0
 28 30  1  0  0  0
 29 32  1  0  0  0
 30 31  1  0  0  0
 30 59  1  0  0  0
 31 32  2  0  0  0
 31 36  1  0  0  0
 32 33  1  0  0  0
 33 34  2  0  0  0
 33 60  1  0  0  0
 34 35  1  0  0  0
 34 61  1  0  0  0
 35 36  2  0  0  0
 35 62  1  0  0  0
 36 63  1  0  0  0
M  END
> <s_m_entry_id>
3286

> <s_m_entry_name>
dock_pv.378

> <s_m_Source_Path>
/home/csk/Desktop/cluster/DUD-E-result/adrb1

> <s_m_Source_File>
dock_pv.maegz

> <i_m_Source_File_Index>
378

> <chembl_id>
CHEMBL1078575

> <chembl_pref_name>
None

> <i_lp_mmshare_version>
53161

> <i_f3d_flags>
0

> <r_lp_tautomer_probability>
1

> <s_lp_Force_Field>
OPLS_2005

> <r_lp_Energy>
43.688015

> <b_lp_Chiralities_Consistent>
1

> <s_lp_Variant>
CHEMBL213_lig392-1

> <s_i_glide_gridfile>
glide-grid_2vt4

> <i_i_glide_lignum>
460

> <i_i_glide_rotatable_bonds>
11

> <r_i_docking_score>
-7.03379535509324

> <r_i_glide_ligand_efficiency>
-0.195383204308146

> <r_i_glide_ligand_efficiency_sa>
-0.645141125510787

> <r_i_glide_ligand_efficiency_ln>
-1.53458411529166

> <r_i_glide_gscore>
-7.03379535509324

> <r_i_glide_lipo>
-2.94203759809138

> <r_i_glide_hbond>
-0.32

> <r_i_glide_metal>
0

> <r_i_glide_rewards>
-1.16840318936483

> <r_i_glide_evdw>
-44.8661117553711

> <r_i_glide_ecoul>
-7.72995948791504

> <r_i_glide_erotb>
0.799444943318773

> <r_i_glide_esite>
0

> <r_i_glide_emodel>
-58.2618768671075

> <r_i_glide_energy>
-52.5960712432861

> <r_i_glide_einternal>
12.6774806976318

> <i_i_glide_confnum>
21

> <i_i_glide_posenum>
5

> <r_i_glide_eff_state_penalty>
0

> <s_user_duplicate_titles>
CHEMBL213_lig392

> <s_m_subgroup_title>
dock_pv

> <s_m_subgroupid>
dock_pv

> <b_m_subgroup_collapsed>
1

$$$$
CHEMBL213_lig332
                    3D
 Schrodinger Suite 2021-1.
 70 74  0  0  1  0            999 V2000
   34.4146    6.9144    3.5476 S   0  0  0  0  0  0
   28.0707    5.1186    1.6511 N   0  0  0  0  0  0
   28.5548    5.4500    2.8158 C   0  0  0  0  0  0
   27.3655    5.4601    4.0836 S   0  0  0  0  0  0
   35.3278    5.6040    2.7492 N   0  0  0  0  0  0
   26.7675    4.9326    1.6353 C   0  0  0  0  0  0
   32.6747    6.5838    3.2617 C   0  0  0  0  0  0
   26.1632    5.0496    2.8882 C   0  0  0  0  0  0
   34.6389    6.7118    4.9842 O   0  0  0  0  0  0
   34.7677    8.1956    2.9269 O   0  0  0  0  0  0
   29.9888    5.8500    2.9935 C   0  0  0  0  0  0
   32.5462    3.5192   -6.2378 C   0  0  0  0  0  0
   31.4456    1.8497   -7.6158 N   0  0  0  0  0  0
   31.7371    7.0022    4.2087 C   0  0  0  0  0  0
   32.2618    5.8500    2.1501 C   0  0  0  0  0  0
   30.9323    5.4619    2.0296 C   0  0  0  0  0  0
   30.3975    6.6503    4.0649 C   0  0  0  0  0  0
   26.1334    4.6170    0.2817 C   0  0  0  0  0  0
   35.6104    5.4764    1.3754 C   0  0  0  0  0  0
   33.7694    4.4249   -6.0369 C   0  0  1  0  0  0
   26.9492    5.0800   -0.9301 C   0  0  0  0  0  0
   28.4653    5.8947   -3.1200 C   0  0  0  0  0  0
   34.1793    4.1039   -3.5599 N   0  0  2  0  0  0
   29.2096    6.2953   -4.1753 F   0  0  0  0  0  0
   36.1778    5.0457   -1.3349 C   0  0  0  0  0  0
   32.4962    2.6673   -7.3497 C   0  0  0  0  0  0
   36.1156    4.2498    0.9405 C   0  0  0  0  0  0
   35.4076    6.4948    0.4395 C   0  0  0  0  0  0
   28.8137    4.7368   -2.4347 C   0  0  0  0  0  0
   27.3688    6.6499   -2.7134 C   0  0  0  0  0  0
   28.0547    4.3313   -1.3412 C   0  0  0  0  0  0
   26.6088    6.2501   -1.6148 C   0  0  0  0  0  0
   36.4076    4.0349   -0.4023 C   0  0  0  0  0  0
   35.6797    6.2792   -0.9089 C   0  0  0  0  0  0
   33.8079    5.4501   -7.0148 O   0  0  0  0  0  0
   33.9012    5.0661   -4.6282 C   0  0  0  0  0  0
   31.4383    3.5158   -5.3714 C   0  0  0  0  0  0
   30.3951    1.8634   -6.7587 C   0  0  0  0  0  0
   35.5871    3.7152   -3.4695 C   0  0  0  0  0  0
   36.4771    4.7972   -2.8097 C   0  0  0  0  0  0
   30.3516    2.6787   -5.6294 C   0  0  0  0  0  0
   35.4068    4.7659    3.2983 H   0  0  0  0  0  0
   25.1223    4.9309    3.1492 H   0  0  0  0  0  0
   32.0498    7.5691    5.0721 H   0  0  0  0  0  0
   32.9633    5.5311    1.3975 H   0  0  0  0  0  0
   30.6437    4.8613    1.1784 H   0  0  0  0  0  0
   29.6863    6.9898    4.8031 H   0  0  0  0  0  0
   25.9740    3.5405    0.1934 H   0  0  0  0  0  0
   25.1358    5.0496    0.2070 H   0  0  0  0  0  0
   34.6571    3.8184   -6.2225 H   0  0  0  0  0  0
   33.6076    3.2766   -3.6777 H   0  0  0  0  0  0
   33.3084    2.6460   -8.0625 H   0  0  0  0  0  0
   36.2757    3.4408    1.6366 H   0  0  0  0  0  0
   35.0081    7.4505    0.7247 H   0  0  0  0  0  0
   29.6630    4.1490   -2.7501 H   0  0  0  0  0  0
   27.1111    7.5513   -3.2464 H   0  0  0  0  0  0
   28.3305    3.4338   -0.8142 H   0  0  0  0  0  0
   25.7597    6.8386   -1.3035 H   0  0  0  0  0  0
   36.8112    3.0822   -0.7157 H   0  0  0  0  0  0
   35.4997    7.0742   -1.6157 H   0  0  0  0  0  0
   34.5189    6.0802   -6.8148 H   0  0  0  0  0  0
   34.6617    5.8479   -4.6274 H   0  0  0  0  0  0
   32.9674    5.5673   -4.3775 H   0  0  0  0  0  0
   31.3936    4.1578   -4.5057 H   0  0  0  0  0  0
   29.5721    1.2060   -6.9923 H   0  0  0  0  0  0
   35.5969    2.8371   -2.8205 H   0  0  0  0  0  0
   35.9982    3.3721   -4.4204 H   0  0  0  0  0  0
   37.5228    4.4980   -2.8963 H   0  0  0  0  0  0
   36.4162    5.7385   -3.3565 H   0  0  0  0  0  0
   29.4954    2.6675   -4.9709 H   0  0  0  0  0  0
  1  5  1  0  0  0
  1  7  1  0  0  0
  1  9  2  0  0  0
  1 10  2  0  0  0
  2  3  2  0  0  0
  2  6  1  0  0  0
  3 11  1  0  0  0
  3  4  1  0  0  0
  4  8  1  0  0  0
  5 19  1  0  0  0
  5 42  1  0  0  0
  6 18  1  0  0  0
  6  8  2  0  0  0
  7 14  2  0  0  0
  7 15  1  0  0  0
  8 43  1  0  0  0
 11 16  1  0  0  0
 11 17  2  0  0  0
 12 20  1  0  0  0
 12 26  2  0  0  0
 12 37  1  0  0  0
 13 26  1  0  0  0
 13 38  2  0  0  0
 14 17  1  0  0  0
 14 44  1  0  0  0
 15 16  2  0  0  0
 15 45  1  0  0  0
 16 46  1  0  0  0
 17 47  1  0  0  0
 18 21  1  0  0  0
 18 48  1  0  0  0
 18 49  1  0  0  0
 19 27  1  0  0  0
 19 28  2  0  0  0
 20 36  1  0  0  0
 20 35  1  0  0  0
 20 50  1  0  0  0
 21 31  1  0  0  0
 21 32  2  0  0  0
 22 30  2  0  0  0
 22 24  1  0  0  0
 22 29  1  0  0  0
 23 39  1  0  0  0
 23 36  1  0  0  0
 23 51  1  0  0  0
 25 34  2  0  0  0
 25 40  1  0  0  0
 25 33  1  0  0  0
 26 52  1  0  0  0
 27 33  2  0  0  0
 27 53  1  0  0  0
 28 34  1  0  0  0
 28 54  1  0  0  0
 29 31  2  0  0  0
 29 55  1  0  0  0
 30 32  1  0  0  0
 30 56  1  0  0  0
 31 57  1  0  0  0
 32 58  1  0  0  0
 33 59  1  0  0  0
 34 60  1  0  0  0
 35 61  1  0  0  0
 36 62  1  0  0  0
 36 63  1  0  0  0
 37 41  2  0  0  0
 37 64  1  0  0  0
 38 41  1  0  0  0
 38 65  1  0  0  0
 39 40  1  0  0  0
 39 66  1  0  0  0
 39 67  1  0  0  0
 40 68  1  0  0  0
 40 69  1  0  0  0
 41 70  1  0  0  0
M  END
> <s_m_entry_id>
3287

> <s_m_entry_name>
dock_pv.379

> <s_m_Source_Path>
/home/csk/Desktop/cluster/DUD-E-result/adrb1

> <s_m_Source_File>
dock_pv.maegz

> <i_m_Source_File_Index>
379

> <chembl_id>
CHEMBL430594

> <chembl_pref_name>
None

> <i_lp_mmshare_version>
53161

> <i_f3d_flags>
0

> <r_lp_tautomer_probability>
1

> <s_lp_Force_Field>
OPLS_2005

> <r_lp_Energy>
29.170073

> <b_lp_Chiralities_Consistent>
1

> <s_lp_Variant>
CHEMBL213_lig332-1

> <s_i_glide_gridfile>
glide-grid_2vt4

> <i_i_glide_lignum>
393

> <i_i_glide_rotatable_bonds>
13

> <r_i_docking_score>
-7.02768709635425

> <r_i_glide_ligand_efficiency>
-0.171407002350104

> <r_i_glide_ligand_efficiency_sa>
-0.591048579894317

> <r_i_glide_ligand_efficiency_ln>
-1.49094720456199

> <r_i_glide_gscore>
-7.02768709635425

> <r_i_glide_lipo>
-2.91284772864651

> <r_i_glide_hbond>
-0.16

> <r_i_glide_metal>
0

> <r_i_glide_rewards>
-0.697399111189005

> <r_i_glide_evdw>
-61.3544692993164

> <r_i_glide_ecoul>
-4.41798734664917

> <r_i_glide_erotb>
0.557462054735009

> <r_i_glide_esite>
-0.0844807442905563

> <r_i_glide_emodel>
-87.1634814464436

> <r_i_glide_energy>
-65.7724566459656

> <r_i_glide_einternal>
8.86233520507812

> <i_i_glide_confnum>
59

> <i_i_glide_posenum>
220

> <r_i_glide_eff_state_penalty>
0

> <s_user_duplicate_titles>
CHEMBL213_lig332

> <s_m_subgroup_title>
dock_pv

> <s_m_subgroupid>
dock_pv

> <b_m_subgroup_collapsed>
1

$$$$
CHEMBL213_lig1173
                    3D
 Schrodinger Suite 2021-1.
 52 54  0  0  1  0            999 V2000
   36.7149    4.3664    0.0234 C   0  0  0  0  0  0
   35.8107    4.3175   -1.0342 C   0  0  0  0  0  0
   34.5734    4.9661   -0.9381 C   0  0  0  0  0  0
   34.2555    5.6526    0.2400 C   0  0  0  0  0  0
   35.1498    5.6931    1.3203 C   0  0  0  0  0  0
   36.3892    5.0605    1.1855 C   0  0  0  0  0  0
   34.8290    6.4711    2.6028 C   0  0  2  0  0  0
   33.4057    6.2184    3.1667 C   0  0  0  0  0  0
   35.0080    7.8499    2.3851 O   0  0  0  0  0  0
   33.1082    7.0457    4.3432 N   0  0  2  0  0  0
   31.8214    6.7790    4.9900 C   0  0  0  0  0  0
   30.6209    6.7284    4.0228 C   0  0  0  0  0  0
   29.3872    6.6484    4.7440 O   0  0  0  0  0  0
   28.2708    6.1030    4.1260 C   0  0  0  0  0  0
   28.2504    5.6436    2.7976 C   0  0  0  0  0  0
   25.9316    5.4508    4.4016 C   0  0  0  0  0  0
   27.1090    6.0186    4.8943 C   0  0  0  0  0  0
   25.9191    4.9438    3.0946 C   0  0  0  0  0  0
   27.0784    5.0850    2.2776 C   0  0  0  0  0  0
   26.8880    4.6217    1.0085 N   0  0  0  0  0  0
   25.6460    4.1189    1.0588 N   0  0  0  0  0  0
   24.9933    4.2499    2.2622 C   0  0  0  0  0  0
   33.6285    4.9669   -1.9761 N   0  0  0  0  0  0
   33.7161    3.9720   -3.4422 S   0  0  0  0  0  0
   34.9994    4.8715   -4.4790 C   0  0  0  0  0  0
   32.4139    4.1137   -4.0996 O   0  0  0  0  0  0
   34.2302    2.6503   -3.0705 O   0  0  0  0  0  0
   23.6025    3.7059    2.4778 C   0  0  0  0  0  0
   37.6726    3.8724   -0.0675 H   0  0  0  0  0  0
   36.1013    3.7738   -1.9194 H   0  0  0  0  0  0
   33.3085    6.1681    0.3092 H   0  0  0  0  0  0
   37.1118    5.1116    1.9851 H   0  0  0  0  0  0
   35.5417    6.1801    3.3768 H   0  0  0  0  0  0
   32.6706    6.4209    2.3877 H   0  0  0  0  0  0
   33.3182    5.1682    3.4462 H   0  0  0  0  0  0
   34.3121    8.1311    1.7761 H   0  0  0  0  0  0
   33.1866    8.0423    4.1493 H   0  0  0  0  0  0
   31.9043    5.8503    5.5525 H   0  0  0  0  0  0
   31.6523    7.5616    5.7301 H   0  0  0  0  0  0
   30.6040    7.6045    3.3723 H   0  0  0  0  0  0
   30.7688    5.8494    3.3986 H   0  0  0  0  0  0
   29.1137    5.7088    2.1587 H   0  0  0  0  0  0
   25.0537    5.3877    5.0275 H   0  0  0  0  0  0
   27.1229    6.3947    5.9072 H   0  0  0  0  0  0
   25.2276    3.6926    0.2434 H   0  0  0  0  0  0
   32.7775    5.4877   -1.8416 H   0  0  0  0  0  0
   35.1871    4.2945   -5.3828 H   0  0  0  0  0  0
   35.9228    4.9852   -3.9131 H   0  0  0  0  0  0
   34.6087    5.8489   -4.7465 H   0  0  0  0  0  0
   23.0627    4.2530    3.2495 H   0  0  0  0  0  0
   23.0060    3.7545    1.5671 H   0  0  0  0  0  0
   23.6293    2.6600    2.7830 H   0  0  0  0  0  0
  1  2  2  0  0  0
  1  6  1  0  0  0
  1 29  1  0  0  0
  2  3  1  0  0  0
  2 30  1  0  0  0
  3  4  2  0  0  0
  3 23  1  0  0  0
  4  5  1  0  0  0
  4 31  1  0  0  0
  5  6  2  0  0  0
  5  7  1  0  0  0
  6 32  1  0  0  0
  7  8  1  0  0  0
  7  9  1  0  0  0
  7 33  1  0  0  0
  8 10  1  0  0  0
  8 34  1  0  0  0
  8 35  1  0  0  0
  9 36  1  0  0  0
 10 11  1  0  0  0
 10 37  1  0  0  0
 11 12  1  0  0  0
 11 38  1  0  0  0
 11 39  1  0  0  0
 12 13  1  0  0  0
 12 40  1  0  0  0
 12 41  1  0  0  0
 13 14  1  0  0  0
 14 15  2  0  0  0
 14 17  1  0  0  0
 15 19  1  0  0  0
 15 42  1  0  0  0
 16 17  2  0  0  0
 16 43  1  0  0  0
 16 18  1  0  0  0
 17 44  1  0  0  0
 18 19  1  0  0  0
 18 22  2  0  0  0
 19 20  2  0  0  0
 20 21  1  0  0  0
 21 45  1  0  0  0
 21 22  1  0  0  0
 22 28  1  0  0  0
 23 24  1  0  0  0
 23 46  1  0  0  0
 24 25  1  0  0  0
 24 26  2  0  0  0
 24 27  2  0  0  0
 25 47  1  0  0  0
 25 48  1  0  0  0
 25 49  1  0  0  0
 28 50  1  0  0  0
 28 51  1  0  0  0
 28 52  1  0  0  0
M  END
> <s_m_entry_id>
3288

> <s_m_entry_name>
dock_pv.380

> <s_m_Source_Path>
/home/csk/Desktop/cluster/DUD-E-result/adrb1

> <s_m_Source_File>
dock_pv.maegz

> <i_m_Source_File_Index>
380

> <chembl_id>
CHEMBL3601200

> <chembl_pref_name>
None

> <i_lp_mmshare_version>
53161

> <i_f3d_flags>
0

> <r_lp_tautomer_probability>
0.0196078431372549

> <s_lp_Force_Field>
OPLS_2005

> <r_lp_Energy>
34.860744

> <b_lp_Chiralities_Consistent>
1

> <s_lp_Variant>
CHEMBL213_lig1173-2

> <s_i_glide_gridfile>
glide-grid_2vt4

> <i_i_glide_lignum>
1370

> <i_i_glide_rotatable_bonds>
10

> <r_i_docking_score>
-7.02443310173879

> <r_i_glide_ligand_efficiency>
-0.250872610776385

> <r_i_glide_ligand_efficiency_sa>
-0.761797002383073

> <r_i_glide_ligand_efficiency_ln>
-1.62144540619914

> <r_i_glide_gscore>
-7.02443310173879

> <r_i_glide_lipo>
-2.64491999667241

> <r_i_glide_hbond>
-0.83079103884275

> <r_i_glide_metal>
0

> <r_i_glide_rewards>
-1.19450713611281

> <r_i_glide_evdw>
-42.0947227478027

> <r_i_glide_ecoul>
-8.06666469573975

> <r_i_glide_erotb>
0.960520911640279

> <r_i_glide_esite>
0

> <r_i_glide_emodel>
-69.2252855593786

> <r_i_glide_energy>
-50.1613874435425

> <r_i_glide_einternal>
7.18298530578613

> <i_i_glide_confnum>
36

> <i_i_glide_posenum>
336

> <r_i_glide_eff_state_penalty>
0

> <s_user_duplicate_titles>
CHEMBL213_lig1173

> <s_m_subgroup_title>
dock_pv

> <s_m_subgroupid>
dock_pv

> <b_m_subgroup_collapsed>
1

$$$$
CHEMBL213_lig1096
                    3D
 Schrodinger Suite 2021-1.
 61 63  0  0  1  0            999 V2000
   26.8180    6.2684   -1.3144 C   0  0  0  0  0  0
   30.4497    3.1813   -5.8732 N   0  0  0  0  0  0
   31.8376    3.2998   -6.3318 C   0  0  0  0  0  0
   32.1295    2.6331   -7.6966 C   0  0  1  0  0  0
   33.5430    2.9080   -8.2433 C   0  0  0  0  0  0
   31.8078    1.2581   -7.6149 O   0  0  0  0  0  0
   34.3018    1.8840   -8.8325 C   0  0  0  0  0  0
   35.5631    2.1503   -9.3561 C   0  0  0  0  0  0
   36.0776    3.4429   -9.2973 C   0  0  0  0  0  0
   35.3366    4.4726   -8.7236 C   0  0  0  0  0  0
   34.0731    4.2064   -8.2057 C   0  0  0  0  0  0
   28.3498    5.7882    3.5074 C   0  0  0  0  0  0
   27.5837    6.2920    4.5570 C   0  0  0  0  0  0
   26.2058    6.0364    4.5976 C   0  0  0  0  0  0
   25.6239    5.2674    3.5763 C   0  0  0  0  0  0
   26.3764    4.7788    2.4988 C   0  0  0  0  0  0
   27.7506    5.0503    2.4877 C   0  0  0  0  0  0
   25.7386    3.9331    1.3663 C   0  0  2  0  0  0
   25.6316    4.6240   -0.0200 C   0  0  0  0  0  0
   26.9355    5.0682   -0.4977 N   0  0  1  0  0  0
   24.4550    3.4219    1.6871 O   0  0  0  0  0  0
   28.2077    6.6052   -1.8785 C   0  0  0  0  0  0
   28.7912    5.6517   -2.9188 C   0  0  0  0  0  0
   28.0492    4.6094   -3.4846 C   0  0  0  0  0  0
   28.6445    3.7681   -4.4151 C   0  0  0  0  0  0
   29.9552    3.9874   -4.8345 C   0  0  0  0  0  0
   30.6974    5.0266   -4.2612 C   0  0  0  0  0  0
   30.1159    5.8491   -3.3097 C   0  0  0  0  0  0
   28.2080    7.0488    5.5208 O   0  0  0  0  0  0
   25.3437    6.6056    5.7213 C   0  0  0  0  0  0
   24.1834    5.8518    5.9848 O   0  0  0  0  0  0
   26.1193    6.0871   -2.1326 H   0  0  0  0  0  0
   26.4319    7.1074   -0.7320 H   0  0  0  0  0  0
   29.9647    2.3033   -5.9882 H   0  0  0  0  0  0
   32.0581    4.3611   -6.4221 H   0  0  0  0  0  0
   32.5113    2.9314   -5.5575 H   0  0  0  0  0  0
   31.4250    3.0490   -8.4148 H   0  0  0  0  0  0
   31.1678    1.1501   -6.9065 H   0  0  0  0  0  0
   33.9146    0.8769   -8.8938 H   0  0  0  0  0  0
   36.1408    1.3558   -9.8047 H   0  0  0  0  0  0
   37.0590    3.6518   -9.7000 H   0  0  0  0  0  0
   35.7401    5.4760   -8.6762 H   0  0  0  0  0  0
   33.5170    5.0330   -7.7887 H   0  0  0  0  0  0
   29.4126    5.9796    3.4732 H   0  0  0  0  0  0
   24.5669    5.0507    3.6062 H   0  0  0  0  0  0
   28.3687    4.6797    1.6841 H   0  0  0  0  0  0
   26.3614    3.0503    1.2231 H   0  0  0  0  0  0
   25.2387    3.9205   -0.7568 H   0  0  0  0  0  0
   24.9218    5.4489   -0.0151 H   0  0  0  0  0  0
   27.3472    4.3476   -1.0772 H   0  0  0  0  0  0
   24.0252    3.1362    0.8743 H   0  0  0  0  0  0
   28.1811    7.5984   -2.3261 H   0  0  0  0  0  0
   28.9098    6.6500   -1.0458 H   0  0  0  0  0  0
   27.0097    4.4365   -3.2311 H   0  0  0  0  0  0
   28.0561    2.9742   -4.8537 H   0  0  0  0  0  0
   31.7173    5.2271   -4.5508 H   0  0  0  0  0  0
   30.7022    6.6487   -2.8861 H   0  0  0  0  0  0
   27.5959    7.5206    6.1019 H   0  0  0  0  0  0
   25.9099    6.6489    6.6536 H   0  0  0  0  0  0
   25.0552    7.6245    5.4616 H   0  0  0  0  0  0
   23.5360    6.4240    6.4087 H   0  0  0  0  0  0
  1 20  1  0  0  0
  1 22  1  0  0  0
  1 32  1  0  0  0
  1 33  1  0  0  0
  2  3  1  0  0  0
  2 26  1  0  0  0
  2 34  1  0  0  0
  3  4  1  0  0  0
  3 35  1  0  0  0
  3 36  1  0  0  0
  4  6  1  0  0  0
  4  5  1  0  0  0
  4 37  1  0  0  0
  5 11  1  0  0  0
  5  7  2  0  0  0
  6 38  1  0  0  0
  7  8  1  0  0  0
  7 39  1  0  0  0
  8  9  2  0  0  0
  8 40  1  0  0  0
  9 10  1  0  0  0
  9 41  1  0  0  0
 10 11  2  0  0  0
 10 42  1  0  0  0
 11 43  1  0  0  0
 12 17  1  0  0  0
 12 13  2  0  0  0
 12 44  1  0  0  0
 13 14  1  0  0  0
 13 29  1  0  0  0
 14 15  2  0  0  0
 14 30  1  0  0  0
 15 16  1  0  0  0
 15 45  1  0  0  0
 16 17  2  0  0  0
 16 18  1  0  0  0
 17 46  1  0  0  0
 18 19  1  0  0  0
 18 21  1  0  0  0
 18 47  1  0  0  0
 19 20  1  0  0  0
 19 48  1  0  0  0
 19 49  1  0  0  0
 20 50  1  0  0  0
 21 51  1  0  0  0
 22 23  1  0  0  0
 22 52  1  0  0  0
 22 53  1  0  0  0
 23 24  2  0  0  0
 23 28  1  0  0  0
 24 25  1  0  0  0
 24 54  1  0  0  0
 25 26  2  0  0  0
 25 55  1  0  0  0
 26 27  1  0  0  0
 27 28  2  0  0  0
 27 56  1  0  0  0
 28 57  1  0  0  0
 29 58  1  0  0  0
 30 31  1  0  0  0
 30 59  1  0  0  0
 30 60  1  0  0  0
 31 61  1  0  0  0
M  END
> <s_m_entry_id>
3289

> <s_m_entry_name>
dock_pv.381

> <s_m_Source_Path>
/home/csk/Desktop/cluster/DUD-E-result/adrb1

> <s_m_Source_File>
dock_pv.maegz

> <i_m_Source_File_Index>
381

> <chembl_id>
CHEMBL1940830

> <chembl_pref_name>
None

> <i_lp_mmshare_version>
53161

> <i_f3d_flags>
0

> <r_lp_tautomer_probability>
0.999999999997365

> <s_lp_Force_Field>
OPLS_2005

> <r_lp_Energy>
32.0555

> <b_lp_Chiralities_Consistent>
1

> <s_lp_Variant>
CHEMBL213_lig1096-1

> <s_i_glide_gridfile>
glide-grid_2vt4

> <i_i_glide_lignum>
1278

> <i_i_glide_rotatable_bonds>
15

> <r_i_docking_score>
-7.0243539595778

> <r_i_glide_ligand_efficiency>
-0.226592063212187

> <r_i_glide_ligand_efficiency_sa>
-0.711811922545428

> <r_i_glide_ligand_efficiency_ln>
-1.58420708848064

> <r_i_glide_gscore>
-7.0243539595778

> <r_i_glide_lipo>
-3.26727181298342

> <r_i_glide_hbond>
-0.32

> <r_i_glide_metal>
0

> <r_i_glide_rewards>
-1.08408090582703

> <r_i_glide_evdw>
-46.8413124084473

> <r_i_glide_ecoul>
-7.47118425369263

> <r_i_glide_erotb>
1.1097420177089

> <r_i_glide_esite>
0

> <r_i_glide_emodel>
-73.8483396307049

> <r_i_glide_energy>
-54.3124966621399

> <r_i_glide_einternal>
8.08743858337402

> <i_i_glide_confnum>
38

> <i_i_glide_posenum>
110

> <r_i_glide_eff_state_penalty>
0

> <s_user_duplicate_titles>
CHEMBL213_lig1096

> <s_m_subgroup_title>
dock_pv

> <s_m_subgroupid>
dock_pv

> <b_m_subgroup_collapsed>
1

$$$$
CHEMBL213_lig1256
                    3D
 Schrodinger Suite 2021-1.
 48 49  0  0  1  0            999 V2000
   27.2697    4.4684   -0.5539 C   0  0  0  0  0  0
   26.4629    3.4488   -0.6517 N   0  0  0  0  0  0
   27.0088    5.3988    0.8833 S   0  0  0  0  0  0
   25.6700    3.3257    0.3896 C   0  0  0  0  0  0
   28.3420    4.7678   -1.5844 C   0  0  0  0  0  0
   25.8038    4.2489    1.4245 C   0  0  0  0  0  0
   31.5345    4.2240   -4.8837 C   0  0  0  0  0  0
   27.3950    6.0618    5.4283 C   0  0  0  0  0  0
   30.6596    3.2494   -5.3820 C   0  0  0  0  0  0
   28.7275    5.3106   -4.0158 N   0  0  1  0  0  0
   28.4719    6.6518    5.3972 O   0  0  0  0  0  0
   30.0095    5.9859   -3.7952 C   0  0  0  0  0  0
   31.1689    4.9786   -3.5970 C   0  0  2  0  0  0
   30.9361    2.5840   -6.5763 C   0  0  0  0  0  0
   27.7634    5.2963   -2.9158 C   0  0  2  0  0  0
   26.4435    6.2506    6.3837 O   0  0  0  0  0  0
   29.8092    1.4409   -7.2128 Cl  0  0  0  0  0  0
   32.2495    5.6868   -3.0117 O   0  0  0  0  0  0
   25.0548    4.3071    2.7464 C   0  0  0  0  0  0
   26.9680    5.0306    4.3799 C   0  0  0  0  0  0
   25.5642    5.3266    3.7873 C   0  0  0  0  0  0
   32.7093    4.5027   -5.5985 C   0  0  0  0  0  0
   33.0039    3.8153   -6.7773 C   0  0  0  0  0  0
   32.1166    2.8589   -7.2668 C   0  0  0  0  0  0
   27.0904    6.6727   -2.8014 C   0  0  0  0  0  0
   24.9651    2.5064    0.3940 H   0  0  0  0  0  0
   29.0692    5.4742   -1.1849 H   0  0  0  0  0  0
   28.8969    3.8502   -1.7778 H   0  0  0  0  0  0
   29.7410    3.0232   -4.8566 H   0  0  0  0  0  0
   28.2705    5.7105   -4.8247 H   0  0  0  0  0  0
   30.2298    6.6239   -4.6548 H   0  0  0  0  0  0
   29.9319    6.6489   -2.9371 H   0  0  0  0  0  0
   30.8845    4.2447   -2.8409 H   0  0  0  0  0  0
   27.0092    4.5804   -3.2401 H   0  0  0  0  0  0
   26.6206    7.0809    6.8536 H   0  0  0  0  0  0
   32.9346    5.0511   -2.7847 H   0  0  0  0  0  0
   25.0373    3.3140    3.1941 H   0  0  0  0  0  0
   24.0088    4.5371    2.5351 H   0  0  0  0  0  0
   27.7265    5.0289    3.5975 H   0  0  0  0  0  0
   27.0095    4.0389    4.8276 H   0  0  0  0  0  0
   24.8276    5.3515    4.5936 H   0  0  0  0  0  0
   25.5491    6.3239    3.3442 H   0  0  0  0  0  0
   33.4039    5.2566   -5.2550 H   0  0  0  0  0  0
   33.9133    4.0362   -7.3166 H   0  0  0  0  0  0
   32.3370    2.3454   -8.1918 H   0  0  0  0  0  0
   26.2499    6.6415   -2.1069 H   0  0  0  0  0  0
   27.7875    7.4338   -2.4477 H   0  0  0  0  0  0
   26.6966    7.0094   -3.7616 H   0  0  0  0  0  0
  1  2  2  0  0  0
  1  3  1  0  0  0
  1  5  1  0  0  0
  2  4  1  0  0  0
  3  6  1  0  0  0
  4  6  2  0  0  0
  4 26  1  0  0  0
  5 15  1  0  0  0
  5 27  1  0  0  0
  5 28  1  0  0  0
  6 19  1  0  0  0
  7 13  1  0  0  0
  7  9  2  0  0  0
  7 22  1  0  0  0
  8 20  1  0  0  0
  8 11  2  0  0  0
  8 16  1  0  0  0
  9 14  1  0  0  0
  9 29  1  0  0  0
 10 15  1  0  0  0
 10 12  1  0  0  0
 10 30  1  0  0  0
 12 13  1  0  0  0
 12 31  1  0  0  0
 12 32  1  0  0  0
 13 18  1  0  0  0
 13 33  1  0  0  0
 14 17  1  0  0  0
 14 24  2  0  0  0
 15 25  1  0  0  0
 15 34  1  0  0  0
 16 35  1  0  0  0
 18 36  1  0  0  0
 19 21  1  0  0  0
 19 37  1  0  0  0
 19 38  1  0  0  0
 20 21  1  0  0  0
 20 39  1  0  0  0
 20 40  1  0  0  0
 21 41  1  0  0  0
 21 42  1  0  0  0
 22 23  2  0  0  0
 22 43  1  0  0  0
 23 24  1  0  0  0
 23 44  1  0  0  0
 24 45  1  0  0  0
 25 46  1  0  0  0
 25 47  1  0  0  0
 25 48  1  0  0  0
M  END
> <s_m_entry_id>
3290

> <s_m_entry_name>
dock_pv.382

> <s_m_Source_Path>
/home/csk/Desktop/cluster/DUD-E-result/adrb1

> <s_m_Source_File>
dock_pv.maegz

> <i_m_Source_File_Index>
382

> <chembl_id>
CHEMBL72168

> <chembl_pref_name>
None

> <i_lp_mmshare_version>
53161

> <i_f3d_flags>
0

> <r_lp_tautomer_probability>
1

> <s_lp_Force_Field>
OPLS_2005

> <r_lp_Energy>
12.060847

> <b_lp_Chiralities_Consistent>
1

> <s_lp_Variant>
CHEMBL213_lig1256-1

> <s_i_glide_gridfile>
glide-grid_2vt4

> <i_i_glide_lignum>
1503

> <i_i_glide_rotatable_bonds>
12

> <r_i_docking_score>
-7.02290281939176

> <r_i_glide_ligand_efficiency>
-0.28091611277567

> <r_i_glide_ligand_efficiency_sa>
-0.821403695824534

> <r_i_glide_ligand_efficiency_ln>
-1.66463842761031

> <r_i_glide_gscore>
-7.02290281939176

> <r_i_glide_lipo>
-2.67980890834408

> <r_i_glide_hbond>
-0.434822664891205

> <r_i_glide_metal>
0

> <r_i_glide_rewards>
-1.47976686601491

> <r_i_glide_evdw>
-43.9185829162598

> <r_i_glide_ecoul>
-9.5004358291626

> <r_i_glide_erotb>
1.19249014004581

> <r_i_glide_esite>
0

> <r_i_glide_emodel>
-69.4873980965328

> <r_i_glide_energy>
-53.4190187454224

> <r_i_glide_einternal>
12.5179567337036

> <i_i_glide_confnum>
70

> <i_i_glide_posenum>
233

> <r_i_glide_eff_state_penalty>
0

> <s_user_duplicate_titles>
CHEMBL213_lig1256

> <s_m_subgroup_title>
dock_pv

> <s_m_subgroupid>
dock_pv

> <b_m_subgroup_collapsed>
1

$$$$
CHEMBL213_lig1257
                    3D
 Schrodinger Suite 2021-1.
 49 50  0  0  1  0            999 V2000
   30.9278    4.9591   -4.8770 C   0  0  0  0  0  0
   30.6080    4.6283   -6.0149 O   0  0  0  0  0  0
   32.2671    4.5032   -2.9074 O   0  0  0  0  0  0
   27.0672    5.9578    2.9913 O   0  0  0  0  0  0
   31.2928    3.9390   -3.7913 C   0  0  0  0  0  0
   31.9620    4.8809   -1.6152 C   0  0  0  0  0  0
   28.1315    6.8377    4.9835 C   0  0  1  0  0  0
   31.6553    5.5925    1.0811 C   0  0  0  0  0  0
   27.0489    5.8964    4.4159 C   0  0  0  0  0  0
   31.0080    6.2500   -4.4469 O   0  0  0  0  0  0
   30.5889    7.3859    4.9063 N   0  0  1  0  0  0
   26.3276    5.0500    2.2628 C   0  0  0  0  0  0
   30.7205    4.7083   -0.9792 C   0  0  0  0  0  0
   33.0201    5.4500   -0.9077 C   0  0  0  0  0  0
   30.5851    5.0500    0.3672 C   0  0  0  0  0  0
   32.8733    5.8120    0.4270 C   0  0  0  0  0  0
   28.1804    6.6500    6.3850 O   0  0  0  0  0  0
   31.4329    5.8657    2.4123 O   0  0  0  0  0  0
   29.5110    6.5597    4.3553 C   0  0  0  0  0  0
   31.9110    6.8246    4.6180 C   0  0  0  0  0  0
   32.2881    6.7655    3.1206 C   0  0  0  0  0  0
   25.3096    4.2500    2.8044 C   0  0  0  0  0  0
   26.6080    4.9748    0.8972 C   0  0  0  0  0  0
   24.5936    3.3803    1.9850 C   0  0  0  0  0  0
   25.8950    4.1039    0.0776 C   0  0  0  0  0  0
   24.8918    3.3102    0.6272 C   0  0  0  0  0  0
   30.3918    3.5463   -3.3265 H   0  0  0  0  0  0
   31.7683    3.0858   -4.2756 H   0  0  0  0  0  0
   27.8538    7.8717    4.7826 H   0  0  0  0  0  0
   27.2528    4.8715    4.7361 H   0  0  0  0  0  0
   26.0657    6.1769    4.7984 H   0  0  0  0  0  0
   30.8861    6.8696   -5.1772 H   0  0  0  0  0  0
   30.5557    8.3134    4.5039 H   0  0  0  0  0  0
   29.8636    4.2876   -1.4796 H   0  0  0  0  0  0
   33.9733    5.5930   -1.3954 H   0  0  0  0  0  0
   29.6436    4.8877    0.8697 H   0  0  0  0  0  0
   33.7203    6.2411    0.9377 H   0  0  0  0  0  0
   27.5507    7.2677    6.7850 H   0  0  0  0  0  0
   29.4363    6.7705    3.2883 H   0  0  0  0  0  0
   29.7405    5.4971    4.4361 H   0  0  0  0  0  0
   32.0189    5.8500    5.0865 H   0  0  0  0  0  0
   32.6440    7.4500    5.1255 H   0  0  0  0  0  0
   33.3273    6.4435    3.0538 H   0  0  0  0  0  0
   32.2186    7.7660    2.6951 H   0  0  0  0  0  0
   25.0561    4.2983    3.8517 H   0  0  0  0  0  0
   27.3750    5.6034    0.4699 H   0  0  0  0  0  0
   23.8045    2.7673    2.3951 H   0  0  0  0  0  0
   26.1055    4.0533   -0.9819 H   0  0  0  0  0  0
   24.3256    2.6500   -0.0150 H   0  0  0  0  0  0
  1  2  2  0  0  0
  1  5  1  0  0  0
  1 10  1  0  0  0
  3  5  1  0  0  0
  3  6  1  0  0  0
  4  9  1  0  0  0
  4 12  1  0  0  0
  5 27  1  0  0  0
  5 28  1  0  0  0
  6 13  1  0  0  0
  6 14  2  0  0  0
  7 19  1  0  0  0
  7  9  1  0  0  0
  7 17  1  0  0  0
  7 29  1  0  0  0
  8 16  2  0  0  0
  8 18  1  0  0  0
  8 15  1  0  0  0
  9 30  1  0  0  0
  9 31  1  0  0  0
 10 32  1  0  0  0
 11 20  1  0  0  0
 11 19  1  0  0  0
 11 33  1  0  0  0
 12 22  1  0  0  0
 12 23  2  0  0  0
 13 15  2  0  0  0
 13 34  1  0  0  0
 14 16  1  0  0  0
 14 35  1  0  0  0
 15 36  1  0  0  0
 16 37  1  0  0  0
 17 38  1  0  0  0
 18 21  1  0  0  0
 19 39  1  0  0  0
 19 40  1  0  0  0
 20 21  1  0  0  0
 20 41  1  0  0  0
 20 42  1  0  0  0
 21 43  1  0  0  0
 21 44  1  0  0  0
 22 24  2  0  0  0
 22 45  1  0  0  0
 23 25  1  0  0  0
 23 46  1  0  0  0
 24 26  1  0  0  0
 24 47  1  0  0  0
 25 26  2  0  0  0
 25 48  1  0  0  0
 26 49  1  0  0  0
M  END
> <s_m_entry_id>
3291

> <s_m_entry_name>
dock_pv.383

> <s_m_Source_Path>
/home/csk/Desktop/cluster/DUD-E-result/adrb1

> <s_m_Source_File>
dock_pv.maegz

> <i_m_Source_File_Index>
383

> <chembl_id>
CHEMBL308150

> <chembl_pref_name>
None

> <i_lp_mmshare_version>
53161

> <i_f3d_flags>
0

> <r_lp_tautomer_probability>
1

> <s_lp_Force_Field>
OPLS_2005

> <r_lp_Energy>
29.684826

> <b_lp_Chiralities_Consistent>
1

> <s_lp_Variant>
CHEMBL213_lig1257-1

> <s_i_glide_gridfile>
glide-grid_2vt4

> <i_i_glide_lignum>
1505

> <i_i_glide_rotatable_bonds>
14

> <r_i_docking_score>
-7.01449696072914

> <r_i_glide_ligand_efficiency>
-0.269788344643428

> <r_i_glide_ligand_efficiency_sa>
-0.799246909440282

> <r_i_glide_ligand_efficiency_ln>
-1.64733159478541

> <r_i_glide_gscore>
-7.01449696072914

> <r_i_glide_lipo>
-2.65987743511229

> <r_i_glide_hbond>
-0.405347377204979

> <r_i_glide_metal>
0

> <r_i_glide_rewards>
-1.60535179300388

> <r_i_glide_evdw>
-35.8644561767578

> <r_i_glide_ecoul>
-14.4465160369873

> <r_i_glide_erotb>
1.616279858978

> <r_i_glide_esite>
0

> <r_i_glide_emodel>
-64.7579504226126

> <r_i_glide_energy>
-50.3109722137451

> <r_i_glide_einternal>
13.5586547851562

> <i_i_glide_confnum>
99

> <i_i_glide_posenum>
269

> <r_i_glide_eff_state_penalty>
0

> <s_user_duplicate_titles>
CHEMBL213_lig1257,115776

> <s_m_subgroup_title>
dock_pv

> <s_m_subgroupid>
dock_pv

> <b_m_subgroup_collapsed>
1

$$$$
CHEMBL213_lig311
                    3D
 Schrodinger Suite 2021-1.
 51 53  0  0  1  0            999 V2000
   33.2834    4.6128   -4.1613 S   0  0  0  0  0  0
   27.7025    5.8142    3.3689 N   0  0  0  0  0  0
   33.2435    6.1720    2.5500 C   0  0  0  0  0  0
   34.3843    5.3638   -2.9940 N   0  0  0  0  0  0
   32.0054    6.6485    2.7853 N   0  0  0  0  0  0
   32.0781    5.4472   -4.2010 O   0  0  0  0  0  0
   33.1968    3.1926   -3.8074 O   0  0  0  0  0  0
   29.1780    5.7446    3.3915 C   0  0  0  0  0  0
   29.3921    7.0500    5.4925 N   0  0  2  0  0  0
   33.5522    5.8499    1.1033 C   0  0  0  0  0  0
   29.8727    6.9414    4.1205 C   0  0  1  0  0  0
   26.9418    5.1353    2.4078 C   0  0  0  0  0  0
   34.0864    6.0038    3.4333 O   0  0  0  0  0  0
   32.5361    5.4504    0.2224 C   0  0  0  0  0  0
   34.8566    5.9905    0.6113 C   0  0  0  0  0  0
   34.0915    5.4729   -1.6269 C   0  0  0  0  0  0
   31.4232    6.8970    4.1024 C   0  0  0  0  0  0
   34.2079    4.7971   -5.7816 C   0  0  0  0  0  0
   27.2202    6.0117    4.7469 C   0  0  0  0  0  0
   27.9406    7.1249    5.5314 C   0  0  0  0  0  0
   32.8007    5.2774   -1.1311 C   0  0  0  0  0  0
   35.1205    5.8120   -0.7469 C   0  0  0  0  0  0
   27.3582    5.0859    1.0670 C   0  0  0  0  0  0
   25.7237    4.5149    2.7401 C   0  0  0  0  0  0
   24.9667    3.8500    1.7765 C   0  0  0  0  0  0
   26.5999    4.4317    0.0984 C   0  0  0  0  0  0
   25.4078    3.8135    0.4581 C   0  0  0  0  0  0
   35.3494    5.4524   -3.2758 H   0  0  0  0  0  0
   31.4893    6.9874    1.9878 H   0  0  0  0  0  0
   29.5779    5.6491    2.3854 H   0  0  0  0  0  0
   29.4081    4.8163    3.9114 H   0  0  0  0  0  0
   29.7714    7.8814    5.9231 H   0  0  0  0  0  0
   29.5995    7.8504    3.5835 H   0  0  0  0  0  0
   31.5229    5.3051    0.5691 H   0  0  0  0  0  0
   35.6630    6.2840    1.2681 H   0  0  0  0  0  0
   31.7810    6.1412    4.8026 H   0  0  0  0  0  0
   31.8078    7.8490    4.4672 H   0  0  0  0  0  0
   33.6910    4.2155   -6.5430 H   0  0  0  0  0  0
   35.2281    4.4377   -5.6556 H   0  0  0  0  0  0
   34.2084    5.8497   -6.0594 H   0  0  0  0  0  0
   26.1588    6.2598    4.7383 H   0  0  0  0  0  0
   27.3428    5.0771    5.2972 H   0  0  0  0  0  0
   27.6097    8.1061    5.1863 H   0  0  0  0  0  0
   27.6587    7.0405    6.5781 H   0  0  0  0  0  0
   31.9826    4.9968   -1.7758 H   0  0  0  0  0  0
   36.1265    5.9578   -1.1144 H   0  0  0  0  0  0
   28.2664    5.5681    0.7468 H   0  0  0  0  0  0
   25.3504    4.5180    3.7522 H   0  0  0  0  0  0
   24.0368    3.3720    2.0483 H   0  0  0  0  0  0
   26.9283    4.4069   -0.9313 H   0  0  0  0  0  0
   24.8168    3.3134   -0.2970 H   0  0  0  0  0  0
  1  4  1  0  0  0
  1  6  2  0  0  0
  1  7  2  0  0  0
  1 18  1  0  0  0
  2  8  1  0  0  0
  2 12  1  0  0  0
  2 19  1  0  0  0
  3 10  1  0  0  0
  3  5  1  0  0  0
  3 13  2  0  0  0
  4 16  1  0  0  0
  4 28  1  0  0  0
  5 17  1  0  0  0
  5 29  1  0  0  0
  8 11  1  0  0  0
  8 30  1  0  0  0
  8 31  1  0  0  0
  9 11  1  0  0  0
  9 20  1  0  0  0
  9 32  1  0  0  0
 10 15  1  0  0  0
 10 14  2  0  0  0
 11 17  1  0  0  0
 11 33  1  0  0  0
 12 23  1  0  0  0
 12 24  2  0  0  0
 14 21  1  0  0  0
 14 34  1  0  0  0
 15 22  2  0  0  0
 15 35  1  0  0  0
 16 21  2  0  0  0
 16 22  1  0  0  0
 17 36  1  0  0  0
 17 37  1  0  0  0
 18 38  1  0  0  0
 18 39  1  0  0  0
 18 40  1  0  0  0
 19 20  1  0  0  0
 19 41  1  0  0  0
 19 42  1  0  0  0
 20 43  1  0  0  0
 20 44  1  0  0  0
 21 45  1  0  0  0
 22 46  1  0  0  0
 23 26  2  0  0  0
 23 47  1  0  0  0
 24 25  1  0  0  0
 24 48  1  0  0  0
 25 27  2  0  0  0
 25 49  1  0  0  0
 26 27  1  0  0  0
 26 50  1  0  0  0
 27 51  1  0  0  0
M  END
> <s_m_entry_id>
3292

> <s_m_entry_name>
dock_pv.384

> <s_m_Source_Path>
/home/csk/Desktop/cluster/DUD-E-result/adrb1

> <s_m_Source_File>
dock_pv.maegz

> <i_m_Source_File_Index>
384

> <chembl_id>
CHEMBL162513

> <chembl_pref_name>
None

> <i_lp_mmshare_version>
53161

> <i_f3d_flags>
0

> <r_lp_tautomer_probability>
1

> <s_lp_Force_Field>
OPLS_2005

> <r_lp_Energy>
32.93733

> <b_lp_Chiralities_Consistent>
1

> <s_lp_Variant>
CHEMBL213_lig311-2

> <s_i_glide_gridfile>
glide-grid_2vt4

> <i_i_glide_lignum>
368

> <i_i_glide_rotatable_bonds>
7

> <r_i_docking_score>
-7.01408113266946

> <r_i_glide_ligand_efficiency>
-0.259780782691462

> <r_i_glide_ligand_efficiency_sa>
-0.77934234721819

> <r_i_glide_ligand_efficiency_ln>
-1.63276245152052

> <r_i_glide_gscore>
-7.01408113266946

> <r_i_glide_lipo>
-2.46726067579165

> <r_i_glide_hbond>
-0.32

> <r_i_glide_metal>
0

> <r_i_glide_rewards>
-2.00240684050379

> <r_i_glide_evdw>
-40.3126792907715

> <r_i_glide_ecoul>
-6.55603837966919

> <r_i_glide_erotb>
0.774626105114922

> <r_i_glide_esite>
0

> <r_i_glide_emodel>
-58.7027247505106

> <r_i_glide_energy>
-46.8687176704407

> <r_i_glide_einternal>
13.6043262481689

> <i_i_glide_confnum>
84

> <i_i_glide_posenum>
241

> <r_i_glide_eff_state_penalty>
0

> <s_user_duplicate_titles>
CHEMBL213_lig311,273519

> <s_m_subgroup_title>
dock_pv

> <s_m_subgroupid>
dock_pv

> <b_m_subgroup_collapsed>
1

$$$$
CHEMBL213_lig1042
                    3D
 Schrodinger Suite 2021-1.
 50 52  0  0  1  0            999 V2000
   31.2051    4.4627   -1.6051 C   0  0  0  0  0  0
   30.5649    4.4433   -3.0103 C   0  0  0  0  0  0
   31.3219    5.4292   -3.9264 C   0  0  0  0  0  0
   25.0296    3.9798    2.1665 C   0  0  0  0  0  0
   24.9094    3.6832    0.8134 C   0  0  0  0  0  0
   25.8812    4.0911   -0.0989 C   0  0  0  0  0  0
   27.0027    4.8228    0.3156 C   0  0  0  0  0  0
   26.1399    4.6925    2.6040 C   0  0  0  0  0  0
   27.1320    5.0801    1.6948 C   0  0  0  0  0  0
   28.2080    5.7910    2.1871 O   0  0  0  0  0  0
   28.6124    5.4534    3.5357 C   0  0  0  0  0  0
   27.4230    5.4413    4.5370 C   0  0  0  0  0  0
   26.2823    5.0496    3.9423 N   0  0  0  0  0  0
   27.4955    5.7507    5.7239 O   0  0  0  0  0  0
   23.8080    3.0113    0.3850 O   0  0  0  0  0  0
   28.0229    5.3380   -0.7195 C   0  0  1  0  0  0
   28.2575    4.4131   -1.9526 C   0  0  0  0  0  0
   27.6377    6.6047   -1.2150 O   0  0  0  0  0  0
   29.1900    4.9642   -2.9530 N   0  0  2  0  0  0
   30.6587    2.9925   -3.5828 C   0  0  0  0  0  0
   30.1162    2.7282   -4.9930 C   0  0  0  0  0  0
   31.0080    2.5824   -6.0613 C   0  0  0  0  0  0
   30.5383    2.2500   -7.3302 C   0  0  0  0  0  0
   29.1706    2.0899   -7.5395 C   0  0  0  0  0  0
   28.2734    2.2481   -6.4868 C   0  0  0  0  0  0
   28.7458    2.5590   -5.2141 C   0  0  0  0  0  0
   32.2404    4.1199   -1.6222 H   0  0  0  0  0  0
   31.2013    5.4532   -1.1649 H   0  0  0  0  0  0
   30.6589    3.8246   -0.9108 H   0  0  0  0  0  0
   32.3718    5.1541   -4.0342 H   0  0  0  0  0  0
   30.8904    5.4691   -4.9280 H   0  0  0  0  0  0
   31.2848    6.4475   -3.5383 H   0  0  0  0  0  0
   24.2575    3.6720    2.8564 H   0  0  0  0  0  0
   25.7293    3.8650   -1.1430 H   0  0  0  0  0  0
   29.0078    4.4360    3.5371 H   0  0  0  0  0  0
   29.3898    6.1273    3.8953 H   0  0  0  0  0  0
   25.4917    4.9709    4.5623 H   0  0  0  0  0  0
   23.5777    3.1433   -0.5557 H   0  0  0  0  0  0
   28.9710    5.4845   -0.2029 H   0  0  0  0  0  0
   27.3161    4.2332   -2.4712 H   0  0  0  0  0  0
   28.6011    3.4500   -1.5927 H   0  0  0  0  0  0
   28.0848    6.7023   -2.0627 H   0  0  0  0  0  0
   28.7839    4.8488   -3.8729 H   0  0  0  0  0  0
   30.2080    2.2807   -2.8964 H   0  0  0  0  0  0
   31.7078    2.6912   -3.5759 H   0  0  0  0  0  0
   32.0702    2.7058   -5.9069 H   0  0  0  0  0  0
   31.2305    2.1315   -8.1512 H   0  0  0  0  0  0
   28.8027    1.8499   -8.5268 H   0  0  0  0  0  0
   27.2131    2.1287   -6.6525 H   0  0  0  0  0  0
   28.0414    2.6502   -4.4002 H   0  0  0  0  0  0
  1  2  1  0  0  0
  1 27  1  0  0  0
  1 28  1  0  0  0
  1 29  1  0  0  0
  2 19  1  0  0  0
  2  3  1  0  0  0
  2 20  1  0  0  0
  3 30  1  0  0  0
  3 31  1  0  0  0
  3 32  1  0  0  0
  4  8  2  0  0  0
  4  5  1  0  0  0
  4 33  1  0  0  0
  5 15  1  0  0  0
  5  6  2  0  0  0
  6  7  1  0  0  0
  6 34  1  0  0  0
  7  9  2  0  0  0
  7 16  1  0  0  0
  8  9  1  0  0  0
  8 13  1  0  0  0
  9 10  1  0  0  0
 10 11  1  0  0  0
 11 12  1  0  0  0
 11 35  1  0  0  0
 11 36  1  0  0  0
 12 13  1  0  0  0
 12 14  2  0  0  0
 13 37  1  0  0  0
 15 38  1  0  0  0
 16 17  1  0  0  0
 16 18  1  0  0  0
 16 39  1  0  0  0
 17 19  1  0  0  0
 17 40  1  0  0  0
 17 41  1  0  0  0
 18 42  1  0  0  0
 19 43  1  0  0  0
 20 21  1  0  0  0
 20 44  1  0  0  0
 20 45  1  0  0  0
 21 22  2  0  0  0
 21 26  1  0  0  0
 22 23  1  0  0  0
 22 46  1  0  0  0
 23 24  2  0  0  0
 23 47  1  0  0  0
 24 25  1  0  0  0
 24 48  1  0  0  0
 25 26  2  0  0  0
 25 49  1  0  0  0
 26 50  1  0  0  0
M  END
> <s_m_entry_id>
3293

> <s_m_entry_name>
dock_pv.385

> <s_m_Source_Path>
/home/csk/Desktop/cluster/DUD-E-result/adrb1

> <s_m_Source_File>
dock_pv.maegz

> <i_m_Source_File_Index>
385

> <chembl_id>
CHEMBL592879

> <chembl_pref_name>
None

> <i_lp_mmshare_version>
53161

> <i_f3d_flags>
0

> <r_lp_tautomer_probability>
0.999999999999998

> <s_lp_Force_Field>
OPLS_2005

> <r_lp_Energy>
33.992953

> <b_lp_Chiralities_Consistent>
1

> <s_lp_Variant>
CHEMBL213_lig1042-2

> <s_i_glide_gridfile>
glide-grid_2vt4

> <i_i_glide_lignum>
1207

> <i_i_glide_rotatable_bonds>
8

> <r_i_docking_score>
-7.01306267649889

> <r_i_glide_ligand_efficiency>
-0.269733179865342

> <r_i_glide_ligand_efficiency_sa>
-0.799083484002264

> <r_i_glide_ligand_efficiency_ln>
-1.6469947578402

> <r_i_glide_gscore>
-7.01306267649889

> <r_i_glide_lipo>
-2.2704049878949

> <r_i_glide_hbond>
-0.16

> <r_i_glide_metal>
0

> <r_i_glide_rewards>
-2.17997012947919

> <r_i_glide_evdw>
-37.9708442687988

> <r_i_glide_ecoul>
-8.38124656677246

> <r_i_glide_erotb>
0.753041639331003

> <r_i_glide_esite>
0

> <r_i_glide_emodel>
-64.8508304966628

> <r_i_glide_energy>
-46.3520908355713

> <r_i_glide_einternal>
5.90100002288818

> <i_i_glide_confnum>
234

> <i_i_glide_posenum>
247

> <r_i_glide_eff_state_penalty>
0

> <s_user_duplicate_titles>
CHEMBL213_lig1042,602838

> <s_m_subgroup_title>
dock_pv

> <s_m_subgroupid>
dock_pv

> <b_m_subgroup_collapsed>
1

$$$$
CHEMBL213_lig1423
                    3D
 Schrodinger Suite 2021-1.
 69 70  0  0  1  0            999 V2000
   28.1677    5.7926    4.0129 C   0  0  0  0  0  0
   27.9309    6.6314    5.1116 C   0  0  0  0  0  0
   28.9306    7.4964    5.5481 C   0  0  0  0  0  0
   30.1618    7.5399    4.9017 C   0  0  0  0  0  0
   30.4135    6.7173    3.8031 C   0  0  0  0  0  0
   29.4061    5.8496    3.3595 C   0  0  0  0  0  0
   27.1102    4.8020    3.5384 C   0  0  0  0  0  0
   25.8822    5.4099    3.1860 O   0  0  0  0  0  0
   26.7346    6.6213    5.7841 O   0  0  0  0  0  0
   31.7843    6.7948    3.1324 C   0  0  1  0  0  0
   32.9044    6.1641    4.0107 C   0  0  0  0  0  0
   31.8103    6.2501    1.8215 O   0  0  0  0  0  0
   34.1096    6.9856    4.1655 N   0  0  1  0  0  0
   34.8014    7.3482    2.9313 C   0  0  0  0  0  0
   35.1689    6.1491    2.0330 C   0  0  0  0  0  0
   36.0334    6.5577    0.8294 C   0  0  0  0  0  0
   36.1310    5.4639   -0.2469 C   0  0  0  0  0  0
   37.1559    5.7991   -1.3469 C   0  0  0  0  0  0
   37.1915    4.7985   -2.5165 C   0  0  0  0  0  0
   35.9618    4.8503   -3.4476 C   0  0  0  0  0  0
   34.8815    3.7798   -3.1676 C   0  0  0  0  0  0
   33.5521    4.0379   -3.9128 C   0  0  0  0  0  0
   33.6817    4.0824   -5.4502 C   0  0  0  0  0  0
   32.3870    4.4760   -6.1880 C   0  0  0  0  0  0
   31.2723    3.4396   -6.1103 C   0  0  0  0  0  0
   30.2374    3.5893   -5.1829 C   0  0  0  0  0  0
   29.2044    2.6568   -5.1362 C   0  0  0  0  0  0
   29.2071    1.5774   -6.0131 C   0  0  0  0  0  0
   30.2332    1.4239   -6.9395 C   0  0  0  0  0  0
   31.2690    2.3530   -6.9891 C   0  0  0  0  0  0
   28.7519    8.1488    6.3838 H   0  0  0  0  0  0
   30.9242    8.2214    5.2527 H   0  0  0  0  0  0
   29.5963    5.1943    2.5197 H   0  0  0  0  0  0
   27.4761    4.2502    2.6725 H   0  0  0  0  0  0
   26.9299    4.0877    4.3405 H   0  0  0  0  0  0
   25.3075    4.7427    2.7958 H   0  0  0  0  0  0
   26.6502    7.3590    6.4031 H   0  0  0  0  0  0
   31.9755    7.8611    3.0120 H   0  0  0  0  0  0
   33.1572    5.1593    3.6720 H   0  0  0  0  0  0
   32.5240    6.0141    5.0232 H   0  0  0  0  0  0
   32.3556    6.8329    1.2790 H   0  0  0  0  0  0
   33.8517    7.8339    4.6556 H   0  0  0  0  0  0
   35.7084    7.8796    3.2145 H   0  0  0  0  0  0
   34.2086    8.0801    2.3859 H   0  0  0  0  0  0
   34.2633    5.6678    1.6702 H   0  0  0  0  0  0
   35.6943    5.3930    2.6169 H   0  0  0  0  0  0
   37.0291    6.8322    1.1761 H   0  0  0  0  0  0
   35.6171    7.4535    0.3672 H   0  0  0  0  0  0
   35.1426    5.3331   -0.6881 H   0  0  0  0  0  0
   36.3899    4.5018    0.2073 H   0  0  0  0  0  0
   38.1463    5.8384   -0.8947 H   0  0  0  0  0  0
   36.9724    6.8018   -1.7381 H   0  0  0  0  0  0
   37.3562    3.7874   -2.1467 H   0  0  0  0  0  0
   38.0724    5.0292   -3.1146 H   0  0  0  0  0  0
   36.3087    4.7156   -4.4726 H   0  0  0  0  0  0
   35.5196    5.8495   -3.4220 H   0  0  0  0  0  0
   34.6730    3.7290   -2.0997 H   0  0  0  0  0  0
   35.2659    2.7915   -3.4331 H   0  0  0  0  0  0
   33.1270    4.9768   -3.5562 H   0  0  0  0  0  0
   32.8338    3.2618   -3.6344 H   0  0  0  0  0  0
   34.0447    3.1208   -5.8224 H   0  0  0  0  0  0
   34.4444    4.8129   -5.7243 H   0  0  0  0  0  0
   32.6153    4.6499   -7.2399 H   0  0  0  0  0  0
   32.0248    5.4416   -5.8241 H   0  0  0  0  0  0
   30.2312    4.4286   -4.5045 H   0  0  0  0  0  0
   28.4013    2.7697   -4.4207 H   0  0  0  0  0  0
   28.4004    0.8571   -5.9729 H   0  0  0  0  0  0
   30.2298    0.5829   -7.6143 H   0  0  0  0  0  0
   32.0668    2.2296   -7.7095 H   0  0  0  0  0  0
  1  6  1  0  0  0
  1  2  2  0  0  0
  1  7  1  0  0  0
  2  9  1  0  0  0
  2  3  1  0  0  0
  3  4  2  0  0  0
  3 31  1  0  0  0
  4  5  1  0  0  0
  4 32  1  0  0  0
  5 10  1  0  0  0
  5  6  2  0  0  0
  6 33  1  0  0  0
  7  8  1  0  0  0
  7 34  1  0  0  0
  7 35  1  0  0  0
  8 36  1  0  0  0
  9 37  1  0  0  0
 10 11  1  0  0  0
 10 12  1  0  0  0
 10 38  1  0  0  0
 11 13  1  0  0  0
 11 39  1  0  0  0
 11 40  1  0  0  0
 12 41  1  0  0  0
 13 14  1  0  0  0
 13 42  1  0  0  0
 14 15  1  0  0  0
 14 43  1  0  0  0
 14 44  1  0  0  0
 15 16  1  0  0  0
 15 45  1  0  0  0
 15 46  1  0  0  0
 16 17  1  0  0  0
 16 47  1  0  0  0
 16 48  1  0  0  0
 17 18  1  0  0  0
 17 49  1  0  0  0
 17 50  1  0  0  0
 18 19  1  0  0  0
 18 51  1  0  0  0
 18 52  1  0  0  0
 19 20  1  0  0  0
 19 53  1  0  0  0
 19 54  1  0  0  0
 20 21  1  0  0  0
 20 55  1  0  0  0
 20 56  1  0  0  0
 21 22  1  0  0  0
 21 57  1  0  0  0
 21 58  1  0  0  0
 22 23  1  0  0  0
 22 59  1  0  0  0
 22 60  1  0  0  0
 23 24  1  0  0  0
 23 61  1  0  0  0
 23 62  1  0  0  0
 24 25  1  0  0  0
 24 63  1  0  0  0
 24 64  1  0  0  0
 25 26  2  0  0  0
 25 30  1  0  0  0
 26 27  1  0  0  0
 26 65  1  0  0  0
 27 28  2  0  0  0
 27 66  1  0  0  0
 28 29  1  0  0  0
 28 67  1  0  0  0
 29 30  2  0  0  0
 29 68  1  0  0  0
 30 69  1  0  0  0
M  END
> <s_m_entry_id>
3294

> <s_m_entry_name>
dock_pv.386

> <s_m_Source_Path>
/home/csk/Desktop/cluster/DUD-E-result/adrb1

> <s_m_Source_File>
dock_pv.maegz

> <i_m_Source_File_Index>
386

> <chembl_id>
CHEMBL1800935

> <chembl_pref_name>
None

> <i_lp_mmshare_version>
53161

> <i_f3d_flags>
0

> <r_lp_tautomer_probability>
0.999999999997365

> <s_lp_Force_Field>
OPLS_2005

> <r_lp_Energy>
18.883873

> <b_lp_Chiralities_Consistent>
1

> <s_lp_Variant>
CHEMBL213_lig1423-2

> <s_i_glide_gridfile>
glide-grid_2vt4

> <i_i_glide_lignum>
1747

> <i_i_glide_rotatable_bonds>
19

> <r_i_docking_score>
-7.00546169872686

> <r_i_glide_ligand_efficiency>
-0.233515389957562

> <r_i_glide_ligand_efficiency_sa>
-0.725586609494007

> <r_i_glide_ligand_efficiency_ln>
-1.59171722856955

> <r_i_glide_gscore>
-7.00546169872686

> <r_i_glide_lipo>
-3.33028748794784

> <r_i_glide_hbond>
-0.454627247407614

> <r_i_glide_metal>
0

> <r_i_glide_rewards>
-1.01057357741554

> <r_i_glide_evdw>
-44.5528793334961

> <r_i_glide_ecoul>
-11.4160451889038

> <r_i_glide_erotb>
1.7300773590545

> <r_i_glide_esite>
0

> <r_i_glide_emodel>
-73.0877710736391

> <r_i_glide_energy>
-55.9689245223999

> <r_i_glide_einternal>
12.42893409729

> <i_i_glide_confnum>
102

> <i_i_glide_posenum>
344

> <r_i_glide_eff_state_penalty>
0

> <s_user_duplicate_titles>
CHEMBL213_lig1423

> <s_m_subgroup_title>
dock_pv

> <s_m_subgroupid>
dock_pv

> <b_m_subgroup_collapsed>
1

$$$$
CHEMBL213_lig902
                    3D
 Schrodinger Suite 2021-1.
 58 61  0  0  1  0            999 V2000
   33.9307    2.1837   -8.5038 C   0  0  0  0  0  0
   34.5979    3.3517   -8.1454 C   0  0  0  0  0  0
   33.9901    4.2834   -7.3076 C   0  0  0  0  0  0
   32.6988    4.0513   -6.8397 C   0  0  0  0  0  0
   32.0041    2.8934   -7.2131 C   0  0  0  0  0  0
   32.6411    1.9538   -8.0337 C   0  0  0  0  0  0
   30.5562    2.6775   -6.7455 C   0  0  2  0  0  0
   30.4463    2.1490   -5.2869 C   0  0  0  0  0  0
   29.8091    3.0771   -4.3501 N   0  0  2  0  0  0
   29.8097    1.8243   -7.6062 O   0  0  0  0  0  0
   30.6017    4.2407   -3.9479 C   0  0  1  0  0  0
   30.1283    5.5776   -4.5617 C   0  0  0  0  0  0
   28.6704    5.8869   -4.1717 C   0  0  0  0  0  0
   30.6302    4.4355   -2.4178 C   0  0  0  0  0  0
   29.2947    4.9501   -1.8705 C   0  0  0  0  0  0
   28.3919    5.6608   -2.6913 C   0  0  0  0  0  0
   27.1937    6.1229   -2.1447 C   0  0  0  0  0  0
   26.8767    5.8921   -0.8133 C   0  0  0  0  0  0
   27.7679    5.2148    0.0206 C   0  0  0  0  0  0
   28.9682    4.7541   -0.5273 C   0  0  0  0  0  0
   27.4856    5.1169    1.4755 C   0  0  0  0  0  0
   26.2081    4.8374    1.9527 C   0  0  0  0  0  0
   25.8944    5.0401    3.2924 C   0  0  0  0  0  0
   26.8538    5.5342    4.1881 C   0  0  0  0  0  0
   28.1796    5.7298    3.7356 C   0  0  0  0  0  0
   28.4782    5.4506    2.3959 C   0  0  0  0  0  0
   26.4121    5.8883    5.5883 C   0  0  0  0  0  0
   27.4249    6.2488    6.4112 O   0  0  0  0  0  0
   25.2373    5.8502    5.9513 O   0  0  0  0  0  0
   36.1844    3.6488   -8.7539 Cl  0  0  0  0  0  0
   29.1317    6.2513    4.6013 O   0  0  0  0  0  0
   30.3981    6.6807    4.0997 C   0  0  0  0  0  0
   34.4074    1.4625   -9.1515 H   0  0  0  0  0  0
   34.5126    5.1908   -7.0343 H   0  0  0  0  0  0
   32.2382    4.8015   -6.2189 H   0  0  0  0  0  0
   32.1338    1.0499   -8.3275 H   0  0  0  0  0  0
   30.0395    3.6337   -6.8140 H   0  0  0  0  0  0
   31.4089    1.8231   -4.8954 H   0  0  0  0  0  0
   29.8151    1.2595   -5.2768 H   0  0  0  0  0  0
   29.3961    2.6025   -3.5491 H   0  0  0  0  0  0
   29.7033    2.2661   -8.4522 H   0  0  0  0  0  0
   31.6389    4.0626   -4.2342 H   0  0  0  0  0  0
   30.2188    5.5778   -5.6464 H   0  0  0  0  0  0
   30.7655    6.3908   -4.2106 H   0  0  0  0  0  0
   27.9967    5.2425   -4.7360 H   0  0  0  0  0  0
   28.4198    6.9181   -4.4201 H   0  0  0  0  0  0
   31.4141    5.1436   -2.1451 H   0  0  0  0  0  0
   30.8542    3.4857   -1.9286 H   0  0  0  0  0  0
   26.4845    6.6470   -2.7693 H   0  0  0  0  0  0
   25.9440    6.2753   -0.4258 H   0  0  0  0  0  0
   29.6831    4.2512    0.1058 H   0  0  0  0  0  0
   25.4269    4.5390    1.2676 H   0  0  0  0  0  0
   24.8749    4.8655    3.6092 H   0  0  0  0  0  0
   29.4762    5.6126    2.0228 H   0  0  0  0  0  0
   28.2092    6.3262    5.8528 H   0  0  0  0  0  0
   30.9957    7.0795    4.9192 H   0  0  0  0  0  0
   30.9631    5.8632    3.6504 H   0  0  0  0  0  0
   30.2832    7.4763    3.3617 H   0  0  0  0  0  0
  1  6  1  0  0  0
  1  2  2  0  0  0
  1 33  1  0  0  0
  2  3  1  0  0  0
  2 30  1  0  0  0
  3  4  2  0  0  0
  3 34  1  0  0  0
  4  5  1  0  0  0
  4 35  1  0  0  0
  5  6  2  0  0  0
  5  7  1  0  0  0
  6 36  1  0  0  0
  7  8  1  0  0  0
  7 10  1  0  0  0
  7 37  1  0  0  0
  8  9  1  0  0  0
  8 38  1  0  0  0
  8 39  1  0  0  0
  9 11  1  0  0  0
  9 40  1  0  0  0
 10 41  1  0  0  0
 11 12  1  0  0  0
 11 14  1  0  0  0
 11 42  1  0  0  0
 12 13  1  0  0  0
 12 43  1  0  0  0
 12 44  1  0  0  0
 13 16  1  0  0  0
 13 45  1  0  0  0
 13 46  1  0  0  0
 14 15  1  0  0  0
 14 47  1  0  0  0
 14 48  1  0  0  0
 15 16  2  0  0  0
 15 20  1  0  0  0
 16 17  1  0  0  0
 17 18  2  0  0  0
 17 49  1  0  0  0
 18 19  1  0  0  0
 18 50  1  0  0  0
 19 20  2  0  0  0
 19 21  1  0  0  0
 20 51  1  0  0  0
 21 22  2  0  0  0
 21 26  1  0  0  0
 22 23  1  0  0  0
 22 52  1  0  0  0
 23 24  2  0  0  0
 23 53  1  0  0  0
 24 25  1  0  0  0
 24 27  1  0  0  0
 25 26  2  0  0  0
 25 31  1  0  0  0
 26 54  1  0  0  0
 27 28  1  0  0  0
 27 29  2  0  0  0
 28 55  1  0  0  0
 31 32  1  0  0  0
 32 56  1  0  0  0
 32 57  1  0  0  0
 32 58  1  0  0  0
M  END
> <s_m_entry_id>
3295

> <s_m_entry_name>
dock_pv.387

> <s_m_Source_Path>
/home/csk/Desktop/cluster/DUD-E-result/adrb1

> <s_m_Source_File>
dock_pv.maegz

> <i_m_Source_File_Index>
387

> <chembl_id>
CHEMBL457847

> <chembl_pref_name>
None

> <i_lp_mmshare_version>
53161

> <i_f3d_flags>
0

> <r_lp_tautomer_probability>
1

> <s_lp_Force_Field>
OPLS_2005

> <r_lp_Energy>
39.60885

> <b_lp_Chiralities_Consistent>
1

> <s_lp_Variant>
CHEMBL213_lig902-1

> <s_i_glide_gridfile>
glide-grid_2vt4

> <i_i_glide_lignum>
1010

> <i_i_glide_rotatable_bonds>
9

> <r_i_docking_score>
-7.00487030778034

> <r_i_glide_ligand_efficiency>
-0.218902197118136

> <r_i_glide_ligand_efficiency_sa>
-0.694971155164095

> <r_i_glide_ligand_efficiency_ln>
-1.56858140746495

> <r_i_glide_gscore>
-7.00487030778034

> <r_i_glide_lipo>
-3.07399064936997

> <r_i_glide_hbond>
-0.468736927416936

> <r_i_glide_metal>
0

> <r_i_glide_rewards>
-1.12057649975424

> <r_i_glide_evdw>
-48.6180572509766

> <r_i_glide_ecoul>
-2.67835187911987

> <r_i_glide_erotb>
0.491089413177621

> <r_i_glide_esite>
0

> <r_i_glide_emodel>
-70.0099925030916

> <r_i_glide_energy>
-51.2964091300964

> <r_i_glide_einternal>
9.7451868057251

> <i_i_glide_confnum>
113

> <i_i_glide_posenum>
180

> <r_i_glide_eff_state_penalty>
0

> <s_user_duplicate_titles>
CHEMBL213_lig902

> <s_m_subgroup_title>
dock_pv

> <s_m_subgroupid>
dock_pv

> <b_m_subgroup_collapsed>
1

$$$$
CHEMBL213_lig1061
                    3D
 Schrodinger Suite 2021-1.
 65 69  0  0  1  0            999 V2000
   27.4080    5.9053   -3.2010 N   0  0  1  0  0  0
   27.5394    5.5480   -1.8050 C   0  0  0  0  0  0
   26.9122    6.5669   -0.8586 C   0  0  0  0  0  0
   27.1609    6.1684    0.6026 C   0  0  0  0  0  0
   26.8609    4.7718    0.9296 N   0  0  0  0  0  0
   27.3239    3.8101   -0.0735 C   0  0  0  0  0  0
   26.9091    4.2017   -1.4717 C   0  0  0  0  0  0
   25.9962    4.4575    1.9471 C   0  0  0  0  0  0
   24.9527    3.6763    1.5627 N   0  0  0  0  0  0
   23.9039    3.6187    2.3983 C   0  0  0  0  0  0
   23.7885    4.2500    3.5857 N   0  0  0  0  0  0
   26.0836    5.0555    3.2386 C   0  0  0  0  0  0
   24.8762    4.9278    3.9851 C   0  0  0  0  0  0
   24.9057    5.8500    5.4813 S   0  0  0  0  0  0
   26.5665    6.2454    5.1802 C   0  0  0  0  0  0
   27.1175    5.7602    3.9965 C   0  0  0  0  0  0
   28.6746    6.2531   -3.8351 C   0  0  0  0  0  0
   29.7385    5.1237   -3.9436 C   0  0  2  0  0  0
   31.0073    5.6577   -4.6516 C   0  0  0  0  0  0
   29.2316    4.0114   -4.6613 O   0  0  0  0  0  0
   32.1430    4.7955   -4.5495 O   0  0  0  0  0  0
   32.9467    4.8157   -3.4210 C   0  0  0  0  0  0
   32.5955    5.4499   -2.2168 C   0  0  0  0  0  0
   33.4644    5.4488   -1.1267 C   0  0  0  0  0  0
   34.6895    4.7923   -1.2159 C   0  0  0  0  0  0
   35.0488    4.1479   -2.3981 C   0  0  0  0  0  0
   34.1920    4.1694   -3.5009 C   0  0  0  0  0  0
   28.5847    5.9730    3.6752 C   0  0  0  0  0  0
   29.2777    7.0501    4.2542 C   0  0  0  0  0  0
   30.5986    7.3224    3.9080 C   0  0  0  0  0  0
   31.2413    6.5372    2.9557 C   0  0  0  0  0  0
   30.5850    5.4499    2.3851 C   0  0  0  0  0  0
   29.2826    5.1467    2.7851 C   0  0  0  0  0  0
   34.5990    3.5518   -4.6579 O   0  0  0  0  0  0
   35.0981    4.4496   -5.6438 C   0  0  0  0  0  0
   26.8625    5.2094   -3.7001 H   0  0  0  0  0  0
   28.5973    5.4614   -1.5543 H   0  0  0  0  0  0
   27.3887    7.5293   -1.0187 H   0  0  0  0  0  0
   25.8463    6.7058   -1.0485 H   0  0  0  0  0  0
   28.2080    6.2499    0.7768 H   0  0  0  0  0  0
   26.6466    6.8587    1.2730 H   0  0  0  0  0  0
   28.4107    3.8500   -0.0263 H   0  0  0  0  0  0
   27.0080    2.7902    0.1514 H   0  0  0  0  0  0
   25.8231    4.2076   -1.5006 H   0  0  0  0  0  0
   27.2222    3.4501   -2.1904 H   0  0  0  0  0  0
   23.0489    3.0499    2.0647 H   0  0  0  0  0  0
   27.0666    6.8223    5.9456 H   0  0  0  0  0  0
   29.0859    7.1000   -3.2926 H   0  0  0  0  0  0
   28.4444    6.6426   -4.8150 H   0  0  0  0  0  0
   30.0126    4.7580   -2.9564 H   0  0  0  0  0  0
   31.2701    6.6509   -4.2843 H   0  0  0  0  0  0
   30.7971    5.8099   -5.7115 H   0  0  0  0  0  0
   28.5239    3.6138   -4.1451 H   0  0  0  0  0  0
   31.6509    5.9546   -2.1045 H   0  0  0  0  0  0
   33.1846    5.9495   -0.2105 H   0  0  0  0  0  0
   35.3613    4.7798   -0.3700 H   0  0  0  0  0  0
   36.0023    3.6439   -2.4674 H   0  0  0  0  0  0
   28.7923    7.7183    4.9483 H   0  0  0  0  0  0
   31.1088    8.1648    4.3504 H   0  0  0  0  0  0
   32.2557    6.7684    2.6648 H   0  0  0  0  0  0
   31.0937    4.8198    1.6705 H   0  0  0  0  0  0
   28.8146    4.2638    2.3883 H   0  0  0  0  0  0
   35.4414    3.8841   -6.5093 H   0  0  0  0  0  0
   34.3320    5.1462   -5.9882 H   0  0  0  0  0  0
   35.9445    5.0279   -5.2685 H   0  0  0  0  0  0
  1 17  1  0  0  0
  1  2  1  0  0  0
  1 36  1  0  0  0
  2  3  1  0  0  0
  2  7  1  0  0  0
  2 37  1  0  0  0
  3  4  1  0  0  0
  3 38  1  0  0  0
  3 39  1  0  0  0
  4  5  1  0  0  0
  4 40  1  0  0  0
  4 41  1  0  0  0
  5  6  1  0  0  0
  5  8  1  0  0  0
  6  7  1  0  0  0
  6 42  1  0  0  0
  6 43  1  0  0  0
  7 44  1  0  0  0
  7 45  1  0  0  0
  8  9  2  0  0  0
  8 12  1  0  0  0
  9 10  1  0  0  0
 10 11  2  0  0  0
 10 46  1  0  0  0
 11 13  1  0  0  0
 12 13  2  0  0  0
 12 16  1  0  0  0
 13 14  1  0  0  0
 14 15  1  0  0  0
 15 16  2  0  0  0
 15 47  1  0  0  0
 16 28  1  0  0  0
 17 18  1  0  0  0
 17 48  1  0  0  0
 17 49  1  0  0  0
 18 19  1  0  0  0
 18 20  1  0  0  0
 18 50  1  0  0  0
 19 21  1  0  0  0
 19 51  1  0  0  0
 19 52  1  0  0  0
 20 53  1  0  0  0
 21 22  1  0  0  0
 22 23  2  0  0  0
 22 27  1  0  0  0
 23 24  1  0  0  0
 23 54  1  0  0  0
 24 25  2  0  0  0
 24 55  1  0  0  0
 25 26  1  0  0  0
 25 56  1  0  0  0
 26 27  2  0  0  0
 26 57  1  0  0  0
 27 34  1  0  0  0
 28 29  2  0  0  0
 28 33  1  0  0  0
 29 30  1  0  0  0
 29 58  1  0  0  0
 30 31  2  0  0  0
 30 59  1  0  0  0
 31 32  1  0  0  0
 31 60  1  0  0  0
 32 33  2  0  0  0
 32 61  1  0  0  0
 33 62  1  0  0  0
 34 35  1  0  0  0
 35 63  1  0  0  0
 35 64  1  0  0  0
 35 65  1  0  0  0
M  END
> <s_m_entry_id>
3296

> <s_m_entry_name>
dock_pv.388

> <s_m_Source_Path>
/home/csk/Desktop/cluster/DUD-E-result/adrb1

> <s_m_Source_File>
dock_pv.maegz

> <i_m_Source_File_Index>
388

> <chembl_id>
CHEMBL1258023

> <chembl_pref_name>
None

> <i_lp_mmshare_version>
53161

> <i_f3d_flags>
0

> <r_lp_tautomer_probability>
1

> <s_lp_Force_Field>
OPLS_2005

> <r_lp_Energy>
49.492506

> <b_lp_Chiralities_Consistent>
1

> <s_lp_Variant>
CHEMBL213_lig1061-1

> <s_i_glide_gridfile>
glide-grid_2vt4

> <i_i_glide_lignum>
1232

> <i_i_glide_rotatable_bonds>
10

> <r_i_docking_score>
-7.00136879479826

> <r_i_glide_ligand_efficiency>
-0.200039108422808

> <r_i_glide_ligand_efficiency_sa>
-0.654341187506538

> <r_i_glide_ligand_efficiency_ln>
-1.53695583746659

> <r_i_glide_gscore>
-7.00136879479826

> <r_i_glide_lipo>
-3.90296965681474

> <r_i_glide_hbond>
-0.0236397421770409

> <r_i_glide_metal>
0

> <r_i_glide_rewards>
-1.17999795187801

> <r_i_glide_evdw>
-39.2741050720215

> <r_i_glide_ecoul>
-4.04973030090332

> <r_i_glide_erotb>
0.676403354808092

> <r_i_glide_esite>
0

> <r_i_glide_emodel>
-34.5372851753574

> <r_i_glide_energy>
-43.3238353729248

> <r_i_glide_einternal>
19.0649738311768

> <i_i_glide_confnum>
8

> <i_i_glide_posenum>
301

> <r_i_glide_eff_state_penalty>
0

> <s_user_duplicate_titles>
CHEMBL213_lig1061

> <s_m_subgroup_title>
dock_pv

> <s_m_subgroupid>
dock_pv

> <b_m_subgroup_collapsed>
1

$$$$
CHEMBL213_lig1193
                    3D
 Schrodinger Suite 2021-1.
 69 71  0  0  1  0            999 V2000
   33.1269    3.7981   -7.0184 C   0  0  0  0  0  0
   32.3172    2.8120   -7.5780 C   0  0  0  0  0  0
   31.5491    4.1067   -5.1817 C   0  0  0  0  0  0
   32.7323    4.4571   -5.8547 C   0  0  0  0  0  0
   30.7469    3.0904   -5.7354 C   0  0  0  0  0  0
   31.1027    2.4914   -6.9611 C   0  0  0  0  0  0
   30.1636    1.6653   -7.6147 N   0  0  0  0  0  0
   28.8854    1.4537   -7.2321 C   0  0  0  0  0  0
   28.6204    1.8494   -5.8635 C   0  0  0  0  0  0
   29.4564    2.6392   -5.1564 C   0  0  0  0  0  0
   28.0387    1.0501   -8.0150 O   0  0  0  0  0  0
   32.7199    2.1897   -8.7358 O   0  0  0  0  0  0
   31.1149    4.8062   -3.8765 C   0  0  1  0  0  0
   32.1192    5.6805   -3.2618 N   0  0  2  0  0  0
   29.8364    5.6653   -4.0628 C   0  0  0  0  0  0
   29.1938    5.8513   -2.8136 O   0  0  0  0  0  0
   33.2800    4.9825   -2.7168 C   0  0  0  0  0  0
   32.9966    4.5822   -1.2651 C   0  0  0  0  0  0
   32.9069    5.7659   -0.2920 C   0  0  0  0  0  0
   31.9306    5.5442    0.8812 C   0  0  0  0  0  0
   32.0085    6.6503    1.9232 C   0  0  0  0  0  0
   31.5358    6.3531    3.3279 C   0  0  0  0  0  0
   30.1172    6.2501    3.3297 O   0  0  0  0  0  0
   29.5353    6.4863    4.6024 C   0  0  0  0  0  0
   28.2807    5.6100    4.7431 C   0  0  0  0  0  0
   26.9774    6.3441    4.3909 C   0  0  0  0  0  0
   25.8071    5.4159    4.0287 C   0  0  0  0  0  0
   25.8113    4.7431    2.6549 C   0  0  0  0  0  0
   24.7733    3.8513    2.3589 C   0  0  0  0  0  0
   24.6779    3.2789    1.0937 C   0  0  0  0  0  0
   25.6284    3.5894    0.1251 C   0  0  0  0  0  0
   26.6729    4.4650    0.4090 C   0  0  0  0  0  0
   26.7697    5.0397    1.6743 C   0  0  0  0  0  0
   34.0573    4.0802   -7.4910 H   0  0  0  0  0  0
   33.3686    5.2438   -5.4758 H   0  0  0  0  0  0
   30.3672    1.3902   -8.5615 H   0  0  0  0  0  0
   27.6976    1.5102   -5.4166 H   0  0  0  0  0  0
   29.1886    2.8836   -4.1367 H   0  0  0  0  0  0
   33.4912    2.5996   -9.1375 H   0  0  0  0  0  0
   30.8841    4.0089   -3.1674 H   0  0  0  0  0  0
   31.6104    6.0579   -2.4718 H   0  0  0  0  0  0
   30.0577    6.6239   -4.5363 H   0  0  0  0  0  0
   29.1092    5.1846   -4.7137 H   0  0  0  0  0  0
   28.3613    6.3120   -2.9624 H   0  0  0  0  0  0
   33.5591    4.1118   -3.3131 H   0  0  0  0  0  0
   34.1328    5.6625   -2.7403 H   0  0  0  0  0  0
   32.0679    4.0158   -1.2359 H   0  0  0  0  0  0
   33.7880    3.9119   -0.9238 H   0  0  0  0  0  0
   33.9086    5.9850    0.0830 H   0  0  0  0  0  0
   32.6086    6.6504   -0.8370 H   0  0  0  0  0  0
   30.9049    5.4106    0.5322 H   0  0  0  0  0  0
   32.2051    4.6500    1.3948 H   0  0  0  0  0  0
   33.0417    6.9951    1.9893 H   0  0  0  0  0  0
   31.4080    7.4889    1.5847 H   0  0  0  0  0  0
   32.0350    5.4504    3.6682 H   0  0  0  0  0  0
   31.8635    7.1738    3.9707 H   0  0  0  0  0  0
   30.2389    6.2500    5.3989 H   0  0  0  0  0  0
   29.3079    7.5483    4.7133 H   0  0  0  0  0  0
   28.3990    4.7122    4.1333 H   0  0  0  0  0  0
   28.2058    5.2520    5.7686 H   0  0  0  0  0  0
   26.6905    6.9584    5.2463 H   0  0  0  0  0  0
   27.1271    7.0499    3.5850 H   0  0  0  0  0  0
   25.7180    4.6502    4.7840 H   0  0  0  0  0  0
   24.8985    6.0027    4.1015 H   0  0  0  0  0  0
   24.0193    3.6267    3.0987 H   0  0  0  0  0  0
   23.8592    2.6160    0.8553 H   0  0  0  0  0  0
   25.5433    3.1616   -0.8633 H   0  0  0  0  0  0
   27.4022    4.7016   -0.3525 H   0  0  0  0  0  0
   27.5837    5.7219    1.8675 H   0  0  0  0  0  0
  1  2  2  0  0  0
  1  4  1  0  0  0
  1 34  1  0  0  0
  2  6  1  0  0  0
  2 12  1  0  0  0
  3  5  1  0  0  0
  3  4  2  0  0  0
  3 13  1  0  0  0
  4 35  1  0  0  0
  5  6  2  0  0  0
  5 10  1  0  0  0
  6  7  1  0  0  0
  7  8  1  0  0  0
  7 36  1  0  0  0
  8  9  1  0  0  0
  8 11  2  0  0  0
  9 10  2  0  0  0
  9 37  1  0  0  0
 10 38  1  0  0  0
 12 39  1  0  0  0
 13 14  1  0  0  0
 13 15  1  0  0  0
 13 40  1  0  0  0
 14 17  1  0  0  0
 14 41  1  0  0  0
 15 16  1  0  0  0
 15 42  1  0  0  0
 15 43  1  0  0  0
 16 44  1  0  0  0
 17 18  1  0  0  0
 17 45  1  0  0  0
 17 46  1  0  0  0
 18 19  1  0  0  0
 18 47  1  0  0  0
 18 48  1  0  0  0
 19 20  1  0  0  0
 19 49  1  0  0  0
 19 50  1  0  0  0
 20 21  1  0  0  0
 20 51  1  0  0  0
 20 52  1  0  0  0
 21 22  1  0  0  0
 21 53  1  0  0  0
 21 54  1  0  0  0
 22 23  1  0  0  0
 22 55  1  0  0  0
 22 56  1  0  0  0
 23 24  1  0  0  0
 24 25  1  0  0  0
 24 57  1  0  0  0
 24 58  1  0  0  0
 25 26  1  0  0  0
 25 59  1  0  0  0
 25 60  1  0  0  0
 26 27  1  0  0  0
 26 61  1  0  0  0
 26 62  1  0  0  0
 27 28  1  0  0  0
 27 63  1  0  0  0
 27 64  1  0  0  0
 28 29  2  0  0  0
 28 33  1  0  0  0
 29 30  1  0  0  0
 29 65  1  0  0  0
 30 31  2  0  0  0
 30 66  1  0  0  0
 31 32  1  0  0  0
 31 67  1  0  0  0
 32 33  2  0  0  0
 32 68  1  0  0  0
 33 69  1  0  0  0
M  END
> <s_m_entry_id>
3297

> <s_m_entry_name>
dock_pv.389

> <s_m_Source_Path>
/home/csk/Desktop/cluster/DUD-E-result/adrb1

> <s_m_Source_File>
dock_pv.maegz

> <i_m_Source_File_Index>
389

> <chembl_id>
CHEMBL4288132

> <chembl_pref_name>
None

> <i_lp_mmshare_version>
53161

> <i_f3d_flags>
0

> <r_lp_tautomer_probability>
1

> <s_lp_Force_Field>
OPLS_2005

> <r_lp_Energy>
26.554381

> <b_lp_Chiralities_Consistent>
1

> <s_lp_Variant>
CHEMBL213_lig1193-2

> <s_i_glide_gridfile>
glide-grid_2vt4

> <i_i_glide_lignum>
1399

> <i_i_glide_rotatable_bonds>
17

> <r_i_docking_score>
-7.00070903998825

> <r_i_glide_ligand_efficiency>
-0.212142698181462

> <r_i_glide_ligand_efficiency_sa>
-0.680454986481911

> <r_i_glide_ligand_efficiency_ln>
-1.55692144276191

> <r_i_glide_gscore>
-7.00070903998825

> <r_i_glide_lipo>
-4.03367476826762

> <r_i_glide_hbond>
-0.380892038463192

> <r_i_glide_metal>
0

> <r_i_glide_rewards>
-1.22327904545454

> <r_i_glide_evdw>
-42.545051574707

> <r_i_glide_ecoul>
-4.04735708236694

> <r_i_glide_erotb>
1.3714929532875

> <r_i_glide_esite>
0

> <r_i_glide_emodel>
-48.0820500685809

> <r_i_glide_energy>
-46.592408657074

> <r_i_glide_einternal>
18.1013603210449

> <i_i_glide_confnum>
39

> <i_i_glide_posenum>
369

> <r_i_glide_eff_state_penalty>
0

> <s_user_duplicate_titles>
CHEMBL213_lig1193

> <s_m_subgroup_title>
dock_pv

> <s_m_subgroupid>
dock_pv

> <b_m_subgroup_collapsed>
1

$$$$
CHEMBL213_lig1449
                    3D
 Schrodinger Suite 2021-1.
 38 41  0  0  1  0            999 V2000
   27.2372    5.3699    3.1142 C   0  0  0  0  0  0
   26.1895    5.2392    4.0345 C   0  0  0  0  0  0
   24.9796    4.6500    3.6973 C   0  0  0  0  0  0
   24.7680    4.1298    2.4306 C   0  0  0  0  0  0
   27.0099    4.8969    1.7719 C   0  0  0  0  0  0
   25.7721    4.2499    1.4490 C   0  0  0  0  0  0
   25.5803    3.7632    0.1364 C   0  0  0  0  0  0
   26.5904    3.9252   -0.8032 C   0  0  0  0  0  0
   27.7688    4.5706   -0.4456 C   0  0  0  0  0  0
   27.9711    5.0500    0.8131 N   0  0  0  0  0  0
   28.8032    4.6700   -1.3679 N   0  0  0  0  0  0
   28.5438    5.3656   -2.6443 C   0  0  0  0  0  0
   29.6389    5.1507   -3.7147 C   0  0  0  0  0  0
   30.9629    5.4973   -3.2095 N   0  0  0  0  0  0
   31.2420    4.6489   -2.0568 C   0  0  0  0  0  0
   30.1963    4.8504   -0.9335 C   0  0  0  0  0  0
   28.5396    5.9849    3.5849 C   0  0  0  0  0  0
   28.5924    7.0586    4.9704 S   0  0  0  0  0  0
   30.2756    7.3847    4.7401 C   0  0  0  0  0  0
   30.7924    6.6509    3.6898 C   0  0  0  0  0  0
   29.8311    5.8467    3.0715 C   0  0  0  0  0  0
   26.3000    5.5861    5.0507 H   0  0  0  0  0  0
   24.1984    4.5772    4.4399 H   0  0  0  0  0  0
   23.8281    3.6570    2.1817 H   0  0  0  0  0  0
   24.6545    3.2733   -0.1336 H   0  0  0  0  0  0
   26.4686    3.5247   -1.7989 H   0  0  0  0  0  0
   27.5858    5.0554   -3.0646 H   0  0  0  0  0  0
   28.4838    6.4375   -2.4458 H   0  0  0  0  0  0
   29.4336    5.7590   -4.5964 H   0  0  0  0  0  0
   29.6320    4.1166   -4.0651 H   0  0  0  0  0  0
   31.6494    5.3346   -3.9337 H   0  0  0  0  0  0
   32.2432    4.8760   -1.6890 H   0  0  0  0  0  0
   31.2753    3.6014   -2.3644 H   0  0  0  0  0  0
   30.2942    5.8498   -0.5277 H   0  0  0  0  0  0
   30.4074    4.1468   -0.1297 H   0  0  0  0  0  0
   30.8025    8.0832    5.3741 H   0  0  0  0  0  0
   31.8277    6.6893    3.3838 H   0  0  0  0  0  0
   30.0793    5.2012    2.2432 H   0  0  0  0  0  0
  1  2  2  0  0  0
  1  5  1  0  0  0
  1 17  1  0  0  0
  2  3  1  0  0  0
  2 22  1  0  0  0
  3  4  2  0  0  0
  3 23  1  0  0  0
  4  6  1  0  0  0
  4 24  1  0  0  0
  5  6  1  0  0  0
  5 10  2  0  0  0
  6  7  2  0  0  0
  7  8  1  0  0  0
  7 25  1  0  0  0
  8  9  2  0  0  0
  8 26  1  0  0  0
  9 10  1  0  0  0
  9 11  1  0  0  0
 11 12  1  0  0  0
 11 16  1  0  0  0
 12 13  1  0  0  0
 12 27  1  0  0  0
 12 28  1  0  0  0
 13 14  1  0  0  0
 13 29  1  0  0  0
 13 30  1  0  0  0
 14 15  1  0  0  0
 14 31  1  0  0  0
 15 16  1  0  0  0
 15 32  1  0  0  0
 15 33  1  0  0  0
 16 34  1  0  0  0
 16 35  1  0  0  0
 17 18  1  0  0  0
 17 21  2  0  0  0
 18 19  1  0  0  0
 19 20  2  0  0  0
 19 36  1  0  0  0
 20 21  1  0  0  0
 20 37  1  0  0  0
 21 38  1  0  0  0
M  END
> <s_m_entry_id>
3298

> <s_m_entry_name>
dock_pv.390

> <s_m_Source_Path>
/home/csk/Desktop/cluster/DUD-E-result/adrb1

> <s_m_Source_File>
dock_pv.maegz

> <i_m_Source_File_Index>
390

> <chembl_id>
CHEMBL2335164

> <chembl_pref_name>
None

> <i_lp_mmshare_version>
53161

> <i_f3d_flags>
0

> <r_lp_tautomer_probability>
1

> <s_lp_Force_Field>
OPLS_2005

> <r_lp_Energy>
42.047318

> <b_lp_Chiralities_Consistent>
1

> <s_lp_Variant>
CHEMBL213_lig1449-1

> <s_i_glide_gridfile>
glide-grid_2vt4

> <i_i_glide_lignum>
1784

> <i_i_glide_rotatable_bonds>
2

> <r_i_docking_score>
-6.99931266794236

> <r_i_glide_ligand_efficiency>
-0.333300603235351

> <r_i_glide_ligand_efficiency_sa>
-0.919551091335222

> <r_i_glide_ligand_efficiency_ln>
-1.73056591370578

> <r_i_glide_gscore>
-6.99931266794236

> <r_i_glide_lipo>
-2.33775498727334

> <r_i_glide_hbond>
0

> <r_i_glide_metal>
0

> <r_i_glide_rewards>
-2.97610347737281

> <r_i_glide_evdw>
-33.7546768188477

> <r_i_glide_ecoul>
-2.62217473983765

> <r_i_glide_erotb>
0.419508987768482

> <r_i_glide_esite>
-0.0239031391466609

> <r_i_glide_emodel>
-48.8353097297928

> <r_i_glide_energy>
-36.3768515586853

> <r_i_glide_einternal>
4.12578296661377

> <i_i_glide_confnum>
7

> <i_i_glide_posenum>
117

> <r_i_glide_eff_state_penalty>
0

> <s_user_duplicate_titles>
CHEMBL213_lig1449

> <s_m_subgroup_title>
dock_pv

> <s_m_subgroupid>
dock_pv

> <b_m_subgroup_collapsed>
1

$$$$
CHEMBL213_lig773
                    3D
 Schrodinger Suite 2021-1.
 54 56  0  0  1  0            999 V2000
   36.2856    4.7280   -0.8167 C   0  0  0  0  0  0
   37.1448    4.8271   -1.9094 C   0  0  0  0  0  0
   36.6262    4.8560   -3.2025 C   0  0  0  0  0  0
   35.2492    4.7808   -3.4063 C   0  0  0  0  0  0
   34.3785    4.6620   -2.3150 C   0  0  0  0  0  0
   34.9087    4.6489   -1.0189 C   0  0  0  0  0  0
   36.9219    4.7116    0.7851 Cl  0  0  0  0  0  0
   32.8694    4.5807   -2.5134 C   0  0  2  0  0  0
   32.4371    3.5963   -3.6281 C   0  0  0  0  0  0
   30.9874    3.4055   -3.6105 N   0  0  2  0  0  0
   30.1842    3.9379   -4.7126 C   0  0  1  0  0  0
   28.6988    3.7584   -4.3218 C   0  0  0  0  0  0
   28.1827    4.7161   -3.2402 C   0  0  0  0  0  0
   27.4083    5.8163   -3.6135 C   0  0  0  0  0  0
   26.8478    6.6443   -2.6480 C   0  0  0  0  0  0
   27.0648    6.3975   -1.2946 C   0  0  0  0  0  0
   27.8510    5.3124   -0.9006 C   0  0  0  0  0  0
   28.4224    4.4904   -1.8762 C   0  0  0  0  0  0
   32.3145    5.8499   -2.7728 O   0  0  0  0  0  0
   28.0913    5.0555    0.4308 O   0  0  0  0  0  0
   27.0345    4.9004    1.3038 C   0  0  0  0  0  0
   25.9581    4.0535    1.0146 C   0  0  0  0  0  0
   24.9536    3.8502    1.9592 C   0  0  0  0  0  0
   25.0070    4.5148    3.1856 C   0  0  0  0  0  0
   26.0624    5.3896    3.4914 C   0  0  0  0  0  0
   27.0848    5.5508    2.5406 C   0  0  0  0  0  0
   26.0766    6.1356    4.8101 C   0  0  0  0  0  0
   27.0766    7.0504    4.9605 O   0  0  0  0  0  0
   25.2316    5.9464    5.6828 O   0  0  0  0  0  0
   30.5117    5.3814   -5.1612 C   0  0  0  0  0  0
   38.2145    4.8791   -1.7578 H   0  0  0  0  0  0
   37.2923    4.9636   -4.0470 H   0  0  0  0  0  0
   34.8683    4.8303   -4.4160 H   0  0  0  0  0  0
   34.2535    4.5780   -0.1623 H   0  0  0  0  0  0
   32.4365    4.2291   -1.5753 H   0  0  0  0  0  0
   32.8018    3.9017   -4.6093 H   0  0  0  0  0  0
   32.8905    2.6229   -3.4334 H   0  0  0  0  0  0
   30.5621    3.6152   -2.7174 H   0  0  0  0  0  0
   30.3779    3.2797   -5.5609 H   0  0  0  0  0  0
   28.0712    3.8487   -5.2077 H   0  0  0  0  0  0
   28.5153    2.7293   -4.0151 H   0  0  0  0  0  0
   27.1892    6.0070   -4.6521 H   0  0  0  0  0  0
   26.2083    7.4498   -2.9613 H   0  0  0  0  0  0
   26.6173    7.0410   -0.5512 H   0  0  0  0  0  0
   29.0081    3.6420   -1.5579 H   0  0  0  0  0  0
   31.4904    5.6921   -3.2464 H   0  0  0  0  0  0
   25.9141    3.5369    0.0658 H   0  0  0  0  0  0
   24.1291    3.1893    1.7336 H   0  0  0  0  0  0
   24.2046    4.3539    3.8925 H   0  0  0  0  0  0
   27.9326    6.1901    2.7416 H   0  0  0  0  0  0
   26.9765    7.5138    5.8007 H   0  0  0  0  0  0
   29.9083    5.6598   -6.0234 H   0  0  0  0  0  0
   30.2903    6.1172   -4.3887 H   0  0  0  0  0  0
   31.5517    5.5051   -5.4628 H   0  0  0  0  0  0
  1  6  1  0  0  0
  1  2  2  0  0  0
  1  7  1  0  0  0
  2  3  1  0  0  0
  2 31  1  0  0  0
  3  4  2  0  0  0
  3 32  1  0  0  0
  4  5  1  0  0  0
  4 33  1  0  0  0
  5  8  1  0  0  0
  5  6  2  0  0  0
  6 34  1  0  0  0
  8  9  1  0  0  0
  8 19  1  0  0  0
  8 35  1  0  0  0
  9 10  1  0  0  0
  9 36  1  0  0  0
  9 37  1  0  0  0
 10 11  1  0  0  0
 10 38  1  0  0  0
 11 12  1  0  0  0
 11 30  1  0  0  0
 11 39  1  0  0  0
 12 13  1  0  0  0
 12 40  1  0  0  0
 12 41  1  0  0  0
 13 18  1  0  0  0
 13 14  2  0  0  0
 14 15  1  0  0  0
 14 42  1  0  0  0
 15 16  2  0  0  0
 15 43  1  0  0  0
 16 17  1  0  0  0
 16 44  1  0  0  0
 17 18  2  0  0  0
 17 20  1  0  0  0
 18 45  1  0  0  0
 19 46  1  0  0  0
 20 21  1  0  0  0
 21 22  2  0  0  0
 21 26  1  0  0  0
 22 23  1  0  0  0
 22 47  1  0  0  0
 23 24  2  0  0  0
 23 48  1  0  0  0
 24 25  1  0  0  0
 24 49  1  0  0  0
 25 26  2  0  0  0
 25 27  1  0  0  0
 26 50  1  0  0  0
 27 28  1  0  0  0
 27 29  2  0  0  0
 28 51  1  0  0  0
 30 52  1  0  0  0
 30 53  1  0  0  0
 30 54  1  0  0  0
M  END
> <s_m_entry_id>
3299

> <s_m_entry_name>
dock_pv.391

> <s_m_Source_Path>
/home/csk/Desktop/cluster/DUD-E-result/adrb1

> <s_m_Source_File>
dock_pv.maegz

> <i_m_Source_File_Index>
391

> <chembl_id>
CHEMBL492006

> <chembl_pref_name>
None

> <i_lp_mmshare_version>
53161

> <i_f3d_flags>
0

> <r_lp_tautomer_probability>
1

> <s_lp_Force_Field>
OPLS_2005

> <r_lp_Energy>
23.637481

> <b_lp_Chiralities_Consistent>
1

> <s_lp_Variant>
CHEMBL213_lig773-1

> <s_i_glide_gridfile>
glide-grid_2vt4

> <i_i_glide_lignum>
879

> <i_i_glide_rotatable_bonds>
11

> <r_i_docking_score>
-6.996167171094

> <r_i_glide_ligand_efficiency>
-0.2332055723698

> <r_i_glide_ligand_efficiency_sa>
-0.724623934215488

> <r_i_glide_ligand_efficiency_ln>
-1.58960541061938

> <r_i_glide_gscore>
-6.996167171094

> <r_i_glide_lipo>
-2.48669555957902

> <r_i_glide_hbond>
-0.304

> <r_i_glide_metal>
0

> <r_i_glide_rewards>
-1.56476393607833

> <r_i_glide_evdw>
-43.271354675293

> <r_i_glide_ecoul>
-9.01465797424316

> <r_i_glide_erotb>
0.87505875446447

> <r_i_glide_esite>
0

> <r_i_glide_emodel>
-65.7686637074428

> <r_i_glide_energy>
-52.2860126495361

> <r_i_glide_einternal>
14.3245401382446

> <i_i_glide_confnum>
19

> <i_i_glide_posenum>
88

> <r_i_glide_eff_state_penalty>
0

> <s_user_duplicate_titles>
CHEMBL213_lig773,491927

> <s_m_subgroup_title>
dock_pv

> <s_m_subgroupid>
dock_pv

> <b_m_subgroup_collapsed>
1

$$$$
CHEMBL213_lig856
                    3D
 Schrodinger Suite 2021-1.
 77 80  0  0  1  0            999 V2000
   35.2418    6.7255    2.1776 C   0  0  0  0  0  0
   34.4700    5.7654    1.5255 C   0  0  0  0  0  0
   34.8406    5.2909    0.2815 C   0  0  0  0  0  0
   35.9876    5.7650   -0.3597 C   0  0  0  0  0  0
   36.7990    6.6860    0.3158 C   0  0  0  0  0  0
   36.4293    7.1628    1.5770 C   0  0  0  0  0  0
   36.2715    5.3069   -1.7483 C   0  0  0  0  0  0
   37.5584    5.0239   -2.2054 C   0  0  0  0  0  0
   37.7585    4.5293   -3.4939 C   0  0  0  0  0  0
   36.6834    4.3222   -4.3746 C   0  0  0  0  0  0
   35.3784    4.6380   -3.9361 C   0  0  0  0  0  0
   35.2070    5.1254   -2.6331 C   0  0  0  0  0  0
   34.7904    7.3244    3.5149 C   0  0  0  0  0  0
   33.4169    6.8545    4.0589 C   0  0  0  0  0  0
   32.3301    7.3042    3.1878 N   0  0  2  0  0  0
   31.0865    6.5329    3.2624 C   0  0  0  0  0  0
   30.0881    7.0732    4.3231 C   0  0  1  0  0  0
   28.6971    6.4162    4.3407 C   0  0  0  0  0  0
   30.7194    7.0502    5.5850 O   0  0  0  0  0  0
   27.8538    6.6493    5.4334 C   0  0  0  0  0  0
   26.5455    6.1742    5.4394 C   0  0  0  0  0  0
   26.0753    5.4490    4.3512 C   0  0  0  0  0  0
   26.9066    5.1780    3.2680 C   0  0  0  0  0  0
   28.2153    5.6572    3.2639 C   0  0  0  0  0  0
   36.9737    3.8424   -5.7817 C   0  0  0  0  0  0
   37.9747    3.1682   -6.0316 O   0  0  0  0  0  0
   36.0783    4.2494   -6.7939 N   0  0  0  0  0  0
   36.3217    4.1278   -8.5217 S   0  0  0  0  0  0
   37.6974    5.3643   -8.8355 C   0  0  0  0  0  0
   36.8216    2.7844   -8.8325 O   0  0  0  0  0  0
   35.1037    4.6328   -9.1648 O   0  0  0  0  0  0
   34.3079    4.4634   -4.8011 O   0  0  0  0  0  0
   32.9531    4.6035   -4.3678 C   0  0  0  0  0  0
   32.1567    4.8421   -5.6620 C   0  0  0  0  0  0
   30.6267    4.8771   -5.5010 C   0  0  0  0  0  0
   32.5660    3.3514   -3.5414 C   0  0  0  0  0  0
   30.0147    3.4901   -5.2405 C   0  0  0  0  0  0
   31.1788    3.4278   -2.8801 C   0  0  0  0  0  0
   29.9809    3.0499   -3.7694 C   0  0  0  0  0  0
   33.5561    5.3856    1.9499 H   0  0  0  0  0  0
   34.2087    4.5553   -0.1922 H   0  0  0  0  0  0
   37.6970    7.0634   -0.1529 H   0  0  0  0  0  0
   37.0482    7.8974    2.0696 H   0  0  0  0  0  0
   38.4113    5.1386   -1.5519 H   0  0  0  0  0  0
   38.7723    4.3069   -3.8012 H   0  0  0  0  0  0
   34.2260    5.3773   -2.2728 H   0  0  0  0  0  0
   35.5539    7.0915    4.2570 H   0  0  0  0  0  0
   34.7814    8.4102    3.4202 H   0  0  0  0  0  0
   33.4094    5.7645    4.1008 H   0  0  0  0  0  0
   33.2824    7.2034    5.0831 H   0  0  0  0  0  0
   32.6267    7.5155    2.2349 H   0  0  0  0  0  0
   30.6114    6.6506    2.2947 H   0  0  0  0  0  0
   31.2747    5.4621    3.3564 H   0  0  0  0  0  0
   29.8978    8.1240    4.0952 H   0  0  0  0  0  0
   31.6127    7.3724    5.4242 H   0  0  0  0  0  0
   28.2082    7.2344    6.2704 H   0  0  0  0  0  0
   25.8983    6.3866    6.2793 H   0  0  0  0  0  0
   25.0554    5.0892    4.3458 H   0  0  0  0  0  0
   26.5360    4.6107    2.4273 H   0  0  0  0  0  0
   28.8302    5.4493    2.4028 H   0  0  0  0  0  0
   35.2791    4.8298   -6.5177 H   0  0  0  0  0  0
   37.8869    5.4117   -9.9073 H   0  0  0  0  0  0
   37.3796    6.3383   -8.4594 H   0  0  0  0  0  0
   38.5884    5.0343   -8.3035 H   0  0  0  0  0  0
   32.8553    5.5136   -3.7786 H   0  0  0  0  0  0
   32.4354    4.1113   -6.4216 H   0  0  0  0  0  0
   32.4528    5.8166   -6.0590 H   0  0  0  0  0  0
   30.2075    5.2817   -6.4150 H   0  0  0  0  0  0
   30.3323    5.5843   -4.7236 H   0  0  0  0  0  0
   33.2938    3.2113   -2.7420 H   0  0  0  0  0  0
   32.6406    2.4536   -4.1552 H   0  0  0  0  0  0
   30.5523    2.7450   -5.8282 H   0  0  0  0  0  0
   28.9929    3.4503   -5.6171 H   0  0  0  0  0  0
   31.1640    2.7689   -2.0112 H   0  0  0  0  0  0
   31.0294    4.4312   -2.4770 H   0  0  0  0  0  0
   29.8608    1.9664   -3.7583 H   0  0  0  0  0  0
   29.0789    3.4505   -3.3035 H   0  0  0  0  0  0
  1  6  1  0  0  0
  1 13  1  0  0  0
  1  2  2  0  0  0
  2  3  1  0  0  0
  2 40  1  0  0  0
  3  4  2  0  0  0
  3 41  1  0  0  0
  4  7  1  0  0  0
  4  5  1  0  0  0
  5  6  2  0  0  0
  5 42  1  0  0  0
  6 43  1  0  0  0
  7 12  1  0  0  0
  7  8  2  0  0  0
  8  9  1  0  0  0
  8 44  1  0  0  0
  9 10  2  0  0  0
  9 45  1  0  0  0
 10 11  1  0  0  0
 10 25  1  0  0  0
 11 12  2  0  0  0
 11 32  1  0  0  0
 12 46  1  0  0  0
 13 14  1  0  0  0
 13 47  1  0  0  0
 13 48  1  0  0  0
 14 15  1  0  0  0
 14 49  1  0  0  0
 14 50  1  0  0  0
 15 16  1  0  0  0
 15 51  1  0  0  0
 16 17  1  0  0  0
 16 52  1  0  0  0
 16 53  1  0  0  0
 17 19  1  0  0  0
 17 18  1  0  0  0
 17 54  1  0  0  0
 18 20  2  0  0  0
 18 24  1  0  0  0
 19 55  1  0  0  0
 20 21  1  0  0  0
 20 56  1  0  0  0
 21 22  2  0  0  0
 21 57  1  0  0  0
 22 23  1  0  0  0
 22 58  1  0  0  0
 23 24  2  0  0  0
 23 59  1  0  0  0
 24 60  1  0  0  0
 25 26  2  0  0  0
 25 27  1  0  0  0
 27 28  1  0  0  0
 27 61  1  0  0  0
 28 29  1  0  0  0
 28 30  2  0  0  0
 28 31  2  0  0  0
 29 62  1  0  0  0
 29 63  1  0  0  0
 29 64  1  0  0  0
 32 33  1  0  0  0
 33 34  1  0  0  0
 33 36  1  0  0  0
 33 65  1  0  0  0
 34 35  1  0  0  0
 34 66  1  0  0  0
 34 67  1  0  0  0
 35 37  1  0  0  0
 35 68  1  0  0  0
 35 69  1  0  0  0
 36 38  1  0  0  0
 36 70  1  0  0  0
 36 71  1  0  0  0
 37 39  1  0  0  0
 37 72  1  0  0  0
 37 73  1  0  0  0
 38 39  1  0  0  0
 38 74  1  0  0  0
 38 75  1  0  0  0
 39 76  1  0  0  0
 39 77  1  0  0  0
M  END
> <s_m_entry_id>
3300

> <s_m_entry_name>
dock_pv.392

> <s_m_Source_Path>
/home/csk/Desktop/cluster/DUD-E-result/adrb1

> <s_m_Source_File>
dock_pv.maegz

> <i_m_Source_File_Index>
392

> <chembl_id>
CHEMBL479341

> <chembl_pref_name>
None

> <i_lp_mmshare_version>
53161

> <i_f3d_flags>
0

> <r_lp_tautomer_probability>
1

> <s_lp_Force_Field>
OPLS_2005

> <r_lp_Energy>
44.904545

> <b_lp_Chiralities_Consistent>
1

> <s_lp_Variant>
CHEMBL213_lig856-1

> <s_i_glide_gridfile>
glide-grid_2vt4

> <i_i_glide_lignum>
964

> <i_i_glide_rotatable_bonds>
13

> <r_i_docking_score>
-6.99542043075116

> <r_i_glide_ligand_efficiency>
-0.179369754634645

> <r_i_glide_ligand_efficiency_sa>
-0.608280763704827

> <r_i_glide_ligand_efficiency_ln>
-1.50001671717082

> <r_i_glide_gscore>
-6.99542043075116

> <r_i_glide_lipo>
-2.93899109564312

> <r_i_glide_hbond>
-0.608

> <r_i_glide_metal>
0

> <r_i_glide_rewards>
-0.438664553991937

> <r_i_glide_evdw>
-49.9092864990234

> <r_i_glide_ecoul>
-7.52430772781372

> <r_i_glide_erotb>
0.614345703007128

> <r_i_glide_esite>
0

> <r_i_glide_emodel>
-75.600717078842

> <r_i_glide_energy>
-57.4335942268372

> <r_i_glide_einternal>
10.7514877319336

> <i_i_glide_confnum>
11

> <i_i_glide_posenum>
382

> <r_i_glide_eff_state_penalty>
0

> <s_user_duplicate_titles>
CHEMBL213_lig856,519970

> <s_m_subgroup_title>
dock_pv

> <s_m_subgroupid>
dock_pv

> <b_m_subgroup_collapsed>
1

$$$$
CHEMBL213_lig356
                    3D
 Schrodinger Suite 2021-1.
 40 43  0  0  1  0            999 V2000
   31.5871    5.0499   -1.5635 C   0  0  0  0  0  0
   29.2996    4.5219   -1.9506 C   0  0  2  0  0  0
   30.2480    4.9346   -0.8395 C   0  0  0  0  0  0
   29.9031    5.1678   -3.2184 C   0  0  1  0  0  0
   31.2763    5.5827   -2.8896 N   0  0  2  0  0  0
   32.1515    5.0531   -3.9356 C   0  0  0  0  0  0
   31.4644    3.7920   -4.4503 C   0  0  0  0  0  0
   30.0069    4.2232   -4.4336 C   0  0  0  0  0  0
   27.8093    4.8859   -1.7397 C   0  0  0  0  0  0
   27.3743    4.7214   -0.3885 O   0  0  0  0  0  0
   26.3609    3.8917   -0.0410 C   0  0  0  0  0  0
   25.9134    4.2036    1.3058 C   0  0  0  0  0  0
   25.8163    3.0518   -0.7577 O   0  0  0  0  0  0
   24.2893    4.2484    2.9176 N   0  0  0  0  0  0
   24.6442    3.8456    1.6852 N   0  0  0  0  0  0
   25.4096    4.8956    3.3721 C   0  0  0  0  0  0
   26.4804    4.8753    2.4218 C   0  0  0  0  0  0
   27.7193    5.4518    2.7411 C   0  0  0  0  0  0
   27.8703    6.0626    3.9863 C   0  0  0  0  0  0
   26.8166    6.1194    4.8957 C   0  0  0  0  0  0
   25.5793    5.5435    4.6061 C   0  0  0  0  0  0
   29.3868    6.0771   -3.5366 H   0  0  0  0  0  0
   32.2462    5.7454   -1.0419 H   0  0  0  0  0  0
   32.0781    4.0737   -1.6131 H   0  0  0  0  0  0
   29.4049    3.4492   -2.0219 H   0  0  0  0  0  0
   29.9409    5.8499   -0.3446 H   0  0  0  0  0  0
   30.2882    4.1740   -0.0587 H   0  0  0  0  0  0
   32.2832    5.8027   -4.7167 H   0  0  0  0  0  0
   33.1485    4.8333   -3.5421 H   0  0  0  0  0  0
   31.8061    3.5210   -5.4500 H   0  0  0  0  0  0
   31.6627    2.9400   -3.7960 H   0  0  0  0  0  0
   29.3280    3.3679   -4.3726 H   0  0  0  0  0  0
   29.7444    4.7625   -5.3446 H   0  0  0  0  0  0
   27.1880    4.3306   -2.4466 H   0  0  0  0  0  0
   27.6592    5.9414   -1.9754 H   0  0  0  0  0  0
   23.9964    3.3614    1.0770 H   0  0  0  0  0  0
   28.5377    5.4285    2.0361 H   0  0  0  0  0  0
   28.8184    6.5128    4.2425 H   0  0  0  0  0  0
   26.9585    6.6205    5.8431 H   0  0  0  0  0  0
   24.7726    5.5886    5.3226 H   0  0  0  0  0  0
  1  3  1  0  0  0
  1  5  1  0  0  0
  1 23  1  0  0  0
  1 24  1  0  0  0
  2  4  1  0  0  0
  2  3  1  0  0  0
  2  9  1  0  0  0
  2 25  1  0  0  0
  3 26  1  0  0  0
  3 27  1  0  0  0
  4  8  1  0  0  0
  4  5  1  0  0  0
  4 22  1  0  0  0
  5  6  1  0  0  0
  6  7  1  0  0  0
  6 28  1  0  0  0
  6 29  1  0  0  0
  7  8  1  0  0  0
  7 30  1  0  0  0
  7 31  1  0  0  0
  8 32  1  0  0  0
  8 33  1  0  0  0
  9 10  1  0  0  0
  9 34  1  0  0  0
  9 35  1  0  0  0
 10 11  1  0  0  0
 11 12  1  0  0  0
 11 13  2  0  0  0
 12 17  2  0  0  0
 12 15  1  0  0  0
 14 16  2  0  0  0
 14 15  1  0  0  0
 15 36  1  0  0  0
 16 17  1  0  0  0
 16 21  1  0  0  0
 17 18  1  0  0  0
 18 19  2  0  0  0
 18 37  1  0  0  0
 19 20  1  0  0  0
 19 38  1  0  0  0
 20 21  2  0  0  0
 20 39  1  0  0  0
 21 40  1  0  0  0
M  END
> <s_m_entry_id>
3301

> <s_m_entry_name>
dock_pv.393

> <s_m_Source_Path>
/home/csk/Desktop/cluster/DUD-E-result/adrb1

> <s_m_Source_File>
dock_pv.maegz

> <i_m_Source_File_Index>
393

> <chembl_id>
CHEMBL201878

> <chembl_pref_name>
None

> <i_lp_mmshare_version>
53161

> <i_f3d_flags>
0

> <r_lp_tautomer_probability>
1

> <s_lp_Force_Field>
OPLS_2005

> <r_lp_Energy>
63.15122

> <b_lp_Chiralities_Consistent>
1

> <s_lp_Variant>
CHEMBL213_lig356-1

> <s_i_glide_gridfile>
glide-grid_2vt4

> <i_i_glide_lignum>
417

> <i_i_glide_rotatable_bonds>
4

> <r_i_docking_score>
-6.99440915879623

> <r_i_glide_ligand_efficiency>
-0.33306710279982

> <r_i_glide_ligand_efficiency_sa>
-0.918906881339096

> <r_i_glide_ligand_efficiency_ln>
-1.72935353097787

> <r_i_glide_gscore>
-6.99440915879623

> <r_i_glide_lipo>
-2.18276280765424

> <r_i_glide_hbond>
-0.26195526820786

> <r_i_glide_metal>
0

> <r_i_glide_rewards>
-2.71619959468127

> <r_i_glide_evdw>
-34.1633796691895

> <r_i_glide_ecoul>
-3.80643463134766

> <r_i_glide_erotb>
0.445642689908767

> <r_i_glide_esite>
0

> <r_i_glide_emodel>
-49.7088471409352

> <r_i_glide_energy>
-37.9698143005371

> <r_i_glide_einternal>
5.89845943450928

> <i_i_glide_confnum>
9

> <i_i_glide_posenum>
237

> <r_i_glide_eff_state_penalty>
0

> <s_user_duplicate_titles>
CHEMBL213_lig356

> <s_m_subgroup_title>
dock_pv

> <s_m_subgroupid>
dock_pv

> <b_m_subgroup_collapsed>
1

$$$$
CHEMBL213_lig1221 
                    3D
 Schrodinger Suite 2021-1.
 47 49  0  0  1  0            999 V2000
   32.0797    4.9407   -3.7792 C   0  0  0  0  0  0
   32.0593    3.8853   -4.6850 C   0  0  0  0  0  0
   29.6469    4.8627   -3.5827 C   0  0  0  0  0  0
   30.8879    5.4198   -3.2419 C   0  0  0  0  0  0
   29.6282    3.7674   -4.4696 C   0  0  0  0  0  0
   30.8373    3.2944   -5.0286 C   0  0  0  0  0  0
   30.8059    2.2307   -5.9552 N   0  0  0  0  0  0
   29.7219    1.5588   -6.3903 C   0  0  0  0  0  0
   28.4839    2.0268   -5.7967 C   0  0  0  0  0  0
   28.4064    3.0495   -4.9095 C   0  0  0  0  0  0
   29.8066    0.6524   -7.2143 O   0  0  0  0  0  0
   33.2467    3.4520   -5.2273 O   0  0  0  0  0  0
   28.3741    5.5329   -3.0379 C   0  0  1  0  0  0
   28.3521    5.6928   -1.4920 C   0  0  0  0  0  0
   28.2151    6.8193   -3.6076 O   0  0  0  0  0  0
   27.7792    4.5379   -0.7981 N   0  0  1  0  0  0
   26.4123    4.8080   -0.3536 C   0  0  0  0  0  0
   25.8548    3.6413    0.4939 C   0  0  0  0  0  0
   25.1957    4.0520    1.8351 C   0  0  0  0  0  0
   26.0444    4.7984    2.8772 C   0  0  0  0  0  0
   25.4074    5.2299    4.0410 C   0  0  0  0  0  0
   26.1121    5.9043    5.0306 C   0  0  0  0  0  0
   27.4690    6.1569    4.8557 C   0  0  0  0  0  0
   28.1254    5.7288    3.7047 C   0  0  0  0  0  0
   27.4146    5.0502    2.7191 C   0  0  0  0  0  0
   33.0175    5.3989   -3.4980 H   0  0  0  0  0  0
   30.9306    6.2531   -2.5627 H   0  0  0  0  0  0
   31.6774    1.9251   -6.3566 H   0  0  0  0  0  0
   27.5784    1.5186   -6.0875 H   0  0  0  0  0  0
   27.4226    3.3017   -4.5301 H   0  0  0  0  0  0
   33.9750    4.0697   -5.1027 H   0  0  0  0  0  0
   27.4750    5.0013   -3.3382 H   0  0  0  0  0  0
   27.7939    6.5929   -1.2224 H   0  0  0  0  0  0
   29.3526    5.8593   -1.0978 H   0  0  0  0  0  0
   27.3140    7.1198   -3.4511 H   0  0  0  0  0  0
   27.7976    3.7134   -1.3896 H   0  0  0  0  0  0
   25.7807    4.9735   -1.2236 H   0  0  0  0  0  0
   26.3962    5.7283    0.2330 H   0  0  0  0  0  0
   26.6082    2.8898    0.7013 H   0  0  0  0  0  0
   25.1177    3.1127   -0.1141 H   0  0  0  0  0  0
   24.8211    3.1461    2.3144 H   0  0  0  0  0  0
   24.3110    4.6496    1.6199 H   0  0  0  0  0  0
   24.3556    5.0371    4.1868 H   0  0  0  0  0  0
   25.6074    6.2420    5.9255 H   0  0  0  0  0  0
   28.0156    6.6885    5.6207 H   0  0  0  0  0  0
   29.1811    5.9177    3.5744 H   0  0  0  0  0  0
   27.9503    4.7147    1.8446 H   0  0  0  0  0  0
  1  2  2  0  0  0
  1  4  1  0  0  0
  1 26  1  0  0  0
  2  6  1  0  0  0
  2 12  1  0  0  0
  3  5  1  0  0  0
  3  4  2  0  0  0
  3 13  1  0  0  0
  4 27  1  0  0  0
  5  6  2  0  0  0
  5 10  1  0  0  0
  6  7  1  0  0  0
  7  8  1  0  0  0
  7 28  1  0  0  0
  8  9  1  0  0  0
  8 11  2  0  0  0
  9 10  2  0  0  0
  9 29  1  0  0  0
 10 30  1  0  0  0
 12 31  1  0  0  0
 13 14  1  0  0  0
 13 15  1  0  0  0
 13 32  1  0  0  0
 14 16  1  0  0  0
 14 33  1  0  0  0
 14 34  1  0  0  0
 15 35  1  0  0  0
 16 17  1  0  0  0
 16 36  1  0  0  0
 17 18  1  0  0  0
 17 37  1  0  0  0
 17 38  1  0  0  0
 18 19  1  0  0  0
 18 39  1  0  0  0
 18 40  1  0  0  0
 19 20  1  0  0  0
 19 41  1  0  0  0
 19 42  1  0  0  0
 20 21  2  0  0  0
 20 25  1  0  0  0
 21 22  1  0  0  0
 21 43  1  0  0  0
 22 23  2  0  0  0
 22 44  1  0  0  0
 23 24  1  0  0  0
 23 45  1  0  0  0
 24 25  2  0  0  0
 24 46  1  0  0  0
 25 47  1  0  0  0
M  END
> <s_m_entry_id>
3302

> <s_m_entry_name>
dock_pv.394

> <s_m_Source_Path>
/home/csk/Desktop/cluster/DUD-E-result/adrb1

> <s_m_Source_File>
dock_pv.maegz

> <i_m_Source_File_Index>
394

> <chembl_id>
CHEMBL4536813

> <chembl_pref_name>
None

> <i_lp_mmshare_version>
53161

> <i_f3d_flags>
0

> <r_lp_tautomer_probability>
1

> <s_lp_Force_Field>
OPLS_2005

> <r_lp_Energy>
25.105969

> <b_lp_Chiralities_Consistent>
1

> <s_lp_Variant>
CHEMBL213_lig1221 -2

> <s_i_glide_gridfile>
glide-grid_2vt4

> <i_i_glide_lignum>
1454

> <i_i_glide_rotatable_bonds>
9

> <r_i_docking_score>
-6.99315482901577

> <r_i_glide_ligand_efficiency>
-0.279726193160631

> <r_i_glide_ligand_efficiency_sa>
-0.817924349766844

> <r_i_glide_ligand_efficiency_ln>
-1.65758726241587

> <r_i_glide_gscore>
-6.99315482901577

> <r_i_glide_lipo>
-2.59002074342726

> <r_i_glide_hbond>
-0.387603184697884

> <r_i_glide_metal>
0

> <r_i_glide_rewards>
-1.927848527007

> <r_i_glide_evdw>
-40.2169570922852

> <r_i_glide_ecoul>
-7.11801671981812

> <r_i_glide_erotb>
0.990867988703354

> <r_i_glide_esite>
0

> <r_i_glide_emodel>
-61.3770375758996

> <r_i_glide_energy>
-47.3349738121033

> <r_i_glide_einternal>
14.4004917144775

> <i_i_glide_confnum>
31

> <i_i_glide_posenum>
131

> <r_i_glide_eff_state_penalty>
0

> <s_user_duplicate_titles>
CHEMBL213_lig1221 

> <s_m_subgroup_title>
dock_pv

> <s_m_subgroupid>
dock_pv

> <b_m_subgroup_collapsed>
1

$$$$
CHEMBL213_lig1047
                    3D
 Schrodinger Suite 2021-1.
 71 72  0  0  1  0            999 V2000
   30.3269    2.3671   -6.4889 C   0  0  0  0  0  0
   29.7556    2.7308   -5.2593 C   0  0  0  0  0  0
   30.3616    3.7033   -4.4690 C   0  0  0  0  0  0
   31.5518    4.2972   -4.8848 C   0  0  0  0  0  0
   32.1908    3.8727   -6.0575 C   0  0  0  0  0  0
   31.5595    2.9170   -6.8587 C   0  0  0  0  0  0
   29.6477    1.3796   -7.4269 C   0  0  0  0  0  0
   28.2652    1.6162   -7.5958 O   0  0  0  0  0  0
   28.5998    2.1415   -4.8200 O   0  0  0  0  0  0
   33.5336    4.4737   -6.4987 C   0  0  2  0  0  0
   34.7451    4.1838   -5.5571 C   0  0  0  0  0  0
   33.4081    5.8501   -6.7865 O   0  0  0  0  0  0
   34.4799    4.4251   -4.1396 N   0  0  2  0  0  0
   35.6095    4.0932   -3.2798 C   0  0  0  0  0  0
   35.1823    4.1697   -1.7979 C   0  0  0  0  0  0
   34.7306    5.5721   -1.3383 C   0  0  0  0  0  0
   34.1654    5.6413    0.0959 C   0  0  0  0  0  0
   35.1653    5.3173    1.2237 C   0  0  0  0  0  0
   34.9672    6.1119    2.5359 C   0  0  0  0  0  0
   33.7313    5.8832    3.2175 O   0  0  0  0  0  0
   32.6670    6.7847    2.8971 C   0  0  0  0  0  0
   31.6173    6.8445    4.0251 C   0  0  0  0  0  0
   30.3068    6.5242    3.5586 O   0  0  0  0  0  0
   29.2797    6.9079    4.4708 C   0  0  0  0  0  0
   27.9367    6.2499    4.1619 C   0  0  0  0  0  0
   27.7011    5.5357    2.9796 C   0  0  0  0  0  0
   26.4395    4.9863    2.7119 C   0  0  0  0  0  0
   25.4137    5.1403    3.6593 C   0  0  0  0  0  0
   25.6437    5.8503    4.8359 C   0  0  0  0  0  0
   26.8963    6.4046    5.0815 C   0  0  0  0  0  0
   26.2818    4.3354    1.4702 N   0  0  0  0  0  0
   25.2368    3.6268    1.0044 C   0  0  0  0  0  0
   25.4080    3.2748   -0.2618 N   0  0  0  0  0  0
   24.2085    3.3457    1.6129 O   0  0  0  0  0  0
   29.9044    4.0156   -3.5411 H   0  0  0  0  0  0
   31.9810    5.0841   -4.2814 H   0  0  0  0  0  0
   32.0210    2.6153   -7.7889 H   0  0  0  0  0  0
   30.1019    1.4500   -8.4149 H   0  0  0  0  0  0
   29.8106    0.3645   -7.0639 H   0  0  0  0  0  0
   27.8956    1.7500   -6.7127 H   0  0  0  0  0  0
   28.4419    2.2500   -3.8704 H   0  0  0  0  0  0
   33.7933    4.0352   -7.4631 H   0  0  0  0  0  0
   35.0108    3.1325   -5.6761 H   0  0  0  0  0  0
   35.6130    4.7610   -5.8828 H   0  0  0  0  0  0
   34.2835    6.2702   -6.8141 H   0  0  0  0  0  0
   33.6657    3.9001   -3.8517 H   0  0  0  0  0  0
   35.9728    3.0881   -3.4991 H   0  0  0  0  0  0
   36.4228    4.7957   -3.4726 H   0  0  0  0  0  0
   34.3858    3.4480   -1.6147 H   0  0  0  0  0  0
   36.0194    3.8441   -1.1779 H   0  0  0  0  0  0
   35.5635    6.2707   -1.4371 H   0  0  0  0  0  0
   33.9609    5.9454   -2.0152 H   0  0  0  0  0  0
   33.8064    6.6499    0.2327 H   0  0  0  0  0  0
   33.2780    5.0160    0.1891 H   0  0  0  0  0  0
   35.1447    4.2491    1.4330 H   0  0  0  0  0  0
   36.1778    5.5214    0.8712 H   0  0  0  0  0  0
   35.7494    5.7983    3.2272 H   0  0  0  0  0  0
   35.1516    7.1755    2.3741 H   0  0  0  0  0  0
   33.0576    7.7987    2.7848 H   0  0  0  0  0  0
   32.2053    6.5000    1.9522 H   0  0  0  0  0  0
   31.8915    6.1867    4.8486 H   0  0  0  0  0  0
   31.6148    7.8494    4.4431 H   0  0  0  0  0  0
   29.5562    6.6499    5.4940 H   0  0  0  0  0  0
   29.1551    7.9909    4.4306 H   0  0  0  0  0  0
   28.4989    5.4262    2.2585 H   0  0  0  0  0  0
   24.4250    4.7394    3.5001 H   0  0  0  0  0  0
   24.8450    5.9801    5.5527 H   0  0  0  0  0  0
   27.0527    6.9715    5.9859 H   0  0  0  0  0  0
   27.0663    4.4186    0.8450 H   0  0  0  0  0  0
   24.5717    3.0476   -0.7929 H   0  0  0  0  0  0
   26.2647    3.4710   -0.7579 H   0  0  0  0  0  0
  1  2  2  0  0  0
  1  6  1  0  0  0
  1  7  1  0  0  0
  2  9  1  0  0  0
  2  3  1  0  0  0
  3  4  2  0  0  0
  3 35  1  0  0  0
  4  5  1  0  0  0
  4 36  1  0  0  0
  5 10  1  0  0  0
  5  6  2  0  0  0
  6 37  1  0  0  0
  7  8  1  0  0  0
  7 38  1  0  0  0
  7 39  1  0  0  0
  8 40  1  0  0  0
  9 41  1  0  0  0
 10 11  1  0  0  0
 10 12  1  0  0  0
 10 42  1  0  0  0
 11 13  1  0  0  0
 11 43  1  0  0  0
 11 44  1  0  0  0
 12 45  1  0  0  0
 13 14  1  0  0  0
 13 46  1  0  0  0
 14 15  1  0  0  0
 14 47  1  0  0  0
 14 48  1  0  0  0
 15 16  1  0  0  0
 15 49  1  0  0  0
 15 50  1  0  0  0
 16 17  1  0  0  0
 16 51  1  0  0  0
 16 52  1  0  0  0
 17 18  1  0  0  0
 17 53  1  0  0  0
 17 54  1  0  0  0
 18 19  1  0  0  0
 18 55  1  0  0  0
 18 56  1  0  0  0
 19 20  1  0  0  0
 19 57  1  0  0  0
 19 58  1  0  0  0
 20 21  1  0  0  0
 21 22  1  0  0  0
 21 59  1  0  0  0
 21 60  1  0  0  0
 22 23  1  0  0  0
 22 61  1  0  0  0
 22 62  1  0  0  0
 23 24  1  0  0  0
 24 25  1  0  0  0
 24 63  1  0  0  0
 24 64  1  0  0  0
 25 26  2  0  0  0
 25 30  1  0  0  0
 26 27  1  0  0  0
 26 65  1  0  0  0
 27 28  2  0  0  0
 27 31  1  0  0  0
 28 29  1  0  0  0
 28 66  1  0  0  0
 29 30  2  0  0  0
 29 67  1  0  0  0
 30 68  1  0  0  0
 31 32  1  0  0  0
 31 69  1  0  0  0
 32 33  1  0  0  0
 32 34  2  0  0  0
 33 70  1  0  0  0
 33 71  1  0  0  0
M  END
> <s_m_entry_id>
3303

> <s_m_entry_name>
dock_pv.395

> <s_m_Source_Path>
/home/csk/Desktop/cluster/DUD-E-result/adrb1

> <s_m_Source_File>
dock_pv.maegz

> <i_m_Source_File_Index>
395

> <chembl_id>
CHEMBL1085638

> <chembl_pref_name>
None

> <i_lp_mmshare_version>
53161

> <i_f3d_flags>
0

> <r_lp_tautomer_probability>
0.999999999997365

> <s_lp_Force_Field>
OPLS_2005

> <r_lp_Energy>
24.275253

> <b_lp_Chiralities_Consistent>
1

> <s_lp_Variant>
CHEMBL213_lig1047-1

> <s_i_glide_gridfile>
glide-grid_2vt4

> <i_i_glide_lignum>
1215

> <i_i_glide_rotatable_bonds>
21

> <r_i_docking_score>
-6.99302338800496

> <r_i_glide_ligand_efficiency>
-0.205677158470734

> <r_i_glide_ligand_efficiency_sa>
-0.666314149051788

> <r_i_glide_ligand_efficiency_ln>
-1.54495501407237

> <r_i_glide_gscore>
-6.99302338800496

> <r_i_glide_lipo>
-3.34011897395183

> <r_i_glide_hbond>
-0.265740289350657

> <r_i_glide_metal>
0

> <r_i_glide_rewards>
-0.832233087472936

> <r_i_glide_evdw>
-53.2625694274902

> <r_i_glide_ecoul>
-9.17190170288086

> <r_i_glide_erotb>
1.52156121934737

> <r_i_glide_esite>
-0.0375785297702715

> <r_i_glide_emodel>
-80.2185460173249

> <r_i_glide_energy>
-62.4344711303711

> <r_i_glide_einternal>
16.0507755279541

> <i_i_glide_confnum>
19

> <i_i_glide_posenum>
42

> <r_i_glide_eff_state_penalty>
0

> <s_user_duplicate_titles>
CHEMBL213_lig1047,631504

> <s_m_subgroup_title>
dock_pv

> <s_m_subgroupid>
dock_pv

> <b_m_subgroup_collapsed>
1

$$$$
CHEMBL213_lig286
                    3D
 Schrodinger Suite 2021-1.
 71 75  0  0  1  0            999 V2000
   36.4831    5.9922    0.0697 S   0  0  0  0  0  0
   30.7392    4.0687   -3.1939 N   0  0  0  0  0  0
   32.0102    3.7889   -3.4246 C   0  0  0  0  0  0
   32.2438    3.0500   -4.4896 N   0  0  0  0  0  0
   30.1307    3.4632   -4.1786 C   0  0  0  0  0  0
   36.2010    5.4492    1.7364 N   0  0  0  0  0  0
   30.9747    2.8018   -5.0066 O   0  0  0  0  0  0
   35.1718    5.2935   -0.9291 C   0  0  0  0  0  0
   36.3459    7.4494    0.0316 O   0  0  0  0  0  0
   37.7394    5.3586   -0.3376 O   0  0  0  0  0  0
   33.1186    4.2957   -2.5461 C   0  0  0  0  0  0
   26.1809    5.8368    4.1863 C   0  0  0  0  0  0
   28.0463    4.7241   -4.2770 O   0  0  0  0  0  0
   27.8081    5.1168   -2.9758 C   0  0  0  0  0  0
   24.0252    4.9259    4.7850 N   0  0  0  0  0  0
   28.6476    3.4510   -4.5126 C   0  0  0  0  0  0
   33.8921    5.8366   -0.8467 C   0  0  0  0  0  0
   35.4314    4.2402   -1.8079 C   0  0  0  0  0  0
   27.9501    6.4642   -2.6588 C   0  0  0  0  0  0
   34.4084    3.7498   -2.6170 C   0  0  0  0  0  0
   32.8710    5.3379   -1.6459 C   0  0  0  0  0  0
   35.1622    5.8662    2.5843 C   0  0  0  0  0  0
   27.2961    6.8148    4.4779 C   0  0  1  0  0  0
   29.4768    7.0500    5.6936 N   0  0  2  0  0  0
   33.0327    6.5106    4.2935 C   0  0  0  0  0  0
   25.0789    5.7363    5.0425 C   0  0  0  0  0  0
   28.3348    7.3626   -3.6153 O   0  0  0  0  0  0
   34.8539    5.0500    3.6720 C   0  0  0  0  0  0
   34.4352    7.0421    2.3964 C   0  0  0  0  0  0
   33.8080    5.3742    4.5303 C   0  0  0  0  0  0
   33.3594    7.3477    3.2267 C   0  0  0  0  0  0
   26.7549    8.0838    4.7850 O   0  0  0  0  0  0
   28.2128    6.3156    5.6045 C   0  0  0  0  0  0
   26.2074    5.0485    3.0313 C   0  0  0  0  0  0
   24.0267    4.2500    3.5950 C   0  0  0  0  0  0
   27.3423    4.2500   -1.9804 C   0  0  0  0  0  0
   27.6831    6.9049   -1.3682 C   0  0  0  0  0  0
   30.4586    6.8059    4.6328 C   0  0  0  0  0  0
   31.8807    6.8581    5.2362 C   0  0  0  0  0  0
   25.1079    4.2500    2.7183 C   0  0  0  0  0  0
   27.2393    6.0327   -0.3831 C   0  0  0  0  0  0
   27.0641    4.6919   -0.6907 C   0  0  0  0  0  0
   36.6214    4.5575    1.9436 H   0  0  0  0  0  0
   28.5352    3.2569   -5.5783 H   0  0  0  0  0  0
   28.0906    2.6498   -4.0362 H   0  0  0  0  0  0
   33.6840    6.6499   -0.1726 H   0  0  0  0  0  0
   36.4231    3.8127   -1.8807 H   0  0  0  0  0  0
   34.6279    2.9443   -3.3028 H   0  0  0  0  0  0
   31.8862    5.7736   -1.5690 H   0  0  0  0  0  0
   27.9091    6.8965    3.5850 H   0  0  0  0  0  0
   29.8769    7.0631    6.6232 H   0  0  0  0  0  0
   25.0188    6.3234    5.9482 H   0  0  0  0  0  0
   28.3660    6.9463   -4.4804 H   0  0  0  0  0  0
   35.4076    4.1400    3.8462 H   0  0  0  0  0  0
   34.6538    7.7258    1.5973 H   0  0  0  0  0  0
   33.5795    4.7190    5.3591 H   0  0  0  0  0  0
   32.7903    8.2498    3.0505 H   0  0  0  0  0  0
   26.9347    8.2753    5.7198 H   0  0  0  0  0  0
   27.6877    6.3810    6.5586 H   0  0  0  0  0  0
   28.4202    5.2571    5.4474 H   0  0  0  0  0  0
   27.0567    5.0739    2.3662 H   0  0  0  0  0  0
   23.1403    3.6750    3.3681 H   0  0  0  0  0  0
   27.0081    3.2582   -2.2365 H   0  0  0  0  0  0
   27.8080    7.9421   -1.1274 H   0  0  0  0  0  0
   30.2981    5.8500    4.1385 H   0  0  0  0  0  0
   30.3509    7.5473    3.8389 H   0  0  0  0  0  0
   32.0633    7.8500    5.6304 H   0  0  0  0  0  0
   31.9352    6.2036    6.1055 H   0  0  0  0  0  0
   25.0839    3.6652    1.8104 H   0  0  0  0  0  0
   27.0085    6.4132    0.5996 H   0  0  0  0  0  0
   26.6647    4.0067    0.0412 H   0  0  0  0  0  0
  1  6  1  0  0  0
  1  8  1  0  0  0
  1  9  2  0  0  0
  1 10  2  0  0  0
  2  3  1  0  0  0
  2  5  2  0  0  0
  3 11  1  0  0  0
  3  4  2  0  0  0
  4  7  1  0  0  0
  5 16  1  0  0  0
  5  7  1  0  0  0
  6 22  1  0  0  0
  6 43  1  0  0  0
  8 17  2  0  0  0
  8 18  1  0  0  0
 11 20  1  0  0  0
 11 21  2  0  0  0
 12 23  1  0  0  0
 12 26  1  0  0  0
 12 34  2  0  0  0
 13 16  1  0  0  0
 13 14  1  0  0  0
 14 19  2  0  0  0
 14 36  1  0  0  0
 15 26  2  0  0  0
 15 35  1  0  0  0
 16 44  1  0  0  0
 16 45  1  0  0  0
 17 21  1  0  0  0
 17 46  1  0  0  0
 18 20  2  0  0  0
 18 47  1  0  0  0
 19 27  1  0  0  0
 19 37  1  0  0  0
 20 48  1  0  0  0
 21 49  1  0  0  0
 22 28  2  0  0  0
 22 29  1  0  0  0
 23 33  1  0  0  0
 23 32  1  0  0  0
 23 50  1  0  0  0
 24 38  1  0  0  0
 24 33  1  0  0  0
 24 51  1  0  0  0
 25 31  1  0  0  0
 25 39  1  0  0  0
 25 30  2  0  0  0
 26 52  1  0  0  0
 27 53  1  0  0  0
 28 30  1  0  0  0
 28 54  1  0  0  0
 29 31  2  0  0  0
 29 55  1  0  0  0
 30 56  1  0  0  0
 31 57  1  0  0  0
 32 58  1  0  0  0
 33 59  1  0  0  0
 33 60  1  0  0  0
 34 40  1  0  0  0
 34 61  1  0  0  0
 35 40  2  0  0  0
 35 62  1  0  0  0
 36 42  2  0  0  0
 36 63  1  0  0  0
 37 41  2  0  0  0
 37 64  1  0  0  0
 38 39  1  0  0  0
 38 65  1  0  0  0
 38 66  1  0  0  0
 39 67  1  0  0  0
 39 68  1  0  0  0
 40 69  1  0  0  0
 41 42  1  0  0  0
 41 70  1  0  0  0
 42 71  1  0  0  0
M  END
> <s_m_entry_id>
3304

> <s_m_entry_name>
dock_pv.396

> <s_m_Source_Path>
/home/csk/Desktop/cluster/DUD-E-result/adrb1

> <s_m_Source_File>
dock_pv.maegz

> <i_m_Source_File_Index>
396

> <chembl_id>
CHEMBL286231

> <chembl_pref_name>
None

> <i_lp_mmshare_version>
53161

> <i_f3d_flags>
0

> <r_lp_tautomer_probability>
1

> <s_lp_Force_Field>
OPLS_2005

> <r_lp_Energy>
32.273987

> <b_lp_Chiralities_Consistent>
1

> <s_lp_Variant>
CHEMBL213_lig286-1

> <s_i_glide_gridfile>
glide-grid_2vt4

> <i_i_glide_lignum>
325

> <i_i_glide_rotatable_bonds>
15

> <r_i_docking_score>
-6.99126618623609

> <r_i_glide_ligand_efficiency>
-0.166458718719907

> <r_i_glide_ligand_efficiency_sa>
-0.578614940823165

> <r_i_glide_ligand_efficiency_ln>
-1.47567617616386

> <r_i_glide_gscore>
-6.99126618623609

> <r_i_glide_lipo>
-3.26453343114816

> <r_i_glide_hbond>
-0.608

> <r_i_glide_metal>
0

> <r_i_glide_rewards>
-0.601897433870271

> <r_i_glide_evdw>
-35.4567108154297

> <r_i_glide_ecoul>
-9.10182285308838

> <r_i_glide_erotb>
0.621273647517086

> <r_i_glide_esite>
0

> <r_i_glide_emodel>
-43.2724285085892

> <r_i_glide_energy>
-44.5585336685181

> <r_i_glide_einternal>
11.5527429580688

> <i_i_glide_confnum>
18

> <i_i_glide_posenum>
74

> <r_i_glide_eff_state_penalty>
0

> <s_user_duplicate_titles>
CHEMBL213_lig286

> <s_m_subgroup_title>
dock_pv

> <s_m_subgroupid>
dock_pv

> <b_m_subgroup_collapsed>
1

$$$$
CHEMBL213_lig230
                    3D
 Schrodinger Suite 2021-1.
 57 59  0  0  1  0            999 V2000
   29.7884    5.1541   -3.6100 S   0  0  0  0  0  0
   30.1986    3.9649   -4.9001 C   0  0  0  0  0  0
   29.9741    4.2359   -2.1099 N   0  0  0  0  0  0
   28.3541    5.4331   -3.7278 O   0  0  0  0  0  0
   30.7621    6.2500   -3.6097 O   0  0  0  0  0  0
   31.4164    3.9385   -5.6090 C   0  0  0  0  0  0
   30.7619    4.6811   -1.0446 C   0  0  0  0  0  0
   27.9455    5.8495    2.8531 O   0  0  0  0  0  0
   26.8583    5.1992    2.3093 C   0  0  0  0  0  0
   29.0624    6.9962    4.6241 C   0  0  1  0  0  0
   32.7196    5.0375   -5.3166 Cl  0  0  0  0  0  0
   24.8090    3.8424    1.0000 C   0  0  0  0  0  0
   28.2888    5.7234    4.2355 C   0  0  0  0  0  0
   31.5853    6.6500    4.2376 N   0  0  2  0  0  0
   29.2184    3.0064   -5.1920 C   0  0  0  0  0  0
   32.2825    5.5039    1.1778 C   0  0  0  0  0  0
   30.2089    4.6752    0.2342 C   0  0  0  0  0  0
   32.0964    5.0566   -1.2132 C   0  0  0  0  0  0
   25.8574    4.5522    3.0487 C   0  0  0  0  0  0
   26.7817    5.2066    0.9143 C   0  0  0  0  0  0
   24.8415    3.8654    2.3899 C   0  0  0  0  0  0
   25.7728    4.5132    0.2532 C   0  0  0  0  0  0
   30.9684    5.0520    1.3422 C   0  0  0  0  0  0
   32.8447    5.4774   -0.1097 C   0  0  0  0  0  0
   29.3978    7.0500    5.9850 O   0  0  0  0  0  0
   23.8080    3.1497    0.3851 O   0  0  0  0  0  0
   30.3378    7.2683    3.8171 C   0  0  0  0  0  0
   31.6116    2.9772   -6.6036 C   0  0  0  0  0  0
   32.6774    7.0345    3.3386 C   0  0  0  0  0  0
   33.1599    5.9137    2.3823 C   0  0  0  0  0  0
   29.4270    2.0487   -6.1821 C   0  0  0  0  0  0
   30.6242    2.0370   -6.8932 C   0  0  0  0  0  0
   29.1167    3.7711   -1.8458 H   0  0  0  0  0  0
   28.3914    7.8377    4.4436 H   0  0  0  0  0  0
   27.4240    5.6547    4.8933 H   0  0  0  0  0  0
   28.8882    4.8248    4.3773 H   0  0  0  0  0  0
   31.4889    5.6350    4.2866 H   0  0  0  0  0  0
   28.2813    3.0011   -4.6504 H   0  0  0  0  0  0
   29.1990    4.3382    0.3772 H   0  0  0  0  0  0
   32.5544    5.0315   -2.1914 H   0  0  0  0  0  0
   25.8565    4.5385    4.1249 H   0  0  0  0  0  0
   27.5167    5.7467    0.3365 H   0  0  0  0  0  0
   24.0776    3.3499    2.9521 H   0  0  0  0  0  0
   25.7350    4.5068   -0.8267 H   0  0  0  0  0  0
   30.5312    4.9759    2.3249 H   0  0  0  0  0  0
   33.8715    5.7778   -0.2605 H   0  0  0  0  0  0
   30.2746    7.4500    6.0238 H   0  0  0  0  0  0
   23.6386    3.3631   -0.5536 H   0  0  0  0  0  0
   30.1472    7.0639    2.7828 H   0  0  0  0  0  0
   30.5271    8.3116    3.8956 H   0  0  0  0  0  0
   32.5414    2.9583   -7.1535 H   0  0  0  0  0  0
   32.3913    7.9129    2.7641 H   0  0  0  0  0  0
   33.5209    7.3739    3.9428 H   0  0  0  0  0  0
   34.1207    6.2441    1.9870 H   0  0  0  0  0  0
   33.4072    5.0510    2.9915 H   0  0  0  0  0  0
   28.6568    1.3220   -6.3951 H   0  0  0  0  0  0
   30.7913    1.2998   -7.6642 H   0  0  0  0  0  0
  1  2  1  0  0  0
  1  3  1  0  0  0
  1  4  2  0  0  0
  1  5  2  0  0  0
  2  6  2  0  0  0
  2 15  1  0  0  0
  3  7  1  0  0  0
  3 33  1  0  0  0
  6 11  1  0  0  0
  6 28  1  0  0  0
  7 17  2  0  0  0
  7 18  1  0  0  0
  8 13  1  0  0  0
  8  9  1  0  0  0
  9 19  1  0  0  0
  9 20  2  0  0  0
 10 27  1  0  0  0
 10 13  1  0  0  0
 10 25  1  0  0  0
 10 34  1  0  0  0
 12 22  2  0  0  0
 12 26  1  0  0  0
 12 21  1  0  0  0
 13 35  1  0  0  0
 13 36  1  0  0  0
 14 29  1  0  0  0
 14 27  1  0  0  0
 14 37  1  0  0  0
 15 31  2  0  0  0
 15 38  1  0  0  0
 16 24  1  0  0  0
 16 30  1  0  0  0
 16 23  2  0  0  0
 17 23  1  0  0  0
 17 39  1  0  0  0
 18 24  2  0  0  0
 18 40  1  0  0  0
 19 21  2  0  0  0
 19 41  1  0  0  0
 20 22  1  0  0  0
 20 42  1  0  0  0
 21 43  1  0  0  0
 22 44  1  0  0  0
 23 45  1  0  0  0
 24 46  1  0  0  0
 25 47  1  0  0  0
 26 48  1  0  0  0
 27 49  1  0  0  0
 27 50  1  0  0  0
 28 32  2  0  0  0
 28 51  1  0  0  0
 29 30  1  0  0  0
 29 52  1  0  0  0
 29 53  1  0  0  0
 30 54  1  0  0  0
 30 55  1  0  0  0
 31 32  1  0  0  0
 31 56  1  0  0  0
 32 57  1  0  0  0
M  END
> <s_m_entry_id>
3305

> <s_m_entry_name>
dock_pv.397

> <s_m_Source_Path>
/home/csk/Desktop/cluster/DUD-E-result/adrb1

> <s_m_Source_File>
dock_pv.maegz

> <i_m_Source_File_Index>
397

> <chembl_id>
CHEMBL267306

> <chembl_pref_name>
None

> <i_lp_mmshare_version>
53161

> <i_f3d_flags>
0

> <r_lp_tautomer_probability>
1

> <s_lp_Force_Field>
OPLS_2005

> <r_lp_Energy>
24.851572

> <b_lp_Chiralities_Consistent>
1

> <s_lp_Variant>
CHEMBL213_lig230-1

> <s_i_glide_gridfile>
glide-grid_2vt4

> <i_i_glide_lignum>
265

> <i_i_glide_rotatable_bonds>
13

> <r_i_docking_score>
-6.98990437438879

> <r_i_glide_ligand_efficiency>
-0.21843451169965

> <r_i_glide_ligand_efficiency_sa>
-0.693486346515221

> <r_i_glide_ligand_efficiency_ln>
-1.56523012702264

> <r_i_glide_gscore>
-6.98990437438879

> <r_i_glide_lipo>
-3.36677992353211

> <r_i_glide_hbond>
-0.751021062804844

> <r_i_glide_metal>
0

> <r_i_glide_rewards>
-0.0697701869502563

> <r_i_glide_evdw>
-38.7618255615234

> <r_i_glide_ecoul>
-11.8946294784546

> <r_i_glide_erotb>
0.979283234142283

> <r_i_glide_esite>
-0.0593307353994946

> <r_i_glide_emodel>
-60.5022405943094

> <r_i_glide_energy>
-50.656455039978

> <r_i_glide_einternal>
24.8177394866943

> <i_i_glide_confnum>
51

> <i_i_glide_posenum>
24

> <r_i_glide_eff_state_penalty>
0

> <s_user_duplicate_titles>
CHEMBL213_lig230,11280

> <s_m_subgroup_title>
dock_pv

> <s_m_subgroupid>
dock_pv

> <b_m_subgroup_collapsed>
1

$$$$
CHEMBL213_lig443
                    3D
 Schrodinger Suite 2021-1.
 45 46  0  0  1  0            999 V2000
   29.1408    2.1938   -5.6102 C   0  0  0  0  0  0
   30.3009    2.1240   -6.3937 C   0  0  0  0  0  0
   28.9063    3.3161   -4.8152 C   0  0  0  0  0  0
   31.2192    3.1748   -6.3627 C   0  0  0  0  0  0
   29.8075    4.3903   -4.8090 C   0  0  0  0  0  0
   28.2574    5.0242   -2.0496 N   0  0  1  0  0  0
   27.7815    6.3959    4.7898 C   0  0  0  0  0  0
   26.9503    5.0493    2.4783 C   0  0  0  0  0  0
   28.2083    1.1885   -5.6214 O   0  0  0  0  0  0
   30.9709    4.3015   -5.5790 C   0  0  0  0  0  0
   30.5457    1.0500   -7.2132 O   0  0  0  0  0  0
   26.4440    4.2644    1.2503 C   0  0  0  0  0  0
   28.7247    5.8533    3.9242 C   0  0  0  0  0  0
   26.4217    6.2647    4.5165 C   0  0  0  0  0  0
   28.3148    5.1799    2.7778 C   0  0  0  0  0  0
   26.0122    5.5816    3.3706 C   0  0  0  0  0  0
   28.2016    5.8120   -3.2778 C   0  0  0  0  0  0
   27.3802    4.1610    0.0085 C   0  0  0  0  0  0
   28.2087    7.0498    5.9155 O   0  0  0  0  0  0
   27.0784    5.0912   -1.1788 C   0  0  1  0  0  0
   29.5388    5.6880   -4.0433 C   0  0  0  0  0  0
   26.7843    6.5418   -0.7830 C   0  0  0  0  0  0
   27.9968    3.3543   -4.2363 H   0  0  0  0  0  0
   32.1167    3.1357   -6.9624 H   0  0  0  0  0  0
   28.4611    4.0546   -2.2644 H   0  0  0  0  0  0
   27.3784    1.4438   -5.2023 H   0  0  0  0  0  0
   31.6739    5.1220   -5.5932 H   0  0  0  0  0  0
   31.3728    1.1326   -7.6922 H   0  0  0  0  0  0
   26.2080    3.2565    1.5847 H   0  0  0  0  0  0
   25.4742    4.6492    0.9356 H   0  0  0  0  0  0
   29.7792    5.9443    4.1427 H   0  0  0  0  0  0
   25.6846    6.6731    5.1930 H   0  0  0  0  0  0
   29.0871    4.7546    2.1571 H   0  0  0  0  0  0
   24.9567    5.4574    3.1837 H   0  0  0  0  0  0
   27.3757    5.4518   -3.8930 H   0  0  0  0  0  0
   28.0110    6.8694   -3.0915 H   0  0  0  0  0  0
   28.4260    4.2544    0.2792 H   0  0  0  0  0  0
   27.2984    3.1415   -0.3759 H   0  0  0  0  0  0
   27.5206    7.5725    6.3552 H   0  0  0  0  0  0
   26.2091    4.6849   -1.6885 H   0  0  0  0  0  0
   29.5763    6.4990   -4.7724 H   0  0  0  0  0  0
   30.3711    5.8729   -3.3612 H   0  0  0  0  0  0
   26.0241    6.6169   -0.0136 H   0  0  0  0  0  0
   27.6758    7.0498   -0.4240 H   0  0  0  0  0  0
   26.3807    7.0565   -1.6487 H   0  0  0  0  0  0
  1  2  1  0  0  0
  1  3  2  0  0  0
  1  9  1  0  0  0
  2  4  2  0  0  0
  2 11  1  0  0  0
  3  5  1  0  0  0
  3 23  1  0  0  0
  4 10  1  0  0  0
  4 24  1  0  0  0
  5 10  2  0  0  0
  5 21  1  0  0  0
  6 17  1  0  0  0
  6 20  1  0  0  0
  6 25  1  0  0  0
  7 13  1  0  0  0
  7 19  1  0  0  0
  7 14  2  0  0  0
  8 12  1  0  0  0
  8 15  1  0  0  0
  8 16  2  0  0  0
  9 26  1  0  0  0
 10 27  1  0  0  0
 11 28  1  0  0  0
 12 18  1  0  0  0
 12 29  1  0  0  0
 12 30  1  0  0  0
 13 15  2  0  0  0
 13 31  1  0  0  0
 14 16  1  0  0  0
 14 32  1  0  0  0
 15 33  1  0  0  0
 16 34  1  0  0  0
 17 21  1  0  0  0
 17 35  1  0  0  0
 17 36  1  0  0  0
 18 20  1  0  0  0
 18 37  1  0  0  0
 18 38  1  0  0  0
 19 39  1  0  0  0
 20 22  1  0  0  0
 20 40  1  0  0  0
 21 41  1  0  0  0
 21 42  1  0  0  0
 22 43  1  0  0  0
 22 44  1  0  0  0
 22 45  1  0  0  0
M  END
> <s_m_entry_id>
3306

> <s_m_entry_name>
dock_pv.398

> <s_m_Source_Path>
/home/csk/Desktop/cluster/DUD-E-result/adrb1

> <s_m_Source_File>
dock_pv.maegz

> <i_m_Source_File_Index>
398

> <chembl_id>
CHEMBL926

> <chembl_pref_name>
DOBUTAMINE

> <i_lp_mmshare_version>
53161

> <i_f3d_flags>
0

> <r_lp_tautomer_probability>
0.999999999997141

> <s_lp_Force_Field>
OPLS_2005

> <r_lp_Energy>
15.119036

> <b_lp_Chiralities_Consistent>
1

> <s_lp_Variant>
CHEMBL213_lig443-1

> <s_i_glide_gridfile>
glide-grid_2vt4

> <i_i_glide_lignum>
524

> <i_i_glide_rotatable_bonds>
10

> <r_i_docking_score>
-6.98436756933751

> <r_i_glide_ligand_efficiency>
-0.317471253151705

> <r_i_glide_ligand_efficiency_sa>
-0.889566936766968

> <r_i_glide_ligand_efficiency_ln>
-1.70723419494317

> <r_i_glide_gscore>
-6.98436756933751

> <r_i_glide_lipo>
-2.67558614477964

> <r_i_glide_hbond>
-0.307977678313971

> <r_i_glide_metal>
0

> <r_i_glide_rewards>
-1.89405656226154

> <r_i_glide_evdw>
-32.9627532958984

> <r_i_glide_ecoul>
-12.5089330673218

> <r_i_glide_erotb>
1.41773044091082

> <r_i_glide_esite>
0

> <r_i_glide_emodel>
-60.7083734512747

> <r_i_glide_energy>
-45.4716863632202

> <r_i_glide_einternal>
7.97294759750366

> <i_i_glide_confnum>
16

> <i_i_glide_posenum>
8

> <r_i_glide_eff_state_penalty>
0

> <s_user_duplicate_titles>
CHEMBL213_lig443

> <s_m_subgroup_title>
dock_pv

> <s_m_subgroupid>
dock_pv

> <b_m_subgroup_collapsed>
1

$$$$
CHEMBL213_lig540
                    3D
 Schrodinger Suite 2021-1.
 66 69  0  0  1  0            999 V2000
   27.4571    7.8472    4.7850 N   0  0  0  0  0  0
   35.3372    3.7176   -8.4643 S   0  0  0  0  0  0
   26.1412    7.6883    4.6442 C   0  0  0  0  0  0
   28.1973    6.9198    5.3815 C   0  0  0  0  0  0
   25.6030    6.2585    5.5933 S   0  0  0  0  0  0
   32.9457    3.9300   -7.0596 C   0  0  0  0  0  0
   33.8106    4.4777   -8.0176 N   0  0  0  0  0  0
   27.3194    5.7207    5.7401 C   0  0  1  0  0  0
   26.7350    4.9471   -0.8047 N   0  0  0  0  0  0
   32.7639    4.6346   -5.8671 C   0  0  0  0  0  0
   31.8625    4.1822   -4.8951 C   0  0  0  0  0  0
   26.9372    4.9421    0.5561 C   0  0  0  0  0  0
   35.8961    4.5261   -9.5503 O   0  0  0  0  0  0
   35.0804    2.2854   -8.6463 O   0  0  0  0  0  0
   32.2044    2.7557   -7.2836 C   0  0  0  0  0  0
   25.4081    8.4114    3.9883 O   0  0  0  0  0  0
   29.4050    7.0058    5.5878 O   0  0  0  0  0  0
   27.3362    3.8559   -1.5826 C   0  0  0  0  0  0
   26.5891    6.2094   -1.5515 C   0  0  0  0  0  0
   27.5949    4.5285    4.7858 C   0  0  0  0  0  0
   29.3929    5.8502   -4.2059 N   0  0  2  0  0  0
   31.1115    3.0294   -5.1472 C   0  0  0  0  0  0
   31.2735    2.3290   -6.3397 C   0  0  0  0  0  0
   30.7291    6.1491   -3.6963 C   0  0  0  0  0  0
   28.6098    4.2766   -2.3484 C   0  0  0  0  0  0
   27.8445    6.6191   -2.3488 C   0  0  0  0  0  0
   31.6798    4.9351   -3.5765 C   0  0  2  0  0  0
   25.8681    4.6494    1.3971 C   0  0  0  0  0  0
   28.2087    5.1340    1.0887 C   0  0  0  0  0  0
   28.3402    5.4817   -3.2569 C   0  0  0  0  0  0
   27.3430    4.7632    3.3013 C   0  0  0  0  0  0
   36.3703    3.9756   -6.9174 C   0  0  0  0  0  0
   28.4167    5.0500    2.4604 C   0  0  0  0  0  0
   26.0596    4.5999    2.7714 C   0  0  0  0  0  0
   32.3629    1.9999   -8.4149 O   0  0  0  0  0  0
   32.9017    5.4271   -3.0534 O   0  0  0  0  0  0
   27.9167    8.6511    4.3971 H   0  0  0  0  0  0
   33.7906    5.4786   -8.1480 H   0  0  0  0  0  0
   27.4985    5.4587    6.7818 H   0  0  0  0  0  0
   33.3277    5.5404   -5.6941 H   0  0  0  0  0  0
   26.6080    3.4529   -2.2835 H   0  0  0  0  0  0
   27.5508    3.0502   -0.8754 H   0  0  0  0  0  0
   25.7545    6.1188   -2.2411 H   0  0  0  0  0  0
   26.3043    7.0061   -0.8618 H   0  0  0  0  0  0
   27.0103    3.6654    5.0743 H   0  0  0  0  0  0
   28.6080    4.1685    4.9010 H   0  0  0  0  0  0
   29.4320    5.1878   -4.9676 H   0  0  0  0  0  0
   30.4061    2.6593   -4.4186 H   0  0  0  0  0  0
   30.6971    1.4333   -6.5184 H   0  0  0  0  0  0
   30.6508    6.6500   -2.7395 H   0  0  0  0  0  0
   31.1688    6.8622   -4.3962 H   0  0  0  0  0  0
   28.9289    3.4503   -2.9768 H   0  0  0  0  0  0
   29.4300    4.4464   -1.6529 H   0  0  0  0  0  0
   28.6080    6.9741   -1.6615 H   0  0  0  0  0  0
   27.5910    7.4749   -2.9733 H   0  0  0  0  0  0
   31.3054    4.2400   -2.8264 H   0  0  0  0  0  0
   24.8880    4.4645    0.9799 H   0  0  0  0  0  0
   29.0441    5.3367    0.4363 H   0  0  0  0  0  0
   27.4900    5.2022   -3.8829 H   0  0  0  0  0  0
   37.3545    3.5401   -7.0786 H   0  0  0  0  0  0
   35.8755    3.4924   -6.0770 H   0  0  0  0  0  0
   36.4630    5.0471   -6.7346 H   0  0  0  0  0  0
   29.4140    5.1702    2.8604 H   0  0  0  0  0  0
   25.2237    4.3576    3.4110 H   0  0  0  0  0  0
   33.2046    2.1928   -8.8460 H   0  0  0  0  0  0
   33.4901    4.6826   -2.8981 H   0  0  0  0  0  0
  1  3  1  0  0  0
  1  4  1  0  0  0
  1 37  1  0  0  0
  2  7  1  0  0  0
  2 13  2  0  0  0
  2 14  2  0  0  0
  2 32  1  0  0  0
  3  5  1  0  0  0
  3 16  2  0  0  0
  4  8  1  0  0  0
  4 17  2  0  0  0
  5  8  1  0  0  0
  6 10  2  0  0  0
  6  7  1  0  0  0
  6 15  1  0  0  0
  7 38  1  0  0  0
  8 20  1  0  0  0
  8 39  1  0  0  0
  9 12  1  0  0  0
  9 18  1  0  0  0
  9 19  1  0  0  0
 10 11  1  0  0  0
 10 40  1  0  0  0
 11 27  1  0  0  0
 11 22  2  0  0  0
 12 28  1  0  0  0
 12 29  2  0  0  0
 15 23  2  0  0  0
 15 35  1  0  0  0
 18 25  1  0  0  0
 18 41  1  0  0  0
 18 42  1  0  0  0
 19 26  1  0  0  0
 19 43  1  0  0  0
 19 44  1  0  0  0
 20 31  1  0  0  0
 20 45  1  0  0  0
 20 46  1  0  0  0
 21 30  1  0  0  0
 21 24  1  0  0  0
 21 47  1  0  0  0
 22 23  1  0  0  0
 22 48  1  0  0  0
 23 49  1  0  0  0
 24 27  1  0  0  0
 24 50  1  0  0  0
 24 51  1  0  0  0
 25 30  1  0  0  0
 25 52  1  0  0  0
 25 53  1  0  0  0
 26 30  1  0  0  0
 26 54  1  0  0  0
 26 55  1  0  0  0
 27 36  1  0  0  0
 27 56  1  0  0  0
 28 34  2  0  0  0
 28 57  1  0  0  0
 29 33  1  0  0  0
 29 58  1  0  0  0
 30 59  1  0  0  0
 31 33  2  0  0  0
 31 34  1  0  0  0
 32 60  1  0  0  0
 32 61  1  0  0  0
 32 62  1  0  0  0
 33 63  1  0  0  0
 34 64  1  0  0  0
 35 65  1  0  0  0
 36 66  1  0  0  0
M  END
> <s_m_entry_id>
3307

> <s_m_entry_name>
dock_pv.399

> <s_m_Source_Path>
/home/csk/Desktop/cluster/DUD-E-result/adrb1

> <s_m_Source_File>
dock_pv.maegz

> <i_m_Source_File_Index>
399

> <chembl_id>
CHEMBL163262

> <chembl_pref_name>
None

> <i_lp_mmshare_version>
53161

> <i_f3d_flags>
0

> <r_lp_tautomer_probability>
0.999986600176988

> <s_lp_Force_Field>
OPLS_2005

> <r_lp_Energy>
36.937072

> <b_lp_Chiralities_Consistent>
1

> <s_lp_Variant>
CHEMBL213_lig540-1

> <s_i_glide_gridfile>
glide-grid_2vt4

> <i_i_glide_lignum>
633

> <i_i_glide_rotatable_bonds>
11

> <r_i_docking_score>
-6.98409227163763

> <r_i_glide_ligand_efficiency>
-0.194002563101045

> <r_i_glide_ligand_efficiency_sa>
-0.640582348693561

> <r_i_glide_ligand_efficiency_ln>
-1.52374024530378

> <r_i_glide_gscore>
-6.98409227163763

> <r_i_glide_lipo>
-2.64047378598842

> <r_i_glide_hbond>
-0.677653062220795

> <r_i_glide_metal>
0

> <r_i_glide_rewards>
-1.36311909423651

> <r_i_glide_evdw>
-37.7566566467285

> <r_i_glide_ecoul>
-6.04172849655151

> <r_i_glide_erotb>
0.577632893736711

> <r_i_glide_esite>
-0.0863871161094541

> <r_i_glide_emodel>
-49.6768979973299

> <r_i_glide_energy>
-43.79838514328

> <r_i_glide_einternal>
17.2661361694336

> <i_i_glide_confnum>
13

> <i_i_glide_posenum>
380

> <r_i_glide_eff_state_penalty>
0

> <s_user_duplicate_titles>
CHEMBL213_lig540

> <s_m_subgroup_title>
dock_pv

> <s_m_subgroupid>
dock_pv

> <b_m_subgroup_collapsed>
1

$$$$
CHEMBL213_lig997
                    3D
 Schrodinger Suite 2021-1.
 53 55  0  0  1  0            999 V2000
   33.4878    4.4108   -5.3315 C   0  0  0  0  0  0
   32.2946    4.3227   -6.0477 C   0  0  0  0  0  0
   31.0982    4.7825   -5.4935 C   0  0  0  0  0  0
   31.0594    5.3058   -4.1952 C   0  0  0  0  0  0
   34.6529    4.0279   -5.9470 O   0  0  0  0  0  0
   29.7734    5.9504   -3.6590 C   0  0  2  0  0  0
   28.5456    5.0124   -3.5528 C   0  0  0  0  0  0
   29.4075    7.0848   -4.4149 O   0  0  0  0  0  0
   28.5229    4.2501   -2.3040 N   0  0  1  0  0  0
   28.0806    4.8136   -1.0180 C   0  0  0  0  0  0
   27.0311    3.7582   -0.5234 C   0  0  0  0  0  0
   26.1890    3.9964    0.7415 C   0  0  0  0  0  0
   24.8950    3.4595    0.7866 C   0  0  0  0  0  0
   24.1066    3.5840    1.9300 C   0  0  0  0  0  0
   24.6011    4.2500    3.0484 C   0  0  0  0  0  0
   25.8869    4.7896    3.0281 C   0  0  0  0  0  0
   26.6724    4.6562    1.8796 C   0  0  0  0  0  0
   29.3906    4.8623   -0.1905 C   0  0  0  0  0  0
   27.4263    6.2148   -1.1307 C   0  0  0  0  0  0
   33.4676    4.9029   -4.0199 C   0  0  0  0  0  0
   32.2507    5.3134   -3.4559 C   0  0  0  0  0  0
   32.2647    5.8500   -2.1843 O   0  0  0  0  0  0
   33.2530    5.2857   -1.2985 C   0  0  0  0  0  0
   34.6750    5.2705   -1.9174 C   0  0  0  0  0  0
   34.6284    5.0489   -3.2454 N   0  0  0  0  0  0
   35.7130    5.4464   -1.2872 O   0  0  0  0  0  0
   26.4375    5.5147    4.2416 C   0  0  0  0  0  0
   32.3056    3.9463   -7.0606 H   0  0  0  0  0  0
   30.2062    4.7720   -6.0994 H   0  0  0  0  0  0
   35.4086    4.5701   -5.7049 H   0  0  0  0  0  0
   29.9752    6.3531   -2.6751 H   0  0  0  0  0  0
   28.5496    4.3154   -4.3913 H   0  0  0  0  0  0
   27.6049    5.5568   -3.6413 H   0  0  0  0  0  0
   28.5578    7.4108   -4.1057 H   0  0  0  0  0  0
   28.2107    3.2812   -2.4151 H   0  0  0  0  0  0
   27.4997    2.7815   -0.4150 H   0  0  0  0  0  0
   26.3066    3.6283   -1.3315 H   0  0  0  0  0  0
   24.4897    2.9397   -0.0707 H   0  0  0  0  0  0
   23.1100    3.1689    1.9491 H   0  0  0  0  0  0
   23.9812    4.3440    3.9276 H   0  0  0  0  0  0
   27.6633    5.0641    1.9080 H   0  0  0  0  0  0
   29.2910    5.3669    0.7642 H   0  0  0  0  0  0
   29.8070    3.8690   -0.0166 H   0  0  0  0  0  0
   30.1705    5.4182   -0.7068 H   0  0  0  0  0  0
   27.1281    6.5938   -0.1536 H   0  0  0  0  0  0
   28.0973    6.9562   -1.5609 H   0  0  0  0  0  0
   26.5287    6.1865   -1.7496 H   0  0  0  0  0  0
   33.2669    5.7920   -0.3331 H   0  0  0  0  0  0
   33.0005    4.2377   -1.1519 H   0  0  0  0  0  0
   35.5392    4.9705   -3.6732 H   0  0  0  0  0  0
   27.3355    5.0119    4.6016 H   0  0  0  0  0  0
   26.7182    6.5339    3.9738 H   0  0  0  0  0  0
   25.7161    5.5624    5.0581 H   0  0  0  0  0  0
  1  2  1  0  0  0
  1  5  1  0  0  0
  1 20  2  0  0  0
  2  3  2  0  0  0
  2 28  1  0  0  0
  3  4  1  0  0  0
  3 29  1  0  0  0
  4  6  1  0  0  0
  4 21  2  0  0  0
  5 30  1  0  0  0
  6  7  1  0  0  0
  6  8  1  0  0  0
  6 31  1  0  0  0
  7  9  1  0  0  0
  7 32  1  0  0  0
  7 33  1  0  0  0
  8 34  1  0  0  0
  9 10  1  0  0  0
  9 35  1  0  0  0
 10 18  1  0  0  0
 10 19  1  0  0  0
 10 11  1  0  0  0
 11 12  1  0  0  0
 11 36  1  0  0  0
 11 37  1  0  0  0
 12 13  2  0  0  0
 12 17  1  0  0  0
 13 14  1  0  0  0
 13 38  1  0  0  0
 14 15  2  0  0  0
 14 39  1  0  0  0
 15 16  1  0  0  0
 15 40  1  0  0  0
 16 17  2  0  0  0
 16 27  1  0  0  0
 17 41  1  0  0  0
 18 42  1  0  0  0
 18 43  1  0  0  0
 18 44  1  0  0  0
 19 45  1  0  0  0
 19 46  1  0  0  0
 19 47  1  0  0  0
 20 21  1  0  0  0
 20 25  1  0  0  0
 21 22  1  0  0  0
 22 23  1  0  0  0
 23 24  1  0  0  0
 23 48  1  0  0  0
 23 49  1  0  0  0
 24 25  1  0  0  0
 24 26  2  0  0  0
 25 50  1  0  0  0
 27 51  1  0  0  0
 27 52  1  0  0  0
 27 53  1  0  0  0
M  END
> <s_m_entry_id>
3308

> <s_m_entry_name>
dock_pv.400

> <s_m_Source_Path>
/home/csk/Desktop/cluster/DUD-E-result/adrb1

> <s_m_Source_File>
dock_pv.maegz

> <i_m_Source_File_Index>
400

> <chembl_id>
CHEMBL567833

> <chembl_pref_name>
None

> <i_lp_mmshare_version>
53161

> <i_f3d_flags>
0

> <r_lp_tautomer_probability>
1

> <s_lp_Force_Field>
OPLS_2005

> <r_lp_Energy>
26.609755

> <b_lp_Chiralities_Consistent>
1

> <s_lp_Variant>
CHEMBL213_lig997-1

> <s_i_glide_gridfile>
glide-grid_2vt4

> <i_i_glide_lignum>
1113

> <i_i_glide_rotatable_bonds>
8

> <r_i_docking_score>
-6.983584176116

> <r_i_glide_ligand_efficiency>
-0.258651265782074

> <r_i_glide_ligand_efficiency_sa>
-0.77595379649375

> <r_i_glide_ligand_efficiency_ln>
-1.6256632628165

> <r_i_glide_gscore>
-6.983584176116

> <r_i_glide_lipo>
-2.73502479660187

> <r_i_glide_hbond>
-0.608

> <r_i_glide_metal>
0

> <r_i_glide_rewards>
-1.6211129143837

> <r_i_glide_evdw>
-38.9765472412109

> <r_i_glide_ecoul>
-6.07357931137085

> <r_i_glide_erotb>
0.843510966964976

> <r_i_glide_esite>
-0.00309317332923088

> <r_i_glide_emodel>
-57.8335977962532

> <r_i_glide_energy>
-45.0501265525818

> <r_i_glide_einternal>
10.6779584884644

> <i_i_glide_confnum>
75

> <i_i_glide_posenum>
349

> <r_i_glide_eff_state_penalty>
0

> <s_user_duplicate_titles>
CHEMBL213_lig997,573772

> <s_m_subgroup_title>
dock_pv

> <s_m_subgroupid>
dock_pv

> <b_m_subgroup_collapsed>
1

$$$$
CHEMBL213_lig183
                    3D
 Schrodinger Suite 2021-1.
 56 58  0  0  1  0            999 V2000
   32.1719    3.4579   -4.9454 C   0  0  0  0  0  0
   31.9844    4.0034   -3.7224 N   0  0  0  0  0  0
   33.2433    3.4496   -5.5528 O   0  0  0  0  0  0
   30.9377    2.8524   -5.5827 C   0  0  0  0  0  0
   32.9066    4.6043   -2.8466 C   0  0  0  0  0  0
   30.9816    7.0503    4.4113 O   0  0  0  0  0  0
   29.6706    6.6495    4.2345 C   0  0  0  0  0  0
   33.3850    6.8278    4.0912 C   0  0  1  0  0  0
   26.9926    5.8471    4.0926 C   0  0  0  0  0  0
   31.9836    6.6595    3.4669 C   0  0  0  0  0  0
   34.6840    5.5834    2.3085 N   0  0  2  0  0  0
   34.5672    5.8165   -0.9468 C   0  0  0  0  0  0
   34.2887    4.7081   -3.0785 C   0  0  0  0  0  0
   32.3700    5.1122   -1.6631 C   0  0  0  0  0  0
   29.2223    5.8357    3.1816 C   0  0  0  0  0  0
   28.7531    7.0630    5.2006 C   0  0  0  0  0  0
   27.8869    5.4402    3.1064 C   0  0  0  0  0  0
   27.4228    6.6527    5.1418 C   0  0  0  0  0  0
   35.1109    5.3086   -2.1280 C   0  0  0  0  0  0
   33.1951    5.7215   -0.7192 C   0  0  0  0  0  0
   33.5897    5.8510    5.1021 O   0  0  0  0  0  0
   25.6835    5.4536    4.0308 O   0  0  0  0  0  0
   34.5470    6.8292    3.0672 C   0  0  0  0  0  0
   30.9046    2.6501   -6.9729 C   0  0  0  0  0  0
   29.8137    2.4860   -4.8154 C   0  0  0  0  0  0
   35.7748    5.6373    1.3368 C   0  0  0  0  0  0
   35.4687    6.4927    0.0825 C   0  0  0  0  0  0
   28.6790    1.9672   -5.4355 C   0  0  0  0  0  0
   29.7647    2.1370   -7.5848 C   0  0  0  0  0  0
   28.6537    1.8017   -6.8186 C   0  0  0  0  0  0
   31.0368    3.9805   -3.3797 H   0  0  0  0  0  0
   33.4203    7.7875    4.5989 H   0  0  0  0  0  0
   31.8752    5.6245    3.1420 H   0  0  0  0  0  0
   31.8807    7.2885    2.5798 H   0  0  0  0  0  0
   33.8233    5.3475    1.8365 H   0  0  0  0  0  0
   34.7558    4.3326   -3.9755 H   0  0  0  0  0  0
   31.3088    5.0446   -1.4632 H   0  0  0  0  0  0
   29.8909    5.4967    2.4055 H   0  0  0  0  0  0
   29.0758    7.7003    6.0101 H   0  0  0  0  0  0
   27.5609    4.8187    2.2883 H   0  0  0  0  0  0
   26.7224    6.9742    5.9028 H   0  0  0  0  0  0
   36.1739    5.3836   -2.3213 H   0  0  0  0  0  0
   32.7590    6.1282    0.1834 H   0  0  0  0  0  0
   32.9486    5.1433    4.9677 H   0  0  0  0  0  0
   25.4800    4.9671    3.2295 H   0  0  0  0  0  0
   34.3805    7.6670    2.3889 H   0  0  0  0  0  0
   35.4803    7.0364    3.5944 H   0  0  0  0  0  0
   31.7518    2.9201   -7.5889 H   0  0  0  0  0  0
   29.7995    2.5989   -3.7400 H   0  0  0  0  0  0
   36.7240    5.9198    1.7950 H   0  0  0  0  0  0
   35.9214    4.6086    1.0014 H   0  0  0  0  0  0
   35.0310    7.4525    0.3472 H   0  0  0  0  0  0
   36.4152    6.7484   -0.3998 H   0  0  0  0  0  0
   27.8123    1.6999   -4.8444 H   0  0  0  0  0  0
   29.7359    2.0255   -8.6589 H   0  0  0  0  0  0
   27.7689    1.4176   -7.3009 H   0  0  0  0  0  0
  1  2  1  0  0  0
  1  3  2  0  0  0
  1  4  1  0  0  0
  2  5  1  0  0  0
  2 31  1  0  0  0
  4 24  2  0  0  0
  4 25  1  0  0  0
  5 13  2  0  0  0
  5 14  1  0  0  0
  6 10  1  0  0  0
  6  7  1  0  0  0
  7 15  1  0  0  0
  7 16  2  0  0  0
  8 23  1  0  0  0
  8 10  1  0  0  0
  8 21  1  0  0  0
  8 32  1  0  0  0
  9 18  2  0  0  0
  9 22  1  0  0  0
  9 17  1  0  0  0
 10 33  1  0  0  0
 10 34  1  0  0  0
 11 26  1  0  0  0
 11 23  1  0  0  0
 11 35  1  0  0  0
 12 20  1  0  0  0
 12 27  1  0  0  0
 12 19  2  0  0  0
 13 19  1  0  0  0
 13 36  1  0  0  0
 14 20  2  0  0  0
 14 37  1  0  0  0
 15 17  2  0  0  0
 15 38  1  0  0  0
 16 18  1  0  0  0
 16 39  1  0  0  0
 17 40  1  0  0  0
 18 41  1  0  0  0
 19 42  1  0  0  0
 20 43  1  0  0  0
 21 44  1  0  0  0
 22 45  1  0  0  0
 23 46  1  0  0  0
 23 47  1  0  0  0
 24 29  1  0  0  0
 24 48  1  0  0  0
 25 28  2  0  0  0
 25 49  1  0  0  0
 26 27  1  0  0  0
 26 50  1  0  0  0
 26 51  1  0  0  0
 27 52  1  0  0  0
 27 53  1  0  0  0
 28 30  1  0  0  0
 28 54  1  0  0  0
 29 30  2  0  0  0
 29 55  1  0  0  0
 30 56  1  0  0  0
M  END
> <s_m_entry_id>
3309

> <s_m_entry_name>
dock_pv.401

> <s_m_Source_Path>
/home/csk/Desktop/cluster/DUD-E-result/adrb1

> <s_m_Source_File>
dock_pv.maegz

> <i_m_Source_File_Index>
401

> <chembl_id>
CHEMBL276659

> <chembl_pref_name>
None

> <i_lp_mmshare_version>
53161

> <i_f3d_flags>
0

> <r_lp_tautomer_probability>
1

> <s_lp_Force_Field>
OPLS_2005

> <r_lp_Energy>
35.515693

> <b_lp_Chiralities_Consistent>
1

> <s_lp_Variant>
CHEMBL213_lig183-1

> <s_i_glide_gridfile>
glide-grid_2vt4

> <i_i_glide_lignum>
218

> <i_i_glide_rotatable_bonds>
13

> <r_i_docking_score>
-6.98273343112326

> <r_i_glide_ligand_efficiency>
-0.232757781037442

> <r_i_glide_ligand_efficiency_sa>
-0.723232542433279

> <r_i_glide_ligand_efficiency_ln>
-1.58655311852571

> <r_i_glide_gscore>
-6.98273343112326

> <r_i_glide_lipo>
-3.4508190274164

> <r_i_glide_hbond>
0

> <r_i_glide_metal>
0

> <r_i_glide_rewards>
-1.24828062339078

> <r_i_glide_evdw>
-48.735481262207

> <r_i_glide_ecoul>
-7.70630884170532

> <r_i_glide_erotb>
1.30908660905006

> <r_i_glide_esite>
0

> <r_i_glide_emodel>
-78.6735507537623

> <r_i_glide_energy>
-56.4417901039124

> <r_i_glide_einternal>
4.57016038894653

> <i_i_glide_confnum>
121

> <i_i_glide_posenum>
186

> <r_i_glide_eff_state_penalty>
0

> <s_user_duplicate_titles>
CHEMBL213_lig183,11545

> <s_m_subgroup_title>
dock_pv

> <s_m_subgroupid>
dock_pv

> <b_m_subgroup_collapsed>
1

$$$$
CHEMBL213_lig1496
                    3D
 Schrodinger Suite 2021-1.
 54 57  0  0  1  0            999 V2000
   24.1977    3.6696    1.7923 C   0  0  0  0  0  0
   23.6335    3.9936    3.0225 C   0  0  0  0  0  0
   24.3865    4.6500    3.9953 C   0  0  0  0  0  0
   25.5322    3.9890    1.5135 C   0  0  0  0  0  0
   26.2835    4.6501    2.5075 C   0  0  0  0  0  0
   25.7107    4.9863    3.7286 C   0  0  0  0  0  0
   26.5750    5.6535    4.5811 N   0  0  0  0  0  0
   27.8681    5.8536    4.1578 C   0  0  0  0  0  0
   27.9779    5.1381    2.4807 S   0  0  0  0  0  0
   26.1552    3.5861    0.1748 C   0  0  2  0  0  0
   26.6095    4.7999   -0.6718 C   0  0  0  0  0  0
   25.4079    2.6548   -0.5919 O   0  0  0  0  0  0
   27.8383    4.5074   -1.4087 N   0  0  2  0  0  0
   28.3784    5.6390   -2.1598 C   0  0  1  0  0  0
   29.5556    5.3412   -3.1282 C   0  0  2  0  0  0
   29.4953    6.4811   -4.1824 C   0  0  0  0  0  0
   28.2838    7.3579   -3.8387 C   0  0  0  0  0  0
   27.3857    6.4693   -2.9841 C   0  0  0  0  0  0
   28.7801    6.4074    4.7662 O   0  0  0  0  0  0
   23.8085    5.0454    5.1851 O   0  0  0  0  0  0
   29.6433    3.9032   -3.7440 C   0  0  0  0  0  0
   28.3517    3.4135   -4.4637 C   0  0  0  0  0  0
   28.4948    2.0450   -5.1662 C   0  0  0  0  0  0
   29.7398    1.9626   -6.0616 C   0  0  0  0  0  0
   31.0078    2.3372   -5.2808 C   0  0  0  0  0  0
   30.8936    3.7351   -4.6505 C   0  0  0  0  0  0
   23.5856    3.1644    1.0585 H   0  0  0  0  0  0
   22.6071    3.7396    3.2167 H   0  0  0  0  0  0
   26.2765    5.9953    5.4827 H   0  0  0  0  0  0
   27.0093    3.0093    0.4790 H   0  0  0  0  0  0
   25.8066    5.1241   -1.3293 H   0  0  0  0  0  0
   26.8218    5.6458   -0.0185 H   0  0  0  0  0  0
   24.7790    3.1312   -1.1539 H   0  0  0  0  0  0
   27.7733    3.6604   -1.9683 H   0  0  0  0  0  0
   28.7648    6.3009   -1.3815 H   0  0  0  0  0  0
   30.4718    5.4694   -2.5487 H   0  0  0  0  0  0
   29.3924    6.0945   -5.1958 H   0  0  0  0  0  0
   30.4113    7.0737   -4.1814 H   0  0  0  0  0  0
   27.7673    7.7423   -4.7171 H   0  0  0  0  0  0
   28.6060    8.2287   -3.2691 H   0  0  0  0  0  0
   26.7711    5.8283   -3.6176 H   0  0  0  0  0  0
   26.7093    7.0500   -2.3595 H   0  0  0  0  0  0
   22.8633    4.8743    5.2134 H   0  0  0  0  0  0
   29.8085    3.1956   -2.9293 H   0  0  0  0  0  0
   27.4982    3.3992   -3.7869 H   0  0  0  0  0  0
   28.0653    4.1363   -5.2146 H   0  0  0  0  0  0
   28.5465    1.2566   -4.4155 H   0  0  0  0  0  0
   27.6042    1.8393   -5.7602 H   0  0  0  0  0  0
   29.8376    0.9564   -6.4708 H   0  0  0  0  0  0
   29.6225    2.6322   -6.9155 H   0  0  0  0  0  0
   31.1866    1.5997   -4.4953 H   0  0  0  0  0  0
   31.8696    2.3072   -5.9477 H   0  0  0  0  0  0
   30.8779    4.4692   -5.4556 H   0  0  0  0  0  0
   31.7962    3.9662   -4.0823 H   0  0  0  0  0  0
  1  2  2  0  0  0
  1  4  1  0  0  0
  1 27  1  0  0  0
  2  3  1  0  0  0
  2 28  1  0  0  0
  3  6  2  0  0  0
  3 20  1  0  0  0
  4  5  2  0  0  0
  4 10  1  0  0  0
  5  6  1  0  0  0
  5  9  1  0  0  0
  6  7  1  0  0  0
  7  8  1  0  0  0
  7 29  1  0  0  0
  8  9  1  0  0  0
  8 19  2  0  0  0
 10 11  1  0  0  0
 10 12  1  0  0  0
 10 30  1  0  0  0
 11 13  1  0  0  0
 11 31  1  0  0  0
 11 32  1  0  0  0
 12 33  1  0  0  0
 13 14  1  0  0  0
 13 34  1  0  0  0
 14 15  1  0  0  0
 14 18  1  0  0  0
 14 35  1  0  0  0
 15 16  1  0  0  0
 15 21  1  0  0  0
 15 36  1  0  0  0
 16 17  1  0  0  0
 16 37  1  0  0  0
 16 38  1  0  0  0
 17 18  1  0  0  0
 17 39  1  0  0  0
 17 40  1  0  0  0
 18 41  1  0  0  0
 18 42  1  0  0  0
 20 43  1  0  0  0
 21 22  1  0  0  0
 21 26  1  0  0  0
 21 44  1  0  0  0
 22 23  1  0  0  0
 22 45  1  0  0  0
 22 46  1  0  0  0
 23 24  1  0  0  0
 23 47  1  0  0  0
 23 48  1  0  0  0
 24 25  1  0  0  0
 24 49  1  0  0  0
 24 50  1  0  0  0
 25 26  1  0  0  0
 25 51  1  0  0  0
 25 52  1  0  0  0
 26 53  1  0  0  0
 26 54  1  0  0  0
M  END
> <s_m_entry_id>
3310

> <s_m_entry_name>
dock_pv.402

> <s_m_Source_Path>
/home/csk/Desktop/cluster/DUD-E-result/adrb1

> <s_m_Source_File>
dock_pv.maegz

> <i_m_Source_File_Index>
402

> <chembl_id>
CHEMBL3323655

> <chembl_pref_name>
None

> <i_lp_mmshare_version>
53161

> <i_f3d_flags>
0

> <r_lp_tautomer_probability>
1

> <s_lp_Force_Field>
OPLS_2005

> <r_lp_Energy>
56.429536

> <b_lp_Chiralities_Consistent>
1

> <s_lp_Variant>
CHEMBL213_lig1496-1

> <s_i_glide_gridfile>
glide-grid_2vt4

> <i_i_glide_lignum>
1844

> <i_i_glide_rotatable_bonds>
7

> <r_i_docking_score>
-6.98190718073977

> <r_i_glide_ligand_efficiency>
-0.268534891566914

> <r_i_glide_ligand_efficiency_sa>
-0.795533559633208

> <r_i_glide_ligand_efficiency_ln>
-1.63967799189069

> <r_i_glide_gscore>
-6.98190718073977

> <r_i_glide_lipo>
-2.7410580517996

> <r_i_glide_hbond>
-0.689285595243738

> <r_i_glide_metal>
0

> <r_i_glide_rewards>
-1.64857462433765

> <r_i_glide_evdw>
-30.909252166748

> <r_i_glide_ecoul>
-6.93536138534546

> <r_i_glide_erotb>
0.682777906780445

> <r_i_glide_esite>
0

> <r_i_glide_emodel>
-47.7806418745028

> <r_i_glide_energy>
-37.8446135520935

> <r_i_glide_einternal>
10.3505363464355

> <i_i_glide_confnum>
75

> <i_i_glide_posenum>
337

> <r_i_glide_eff_state_penalty>
0

> <s_user_duplicate_titles>
CHEMBL213_lig1496

> <s_m_subgroup_title>
dock_pv

> <s_m_subgroupid>
dock_pv

> <b_m_subgroup_collapsed>
1

$$$$
CHEMBL213_lig1311
                    3D
 Schrodinger Suite 2021-1.
 46 48  0  0  1  0            999 V2000
   29.2567    1.6700   -7.6012 C   0  0  0  0  0  0
   28.7882    1.2731   -6.3493 C   0  0  0  0  0  0
   29.5138    1.4112   -5.2147 N   0  0  0  0  0  0
   30.7317    1.9972   -5.3113 C   0  0  0  0  0  0
   31.2820    2.4560   -6.5163 C   0  0  0  0  0  0
   30.5248    2.2503   -7.6794 C   0  0  0  0  0  0
   32.6548    3.1581   -6.5350 C   0  0  2  0  0  0
   32.6480    4.5838   -5.9267 C   0  0  0  0  0  0
   33.2340    3.2341   -7.8270 O   0  0  0  0  0  0
   32.3388    4.5655   -4.4940 N   0  0  2  0  0  0
   31.3984    5.6080   -4.0887 C   0  0  0  0  0  0
   29.9902    5.4152   -4.7040 C   0  0  0  0  0  0
   29.0053    6.2141   -4.0625 O   0  0  0  0  0  0
   28.4516    5.8125   -2.8635 C   0  0  0  0  0  0
   27.4657    6.6493   -2.3555 C   0  0  0  0  0  0
   26.8773    6.3920   -1.1216 C   0  0  0  0  0  0
   27.2520    5.2609   -0.3965 C   0  0  0  0  0  0
   28.1899    4.3773   -0.9317 C   0  0  0  0  0  0
   28.8023    4.6552   -2.1523 C   0  0  0  0  0  0
   26.6111    5.0058    0.9189 C   0  0  0  0  0  0
   25.5935    4.0850    1.1508 C   0  0  0  0  0  0
   25.0256    4.2498    2.7848 S   0  0  0  0  0  0
   26.2308    5.4778    3.0442 C   0  0  0  0  0  0
   26.9578    5.7241    1.9760 N   0  0  0  0  0  0
   26.4128    6.2434    4.3460 C   0  0  0  0  0  0
   26.2026    7.5477    4.1700 F   0  0  0  0  0  0
   25.5620    5.8476    5.2933 F   0  0  0  0  0  0
   27.6469    6.0894    4.8271 F   0  0  0  0  0  0
   28.6500    1.5448   -8.4865 H   0  0  0  0  0  0
   27.8087    0.8389   -6.2301 H   0  0  0  0  0  0
   31.2669    2.1133   -4.3807 H   0  0  0  0  0  0
   30.8963    2.5756   -8.6391 H   0  0  0  0  0  0
   33.3548    2.5580   -5.9580 H   0  0  0  0  0  0
   33.6263    5.0558   -6.0419 H   0  0  0  0  0  0
   31.9557    5.2126   -6.4826 H   0  0  0  0  0  0
   34.0234    3.7804   -7.7828 H   0  0  0  0  0  0
   33.1938    4.6563   -3.9577 H   0  0  0  0  0  0
   31.3250    5.5804   -3.0012 H   0  0  0  0  0  0
   31.8064    6.5876   -4.3430 H   0  0  0  0  0  0
   29.9990    5.7260   -5.7478 H   0  0  0  0  0  0
   29.6791    4.3715   -4.7165 H   0  0  0  0  0  0
   27.1577    7.4863   -2.9535 H   0  0  0  0  0  0
   26.1196    7.0613   -0.7418 H   0  0  0  0  0  0
   28.4490    3.4689   -0.4151 H   0  0  0  0  0  0
   29.5336    3.9572   -2.5305 H   0  0  0  0  0  0
   25.1230    3.4060    0.4522 H   0  0  0  0  0  0
  1  6  1  0  0  0
  1  2  2  0  0  0
  1 29  1  0  0  0
  2  3  1  0  0  0
  2 30  1  0  0  0
  3  4  2  0  0  0
  4  5  1  0  0  0
  4 31  1  0  0  0
  5  7  1  0  0  0
  5  6  2  0  0  0
  6 32  1  0  0  0
  7  8  1  0  0  0
  7  9  1  0  0  0
  7 33  1  0  0  0
  8 10  1  0  0  0
  8 34  1  0  0  0
  8 35  1  0  0  0
  9 36  1  0  0  0
 10 11  1  0  0  0
 10 37  1  0  0  0
 11 12  1  0  0  0
 11 38  1  0  0  0
 11 39  1  0  0  0
 12 13  1  0  0  0
 12 40  1  0  0  0
 12 41  1  0  0  0
 13 14  1  0  0  0
 14 15  2  0  0  0
 14 19  1  0  0  0
 15 16  1  0  0  0
 15 42  1  0  0  0
 16 17  2  0  0  0
 16 43  1  0  0  0
 17 18  1  0  0  0
 17 20  1  0  0  0
 18 19  2  0  0  0
 18 44  1  0  0  0
 19 45  1  0  0  0
 20 21  2  0  0  0
 20 24  1  0  0  0
 21 22  1  0  0  0
 21 46  1  0  0  0
 22 23  1  0  0  0
 23 24  2  0  0  0
 23 25  1  0  0  0
 25 26  1  0  0  0
 25 27  1  0  0  0
 25 28  1  0  0  0
M  END
> <s_m_entry_id>
3311

> <s_m_entry_name>
dock_pv.403

> <s_m_Source_Path>
/home/csk/Desktop/cluster/DUD-E-result/adrb1

> <s_m_Source_File>
dock_pv.maegz

> <i_m_Source_File_Index>
403

> <chembl_id>
CHEMBL251600

> <chembl_pref_name>
None

> <i_lp_mmshare_version>
53161

> <i_f3d_flags>
0

> <r_lp_tautomer_probability>
1

> <s_lp_Force_Field>
OPLS_2005

> <r_lp_Energy>
23.988179

> <b_lp_Chiralities_Consistent>
1

> <s_lp_Variant>
CHEMBL213_lig1311-1

> <s_i_glide_gridfile>
glide-grid_2vt4

> <i_i_glide_lignum>
1563

> <i_i_glide_rotatable_bonds>
10

> <r_i_docking_score>
-6.98064454778293

> <r_i_glide_ligand_efficiency>
-0.24930873384939

> <r_i_glide_ligand_efficiency_sa>
-0.757048150958463

> <r_i_glide_ligand_efficiency_ln>
-1.61133772225832

> <r_i_glide_gscore>
-6.98064454778293

> <r_i_glide_lipo>
-3.12316765134052

> <r_i_glide_hbond>
0

> <r_i_glide_metal>
0

> <r_i_glide_rewards>
-2.44794776982229

> <r_i_glide_evdw>
-42.8767738342285

> <r_i_glide_ecoul>
-0.586308538913727

> <r_i_glide_erotb>
0.822255845928368

> <r_i_glide_esite>
0

> <r_i_glide_emodel>
-56.2601055045066

> <r_i_glide_energy>
-43.4630823731422

> <r_i_glide_einternal>
12.7951145172119

> <i_i_glide_confnum>
39

> <i_i_glide_posenum>
161

> <r_i_glide_eff_state_penalty>
0

> <s_user_duplicate_titles>
CHEMBL213_lig1311,417419

> <s_m_subgroup_title>
dock_pv

> <s_m_subgroupid>
dock_pv

> <b_m_subgroup_collapsed>
1

$$$$
CHEMBL213_lig1391
                    3D
 Schrodinger Suite 2021-1.
 51 54  0  0  1  0            999 V2000
   29.3345    6.2500   -3.6958 N   0  0  1  0  0  0
   28.8055    5.2736   -2.7482 C   0  0  0  0  0  0
   29.5732    5.2699   -1.4211 C   0  0  0  0  0  0
   29.0005    4.2854   -0.4150 C   0  0  0  0  0  0
   27.6142    4.6500   -0.0799 N   0  0  0  0  0  0
   26.7765    4.6049   -1.2885 C   0  0  0  0  0  0
   27.3299    5.5430   -2.3981 C   0  0  0  0  0  0
   27.1721    4.7792    1.2345 C   0  0  0  0  0  0
   28.0510    5.3348    2.1101 N   0  0  0  0  0  0
   27.6423    5.5339    3.3795 C   0  0  0  0  0  0
   26.4277    5.2439    3.8960 N   0  0  0  0  0  0
   25.9078    4.3623    1.6967 C   0  0  0  0  0  0
   25.5801    4.6501    3.0527 C   0  0  0  0  0  0
   24.2704    4.2500    3.3986 C   0  0  0  0  0  0
   23.6447    3.5805    2.3734 C   0  0  0  0  0  0
   24.6080    3.4500    0.9261 S   0  0  0  0  0  0
   30.3494    5.7877   -4.6495 C   0  0  0  0  0  0
   31.5839    5.0366   -4.0865 C   0  0  1  0  0  0
   32.5429    4.5076   -5.1937 C   0  0  0  0  0  0
   32.3517    5.8500   -3.2150 O   0  0  0  0  0  0
   31.9425    3.8409   -6.3126 O   0  0  0  0  0  0
   31.0783    2.7799   -6.1372 C   0  0  0  0  0  0
   30.9177    2.0891   -4.9334 C   0  0  0  0  0  0
   29.9373    1.1178   -4.8150 C   0  0  0  0  0  0
   29.1325    0.7970   -5.9034 C   0  0  0  0  0  0
   29.3318    1.4259   -7.1292 C   0  0  0  0  0  0
   30.3199    2.3988   -7.2428 C   0  0  0  0  0  0
   28.5735    6.7123   -4.1757 H   0  0  0  0  0  0
   28.8637    4.2688   -3.1726 H   0  0  0  0  0  0
   30.6333    5.0750   -1.5421 H   0  0  0  0  0  0
   29.4789    6.2500   -0.9737 H   0  0  0  0  0  0
   28.9993    3.2717   -0.8150 H   0  0  0  0  0  0
   29.6587    4.2674    0.4536 H   0  0  0  0  0  0
   26.6874    3.5758   -1.6410 H   0  0  0  0  0  0
   25.7744    4.9587   -1.0516 H   0  0  0  0  0  0
   27.1935    6.5693   -2.0523 H   0  0  0  0  0  0
   26.7221    5.4500   -3.2982 H   0  0  0  0  0  0
   28.3579    5.9905    4.0484 H   0  0  0  0  0  0
   23.8363    4.4248    4.3711 H   0  0  0  0  0  0
   22.6544    3.1514    2.3844 H   0  0  0  0  0  0
   30.6850    6.6500   -5.2156 H   0  0  0  0  0  0
   29.8372    5.1482   -5.3689 H   0  0  0  0  0  0
   31.2196    4.2091   -3.4898 H   0  0  0  0  0  0
   33.3062    3.8594   -4.7600 H   0  0  0  0  0  0
   33.0836    5.3518   -5.6257 H   0  0  0  0  0  0
   33.1043    5.3403   -2.9015 H   0  0  0  0  0  0
   31.5472    2.2755   -4.0797 H   0  0  0  0  0  0
   29.8080    0.6500   -3.8562 H   0  0  0  0  0  0
   28.3584    0.0506   -5.7958 H   0  0  0  0  0  0
   28.7205    1.1704   -7.9824 H   0  0  0  0  0  0
   30.4866    2.8852   -8.1900 H   0  0  0  0  0  0
  1 17  1  0  0  0
  1  2  1  0  0  0
  1 28  1  0  0  0
  2  3  1  0  0  0
  2  7  1  0  0  0
  2 29  1  0  0  0
  3  4  1  0  0  0
  3 30  1  0  0  0
  3 31  1  0  0  0
  4  5  1  0  0  0
  4 32  1  0  0  0
  4 33  1  0  0  0
  5  6  1  0  0  0
  5  8  1  0  0  0
  6  7  1  0  0  0
  6 34  1  0  0  0
  6 35  1  0  0  0
  7 36  1  0  0  0
  7 37  1  0  0  0
  8 12  1  0  0  0
  8  9  2  0  0  0
  9 10  1  0  0  0
 10 11  2  0  0  0
 10 38  1  0  0  0
 11 13  1  0  0  0
 12 13  2  0  0  0
 12 16  1  0  0  0
 13 14  1  0  0  0
 14 15  2  0  0  0
 14 39  1  0  0  0
 15 16  1  0  0  0
 15 40  1  0  0  0
 17 18  1  0  0  0
 17 41  1  0  0  0
 17 42  1  0  0  0
 18 19  1  0  0  0
 18 20  1  0  0  0
 18 43  1  0  0  0
 19 21  1  0  0  0
 19 44  1  0  0  0
 19 45  1  0  0  0
 20 46  1  0  0  0
 21 22  1  0  0  0
 22 23  2  0  0  0
 22 27  1  0  0  0
 23 24  1  0  0  0
 23 47  1  0  0  0
 24 25  2  0  0  0
 24 48  1  0  0  0
 25 26  1  0  0  0
 25 49  1  0  0  0
 26 27  2  0  0  0
 26 50  1  0  0  0
 27 51  1  0  0  0
M  END
> <s_m_entry_id>
3312

> <s_m_entry_name>
dock_pv.404

> <s_m_Source_Path>
/home/csk/Desktop/cluster/DUD-E-result/adrb1

> <s_m_Source_File>
dock_pv.maegz

> <i_m_Source_File_Index>
404

> <chembl_id>
CHEMBL1258599

> <chembl_pref_name>
None

> <i_lp_mmshare_version>
53161

> <i_f3d_flags>
0

> <r_lp_tautomer_probability>
1

> <s_lp_Force_Field>
OPLS_2005

> <r_lp_Energy>
32.946722

> <b_lp_Chiralities_Consistent>
1

> <s_lp_Variant>
CHEMBL213_lig1391-2

> <s_i_glide_gridfile>
glide-grid_2vt4

> <i_i_glide_lignum>
1686

> <i_i_glide_rotatable_bonds>
8

> <r_i_docking_score>
-6.97696845983721

> <r_i_glide_ligand_efficiency>
-0.25840623925323

> <r_i_glide_ligand_efficiency_sa>
-0.775218716908025

> <r_i_glide_ligand_efficiency_ln>
-1.6241232331354

> <r_i_glide_gscore>
-6.97696845983721

> <r_i_glide_lipo>
-2.90780938878857

> <r_i_glide_hbond>
-0.32

> <r_i_glide_metal>
0

> <r_i_glide_rewards>
-1.89082706461436

> <r_i_glide_evdw>
-37.1687393188477

> <r_i_glide_ecoul>
-5.26000261306763

> <r_i_glide_erotb>
0.789105351468247

> <r_i_glide_esite>
0

> <r_i_glide_emodel>
-57.9649160776031

> <r_i_glide_energy>
-42.4287419319153

> <r_i_glide_einternal>
4.01058101654053

> <i_i_glide_confnum>
18

> <i_i_glide_posenum>
357

> <r_i_glide_eff_state_penalty>
0

> <s_user_duplicate_titles>
CHEMBL213_lig1391

> <s_m_subgroup_title>
dock_pv

> <s_m_subgroupid>
dock_pv

> <b_m_subgroup_collapsed>
1

$$$$
CHEMBL213_lig955
                    3D
 Schrodinger Suite 2021-1.
 56 58  0  0  1  0            999 V2000
   26.5496    7.2690    5.1842 O   0  0  0  0  0  0
   27.7284    6.4822    5.2019 C   0  0  2  0  0  0
   28.9286    7.3165    4.7078 C   0  0  0  0  0  0
   30.1921    6.6500    4.9730 N   0  0  2  0  0  0
   31.3265    7.5310    4.7672 C   0  0  0  0  0  0
   32.6425    6.7428    4.6005 C   0  0  0  0  0  0
   32.9987    6.3367    3.1675 C   0  0  0  0  0  0
   34.3456    6.1725    2.8302 C   0  0  0  0  0  0
   34.7117    5.8496    1.5256 C   0  0  0  0  0  0
   33.7307    5.6809    0.5465 C   0  0  0  0  0  0
   32.3843    5.8381    0.8793 C   0  0  0  0  0  0
   32.0177    6.1535    2.1854 C   0  0  0  0  0  0
   34.2368    5.3277   -1.1396 S   0  0  0  0  0  0
   34.2081    6.5946   -1.8749 O   0  0  0  0  0  0
   35.4748    4.5483   -1.0486 O   0  0  0  0  0  0
   33.0322    4.2499   -1.8754 N   0  0  0  0  0  0
   31.8182    4.6779   -2.4208 C   0  0  0  0  0  0
   31.8134    5.4553   -3.5770 C   0  0  0  0  0  0
   30.6057    5.8513   -4.1476 C   0  0  0  0  0  0
   29.4038    5.4520   -3.5660 C   0  0  0  0  0  0
   29.4018    4.6500   -2.4268 C   0  0  0  0  0  0
   30.6117    4.2517   -1.8611 C   0  0  0  0  0  0
   27.4844    5.1867    4.4034 C   0  0  0  0  0  0
   27.3118    5.4751    3.0115 O   0  0  0  0  0  0
   26.3726    4.7832    2.2734 C   0  0  0  0  0  0
   25.1832    4.2501    2.7989 C   0  0  0  0  0  0
   24.3097    3.5422    1.9785 C   0  0  0  0  0  0
   24.6106    3.3868    0.6291 C   0  0  0  0  0  0
   25.7645    3.9457    0.0865 C   0  0  0  0  0  0
   26.6381    4.6501    0.9100 C   0  0  0  0  0  0
   26.6081    7.9233    5.8991 H   0  0  0  0  0  0
   27.8889    6.2202    6.2493 H   0  0  0  0  0  0
   28.8735    7.4500    3.6300 H   0  0  0  0  0  0
   28.9264    8.2875    5.2025 H   0  0  0  0  0  0
   30.3112    5.8263    4.3850 H   0  0  0  0  0  0
   31.1686    8.1299    3.8690 H   0  0  0  0  0  0
   31.4074    8.2474    5.5850 H   0  0  0  0  0  0
   33.4388    7.4007    4.9524 H   0  0  0  0  0  0
   32.6699    5.8682    5.2527 H   0  0  0  0  0  0
   35.1139    6.3149    3.5756 H   0  0  0  0  0  0
   35.7567    5.7408    1.2715 H   0  0  0  0  0  0
   31.6181    5.7330    0.1309 H   0  0  0  0  0  0
   30.9700    6.2776    2.4090 H   0  0  0  0  0  0
   33.1418    3.2685   -1.6720 H   0  0  0  0  0  0
   32.7462    5.7544   -4.0315 H   0  0  0  0  0  0
   30.6018    6.4620   -5.0391 H   0  0  0  0  0  0
   28.4655    5.7552   -4.0098 H   0  0  0  0  0  0
   28.4657    4.3232   -1.9965 H   0  0  0  0  0  0
   30.6053    3.6132   -0.9903 H   0  0  0  0  0  0
   26.6640    4.6498    4.8676 H   0  0  0  0  0  0
   28.3490    4.5278    4.4892 H   0  0  0  0  0  0
   24.9046    4.3840    3.8313 H   0  0  0  0  0  0
   23.3968    3.1280    2.3802 H   0  0  0  0  0  0
   23.9277    2.8505   -0.0148 H   0  0  0  0  0  0
   25.9718    3.8403   -0.9692 H   0  0  0  0  0  0
   27.5362    5.0820    0.4936 H   0  0  0  0  0  0
  1  2  1  0  0  0
  1 31  1  0  0  0
  2  3  1  0  0  0
  2 23  1  0  0  0
  2 32  1  0  0  0
  3  4  1  0  0  0
  3 33  1  0  0  0
  3 34  1  0  0  0
  4  5  1  0  0  0
  4 35  1  0  0  0
  5  6  1  0  0  0
  5 36  1  0  0  0
  5 37  1  0  0  0
  6  7  1  0  0  0
  6 38  1  0  0  0
  6 39  1  0  0  0
  7  8  2  0  0  0
  7 12  1  0  0  0
  8  9  1  0  0  0
  8 40  1  0  0  0
  9 10  2  0  0  0
  9 41  1  0  0  0
 10 11  1  0  0  0
 10 13  1  0  0  0
 11 12  2  0  0  0
 11 42  1  0  0  0
 12 43  1  0  0  0
 13 14  2  0  0  0
 13 15  2  0  0  0
 13 16  1  0  0  0
 16 17  1  0  0  0
 16 44  1  0  0  0
 17 18  2  0  0  0
 17 22  1  0  0  0
 18 19  1  0  0  0
 18 45  1  0  0  0
 19 20  2  0  0  0
 19 46  1  0  0  0
 20 21  1  0  0  0
 20 47  1  0  0  0
 21 22  2  0  0  0
 21 48  1  0  0  0
 22 49  1  0  0  0
 23 24  1  0  0  0
 23 50  1  0  0  0
 23 51  1  0  0  0
 24 25  1  0  0  0
 25 26  2  0  0  0
 25 30  1  0  0  0
 26 27  1  0  0  0
 26 52  1  0  0  0
 27 28  2  0  0  0
 27 53  1  0  0  0
 28 29  1  0  0  0
 28 54  1  0  0  0
 29 30  2  0  0  0
 29 55  1  0  0  0
 30 56  1  0  0  0
M  END
> <s_m_entry_id>
3313

> <s_m_entry_name>
dock_pv.405

> <s_m_Source_Path>
/home/csk/Desktop/cluster/DUD-E-result/adrb1

> <s_m_Source_File>
dock_pv.maegz

> <i_m_Source_File_Index>
405

> <chembl_id>
CHEMBL1204003

> <chembl_pref_name>
None

> <i_lp_mmshare_version>
53161

> <i_f3d_flags>
0

> <r_lp_tautomer_probability>
1

> <s_lp_Force_Field>
OPLS_2005

> <r_lp_Energy>
19.642366

> <b_lp_Chiralities_Consistent>
1

> <s_lp_Variant>
CHEMBL213_lig955-1

> <s_i_glide_gridfile>
glide-grid_2vt4

> <i_i_glide_lignum>
1067

> <i_i_glide_rotatable_bonds>
12

> <r_i_docking_score>
-6.97526942162945

> <r_i_glide_ligand_efficiency>
-0.232508980720982

> <r_i_glide_ligand_efficiency_sa>
-0.722459462003357

> <r_i_glide_ligand_efficiency_ln>
-1.58485721424181

> <r_i_glide_gscore>
-6.97526942162945

> <r_i_glide_lipo>
-3.01321838866232

> <r_i_glide_hbond>
-0.421978874845183

> <r_i_glide_metal>
0

> <r_i_glide_rewards>
-0.710901652408792

> <r_i_glide_evdw>
-41.0812301635742

> <r_i_glide_ecoul>
-12.3784341812134

> <r_i_glide_erotb>
1.0909233275956

> <r_i_glide_esite>
-0.00926719794804022

> <r_i_glide_emodel>
-67.509717942925

> <r_i_glide_energy>
-53.4596643447876

> <r_i_glide_einternal>
14.1037654876709

> <i_i_glide_confnum>
10

> <i_i_glide_posenum>
237

> <r_i_glide_eff_state_penalty>
0

> <s_user_duplicate_titles>
CHEMBL213_lig955,677954

> <s_m_subgroup_title>
dock_pv

> <s_m_subgroupid>
dock_pv

> <b_m_subgroup_collapsed>
1

$$$$
CHEMBL213_lig434
                    3D
 Schrodinger Suite 2021-1.
 62 66  0  0  1  0            999 V2000
   31.2563    3.5791   -4.0136 C   0  0  0  0  0  0
   32.4190    4.6588   -4.2348 C   0  0  1  0  0  0
   31.8231    2.3249   -3.2489 C   0  0  0  0  0  0
   34.3610    5.5516   -3.0376 N   0  0  2  0  0  0
   32.9502    5.2193   -2.8888 C   0  0  0  0  0  0
   36.6987    6.7595    2.3924 C   0  0  0  0  0  0
   35.7878    6.2501    3.2971 C   0  0  0  0  0  0
   36.2396    6.2467    4.5903 O   0  0  0  0  0  0
   33.7439    4.2822   -4.9530 C   0  0  0  0  0  0
   30.1595    4.3630   -3.2015 C   0  0  0  0  0  0
   30.6192    2.9732   -5.3151 C   0  0  0  0  0  0
   36.3547    6.8666    1.0441 C   0  0  0  0  0  0
   33.0232    2.0897   -3.2150 O   0  0  0  0  0  0
   34.5307    5.8073    2.9055 C   0  0  0  0  0  0
   34.8618    4.5300   -3.9415 C   0  0  0  0  0  0
   31.0080    1.4608   -2.6504 N   0  0  0  0  0  0
   35.1027    5.5282   -1.7707 C   0  0  0  0  0  0
   35.0881    6.4397    0.6227 C   0  0  0  0  0  0
   34.1920    5.8885    1.5530 C   0  0  0  0  0  0
   37.5976    6.6867    4.5720 C   0  0  0  0  0  0
   34.6464    6.6470   -0.8194 C   0  0  0  0  0  0
   37.9155    7.1692    3.1489 C   0  0  0  0  0  0
   29.3478    5.2848   -3.8865 C   0  0  0  0  0  0
   29.3194    2.4321   -5.2532 C   0  0  0  0  0  0
   31.2974    2.8822   -6.5430 C   0  0  0  0  0  0
   29.9910    4.2501   -1.8073 C   0  0  0  0  0  0
   28.7211    1.8388   -6.3579 C   0  0  0  0  0  0
   30.7160    2.2500   -7.6411 C   0  0  0  0  0  0
   29.0129    4.9835   -1.1411 C   0  0  0  0  0  0
   28.3668    6.0169   -3.2241 C   0  0  0  0  0  0
   28.1977    5.8559   -1.8536 C   0  0  0  0  0  0
   29.4224    1.7494   -7.5521 C   0  0  0  0  0  0
   31.9925    5.4927   -4.7959 H   0  0  0  0  0  0
   32.3825    6.0957   -2.5784 H   0  0  0  0  0  0
   32.8360    4.4991   -2.0772 H   0  0  0  0  0  0
   33.8001    3.2447   -5.2774 H   0  0  0  0  0  0
   33.9024    4.9005   -5.8385 H   0  0  0  0  0  0
   37.0420    7.2985    0.3308 H   0  0  0  0  0  0
   33.8240    5.4133    3.6211 H   0  0  0  0  0  0
   35.1527    3.6113   -3.4268 H   0  0  0  0  0  0
   35.7688    4.9043   -4.4200 H   0  0  0  0  0  0
   31.4038    0.6574   -2.1872 H   0  0  0  0  0  0
   30.0055    1.6252   -2.6103 H   0  0  0  0  0  0
   35.0049    4.5523   -1.2895 H   0  0  0  0  0  0
   36.1613    5.6719   -1.9956 H   0  0  0  0  0  0
   33.2115    5.5653    1.2347 H   0  0  0  0  0  0
   37.7652    7.4584    5.3202 H   0  0  0  0  0  0
   38.2476    5.8500    4.8179 H   0  0  0  0  0  0
   35.0081    7.6125   -1.1766 H   0  0  0  0  0  0
   33.5603    6.7215   -0.8151 H   0  0  0  0  0  0
   38.8382    6.7206    2.7784 H   0  0  0  0  0  0
   38.0276    8.2500    3.1408 H   0  0  0  0  0  0
   29.4680    5.4294   -4.9503 H   0  0  0  0  0  0
   28.7476    2.4725   -4.3391 H   0  0  0  0  0  0
   32.2789    3.2884   -6.6928 H   0  0  0  0  0  0
   30.6087    3.5944   -1.2151 H   0  0  0  0  0  0
   27.7177    1.4509   -6.2785 H   0  0  0  0  0  0
   31.2567    2.1879   -8.5743 H   0  0  0  0  0  0
   28.8853    4.8741   -0.0744 H   0  0  0  0  0  0
   27.7389    6.7054   -3.7717 H   0  0  0  0  0  0
   27.4337    6.4207   -1.3393 H   0  0  0  0  0  0
   28.9575    1.2959   -8.4147 H   0  0  0  0  0  0
  1  2  1  0  0  0
  1  3  1  0  0  0
  1 10  1  0  0  0
  1 11  1  0  0  0
  2  5  1  0  0  0
  2  9  1  0  0  0
  2 33  1  0  0  0
  3 13  2  0  0  0
  3 16  1  0  0  0
  4  5  1  0  0  0
  4 17  1  0  0  0
  4 15  1  0  0  0
  5 34  1  0  0  0
  5 35  1  0  0  0
  6 12  2  0  0  0
  6 22  1  0  0  0
  6  7  1  0  0  0
  7 14  2  0  0  0
  7  8  1  0  0  0
  8 20  1  0  0  0
  9 15  1  0  0  0
  9 36  1  0  0  0
  9 37  1  0  0  0
 10 23  1  0  0  0
 10 26  2  0  0  0
 11 24  2  0  0  0
 11 25  1  0  0  0
 12 18  1  0  0  0
 12 38  1  0  0  0
 14 19  1  0  0  0
 14 39  1  0  0  0
 15 40  1  0  0  0
 15 41  1  0  0  0
 16 42  1  0  0  0
 16 43  1  0  0  0
 17 21  1  0  0  0
 17 44  1  0  0  0
 17 45  1  0  0  0
 18 21  1  0  0  0
 18 19  2  0  0  0
 19 46  1  0  0  0
 20 22  1  0  0  0
 20 47  1  0  0  0
 20 48  1  0  0  0
 21 49  1  0  0  0
 21 50  1  0  0  0
 22 51  1  0  0  0
 22 52  1  0  0  0
 23 30  2  0  0  0
 23 53  1  0  0  0
 24 27  1  0  0  0
 24 54  1  0  0  0
 25 28  2  0  0  0
 25 55  1  0  0  0
 26 29  1  0  0  0
 26 56  1  0  0  0
 27 32  2  0  0  0
 27 57  1  0  0  0
 28 32  1  0  0  0
 28 58  1  0  0  0
 29 31  2  0  0  0
 29 59  1  0  0  0
 30 31  1  0  0  0
 30 60  1  0  0  0
 31 61  1  0  0  0
 32 62  1  0  0  0
M  END
> <s_m_entry_id>
3314

> <s_m_entry_name>
dock_pv.406

> <s_m_Source_Path>
/home/csk/Desktop/cluster/DUD-E-result/adrb1

> <s_m_Source_File>
dock_pv.maegz

> <i_m_Source_File_Index>
406

> <chembl_id>
CHEMBL1346

> <chembl_pref_name>
DARIFENACIN

> <i_lp_mmshare_version>
53161

> <i_f3d_flags>
0

> <r_lp_tautomer_probability>
1

> <s_lp_Force_Field>
OPLS_2005

> <r_lp_Energy>
61.525142

> <b_lp_Chiralities_Consistent>
1

> <s_lp_Variant>
CHEMBL213_lig434-1

> <s_i_glide_gridfile>
glide-grid_2vt4

> <i_i_glide_lignum>
508

> <i_i_glide_rotatable_bonds>
7

> <r_i_docking_score>
-6.97512441961342

> <r_i_glide_ligand_efficiency>
-0.217972638112919

> <r_i_glide_ligand_efficiency_sa>
-0.69201998928201

> <r_i_glide_ligand_efficiency_ln>
-1.56192049226208

> <r_i_glide_gscore>
-6.97512441961342

> <r_i_glide_lipo>
-2.22386587098

> <r_i_glide_hbond>
-0.596954475975305

> <r_i_glide_metal>
0

> <r_i_glide_rewards>
-1.32672244946215

> <r_i_glide_evdw>
-46.4465560913086

> <r_i_glide_ecoul>
-7.73167324066162

> <r_i_glide_erotb>
0.654497167468716

> <r_i_glide_esite>
0

> <r_i_glide_emodel>
-71.8117496565075

> <r_i_glide_energy>
-54.1782293319702

> <r_i_glide_einternal>
8.38518905639648

> <i_i_glide_confnum>
82

> <i_i_glide_posenum>
86

> <r_i_glide_eff_state_penalty>
0

> <s_user_duplicate_titles>
CHEMBL213_lig434

> <s_m_subgroup_title>
dock_pv

> <s_m_subgroupid>
dock_pv

> <b_m_subgroup_collapsed>
1

$$$$
CHEMBL213_lig1181
                    3D
 Schrodinger Suite 2021-1.
 61 63  0  0  1  0            999 V2000
   34.0124    5.4093   -1.4219 C   0  0  0  0  0  0
   33.1188    6.3688    3.6239 C   0  0  0  0  0  0
   32.2093    6.1955    2.5762 C   0  0  0  0  0  0
   32.6596    5.8499    1.3052 C   0  0  0  0  0  0
   34.0338    5.7105    1.0563 C   0  0  0  0  0  0
   34.9400    5.8707    2.1064 C   0  0  0  0  0  0
   34.4843    6.1948    3.3820 C   0  0  0  0  0  0
   34.5806    5.3631   -0.1942 N   0  0  0  0  0  0
   34.8452    4.8631   -2.5646 C   0  0  0  0  0  0
   34.2440    4.6479   -3.8143 C   0  0  0  0  0  0
   34.9808    4.1420   -4.8818 C   0  0  0  0  0  0
   36.3304    3.8507   -4.7119 C   0  0  0  0  0  0
   36.9489    4.0640   -3.4845 C   0  0  0  0  0  0
   36.2126    4.5663   -2.4151 C   0  0  0  0  0  0
   32.6626    6.7413    5.0376 C   0  0  0  0  0  0
   31.3580    7.5614    5.1339 C   0  0  0  0  0  0
   30.1811    6.7103    5.1808 N   0  0  1  0  0  0
   28.9587    7.4642    4.9155 C   0  0  0  0  0  0
   27.7042    6.5672    4.7628 C   0  0  1  0  0  0
   27.9177    5.2868    3.9094 C   0  0  0  0  0  0
   26.7826    5.0393    3.0755 O   0  0  0  0  0  0
   27.1773    6.2499    6.0400 O   0  0  0  0  0  0
   26.9123    4.7884    1.7164 C   0  0  0  0  0  0
   28.0708    5.0500    0.9565 C   0  0  0  0  0  0
   28.1153    4.7960   -0.4145 C   0  0  0  0  0  0
   27.0079    4.2514   -1.0476 C   0  0  0  0  0  0
   25.8603    3.9745   -0.3135 C   0  0  0  0  0  0
   25.7972    4.2498    1.0530 C   0  0  0  0  0  0
   24.4956    3.9424    1.7841 C   0  0  0  0  0  0
   24.3519    2.4543    2.1171 C   0  0  0  0  0  0
   32.8828    5.8499   -1.6454 O   0  0  0  0  0  0
   31.1485    6.3142    2.7271 H   0  0  0  0  0  0
   31.9234    5.7032    0.5320 H   0  0  0  0  0  0
   36.0004    5.7500    1.9388 H   0  0  0  0  0  0
   35.1990    6.3212    4.1824 H   0  0  0  0  0  0
   35.5288    5.0267   -0.1625 H   0  0  0  0  0  0
   33.1971    4.8701   -3.9704 H   0  0  0  0  0  0
   34.5092    3.9849   -5.8404 H   0  0  0  0  0  0
   36.9068    3.4692   -5.5409 H   0  0  0  0  0  0
   38.0013    3.8500   -3.3614 H   0  0  0  0  0  0
   36.7339    4.7213   -1.4830 H   0  0  0  0  0  0
   33.4486    7.3571    5.4772 H   0  0  0  0  0  0
   32.6123    5.8485    5.6607 H   0  0  0  0  0  0
   31.2971    8.2081    4.2539 H   0  0  0  0  0  0
   31.4053    8.2380    5.9831 H   0  0  0  0  0  0
   30.3092    5.9498    4.5195 H   0  0  0  0  0  0
   29.0952    8.0095    3.9850 H   0  0  0  0  0  0
   28.7960    8.2180    5.6889 H   0  0  0  0  0  0
   26.9391    7.1717    4.2738 H   0  0  0  0  0  0
   28.0590    4.4196    4.5571 H   0  0  0  0  0  0
   28.8588    5.3527    3.3764 H   0  0  0  0  0  0
   27.0078    7.0812    6.5065 H   0  0  0  0  0  0
   28.9703    5.4500    1.3864 H   0  0  0  0  0  0
   29.0106    5.0057   -0.9803 H   0  0  0  0  0  0
   27.0311    4.0343   -2.1063 H   0  0  0  0  0  0
   25.0079    3.5415   -0.8150 H   0  0  0  0  0  0
   24.3999    4.5526    2.6823 H   0  0  0  0  0  0
   23.6666    4.2479    1.1438 H   0  0  0  0  0  0
   23.4079    2.2579    2.6112 H   0  0  0  0  0  0
   24.3873    1.8500    1.2113 H   0  0  0  0  0  0
   25.1333    2.1049    2.7856 H   0  0  0  0  0  0
  1  8  1  0  0  0
  1  9  1  0  0  0
  1 31  2  0  0  0
  2  3  2  0  0  0
  2  7  1  0  0  0
  2 15  1  0  0  0
  3  4  1  0  0  0
  3 32  1  0  0  0
  4  5  2  0  0  0
  4 33  1  0  0  0
  5  6  1  0  0  0
  5  8  1  0  0  0
  6  7  2  0  0  0
  6 34  1  0  0  0
  7 35  1  0  0  0
  8 36  1  0  0  0
  9 10  2  0  0  0
  9 14  1  0  0  0
 10 11  1  0  0  0
 10 37  1  0  0  0
 11 12  2  0  0  0
 11 38  1  0  0  0
 12 13  1  0  0  0
 12 39  1  0  0  0
 13 14  2  0  0  0
 13 40  1  0  0  0
 14 41  1  0  0  0
 15 16  1  0  0  0
 15 42  1  0  0  0
 15 43  1  0  0  0
 16 17  1  0  0  0
 16 44  1  0  0  0
 16 45  1  0  0  0
 17 18  1  0  0  0
 17 46  1  0  0  0
 18 19  1  0  0  0
 18 47  1  0  0  0
 18 48  1  0  0  0
 19 20  1  0  0  0
 19 22  1  0  0  0
 19 49  1  0  0  0
 20 21  1  0  0  0
 20 50  1  0  0  0
 20 51  1  0  0  0
 21 23  1  0  0  0
 22 52  1  0  0  0
 23 24  2  0  0  0
 23 28  1  0  0  0
 24 25  1  0  0  0
 24 53  1  0  0  0
 25 26  2  0  0  0
 25 54  1  0  0  0
 26 27  1  0  0  0
 26 55  1  0  0  0
 27 28  2  0  0  0
 27 56  1  0  0  0
 28 29  1  0  0  0
 29 30  1  0  0  0
 29 57  1  0  0  0
 29 58  1  0  0  0
 30 59  1  0  0  0
 30 60  1  0  0  0
 30 61  1  0  0  0
M  END
> <s_m_entry_id>
3315

> <s_m_entry_name>
dock_pv.407

> <s_m_Source_Path>
/home/csk/Desktop/cluster/DUD-E-result/adrb1

> <s_m_Source_File>
dock_pv.maegz

> <i_m_Source_File_Index>
407

> <chembl_id>
CHEMBL4250215

> <chembl_pref_name>
None

> <i_lp_mmshare_version>
53161

> <i_f3d_flags>
0

> <r_lp_tautomer_probability>
1

> <s_lp_Force_Field>
OPLS_2005

> <r_lp_Energy>
30.611241

> <b_lp_Chiralities_Consistent>
1

> <s_lp_Variant>
CHEMBL213_lig1181-1

> <s_i_glide_gridfile>
glide-grid_2vt4

> <i_i_glide_lignum>
1383

> <i_i_glide_rotatable_bonds>
13

> <r_i_docking_score>
-6.97160680267643

> <r_i_glide_ligand_efficiency>
-0.22489054202182

> <r_i_glide_ligand_efficiency_sa>
-0.706466796804494

> <r_i_glide_ligand_efficiency_ln>
-1.57231098809315

> <r_i_glide_gscore>
-6.97160680267643

> <r_i_glide_lipo>
-2.49600853937579

> <r_i_glide_hbond>
-0.536446007037264

> <r_i_glide_metal>
0

> <r_i_glide_rewards>
-1.31010701606463

> <r_i_glide_evdw>
-41.133373260498

> <r_i_glide_ecoul>
-12.094708442688

> <r_i_glide_erotb>
1.24182968922936

> <r_i_glide_esite>
0

> <r_i_glide_emodel>
-71.3326763014478

> <r_i_glide_energy>
-53.228081703186

> <r_i_glide_einternal>
8.80165195465088

> <i_i_glide_confnum>
69

> <i_i_glide_posenum>
384

> <r_i_glide_eff_state_penalty>
0

> <s_user_duplicate_titles>
CHEMBL213_lig1181

> <s_m_subgroup_title>
dock_pv

> <s_m_subgroupid>
dock_pv

> <b_m_subgroup_collapsed>
1

$$$$
CHEMBL213_lig478
                    3D
 Schrodinger Suite 2021-1.
 56 58  0  0  1  0            999 V2000
   29.3951    5.8556    3.2779 C   0  0  0  0  0  0
   28.7031    6.3423    4.3848 C   0  0  0  0  0  0
   27.3188    5.0442    2.2912 C   0  0  0  0  0  0
   28.7037    5.2403    2.2370 C   0  0  0  0  0  0
   26.6592    5.4062    3.4841 C   0  0  0  0  0  0
   27.3315    6.1002    4.4930 C   0  0  0  0  0  0
   26.5010    6.4890    5.5352 N   0  0  0  0  0  0
   25.2067    6.0320    5.5200 C   0  0  0  0  0  0
   25.0108    5.0500    3.9850 S   0  0  0  0  0  0
   24.3469    6.2151    6.3750 O   0  0  0  0  0  0
   29.3715    7.0499    5.3552 O   0  0  0  0  0  0
   26.6338    4.4269    1.0509 C   0  0  2  0  0  0
   26.2322    5.4469   -0.0411 C   0  0  0  0  0  0
   27.3442    5.8936   -0.8747 N   0  0  2  0  0  0
   26.8414    6.1422   -2.2226 C   0  0  0  0  0  0
   27.8855    6.7618   -3.1530 C   0  0  0  0  0  0
   29.0802    5.8796   -3.5370 C   0  0  0  0  0  0
   30.0231    6.4112   -4.4148 C   0  0  0  0  0  0
   31.1038    5.6445   -4.8377 C   0  0  0  0  0  0
   31.2592    4.3349   -4.3830 C   0  0  0  0  0  0
   30.3349    3.8047   -3.4829 C   0  0  0  0  0  0
   29.2444    4.5663   -3.0747 C   0  0  0  0  0  0
   25.5087    3.6118    1.3320 O   0  0  0  0  0  0
   32.4208    3.4799   -4.8773 C   0  0  0  0  0  0
   32.5259    3.4620   -6.3383 N   0  0  2  0  0  0
   31.7466    2.4334   -7.0331 C   0  0  0  0  0  0
   30.2379    2.4409   -6.7240 C   0  0  0  0  0  0
   29.5717    1.5559   -7.6150 O   0  0  0  0  0  0
   28.1577    1.6457   -7.5317 C   0  0  0  0  0  0
   30.4620    6.0124    3.1979 H   0  0  0  0  0  0
   29.2584    4.9473    1.3570 H   0  0  0  0  0  0
   26.7801    7.1272    6.2709 H   0  0  0  0  0  0
   28.7873    7.4759    5.9856 H   0  0  0  0  0  0
   27.3265    3.7335    0.5795 H   0  0  0  0  0  0
   25.4600    4.9913   -0.6677 H   0  0  0  0  0  0
   25.8080    6.3467    0.3849 H   0  0  0  0  0  0
   28.0682    5.1906   -0.9155 H   0  0  0  0  0  0
   26.6080    5.1645   -2.6371 H   0  0  0  0  0  0
   25.9226    6.7329   -2.2337 H   0  0  0  0  0  0
   27.3788    7.0397   -4.0787 H   0  0  0  0  0  0
   28.2080    7.7048   -2.7173 H   0  0  0  0  0  0
   29.9048    7.4167   -4.7949 H   0  0  0  0  0  0
   31.8092    6.0627   -5.5421 H   0  0  0  0  0  0
   30.4333    2.7901   -3.1236 H   0  0  0  0  0  0
   28.5297    4.0962   -2.4166 H   0  0  0  0  0  0
   25.0396    3.4382    0.5107 H   0  0  0  0  0  0
   33.3305    3.9165   -4.4642 H   0  0  0  0  0  0
   32.3591    2.4704   -4.4688 H   0  0  0  0  0  0
   33.4900    3.4895   -6.6435 H   0  0  0  0  0  0
   31.8913    2.5819   -8.1040 H   0  0  0  0  0  0
   32.1614    1.4508   -6.8158 H   0  0  0  0  0  0
   30.0570    2.1099   -5.7001 H   0  0  0  0  0  0
   29.8438    3.4532   -6.8150 H   0  0  0  0  0  0
   27.7031    0.9122   -8.1975 H   0  0  0  0  0  0
   27.8081    1.4499   -6.5172 H   0  0  0  0  0  0
   27.8076    2.6333   -7.8355 H   0  0  0  0  0  0
  1  2  2  0  0  0
  1  4  1  0  0  0
  1 30  1  0  0  0
  2 11  1  0  0  0
  2  6  1  0  0  0
  3  4  2  0  0  0
  3 12  1  0  0  0
  3  5  1  0  0  0
  4 31  1  0  0  0
  5  9  1  0  0  0
  5  6  2  0  0  0
  6  7  1  0  0  0
  7  8  1  0  0  0
  7 32  1  0  0  0
  8  9  1  0  0  0
  8 10  2  0  0  0
 11 33  1  0  0  0
 12 23  1  0  0  0
 12 13  1  0  0  0
 12 34  1  0  0  0
 13 14  1  0  0  0
 13 35  1  0  0  0
 13 36  1  0  0  0
 14 15  1  0  0  0
 14 37  1  0  0  0
 15 16  1  0  0  0
 15 38  1  0  0  0
 15 39  1  0  0  0
 16 17  1  0  0  0
 16 40  1  0  0  0
 16 41  1  0  0  0
 17 18  2  0  0  0
 17 22  1  0  0  0
 18 19  1  0  0  0
 18 42  1  0  0  0
 19 20  2  0  0  0
 19 43  1  0  0  0
 20 21  1  0  0  0
 20 24  1  0  0  0
 21 22  2  0  0  0
 21 44  1  0  0  0
 22 45  1  0  0  0
 23 46  1  0  0  0
 24 25  1  0  0  0
 24 47  1  0  0  0
 24 48  1  0  0  0
 25 26  1  0  0  0
 25 49  1  0  0  0
 26 27  1  0  0  0
 26 50  1  0  0  0
 26 51  1  0  0  0
 27 28  1  0  0  0
 27 52  1  0  0  0
 27 53  1  0  0  0
 28 29  1  0  0  0
 29 54  1  0  0  0
 29 55  1  0  0  0
 29 56  1  0  0  0
M  END
> <s_m_entry_id>
3316

> <s_m_entry_name>
dock_pv.408

> <s_m_Source_Path>
/home/csk/Desktop/cluster/DUD-E-result/adrb1

> <s_m_Source_File>
dock_pv.maegz

> <i_m_Source_File_Index>
408

> <chembl_id>
CHEMBL1945293

> <chembl_pref_name>
None

> <i_lp_mmshare_version>
53161

> <i_f3d_flags>
0

> <r_lp_tautomer_probability>
1

> <s_lp_Force_Field>
OPLS_2005

> <r_lp_Energy>
35.127254

> <b_lp_Chiralities_Consistent>
1

> <s_lp_Variant>
CHEMBL213_lig478-1

> <s_i_glide_gridfile>
glide-grid_2vt4

> <i_i_glide_lignum>
567

> <i_i_glide_rotatable_bonds>
13

> <r_i_docking_score>
-6.97058302346715

> <r_i_glide_ligand_efficiency>
-0.240364931843695

> <r_i_glide_ligand_efficiency_sa>
-0.738477223579325

> <r_i_glide_ligand_efficiency_ln>
-1.59608675363966

> <r_i_glide_gscore>
-6.97058302346715

> <r_i_glide_lipo>
-3.18593531665008

> <r_i_glide_hbond>
-0.60419512085633

> <r_i_glide_metal>
0

> <r_i_glide_rewards>
-1.02707186207766

> <r_i_glide_evdw>
-42.3219795227051

> <r_i_glide_ecoul>
-7.80755949020386

> <r_i_glide_erotb>
1.13385217578276

> <r_i_glide_esite>
0

> <r_i_glide_emodel>
-61.8032660861215

> <r_i_glide_energy>
-50.1295390129089

> <r_i_glide_einternal>
14.1263484954834

> <i_i_glide_confnum>
107

> <i_i_glide_posenum>
58

> <r_i_glide_eff_state_penalty>
0

> <s_user_duplicate_titles>
CHEMBL213_lig478

> <s_m_subgroup_title>
dock_pv

> <s_m_subgroupid>
dock_pv

> <b_m_subgroup_collapsed>
1

$$$$
CHEMBL213_lig1500
                    3D
 Schrodinger Suite 2021-1.
 43 44  0  0  1  0            999 V2000
   29.7077    3.5854   -3.7101 O   0  0  0  0  0  0
   30.1591    4.4757   -2.7003 C   0  0  2  0  0  0
   28.9572    5.1955   -2.0300 C   0  0  0  0  0  0
   28.1267    4.2499   -1.2917 N   0  0  1  0  0  0
   26.7756    4.6203   -0.9172 C   0  0  0  0  0  0
   26.7082    4.9664    0.5861 C   0  0  0  0  0  0
   27.4080    5.8779    1.0116 O   0  0  0  0  0  0
   25.8432    4.3351    1.4138 N   0  0  0  0  0  0
   24.9931    3.1970    1.0461 C   0  0  0  0  0  0
   24.3776    2.7921    2.3852 C   0  0  0  0  0  0
   24.3270    4.0865    3.1791 C   0  0  0  0  0  0
   25.5976    4.8306    2.7841 C   0  0  1  0  0  0
   26.7365    4.6504    3.7030 C   0  0  0  0  0  0
   27.6297    4.5198    4.4277 N   0  0  0  0  0  0
   31.1623    5.4672   -3.3413 C   0  0  0  0  0  0
   32.1871    5.8498   -2.4221 O   0  0  0  0  0  0
   33.3325    5.0846   -2.2883 C   0  0  0  0  0  0
   33.5563    3.8600   -2.9392 C   0  0  0  0  0  0
   34.7638    3.1852   -2.7688 C   0  0  0  0  0  0
   35.7428    3.7192   -1.9337 C   0  0  0  0  0  0
   35.5240    4.9240   -1.2699 C   0  0  0  0  0  0
   34.3209    5.6027   -1.4501 C   0  0  0  0  0  0
   29.1313    2.9209   -3.3140 H   0  0  0  0  0  0
   30.6904    3.8824   -1.9523 H   0  0  0  0  0  0
   28.3678    5.7281   -2.7788 H   0  0  0  0  0  0
   29.3251    5.9390   -1.3231 H   0  0  0  0  0  0
   28.2084    3.2833   -1.6046 H   0  0  0  0  0  0
   26.1251    3.7828   -1.1628 H   0  0  0  0  0  0
   26.3989    5.4628   -1.5006 H   0  0  0  0  0  0
   25.5655    2.3737    0.6134 H   0  0  0  0  0  0
   24.2092    3.5187    0.3570 H   0  0  0  0  0  0
   25.0091    2.0630    2.8869 H   0  0  0  0  0  0
   23.4080    2.3149    2.2739 H   0  0  0  0  0  0
   24.2531    3.9639    4.2555 H   0  0  0  0  0  0
   23.4494    4.6500    2.8627 H   0  0  0  0  0  0
   25.4080    5.9041    2.7852 H   0  0  0  0  0  0
   31.5994    5.0824   -4.2658 H   0  0  0  0  0  0
   30.6371    6.3656   -3.6698 H   0  0  0  0  0  0
   32.8117    3.4156   -3.5815 H   0  0  0  0  0  0
   34.9420    2.2498   -3.2774 H   0  0  0  0  0  0
   36.6807    3.1974   -1.8001 H   0  0  0  0  0  0
   36.2883    5.3315   -0.6239 H   0  0  0  0  0  0
   34.1564    6.5423   -0.9436 H   0  0  0  0  0  0
  1  2  1  0  0  0
  1 23  1  0  0  0
  2  3  1  0  0  0
  2 15  1  0  0  0
  2 24  1  0  0  0
  3  4  1  0  0  0
  3 25  1  0  0  0
  3 26  1  0  0  0
  4  5  1  0  0  0
  4 27  1  0  0  0
  5  6  1  0  0  0
  5 28  1  0  0  0
  5 29  1  0  0  0
  6  7  2  0  0  0
  6  8  1  0  0  0
  8  9  1  0  0  0
  8 12  1  0  0  0
  9 10  1  0  0  0
  9 30  1  0  0  0
  9 31  1  0  0  0
 10 11  1  0  0  0
 10 32  1  0  0  0
 10 33  1  0  0  0
 11 12  1  0  0  0
 11 34  1  0  0  0
 11 35  1  0  0  0
 12 13  1  0  0  0
 12 36  1  0  0  0
 13 14  3  0  0  0
 15 16  1  0  0  0
 15 37  1  0  0  0
 15 38  1  0  0  0
 16 17  1  0  0  0
 17 18  2  0  0  0
 17 22  1  0  0  0
 18 19  1  0  0  0
 18 39  1  0  0  0
 19 20  2  0  0  0
 19 40  1  0  0  0
 20 21  1  0  0  0
 20 41  1  0  0  0
 21 22  2  0  0  0
 21 42  1  0  0  0
 22 43  1  0  0  0
M  END
> <s_m_entry_id>
3317

> <s_m_entry_name>
dock_pv.409

> <s_m_Source_Path>
/home/csk/Desktop/cluster/DUD-E-result/adrb1

> <s_m_Source_File>
dock_pv.maegz

> <i_m_Source_File_Index>
409

> <chembl_id>
CHEMBL3704833

> <chembl_pref_name>
None

> <i_lp_mmshare_version>
53161

> <i_f3d_flags>
0

> <r_lp_tautomer_probability>
1

> <s_lp_Force_Field>
OPLS_2005

> <r_lp_Energy>
41.69325

> <b_lp_Chiralities_Consistent>
1

> <s_lp_Variant>
CHEMBL213_lig1500-1

> <s_i_glide_gridfile>
glide-grid_2vt4

> <i_i_glide_lignum>
1848

> <i_i_glide_rotatable_bonds>
9

> <r_i_docking_score>
-6.97000854043097

> <r_i_glide_ligand_efficiency>
-0.316818570019589

> <r_i_glide_ligand_efficiency_sa>
-0.887738092962208

> <r_i_glide_ligand_efficiency_ln>
-1.7037243245201

> <r_i_glide_gscore>
-6.97000854043097

> <r_i_glide_lipo>
-1.89490429377872

> <r_i_glide_hbond>
-0.864

> <r_i_glide_metal>
0

> <r_i_glide_rewards>
-2.56093105558773

> <r_i_glide_evdw>
-30.4574375152588

> <r_i_glide_ecoul>
-10.1926393508911

> <r_i_glide_erotb>
1.40159458733209

> <r_i_glide_esite>
0

> <r_i_glide_emodel>
-52.0175581457063

> <r_i_glide_energy>
-40.6500768661499

> <r_i_glide_einternal>
12.9039964675903

> <i_i_glide_confnum>
33

> <i_i_glide_posenum>
291

> <r_i_glide_eff_state_penalty>
0

> <s_user_duplicate_titles>
CHEMBL213_lig1500

> <s_m_subgroup_title>
dock_pv

> <s_m_subgroupid>
dock_pv

> <b_m_subgroup_collapsed>
1

$$$$
CHEMBL213_lig1409
                    3D
 Schrodinger Suite 2021-1.
 68 72  0  0  1  0            999 V2000
   28.1602    5.0363   -2.6265 N   0  0  1  0  0  0
   29.5625    5.3012   -2.9230 C   0  0  0  0  0  0
   30.5713    4.2428   -2.4288 C   0  0  0  0  0  0
   32.0413    4.6318   -2.7577 C   0  0  0  0  0  0
   32.2555    4.9734   -4.1799 N   0  0  0  0  0  0
   31.2518    5.9589   -4.6347 C   0  0  0  0  0  0
   29.8074    5.4902   -4.4183 C   0  0  0  0  0  0
   33.0650    4.2715   -5.0837 C   0  0  0  0  0  0
   32.5140    4.1274   -6.3240 N   0  0  0  0  0  0
   33.1978    3.4455   -7.2626 C   0  0  0  0  0  0
   34.4139    2.8811   -7.1328 N   0  0  0  0  0  0
   34.3777    3.7526   -4.8173 C   0  0  0  0  0  0
   34.9725    3.0573   -5.9349 C   0  0  0  0  0  0
   36.5836    2.4646   -5.6235 S   0  0  0  0  0  0
   36.4848    3.1257   -4.0262 C   0  0  0  0  0  0
   35.3133    3.7904   -3.7052 C   0  0  0  0  0  0
   27.7558    5.4431   -1.2812 C   0  0  0  0  0  0
   27.4183    4.2351   -0.3874 C   0  0  1  0  0  0
   27.2268    4.6645    1.0770 C   0  0  0  0  0  0
   26.2082    3.6363   -0.8147 O   0  0  0  0  0  0
   28.4774    5.0500    1.6572 O   0  0  0  0  0  0
   28.4831    5.6698    2.8909 C   0  0  0  0  0  0
   29.7022    6.1792    3.3463 C   0  0  0  0  0  0
   29.7702    6.9336    4.5161 C   0  0  0  0  0  0
   28.6111    7.1737    5.2516 C   0  0  0  0  0  0
   27.3854    6.6506    4.8311 C   0  0  0  0  0  0
   27.3322    5.8824    3.6607 C   0  0  0  0  0  0
   35.2424    4.4798   -2.3863 C   0  0  0  0  0  0
   34.8798    5.8217   -2.3177 C   0  0  0  0  0  0
   34.8816    6.4845   -1.0956 C   0  0  0  0  0  0
   35.2374    5.8022    0.0653 C   0  0  0  0  0  0
   35.6051    4.4608    0.0075 C   0  0  0  0  0  0
   35.6092    3.8013   -1.2186 C   0  0  0  0  0  0
   26.2449    7.0421    5.5481 N   0  0  0  0  0  0
   25.0077    6.5216    5.5008 C   0  0  0  0  0  0
   23.9030    7.3601    6.1143 C   0  0  0  0  0  0
   24.7122    5.4499    4.9847 O   0  0  0  0  0  0
   27.5574    5.4380   -3.3333 H   0  0  0  0  0  0
   29.8369    6.2496   -2.4601 H   0  0  0  0  0  0
   30.4720    4.1181   -1.3507 H   0  0  0  0  0  0
   30.3452    3.2613   -2.8487 H   0  0  0  0  0  0
   32.3166    5.4896   -2.1448 H   0  0  0  0  0  0
   32.6946    3.8083   -2.4695 H   0  0  0  0  0  0
   31.4089    6.8754   -4.0660 H   0  0  0  0  0  0
   31.4102    6.2498   -5.6718 H   0  0  0  0  0  0
   29.6016    4.5750   -4.9743 H   0  0  0  0  0  0
   29.1314    6.2483   -4.8154 H   0  0  0  0  0  0
   32.7205    3.3386   -8.2244 H   0  0  0  0  0  0
   37.3553    3.0503   -3.3869 H   0  0  0  0  0  0
   26.8917    6.1066   -1.3513 H   0  0  0  0  0  0
   28.5353    6.0389   -0.8016 H   0  0  0  0  0  0
   28.2169    3.4959   -0.4463 H   0  0  0  0  0  0
   26.7955    3.8497    1.6582 H   0  0  0  0  0  0
   26.5110    5.4890    1.1039 H   0  0  0  0  0  0
   26.0618    3.8510   -1.7479 H   0  0  0  0  0  0
   30.5986    6.0162    2.7652 H   0  0  0  0  0  0
   30.7156    7.3472    4.8375 H   0  0  0  0  0  0
   28.6667    7.7923    6.1353 H   0  0  0  0  0  0
   26.3842    5.5153    3.3079 H   0  0  0  0  0  0
   34.6053    6.3404   -3.2214 H   0  0  0  0  0  0
   34.6097    7.5251   -1.0483 H   0  0  0  0  0  0
   35.2314    6.3207    1.0131 H   0  0  0  0  0  0
   35.8851    3.9291    0.9056 H   0  0  0  0  0  0
   35.9051    2.7629   -1.2590 H   0  0  0  0  0  0
   26.3951    7.8091    6.2025 H   0  0  0  0  0  0
   23.8748    8.3530    5.6644 H   0  0  0  0  0  0
   24.0395    7.4505    7.1850 H   0  0  0  0  0  0
   22.9406    6.8856    5.9412 H   0  0  0  0  0  0
  1  2  1  0  0  0
  1 17  1  0  0  0
  1 38  1  0  0  0
  2  3  1  0  0  0
  2  7  1  0  0  0
  2 39  1  0  0  0
  3  4  1  0  0  0
  3 40  1  0  0  0
  3 41  1  0  0  0
  4  5  1  0  0  0
  4 42  1  0  0  0
  4 43  1  0  0  0
  5  6  1  0  0  0
  5  8  1  0  0  0
  6  7  1  0  0  0
  6 44  1  0  0  0
  6 45  1  0  0  0
  7 46  1  0  0  0
  7 47  1  0  0  0
  8  9  2  0  0  0
  8 12  1  0  0  0
  9 10  1  0  0  0
 10 11  2  0  0  0
 10 48  1  0  0  0
 11 13  1  0  0  0
 12 13  2  0  0  0
 12 16  1  0  0  0
 13 14  1  0  0  0
 14 15  1  0  0  0
 15 16  2  0  0  0
 15 49  1  0  0  0
 16 28  1  0  0  0
 17 18  1  0  0  0
 17 50  1  0  0  0
 17 51  1  0  0  0
 18 19  1  0  0  0
 18 20  1  0  0  0
 18 52  1  0  0  0
 19 21  1  0  0  0
 19 53  1  0  0  0
 19 54  1  0  0  0
 20 55  1  0  0  0
 21 22  1  0  0  0
 22 23  2  0  0  0
 22 27  1  0  0  0
 23 24  1  0  0  0
 23 56  1  0  0  0
 24 25  2  0  0  0
 24 57  1  0  0  0
 25 26  1  0  0  0
 25 58  1  0  0  0
 26 27  2  0  0  0
 26 34  1  0  0  0
 27 59  1  0  0  0
 28 29  2  0  0  0
 28 33  1  0  0  0
 29 30  1  0  0  0
 29 60  1  0  0  0
 30 31  2  0  0  0
 30 61  1  0  0  0
 31 32  1  0  0  0
 31 62  1  0  0  0
 32 33  2  0  0  0
 32 63  1  0  0  0
 33 64  1  0  0  0
 34 35  1  0  0  0
 34 65  1  0  0  0
 35 36  1  0  0  0
 35 37  2  0  0  0
 36 66  1  0  0  0
 36 67  1  0  0  0
 36 68  1  0  0  0
M  END
> <s_m_entry_id>
3318

> <s_m_entry_name>
dock_pv.410

> <s_m_Source_Path>
/home/csk/Desktop/cluster/DUD-E-result/adrb1

> <s_m_Source_File>
dock_pv.maegz

> <i_m_Source_File_Index>
410

> <chembl_id>
CHEMBL1258825

> <chembl_pref_name>
None

> <i_lp_mmshare_version>
53161

> <i_f3d_flags>
0

> <r_lp_tautomer_probability>
1

> <s_lp_Force_Field>
OPLS_2005

> <r_lp_Energy>
46.156298

> <b_lp_Chiralities_Consistent>
1

> <s_lp_Variant>
CHEMBL213_lig1409-2

> <s_i_glide_gridfile>
glide-grid_2vt4

> <i_i_glide_lignum>
1722

> <i_i_glide_rotatable_bonds>
11

> <r_i_docking_score>
-6.96613334769522

> <r_i_glide_ligand_efficiency>
-0.188273874262033

> <r_i_glide_ligand_efficiency_sa>
-0.627370317154861

> <r_i_glide_ligand_efficiency_ln>
-1.51079101377894

> <r_i_glide_gscore>
-6.96613334769522

> <r_i_glide_lipo>
-2.8194445721046

> <r_i_glide_hbond>
-0.446744255016851

> <r_i_glide_metal>
0

> <r_i_glide_rewards>
-0.800306643656122

> <r_i_glide_evdw>
-47.2348403930664

> <r_i_glide_ecoul>
-8.18375873565674

> <r_i_glide_erotb>
0.689667953084184

> <r_i_glide_esite>
0

> <r_i_glide_emodel>
-70.4200121251321

> <r_i_glide_energy>
-55.4185991287231

> <r_i_glide_einternal>
14.3699350357056

> <i_i_glide_confnum>
79

> <i_i_glide_posenum>
25

> <r_i_glide_eff_state_penalty>
0

> <s_user_duplicate_titles>
CHEMBL213_lig1409

> <s_m_subgroup_title>
dock_pv

> <s_m_subgroupid>
dock_pv

> <b_m_subgroup_collapsed>
1

$$$$
CHEMBL213_lig1384
                    3D
 Schrodinger Suite 2021-1.
 61 64  0  0  1  0            999 V2000
   25.8116    4.0472   -0.1151 C   0  0  0  0  0  0
   24.7095    3.7554    0.6874 C   0  0  0  0  0  0
   24.7234    4.0748    2.0406 C   0  0  0  0  0  0
   26.9582    4.6501    0.4184 C   0  0  0  0  0  0
   26.9869    4.8971    1.8031 C   0  0  0  0  0  0
   25.8694    4.6500    2.6024 C   0  0  0  0  0  0
   26.0593    5.0363    3.9231 N   0  0  0  0  0  0
   27.3075    5.4899    4.2895 C   0  0  0  0  0  0
   28.3382    5.4500    2.7851 S   0  0  0  0  0  0
   28.1474    4.9753   -0.4977 C   0  0  2  0  0  0
   27.7919    5.5705   -1.8774 C   0  0  0  0  0  0
   28.9887    5.9778   -2.6232 N   0  0  1  0  0  0
   28.9486    3.8500   -0.7150 O   0  0  0  0  0  0
   23.5953    3.8500    2.7850 O   0  0  0  0  0  0
   27.6797    5.8500    5.4033 O   0  0  0  0  0  0
   29.7522    4.9004   -3.3223 C   0  0  1  0  0  0
   29.0080    4.5566   -4.6126 C   0  0  0  0  0  0
   29.4833    3.3412   -5.3917 C   0  0  0  0  0  0
   31.1759    5.4293   -3.6218 C   0  0  0  0  0  0
   32.2040    4.5681   -3.4983 N   0  0  0  0  0  0
   33.5941    4.8841   -3.8577 C   0  0  0  0  0  0
   31.3141    6.5837   -4.0150 O   0  0  0  0  0  0
   34.3347    5.7161   -2.7782 C   0  0  0  0  0  0
   34.5499    4.9235   -1.4715 C   0  0  0  0  0  0
   35.3259    3.6164   -1.7399 C   0  0  0  0  0  0
   34.6774    2.7728   -2.8589 C   0  0  0  0  0  0
   34.4242    3.6073   -4.1327 C   0  0  0  0  0  0
   30.6080    3.4152   -6.2404 C   0  0  0  0  0  0
   31.0020    2.2968   -6.9596 C   0  0  0  0  0  0
   30.3072    1.1028   -6.8226 C   0  0  0  0  0  0
   29.2405    0.9974   -5.9410 C   0  0  0  0  0  0
   28.8312    2.1041   -5.2150 C   0  0  0  0  0  0
   25.7614    3.8024   -1.1662 H   0  0  0  0  0  0
   23.8288    3.3120    0.2435 H   0  0  0  0  0  0
   25.3305    4.9939    4.6166 H   0  0  0  0  0  0
   28.7719    5.7127    0.0038 H   0  0  0  0  0  0
   27.1979    6.4700   -1.7093 H   0  0  0  0  0  0
   27.1570    4.9090   -2.4665 H   0  0  0  0  0  0
   28.6581    6.6176   -3.3347 H   0  0  0  0  0  0
   28.5257    3.2651   -1.3569 H   0  0  0  0  0  0
   23.6226    4.2228    3.6666 H   0  0  0  0  0  0
   29.8595    3.9568   -2.8012 H   0  0  0  0  0  0
   27.9475    4.3965   -4.4150 H   0  0  0  0  0  0
   29.0359    5.4570   -5.2150 H   0  0  0  0  0  0
   32.0299    3.6518   -3.1137 H   0  0  0  0  0  0
   33.5739    5.4500   -4.7920 H   0  0  0  0  0  0
   33.8080    6.6486   -2.5718 H   0  0  0  0  0  0
   35.3075    6.0167   -3.1701 H   0  0  0  0  0  0
   33.5866    4.6946   -1.0129 H   0  0  0  0  0  0
   35.0919    5.5356   -0.7495 H   0  0  0  0  0  0
   35.4080    3.0327   -0.8222 H   0  0  0  0  0  0
   36.3510    3.8601   -2.0260 H   0  0  0  0  0  0
   33.7303    2.3688   -2.5099 H   0  0  0  0  0  0
   35.3107    1.9148   -3.0895 H   0  0  0  0  0  0
   35.3827    3.8890   -4.5728 H   0  0  0  0  0  0
   33.9262    2.9950   -4.8860 H   0  0  0  0  0  0
   31.1413    4.3473   -6.3619 H   0  0  0  0  0  0
   31.8425    2.3605   -7.6353 H   0  0  0  0  0  0
   30.6080    0.2500   -7.4052 H   0  0  0  0  0  0
   28.7193    0.0581   -5.8249 H   0  0  0  0  0  0
   27.9891    2.0222   -4.5417 H   0  0  0  0  0  0
  1  4  1  0  0  0
  1  2  2  0  0  0
  1 33  1  0  0  0
  2  3  1  0  0  0
  2 34  1  0  0  0
  3  6  2  0  0  0
  3 14  1  0  0  0
  4  5  2  0  0  0
  4 10  1  0  0  0
  5  9  1  0  0  0
  5  6  1  0  0  0
  6  7  1  0  0  0
  7  8  1  0  0  0
  7 35  1  0  0  0
  8  9  1  0  0  0
  8 15  2  0  0  0
 10 11  1  0  0  0
 10 13  1  0  0  0
 10 36  1  0  0  0
 11 12  1  0  0  0
 11 37  1  0  0  0
 11 38  1  0  0  0
 12 16  1  0  0  0
 12 39  1  0  0  0
 13 40  1  0  0  0
 14 41  1  0  0  0
 16 17  1  0  0  0
 16 19  1  0  0  0
 16 42  1  0  0  0
 17 18  1  0  0  0
 17 43  1  0  0  0
 17 44  1  0  0  0
 18 28  2  0  0  0
 18 32  1  0  0  0
 19 20  1  0  0  0
 19 22  2  0  0  0
 20 21  1  0  0  0
 20 45  1  0  0  0
 21 23  1  0  0  0
 21 27  1  0  0  0
 21 46  1  0  0  0
 23 24  1  0  0  0
 23 47  1  0  0  0
 23 48  1  0  0  0
 24 25  1  0  0  0
 24 49  1  0  0  0
 24 50  1  0  0  0
 25 26  1  0  0  0
 25 51  1  0  0  0
 25 52  1  0  0  0
 26 27  1  0  0  0
 26 53  1  0  0  0
 26 54  1  0  0  0
 27 55  1  0  0  0
 27 56  1  0  0  0
 28 29  1  0  0  0
 28 57  1  0  0  0
 29 30  2  0  0  0
 29 58  1  0  0  0
 30 31  1  0  0  0
 30 59  1  0  0  0
 31 32  2  0  0  0
 31 60  1  0  0  0
 32 61  1  0  0  0
M  END
> <s_m_entry_id>
3319

> <s_m_entry_name>
dock_pv.411

> <s_m_Source_Path>
/home/csk/Desktop/cluster/DUD-E-result/adrb1

> <s_m_Source_File>
dock_pv.maegz

> <i_m_Source_File_Index>
411

> <chembl_id>
CHEMBL1221805

> <chembl_pref_name>
None

> <i_lp_mmshare_version>
53161

> <i_f3d_flags>
0

> <r_lp_tautomer_probability>
1

> <s_lp_Force_Field>
OPLS_2005

> <r_lp_Energy>
26.694406

> <b_lp_Chiralities_Consistent>
1

> <s_lp_Variant>
CHEMBL213_lig1384-1

> <s_i_glide_gridfile>
glide-grid_2vt4

> <i_i_glide_lignum>
1676

> <i_i_glide_rotatable_bonds>
11

> <r_i_docking_score>
-6.96368824905328

> <r_i_glide_ligand_efficiency>
-0.217615257782915

> <r_i_glide_ligand_efficiency_sa>
-0.690885377459718

> <r_i_glide_ligand_efficiency_ln>
-1.55935962193544

> <r_i_glide_gscore>
-6.96368824905328

> <r_i_glide_lipo>
-2.66005667067238

> <r_i_glide_hbond>
-0.507010635137867

> <r_i_glide_metal>
0

> <r_i_glide_rewards>
-1.26377024208267

> <r_i_glide_evdw>
-42.0492210388184

> <r_i_glide_ecoul>
-7.38655090332031

> <r_i_glide_erotb>
0.677592986278601

> <r_i_glide_esite>
0

> <r_i_glide_emodel>
-66.5214944374114

> <r_i_glide_energy>
-49.4357719421387

> <r_i_glide_einternal>
9.05351829528809

> <i_i_glide_confnum>
68

> <i_i_glide_posenum>
100

> <r_i_glide_eff_state_penalty>
0

> <s_user_duplicate_titles>
CHEMBL213_lig1384

> <s_m_subgroup_title>
dock_pv

> <s_m_subgroupid>
dock_pv

> <b_m_subgroup_collapsed>
1

$$$$
CHEMBL213_lig121
                    3D
 Schrodinger Suite 2021-1.
 73 77  0  0  1  0            999 V2000
   35.2753    6.7548    3.5398 S   0  0  0  0  0  0
   27.1423    6.6481    4.9300 N   0  0  0  0  0  0
   29.2568    6.5757    4.2086 C   0  0  0  0  0  0
   27.2587    5.8842    3.8702 C   0  0  0  0  0  0
   28.5230    5.7951    3.3807 O   0  0  0  0  0  0
   35.6833    7.0526    1.8355 N   0  0  0  0  0  0
   28.3728    7.0745    5.1526 C   0  0  0  0  0  0
   33.4972    6.6746    3.6851 C   0  0  0  0  0  0
   35.8033    5.4503    3.9484 O   0  0  0  0  0  0
   35.6962    7.9640    4.2601 O   0  0  0  0  0  0
   30.7250    6.6500    3.9862 C   0  0  0  0  0  0
   31.4847    3.8100   -5.4384 C   0  0  0  0  0  0
   30.9795    2.1361   -7.1273 N   0  0  0  0  0  0
   32.9228    7.0481    4.8967 C   0  0  0  0  0  0
   32.6909    6.2506    2.6276 C   0  0  0  0  0  0
   31.3069    6.2494    2.7798 C   0  0  0  0  0  0
   31.5408    7.0480    5.0432 C   0  0  0  0  0  0
   26.1486    5.0992    3.1982 C   0  0  0  0  0  0
   35.7207    6.1292    0.7775 C   0  0  0  0  0  0
   32.4047    4.9476   -4.9711 C   0  0  1  0  0  0
   33.6893    3.5275   -3.3387 N   0  0  2  0  0  0
   35.9619    4.4617   -1.4551 C   0  0  0  0  0  0
   31.7543    3.1398   -6.6376 C   0  0  0  0  0  0
   35.8115    4.7419    0.9417 C   0  0  0  0  0  0
   35.7218    6.6675   -0.5118 C   0  0  0  0  0  0
   35.8421    5.8383   -1.6216 C   0  0  0  0  0  0
   35.9412    3.9123   -0.1723 C   0  0  0  0  0  0
   31.8080    5.8167   -4.0170 O   0  0  0  0  0  0
   26.5392    4.4885    1.8322 C   0  0  0  0  0  0
   33.7892    4.4506   -4.4723 C   0  0  0  0  0  0
   30.3550    3.4063   -4.7093 C   0  0  0  0  0  0
   29.8869    1.7739   -6.4060 C   0  0  0  0  0  0
   34.9032    2.7520   -3.0777 C   0  0  0  0  0  0
   36.1435    3.5834   -2.6838 C   0  0  0  0  0  0
   25.4424    3.6089    1.2186 C   0  0  0  0  0  0
   26.9119    5.5018    0.7258 C   0  0  0  0  0  0
   29.5430    2.3798   -5.1976 C   0  0  0  0  0  0
   26.2433    5.0021   -0.5623 C   0  0  0  0  0  0
   25.8231    3.5643   -0.2556 C   0  0  0  0  0  0
   35.6947    8.0235    1.5711 H   0  0  0  0  0  0
   28.6039    7.7289    5.9826 H   0  0  0  0  0  0
   33.5475    7.3645    5.7188 H   0  0  0  0  0  0
   33.1213    5.9443    1.6853 H   0  0  0  0  0  0
   30.6891    5.9092    1.9643 H   0  0  0  0  0  0
   31.1131    7.3520    5.9836 H   0  0  0  0  0  0
   25.8559    4.2849    3.8607 H   0  0  0  0  0  0
   25.2590    5.7210    3.1034 H   0  0  0  0  0  0
   32.5887    5.5765   -5.8437 H   0  0  0  0  0  0
   32.8735    2.9372   -3.4366 H   0  0  0  0  0  0
   32.6107    3.4091   -7.2408 H   0  0  0  0  0  0
   35.8091    4.2795    1.9127 H   0  0  0  0  0  0
   35.6486    7.7354   -0.6645 H   0  0  0  0  0  0
   35.8661    6.2512   -2.6176 H   0  0  0  0  0  0
   36.0387    2.8453   -0.0340 H   0  0  0  0  0  0
   31.0712    6.2619   -4.4481 H   0  0  0  0  0  0
   27.4073    3.8505    1.9851 H   0  0  0  0  0  0
   34.2975    3.9537   -5.3012 H   0  0  0  0  0  0
   34.4032    5.3103   -4.1987 H   0  0  0  0  0  0
   30.0991    3.8778   -3.7715 H   0  0  0  0  0  0
   29.2794    0.9806   -6.8138 H   0  0  0  0  0  0
   34.6615    2.0758   -2.2583 H   0  0  0  0  0  0
   35.1366    2.1305   -3.9411 H   0  0  0  0  0  0
   36.9916    2.9192   -2.5003 H   0  0  0  0  0  0
   36.4617    4.1955   -3.5281 H   0  0  0  0  0  0
   25.4068    2.6115    1.6536 H   0  0  0  0  0  0
   24.4568    4.0605    1.3440 H   0  0  0  0  0  0
   26.6070    6.5215    0.9631 H   0  0  0  0  0  0
   27.9932    5.5244    0.5959 H   0  0  0  0  0  0
   28.6667    2.0640   -4.6471 H   0  0  0  0  0  0
   26.9039    5.0539   -1.4292 H   0  0  0  0  0  0
   25.3647    5.6044   -0.7945 H   0  0  0  0  0  0
   26.6615    2.8824   -0.4118 H   0  0  0  0  0  0
   25.0083    3.2119   -0.8812 H   0  0  0  0  0  0
  1  6  1  0  0  0
  1  8  1  0  0  0
  1  9  2  0  0  0
  1 10  2  0  0  0
  2  7  1  0  0  0
  2  4  2  0  0  0
  3 11  1  0  0  0
  3  5  1  0  0  0
  3  7  2  0  0  0
  4  5  1  0  0  0
  4 18  1  0  0  0
  6 19  1  0  0  0
  6 40  1  0  0  0
  7 41  1  0  0  0
  8 14  2  0  0  0
  8 15  1  0  0  0
 11 16  1  0  0  0
 11 17  2  0  0  0
 12 20  1  0  0  0
 12 23  2  0  0  0
 12 31  1  0  0  0
 13 23  1  0  0  0
 13 32  2  0  0  0
 14 17  1  0  0  0
 14 42  1  0  0  0
 15 16  2  0  0  0
 15 43  1  0  0  0
 16 44  1  0  0  0
 17 45  1  0  0  0
 18 29  1  0  0  0
 18 46  1  0  0  0
 18 47  1  0  0  0
 19 24  2  0  0  0
 19 25  1  0  0  0
 20 30  1  0  0  0
 20 28  1  0  0  0
 20 48  1  0  0  0
 21 33  1  0  0  0
 21 30  1  0  0  0
 21 49  1  0  0  0
 22 26  1  0  0  0
 22 34  1  0  0  0
 22 27  2  0  0  0
 23 50  1  0  0  0
 24 27  1  0  0  0
 24 51  1  0  0  0
 25 26  2  0  0  0
 25 52  1  0  0  0
 26 53  1  0  0  0
 27 54  1  0  0  0
 28 55  1  0  0  0
 29 35  1  0  0  0
 29 36  1  0  0  0
 29 56  1  0  0  0
 30 57  1  0  0  0
 30 58  1  0  0  0
 31 37  2  0  0  0
 31 59  1  0  0  0
 32 37  1  0  0  0
 32 60  1  0  0  0
 33 34  1  0  0  0
 33 61  1  0  0  0
 33 62  1  0  0  0
 34 63  1  0  0  0
 34 64  1  0  0  0
 35 39  1  0  0  0
 35 65  1  0  0  0
 35 66  1  0  0  0
 36 38  1  0  0  0
 36 67  1  0  0  0
 36 68  1  0  0  0
 37 69  1  0  0  0
 38 39  1  0  0  0
 38 70  1  0  0  0
 38 71  1  0  0  0
 39 72  1  0  0  0
 39 73  1  0  0  0
M  END
> <s_m_entry_id>
3320

> <s_m_entry_name>
dock_pv.412

> <s_m_Source_Path>
/home/csk/Desktop/cluster/DUD-E-result/adrb1

> <s_m_Source_File>
dock_pv.maegz

> <i_m_Source_File_Index>
412

> <chembl_id>
CHEMBL36101

> <chembl_pref_name>
None

> <i_lp_mmshare_version>
53161

> <i_f3d_flags>
0

> <r_lp_tautomer_probability>
1

> <s_lp_Force_Field>
OPLS_2005

> <r_lp_Energy>
36.764846

> <b_lp_Chiralities_Consistent>
1

> <s_lp_Variant>
CHEMBL213_lig121-1

> <s_i_glide_gridfile>
glide-grid_2vt4

> <i_i_glide_lignum>
144

> <i_i_glide_rotatable_bonds>
13

> <r_i_docking_score>
-6.963058249917

> <r_i_glide_ligand_efficiency>
-0.178539955126077

> <r_i_glide_ligand_efficiency_sa>
-0.6054667381194

> <r_i_glide_ligand_efficiency_ln>
-1.49307734694485

> <r_i_glide_gscore>
-6.963058249917

> <r_i_glide_lipo>
-3.38897810217371

> <r_i_glide_hbond>
-0.156744354064234

> <r_i_glide_metal>
0

> <r_i_glide_rewards>
-0.247594379591474

> <r_i_glide_evdw>
-57.5913467407227

> <r_i_glide_ecoul>
-6.34992361068726

> <r_i_glide_erotb>
0.762314464551631

> <r_i_glide_esite>
-0.1

> <r_i_glide_emodel>
-85.3795892024415

> <r_i_glide_energy>
-63.9412703514099

> <r_i_glide_einternal>
7.13240146636963

> <i_i_glide_confnum>
44

> <i_i_glide_posenum>
179

> <r_i_glide_eff_state_penalty>
0

> <s_user_duplicate_titles>
CHEMBL213_lig121

> <s_m_subgroup_title>
dock_pv

> <s_m_subgroupid>
dock_pv

> <b_m_subgroup_collapsed>
1

$$$$
CHEMBL213_lig1234
                    3D
 Schrodinger Suite 2021-1.
 58 60  0  0  1  0            999 V2000
   26.6415    6.3213    5.0531 S   0  0  0  0  0  0
   26.1815    5.3835    3.5899 C   0  0  0  0  0  0
   36.2299    4.2376   -0.2569 N   0  0  0  0  0  0
   34.5885    4.8055   -1.9464 C   0  0  0  0  0  0
   27.0210    5.4501    2.4752 C   0  0  0  0  0  0
   35.6547    4.0092   -1.5070 C   0  0  0  0  0  0
   36.1045    5.3261    0.5279 C   0  0  0  0  0  0
   27.5857    4.9771    0.0807 C   0  0  0  0  0  0
   26.6735    4.8313    1.2700 C   0  0  0  0  0  0
   24.9838    4.6501    3.5076 C   0  0  0  0  0  0
   26.5328    5.4501    6.2253 O   0  0  0  0  0  0
   27.8991    7.0252    4.7836 O   0  0  0  0  0  0
   34.0407    5.8351   -0.9600 C   0  0  0  0  0  0
   34.0749    4.6160   -3.2381 C   0  0  0  0  0  0
   25.4083    7.5375    5.1850 N   0  0  0  0  0  0
   33.0423    5.4500   -3.6234 O   0  0  0  0  0  0
   28.8048    5.0500    0.2423 O   0  0  0  0  0  0
   36.7157    5.4511    1.5850 O   0  0  0  0  0  0
   25.5006    4.0627    1.2135 C   0  0  0  0  0  0
   24.6698    3.9666    2.3306 C   0  0  0  0  0  0
   35.1613    6.4112   -0.0514 C   0  0  0  0  0  0
   27.0029    4.9884   -1.1298 N   0  0  0  0  0  0
   32.3809    5.2717   -4.8792 C   0  0  0  0  0  0
   23.8089    4.6500    4.7856 Cl  0  0  0  0  0  0
   31.3923    4.0895   -4.8041 C   0  0  2  0  0  0
   29.5335    5.5300   -3.9302 N   0  0  2  0  0  0
   36.1800    3.0101   -2.3235 C   0  0  0  0  0  0
   30.7849    3.8514   -6.0607 O   0  0  0  0  0  0
   35.6644    2.8122   -3.5987 C   0  0  0  0  0  0
   34.6231    3.6140   -4.0580 C   0  0  0  0  0  0
   30.3071    4.2984   -3.7313 C   0  0  0  0  0  0
   27.7210    4.7890   -2.3853 C   0  0  0  0  0  0
   28.7141    5.9015   -2.7781 C   0  0  0  0  0  0
   36.9088    3.5707    0.0795 H   0  0  0  0  0  0
   27.9367    6.0243    2.5301 H   0  0  0  0  0  0
   33.2782    5.3607   -0.3396 H   0  0  0  0  0  0
   33.5354    6.6495   -1.4780 H   0  0  0  0  0  0
   24.5417    7.1491    5.5642 H   0  0  0  0  0  0
   25.7382    8.2595    5.8368 H   0  0  0  0  0  0
   25.2145    3.5472    0.3060 H   0  0  0  0  0  0
   23.7516    3.4009    2.2616 H   0  0  0  0  0  0
   35.7872    7.1006   -0.6187 H   0  0  0  0  0  0
   34.7318    6.9740    0.7782 H   0  0  0  0  0  0
   25.9949    5.0132   -1.1961 H   0  0  0  0  0  0
   31.8278    6.1876   -5.0979 H   0  0  0  0  0  0
   33.0931    5.1702   -5.6996 H   0  0  0  0  0  0
   31.9360    3.1813   -4.5432 H   0  0  0  0  0  0
   28.9695    5.4487   -4.7667 H   0  0  0  0  0  0
   37.0026    2.3985   -1.9837 H   0  0  0  0  0  0
   31.4714    3.7873   -6.7301 H   0  0  0  0  0  0
   36.0821    2.0462   -4.2358 H   0  0  0  0  0  0
   34.2618    3.4408   -5.0586 H   0  0  0  0  0  0
   29.6590    3.4215   -3.7358 H   0  0  0  0  0  0
   30.7888    4.3317   -2.7519 H   0  0  0  0  0  0
   27.0081    4.6448   -3.1931 H   0  0  0  0  0  0
   28.2436    3.8500   -2.2553 H   0  0  0  0  0  0
   29.3765    6.1607   -1.9526 H   0  0  0  0  0  0
   28.1644    6.8091   -3.0303 H   0  0  0  0  0  0
  1  2  1  0  0  0
  1 11  2  0  0  0
  1 12  2  0  0  0
  1 15  1  0  0  0
  2  5  2  0  0  0
  2 10  1  0  0  0
  3  6  1  0  0  0
  3  7  1  0  0  0
  3 34  1  0  0  0
  4 14  2  0  0  0
  4  6  1  0  0  0
  4 13  1  0  0  0
  5  9  1  0  0  0
  5 35  1  0  0  0
  6 27  2  0  0  0
  7 21  1  0  0  0
  7 18  2  0  0  0
  8  9  1  0  0  0
  8 17  2  0  0  0
  8 22  1  0  0  0
  9 19  2  0  0  0
 10 20  2  0  0  0
 10 24  1  0  0  0
 13 21  1  0  0  0
 13 36  1  0  0  0
 13 37  1  0  0  0
 14 16  1  0  0  0
 14 30  1  0  0  0
 15 38  1  0  0  0
 15 39  1  0  0  0
 16 23  1  0  0  0
 19 20  1  0  0  0
 19 40  1  0  0  0
 20 41  1  0  0  0
 21 42  1  0  0  0
 21 43  1  0  0  0
 22 32  1  0  0  0
 22 44  1  0  0  0
 23 25  1  0  0  0
 23 45  1  0  0  0
 23 46  1  0  0  0
 25 31  1  0  0  0
 25 28  1  0  0  0
 25 47  1  0  0  0
 26 33  1  0  0  0
 26 31  1  0  0  0
 26 48  1  0  0  0
 27 29  1  0  0  0
 27 49  1  0  0  0
 28 50  1  0  0  0
 29 30  2  0  0  0
 29 51  1  0  0  0
 30 52  1  0  0  0
 31 53  1  0  0  0
 31 54  1  0  0  0
 32 33  1  0  0  0
 32 55  1  0  0  0
 32 56  1  0  0  0
 33 57  1  0  0  0
 33 58  1  0  0  0
M  END
> <s_m_entry_id>
3321

> <s_m_entry_name>
dock_pv.413

> <s_m_Source_Path>
/home/csk/Desktop/cluster/DUD-E-result/adrb1

> <s_m_Source_File>
dock_pv.maegz

> <i_m_Source_File_Index>
413

> <chembl_id>
CHEMBL40343

> <chembl_pref_name>
None

> <i_lp_mmshare_version>
53161

> <i_f3d_flags>
0

> <r_lp_tautomer_probability>
1

> <s_lp_Force_Field>
OPLS_2005

> <r_lp_Energy>
34.117769

> <b_lp_Chiralities_Consistent>
1

> <s_lp_Variant>
CHEMBL213_lig1234-2

> <s_i_glide_gridfile>
glide-grid_2vt4

> <i_i_glide_lignum>
1473

> <i_i_glide_rotatable_bonds>
12

> <r_i_docking_score>
-6.96237544288498

> <r_i_glide_ligand_efficiency>
-0.210981074026818

> <r_i_glide_ligand_efficiency_sa>
-0.676729037131679

> <r_i_glide_ligand_efficiency_ln>
-1.54839624924689

> <r_i_glide_gscore>
-6.96237544288498

> <r_i_glide_lipo>
-2.60971536909148

> <r_i_glide_hbond>
-0.34786200721322

> <r_i_glide_metal>
0

> <r_i_glide_rewards>
-0.542783781042755

> <r_i_glide_evdw>
-50.3465347290039

> <r_i_glide_ecoul>
-10.8832855224609

> <r_i_glide_erotb>
0.743248019945694

> <r_i_glide_esite>
-0.0554427406638859

> <r_i_glide_emodel>
-82.6769249532756

> <r_i_glide_energy>
-61.2298202514648

> <r_i_glide_einternal>
7.27828979492188

> <i_i_glide_confnum>
28

> <i_i_glide_posenum>
236

> <r_i_glide_eff_state_penalty>
0

> <s_user_duplicate_titles>
CHEMBL213_lig1234,62038

> <s_m_subgroup_title>
dock_pv

> <s_m_subgroupid>
dock_pv

> <b_m_subgroup_collapsed>
1

$$$$
CHEMBL213_lig1114
                    3D
 Schrodinger Suite 2021-1.
 72 74  0  0  1  0            999 V2000
   31.4558    6.2496    2.8326 C   0  0  0  0  0  0
   32.6817    6.5769    3.4263 C   0  0  0  0  0  0
   33.8707    6.3679    2.7334 C   0  0  0  0  0  0
   33.8561    5.8500    1.4383 C   0  0  0  0  0  0
   32.6259    5.5467    0.8357 C   0  0  0  0  0  0
   31.4387    5.7245    1.5428 C   0  0  0  0  0  0
   30.2484    6.3236    3.4955 O   0  0  0  0  0  0
   29.9956    7.4557    4.3229 C   0  0  0  0  0  0
   28.8502    7.1624    5.3020 C   0  0  0  0  0  0
   27.6698    6.8536    4.5801 O   0  0  0  0  0  0
   35.0865    5.6751    0.8375 O   0  0  0  0  0  0
   35.1638    5.1429   -0.4858 C   0  0  0  0  0  0
   36.6331    4.7917   -0.7946 C   0  0  2  0  0  0
   36.9365    4.5986   -2.3007 C   0  0  0  0  0  0
   37.0080    3.6329   -0.0597 O   0  0  0  0  0  0
   36.2098    3.4717   -2.8874 N   0  0  1  0  0  0
   36.7205    3.1401   -4.2188 C   0  0  0  0  0  0
   36.3854    4.1537   -5.3296 C   0  0  0  0  0  0
   34.9718    4.5095   -5.4251 N   0  0  0  0  0  0
   34.0340    3.7237   -5.9668 C   0  0  0  0  0  0
   32.8234    4.0033   -5.4528 N   0  0  0  0  0  0
   34.2833    2.8381   -6.7860 O   0  0  0  0  0  0
   31.5895    3.3951   -5.7369 C   0  0  0  0  0  0
   30.5770    3.5878   -4.7936 C   0  0  0  0  0  0
   29.3118    3.0500   -5.0083 C   0  0  0  0  0  0
   29.0604    2.3311   -6.1727 C   0  0  0  0  0  0
   30.0619    2.1228   -7.1146 C   0  0  0  0  0  0
   31.3293    2.6547   -6.9013 C   0  0  0  0  0  0
   27.8081    1.8524   -6.4184 O   0  0  0  0  0  0
   26.7345    6.0537    5.2862 C   0  0  0  0  0  0
   25.4520    5.8926    4.4514 C   0  0  0  0  0  0
   25.5683    5.0500    3.1762 C   0  0  0  0  0  0
   26.6078    5.2449    2.2559 C   0  0  0  0  0  0
   26.6201    4.5349    1.0569 C   0  0  0  0  0  0
   25.6193    3.6060    0.7860 C   0  0  0  0  0  0
   24.5863    3.4002    1.6959 C   0  0  0  0  0  0
   24.5573    4.1283    2.8826 C   0  0  0  0  0  0
   25.6591    2.8908   -0.3591 F   0  0  0  0  0  0
   32.7353    6.9523    4.4355 H   0  0  0  0  0  0
   34.8132    6.6048    3.2025 H   0  0  0  0  0  0
   32.5714    5.1524   -0.1665 H   0  0  0  0  0  0
   30.4975    5.4503    1.0896 H   0  0  0  0  0  0
   30.8572    7.8016    4.8911 H   0  0  0  0  0  0
   29.7059    8.2501    3.6478 H   0  0  0  0  0  0
   29.1370    6.3295    5.9391 H   0  0  0  0  0  0
   28.6702    8.0155    5.9572 H   0  0  0  0  0  0
   34.8010    5.8949   -1.1885 H   0  0  0  0  0  0
   34.5444    4.2529   -0.6116 H   0  0  0  0  0  0
   37.2568    5.6127   -0.4377 H   0  0  0  0  0  0
   38.0138    4.4566   -2.4192 H   0  0  0  0  0  0
   36.6820    5.5135   -2.8395 H   0  0  0  0  0  0
   37.8467    3.2877   -0.4150 H   0  0  0  0  0  0
   36.3064    2.6726   -2.2699 H   0  0  0  0  0  0
   36.3327    2.1614   -4.5061 H   0  0  0  0  0  0
   37.8054    3.0500   -4.1745 H   0  0  0  0  0  0
   36.7412    3.7736   -6.2892 H   0  0  0  0  0  0
   36.9739    5.0500   -5.1681 H   0  0  0  0  0  0
   34.7108    5.4037   -5.0399 H   0  0  0  0  0  0
   32.8036    4.6772   -4.7039 H   0  0  0  0  0  0
   30.7598    4.1551   -3.8918 H   0  0  0  0  0  0
   28.5301    3.2040   -4.2771 H   0  0  0  0  0  0
   29.8507    1.5690   -8.0165 H   0  0  0  0  0  0
   32.0804    2.5065   -7.6623 H   0  0  0  0  0  0
   27.1598    2.0867   -5.7402 H   0  0  0  0  0  0
   27.1579    5.0768    5.5280 H   0  0  0  0  0  0
   26.4861    6.5469    6.2286 H   0  0  0  0  0  0
   24.6891    5.4566    5.0978 H   0  0  0  0  0  0
   25.0800    6.8794    4.1735 H   0  0  0  0  0  0
   27.3916    5.9631    2.4353 H   0  0  0  0  0  0
   27.4136    4.6915    0.3414 H   0  0  0  0  0  0
   23.8083    2.6851    1.4737 H   0  0  0  0  0  0
   23.7376    3.9827    3.5715 H   0  0  0  0  0  0
  1  2  2  0  0  0
  1  6  1  0  0  0
  1  7  1  0  0  0
  2  3  1  0  0  0
  2 39  1  0  0  0
  3  4  2  0  0  0
  3 40  1  0  0  0
  4  5  1  0  0  0
  4 11  1  0  0  0
  5  6  2  0  0  0
  5 41  1  0  0  0
  6 42  1  0  0  0
  7  8  1  0  0  0
  8  9  1  0  0  0
  8 43  1  0  0  0
  8 44  1  0  0  0
  9 10  1  0  0  0
  9 45  1  0  0  0
  9 46  1  0  0  0
 10 30  1  0  0  0
 11 12  1  0  0  0
 12 13  1  0  0  0
 12 47  1  0  0  0
 12 48  1  0  0  0
 13 14  1  0  0  0
 13 15  1  0  0  0
 13 49  1  0  0  0
 14 16  1  0  0  0
 14 50  1  0  0  0
 14 51  1  0  0  0
 15 52  1  0  0  0
 16 17  1  0  0  0
 16 53  1  0  0  0
 17 18  1  0  0  0
 17 54  1  0  0  0
 17 55  1  0  0  0
 18 19  1  0  0  0
 18 56  1  0  0  0
 18 57  1  0  0  0
 19 20  1  0  0  0
 19 58  1  0  0  0
 20 21  1  0  0  0
 20 22  2  0  0  0
 21 23  1  0  0  0
 21 59  1  0  0  0
 23 24  2  0  0  0
 23 28  1  0  0  0
 24 25  1  0  0  0
 24 60  1  0  0  0
 25 26  2  0  0  0
 25 61  1  0  0  0
 26 27  1  0  0  0
 26 29  1  0  0  0
 27 28  2  0  0  0
 27 62  1  0  0  0
 28 63  1  0  0  0
 29 64  1  0  0  0
 30 31  1  0  0  0
 30 65  1  0  0  0
 30 66  1  0  0  0
 31 32  1  0  0  0
 31 67  1  0  0  0
 31 68  1  0  0  0
 32 33  2  0  0  0
 32 37  1  0  0  0
 33 34  1  0  0  0
 33 69  1  0  0  0
 34 35  2  0  0  0
 34 70  1  0  0  0
 35 36  1  0  0  0
 35 38  1  0  0  0
 36 37  2  0  0  0
 36 71  1  0  0  0
 37 72  1  0  0  0
M  END
> <s_m_entry_id>
3322

> <s_m_entry_name>
dock_pv.414

> <s_m_Source_Path>
/home/csk/Desktop/cluster/DUD-E-result/adrb1

> <s_m_Source_File>
dock_pv.maegz

> <i_m_Source_File_Index>
414

> <chembl_id>
CHEMBL2348218

> <chembl_pref_name>
None

> <i_lp_mmshare_version>
53161

> <i_f3d_flags>
0

> <r_lp_tautomer_probability>
0.999999999997365

> <s_lp_Force_Field>
OPLS_2005

> <r_lp_Energy>
35.803169

> <b_lp_Chiralities_Consistent>
1

> <s_lp_Variant>
CHEMBL213_lig1114-1

> <s_i_glide_gridfile>
glide-grid_2vt4

> <i_i_glide_lignum>
1303

> <i_i_glide_rotatable_bonds>
20

> <r_i_docking_score>
-6.96183468665585

> <r_i_glide_ligand_efficiency>
-0.183206175964628

> <r_i_glide_ligand_efficiency_sa>
-0.615934657219923

> <r_i_glide_ligand_efficiency_ln>
-1.50117635487048

> <r_i_glide_gscore>
-6.96183468665585

> <r_i_glide_lipo>
-4.1142328386349

> <r_i_glide_hbond>
-0.304

> <r_i_glide_metal>
0

> <r_i_glide_rewards>
-0.101357454845811

> <r_i_glide_evdw>
-52.5407295227051

> <r_i_glide_ecoul>
-6.63998937606812

> <r_i_glide_erotb>
1.25791363624364

> <r_i_glide_esite>
-0.0771231468733119

> <r_i_glide_emodel>
-79.7193963508406

> <r_i_glide_energy>
-59.1807188987732

> <r_i_glide_einternal>
9.92682456970215

> <i_i_glide_confnum>
50

> <i_i_glide_posenum>
295

> <r_i_glide_eff_state_penalty>
0

> <s_user_duplicate_titles>
CHEMBL213_lig1114

> <s_m_subgroup_title>
dock_pv

> <s_m_subgroupid>
dock_pv

> <b_m_subgroup_collapsed>
1

$$$$
CHEMBL213_lig1039
                    3D
 Schrodinger Suite 2021-1.
 62 64  0  0  1  0            999 V2000
   29.3810    7.4982   -4.0154 C   0  0  0  0  0  0
   28.5440    6.2753   -3.5842 C   0  0  0  0  0  0
   27.0676    6.5038   -4.0150 C   0  0  0  0  0  0
   24.5936    3.4351    2.0280 C   0  0  0  0  0  0
   24.9508    3.1069    0.7253 C   0  0  0  0  0  0
   26.0487    3.6878    0.1214 C   0  0  0  0  0  0
   26.8185    4.6453    0.7932 C   0  0  0  0  0  0
   25.3602    4.3737    2.7147 C   0  0  0  0  0  0
   26.4702    4.9675    2.1093 C   0  0  0  0  0  0
   27.2376    5.8524    2.8403 O   0  0  0  0  0  0
   26.5161    6.6500    3.8105 C   0  0  0  0  0  0
   25.4852    5.8500    4.6524 C   0  0  0  0  0  0
   25.0080    4.7819    3.9850 N   0  0  0  0  0  0
   25.1312    6.1431    5.7917 O   0  0  0  0  0  0
   24.2080    2.2500   -0.0150 O   0  0  0  0  0  0
   27.9052    5.4095    0.0525 C   0  0  2  0  0  0
   27.8090    5.2382   -1.4705 C   0  0  0  0  0  0
   29.2144    5.0500    0.4466 O   0  0  0  0  0  0
   28.6103    6.2500   -2.1295 N   0  0  2  0  0  0
   29.1392    4.9481   -4.1485 C   0  0  0  0  0  0
   30.6173    4.6745   -3.8609 C   0  0  0  0  0  0
   31.6026    5.1516   -4.7280 C   0  0  0  0  0  0
   32.9485    4.9069   -4.4644 C   0  0  0  0  0  0
   33.3381    4.1756   -3.3313 C   0  0  0  0  0  0
   32.3329    3.6889   -2.4841 C   0  0  0  0  0  0
   30.9879    3.9293   -2.7435 C   0  0  0  0  0  0
   34.8300    3.9062   -2.9926 C   0  0  0  0  0  0
   35.1191    4.1776   -1.4926 C   0  0  0  0  0  0
   35.8082    4.8002   -3.7942 C   0  0  0  0  0  0
   35.1678    2.4368   -3.3159 C   0  0  0  0  0  0
   29.4146    7.6079   -5.0952 H   0  0  0  0  0  0
   28.9717    8.4299   -3.6195 H   0  0  0  0  0  0
   30.4166    7.4256   -3.6826 H   0  0  0  0  0  0
   26.9786    7.2324   -4.8150 H   0  0  0  0  0  0
   26.6031    5.5821   -4.3635 H   0  0  0  0  0  0
   26.4415    6.9223   -3.2262 H   0  0  0  0  0  0
   23.7198    2.9857    2.4771 H   0  0  0  0  0  0
   26.2609    3.3911   -0.8950 H   0  0  0  0  0  0
   27.2015    7.1652    4.4835 H   0  0  0  0  0  0
   25.9245    7.3949    3.2760 H   0  0  0  0  0  0
   24.2847    4.2807    4.4767 H   0  0  0  0  0  0
   23.7954    2.6823   -0.7839 H   0  0  0  0  0  0
   27.7438    6.4561    0.3065 H   0  0  0  0  0  0
   26.7672    5.3598   -1.7674 H   0  0  0  0  0  0
   28.1144    4.2297   -1.7490 H   0  0  0  0  0  0
   29.7957    5.3099   -0.2756 H   0  0  0  0  0  0
   28.3408    7.1659   -1.7969 H   0  0  0  0  0  0
   29.0191    4.9520   -5.2150 H   0  0  0  0  0  0
   28.5506    4.0827   -3.8418 H   0  0  0  0  0  0
   31.3298    5.7267   -5.6019 H   0  0  0  0  0  0
   33.6751    5.3025   -5.1577 H   0  0  0  0  0  0
   32.5854    3.1069   -1.6153 H   0  0  0  0  0  0
   30.2377    3.5329   -2.0750 H   0  0  0  0  0  0
   36.1821    4.0810   -1.2648 H   0  0  0  0  0  0
   34.6080    3.4783   -0.8332 H   0  0  0  0  0  0
   34.8172    5.1853   -1.2039 H   0  0  0  0  0  0
   35.7549    4.6240   -4.8691 H   0  0  0  0  0  0
   35.6070    5.8537   -3.6162 H   0  0  0  0  0  0
   36.8465    4.6234   -3.5084 H   0  0  0  0  0  0
   35.0808    2.2500   -4.3866 H   0  0  0  0  0  0
   36.1876    2.1799   -3.0237 H   0  0  0  0  0  0
   34.4987    1.7438   -2.8076 H   0  0  0  0  0  0
  1  2  1  0  0  0
  1 31  1  0  0  0
  1 32  1  0  0  0
  1 33  1  0  0  0
  2 19  1  0  0  0
  2  3  1  0  0  0
  2 20  1  0  0  0
  3 34  1  0  0  0
  3 35  1  0  0  0
  3 36  1  0  0  0
  4  8  2  0  0  0
  4  5  1  0  0  0
  4 37  1  0  0  0
  5 15  1  0  0  0
  5  6  2  0  0  0
  6  7  1  0  0  0
  6 38  1  0  0  0
  7 16  1  0  0  0
  7  9  2  0  0  0
  8  9  1  0  0  0
  8 13  1  0  0  0
  9 10  1  0  0  0
 10 11  1  0  0  0
 11 12  1  0  0  0
 11 39  1  0  0  0
 11 40  1  0  0  0
 12 13  1  0  0  0
 12 14  2  0  0  0
 13 41  1  0  0  0
 15 42  1  0  0  0
 16 17  1  0  0  0
 16 18  1  0  0  0
 16 43  1  0  0  0
 17 19  1  0  0  0
 17 44  1  0  0  0
 17 45  1  0  0  0
 18 46  1  0  0  0
 19 47  1  0  0  0
 20 21  1  0  0  0
 20 48  1  0  0  0
 20 49  1  0  0  0
 21 22  2  0  0  0
 21 26  1  0  0  0
 22 23  1  0  0  0
 22 50  1  0  0  0
 23 24  2  0  0  0
 23 51  1  0  0  0
 24 25  1  0  0  0
 24 27  1  0  0  0
 25 26  2  0  0  0
 25 52  1  0  0  0
 26 53  1  0  0  0
 27 28  1  0  0  0
 27 29  1  0  0  0
 27 30  1  0  0  0
 28 54  1  0  0  0
 28 55  1  0  0  0
 28 56  1  0  0  0
 29 57  1  0  0  0
 29 58  1  0  0  0
 29 59  1  0  0  0
 30 60  1  0  0  0
 30 61  1  0  0  0
 30 62  1  0  0  0
M  END
> <s_m_entry_id>
3323

> <s_m_entry_name>
dock_pv.415

> <s_m_Source_Path>
/home/csk/Desktop/cluster/DUD-E-result/adrb1

> <s_m_Source_File>
dock_pv.maegz

> <i_m_Source_File_Index>
415

> <chembl_id>
CHEMBL606208

> <chembl_pref_name>
None

> <i_lp_mmshare_version>
53161

> <i_f3d_flags>
0

> <r_lp_tautomer_probability>
0.999999999999998

> <s_lp_Force_Field>
OPLS_2005

> <r_lp_Energy>
39.272133

> <b_lp_Chiralities_Consistent>
1

> <s_lp_Variant>
CHEMBL213_lig1039-1

> <s_i_glide_gridfile>
glide-grid_2vt4

> <i_i_glide_lignum>
1198

> <i_i_glide_rotatable_bonds>
9

> <r_i_docking_score>
-6.96049281371143

> <r_i_glide_ligand_efficiency>
-0.232016427123714

> <r_i_glide_ligand_efficiency_sa>
-0.720928983456739

> <r_i_glide_ligand_efficiency_ln>
-1.5814998079188

> <r_i_glide_gscore>
-6.96049281371143

> <r_i_glide_lipo>
-3.21344593725783

> <r_i_glide_hbond>
-0.16

> <r_i_glide_metal>
0

> <r_i_glide_rewards>
-1.37471917958364

> <r_i_glide_evdw>
-37.424243927002

> <r_i_glide_ecoul>
-6.90928411483765

> <r_i_glide_erotb>
0.695277116705782

> <r_i_glide_esite>
0

> <r_i_glide_emodel>
-59.0926432195976

> <r_i_glide_energy>
-44.3335280418396

> <r_i_glide_einternal>
8.00131225585938

> <i_i_glide_confnum>
28

> <i_i_glide_posenum>
343

> <r_i_glide_eff_state_penalty>
0

> <s_user_duplicate_titles>
CHEMBL213_lig1039

> <s_m_subgroup_title>
dock_pv

> <s_m_subgroupid>
dock_pv

> <b_m_subgroup_collapsed>
1

$$$$
CHEMBL213_lig870
                    3D
 Schrodinger Suite 2021-1.
 57 60  0  0  1  0            999 V2000
   33.9421    3.4993   -7.8249 C   0  0  0  0  0  0
   34.6611    3.8913   -6.6965 C   0  0  0  0  0  0
   34.1385    3.6608   -5.4259 C   0  0  0  0  0  0
   32.8918    3.0508   -5.2879 C   0  0  0  0  0  0
   32.1404    2.6765   -6.4126 C   0  0  0  0  0  0
   32.6893    2.8975   -7.6805 C   0  0  0  0  0  0
   30.7417    2.0500   -6.2768 C   0  0  2  0  0  0
   29.6162    3.0749   -6.0313 C   0  0  0  0  0  0
   30.6079    1.0647   -5.2686 O   0  0  0  0  0  0
   34.6076    3.7599   -9.3972 Cl  0  0  0  0  0  0
   29.5677    3.6054   -4.6627 N   0  0  1  0  0  0
   30.3428    4.8138   -4.3637 C   0  0  1  0  0  0
   29.7447    6.1516   -4.8163 C   0  0  0  0  0  0
   28.3278    6.3293   -4.2373 C   0  0  0  0  0  0
   30.6157    4.9390   -2.8566 C   0  0  0  0  0  0
   29.3427    5.3334   -2.0991 C   0  0  0  0  0  0
   28.2861    6.0254   -2.7416 C   0  0  0  0  0  0
   27.1677    6.4060   -1.9958 C   0  0  0  0  0  0
   27.0855    6.1336   -0.6364 C   0  0  0  0  0  0
   28.1226    5.4455   -0.0004 C   0  0  0  0  0  0
   29.2315    5.0493   -0.7380 C   0  0  0  0  0  0
   28.1573    5.2086    1.3554 O   0  0  0  0  0  0
   27.0078    5.0465    2.0858 C   0  0  0  0  0  0
   25.9547    4.2480    1.6327 C   0  0  0  0  0  0
   24.8436    4.0416    2.4396 C   0  0  0  0  0  0
   24.7669    4.6500    3.6906 C   0  0  0  0  0  0
   25.8072    5.4707    4.1551 C   0  0  0  0  0  0
   26.9376    5.6402    3.3436 C   0  0  0  0  0  0
   25.6805    6.2019    5.4679 C   0  0  0  0  0  0
   26.8572    6.6499    5.9840 O   0  0  0  0  0  0
   24.6006    6.3801    6.0244 O   0  0  0  0  0  0
   23.8076    3.2394    1.9821 N   0  0  0  0  0  0
   35.6233    4.3738   -6.8049 H   0  0  0  0  0  0
   34.6983    3.9571   -4.5507 H   0  0  0  0  0  0
   32.4991    2.8738   -4.2967 H   0  0  0  0  0  0
   32.1419    2.6068   -8.5643 H   0  0  0  0  0  0
   30.5225    1.5374   -7.2150 H   0  0  0  0  0  0
   28.6626    2.5737   -6.2060 H   0  0  0  0  0  0
   29.6899    3.8499   -6.7841 H   0  0  0  0  0  0
   30.1679    1.5105   -4.5327 H   0  0  0  0  0  0
   28.6080    3.7391   -4.3598 H   0  0  0  0  0  0
   31.2817    4.7479   -4.8950 H   0  0  0  0  0  0
   29.8091    6.2511   -5.8996 H   0  0  0  0  0  0
   30.3570    6.9710   -4.4335 H   0  0  0  0  0  0
   27.6297    5.6574   -4.7348 H   0  0  0  0  0  0
   27.9693    7.3443   -4.4148 H   0  0  0  0  0  0
   31.3871    5.6854   -2.6708 H   0  0  0  0  0  0
   30.9725    3.9866   -2.4620 H   0  0  0  0  0  0
   26.3503    6.9213   -2.4798 H   0  0  0  0  0  0
   26.2239    6.4706   -0.0804 H   0  0  0  0  0  0
   30.0373    4.5375   -0.2329 H   0  0  0  0  0  0
   26.0191    3.7700    0.6654 H   0  0  0  0  0  0
   23.8832    4.5028    4.2953 H   0  0  0  0  0  0
   27.7693    6.2512    3.6646 H   0  0  0  0  0  0
   26.6877    7.2893    6.6927 H   0  0  0  0  0  0
   23.7911    3.0125    0.9963 H   0  0  0  0  0  0
   22.9451    3.2289    2.5038 H   0  0  0  0  0  0
  1 10  1  0  0  0
  1  6  1  0  0  0
  1  2  2  0  0  0
  2  3  1  0  0  0
  2 33  1  0  0  0
  3  4  2  0  0  0
  3 34  1  0  0  0
  4  5  1  0  0  0
  4 35  1  0  0  0
  5  6  2  0  0  0
  5  7  1  0  0  0
  6 36  1  0  0  0
  7  8  1  0  0  0
  7  9  1  0  0  0
  7 37  1  0  0  0
  8 11  1  0  0  0
  8 38  1  0  0  0
  8 39  1  0  0  0
  9 40  1  0  0  0
 11 12  1  0  0  0
 11 41  1  0  0  0
 12 13  1  0  0  0
 12 15  1  0  0  0
 12 42  1  0  0  0
 13 14  1  0  0  0
 13 43  1  0  0  0
 13 44  1  0  0  0
 14 17  1  0  0  0
 14 45  1  0  0  0
 14 46  1  0  0  0
 15 16  1  0  0  0
 15 47  1  0  0  0
 15 48  1  0  0  0
 16 17  2  0  0  0
 16 21  1  0  0  0
 17 18  1  0  0  0
 18 19  2  0  0  0
 18 49  1  0  0  0
 19 20  1  0  0  0
 19 50  1  0  0  0
 20 21  2  0  0  0
 20 22  1  0  0  0
 21 51  1  0  0  0
 22 23  1  0  0  0
 23 24  2  0  0  0
 23 28  1  0  0  0
 24 25  1  0  0  0
 24 52  1  0  0  0
 25 26  2  0  0  0
 25 32  1  0  0  0
 26 27  1  0  0  0
 26 53  1  0  0  0
 27 28  2  0  0  0
 27 29  1  0  0  0
 28 54  1  0  0  0
 29 30  1  0  0  0
 29 31  2  0  0  0
 30 55  1  0  0  0
 32 56  1  0  0  0
 32 57  1  0  0  0
M  END
> <s_m_entry_id>
3324

> <s_m_entry_name>
dock_pv.416

> <s_m_Source_Path>
/home/csk/Desktop/cluster/DUD-E-result/adrb1

> <s_m_Source_File>
dock_pv.maegz

> <i_m_Source_File_Index>
416

> <chembl_id>
CHEMBL514094

> <chembl_pref_name>
None

> <i_lp_mmshare_version>
53161

> <i_f3d_flags>
0

> <r_lp_tautomer_probability>
1

> <s_lp_Force_Field>
OPLS_2005

> <r_lp_Energy>
29.327281

> <b_lp_Chiralities_Consistent>
1

> <s_lp_Variant>
CHEMBL213_lig870-1

> <s_i_glide_gridfile>
glide-grid_2vt4

> <i_i_glide_lignum>
978

> <i_i_glide_rotatable_bonds>
9

> <r_i_docking_score>
-6.9596439961608

> <r_i_glide_ligand_efficiency>
-0.217488874880025

> <r_i_glide_ligand_efficiency_sa>
-0.690484136754185

> <r_i_glide_ligand_efficiency_ln>
-1.55845400347064

> <r_i_glide_gscore>
-6.9596439961608

> <r_i_glide_lipo>
-3.22522940168081

> <r_i_glide_hbond>
0

> <r_i_glide_metal>
0

> <r_i_glide_rewards>
-1.06011069428025

> <r_i_glide_evdw>
-42.2564239501953

> <r_i_glide_ecoul>
-7.65635776519775

> <r_i_glide_erotb>
0.586970962089679

> <r_i_glide_esite>
0

> <r_i_glide_emodel>
-66.7201650062356

> <r_i_glide_energy>
-49.9127817153931

> <r_i_glide_einternal>
5.91606760025024

> <i_i_glide_confnum>
59

> <i_i_glide_posenum>
10

> <r_i_glide_eff_state_penalty>
0

> <s_user_duplicate_titles>
CHEMBL213_lig870,511867

> <s_m_subgroup_title>
dock_pv

> <s_m_subgroupid>
dock_pv

> <b_m_subgroup_collapsed>
1

$$$$
CHEMBL213_lig779
                    3D
 Schrodinger Suite 2021-1.
 75 76  0  0  1  0            999 V2000
   26.2807    4.6276    1.0404 C   0  0  0  0  0  0
   25.1652    3.8220    1.3175 C   0  0  0  0  0  0
   24.5883    3.8489    2.5848 C   0  0  0  0  0  0
   25.1058    4.6748    3.5795 C   0  0  0  0  0  0
   26.2090    5.5018    3.3285 C   0  0  0  0  0  0
   26.7899    5.4608    2.0497 C   0  0  0  0  0  0
   24.6082    2.9872    0.3850 O   0  0  0  0  0  0
   26.9564    4.6029   -0.3307 C   0  0  0  0  0  0
   26.4426    5.5800   -1.2137 O   0  0  0  0  0  0
   26.7553    6.4555    4.4133 C   0  0  2  0  0  0
   28.1122    6.0067    5.0083 C   0  0  0  0  0  0
   25.8620    6.6501    5.5037 O   0  0  0  0  0  0
   29.2532    6.1348    4.1016 N   0  0  2  0  0  0
   30.0197    7.3672    4.2326 C   0  0  0  0  0  0
   31.2751    7.3593    3.3286 C   0  0  0  0  0  0
   32.2190    6.1527    3.4861 C   0  0  0  0  0  0
   33.5250    6.2493    2.6718 C   0  0  0  0  0  0
   33.3675    5.8501    1.1905 C   0  0  0  0  0  0
   34.6040    6.1508    0.3304 C   0  0  0  0  0  0
   35.6717    5.3016    0.7373 O   0  0  0  0  0  0
   36.8156    5.2983   -0.1154 C   0  0  0  0  0  0
   36.5385    4.6800   -1.5020 C   0  0  0  0  0  0
   35.8201    3.3186   -1.4214 C   0  0  0  0  0  0
   35.6263    2.6307   -2.7818 C   0  0  0  0  0  0
   34.6090    3.3052   -3.6953 C   0  0  0  0  0  0
   35.0318    4.2386   -4.6498 C   0  0  0  0  0  0
   34.1171    4.7807   -5.5514 C   0  0  0  0  0  0
   32.7773    4.4016   -5.5093 C   0  0  0  0  0  0
   32.3440    3.4712   -4.5592 C   0  0  0  0  0  0
   33.2577    2.9461   -3.6350 C   0  0  0  0  0  0
   30.6466    2.8974   -4.5749 S   0  0  0  0  0  0
   29.8085    3.9411   -3.4386 N   0  0  2  0  0  0
   30.1082    3.1606   -5.9150 O   0  0  0  0  0  0
   30.6480    1.5409   -4.0158 O   0  0  0  0  0  0
   29.6439    5.3791   -3.7210 C   0  0  0  0  0  0
   23.7271    3.2280    2.7908 H   0  0  0  0  0  0
   24.6171    4.6797    4.5438 H   0  0  0  0  0  0
   27.6308    6.1015    1.8241 H   0  0  0  0  0  0
   24.5035    3.3783   -0.4931 H   0  0  0  0  0  0
   28.0297    4.7728   -0.2172 H   0  0  0  0  0  0
   26.8612    3.6192   -0.7905 H   0  0  0  0  0  0
   25.9375    5.1380   -1.9130 H   0  0  0  0  0  0
   26.8507    7.4501    3.9851 H   0  0  0  0  0  0
   28.3283    6.5580    5.9267 H   0  0  0  0  0  0
   28.0316    4.9574    5.2966 H   0  0  0  0  0  0
   26.2192    7.3221    6.0982 H   0  0  0  0  0  0
   29.0236    5.9312    3.1406 H   0  0  0  0  0  0
   29.4042    8.2343    3.9954 H   0  0  0  0  0  0
   30.3473    7.4631    5.2696 H   0  0  0  0  0  0
   31.0081    7.4665    2.2794 H   0  0  0  0  0  0
   31.8404    8.2500    3.5773 H   0  0  0  0  0  0
   32.4626    6.0301    4.5433 H   0  0  0  0  0  0
   31.6933    5.2498    3.1850 H   0  0  0  0  0  0
   33.9285    7.2599    2.7534 H   0  0  0  0  0  0
   34.2719    5.5953    3.1261 H   0  0  0  0  0  0
   33.1460    4.7909    1.1136 H   0  0  0  0  0  0
   32.4954    6.3352    0.7584 H   0  0  0  0  0  0
   34.3350    5.9753   -0.7116 H   0  0  0  0  0  0
   34.9095    7.1960    0.4155 H   0  0  0  0  0  0
   37.2185    6.3085   -0.2158 H   0  0  0  0  0  0
   37.5887    4.7116    0.3859 H   0  0  0  0  0  0
   35.9625    5.3745   -2.1125 H   0  0  0  0  0  0
   37.4906    4.5562   -2.0220 H   0  0  0  0  0  0
   36.3997    2.6540   -0.7783 H   0  0  0  0  0  0
   34.8536    3.4434   -0.9308 H   0  0  0  0  0  0
   36.5842    2.5506   -3.2983 H   0  0  0  0  0  0
   35.3111    1.5982   -2.6275 H   0  0  0  0  0  0
   36.0702    4.5327   -4.7085 H   0  0  0  0  0  0
   34.4555    5.4909   -6.2950 H   0  0  0  0  0  0
   32.0831    4.8174   -6.2284 H   0  0  0  0  0  0
   32.9246    2.2172   -2.9126 H   0  0  0  0  0  0
   29.7648    3.6316   -2.4651 H   0  0  0  0  0  0
   28.8556    5.7881   -3.0893 H   0  0  0  0  0  0
   30.5695    5.9040   -3.4880 H   0  0  0  0  0  0
   29.3910    5.5333   -4.7708 H   0  0  0  0  0  0
  1  6  1  0  0  0
  1  2  2  0  0  0
  1  8  1  0  0  0
  2  7  1  0  0  0
  2  3  1  0  0  0
  3  4  2  0  0  0
  3 36  1  0  0  0
  4  5  1  0  0  0
  4 37  1  0  0  0
  5  6  2  0  0  0
  5 10  1  0  0  0
  6 38  1  0  0  0
  7 39  1  0  0  0
  8  9  1  0  0  0
  8 40  1  0  0  0
  8 41  1  0  0  0
  9 42  1  0  0  0
 10 11  1  0  0  0
 10 12  1  0  0  0
 10 43  1  0  0  0
 11 13  1  0  0  0
 11 44  1  0  0  0
 11 45  1  0  0  0
 12 46  1  0  0  0
 13 14  1  0  0  0
 13 47  1  0  0  0
 14 15  1  0  0  0
 14 48  1  0  0  0
 14 49  1  0  0  0
 15 16  1  0  0  0
 15 50  1  0  0  0
 15 51  1  0  0  0
 16 17  1  0  0  0
 16 52  1  0  0  0
 16 53  1  0  0  0
 17 18  1  0  0  0
 17 54  1  0  0  0
 17 55  1  0  0  0
 18 19  1  0  0  0
 18 56  1  0  0  0
 18 57  1  0  0  0
 19 20  1  0  0  0
 19 58  1  0  0  0
 19 59  1  0  0  0
 20 21  1  0  0  0
 21 22  1  0  0  0
 21 60  1  0  0  0
 21 61  1  0  0  0
 22 23  1  0  0  0
 22 62  1  0  0  0
 22 63  1  0  0  0
 23 24  1  0  0  0
 23 64  1  0  0  0
 23 65  1  0  0  0
 24 25  1  0  0  0
 24 66  1  0  0  0
 24 67  1  0  0  0
 25 26  2  0  0  0
 25 30  1  0  0  0
 26 27  1  0  0  0
 26 68  1  0  0  0
 27 28  2  0  0  0
 27 69  1  0  0  0
 28 29  1  0  0  0
 28 70  1  0  0  0
 29 30  2  0  0  0
 29 31  1  0  0  0
 30 71  1  0  0  0
 31 32  1  0  0  0
 31 33  2  0  0  0
 31 34  2  0  0  0
 32 35  1  0  0  0
 32 72  1  0  0  0
 35 73  1  0  0  0
 35 74  1  0  0  0
 35 75  1  0  0  0
M  END
> <s_m_entry_id>
3325

> <s_m_entry_name>
dock_pv.417

> <s_m_Source_Path>
/home/csk/Desktop/cluster/DUD-E-result/adrb1

> <s_m_Source_File>
dock_pv.maegz

> <i_m_Source_File_Index>
417

> <chembl_id>
CHEMBL516056

> <chembl_pref_name>
None

> <i_lp_mmshare_version>
53161

> <i_f3d_flags>
0

> <r_lp_tautomer_probability>
0.999999999997365

> <s_lp_Force_Field>
OPLS_2005

> <r_lp_Energy>
16.287462

> <b_lp_Chiralities_Consistent>
1

> <s_lp_Variant>
CHEMBL213_lig779-1

> <s_i_glide_gridfile>
glide-grid_2vt4

> <i_i_glide_lignum>
887

> <i_i_glide_rotatable_bonds>
21

> <r_i_docking_score>
-6.95921032075546

> <r_i_glide_ligand_efficiency>
-0.198834580593013

> <r_i_glide_ligand_efficiency_sa>
-0.650401097107483

> <r_i_glide_ligand_efficiency_ln>
-1.52770111675728

> <r_i_glide_gscore>
-6.95921032075546

> <r_i_glide_lipo>
-3.61342876215443

> <r_i_glide_hbond>
-0.508483676159304

> <r_i_glide_metal>
0

> <r_i_glide_rewards>
-0.474182578094144

> <r_i_glide_evdw>
-50.8749618530273

> <r_i_glide_ecoul>
-7.59784507751465

> <r_i_glide_erotb>
1.34522359557407

> <r_i_glide_esite>
-0.0249140456430899

> <r_i_glide_emodel>
-81.7265298326693

> <r_i_glide_energy>
-58.472806930542

> <r_i_glide_einternal>
10.4139099121094

> <i_i_glide_confnum>
69

> <i_i_glide_posenum>
387

> <r_i_glide_eff_state_penalty>
0

> <s_user_duplicate_titles>
CHEMBL213_lig779,476134

> <s_m_subgroup_title>
dock_pv

> <s_m_subgroupid>
dock_pv

> <b_m_subgroup_collapsed>
1

$$$$
CHEMBL213_lig389
                    3D
 Schrodinger Suite 2021-1.
 66 69  0  0  1  0            999 V2000
   35.4122    6.8459   -0.8966 C   0  0  0  0  0  0
   35.2082    6.3840    0.4034 C   0  0  0  0  0  0
   35.2124    5.0682    0.7255 N   0  0  0  0  0  0
   35.4103    4.1760   -0.2782 C   0  0  0  0  0  0
   35.6063    4.5436   -1.6172 C   0  0  0  0  0  0
   35.6200    5.9108   -1.9110 C   0  0  0  0  0  0
   35.8451    3.5209   -2.7359 C   0  0  2  0  0  0
   34.6506    3.2724   -3.6918 C   0  0  0  0  0  0
   36.2083    2.2500   -2.2379 O   0  0  0  0  0  0
   33.9617    4.4838   -4.1358 N   0  0  1  0  0  0
   32.9899    4.2031   -5.1900 C   0  0  0  0  0  0
   31.7938    5.1785   -5.1115 C   0  0  0  0  0  0
   30.8565    5.0256   -3.9084 C   0  0  0  0  0  0
   29.7799    5.9096   -3.7761 C   0  0  0  0  0  0
   28.8647    5.7605   -2.7338 C   0  0  0  0  0  0
   29.0279    4.7181   -1.8121 C   0  0  0  0  0  0
   30.1151    3.8520   -1.9241 C   0  0  0  0  0  0
   31.0199    4.0034   -2.9640 C   0  0  0  0  0  0
   28.0994    4.4015   -0.8150 N   0  0  0  0  0  0
   27.1830    5.1880   -0.2129 C   0  0  0  0  0  0
   27.0861    6.4061   -0.3457 O   0  0  0  0  0  0
   26.2018    4.4122    0.6269 C   0  0  0  0  0  0
   25.4814    3.4041   -0.0243 C   0  0  0  0  0  0
   24.5314    2.6494    0.6419 C   0  0  0  0  0  0
   24.2914    2.8676    1.9871 C   0  0  0  0  0  0
   25.0080    3.8498    2.6625 C   0  0  0  0  0  0
   25.9643    4.6499    2.0078 C   0  0  0  0  0  0
   26.7122    5.7267    2.8250 C   0  0  0  0  0  0
   25.8433    6.3938    3.9293 C   0  0  0  0  0  0
   26.5810    7.4498    4.7575 C   0  0  0  0  0  0
   27.9433    6.9398    5.2796 C   0  0  0  0  0  0
   28.8019    6.2849    4.1764 C   0  0  0  0  0  0
   28.0408    5.1898    3.4028 C   0  0  0  0  0  0
   35.4071    7.9020   -1.1180 H   0  0  0  0  0  0
   35.0229    7.0798    1.2089 H   0  0  0  0  0  0
   35.4087    3.1369    0.0194 H   0  0  0  0  0  0
   35.7885    6.2487   -2.9246 H   0  0  0  0  0  0
   36.6882    3.8843   -3.3284 H   0  0  0  0  0  0
   33.9215    2.6420   -3.1806 H   0  0  0  0  0  0
   35.0057    2.7113   -4.5577 H   0  0  0  0  0  0
   37.1017    2.3132   -1.8720 H   0  0  0  0  0  0
   33.4984    4.9205   -3.3509 H   0  0  0  0  0  0
   32.6069    3.1868   -5.0776 H   0  0  0  0  0  0
   33.4674    4.2448   -6.1691 H   0  0  0  0  0  0
   31.1883    5.0350   -6.0068 H   0  0  0  0  0  0
   32.1451    6.2071   -5.1632 H   0  0  0  0  0  0
   29.6296    6.6971   -4.5006 H   0  0  0  0  0  0
   28.0124    6.4210   -2.6825 H   0  0  0  0  0  0
   30.2397    3.0313   -1.2320 H   0  0  0  0  0  0
   31.8238    3.2884   -3.0316 H   0  0  0  0  0  0
   28.0736    3.4216   -0.5755 H   0  0  0  0  0  0
   25.6192    3.2213   -1.0828 H   0  0  0  0  0  0
   23.9665    1.9066    0.1011 H   0  0  0  0  0  0
   23.5596    2.2704    2.5094 H   0  0  0  0  0  0
   24.8062    3.9579    3.7139 H   0  0  0  0  0  0
   26.9495    6.5260    2.1247 H   0  0  0  0  0  0
   25.4588    5.6667    4.6435 H   0  0  0  0  0  0
   25.0080    6.9059    3.4610 H   0  0  0  0  0  0
   25.9345    7.7315    5.5853 H   0  0  0  0  0  0
   26.6701    8.3702    4.1856 H   0  0  0  0  0  0
   27.7701    6.2127    6.0749 H   0  0  0  0  0  0
   28.4934    7.7621    5.7389 H   0  0  0  0  0  0
   29.7042    5.8515    4.6075 H   0  0  0  0  0  0
   29.1419    7.0504    3.4803 H   0  0  0  0  0  0
   28.6894    4.8415    2.5963 H   0  0  0  0  0  0
   27.8488    4.3466    4.0703 H   0  0  0  0  0  0
  1  6  1  0  0  0
  1  2  2  0  0  0
  1 34  1  0  0  0
  2  3  1  0  0  0
  2 35  1  0  0  0
  3  4  2  0  0  0
  4  5  1  0  0  0
  4 36  1  0  0  0
  5  6  2  0  0  0
  5  7  1  0  0  0
  6 37  1  0  0  0
  7  8  1  0  0  0
  7  9  1  0  0  0
  7 38  1  0  0  0
  8 10  1  0  0  0
  8 39  1  0  0  0
  8 40  1  0  0  0
  9 41  1  0  0  0
 10 11  1  0  0  0
 10 42  1  0  0  0
 11 12  1  0  0  0
 11 43  1  0  0  0
 11 44  1  0  0  0
 12 13  1  0  0  0
 12 45  1  0  0  0
 12 46  1  0  0  0
 13 18  1  0  0  0
 13 14  2  0  0  0
 14 15  1  0  0  0
 14 47  1  0  0  0
 15 16  2  0  0  0
 15 48  1  0  0  0
 16 17  1  0  0  0
 16 19  1  0  0  0
 17 18  2  0  0  0
 17 49  1  0  0  0
 18 50  1  0  0  0
 19 20  1  0  0  0
 19 51  1  0  0  0
 20 21  2  0  0  0
 20 22  1  0  0  0
 22 23  2  0  0  0
 22 27  1  0  0  0
 23 24  1  0  0  0
 23 52  1  0  0  0
 24 25  2  0  0  0
 24 53  1  0  0  0
 25 26  1  0  0  0
 25 54  1  0  0  0
 26 27  2  0  0  0
 26 55  1  0  0  0
 27 28  1  0  0  0
 28 29  1  0  0  0
 28 33  1  0  0  0
 28 56  1  0  0  0
 29 30  1  0  0  0
 29 57  1  0  0  0
 29 58  1  0  0  0
 30 31  1  0  0  0
 30 59  1  0  0  0
 30 60  1  0  0  0
 31 32  1  0  0  0
 31 61  1  0  0  0
 31 62  1  0  0  0
 32 33  1  0  0  0
 32 63  1  0  0  0
 32 64  1  0  0  0
 33 65  1  0  0  0
 33 66  1  0  0  0
M  END
> <s_m_entry_id>
3326

> <s_m_entry_name>
dock_pv.418

> <s_m_Source_Path>
/home/csk/Desktop/cluster/DUD-E-result/adrb1

> <s_m_Source_File>
dock_pv.maegz

> <i_m_Source_File_Index>
418

> <chembl_id>
CHEMBL1083832

> <chembl_pref_name>
None

> <i_lp_mmshare_version>
53161

> <i_f3d_flags>
0

> <r_lp_tautomer_probability>
1

> <s_lp_Force_Field>
OPLS_2005

> <r_lp_Energy>
34.614586

> <b_lp_Chiralities_Consistent>
1

> <s_lp_Variant>
CHEMBL213_lig389-1

> <s_i_glide_gridfile>
glide-grid_2vt4

> <i_i_glide_lignum>
457

> <i_i_glide_rotatable_bonds>
11

> <r_i_docking_score>
-6.95807229539149

> <r_i_glide_ligand_efficiency>
-0.210850675617924

> <r_i_glide_ligand_efficiency_sa>
-0.676310779759063

> <r_i_glide_ligand_efficiency_ln>
-1.54743925152484

> <r_i_glide_gscore>
-6.95807229539149

> <r_i_glide_lipo>
-3.43441204319766

> <r_i_glide_hbond>
-0.128706222518249

> <r_i_glide_metal>
0

> <r_i_glide_rewards>
-1.37032161458008

> <r_i_glide_evdw>
-49.9600257873535

> <r_i_glide_ecoul>
-2.68426370620728

> <r_i_glide_erotb>
0.914475855215867

> <r_i_glide_esite>
-0.0384674250126054

> <r_i_glide_emodel>
-66.65289754426

> <r_i_glide_energy>
-52.6442894935608

> <r_i_glide_einternal>
15.776195526123

> <i_i_glide_confnum>
13

> <i_i_glide_posenum>
96

> <r_i_glide_eff_state_penalty>
0

> <s_user_duplicate_titles>
CHEMBL213_lig389

> <s_m_subgroup_title>
dock_pv

> <s_m_subgroupid>
dock_pv

> <b_m_subgroup_collapsed>
1

$$$$
CHEMBL213_lig1477
                    3D
 Schrodinger Suite 2021-1.
 58 60  0  0  1  0            999 V2000
   30.0506    7.6386    4.7827 C   0  0  0  0  0  0
   30.7537    6.9298    3.8137 C   0  0  0  0  0  0
   30.1416    5.8563    3.1418 C   0  0  0  0  0  0
   28.8183    5.5234    3.4564 C   0  0  0  0  0  0
   28.0908    6.2593    4.4045 C   0  0  0  0  0  0
   28.7319    7.3091    5.0710 C   0  0  0  0  0  0
   32.0399    7.3183    3.5521 O   0  0  0  0  0  0
   30.8893    5.0377    2.0921 C   0  0  0  0  0  0
   30.2762    5.0500    0.8261 O   0  0  0  0  0  0
   26.6121    5.9839    4.7160 C   0  0  1  0  0  0
   25.9552    4.7812    3.9850 C   0  0  0  0  0  0
   26.3833    5.8498    6.1074 O   0  0  0  0  0  0
   25.8081    5.0475    2.5574 N   0  0  2  0  0  0
   25.1977    3.9513    1.8139 C   0  0  0  0  0  0
   25.0219    4.3121    0.3201 C   0  0  0  0  0  0
   26.2776    4.7835   -0.4150 C   0  0  0  0  0  0
   26.3334    6.0509   -1.0012 C   0  0  0  0  0  0
   27.4052    6.3972   -1.8254 C   0  0  0  0  0  0
   28.4410    5.4940   -2.0551 C   0  0  0  0  0  0
   28.4052    4.2501   -1.4236 C   0  0  0  0  0  0
   27.3265    3.8934   -0.6189 C   0  0  0  0  0  0
   29.4335    5.8497   -2.9856 N   0  0  0  0  0  0
   30.6759    5.2853   -3.3198 C   0  0  0  0  0  0
   31.1813    5.5296   -4.5990 C   0  0  0  0  0  0
   32.4152    5.0068   -4.9802 C   0  0  0  0  0  0
   33.1602    4.2516   -4.0753 C   0  0  0  0  0  0
   31.4367    4.5391   -2.4147 C   0  0  0  0  0  0
   32.6728    4.0192   -2.7879 C   0  0  0  0  0  0
   34.7287    3.6072   -4.5923 S   0  0  0  0  0  0
   35.5993    2.9391   -3.1416 C   0  0  0  0  0  0
   30.5225    8.4632    5.2987 H   0  0  0  0  0  0
   28.3707    4.6832    2.9489 H   0  0  0  0  0  0
   28.2079    7.8905    5.8110 H   0  0  0  0  0  0
   32.2684    8.1491    3.9865 H   0  0  0  0  0  0
   31.9154    5.3838    1.9688 H   0  0  0  0  0  0
   30.9496    3.9952    2.3930 H   0  0  0  0  0  0
   29.3570    4.7872    0.9119 H   0  0  0  0  0  0
   26.0571    6.8756    4.4205 H   0  0  0  0  0  0
   26.5222    3.8649    4.1617 H   0  0  0  0  0  0
   24.9497    4.6380    4.3847 H   0  0  0  0  0  0
   26.4846    6.7171    6.5146 H   0  0  0  0  0  0
   26.6570    5.3699    2.1128 H   0  0  0  0  0  0
   25.8080    3.0557    1.9037 H   0  0  0  0  0  0
   24.2150    3.7450    2.2410 H   0  0  0  0  0  0
   24.6541    3.4290   -0.2035 H   0  0  0  0  0  0
   24.2274    5.0468    0.1790 H   0  0  0  0  0  0
   25.5130    6.7402   -0.8904 H   0  0  0  0  0  0
   27.4083    7.3546   -2.3215 H   0  0  0  0  0  0
   29.1602    3.5046   -1.6152 H   0  0  0  0  0  0
   27.2771    2.8944   -0.2130 H   0  0  0  0  0  0
   29.1996    6.6675   -3.5282 H   0  0  0  0  0  0
   30.6183    6.1221   -5.3063 H   0  0  0  0  0  0
   32.7961    5.2005   -5.9728 H   0  0  0  0  0  0
   31.0963    4.3763   -1.4066 H   0  0  0  0  0  0
   33.2364    3.4507   -2.0636 H   0  0  0  0  0  0
   36.6065    2.6344   -3.4220 H   0  0  0  0  0  0
   35.6787    3.6942   -2.3606 H   0  0  0  0  0  0
   35.0756    2.0689   -2.7421 H   0  0  0  0  0  0
  1  2  2  0  0  0
  1  6  1  0  0  0
  1 31  1  0  0  0
  2  3  1  0  0  0
  2  7  1  0  0  0
  3  4  2  0  0  0
  3  8  1  0  0  0
  4  5  1  0  0  0
  4 32  1  0  0  0
  5  6  2  0  0  0
  5 10  1  0  0  0
  6 33  1  0  0  0
  7 34  1  0  0  0
  8  9  1  0  0  0
  8 35  1  0  0  0
  8 36  1  0  0  0
  9 37  1  0  0  0
 10 11  1  0  0  0
 10 12  1  0  0  0
 10 38  1  0  0  0
 11 13  1  0  0  0
 11 39  1  0  0  0
 11 40  1  0  0  0
 12 41  1  0  0  0
 13 14  1  0  0  0
 13 42  1  0  0  0
 14 15  1  0  0  0
 14 43  1  0  0  0
 14 44  1  0  0  0
 15 16  1  0  0  0
 15 45  1  0  0  0
 15 46  1  0  0  0
 16 17  2  0  0  0
 16 21  1  0  0  0
 17 18  1  0  0  0
 17 47  1  0  0  0
 18 19  2  0  0  0
 18 48  1  0  0  0
 19 20  1  0  0  0
 19 22  1  0  0  0
 20 21  2  0  0  0
 20 49  1  0  0  0
 21 50  1  0  0  0
 22 23  1  0  0  0
 22 51  1  0  0  0
 23 24  2  0  0  0
 23 27  1  0  0  0
 24 25  1  0  0  0
 24 52  1  0  0  0
 25 26  2  0  0  0
 25 53  1  0  0  0
 26 28  1  0  0  0
 26 29  1  0  0  0
 27 28  2  0  0  0
 27 54  1  0  0  0
 28 55  1  0  0  0
 29 30  1  0  0  0
 30 56  1  0  0  0
 30 57  1  0  0  0
 30 58  1  0  0  0
M  END
> <s_m_entry_id>
3327

> <s_m_entry_name>
dock_pv.419

> <s_m_Source_Path>
/home/csk/Desktop/cluster/DUD-E-result/adrb1

> <s_m_Source_File>
dock_pv.maegz

> <i_m_Source_File_Index>
419

> <chembl_id>
CHEMBL3290992

> <chembl_pref_name>
None

> <i_lp_mmshare_version>
53161

> <i_f3d_flags>
0

> <r_lp_tautomer_probability>
0.999999999997365

> <s_lp_Force_Field>
OPLS_2005

> <r_lp_Energy>
31.306896

> <b_lp_Chiralities_Consistent>
1

> <s_lp_Variant>
CHEMBL213_lig1477-2

> <s_i_glide_gridfile>
glide-grid_2vt4

> <i_i_glide_lignum>
1823

> <i_i_glide_rotatable_bonds>
13

> <r_i_docking_score>
-6.95565233863669

> <r_i_glide_ligand_efficiency>
-0.231855077954556

> <r_i_glide_ligand_efficiency_sa>
-0.720427634074091

> <r_i_glide_ligand_efficiency_ln>
-1.58039999924062

> <r_i_glide_gscore>
-6.95565233863669

> <r_i_glide_lipo>
-3.02464161203096

> <r_i_glide_hbond>
-0.467003096704887

> <r_i_glide_metal>
0

> <r_i_glide_rewards>
-0.965265045588391

> <r_i_glide_evdw>
-42.6811294555664

> <r_i_glide_ecoul>
-9.03192806243896

> <r_i_glide_erotb>
0.990103097831714

> <r_i_glide_esite>
0

> <r_i_glide_emodel>
-65.8027924801872

> <r_i_glide_energy>
-51.7130575180054

> <r_i_glide_einternal>
10.682900428772

> <i_i_glide_confnum>
99

> <i_i_glide_posenum>
393

> <r_i_glide_eff_state_penalty>
0

> <s_user_duplicate_titles>
CHEMBL213_lig1477

> <s_m_subgroup_title>
dock_pv

> <s_m_subgroupid>
dock_pv

> <b_m_subgroup_collapsed>
1

$$$$
CHEMBL213_lig149
                    3D
 Schrodinger Suite 2021-1.
 51 53  0  0  1  0            999 V2000
   32.6096    3.4509   -4.4680 S   0  0  0  0  0  0
   31.9860    5.0624   -4.1088 N   0  0  0  0  0  0
   31.3167    2.7222   -5.4538 C   0  0  0  0  0  0
   33.7809    3.6391   -5.3302 O   0  0  0  0  0  0
   32.6956    2.6955   -3.2144 O   0  0  0  0  0  0
   25.7105    4.5357    2.6617 C   0  0  0  0  0  0
   27.6315    5.8492    3.3867 N   0  0  0  0  0  0
   31.4116    2.7404   -6.8454 C   0  0  0  0  0  0
   30.1903    2.1954   -4.8159 C   0  0  0  0  0  0
   30.8295    5.2424   -3.3428 C   0  0  0  0  0  0
   25.1055    3.5138    1.6674 C   0  0  1  0  0  0
   29.2404    1.7184   -6.9713 C   0  0  0  0  0  0
   29.1464    1.6918   -5.5832 C   0  0  0  0  0  0
   30.3676    2.2307   -7.6075 C   0  0  0  0  0  0
   26.2415    4.3459   -0.4135 N   0  0  2  0  0  0
   27.8080    1.0553   -8.0156 Br  0  0  0  0  0  0
   28.6141    5.8475   -1.7667 C   0  0  0  0  0  0
   27.0273    4.9985    2.5173 C   0  0  0  0  0  0
   30.7502    4.7579   -2.0350 C   0  0  0  0  0  0
   29.7639    5.9608   -3.8877 C   0  0  0  0  0  0
   29.6395    5.0503   -1.2500 C   0  0  0  0  0  0
   28.6494    6.2507   -3.1040 C   0  0  0  0  0  0
   23.8211    3.0500    2.0546 O   0  0  0  0  0  0
   24.9689    3.9558    0.1873 C   0  0  0  0  0  0
   25.0080    4.9848    3.7896 C   0  0  0  0  0  0
   26.9135    6.2752    4.4539 C   0  0  0  0  0  0
   26.1738    5.6919   -0.9645 C   0  0  0  0  0  0
   27.5289    6.3765   -0.8409 C   0  0  0  0  0  0
   25.6038    5.8670    4.6951 C   0  0  0  0  0  0
   32.0839    5.6897   -4.8916 H   0  0  0  0  0  0
   32.2794    3.1594   -7.3358 H   0  0  0  0  0  0
   30.1143    2.1955   -3.7358 H   0  0  0  0  0  0
   25.7519    2.6382    1.6717 H   0  0  0  0  0  0
   28.2605    1.3012   -5.1001 H   0  0  0  0  0  0
   30.4235    2.2508   -8.6849 H   0  0  0  0  0  0
   26.4204    3.7309   -1.1999 H   0  0  0  0  0  0
   27.6485    4.6512    1.7067 H   0  0  0  0  0  0
   31.5687    4.2006   -1.6055 H   0  0  0  0  0  0
   29.8126    6.3308   -4.9019 H   0  0  0  0  0  0
   29.6111    4.7225   -0.2209 H   0  0  0  0  0  0
   27.8544    6.8580   -3.5139 H   0  0  0  0  0  0
   23.4072    2.6419    1.2907 H   0  0  0  0  0  0
   24.6071    3.1188   -0.4090 H   0  0  0  0  0  0
   24.1997    4.7251    0.0999 H   0  0  0  0  0  0
   23.9975    4.6502    3.9771 H   0  0  0  0  0  0
   27.4117    6.9588    5.1273 H   0  0  0  0  0  0
   25.9071    5.6341   -2.0146 H   0  0  0  0  0  0
   25.4085    6.3035   -0.4978 H   0  0  0  0  0  0
   27.4100    7.4441   -1.0254 H   0  0  0  0  0  0
   27.8458    6.3055    0.1957 H   0  0  0  0  0  0
   25.0631    6.2214    5.5601 H   0  0  0  0  0  0
  1  2  1  0  0  0
  1  3  1  0  0  0
  1  4  2  0  0  0
  1  5  2  0  0  0
  2 10  1  0  0  0
  2 30  1  0  0  0
  3  8  2  0  0  0
  3  9  1  0  0  0
  6 11  1  0  0  0
  6 18  1  0  0  0
  6 25  2  0  0  0
  7 18  2  0  0  0
  7 26  1  0  0  0
  8 14  1  0  0  0
  8 31  1  0  0  0
  9 13  2  0  0  0
  9 32  1  0  0  0
 10 19  1  0  0  0
 10 20  2  0  0  0
 11 24  1  0  0  0
 11 23  1  0  0  0
 11 33  1  0  0  0
 12 13  1  0  0  0
 12 16  1  0  0  0
 12 14  2  0  0  0
 13 34  1  0  0  0
 14 35  1  0  0  0
 15 27  1  0  0  0
 15 24  1  0  0  0
 15 36  1  0  0  0
 17 22  2  0  0  0
 17 28  1  0  0  0
 17 21  1  0  0  0
 18 37  1  0  0  0
 19 21  2  0  0  0
 19 38  1  0  0  0
 20 22  1  0  0  0
 20 39  1  0  0  0
 21 40  1  0  0  0
 22 41  1  0  0  0
 23 42  1  0  0  0
 24 43  1  0  0  0
 24 44  1  0  0  0
 25 29  1  0  0  0
 25 45  1  0  0  0
 26 29  2  0  0  0
 26 46  1  0  0  0
 27 28  1  0  0  0
 27 47  1  0  0  0
 27 48  1  0  0  0
 28 49  1  0  0  0
 28 50  1  0  0  0
 29 51  1  0  0  0
M  END
> <s_m_entry_id>
3328

> <s_m_entry_name>
dock_pv.420

> <s_m_Source_Path>
/home/csk/Desktop/cluster/DUD-E-result/adrb1

> <s_m_Source_File>
dock_pv.maegz

> <i_m_Source_File_Index>
420

> <chembl_id>
CHEMBL105968

> <chembl_pref_name>
None

> <i_lp_mmshare_version>
53161

> <i_f3d_flags>
0

> <r_lp_tautomer_probability>
1

> <s_lp_Force_Field>
OPLS_2005

> <r_lp_Energy>
19.974203

> <b_lp_Chiralities_Consistent>
1

> <s_lp_Variant>
CHEMBL213_lig149-1

> <s_i_glide_gridfile>
glide-grid_2vt4

> <i_i_glide_lignum>
181

> <i_i_glide_rotatable_bonds>
10

> <r_i_docking_score>
-6.95284641243612

> <r_i_glide_ligand_efficiency>
-0.239753324566763

> <r_i_glide_ligand_efficiency_sa>
-0.736598172253804

> <r_i_glide_ligand_efficiency_ln>
-1.59202551947521

> <r_i_glide_gscore>
-6.95284641243612

> <r_i_glide_lipo>
-3.40934314063555

> <r_i_glide_hbond>
0

> <r_i_glide_metal>
0

> <r_i_glide_rewards>
-1.119155979364

> <r_i_glide_evdw>
-48.5104713439941

> <r_i_glide_ecoul>
-4.75087213516235

> <r_i_glide_erotb>
0.713807095037496

> <r_i_glide_esite>
0

> <r_i_glide_emodel>
-69.6551913482407

> <r_i_glide_energy>
-53.2613434791565

> <r_i_glide_einternal>
12.797511100769

> <i_i_glide_confnum>
25

> <i_i_glide_posenum>
285

> <r_i_glide_eff_state_penalty>
0

> <s_user_duplicate_titles>
CHEMBL213_lig149

> <s_m_subgroup_title>
dock_pv

> <s_m_subgroupid>
dock_pv

> <b_m_subgroup_collapsed>
1

$$$$
CHEMBL213_lig1197
                    3D
 Schrodinger Suite 2021-1.
 48 50  0  0  1  0            999 V2000
   32.0970    5.0332   -3.8927 C   0  0  0  0  0  0
   32.0813    3.9963   -4.8225 C   0  0  0  0  0  0
   29.6858    4.8292   -3.5636 C   0  0  0  0  0  0
   30.9153    5.4453   -3.2762 C   0  0  0  0  0  0
   29.6764    3.7744   -4.4960 C   0  0  0  0  0  0
   30.8703    3.3623   -5.1245 C   0  0  0  0  0  0
   30.8290    2.3002   -6.0557 N   0  0  0  0  0  0
   29.7476    1.5769   -6.4170 C   0  0  0  0  0  0
   28.5248    2.0071   -5.7725 C   0  0  0  0  0  0
   28.4609    3.0231   -4.8846 C   0  0  0  0  0  0
   29.8098    0.6501   -7.2151 O   0  0  0  0  0  0
   33.2569    3.6176   -5.4262 O   0  0  0  0  0  0
   28.3771    5.3159   -2.9080 C   0  0  1  0  0  0
   28.6070    5.8499   -1.5617 N   0  0  2  0  0  0
   27.6502    6.3387   -3.8195 C   0  0  0  0  0  0
   26.3362    6.6500   -3.3972 O   0  0  0  0  0  0
   27.4667    5.7817   -0.6508 C   0  0  0  0  0  0
   26.9656    4.3487   -0.3600 C   0  0  0  0  0  0
   26.1114    4.2738    0.8960 C   0  0  0  0  0  0
   26.6069    4.7656    2.1095 C   0  0  0  0  0  0
   25.8082    4.7735    3.2627 C   0  0  0  0  0  0
   24.5179    4.2499    3.1849 C   0  0  0  0  0  0
   24.0269    3.7258    1.9905 C   0  0  0  0  0  0
   24.8207    3.7411    0.8461 C   0  0  0  0  0  0
   26.2082    5.2751    4.4855 O   0  0  0  0  0  0
   27.5293    5.7851    4.6322 C   0  0  0  0  0  0
   33.0288    5.5193   -3.6420 H   0  0  0  0  0  0
   30.9612    6.2498   -2.5599 H   0  0  0  0  0  0
   31.6896    2.0187   -6.4974 H   0  0  0  0  0  0
   27.6229    1.4720   -6.0247 H   0  0  0  0  0  0
   27.4932    3.2595   -4.4665 H   0  0  0  0  0  0
   33.9752    4.2445   -5.3003 H   0  0  0  0  0  0
   27.7560    4.4309   -2.8004 H   0  0  0  0  0  0
   28.7830    6.8369   -1.6843 H   0  0  0  0  0  0
   28.2300    7.2568   -3.9265 H   0  0  0  0  0  0
   27.5558    5.9126   -4.8148 H   0  0  0  0  0  0
   25.8123    5.8303   -3.3940 H   0  0  0  0  0  0
   27.7923    6.2499    0.2756 H   0  0  0  0  0  0
   26.6427    6.4168   -0.9740 H   0  0  0  0  0  0
   26.4024    3.9670   -1.2131 H   0  0  0  0  0  0
   27.8081    3.6712   -0.2400 H   0  0  0  0  0  0
   27.6122    5.1540    2.1421 H   0  0  0  0  0  0
   23.8893    4.2500    4.0625 H   0  0  0  0  0  0
   23.0234    3.3293    1.9476 H   0  0  0  0  0  0
   24.4204    3.3551   -0.0801 H   0  0  0  0  0  0
   27.6726    6.1182    5.6601 H   0  0  0  0  0  0
   28.2803    5.0208    4.4245 H   0  0  0  0  0  0
   27.7012    6.6441    3.9823 H   0  0  0  0  0  0
  1  2  2  0  0  0
  1  4  1  0  0  0
  1 27  1  0  0  0
  2  6  1  0  0  0
  2 12  1  0  0  0
  3  5  1  0  0  0
  3  4  2  0  0  0
  3 13  1  0  0  0
  4 28  1  0  0  0
  5  6  2  0  0  0
  5 10  1  0  0  0
  6  7  1  0  0  0
  7  8  1  0  0  0
  7 29  1  0  0  0
  8  9  1  0  0  0
  8 11  2  0  0  0
  9 10  2  0  0  0
  9 30  1  0  0  0
 10 31  1  0  0  0
 12 32  1  0  0  0
 13 14  1  0  0  0
 13 15  1  0  0  0
 13 33  1  0  0  0
 14 17  1  0  0  0
 14 34  1  0  0  0
 15 16  1  0  0  0
 15 35  1  0  0  0
 15 36  1  0  0  0
 16 37  1  0  0  0
 17 18  1  0  0  0
 17 38  1  0  0  0
 17 39  1  0  0  0
 18 19  1  0  0  0
 18 40  1  0  0  0
 18 41  1  0  0  0
 19 20  2  0  0  0
 19 24  1  0  0  0
 20 21  1  0  0  0
 20 42  1  0  0  0
 21 22  2  0  0  0
 21 25  1  0  0  0
 22 23  1  0  0  0
 22 43  1  0  0  0
 23 24  2  0  0  0
 23 44  1  0  0  0
 24 45  1  0  0  0
 25 26  1  0  0  0
 26 46  1  0  0  0
 26 47  1  0  0  0
 26 48  1  0  0  0
M  END
> <s_m_entry_id>
3329

> <s_m_entry_name>
dock_pv.421

> <s_m_Source_Path>
/home/csk/Desktop/cluster/DUD-E-result/adrb1

> <s_m_Source_File>
dock_pv.maegz

> <i_m_Source_File_Index>
421

> <chembl_id>
CHEMBL4291941

> <chembl_pref_name>
None

> <i_lp_mmshare_version>
53161

> <i_f3d_flags>
0

> <r_lp_tautomer_probability>
1

> <s_lp_Force_Field>
OPLS_2005

> <r_lp_Energy>
33.968919

> <b_lp_Chiralities_Consistent>
1

> <s_lp_Variant>
CHEMBL213_lig1197-2

> <s_i_glide_gridfile>
glide-grid_2vt4

> <i_i_glide_lignum>
1407

> <i_i_glide_rotatable_bonds>
9

> <r_i_docking_score>
-6.949921617295

> <r_i_glide_ligand_efficiency>
-0.267304677588269

> <r_i_glide_ligand_efficiency_sa>
-0.79188905556213

> <r_i_glide_ligand_efficiency_ln>
-1.63216628726888

> <r_i_glide_gscore>
-6.949921617295

> <r_i_glide_lipo>
-2.56874077014163

> <r_i_glide_hbond>
-0.418995452442111

> <r_i_glide_metal>
0

> <r_i_glide_rewards>
-1.63896663645778

> <r_i_glide_evdw>
-40.3850440979004

> <r_i_glide_ecoul>
-8.11192226409912

> <r_i_glide_erotb>
0.912821786256415

> <r_i_glide_esite>
0

> <r_i_glide_emodel>
-68.0632151174475

> <r_i_glide_energy>
-48.4969663619995

> <r_i_glide_einternal>
4.9362735748291

> <i_i_glide_confnum>
128

> <i_i_glide_posenum>
167

> <r_i_glide_eff_state_penalty>
0

> <s_user_duplicate_titles>
CHEMBL213_lig1197

> <s_m_subgroup_title>
dock_pv

> <s_m_subgroupid>
dock_pv

> <b_m_subgroup_collapsed>
1

$$$$
CHEMBL213_lig449
                    3D
 Schrodinger Suite 2021-1.
 48 49  0  0  1  0            999 V2000
   29.9063    3.1578   -5.0626 C   0  0  0  0  0  0
   29.0581    4.0815   -4.4197 C   0  0  0  0  0  0
   29.4831    1.7162   -5.2156 C   0  0  0  0  0  0
   29.3958    5.4387   -4.3424 C   0  0  0  0  0  0
   31.1328    3.6163   -5.5821 C   0  0  0  0  0  0
   30.2628    0.7752   -5.1093 O   0  0  0  0  0  0
   30.6450    5.8481   -4.8133 C   0  0  0  0  0  0
   27.1915    5.4041   -1.8664 N   0  0  1  0  0  0
   31.5070    4.9480   -5.4261 C   0  0  0  0  0  0
   28.1693    6.4062   -2.3034 C   0  0  0  0  0  0
   28.3783    6.4633   -3.8229 C   0  0  1  0  0  0
   28.2080    1.5003   -5.5181 N   0  0  0  0  0  0
   31.9818    2.8113   -6.2967 O   0  0  0  0  0  0
   25.8373    3.7844    1.2884 C   0  0  0  0  0  0
   28.7084    7.8154   -4.1302 O   0  0  0  0  0  0
   26.1594    4.6500    2.5137 C   0  0  0  0  0  0
   25.7204    4.4853   -0.0854 C   0  0  0  0  0  0
   26.8838    5.4433   -0.4367 C   0  0  2  0  0  0
   27.4739    5.0505    2.7825 C   0  0  0  0  0  0
   25.1429    4.9883    3.4094 C   0  0  0  0  0  0
   26.5503    6.8677    0.0273 C   0  0  0  0  0  0
   27.7565    5.8267    3.9037 C   0  0  0  0  0  0
   25.4210    5.7749    4.5259 C   0  0  0  0  0  0
   26.7268    6.1951    4.7659 C   0  0  0  0  0  0
   28.1031    3.7626   -4.0216 H   0  0  0  0  0  0
   30.9370    6.8836   -4.7446 H   0  0  0  0  0  0
   26.3582    5.3069   -2.4461 H   0  0  0  0  0  0
   32.4478    5.3076   -5.8180 H   0  0  0  0  0  0
   27.8073    7.3917   -2.0193 H   0  0  0  0  0  0
   29.1238    6.2490   -1.7988 H   0  0  0  0  0  0
   27.4322    6.2939   -4.3415 H   0  0  0  0  0  0
   27.8938    0.5496   -5.6252 H   0  0  0  0  0  0
   27.5298    2.2482   -5.4817 H   0  0  0  0  0  0
   32.7764    3.2735   -6.5715 H   0  0  0  0  0  0
   26.6080    3.0326    1.1851 H   0  0  0  0  0  0
   24.9284    3.2108    1.4791 H   0  0  0  0  0  0
   27.9363    8.3860   -4.0167 H   0  0  0  0  0  0
   25.6440    3.6954   -0.8338 H   0  0  0  0  0  0
   24.7668    5.0119   -0.1464 H   0  0  0  0  0  0
   27.7884    5.1027    0.0652 H   0  0  0  0  0  0
   28.2831    4.7596    2.1301 H   0  0  0  0  0  0
   24.1314    4.6500    3.2331 H   0  0  0  0  0  0
   26.2082    6.9097    1.0574 H   0  0  0  0  0  0
   27.4080    7.5048   -0.0214 H   0  0  0  0  0  0
   25.8080    7.3277   -0.6178 H   0  0  0  0  0  0
   28.7712    6.1404    4.1009 H   0  0  0  0  0  0
   24.6274    6.0520    5.2049 H   0  0  0  0  0  0
   26.9427    6.8041    5.6323 H   0  0  0  0  0  0
  1  2  1  0  0  0
  1  3  1  0  0  0
  1  5  2  0  0  0
  2  4  2  0  0  0
  2 25  1  0  0  0
  3  6  2  0  0  0
  3 12  1  0  0  0
  4 11  1  0  0  0
  4  7  1  0  0  0
  5  9  1  0  0  0
  5 13  1  0  0  0
  7  9  2  0  0  0
  7 26  1  0  0  0
  8 10  1  0  0  0
  8 18  1  0  0  0
  8 27  1  0  0  0
  9 28  1  0  0  0
 10 11  1  0  0  0
 10 29  1  0  0  0
 10 30  1  0  0  0
 11 15  1  0  0  0
 11 31  1  0  0  0
 12 32  1  0  0  0
 12 33  1  0  0  0
 13 34  1  0  0  0
 14 17  1  0  0  0
 14 16  1  0  0  0
 14 35  1  0  0  0
 14 36  1  0  0  0
 15 37  1  0  0  0
 16 19  2  0  0  0
 16 20  1  0  0  0
 17 18  1  0  0  0
 17 38  1  0  0  0
 17 39  1  0  0  0
 18 21  1  0  0  0
 18 40  1  0  0  0
 19 22  1  0  0  0
 19 41  1  0  0  0
 20 23  2  0  0  0
 20 42  1  0  0  0
 21 43  1  0  0  0
 21 44  1  0  0  0
 21 45  1  0  0  0
 22 24  2  0  0  0
 22 46  1  0  0  0
 23 24  1  0  0  0
 23 47  1  0  0  0
 24 48  1  0  0  0
M  END
> <s_m_entry_id>
3330

> <s_m_entry_name>
dock_pv.422

> <s_m_Source_Path>
/home/csk/Desktop/cluster/DUD-E-result/adrb1

> <s_m_Source_File>
dock_pv.maegz

> <i_m_Source_File_Index>
422

> <chembl_id>
CHEMBL429

> <chembl_pref_name>
LABETALOL

> <i_lp_mmshare_version>
53161

> <i_f3d_flags>
0

> <r_lp_tautomer_probability>
0.999999999997365

> <s_lp_Force_Field>
OPLS_2005

> <r_lp_Energy>
20.088606

> <b_lp_Chiralities_Consistent>
1

> <s_lp_Variant>
CHEMBL213_lig449-3

> <s_i_glide_gridfile>
glide-grid_2vt4

> <i_i_glide_lignum>
535

> <i_i_glide_rotatable_bonds>
10

> <r_i_docking_score>
-6.94802294688248

> <r_i_glide_ligand_efficiency>
-0.289500956120103

> <r_i_glide_ligand_efficiency_sa>
-0.835065258250979

> <r_i_glide_ligand_efficiency_ln>
-1.66298071518716

> <r_i_glide_gscore>
-6.94802294688248

> <r_i_glide_lipo>
-2.54949814635447

> <r_i_glide_hbond>
-0.556670059850112

> <r_i_glide_metal>
0

> <r_i_glide_rewards>
-1.89786169150862

> <r_i_glide_evdw>
-32.446647644043

> <r_i_glide_ecoul>
-8.76487159729004

> <r_i_glide_erotb>
1.04484523990479

> <r_i_glide_esite>
-0.0517751672784199

> <r_i_glide_emodel>
-54.9748268765308

> <r_i_glide_energy>
-41.211519241333

> <r_i_glide_einternal>
9.00060844421387

> <i_i_glide_confnum>
123

> <i_i_glide_posenum>
343

> <r_i_glide_eff_state_penalty>
0

> <s_user_duplicate_titles>
CHEMBL213_lig449

> <s_m_subgroup_title>
dock_pv

> <s_m_subgroupid>
dock_pv

> <b_m_subgroup_collapsed>
1

$$$$
CHEMBL213_lig398
                    3D
 Schrodinger Suite 2021-1.
 73 77  0  0  1  0            999 V2000
   28.8767    7.2922    5.1945 C   0  0  0  0  0  0
   30.2055    7.4494    4.8090 C   0  0  0  0  0  0
   30.7099    6.7304    3.7286 C   0  0  0  0  0  0
   29.8734    5.8499    3.0435 C   0  0  0  0  0  0
   28.5267    5.7066    3.4040 C   0  0  0  0  0  0
   28.0245    6.4203    4.5031 C   0  0  0  0  0  0
   26.5550    6.2968    4.9227 C   0  0  0  0  0  0
   25.7625    7.5826    4.6212 C   0  0  0  0  0  0
   26.4129    5.8701    6.3915 C   0  0  0  0  0  0
   32.1576    6.8998    3.3134 C   0  0  0  0  0  0
   27.6829    4.9041    2.6679 O   0  0  0  0  0  0
   27.6966    5.1460    1.2631 C   0  0  0  0  0  0
   26.3721    4.7586    0.5894 C   0  0  1  0  0  0
   26.1798    5.4942   -0.7590 C   0  0  0  0  0  0
   26.2073    3.3615    0.4216 O   0  0  0  0  0  0
   27.3317    5.5024   -1.6855 N   0  0  1  0  0  0
   27.8044    4.1769   -2.1015 C   0  0  0  0  0  0
   29.0901    4.2494   -2.9575 C   0  0  0  0  0  0
   28.9574    5.1791   -4.1872 C   0  0  0  0  0  0
   28.2854    6.4947   -3.7484 C   0  0  0  0  0  0
   27.0310    6.3065   -2.8758 C   0  0  0  0  0  0
   30.2280    5.4530   -5.0623 C   0  0  0  0  0  0
   31.5592    4.8907   -4.6665 N   0  0  0  0  0  0
   32.1307    4.0031   -5.5527 C   0  0  0  0  0  0
   32.1306    5.4422   -3.5433 C   0  0  0  0  0  0
   33.6167    3.7664   -5.3413 C   0  0  0  0  0  0
   34.3480    3.0512   -6.2980 C   0  0  0  0  0  0
   35.7100    2.8027   -6.1225 C   0  0  0  0  0  0
   36.3811    3.2450   -4.9811 C   0  0  0  0  0  0
   33.5630    5.0283   -3.2742 C   0  0  0  0  0  0
   34.3012    4.2487   -4.1970 C   0  0  0  0  0  0
   35.6816    3.9743   -3.9894 C   0  0  0  0  0  0
   36.2949    4.4544   -2.8066 C   0  0  0  0  0  0
   35.5513    5.1906   -1.8832 C   0  0  0  0  0  0
   34.2064    5.4792   -2.1136 C   0  0  0  0  0  0
   31.5016    3.4533   -6.4630 O   0  0  0  0  0  0
   31.5431    6.2498   -2.8220 O   0  0  0  0  0  0
   28.5048    7.8694    6.0249 H   0  0  0  0  0  0
   30.8443    8.1382    5.3446 H   0  0  0  0  0  0
   30.2685    5.2879    2.2104 H   0  0  0  0  0  0
   26.0899    5.5000    4.3416 H   0  0  0  0  0  0
   25.8051    7.8325    3.5617 H   0  0  0  0  0  0
   24.7116    7.4652    4.8875 H   0  0  0  0  0  0
   26.1461    8.4345    5.1837 H   0  0  0  0  0  0
   26.9879    4.9652    6.5912 H   0  0  0  0  0  0
   26.7731    6.6481    7.0645 H   0  0  0  0  0  0
   25.3731    5.6712    6.6521 H   0  0  0  0  0  0
   32.2925    7.8487    2.7956 H   0  0  0  0  0  0
   32.8041    6.9035    4.1909 H   0  0  0  0  0  0
   32.4937    6.0849    2.6712 H   0  0  0  0  0  0
   27.8075    6.2180    1.0916 H   0  0  0  0  0  0
   28.5434    4.6568    0.7826 H   0  0  0  0  0  0
   25.5651    5.0479    1.2598 H   0  0  0  0  0  0
   25.2921    5.0745   -1.2153 H   0  0  0  0  0  0
   25.9111    6.5275   -0.5356 H   0  0  0  0  0  0
   26.7609    3.0791   -0.3093 H   0  0  0  0  0  0
   28.0540    3.5931   -1.2183 H   0  0  0  0  0  0
   27.0078    3.6369   -2.6178 H   0  0  0  0  0  0
   29.8750    4.5616   -2.2752 H   0  0  0  0  0  0
   29.4076    3.2591   -3.2851 H   0  0  0  0  0  0
   28.2236    4.6688   -4.8148 H   0  0  0  0  0  0
   28.0285    7.1009   -4.6138 H   0  0  0  0  0  0
   29.0076    7.0972   -3.2122 H   0  0  0  0  0  0
   26.2171    5.8531   -3.4435 H   0  0  0  0  0  0
   26.6802    7.2898   -2.5771 H   0  0  0  0  0  0
   29.9765    5.1895   -6.0905 H   0  0  0  0  0  0
   30.3671    6.5335   -5.1449 H   0  0  0  0  0  0
   33.8631    2.6800   -7.1901 H   0  0  0  0  0  0
   36.2515    2.2539   -6.8800 H   0  0  0  0  0  0
   37.4389    3.0499   -4.8504 H   0  0  0  0  0  0
   37.3427    4.2499   -2.6278 H   0  0  0  0  0  0
   36.0307    5.5553   -0.9860 H   0  0  0  0  0  0
   33.6746    6.0717   -1.3812 H   0  0  0  0  0  0
  1  6  1  0  0  0
  1  2  2  0  0  0
  1 38  1  0  0  0
  2  3  1  0  0  0
  2 39  1  0  0  0
  3 10  1  0  0  0
  3  4  2  0  0  0
  4  5  1  0  0  0
  4 40  1  0  0  0
  5 11  1  0  0  0
  5  6  2  0  0  0
  6  7  1  0  0  0
  7  8  1  0  0  0
  7  9  1  0  0  0
  7 41  1  0  0  0
  8 42  1  0  0  0
  8 43  1  0  0  0
  8 44  1  0  0  0
  9 45  1  0  0  0
  9 46  1  0  0  0
  9 47  1  0  0  0
 10 48  1  0  0  0
 10 49  1  0  0  0
 10 50  1  0  0  0
 11 12  1  0  0  0
 12 13  1  0  0  0
 12 51  1  0  0  0
 12 52  1  0  0  0
 13 14  1  0  0  0
 13 15  1  0  0  0
 13 53  1  0  0  0
 14 16  1  0  0  0
 14 54  1  0  0  0
 14 55  1  0  0  0
 15 56  1  0  0  0
 16 21  1  0  0  0
 16 17  1  0  0  0
 17 18  1  0  0  0
 17 57  1  0  0  0
 17 58  1  0  0  0
 18 19  1  0  0  0
 18 59  1  0  0  0
 18 60  1  0  0  0
 19 20  1  0  0  0
 19 22  1  0  0  0
 19 61  1  0  0  0
 20 21  1  0  0  0
 20 62  1  0  0  0
 20 63  1  0  0  0
 21 64  1  0  0  0
 21 65  1  0  0  0
 22 23  1  0  0  0
 22 66  1  0  0  0
 22 67  1  0  0  0
 23 24  1  0  0  0
 23 25  1  0  0  0
 24 26  1  0  0  0
 24 36  2  0  0  0
 25 30  1  0  0  0
 25 37  2  0  0  0
 26 31  2  0  0  0
 26 27  1  0  0  0
 27 28  2  0  0  0
 27 68  1  0  0  0
 28 29  1  0  0  0
 28 69  1  0  0  0
 29 32  2  0  0  0
 29 70  1  0  0  0
 30 31  1  0  0  0
 30 35  2  0  0  0
 31 32  1  0  0  0
 32 33  1  0  0  0
 33 34  2  0  0  0
 33 71  1  0  0  0
 34 35  1  0  0  0
 34 72  1  0  0  0
 35 73  1  0  0  0
M  END
> <s_m_entry_id>
3331

> <s_m_entry_name>
dock_pv.423

> <s_m_Source_Path>
/home/csk/Desktop/cluster/DUD-E-result/adrb1

> <s_m_Source_File>
dock_pv.maegz

> <i_m_Source_File_Index>
423

> <chembl_id>
CHEMBL1083994

> <chembl_pref_name>
None

> <i_lp_mmshare_version>
53161

> <i_f3d_flags>
0

> <r_lp_tautomer_probability>
1

> <s_lp_Force_Field>
OPLS_2005

> <r_lp_Energy>
72.335461

> <b_lp_Chiralities_Consistent>
1

> <s_lp_Variant>
CHEMBL213_lig398-2

> <s_i_glide_gridfile>
glide-grid_2vt4

> <i_i_glide_lignum>
467

> <i_i_glide_rotatable_bonds>
9

> <r_i_docking_score>
-6.94765964387598

> <r_i_glide_ligand_efficiency>
-0.187774584969621

> <r_i_glide_ligand_efficiency_sa>
-0.625706574466396

> <r_i_glide_ligand_efficiency_ln>
-1.50678450050561

> <r_i_glide_gscore>
-6.94765964387598

> <r_i_glide_lipo>
-2.89654732135979

> <r_i_glide_hbond>
-0.32

> <r_i_glide_metal>
0

> <r_i_glide_rewards>
-0.874035367079576

> <r_i_glide_evdw>
-45.7448463439941

> <r_i_glide_ecoul>
-7.60124063491821

> <r_i_glide_erotb>
0.570351457000826

> <r_i_glide_esite>
0

> <r_i_glide_emodel>
-56.5546657848845

> <r_i_glide_energy>
-53.3460869789124

> <r_i_glide_einternal>
21.8899173736572

> <i_i_glide_confnum>
14

> <i_i_glide_posenum>
273

> <r_i_glide_eff_state_penalty>
0

> <s_user_duplicate_titles>
CHEMBL213_lig398,630490

> <s_m_subgroup_title>
dock_pv

> <s_m_subgroupid>
dock_pv

> <b_m_subgroup_collapsed>
1

$$$$
CHEMBL213_lig994
                    3D
 Schrodinger Suite 2021-1.
 54 56  0  0  1  0            999 V2000
   29.9353    1.8099   -6.6618 C   0  0  0  0  0  0
   28.8803    1.9955   -5.7785 C   0  0  0  0  0  0
   28.9434    2.9991   -4.8193 C   0  0  0  0  0  0
   30.0557    3.8494   -4.7293 C   0  0  0  0  0  0
   29.8073    0.8426   -7.6146 O   0  0  0  0  0  0
   30.0684    4.9869   -3.6987 C   0  0  2  0  0  0
   28.6808    5.6466   -3.4589 C   0  0  0  0  0  0
   30.9394    6.0467   -4.0456 O   0  0  0  0  0  0
   27.8075    4.8987   -2.5404 N   0  0  1  0  0  0
   27.7688    5.2736   -1.1216 C   0  0  0  0  0  0
   26.7696    4.2828   -0.4487 C   0  0  0  0  0  0
   26.3315    4.5397    1.0013 C   0  0  0  0  0  0
   26.9839    5.4443    1.8484 C   0  0  0  0  0  0
   26.5226    5.6794    3.1291 C   0  0  0  0  0  0
   25.3725    5.0316    3.5844 C   0  0  0  0  0  0
   24.7307    4.1042    2.7654 C   0  0  0  0  0  0
   25.2124    3.8507    1.4823 C   0  0  0  0  0  0
   29.2028    5.0964   -0.5544 C   0  0  0  0  0  0
   27.2323    6.7329   -1.0735 C   0  0  0  0  0  0
   31.0853    2.5995   -6.5576 C   0  0  0  0  0  0
   31.1431    3.6041   -5.5874 C   0  0  0  0  0  0
   32.3319    4.2971   -5.4216 O   0  0  0  0  0  0
   33.1293    4.5030   -6.6123 C   0  0  0  0  0  0
   33.2398    3.2505   -7.5269 C   0  0  0  0  0  0
   32.1949    2.4169   -7.3873 N   0  0  0  0  0  0
   34.1703    3.0165   -8.2922 O   0  0  0  0  0  0
   24.7770    5.2950    4.7961 O   0  0  0  0  0  0
   25.3664    6.2304    5.6979 C   0  0  0  0  0  0
   24.6085    6.2504    6.7844 F   0  0  0  0  0  0
   25.3816    7.4632    5.1848 F   0  0  0  0  0  0
   26.5911    5.8508    6.0747 F   0  0  0  0  0  0
   27.9970    1.3745   -5.8396 H   0  0  0  0  0  0
   28.0956    3.1006   -4.1612 H   0  0  0  0  0  0
   30.3235    1.0493   -8.3939 H   0  0  0  0  0  0
   30.4788    4.5771   -2.7816 H   0  0  0  0  0  0
   28.1693    5.7495   -4.4165 H   0  0  0  0  0  0
   28.8118    6.6614   -3.1021 H   0  0  0  0  0  0
   31.7005    5.6441   -4.4854 H   0  0  0  0  0  0
   26.8555    4.8167   -2.8956 H   0  0  0  0  0  0
   27.1693    3.2686   -0.5000 H   0  0  0  0  0  0
   25.8493    4.2644   -1.0368 H   0  0  0  0  0  0
   27.8165    6.0422    1.5333 H   0  0  0  0  0  0
   27.0442    6.4067    3.7325 H   0  0  0  0  0  0
   23.8398    3.6031    3.1106 H   0  0  0  0  0  0
   24.6908    3.1455    0.8490 H   0  0  0  0  0  0
   29.2907    5.1376    0.5245 H   0  0  0  0  0  0
   29.6036    4.1177   -0.8226 H   0  0  0  0  0  0
   29.8748    5.8496   -0.9589 H   0  0  0  0  0  0
   26.8713    7.0507   -0.1025 H   0  0  0  0  0  0
   27.9908    7.4541   -1.3650 H   0  0  0  0  0  0
   26.3819    6.8671   -1.7476 H   0  0  0  0  0  0
   32.6646    5.2807   -7.2151 H   0  0  0  0  0  0
   34.1321    4.8431   -6.3534 H   0  0  0  0  0  0
   32.2511    1.6132   -7.9906 H   0  0  0  0  0  0
  1  2  1  0  0  0
  1  5  1  0  0  0
  1 20  2  0  0  0
  2  3  2  0  0  0
  2 32  1  0  0  0
  3  4  1  0  0  0
  3 33  1  0  0  0
  4 21  2  0  0  0
  4  6  1  0  0  0
  5 34  1  0  0  0
  6  7  1  0  0  0
  6  8  1  0  0  0
  6 35  1  0  0  0
  7  9  1  0  0  0
  7 36  1  0  0  0
  7 37  1  0  0  0
  8 38  1  0  0  0
  9 10  1  0  0  0
  9 39  1  0  0  0
 10 18  1  0  0  0
 10 19  1  0  0  0
 10 11  1  0  0  0
 11 12  1  0  0  0
 11 40  1  0  0  0
 11 41  1  0  0  0
 12 17  1  0  0  0
 12 13  2  0  0  0
 13 14  1  0  0  0
 13 42  1  0  0  0
 14 15  2  0  0  0
 14 43  1  0  0  0
 15 16  1  0  0  0
 15 27  1  0  0  0
 16 17  2  0  0  0
 16 44  1  0  0  0
 17 45  1  0  0  0
 18 46  1  0  0  0
 18 47  1  0  0  0
 18 48  1  0  0  0
 19 49  1  0  0  0
 19 50  1  0  0  0
 19 51  1  0  0  0
 20 21  1  0  0  0
 20 25  1  0  0  0
 21 22  1  0  0  0
 22 23  1  0  0  0
 23 24  1  0  0  0
 23 52  1  0  0  0
 23 53  1  0  0  0
 24 25  1  0  0  0
 24 26  2  0  0  0
 25 54  1  0  0  0
 27 28  1  0  0  0
 28 29  1  0  0  0
 28 30  1  0  0  0
 28 31  1  0  0  0
M  END
> <s_m_entry_id>
3332

> <s_m_entry_name>
dock_pv.424

> <s_m_Source_Path>
/home/csk/Desktop/cluster/DUD-E-result/adrb1

> <s_m_Source_File>
dock_pv.maegz

> <i_m_Source_File_Index>
424

> <chembl_id>
CHEMBL568531

> <chembl_pref_name>
None

> <i_lp_mmshare_version>
53161

> <i_f3d_flags>
0

> <r_lp_tautomer_probability>
1

> <s_lp_Force_Field>
OPLS_2005

> <r_lp_Energy>
28.218323

> <b_lp_Chiralities_Consistent>
1

> <s_lp_Variant>
CHEMBL213_lig994-1

> <s_i_glide_gridfile>
glide-grid_2vt4

> <i_i_glide_lignum>
1107

> <i_i_glide_rotatable_bonds>
10

> <r_i_docking_score>
-6.94748116811689

> <r_i_glide_ligand_efficiency>
-0.224112295745706

> <r_i_glide_ligand_efficiency_sa>
-0.704022029012712

> <r_i_glide_ligand_efficiency_ln>
-1.56686991813807

> <r_i_glide_gscore>
-6.94748116811689

> <r_i_glide_lipo>
-2.77517437317577

> <r_i_glide_hbond>
-0.399687147007156

> <r_i_glide_metal>
0

> <r_i_glide_rewards>
-1.68179343310525

> <r_i_glide_evdw>
-43.1789131164551

> <r_i_glide_ecoul>
-4.34969425201416

> <r_i_glide_erotb>
0.720573578796161

> <r_i_glide_esite>
0

> <r_i_glide_emodel>
-60.3681353508842

> <r_i_glide_energy>
-47.5286073684692

> <r_i_glide_einternal>
14.484393119812

> <i_i_glide_confnum>
114

> <i_i_glide_posenum>
337

> <r_i_glide_eff_state_penalty>
0

> <s_user_duplicate_titles>
CHEMBL213_lig994,573766

> <s_m_subgroup_title>
dock_pv

> <s_m_subgroupid>
dock_pv

> <b_m_subgroup_collapsed>
1

$$$$
CHEMBL213_lig384
                    3D
 Schrodinger Suite 2021-1.
 60 63  0  0  1  0            999 V2000
   34.8513    5.9585    2.3639 C   0  0  0  0  0  0
   35.1947    7.2434    2.7879 C   0  0  0  0  0  0
   36.3619    7.8489    2.4433 N   0  0  0  0  0  0
   37.2170    7.1626    1.6405 C   0  0  0  0  0  0
   36.9547    5.8679    1.1681 C   0  0  0  0  0  0
   35.7479    5.2666    1.5483 C   0  0  0  0  0  0
   37.9686    5.1375    0.2853 C   0  0  2  0  0  0
   37.5757    5.0653   -1.2148 C   0  0  0  0  0  0
   38.2779    3.8501    0.7850 O   0  0  0  0  0  0
   36.4819    4.1294   -1.4810 N   0  0  1  0  0  0
   36.0844    4.1211   -2.8864 C   0  0  0  0  0  0
   35.1773    5.3115   -3.2707 C   0  0  0  0  0  0
   33.7834    5.2447   -2.6579 C   0  0  0  0  0  0
   32.6884    4.8425   -3.4257 C   0  0  0  0  0  0
   31.4266    4.7468   -2.8438 C   0  0  0  0  0  0
   31.2564    5.0493   -1.4833 C   0  0  0  0  0  0
   32.3570    5.4498   -0.7225 C   0  0  0  0  0  0
   33.6093    5.5681   -1.3138 C   0  0  0  0  0  0
   30.0247    4.9335   -0.8066 N   0  0  0  0  0  0
   28.7802    4.9974   -1.3267 C   0  0  0  0  0  0
   28.5263    5.2898   -2.4965 O   0  0  0  0  0  0
   27.6646    4.6423   -0.3737 C   0  0  0  0  0  0
   27.6531    5.0736    0.9606 C   0  0  0  0  0  0
   26.6196    4.7210    1.8460 C   0  0  0  0  0  0
   25.5901    3.8981    1.3596 C   0  0  0  0  0  0
   25.5801    3.4713    0.0372 C   0  0  0  0  0  0
   26.6082    3.8470   -0.8186 C   0  0  0  0  0  0
   26.6129    5.2255    3.2582 C   0  0  0  0  0  0
   25.4082    5.3391    3.9651 C   0  0  0  0  0  0
   25.3711    5.8501    5.2576 C   0  0  0  0  0  0
   26.5528    6.2498    5.8664 C   0  0  0  0  0  0
   27.7652    6.1457    5.1937 C   0  0  0  0  0  0
   27.7957    5.6216    3.9041 C   0  0  0  0  0  0
   33.9103    5.5150    2.6532 H   0  0  0  0  0  0
   34.5224    7.8132    3.4138 H   0  0  0  0  0  0
   38.1347    7.6743    1.3820 H   0  0  0  0  0  0
   35.5026    4.2711    1.2024 H   0  0  0  0  0  0
   38.9042    5.6961    0.3408 H   0  0  0  0  0  0
   38.4481    4.7521   -1.7936 H   0  0  0  0  0  0
   37.3160    6.0684   -1.5574 H   0  0  0  0  0  0
   38.6516    3.3122    0.0631 H   0  0  0  0  0  0
   36.7934    3.2019   -1.2146 H   0  0  0  0  0  0
   35.4958    3.2117   -3.0131 H   0  0  0  0  0  0
   36.9342    4.0134   -3.5653 H   0  0  0  0  0  0
   35.0962    5.3719   -4.3567 H   0  0  0  0  0  0
   35.6466    6.2498   -2.9824 H   0  0  0  0  0  0
   32.8140    4.5925   -4.4692 H   0  0  0  0  0  0
   30.6003    4.4127   -3.4542 H   0  0  0  0  0  0
   32.2467    5.6880    0.3252 H   0  0  0  0  0  0
   34.4551    5.8916   -0.7256 H   0  0  0  0  0  0
   30.0879    4.7574    0.1828 H   0  0  0  0  0  0
   28.4474    5.7080    1.3112 H   0  0  0  0  0  0
   24.7802    3.5785    1.9955 H   0  0  0  0  0  0
   24.7696    2.8587   -0.3309 H   0  0  0  0  0  0
   26.5882    3.4980   -1.8427 H   0  0  0  0  0  0
   24.4731    5.0498    3.5126 H   0  0  0  0  0  0
   24.4313    5.9420    5.7813 H   0  0  0  0  0  0
   26.5258    6.6500    6.8666 H   0  0  0  0  0  0
   28.6771    6.4706    5.6701 H   0  0  0  0  0  0
   28.7543    5.5338    3.4161 H   0  0  0  0  0  0
  1  6  1  0  0  0
  1  2  2  0  0  0
  1 34  1  0  0  0
  2  3  1  0  0  0
  2 35  1  0  0  0
  3  4  2  0  0  0
  4  5  1  0  0  0
  4 36  1  0  0  0
  5  6  2  0  0  0
  5  7  1  0  0  0
  6 37  1  0  0  0
  7  8  1  0  0  0
  7  9  1  0  0  0
  7 38  1  0  0  0
  8 10  1  0  0  0
  8 39  1  0  0  0
  8 40  1  0  0  0
  9 41  1  0  0  0
 10 11  1  0  0  0
 10 42  1  0  0  0
 11 12  1  0  0  0
 11 43  1  0  0  0
 11 44  1  0  0  0
 12 13  1  0  0  0
 12 45  1  0  0  0
 12 46  1  0  0  0
 13 18  1  0  0  0
 13 14  2  0  0  0
 14 15  1  0  0  0
 14 47  1  0  0  0
 15 16  2  0  0  0
 15 48  1  0  0  0
 16 17  1  0  0  0
 16 19  1  0  0  0
 17 18  2  0  0  0
 17 49  1  0  0  0
 18 50  1  0  0  0
 19 20  1  0  0  0
 19 51  1  0  0  0
 20 21  2  0  0  0
 20 22  1  0  0  0
 22 23  2  0  0  0
 22 27  1  0  0  0
 23 24  1  0  0  0
 23 52  1  0  0  0
 24 25  2  0  0  0
 24 28  1  0  0  0
 25 26  1  0  0  0
 25 53  1  0  0  0
 26 27  2  0  0  0
 26 54  1  0  0  0
 27 55  1  0  0  0
 28 29  2  0  0  0
 28 33  1  0  0  0
 29 30  1  0  0  0
 29 56  1  0  0  0
 30 31  2  0  0  0
 30 57  1  0  0  0
 31 32  1  0  0  0
 31 58  1  0  0  0
 32 33  2  0  0  0
 32 59  1  0  0  0
 33 60  1  0  0  0
M  END
> <s_m_entry_id>
3333

> <s_m_entry_name>
dock_pv.425

> <s_m_Source_Path>
/home/csk/Desktop/cluster/DUD-E-result/adrb1

> <s_m_Source_File>
dock_pv.maegz

> <i_m_Source_File_Index>
425

> <chembl_id>
CHEMBL1089396

> <chembl_pref_name>
None

> <i_lp_mmshare_version>
53161

> <i_f3d_flags>
0

> <r_lp_tautomer_probability>
1

> <s_lp_Force_Field>
OPLS_2005

> <r_lp_Energy>
38.327797

> <b_lp_Chiralities_Consistent>
1

> <s_lp_Variant>
CHEMBL213_lig384-1

> <s_i_glide_gridfile>
glide-grid_2vt4

> <i_i_glide_lignum>
452

> <i_i_glide_rotatable_bonds>
11

> <r_i_docking_score>
-6.94698200038968

> <r_i_glide_ligand_efficiency>
-0.210514606072415

> <r_i_glide_ligand_efficiency_sa>
-0.675232825155832

> <r_i_glide_ligand_efficiency_ln>
-1.54497282733892

> <r_i_glide_gscore>
-6.94698200038968

> <r_i_glide_lipo>
-2.68978823551742

> <r_i_glide_hbond>
-0.391283309171742

> <r_i_glide_metal>
0

> <r_i_glide_rewards>
-1.15044969338873

> <r_i_glide_evdw>
-45.9034805297852

> <r_i_glide_ecoul>
-9.05222225189209

> <r_i_glide_erotb>
0.937546601961282

> <r_i_glide_esite>
0

> <r_i_glide_emodel>
-76.3248029120525

> <r_i_glide_energy>
-54.9557027816772

> <r_i_glide_einternal>
7.20886564254761

> <i_i_glide_confnum>
8

> <i_i_glide_posenum>
288

> <r_i_glide_eff_state_penalty>
0

> <s_user_duplicate_titles>
CHEMBL213_lig384

> <s_m_subgroup_title>
dock_pv

> <s_m_subgroupid>
dock_pv

> <b_m_subgroup_collapsed>
1

$$$$
CHEMBL213_lig1211 
                    3D
 Schrodinger Suite 2021-1.
 51 53  0  0  1  0            999 V2000
   34.6778    3.5633   -5.1286 C   0  0  0  0  0  0
   35.5640    4.3633   -4.4150 C   0  0  0  0  0  0
   33.0316    3.7237   -3.3441 C   0  0  0  0  0  0
   33.4245    3.2611   -4.6051 C   0  0  0  0  0  0
   33.9109    4.5656   -2.6362 C   0  0  0  0  0  0
   35.1841    4.8725   -3.1652 C   0  0  0  0  0  0
   36.0568    5.6934   -2.4146 N   0  0  0  0  0  0
   35.8119    6.2591   -1.2111 C   0  0  0  0  0  0
   34.4901    5.9641   -0.6902 C   0  0  0  0  0  0
   33.5905    5.1835   -1.3271 C   0  0  0  0  0  0
   36.6370    6.9596   -0.6358 O   0  0  0  0  0  0
   36.7789    4.6500   -4.9871 O   0  0  0  0  0  0
   31.6615    3.3242   -2.7792 C   0  0  1  0  0  0
   30.6023    4.4054   -3.0832 C   0  0  0  0  0  0
   31.2071    2.0524   -3.2263 O   0  0  0  0  0  0
   29.4472    4.2501   -2.2088 N   0  0  1  0  0  0
   28.4522    5.2825   -2.4498 C   0  0  0  0  0  0
   27.2310    4.9766   -1.5753 C   0  0  0  0  0  0
   27.4768    5.1466   -0.0544 C   0  0  0  0  0  0
   26.3657    4.6521    0.8792 C   0  0  0  0  0  0
   26.4584    4.9041    2.2607 C   0  0  0  0  0  0
   25.4072    4.4925    3.1018 C   0  0  0  0  0  0
   24.2944    3.8330    2.5796 C   0  0  0  0  0  0
   24.2240    3.5600    1.2216 C   0  0  0  0  0  0
   25.2488    3.9662    0.3808 C   0  0  0  0  0  0
   27.5884    5.5577    2.7175 O   0  0  0  0  0  0
   27.7523    5.7906    4.1127 C   0  0  0  0  0  0
   34.9593    3.1868   -6.1008 H   0  0  0  0  0  0
   32.7527    2.6500   -5.1892 H   0  0  0  0  0  0
   36.9737    5.9030   -2.7799 H   0  0  0  0  0  0
   34.2268    6.4214    0.2549 H   0  0  0  0  0  0
   32.6233    5.0450   -0.8667 H   0  0  0  0  0  0
   37.0080    5.5986   -4.9755 H   0  0  0  0  0  0
   31.7833    3.2114   -1.7028 H   0  0  0  0  0  0
   30.3177    4.3692   -4.1366 H   0  0  0  0  0  0
   31.0338    5.3926   -2.9013 H   0  0  0  0  0  0
   30.3163    1.9099   -2.8887 H   0  0  0  0  0  0
   29.0048    3.3384   -2.3144 H   0  0  0  0  0  0
   28.1546    5.2938   -3.5000 H   0  0  0  0  0  0
   28.8590    6.2621   -2.1994 H   0  0  0  0  0  0
   26.9136    3.9609   -1.8101 H   0  0  0  0  0  0
   26.4107    5.6299   -1.8761 H   0  0  0  0  0  0
   27.6354    6.2066    0.1442 H   0  0  0  0  0  0
   28.4016    4.6500    0.2377 H   0  0  0  0  0  0
   25.4305    4.6844    4.1622 H   0  0  0  0  0  0
   23.4758    3.5357    3.2144 H   0  0  0  0  0  0
   23.3757    3.0501    0.7966 H   0  0  0  0  0  0
   25.1291    3.7560   -0.6707 H   0  0  0  0  0  0
   28.7049    6.2931    4.2833 H   0  0  0  0  0  0
   26.9665    6.4369    4.5071 H   0  0  0  0  0  0
   27.7659    4.8546    4.6734 H   0  0  0  0  0  0
  1  2  2  0  0  0
  1  4  1  0  0  0
  1 28  1  0  0  0
  2  6  1  0  0  0
  2 12  1  0  0  0
  3  5  1  0  0  0
  3  4  2  0  0  0
  3 13  1  0  0  0
  4 29  1  0  0  0
  5  6  2  0  0  0
  5 10  1  0  0  0
  6  7  1  0  0  0
  7  8  1  0  0  0
  7 30  1  0  0  0
  8  9  1  0  0  0
  8 11  2  0  0  0
  9 10  2  0  0  0
  9 31  1  0  0  0
 10 32  1  0  0  0
 12 33  1  0  0  0
 13 14  1  0  0  0
 13 15  1  0  0  0
 13 34  1  0  0  0
 14 16  1  0  0  0
 14 35  1  0  0  0
 14 36  1  0  0  0
 15 37  1  0  0  0
 16 17  1  0  0  0
 16 38  1  0  0  0
 17 18  1  0  0  0
 17 39  1  0  0  0
 17 40  1  0  0  0
 18 19  1  0  0  0
 18 41  1  0  0  0
 18 42  1  0  0  0
 19 20  1  0  0  0
 19 43  1  0  0  0
 19 44  1  0  0  0
 20 21  2  0  0  0
 20 25  1  0  0  0
 21 22  1  0  0  0
 21 26  1  0  0  0
 22 23  2  0  0  0
 22 45  1  0  0  0
 23 24  1  0  0  0
 23 46  1  0  0  0
 24 25  2  0  0  0
 24 47  1  0  0  0
 25 48  1  0  0  0
 26 27  1  0  0  0
 27 49  1  0  0  0
 27 50  1  0  0  0
 27 51  1  0  0  0
M  END
> <s_m_entry_id>
3334

> <s_m_entry_name>
dock_pv.426

> <s_m_Source_Path>
/home/csk/Desktop/cluster/DUD-E-result/adrb1

> <s_m_Source_File>
dock_pv.maegz

> <i_m_Source_File_Index>
426

> <chembl_id>
CHEMBL4473790

> <chembl_pref_name>
None

> <i_lp_mmshare_version>
53161

> <i_f3d_flags>
0

> <r_lp_tautomer_probability>
1

> <s_lp_Force_Field>
OPLS_2005

> <r_lp_Energy>
29.488362

> <b_lp_Chiralities_Consistent>
1

> <s_lp_Variant>
CHEMBL213_lig1211 -2

> <s_i_glide_gridfile>
glide-grid_2vt4

> <i_i_glide_lignum>
1434

> <i_i_glide_rotatable_bonds>
10

> <r_i_docking_score>
-6.94640237364419

> <r_i_glide_ligand_efficiency>
-0.257274161986822

> <r_i_glide_ligand_efficiency_sa>
-0.771822485112532

> <r_i_glide_ligand_efficiency_ln>
-1.61700795219098

> <r_i_glide_gscore>
-6.94640237364419

> <r_i_glide_lipo>
-2.43796592658985

> <r_i_glide_hbond>
-0.643453723010037

> <r_i_glide_metal>
0

> <r_i_glide_rewards>
-1.40400628081718

> <r_i_glide_evdw>
-37.5291481018066

> <r_i_glide_ecoul>
-10.5217199325562

> <r_i_glide_erotb>
0.993738951746631

> <r_i_glide_esite>
0

> <r_i_glide_emodel>
-66.1772917301452

> <r_i_glide_energy>
-48.0508680343628

> <r_i_glide_einternal>
8.06404972076416

> <i_i_glide_confnum>
107

> <i_i_glide_posenum>
334

> <r_i_glide_eff_state_penalty>
0

> <s_user_duplicate_titles>
CHEMBL213_lig1211 

> <s_m_subgroup_title>
dock_pv

> <s_m_subgroupid>
dock_pv

> <b_m_subgroup_collapsed>
1

$$$$
CHEMBL213_lig132
                    3D
 Schrodinger Suite 2021-1.
 57 59  0  0  1  0            999 V2000
   25.6252    6.8479    4.6940 S   0  0  0  0  0  0
   30.1614    2.5566   -6.0200 N   0  0  0  0  0  0
   28.1893    1.8496   -6.8476 N   0  0  0  0  0  0
   27.0618    6.4130    5.5865 N   0  0  0  0  0  0
   28.8345    2.2669   -5.7893 C   0  0  0  0  0  0
   31.1167    3.0468   -5.1066 C   0  0  0  0  0  0
   25.4083    5.7934    3.7001 O   0  0  0  0  0  0
   25.8053    8.2485    4.2949 O   0  0  0  0  0  0
   30.3322    2.2499   -7.3487 C   0  0  0  0  0  0
   29.0876    1.8500   -7.8087 C   0  0  0  0  0  0
   32.1246    3.9194   -5.5345 C   0  0  0  0  0  0
   31.0489    2.6567   -3.7671 C   0  0  0  0  0  0
   28.2881    6.5057    4.9349 C   0  0  0  0  0  0
   32.0768    6.7951    3.2103 O   0  0  0  0  0  0
   24.2978    6.7304    6.0157 C   0  0  0  0  0  0
   30.7958    6.6872    3.7157 C   0  0  0  0  0  0
   33.9123    6.2334    1.6756 C   0  0  1  0  0  0
   33.0142    3.9844   -3.2803 C   0  0  0  0  0  0
   32.4069    6.1088    2.0042 C   0  0  0  0  0  0
   31.9932    3.1308   -2.8663 C   0  0  0  0  0  0
   33.0713    4.3873   -4.6236 C   0  0  0  0  0  0
   35.5002    6.1221   -0.2587 N   0  0  2  0  0  0
   29.2438    7.3790    5.4397 C   0  0  0  0  0  0
   28.5620    5.7436    3.8007 C   0  0  0  0  0  0
   30.5002    7.4499    4.8438 C   0  0  0  0  0  0
   29.8031    5.8499    3.1852 C   0  0  0  0  0  0
   34.6900    5.4517    2.5759 O   0  0  0  0  0  0
   33.9077    4.3704   -2.3039 O   0  0  0  0  0  0
   34.1806    5.7395    0.2349 C   0  0  0  0  0  0
   35.9491    5.3161   -1.4011 C   0  0  0  0  0  0
   34.9826    5.2596   -2.6096 C   0  0  0  0  0  0
   27.0782    6.9159    6.4667 H   0  0  0  0  0  0
   28.4047    2.4122   -4.8079 H   0  0  0  0  0  0
   31.2886    2.3678   -7.8364 H   0  0  0  0  0  0
   28.8300    1.5592   -8.8148 H   0  0  0  0  0  0
   32.1802    4.2414   -6.5654 H   0  0  0  0  0  0
   30.2778    1.9858   -3.4148 H   0  0  0  0  0  0
   23.3273    6.9647    5.5851 H   0  0  0  0  0  0
   24.5311    7.4498    6.7934 H   0  0  0  0  0  0
   24.2943    5.7193    6.4174 H   0  0  0  0  0  0
   34.2086    7.2740    1.7897 H   0  0  0  0  0  0
   32.1341    5.0548    2.0430 H   0  0  0  0  0  0
   31.8132    6.5486    1.2012 H   0  0  0  0  0  0
   31.9348    2.8251   -1.8334 H   0  0  0  0  0  0
   33.8436    5.0544   -4.9786 H   0  0  0  0  0  0
   36.1660    6.0540    0.5007 H   0  0  0  0  0  0
   29.0082    7.9883    6.2979 H   0  0  0  0  0  0
   27.8221    5.0706    3.3934 H   0  0  0  0  0  0
   31.2495    8.1082    5.2518 H   0  0  0  0  0  0
   29.9798    5.2462    2.3104 H   0  0  0  0  0  0
   34.4752    4.5263    2.4395 H   0  0  0  0  0  0
   34.0394    4.6585    0.1905 H   0  0  0  0  0  0
   33.4449    6.1838   -0.4366 H   0  0  0  0  0  0
   36.9015    5.7320   -1.7316 H   0  0  0  0  0  0
   36.1763    4.3045   -1.0598 H   0  0  0  0  0  0
   34.5979    6.2498   -2.8554 H   0  0  0  0  0  0
   35.5409    4.8924   -3.4734 H   0  0  0  0  0  0
  1  4  1  0  0  0
  1  7  2  0  0  0
  1  8  2  0  0  0
  1 15  1  0  0  0
  2  5  1  0  0  0
  2  6  1  0  0  0
  2  9  1  0  0  0
  3  5  2  0  0  0
  3 10  1  0  0  0
  4 13  1  0  0  0
  4 32  1  0  0  0
  5 33  1  0  0  0
  6 11  1  0  0  0
  6 12  2  0  0  0
  9 10  2  0  0  0
  9 34  1  0  0  0
 10 35  1  0  0  0
 11 21  2  0  0  0
 11 36  1  0  0  0
 12 20  1  0  0  0
 12 37  1  0  0  0
 13 23  2  0  0  0
 13 24  1  0  0  0
 14 16  1  0  0  0
 14 19  1  0  0  0
 15 38  1  0  0  0
 15 39  1  0  0  0
 15 40  1  0  0  0
 16 25  2  0  0  0
 16 26  1  0  0  0
 17 19  1  0  0  0
 17 27  1  0  0  0
 17 29  1  0  0  0
 17 41  1  0  0  0
 18 20  2  0  0  0
 18 21  1  0  0  0
 18 28  1  0  0  0
 19 42  1  0  0  0
 19 43  1  0  0  0
 20 44  1  0  0  0
 21 45  1  0  0  0
 22 29  1  0  0  0
 22 30  1  0  0  0
 22 46  1  0  0  0
 23 25  1  0  0  0
 23 47  1  0  0  0
 24 26  2  0  0  0
 24 48  1  0  0  0
 25 49  1  0  0  0
 26 50  1  0  0  0
 27 51  1  0  0  0
 28 31  1  0  0  0
 29 52  1  0  0  0
 29 53  1  0  0  0
 30 31  1  0  0  0
 30 54  1  0  0  0
 30 55  1  0  0  0
 31 56  1  0  0  0
 31 57  1  0  0  0
M  END
> <s_m_entry_id>
3335

> <s_m_entry_name>
dock_pv.427

> <s_m_Source_Path>
/home/csk/Desktop/cluster/DUD-E-result/adrb1

> <s_m_Source_File>
dock_pv.maegz

> <i_m_Source_File_Index>
427

> <chembl_id>
CHEMBL99585

> <chembl_pref_name>
ERSENTILIDE

> <i_lp_mmshare_version>
53161

> <i_f3d_flags>
0

> <r_lp_tautomer_probability>
1

> <s_lp_Force_Field>
OPLS_2005

> <r_lp_Energy>
26.727321

> <b_lp_Chiralities_Consistent>
1

> <s_lp_Variant>
CHEMBL213_lig132-2

> <s_i_glide_gridfile>
glide-grid_2vt4

> <i_i_glide_lignum>
160

> <i_i_glide_rotatable_bonds>
13

> <r_i_docking_score>
-6.94557466091302

> <r_i_glide_ligand_efficiency>
-0.224050795513323

> <r_i_glide_ligand_efficiency_sa>
-0.703828833372807

> <r_i_glide_ligand_efficiency_ln>
-1.56643994233617

> <r_i_glide_gscore>
-6.94557466091302

> <r_i_glide_lipo>
-2.8540055231819

> <r_i_glide_hbond>
-0.25439782754977

> <r_i_glide_metal>
0

> <r_i_glide_rewards>
-1.02059593061761

> <r_i_glide_evdw>
-51.8397102355957

> <r_i_glide_ecoul>
-8.53203773498535

> <r_i_glide_erotb>
1.10435863823542

> <r_i_glide_esite>
-0.0491428457715707

> <r_i_glide_emodel>
-78.5689510378862

> <r_i_glide_energy>
-60.3717479705811

> <r_i_glide_einternal>
12.4279699325562

> <i_i_glide_confnum>
29

> <i_i_glide_posenum>
343

> <r_i_glide_eff_state_penalty>
0

> <s_user_duplicate_titles>
CHEMBL213_lig132,CHEMBL213_lig151,CHEMBL213_lig152,CHEMBL213_lig136

> <s_m_subgroup_title>
dock_pv

> <s_m_subgroupid>
dock_pv

> <b_m_subgroup_collapsed>
1

$$$$
CHEMBL213_lig575
                    3D
 Schrodinger Suite 2021-1.
 51 53  0  0  1  0            999 V2000
   27.2228    5.8058    1.1569 N   0  0  0  0  0  0
   27.2007    4.8423   -0.8796 C   0  0  0  0  0  0
   26.3498    4.7511    1.2795 C   0  0  0  0  0  0
   26.2874    4.1443   -0.0126 C   0  0  0  0  0  0
   27.7199    5.8497   -0.1177 C   0  0  0  0  0  0
   25.5779    4.2945    2.3625 C   0  0  0  0  0  0
   26.7902    6.5437    4.8600 C   0  0  0  0  0  0
   33.5334    4.8306   -1.8531 C   0  0  0  0  0  0
   27.4856    4.5842   -2.3454 C   0  0  0  0  0  0
   25.5878    4.8831    3.6078 O   0  0  0  0  0  0
   34.2043    5.6987   -0.9834 C   0  0  0  0  0  0
   29.8079    3.8504   -1.9685 N   0  0  1  0  0  0
   26.1155    7.4647    4.4041 O   0  0  0  0  0  0
   31.2315    3.7163   -2.2968 C   0  0  0  0  0  0
   32.0382    5.0241   -2.0991 C   0  0  2  0  0  0
   26.8433    5.1365    4.2505 C   0  0  0  0  0  0
   35.5748    5.5625   -0.7570 C   0  0  0  0  0  0
   27.5645    6.6481    5.9756 O   0  0  0  0  0  0
   36.3792    6.6556    0.3121 Cl  0  0  0  0  0  0
   28.9660    4.7314   -2.7773 C   0  0  1  0  0  0
   25.4082    3.0740   -0.2022 C   0  0  0  0  0  0
   31.8224    5.8505   -3.2178 O   0  0  0  0  0  0
   34.2633    3.8320   -2.5133 C   0  0  0  0  0  0
   24.6116    2.6486    0.8528 C   0  0  0  0  0  0
   35.6329    3.6871   -2.2791 C   0  0  0  0  0  0
   24.6905    3.2530    2.0996 C   0  0  0  0  0  0
   36.2880    4.5492   -1.3979 C   0  0  0  0  0  0
   29.0795    4.4311   -4.2806 C   0  0  0  0  0  0
   27.4692    6.4817    1.8644 H   0  0  0  0  0  0
   28.4163    6.6150   -0.4150 H   0  0  0  0  0  0
   27.1111    3.6002   -2.6342 H   0  0  0  0  0  0
   26.9023    5.2949   -2.9309 H   0  0  0  0  0  0
   33.6662    6.4904   -0.4825 H   0  0  0  0  0  0
   29.3333    2.9451   -1.9215 H   0  0  0  0  0  0
   31.6170    2.9613   -1.6151 H   0  0  0  0  0  0
   31.3784    3.2909   -3.2902 H   0  0  0  0  0  0
   31.6428    5.5154   -1.2098 H   0  0  0  0  0  0
   27.7101    5.0685    3.5936 H   0  0  0  0  0  0
   27.0041    4.3975    5.0355 H   0  0  0  0  0  0
   27.3960    7.5078    6.3920 H   0  0  0  0  0  0
   29.2675    5.7636   -2.5954 H   0  0  0  0  0  0
   25.2923    2.6445   -1.1838 H   0  0  0  0  0  0
   30.9207    5.6991   -3.5159 H   0  0  0  0  0  0
   33.7758    3.1661   -3.2116 H   0  0  0  0  0  0
   23.8973    1.8584    0.6866 H   0  0  0  0  0  0
   36.1882    2.9107   -2.7854 H   0  0  0  0  0  0
   24.0325    2.9081    2.8787 H   0  0  0  0  0  0
   37.3509    4.4329   -1.2257 H   0  0  0  0  0  0
   28.4363    5.1272   -4.8159 H   0  0  0  0  0  0
   30.0843    4.5505   -4.6811 H   0  0  0  0  0  0
   28.7454    3.4195   -4.5146 H   0  0  0  0  0  0
  1  3  1  0  0  0
  1  5  1  0  0  0
  1 29  1  0  0  0
  2  5  2  0  0  0
  2  9  1  0  0  0
  2  4  1  0  0  0
  3  4  2  0  0  0
  3  6  1  0  0  0
  4 21  1  0  0  0
  5 30  1  0  0  0
  6 10  1  0  0  0
  6 26  2  0  0  0
  7 16  1  0  0  0
  7 13  2  0  0  0
  7 18  1  0  0  0
  8 15  1  0  0  0
  8 11  2  0  0  0
  8 23  1  0  0  0
  9 20  1  0  0  0
  9 31  1  0  0  0
  9 32  1  0  0  0
 10 16  1  0  0  0
 11 17  1  0  0  0
 11 33  1  0  0  0
 12 20  1  0  0  0
 12 14  1  0  0  0
 12 34  1  0  0  0
 14 15  1  0  0  0
 14 35  1  0  0  0
 14 36  1  0  0  0
 15 22  1  0  0  0
 15 37  1  0  0  0
 16 38  1  0  0  0
 16 39  1  0  0  0
 17 19  1  0  0  0
 17 27  2  0  0  0
 18 40  1  0  0  0
 20 28  1  0  0  0
 20 41  1  0  0  0
 21 24  2  0  0  0
 21 42  1  0  0  0
 22 43  1  0  0  0
 23 25  2  0  0  0
 23 44  1  0  0  0
 24 26  1  0  0  0
 24 45  1  0  0  0
 25 27  1  0  0  0
 25 46  1  0  0  0
 26 47  1  0  0  0
 27 48  1  0  0  0
 28 49  1  0  0  0
 28 50  1  0  0  0
 28 51  1  0  0  0
M  END
> <s_m_entry_id>
3338

> <s_m_entry_name>
dock_pv.430

> <s_m_Source_Path>
/home/csk/Desktop/cluster/DUD-E-result/adrb1

> <s_m_Source_File>
dock_pv.maegz

> <i_m_Source_File_Index>
430

> <chembl_id>
CHEMBL24350

> <chembl_pref_name>
None

> <i_lp_mmshare_version>
53161

> <i_f3d_flags>
0

> <r_lp_tautomer_probability>
1

> <s_lp_Force_Field>
OPLS_2005

> <r_lp_Energy>
27.496656

> <b_lp_Chiralities_Consistent>
1

> <s_lp_Variant>
CHEMBL213_lig575-1

> <s_i_glide_gridfile>
glide-grid_2vt4

> <i_i_glide_lignum>
675

> <i_i_glide_rotatable_bonds>
11

> <r_i_docking_score>
-6.94460939010034

> <r_i_glide_ligand_efficiency>
-0.248021763932155

> <r_i_glide_ligand_efficiency_sa>
-0.753140152304991

> <r_i_glide_ligand_efficiency_ln>
-1.60301974982697

> <r_i_glide_gscore>
-6.94460939010034

> <r_i_glide_lipo>
-2.17010966604614

> <r_i_glide_hbond>
-0.576

> <r_i_glide_metal>
0

> <r_i_glide_rewards>
-1.42635532137187

> <r_i_glide_evdw>
-39.3044128417969

> <r_i_glide_ecoul>
-11.829231262207

> <r_i_glide_erotb>
0.967460928738574

> <r_i_glide_esite>
0

> <r_i_glide_emodel>
-64.10634890936

> <r_i_glide_energy>
-51.1336441040039

> <r_i_glide_einternal>
13.7579965591431

> <i_i_glide_confnum>
38

> <i_i_glide_posenum>
36

> <r_i_glide_eff_state_penalty>
0

> <s_user_duplicate_titles>
CHEMBL213_lig575,CHEMBL213_lig1101,32785

> <s_m_subgroup_title>
dock_pv

> <s_m_subgroupid>
dock_pv

> <b_m_subgroup_collapsed>
1

$$$$
CHEMBL213_lig1040
                    3D
 Schrodinger Suite 2021-1.
 49 50  0  0  1  0            999 V2000
   27.5588    6.2503    6.0992 O   0  0  0  0  0  0
   25.0088    3.8687    0.6991 O   0  0  0  0  0  0
   30.8948    2.1612   -6.8693 O   0  0  0  0  0  0
   29.4084    8.2385    5.1258 O   0  0  0  0  0  0
   29.6179    6.2498    3.9868 N   0  0  0  0  0  0
   27.8058    5.8500   -0.6572 N   0  0  1  0  0  0
   26.6317    4.9982    2.2063 C   0  0  0  0  0  0
   28.2710    5.8869    3.7923 C   0  0  0  0  0  0
   27.2862    5.9051    4.7988 C   0  0  0  0  0  0
   27.9326    5.4177    2.5160 C   0  0  0  0  0  0
   26.2954    4.4666    0.7988 C   0  0  2  0  0  0
   25.6635    5.0512    3.2185 C   0  0  0  0  0  0
   25.9853    5.5114    4.4933 C   0  0  0  0  0  0
   26.4170    5.5311   -0.3262 C   0  0  0  0  0  0
   29.0909    4.6455   -4.0359 C   0  0  0  0  0  0
   28.4167    4.8888   -1.5721 C   0  0  1  0  0  0
   28.3971    5.5061   -2.9911 C   0  0  0  0  0  0
   30.3498    3.0278   -5.9424 C   0  0  0  0  0  0
   28.5013    3.4504   -4.4391 C   0  0  0  0  0  0
   30.3069    5.0441   -4.5946 C   0  0  0  0  0  0
   30.0861    7.3584    4.5947 C   0  0  0  0  0  0
   29.1311    2.6469   -5.3838 C   0  0  0  0  0  0
   30.9351    4.2390   -5.5423 C   0  0  0  0  0  0
   29.8331    4.5843   -1.0517 C   0  0  0  0  0  0
   32.1444    2.4828   -7.4706 C   0  0  0  0  0  0
   27.2564    7.1439    6.3240 H   0  0  0  0  0  0
   24.7594    3.7980   -0.2288 H   0  0  0  0  0  0
   30.2980    5.6281    3.5690 H   0  0  0  0  0  0
   27.8336    6.7720   -1.0709 H   0  0  0  0  0  0
   28.6942    5.3791    1.7524 H   0  0  0  0  0  0
   26.9805    3.6420    0.5956 H   0  0  0  0  0  0
   24.6493    4.7325    3.0222 H   0  0  0  0  0  0
   25.2205    5.5282    5.2561 H   0  0  0  0  0  0
   25.9180    6.4476   -0.0154 H   0  0  0  0  0  0
   25.9012    5.2065   -1.2294 H   0  0  0  0  0  0
   27.8600    3.9485   -1.5830 H   0  0  0  0  0  0
   28.8462    6.5016   -2.9887 H   0  0  0  0  0  0
   27.3656    5.6535   -3.3167 H   0  0  0  0  0  0
   27.5578    3.1371   -4.0140 H   0  0  0  0  0  0
   30.7680    5.9751   -4.2983 H   0  0  0  0  0  0
   31.1872    7.3808    4.5590 H   0  0  0  0  0  0
   28.6702    1.7165   -5.6786 H   0  0  0  0  0  0
   31.8735    4.5757   -5.9549 H   0  0  0  0  0  0
   30.2982    3.7936   -1.6399 H   0  0  0  0  0  0
   30.4835    5.4558   -1.1017 H   0  0  0  0  0  0
   29.8159    4.2436   -0.0177 H   0  0  0  0  0  0
   32.4108    1.7056   -8.1862 H   0  0  0  0  0  0
   32.9426    2.5382   -6.7303 H   0  0  0  0  0  0
   32.0959    3.4274   -8.0127 H   0  0  0  0  0  0
  1  9  1  0  0  0
  1 26  1  0  0  0
  2 11  1  0  0  0
  2 27  1  0  0  0
  3 18  1  0  0  0
  3 25  1  0  0  0
  4 21  2  0  0  0
  5  8  1  0  0  0
  5 21  1  0  0  0
  5 28  1  0  0  0
  6 14  1  0  0  0
  6 16  1  0  0  0
  6 29  1  0  0  0
  7 10  1  0  0  0
  7 11  1  0  0  0
  7 12  2  0  0  0
  8  9  1  0  0  0
  8 10  2  0  0  0
  9 13  2  0  0  0
 10 30  1  0  0  0
 11 14  1  0  0  0
 11 31  1  0  0  0
 12 13  1  0  0  0
 12 32  1  0  0  0
 13 33  1  0  0  0
 14 34  1  0  0  0
 14 35  1  0  0  0
 15 17  1  0  0  0
 15 19  2  0  0  0
 15 20  1  0  0  0
 16 17  1  0  0  0
 16 24  1  0  0  0
 16 36  1  0  0  0
 17 37  1  0  0  0
 17 38  1  0  0  0
 18 22  2  0  0  0
 18 23  1  0  0  0
 19 22  1  0  0  0
 19 39  1  0  0  0
 20 23  2  0  0  0
 20 40  1  0  0  0
 21 41  1  0  0  0
 22 42  1  0  0  0
 23 43  1  0  0  0
 24 44  1  0  0  0
 24 45  1  0  0  0
 24 46  1  0  0  0
 25 47  1  0  0  0
 25 48  1  0  0  0
 25 49  1  0  0  0
M  END
> <s_m_entry_id>
3341

> <s_m_entry_name>
dock_pv.433

> <s_m_Source_Path>
/home/csk/Desktop/cluster/DUD-E-result/adrb1

> <s_m_Source_File>
dock_pv.maegz

> <i_m_Source_File_Index>
433

> <chembl_id>
CHEMBL2133469

> <chembl_pref_name>
FORMOTEROL FUMARATE HYDRATE

> <i_lp_mmshare_version>
53161

> <i_f3d_flags>
0

> <r_lp_tautomer_probability>
0.999999999997365

> <s_lp_Force_Field>
OPLS_2005

> <r_lp_Energy>
29.67659

> <b_lp_Chiralities_Consistent>
1

> <s_lp_Variant>
CHEMBL213_lig1040-3

> <s_i_glide_gridfile>
glide-grid_2vt4

> <i_i_glide_lignum>
1202

> <i_i_glide_rotatable_bonds>
11

> <r_i_docking_score>
-6.94255418769043

> <r_i_glide_ligand_efficiency>
-0.277702167507617

> <r_i_glide_ligand_efficiency_sa>
-0.812006062861184

> <r_i_glide_ligand_efficiency_ln>
-1.64559339404291

> <r_i_glide_gscore>
-6.94255418769043

> <r_i_glide_lipo>
-2.45273355156455

> <r_i_glide_hbond>
-0.0528505918380948

> <r_i_glide_metal>
0

> <r_i_glide_rewards>
-2.04160094402906

> <r_i_glide_evdw>
-41.5808944702148

> <r_i_glide_ecoul>
-9.57890129089355

> <r_i_glide_erotb>
1.12051081688606

> <r_i_glide_esite>
0

> <r_i_glide_emodel>
-65.5983420684012

> <r_i_glide_energy>
-51.1597957611084

> <r_i_glide_einternal>
14.5789308547974

> <i_i_glide_confnum>
127

> <i_i_glide_posenum>
93

> <r_i_glide_eff_state_penalty>
0

> <s_user_duplicate_titles>
CHEMBL213_lig1040,CHEMBL213_lig1057,CHEMBL213_lig435,CHEMBL213_lig1095,308174

> <s_m_subgroup_title>
dock_pv

> <s_m_subgroupid>
dock_pv

> <b_m_subgroup_collapsed>
1

$$$$
CHEMBL213_lig1067
                    3D
 Schrodinger Suite 2021-1.
 61 65  0  0  1  0            999 V2000
   27.3795    6.2330   -2.7537 N   0  0  1  0  0  0
   27.4006    5.7381   -1.3833 C   0  0  0  0  0  0
   26.8595    6.7523   -0.3743 C   0  0  0  0  0  0
   27.0204    6.2439    1.0789 C   0  0  0  0  0  0
   26.5334    4.8796    1.3373 N   0  0  0  0  0  0
   26.8462    3.9414    0.2510 C   0  0  0  0  0  0
   26.5585    4.4786   -1.1423 C   0  0  0  0  0  0
   25.6196    4.5992    2.3384 C   0  0  0  0  0  0
   24.5654    3.8364    1.9247 N   0  0  0  0  0  0
   23.5105    3.7216    2.7530 C   0  0  0  0  0  0
   23.3928    4.2500    3.9849 N   0  0  0  0  0  0
   25.6719    5.1623    3.6522 C   0  0  0  0  0  0
   24.4649    4.9545    4.3888 C   0  0  0  0  0  0
   24.4148    5.8491    5.8955 S   0  0  0  0  0  0
   26.0665    6.2483    5.6761 C   0  0  0  0  0  0
   26.6461    5.8869    4.4709 C   0  0  0  0  0  0
   28.2334    5.4717   -3.6721 C   0  0  0  0  0  0
   29.7172    5.9375   -3.7670 C   0  0  1  0  0  0
   30.6620    5.4268   -2.6480 C   0  0  0  0  0  0
   30.2050    5.4588   -5.0088 O   0  0  0  0  0  0
   32.0142    5.8048   -2.9295 O   0  0  0  0  0  0
   33.0035    5.6762   -1.9723 C   0  0  0  0  0  0
   34.3157    5.8435   -2.4171 C   0  0  0  0  0  0
   35.3836    5.8138   -1.5267 C   0  0  0  0  0  0
   35.1363    5.6275   -0.1708 C   0  0  0  0  0  0
   33.8342    5.4513    0.2912 C   0  0  0  0  0  0
   32.7702    5.4507   -0.6085 C   0  0  0  0  0  0
   28.0970    6.2281    4.2558 C   0  0  0  0  0  0
   28.6524    7.3524    4.8961 C   0  0  0  0  0  0
   29.9814    7.7098    4.6936 C   0  0  0  0  0  0
   30.7593    6.9667    3.8137 C   0  0  0  0  0  0
   30.2261    5.8501    3.1828 C   0  0  0  0  0  0
   28.9168    5.4537    3.4367 C   0  0  0  0  0  0
   32.0417    7.3149    3.5772 F   0  0  0  0  0  0
   26.4300    6.0886   -3.0855 H   0  0  0  0  0  0
   28.4238    5.4935   -1.1183 H   0  0  0  0  0  0
   27.4043    7.6879   -0.4827 H   0  0  0  0  0  0
   25.8220    7.0075   -0.5836 H   0  0  0  0  0  0
   28.0760    6.2151    1.2940 H   0  0  0  0  0  0
   26.5797    6.9596    1.7713 H   0  0  0  0  0  0
   27.9141    3.8503    0.3149 H   0  0  0  0  0  0
   26.4419    2.9403    0.3993 H   0  0  0  0  0  0
   25.4939    4.6944   -1.2147 H   0  0  0  0  0  0
   26.7681    3.7044   -1.8786 H   0  0  0  0  0  0
   22.6301    3.2095    2.3764 H   0  0  0  0  0  0
   26.5447    6.7520    6.4990 H   0  0  0  0  0  0
   27.7759    5.6408   -4.6468 H   0  0  0  0  0  0
   28.1620    4.3963   -3.5014 H   0  0  0  0  0  0
   29.7547    7.0264   -3.8149 H   0  0  0  0  0  0
   30.6011    4.3419   -2.5592 H   0  0  0  0  0  0
   30.3427    5.8495   -1.7017 H   0  0  0  0  0  0
   30.3809    6.2185   -5.5826 H   0  0  0  0  0  0
   34.5140    5.9984   -3.4689 H   0  0  0  0  0  0
   36.3926    5.9444   -1.8872 H   0  0  0  0  0  0
   35.9621    5.6170    0.5246 H   0  0  0  0  0  0
   33.6466    5.3095    1.3457 H   0  0  0  0  0  0
   31.7745    5.3110   -0.2180 H   0  0  0  0  0  0
   28.0613    7.9713    5.5549 H   0  0  0  0  0  0
   30.4021    8.5769    5.1891 H   0  0  0  0  0  0
   30.8490    5.2597    2.5290 H   0  0  0  0  0  0
   28.5388    4.5557    2.9740 H   0  0  0  0  0  0
  1 17  1  0  0  0
  1  2  1  0  0  0
  1 35  1  0  0  0
  2  3  1  0  0  0
  2  7  1  0  0  0
  2 36  1  0  0  0
  3  4  1  0  0  0
  3 37  1  0  0  0
  3 38  1  0  0  0
  4  5  1  0  0  0
  4 39  1  0  0  0
  4 40  1  0  0  0
  5  6  1  0  0  0
  5  8  1  0  0  0
  6  7  1  0  0  0
  6 41  1  0  0  0
  6 42  1  0  0  0
  7 43  1  0  0  0
  7 44  1  0  0  0
  8  9  2  0  0  0
  8 12  1  0  0  0
  9 10  1  0  0  0
 10 11  2  0  0  0
 10 45  1  0  0  0
 11 13  1  0  0  0
 12 16  1  0  0  0
 12 13  2  0  0  0
 13 14  1  0  0  0
 14 15  1  0  0  0
 15 16  2  0  0  0
 15 46  1  0  0  0
 16 28  1  0  0  0
 17 18  1  0  0  0
 17 47  1  0  0  0
 17 48  1  0  0  0
 18 19  1  0  0  0
 18 20  1  0  0  0
 18 49  1  0  0  0
 19 21  1  0  0  0
 19 50  1  0  0  0
 19 51  1  0  0  0
 20 52  1  0  0  0
 21 22  1  0  0  0
 22 23  2  0  0  0
 22 27  1  0  0  0
 23 24  1  0  0  0
 23 53  1  0  0  0
 24 25  2  0  0  0
 24 54  1  0  0  0
 25 26  1  0  0  0
 25 55  1  0  0  0
 26 27  2  0  0  0
 26 56  1  0  0  0
 27 57  1  0  0  0
 28 29  2  0  0  0
 28 33  1  0  0  0
 29 30  1  0  0  0
 29 58  1  0  0  0
 30 31  2  0  0  0
 30 59  1  0  0  0
 31 32  1  0  0  0
 31 34  1  0  0  0
 32 33  2  0  0  0
 32 60  1  0  0  0
 33 61  1  0  0  0
M  END
> <s_m_entry_id>
3342

> <s_m_entry_name>
dock_pv.434

> <s_m_Source_Path>
/home/csk/Desktop/cluster/DUD-E-result/adrb1

> <s_m_Source_File>
dock_pv.maegz

> <i_m_Source_File_Index>
434

> <chembl_id>
CHEMBL1257915

> <chembl_pref_name>
None

> <i_lp_mmshare_version>
53161

> <i_f3d_flags>
0

> <r_lp_tautomer_probability>
1

> <s_lp_Force_Field>
OPLS_2005

> <r_lp_Energy>
35.643547

> <b_lp_Chiralities_Consistent>
1

> <s_lp_Variant>
CHEMBL213_lig1067-2

> <s_i_glide_gridfile>
glide-grid_2vt4

> <i_i_glide_lignum>
1245

> <i_i_glide_rotatable_bonds>
9

> <r_i_docking_score>
-6.9417432812486

> <r_i_glide_ligand_efficiency>
-0.204168920036724

> <r_i_glide_ligand_efficiency_sa>
-0.661428042027571

> <r_i_glide_ligand_efficiency_ln>
-1.53362580013161

> <r_i_glide_gscore>
-6.9417432812486

> <r_i_glide_lipo>
-3.79812074572888

> <r_i_glide_hbond>
-0.32

> <r_i_glide_metal>
0

> <r_i_glide_rewards>
-1.14400822986025

> <r_i_glide_evdw>
-29.8448009490967

> <r_i_glide_ecoul>
-5.37821626663208

> <r_i_glide_erotb>
0.619358181790172

> <r_i_glide_esite>
0

> <r_i_glide_emodel>
-65.3023284930161

> <r_i_glide_energy>
-35.2230172157288

> <r_i_glide_einternal>
9.75466060638428

> <i_i_glide_confnum>
43

> <i_i_glide_posenum>
289

> <r_i_glide_eff_state_penalty>
0

> <s_user_duplicate_titles>
CHEMBL213_lig1067

> <s_m_subgroup_title>
dock_pv

> <s_m_subgroupid>
dock_pv

> <b_m_subgroup_collapsed>
1

$$$$
CHEMBL213_lig999
                    3D
 Schrodinger Suite 2021-1.
 53 55  0  0  1  0            999 V2000
   33.6446    4.4017   -5.9963 C   0  0  0  0  0  0
   32.5446    3.8849   -6.6804 C   0  0  0  0  0  0
   31.3467    3.6311   -6.0110 C   0  0  0  0  0  0
   31.2242    3.8731   -4.6353 C   0  0  0  0  0  0
   34.7968    4.6500   -6.6992 O   0  0  0  0  0  0
   29.9628    3.4497   -3.8704 C   0  0  1  0  0  0
   28.8580    4.5461   -3.7403 C   0  0  0  0  0  0
   29.4003    2.2769   -4.4151 O   0  0  0  0  0  0
   27.8119    4.2507   -2.7280 N   0  0  1  0  0  0
   27.9249    4.8011   -1.3593 C   0  0  0  0  0  0
   26.7768    4.1491   -0.4937 C   0  0  0  0  0  0
   26.5386    4.5956    0.9723 C   0  0  0  0  0  0
   27.4086    5.4501    1.6495 C   0  0  0  0  0  0
   27.1750    5.8498    2.9544 C   0  0  0  0  0  0
   26.0291    5.4319    3.6327 C   0  0  0  0  0  0
   25.1513    4.5534    2.9793 C   0  0  0  0  0  0
   25.4098    4.1336    1.6666 C   0  0  0  0  0  0
   29.3316    4.4215   -0.8127 C   0  0  0  0  0  0
   27.7079    6.3293   -1.5134 C   0  0  0  0  0  0
   33.5438    4.6508   -4.6221 C   0  0  0  0  0  0
   32.3350    4.3995   -3.9604 C   0  0  0  0  0  0
   32.2343    4.7209   -2.6204 O   0  0  0  0  0  0
   33.4416    4.5218   -1.8538 C   0  0  0  0  0  0
   34.6938    5.1581   -2.5150 C   0  0  0  0  0  0
   34.6149    5.1349   -3.8605 N   0  0  0  0  0  0
   35.6355    5.6433   -1.8979 O   0  0  0  0  0  0
   25.7332    5.9782    5.0136 C   0  0  0  0  0  0
   24.6459    5.8496    5.5727 O   0  0  0  0  0  0
   26.7723    6.6507    5.5852 O   0  0  0  0  0  0
   32.6189    3.6859   -7.7394 H   0  0  0  0  0  0
   30.5161    3.2143   -6.5612 H   0  0  0  0  0  0
   35.2031    5.5057   -6.5017 H   0  0  0  0  0  0
   30.3138    3.1520   -2.8859 H   0  0  0  0  0  0
   28.3703    4.6585   -4.7104 H   0  0  0  0  0  0
   29.3222    5.5115   -3.5420 H   0  0  0  0  0  0
   28.7135    2.0046   -3.7855 H   0  0  0  0  0  0
   26.8640    4.3702   -3.0852 H   0  0  0  0  0  0
   26.9243    3.0673   -0.4766 H   0  0  0  0  0  0
   25.8275    4.3071   -1.0097 H   0  0  0  0  0  0
   28.2777    5.8500    1.1783 H   0  0  0  0  0  0
   27.8924    6.5168    3.4124 H   0  0  0  0  0  0
   24.2509    4.2140    3.4720 H   0  0  0  0  0  0
   24.7121    3.4697    1.1753 H   0  0  0  0  0  0
   29.5192    4.6502    0.2285 H   0  0  0  0  0  0
   29.4961    3.3474   -0.8862 H   0  0  0  0  0  0
   30.1207    4.9243   -1.3652 H   0  0  0  0  0  0
   27.6080    6.8581   -0.5702 H   0  0  0  0  0  0
   28.5199    6.8097   -2.0579 H   0  0  0  0  0  0
   26.7922    6.5404   -2.0699 H   0  0  0  0  0  0
   33.3318    4.8994   -0.8371 H   0  0  0  0  0  0
   33.6511    3.4522   -1.8050 H   0  0  0  0  0  0
   35.4487    5.4738   -4.3220 H   0  0  0  0  0  0
   26.5140    7.1352    6.3778 H   0  0  0  0  0  0
  1  2  1  0  0  0
  1  5  1  0  0  0
  1 20  2  0  0  0
  2  3  2  0  0  0
  2 30  1  0  0  0
  3  4  1  0  0  0
  3 31  1  0  0  0
  4 21  2  0  0  0
  4  6  1  0  0  0
  5 32  1  0  0  0
  6  7  1  0  0  0
  6  8  1  0  0  0
  6 33  1  0  0  0
  7  9  1  0  0  0
  7 34  1  0  0  0
  7 35  1  0  0  0
  8 36  1  0  0  0
  9 10  1  0  0  0
  9 37  1  0  0  0
 10 18  1  0  0  0
 10 19  1  0  0  0
 10 11  1  0  0  0
 11 12  1  0  0  0
 11 38  1  0  0  0
 11 39  1  0  0  0
 12 17  1  0  0  0
 12 13  2  0  0  0
 13 14  1  0  0  0
 13 40  1  0  0  0
 14 15  2  0  0  0
 14 41  1  0  0  0
 15 16  1  0  0  0
 15 27  1  0  0  0
 16 17  2  0  0  0
 16 42  1  0  0  0
 17 43  1  0  0  0
 18 44  1  0  0  0
 18 45  1  0  0  0
 18 46  1  0  0  0
 19 47  1  0  0  0
 19 48  1  0  0  0
 19 49  1  0  0  0
 20 21  1  0  0  0
 20 25  1  0  0  0
 21 22  1  0  0  0
 22 23  1  0  0  0
 23 24  1  0  0  0
 23 50  1  0  0  0
 23 51  1  0  0  0
 24 25  1  0  0  0
 24 26  2  0  0  0
 25 52  1  0  0  0
 27 28  2  0  0  0
 27 29  1  0  0  0
 29 53  1  0  0  0
M  END
> <s_m_entry_id>
3343

> <s_m_entry_name>
dock_pv.435

> <s_m_Source_Path>
/home/csk/Desktop/cluster/DUD-E-result/adrb1

> <s_m_Source_File>
dock_pv.maegz

> <i_m_Source_File_Index>
435

> <chembl_id>
CHEMBL577289

> <chembl_pref_name>
None

> <i_lp_mmshare_version>
53161

> <i_f3d_flags>
0

> <r_lp_tautomer_probability>
1

> <s_lp_Force_Field>
OPLS_2005

> <r_lp_Energy>
36.697732

> <b_lp_Chiralities_Consistent>
1

> <s_lp_Variant>
CHEMBL213_lig999-2

> <s_i_glide_gridfile>
glide-grid_2vt4

> <i_i_glide_lignum>
1118

> <i_i_glide_rotatable_bonds>
10

> <r_i_docking_score>
-6.93833387087438

> <r_i_glide_ligand_efficiency>
-0.239252892099116

> <r_i_glide_ligand_efficiency_sa>
-0.73506068516506

> <r_i_glide_ligand_efficiency_ln>
-1.58870251546387

> <r_i_glide_gscore>
-6.93833387087438

> <r_i_glide_lipo>
-2.17533413789724

> <r_i_glide_hbond>
-0.496906173892394

> <r_i_glide_metal>
0

> <r_i_glide_rewards>
-1.67177199314062

> <r_i_glide_evdw>
-38.8797607421875

> <r_i_glide_ecoul>
-9.86187267303467

> <r_i_glide_erotb>
0.855862159368651

> <r_i_glide_esite>
-0.0269147872481923

> <r_i_glide_emodel>
-64.2312082684215

> <r_i_glide_energy>
-48.7416334152222

> <r_i_glide_einternal>
10.3433704376221

> <i_i_glide_confnum>
114

> <i_i_glide_posenum>
365

> <r_i_glide_eff_state_penalty>
0

> <s_user_duplicate_titles>
CHEMBL213_lig999

> <s_m_subgroup_title>
dock_pv

> <s_m_subgroupid>
dock_pv

> <b_m_subgroup_collapsed>
1

$$$$
CHEMBL213_lig1116
                    3D
 Schrodinger Suite 2021-1.
 66 68  0  0  1  0            999 V2000
   36.2771    5.6888    0.4672 C   0  0  0  0  0  0
   35.8786    6.8827   -0.1407 C   0  0  0  0  0  0
   35.0081    6.8645   -1.2150 C   0  0  0  0  0  0
   34.5395    5.6681   -1.7461 C   0  0  0  0  0  0
   34.9694    4.4626   -1.1736 C   0  0  0  0  0  0
   35.8191    4.4795   -0.0643 C   0  0  0  0  0  0
   37.0887    5.6272    1.5851 O   0  0  0  0  0  0
   37.6141    6.8313    2.1602 C   0  0  0  0  0  0
   37.8548    6.6567    3.6687 C   0  0  0  0  0  0
   36.7021    6.2500    4.4044 O   0  0  0  0  0  0
   35.6141    7.1666    4.4219 C   0  0  0  0  0  0
   34.5145    6.5645    5.3027 C   0  0  0  0  0  0
   33.0704    6.6450    4.8662 C   0  0  0  0  0  0
   33.8073    5.3152    4.8441 C   0  0  0  0  0  0
   33.6716    5.7791   -2.8163 O   0  0  0  0  0  0
   33.2565    4.6087   -3.5229 C   0  0  0  0  0  0
   32.4394    5.0137   -4.7779 C   0  0  2  0  0  0
   31.0916    5.7155   -4.4599 C   0  0  0  0  0  0
   32.2169    3.8820   -5.6072 O   0  0  0  0  0  0
   30.1985    4.8257   -3.7247 N   0  0  1  0  0  0
   29.0065    5.4826   -3.1976 C   0  0  0  0  0  0
   28.1259    4.4236   -2.4956 C   0  0  0  0  0  0
   27.4234    4.8888   -1.2928 N   0  0  0  0  0  0
   28.0399    5.0500   -0.1089 C   0  0  0  0  0  0
   27.1833    5.1804    0.9308 N   0  0  0  0  0  0
   29.2669    5.0500   -0.0152 O   0  0  0  0  0  0
   27.4858    5.4501    2.2890 C   0  0  0  0  0  0
   28.7860    5.4501    2.8175 C   0  0  0  0  0  0
   29.0078    5.8672    4.1218 C   0  0  0  0  0  0
   27.9469    6.2393    4.9362 C   0  0  0  0  0  0
   26.6448    6.1827    4.4518 C   0  0  0  0  0  0
   26.4196    5.7813    3.1351 C   0  0  0  0  0  0
   28.2026    6.6499    6.2174 O   0  0  0  0  0  0
   36.2080    7.8497    0.1941 H   0  0  0  0  0  0
   34.6757    7.8072   -1.6184 H   0  0  0  0  0  0
   34.6338    3.5100   -1.5529 H   0  0  0  0  0  0
   36.1240    3.5484    0.3888 H   0  0  0  0  0  0
   38.5506    7.0790    1.6567 H   0  0  0  0  0  0
   36.9676    7.6974    2.0557 H   0  0  0  0  0  0
   38.6498    5.9277    3.8360 H   0  0  0  0  0  0
   38.2083    7.5990    4.0795 H   0  0  0  0  0  0
   35.9308    8.1326    4.8194 H   0  0  0  0  0  0
   35.2317    7.3219    3.4123 H   0  0  0  0  0  0
   34.7433    6.6464    6.3659 H   0  0  0  0  0  0
   32.3019    6.8151    5.6202 H   0  0  0  0  0  0
   32.8288    7.1343    3.9207 H   0  0  0  0  0  0
   34.0944    4.8774    3.8885 H   0  0  0  0  0  0
   33.5557    4.5571    5.5853 H   0  0  0  0  0  0
   32.6704    3.9579   -2.8711 H   0  0  0  0  0  0
   34.1387    4.0471   -3.8357 H   0  0  0  0  0  0
   33.0385    5.6990   -5.3775 H   0  0  0  0  0  0
   30.6136    6.0501   -5.3840 H   0  0  0  0  0  0
   31.2878    6.6090   -3.8660 H   0  0  0  0  0  0
   33.0681    3.5407   -5.8922 H   0  0  0  0  0  0
   29.9587    4.0276   -4.3003 H   0  0  0  0  0  0
   28.4427    5.9763   -3.9904 H   0  0  0  0  0  0
   29.3118    6.2500   -2.4841 H   0  0  0  0  0  0
   28.7581    3.5864   -2.1966 H   0  0  0  0  0  0
   27.4089    4.0053   -3.2027 H   0  0  0  0  0  0
   26.4226    5.0037   -1.3751 H   0  0  0  0  0  0
   26.2014    5.1513    0.7072 H   0  0  0  0  0  0
   29.6580    5.1763    2.2462 H   0  0  0  0  0  0
   30.0233    5.9031    4.4925 H   0  0  0  0  0  0
   25.8127    6.4549    5.0844 H   0  0  0  0  0  0
   25.4040    5.7578    2.7850 H   0  0  0  0  0  0
   27.5125    7.2275    6.5719 H   0  0  0  0  0  0
  1  2  2  0  0  0
  1  6  1  0  0  0
  1  7  1  0  0  0
  2  3  1  0  0  0
  2 34  1  0  0  0
  3  4  2  0  0  0
  3 35  1  0  0  0
  4  5  1  0  0  0
  4 15  1  0  0  0
  5  6  2  0  0  0
  5 36  1  0  0  0
  6 37  1  0  0  0
  7  8  1  0  0  0
  8  9  1  0  0  0
  8 38  1  0  0  0
  8 39  1  0  0  0
  9 10  1  0  0  0
  9 40  1  0  0  0
  9 41  1  0  0  0
 10 11  1  0  0  0
 11 12  1  0  0  0
 11 42  1  0  0  0
 11 43  1  0  0  0
 12 13  1  0  0  0
 12 14  1  0  0  0
 12 44  1  0  0  0
 13 14  1  0  0  0
 13 45  1  0  0  0
 13 46  1  0  0  0
 14 47  1  0  0  0
 14 48  1  0  0  0
 15 16  1  0  0  0
 16 17  1  0  0  0
 16 49  1  0  0  0
 16 50  1  0  0  0
 17 18  1  0  0  0
 17 19  1  0  0  0
 17 51  1  0  0  0
 18 20  1  0  0  0
 18 52  1  0  0  0
 18 53  1  0  0  0
 19 54  1  0  0  0
 20 21  1  0  0  0
 20 55  1  0  0  0
 21 22  1  0  0  0
 21 56  1  0  0  0
 21 57  1  0  0  0
 22 23  1  0  0  0
 22 58  1  0  0  0
 22 59  1  0  0  0
 23 24  1  0  0  0
 23 60  1  0  0  0
 24 25  1  0  0  0
 24 26  2  0  0  0
 25 27  1  0  0  0
 25 61  1  0  0  0
 27 28  2  0  0  0
 27 32  1  0  0  0
 28 29  1  0  0  0
 28 62  1  0  0  0
 29 30  2  0  0  0
 29 63  1  0  0  0
 30 31  1  0  0  0
 30 33  1  0  0  0
 31 32  2  0  0  0
 31 64  1  0  0  0
 32 65  1  0  0  0
 33 66  1  0  0  0
M  END
> <s_m_entry_id>
3345

> <s_m_entry_name>
dock_pv.437

> <s_m_Source_Path>
/home/csk/Desktop/cluster/DUD-E-result/adrb1

> <s_m_Source_File>
dock_pv.maegz

> <i_m_Source_File_Index>
437

> <chembl_id>
CHEMBL2348220

> <chembl_pref_name>
None

> <i_lp_mmshare_version>
53161

> <i_f3d_flags>
0

> <r_lp_tautomer_probability>
0.999999999997365

> <s_lp_Force_Field>
OPLS_2005

> <r_lp_Energy>
42.481106

> <b_lp_Chiralities_Consistent>
1

> <s_lp_Variant>
CHEMBL213_lig1116-1

> <s_i_glide_gridfile>
glide-grid_2vt4

> <i_i_glide_lignum>
1307

> <i_i_glide_rotatable_bonds>
19

> <r_i_docking_score>
-6.93746811712355

> <r_i_glide_ligand_efficiency>
-0.210226306579501

> <r_i_glide_ligand_efficiency_sa>
-0.674308094636071

> <r_i_glide_ligand_efficiency_ln>
-1.54285698896078

> <r_i_glide_gscore>
-6.93746811712355

> <r_i_glide_lipo>
-3.2109927737453

> <r_i_glide_hbond>
-0.796463767875486

> <r_i_glide_metal>
0

> <r_i_glide_rewards>
-0.33757090421672

> <r_i_glide_evdw>
-46.1823120117188

> <r_i_glide_ecoul>
-11.7582712173462

> <r_i_glide_erotb>
1.5245429499985

> <r_i_glide_esite>
-0.0441273380966792

> <r_i_glide_emodel>
-75.1084682389751

> <r_i_glide_energy>
-57.9405832290649

> <r_i_glide_einternal>
12.137113571167

> <i_i_glide_confnum>
78

> <i_i_glide_posenum>
308

> <r_i_glide_eff_state_penalty>
0

> <s_user_duplicate_titles>
CHEMBL213_lig1116

> <s_m_subgroup_title>
dock_pv

> <s_m_subgroupid>
dock_pv

> <b_m_subgroup_collapsed>
1

$$$$
CHEMBL213_lig19
                    3D
 Schrodinger Suite 2021-1.
 61 63  0  0  1  0            999 V2000
   32.1026    3.2455   -5.2076 N   0  0  0  0  0  0
   31.0074    2.6853   -5.7182 C   0  0  0  0  0  0
   31.8338    3.5448   -3.9528 C   0  0  0  0  0  0
   30.5471    3.1997   -3.6337 N   0  0  0  0  0  0
   29.9984    2.6507   -4.7586 C   0  0  0  0  0  0
   30.9068    2.1756   -7.0855 C   0  0  0  0  0  0
   32.8073    4.1526   -2.9923 C   0  0  0  0  0  0
   27.1695    5.4495    3.1453 C   0  0  0  0  0  0
   26.7452    5.9838    4.3699 C   0  0  0  0  0  0
   28.5270    5.5391    2.7854 C   0  0  0  0  0  0
   29.8772    1.6672   -7.5304 O   0  0  0  0  0  0
   32.3684    5.0278   -1.9944 C   0  0  0  0  0  0
   34.1679    3.8444   -3.0821 C   0  0  0  0  0  0
   27.6746    6.6441    5.1852 C   0  0  0  0  0  0
   35.6163    5.7576   -0.3242 O   0  0  0  0  0  0
   34.6403    5.2591   -1.1729 C   0  0  0  0  0  0
   29.4478    6.2176    3.5956 C   0  0  0  0  0  0
   34.7048    6.0362    1.9566 C   0  0  1  0  0  0
   35.2801    6.7092    0.6881 C   0  0  0  0  0  0
   33.2758    5.5762   -1.0913 C   0  0  0  0  0  0
   35.0737    4.3894   -2.1731 C   0  0  0  0  0  0
   28.9998    6.7931    4.7882 C   0  0  0  0  0  0
   26.2080    4.8519    2.3518 O   0  0  0  0  0  0
   33.2969    6.2502    3.9862 N   0  0  2  0  0  0
   25.4079    5.8380    4.7002 O   0  0  0  0  0  0
   35.8078    5.4499    2.6199 O   0  0  0  0  0  0
   33.9696    6.9945    2.9246 C   0  0  0  0  0  0
   32.1376    2.2571   -7.9869 C   0  0  0  0  0  0
   31.9322    6.6912    4.2697 C   0  0  0  0  0  0
   30.9188    6.2828    3.1656 C   0  0  0  0  0  0
   26.4706    4.6390    0.9710 C   0  0  0  0  0  0
   24.9096    6.4083    5.9074 C   0  0  0  0  0  0
   30.0901    3.3021   -2.7365 H   0  0  0  0  0  0
   28.9822    2.2781   -4.7662 H   0  0  0  0  0  0
   28.8767    5.0972    1.8687 H   0  0  0  0  0  0
   31.3220    5.2808   -1.9126 H   0  0  0  0  0  0
   34.5291    3.1710   -3.8469 H   0  0  0  0  0  0
   27.3804    7.0501    6.1374 H   0  0  0  0  0  0
   34.0147    5.2460    1.6550 H   0  0  0  0  0  0
   36.1734    7.2865    0.9380 H   0  0  0  0  0  0
   34.6095    7.4493    0.2745 H   0  0  0  0  0  0
   32.8986    6.2444   -0.3322 H   0  0  0  0  0  0
   36.1225    4.1406   -2.2483 H   0  0  0  0  0  0
   29.6716    7.3389    5.4333 H   0  0  0  0  0  0
   33.8509    6.2707    4.8303 H   0  0  0  0  0  0
   36.2357    4.8692    1.9841 H   0  0  0  0  0  0
   34.6490    7.7330    3.3509 H   0  0  0  0  0  0
   33.2248    7.5692    2.3850 H   0  0  0  0  0  0
   32.5104    3.2802   -8.0156 H   0  0  0  0  0  0
   31.8973    1.9445   -9.0031 H   0  0  0  0  0  0
   32.9288    1.6155   -7.6020 H   0  0  0  0  0  0
   31.6417    6.2457    5.2192 H   0  0  0  0  0  0
   31.8935    7.7667    4.4422 H   0  0  0  0  0  0
   31.0089    6.9617    2.3163 H   0  0  0  0  0  0
   31.1874    5.2926    2.7862 H   0  0  0  0  0  0
   25.5499    4.3270    0.4769 H   0  0  0  0  0  0
   26.8116    5.5510    0.4774 H   0  0  0  0  0  0
   27.2047    3.8528    0.8101 H   0  0  0  0  0  0
   23.8415    6.2048    5.9853 H   0  0  0  0  0  0
   25.3918    5.9767    6.7849 H   0  0  0  0  0  0
   25.0383    7.4890    5.9212 H   0  0  0  0  0  0
  1  2  1  0  0  0
  1  3  2  0  0  0
  2  5  2  0  0  0
  2  6  1  0  0  0
  3  4  1  0  0  0
  3  7  1  0  0  0
  4  5  1  0  0  0
  4 33  1  0  0  0
  5 34  1  0  0  0
  6 11  2  0  0  0
  6 28  1  0  0  0
  7 12  2  0  0  0
  7 13  1  0  0  0
  8 10  1  0  0  0
  8 23  1  0  0  0
  8  9  2  0  0  0
  9 14  1  0  0  0
  9 25  1  0  0  0
 10 17  2  0  0  0
 10 35  1  0  0  0
 12 20  1  0  0  0
 12 36  1  0  0  0
 13 21  2  0  0  0
 13 37  1  0  0  0
 14 22  2  0  0  0
 14 38  1  0  0  0
 15 16  1  0  0  0
 15 19  1  0  0  0
 16 21  1  0  0  0
 16 20  2  0  0  0
 17 30  1  0  0  0
 17 22  1  0  0  0
 18 19  1  0  0  0
 18 26  1  0  0  0
 18 27  1  0  0  0
 18 39  1  0  0  0
 19 40  1  0  0  0
 19 41  1  0  0  0
 20 42  1  0  0  0
 21 43  1  0  0  0
 22 44  1  0  0  0
 23 31  1  0  0  0
 24 27  1  0  0  0
 24 29  1  0  0  0
 24 45  1  0  0  0
 25 32  1  0  0  0
 26 46  1  0  0  0
 27 47  1  0  0  0
 27 48  1  0  0  0
 28 49  1  0  0  0
 28 50  1  0  0  0
 28 51  1  0  0  0
 29 30  1  0  0  0
 29 52  1  0  0  0
 29 53  1  0  0  0
 30 54  1  0  0  0
 30 55  1  0  0  0
 31 56  1  0  0  0
 31 57  1  0  0  0
 31 58  1  0  0  0
 32 59  1  0  0  0
 32 60  1  0  0  0
 32 61  1  0  0  0
M  END
> <s_m_entry_id>
3346

> <s_m_entry_name>
dock_pv.438

> <s_m_Source_Path>
/home/csk/Desktop/cluster/DUD-E-result/adrb1

> <s_m_Source_File>
dock_pv.maegz

> <i_m_Source_File_Index>
438

> <chembl_id>
CHEMBL63421

> <chembl_pref_name>
None

> <i_lp_mmshare_version>
53161

> <i_f3d_flags>
0

> <r_lp_tautomer_probability>
0.99995

> <s_lp_Force_Field>
OPLS_2005

> <r_lp_Energy>
33.985355

> <b_lp_Chiralities_Consistent>
1

> <s_lp_Variant>
CHEMBL213_lig19-1

> <s_i_glide_gridfile>
glide-grid_2vt4

> <i_i_glide_lignum>
32

> <i_i_glide_rotatable_bonds>
13

> <r_i_docking_score>
-6.93637942117098

> <r_i_glide_ligand_efficiency>
-0.216761856911593

> <r_i_glide_ligand_efficiency_sa>
-0.688175998581075

> <r_i_glide_ligand_efficiency_ln>
-1.55324443096206

> <r_i_glide_gscore>
-6.93637942117098

> <r_i_glide_lipo>
-3.37504978624489

> <r_i_glide_hbond>
0

> <r_i_glide_metal>
0

> <r_i_glide_rewards>
-1.10980876681475

> <r_i_glide_evdw>
-48.2941131591797

> <r_i_glide_ecoul>
-6.39195346832275

> <r_i_glide_erotb>
0.929931172140461

> <r_i_glide_esite>
-0.00795336204440831

> <r_i_glide_emodel>
-71.437883256041

> <r_i_glide_energy>
-54.6860666275024

> <r_i_glide_einternal>
12.4946241378784

> <i_i_glide_confnum>
9

> <i_i_glide_posenum>
39

> <r_i_glide_eff_state_penalty>
0

> <s_user_duplicate_titles>
CHEMBL213_lig19

> <s_m_subgroup_title>
dock_pv

> <s_m_subgroupid>
dock_pv

> <b_m_subgroup_collapsed>
1

$$$$
CHEMBL213_lig1352
                    3D
 Schrodinger Suite 2021-1.
 60 64  0  0  1  0            999 V2000
   34.2441    5.8017   -0.2564 C   0  0  0  0  0  0
   32.9941    5.4579   -0.7639 C   0  0  0  0  0  0
   32.8583    4.9470   -2.0518 C   0  0  0  0  0  0
   31.6197    4.7185   -2.6013 O   0  0  0  0  0  0
   31.1693    5.7926   -3.4235 C   0  0  0  0  0  0
   29.9581    5.3957   -4.2948 C   0  0  1  0  0  0
   28.5934    5.9715   -3.8266 C   0  0  0  0  0  0
   30.2082    5.8471   -5.6150 O   0  0  0  0  0  0
   28.2042    5.6173   -2.4529 N   0  0  1  0  0  0
   27.0719    6.4393   -2.0217 C   0  0  0  0  0  0
   26.6958    6.2171   -0.5415 C   0  0  0  0  0  0
   26.3644    4.7323   -0.2956 C   0  0  0  0  0  0
   27.4941    3.8493   -0.8479 C   0  0  0  0  0  0
   27.8519    4.2032   -2.3119 C   0  0  0  0  0  0
   25.9795    4.3332    1.1511 C   0  0  0  0  0  0
   35.4151    5.5880   -0.9859 C   0  0  0  0  0  0
   35.2816    5.0407   -2.2685 C   0  0  0  0  0  0
   34.0136    4.7205   -2.8263 C   0  0  0  0  0  0
   36.2366    4.7244   -3.2143 N   0  0  0  0  0  0
   35.6373    4.2486   -4.3630 C   0  0  0  0  0  0
   34.2359    4.2378   -4.1343 C   0  0  0  0  0  0
   33.3802    3.7999   -5.1595 C   0  0  0  0  0  0
   33.9336    3.4131   -6.3783 C   0  0  0  0  0  0
   35.3108    3.4334   -6.5798 C   0  0  0  0  0  0
   36.1943    3.8425   -5.5808 C   0  0  0  0  0  0
   26.6078    5.0126    2.3334 C   0  0  0  0  0  0
   25.8184    5.2770    3.4614 C   0  0  0  0  0  0
   26.3767    5.8589    4.5960 C   0  0  0  0  0  0
   27.7386    6.1440    4.6238 C   0  0  0  0  0  0
   28.5459    5.8463    3.5289 C   0  0  0  0  0  0
   27.9812    5.2848    2.3860 C   0  0  0  0  0  0
   25.1156    3.4655    1.2912 O   0  0  0  0  0  0
   34.3100    6.2259    0.7353 H   0  0  0  0  0  0
   32.1137    5.6344   -0.1644 H   0  0  0  0  0  0
   31.9905    6.1304   -4.0592 H   0  0  0  0  0  0
   30.9192    6.6509   -2.8133 H   0  0  0  0  0  0
   29.8940    4.3099   -4.3701 H   0  0  0  0  0  0
   27.8029    5.6456   -4.5034 H   0  0  0  0  0  0
   28.6442    7.0591   -3.9132 H   0  0  0  0  0  0
   30.5049    6.7678   -5.6140 H   0  0  0  0  0  0
   26.2125    6.3129   -2.6838 H   0  0  0  0  0  0
   27.4115    7.4500   -2.1357 H   0  0  0  0  0  0
   25.8077    6.8195   -0.3603 H   0  0  0  0  0  0
   27.4806    6.6190    0.0957 H   0  0  0  0  0  0
   25.4840    4.4953   -0.8953 H   0  0  0  0  0  0
   28.4114    3.8692   -0.2692 H   0  0  0  0  0  0
   27.1234    2.8252   -0.8150 H   0  0  0  0  0  0
   27.0348    3.9358   -2.9879 H   0  0  0  0  0  0
   28.7193    3.6190   -2.6187 H   0  0  0  0  0  0
   36.3798    5.8426   -0.5734 H   0  0  0  0  0  0
   37.2316    4.8581   -3.0991 H   0  0  0  0  0  0
   32.3108    3.7718   -5.0208 H   0  0  0  0  0  0
   33.2842    3.0885   -7.1782 H   0  0  0  0  0  0
   35.7065    3.1307   -7.5388 H   0  0  0  0  0  0
   37.2595    3.8677   -5.7555 H   0  0  0  0  0  0
   24.7621    5.0459    3.4574 H   0  0  0  0  0  0
   25.7588    6.0840    5.4522 H   0  0  0  0  0  0
   28.1721    6.5923    5.5065 H   0  0  0  0  0  0
   29.6058    6.0509    3.5657 H   0  0  0  0  0  0
   28.6294    5.0504    1.5560 H   0  0  0  0  0  0
  1  2  2  0  0  0
  1 16  1  0  0  0
  1 33  1  0  0  0
  2  3  1  0  0  0
  2 34  1  0  0  0
  3 18  2  0  0  0
  3  4  1  0  0  0
  4  5  1  0  0  0
  5  6  1  0  0  0
  5 35  1  0  0  0
  5 36  1  0  0  0
  6  7  1  0  0  0
  6  8  1  0  0  0
  6 37  1  0  0  0
  7  9  1  0  0  0
  7 38  1  0  0  0
  7 39  1  0  0  0
  8 40  1  0  0  0
  9 10  1  0  0  0
  9 14  1  0  0  0
 10 11  1  0  0  0
 10 41  1  0  0  0
 10 42  1  0  0  0
 11 12  1  0  0  0
 11 43  1  0  0  0
 11 44  1  0  0  0
 12 15  1  0  0  0
 12 13  1  0  0  0
 12 45  1  0  0  0
 13 14  1  0  0  0
 13 46  1  0  0  0
 13 47  1  0  0  0
 14 48  1  0  0  0
 14 49  1  0  0  0
 15 26  1  0  0  0
 15 32  2  0  0  0
 16 17  2  0  0  0
 16 50  1  0  0  0
 17 18  1  0  0  0
 17 19  1  0  0  0
 18 21  1  0  0  0
 19 20  1  0  0  0
 19 51  1  0  0  0
 20 21  2  0  0  0
 20 25  1  0  0  0
 21 22  1  0  0  0
 22 23  2  0  0  0
 22 52  1  0  0  0
 23 24  1  0  0  0
 23 53  1  0  0  0
 24 25  2  0  0  0
 24 54  1  0  0  0
 25 55  1  0  0  0
 26 27  2  0  0  0
 26 31  1  0  0  0
 27 28  1  0  0  0
 27 56  1  0  0  0
 28 29  2  0  0  0
 28 57  1  0  0  0
 29 30  1  0  0  0
 29 58  1  0  0  0
 30 31  2  0  0  0
 30 59  1  0  0  0
 31 60  1  0  0  0
M  END
> <s_m_entry_id>
3347

> <s_m_entry_name>
dock_pv.439

> <s_m_Source_Path>
/home/csk/Desktop/cluster/DUD-E-result/adrb1

> <s_m_Source_File>
dock_pv.maegz

> <i_m_Source_File_Index>
439

> <chembl_id>
CHEMBL1082827

> <chembl_pref_name>
None

> <i_lp_mmshare_version>
53161

> <i_f3d_flags>
0

> <r_lp_tautomer_probability>
0.99990000499975

> <s_lp_Force_Field>
OPLS_2005

> <r_lp_Energy>
58.204185

> <b_lp_Chiralities_Consistent>
1

> <s_lp_Variant>
CHEMBL213_lig1352-2

> <s_i_glide_gridfile>
glide-grid_2vt4

> <i_i_glide_lignum>
1635

> <i_i_glide_rotatable_bonds>
8

> <r_i_docking_score>
-6.93466576618217

> <r_i_glide_ligand_efficiency>
-0.216708305193193

> <r_i_glide_ligand_efficiency_sa>
-0.688005982473025

> <r_i_glide_ligand_efficiency_ln>
-1.55286069689759

> <r_i_glide_gscore>
-6.93466576618217

> <r_i_glide_lipo>
-3.02664863307939

> <r_i_glide_hbond>
-0.32

> <r_i_glide_metal>
0

> <r_i_glide_rewards>
-1.3148903414691

> <r_i_glide_evdw>
-42.9602203369141

> <r_i_glide_ecoul>
-5.16111993789673

> <r_i_glide_erotb>
0.649052215896535

> <r_i_glide_esite>
0

> <r_i_glide_emodel>
-60.1134757935852

> <r_i_glide_energy>
-48.1213402748108

> <r_i_glide_einternal>
16.6035480499268

> <i_i_glide_confnum>
4

> <i_i_glide_posenum>
35

> <r_i_glide_eff_state_penalty>
0

> <s_user_duplicate_titles>
CHEMBL213_lig1352,631062

> <s_m_subgroup_title>
dock_pv

> <s_m_subgroupid>
dock_pv

> <b_m_subgroup_collapsed>
1

$$$$
CHEMBL213_lig1417
                    3D
 Schrodinger Suite 2021-1.
 65 69  0  0  1  0            999 V2000
   27.0921    4.3948   -0.0433 N   0  0  1  0  0  0
   28.0536    4.3433   -1.1500 C   0  0  0  0  0  0
   28.5316    5.7335   -1.5722 C   0  0  0  0  0  0
   29.4869    5.6965   -2.7918 C   0  0  0  0  0  0
   30.5451    4.6553   -2.8195 N   0  0  0  0  0  0
   30.2511    3.4322   -2.0663 C   0  0  0  0  0  0
   29.3702    3.6306   -0.8151 C   0  0  0  0  0  0
   31.8774    4.9526   -3.0491 C   0  0  0  0  0  0
   32.4606    5.6448   -2.0327 N   0  0  0  0  0  0
   33.7907    5.8500   -2.0982 C   0  0  0  0  0  0
   34.6261    5.4499   -3.0798 N   0  0  0  0  0  0
   32.6333    4.4626   -4.1652 C   0  0  0  0  0  0
   34.0324    4.7935   -4.0803 C   0  0  0  0  0  0
   34.9660    4.2494   -5.4455 S   0  0  0  0  0  0
   33.5218    3.5895   -6.1352 C   0  0  0  0  0  0
   32.3564    3.6800   -5.3757 C   0  0  0  0  0  0
   25.9316    3.4992   -0.1887 C   0  0  0  0  0  0
   24.7653    3.9661    0.7296 C   0  0  2  0  0  0
   24.8613    3.5057    2.2015 C   0  0  0  0  0  0
   23.5069    3.4518    0.3850 O   0  0  0  0  0  0
   24.4793    4.4974    3.1448 O   0  0  0  0  0  0
   25.4468    5.1951    3.8327 C   0  0  0  0  0  0
   25.0272    5.8490    4.9892 C   0  0  0  0  0  0
   25.9398    6.5511    5.7600 C   0  0  0  0  0  0
   27.2769    6.6348    5.3721 C   0  0  0  0  0  0
   27.7156    6.0180    4.1950 C   0  0  0  0  0  0
   26.7917    5.2897    3.4429 C   0  0  0  0  0  0
   31.0948    2.9998   -5.8666 C   0  0  0  0  0  0
   29.8081    3.4080   -5.5183 C   0  0  0  0  0  0
   28.6860    2.6500   -5.8484 C   0  0  0  0  0  0
   28.8362    1.4966   -6.6079 C   0  0  0  0  0  0
   30.0988    1.1052   -7.0312 C   0  0  0  0  0  0
   31.2119    1.8503   -6.6635 C   0  0  0  0  0  0
   29.0092    6.0933    3.7061 O   0  0  0  0  0  0
   29.9379    7.0385    4.2495 C   0  0  0  0  0  0
   30.9642    7.1345    3.4072 F   0  0  0  0  0  0
   29.4089    8.2499    4.3851 F   0  0  0  0  0  0
   30.4117    6.6518    5.4262 F   0  0  0  0  0  0
   27.6043    4.0958    0.7715 H   0  0  0  0  0  0
   27.6070    3.8465   -2.0154 H   0  0  0  0  0  0
   27.6678    6.3538   -1.8260 H   0  0  0  0  0  0
   29.0096    6.2509   -0.7432 H   0  0  0  0  0  0
   28.8769    5.6383   -3.6910 H   0  0  0  0  0  0
   29.9977    6.6498   -2.8592 H   0  0  0  0  0  0
   29.8083    2.7417   -2.7791 H   0  0  0  0  0  0
   31.1829    2.9564   -1.7506 H   0  0  0  0  0  0
   29.9287    4.1290   -0.0184 H   0  0  0  0  0  0
   29.1631    2.6483   -0.4153 H   0  0  0  0  0  0
   34.2388    6.3879   -1.2742 H   0  0  0  0  0  0
   33.6266    3.1164   -7.0984 H   0  0  0  0  0  0
   26.2120    2.4635    0.0035 H   0  0  0  0  0  0
   25.5815    3.5537   -1.2151 H   0  0  0  0  0  0
   24.7030    5.0442    0.5792 H   0  0  0  0  0  0
   25.8078    3.0535    2.3848 H   0  0  0  0  0  0
   24.2227    2.6440    2.4139 H   0  0  0  0  0  0
   23.3699    3.4540   -0.5880 H   0  0  0  0  0  0
   23.9952    5.7839    5.2975 H   0  0  0  0  0  0
   25.6060    7.0374    6.6633 H   0  0  0  0  0  0
   27.9543    7.1969    5.9914 H   0  0  0  0  0  0
   27.1316    4.8234    2.5371 H   0  0  0  0  0  0
   29.6564    4.3380   -5.0199 H   0  0  0  0  0  0
   27.7011    2.9750   -5.5441 H   0  0  0  0  0  0
   27.9673    0.9167   -6.8816 H   0  0  0  0  0  0
   30.2275    0.2120   -7.6137 H   0  0  0  0  0  0
   32.1776    1.4794   -6.9701 H   0  0  0  0  0  0
  1 17  1  0  0  0
  1  2  1  0  0  0
  1 39  1  0  0  0
  2  3  1  0  0  0
  2  7  1  0  0  0
  2 40  1  0  0  0
  3  4  1  0  0  0
  3 41  1  0  0  0
  3 42  1  0  0  0
  4  5  1  0  0  0
  4 43  1  0  0  0
  4 44  1  0  0  0
  5  6  1  0  0  0
  5  8  1  0  0  0
  6  7  1  0  0  0
  6 45  1  0  0  0
  6 46  1  0  0  0
  7 47  1  0  0  0
  7 48  1  0  0  0
  8  9  2  0  0  0
  8 12  1  0  0  0
  9 10  1  0  0  0
 10 11  2  0  0  0
 10 49  1  0  0  0
 11 13  1  0  0  0
 12 13  2  0  0  0
 12 16  1  0  0  0
 13 14  1  0  0  0
 14 15  1  0  0  0
 15 16  2  0  0  0
 15 50  1  0  0  0
 16 28  1  0  0  0
 17 18  1  0  0  0
 17 51  1  0  0  0
 17 52  1  0  0  0
 18 19  1  0  0  0
 18 20  1  0  0  0
 18 53  1  0  0  0
 19 21  1  0  0  0
 19 54  1  0  0  0
 19 55  1  0  0  0
 20 56  1  0  0  0
 21 22  1  0  0  0
 22 23  2  0  0  0
 22 27  1  0  0  0
 23 24  1  0  0  0
 23 57  1  0  0  0
 24 25  2  0  0  0
 24 58  1  0  0  0
 25 26  1  0  0  0
 25 59  1  0  0  0
 26 27  2  0  0  0
 26 34  1  0  0  0
 27 60  1  0  0  0
 28 29  2  0  0  0
 28 33  1  0  0  0
 29 30  1  0  0  0
 29 61  1  0  0  0
 30 31  2  0  0  0
 30 62  1  0  0  0
 31 32  1  0  0  0
 31 63  1  0  0  0
 32 33  2  0  0  0
 32 64  1  0  0  0
 33 65  1  0  0  0
 34 35  1  0  0  0
 35 36  1  0  0  0
 35 37  1  0  0  0
 35 38  1  0  0  0
M  END
> <s_m_entry_id>
3348

> <s_m_entry_name>
dock_pv.440

> <s_m_Source_Path>
/home/csk/Desktop/cluster/DUD-E-result/adrb1

> <s_m_Source_File>
dock_pv.maegz

> <i_m_Source_File_Index>
440

> <chembl_id>
CHEMBL1258142

> <chembl_pref_name>
None

> <i_lp_mmshare_version>
53161

> <i_f3d_flags>
0

> <r_lp_tautomer_probability>
1

> <s_lp_Force_Field>
OPLS_2005

> <r_lp_Energy>
41.822782

> <b_lp_Chiralities_Consistent>
1

> <s_lp_Variant>
CHEMBL213_lig1417-1

> <s_i_glide_gridfile>
glide-grid_2vt4

> <i_i_glide_lignum>
1737

> <i_i_glide_rotatable_bonds>
11

> <r_i_docking_score>
-6.92897339970823

> <r_i_glide_ligand_efficiency>
-0.18234140525548

> <r_i_glide_ligand_efficiency_sa>
-0.613027319366773

> <r_i_glide_ligand_efficiency_ln>
-1.49409049472345

> <r_i_glide_gscore>
-6.92897339970823

> <r_i_glide_lipo>
-3.27796760214172

> <r_i_glide_hbond>
-0.249082298736149

> <r_i_glide_metal>
0

> <r_i_glide_rewards>
-0.941966533628732

> <r_i_glide_evdw>
-33.3427467346191

> <r_i_glide_ecoul>
-9.0304594039917

> <r_i_glide_erotb>
0.628139521753516

> <r_i_glide_esite>
-0.0663902396254311

> <r_i_glide_emodel>
-42.0899684733644

> <r_i_glide_energy>
-42.3732061386108

> <r_i_glide_einternal>
29.0401039123535

> <i_i_glide_confnum>
54

> <i_i_glide_posenum>
328

> <r_i_glide_eff_state_penalty>
0

> <s_user_duplicate_titles>
CHEMBL213_lig1417

> <s_m_subgroup_title>
dock_pv

> <s_m_subgroupid>
dock_pv

> <b_m_subgroup_collapsed>
1

$$$$
CHEMBL213_lig1031
                    3D
 Schrodinger Suite 2021-1.
 50 52  0  0  1  0            999 V2000
   29.2138    6.4190   -3.9723 C   0  0  0  0  0  0
   28.6002    5.3207   -3.0664 C   0  0  0  0  0  0
   27.4152    4.7296   -3.8505 C   0  0  0  0  0  0
   25.0138    4.6492    3.5502 C   0  0  0  0  0  0
   24.3373    4.0062    2.5159 C   0  0  0  0  0  0
   24.9379    3.8509    1.2640 C   0  0  0  0  0  0
   26.2304    4.3546    1.0209 C   0  0  0  0  0  0
   26.3033    5.1256    3.3359 C   0  0  0  0  0  0
   26.9132    4.9581    2.0887 C   0  0  0  0  0  0
   28.1911    5.4500    1.9039 O   0  0  0  0  0  0
   29.0311    5.4432    3.0853 C   0  0  0  0  0  0
   28.3297    6.0319    4.3446 C   0  0  0  0  0  0
   27.0065    5.7874    4.3390 N   0  0  0  0  0  0
   28.8995    6.6520    5.2411 O   0  0  0  0  0  0
   23.0616    3.5686    2.7304 O   0  0  0  0  0  0
   26.8849    4.2699   -0.3700 C   0  0  2  0  0  0
   26.9510    5.6548   -1.0884 C   0  0  0  0  0  0
   26.2081    3.3520   -1.2071 O   0  0  0  0  0  0
   28.1844    5.9992   -1.8255 N   0  0  2  0  0  0
   29.6333    4.1954   -2.7502 C   0  0  0  0  0  0
   31.0431    4.6465   -2.3728 C   0  0  0  0  0  0
   32.0606    4.6452   -3.3329 C   0  0  0  0  0  0
   33.3461    5.0550   -2.9873 C   0  0  0  0  0  0
   33.6115    5.4615   -1.6816 C   0  0  0  0  0  0
   32.6062    5.4502   -0.7190 C   0  0  0  0  0  0
   31.3184    5.0506   -1.0669 C   0  0  0  0  0  0
   35.3511    6.0711   -1.2109 Br  0  0  0  0  0  0
   29.5223    6.0137   -4.9363 H   0  0  0  0  0  0
   28.5003    7.2201   -4.1726 H   0  0  0  0  0  0
   30.0955    6.8896   -3.5430 H   0  0  0  0  0  0
   27.7430    4.3768   -4.8187 H   0  0  0  0  0  0
   27.0093    3.8431   -3.3832 H   0  0  0  0  0  0
   26.6155    5.4547   -4.0108 H   0  0  0  0  0  0
   24.5279    4.7805    4.5058 H   0  0  0  0  0  0
   24.3800    3.3774    0.4684 H   0  0  0  0  0  0
   29.2663    4.4070    3.3329 H   0  0  0  0  0  0
   29.9670    5.9758    2.9144 H   0  0  0  0  0  0
   26.5214    6.0993    5.1671 H   0  0  0  0  0  0
   22.6643    3.1808    1.9469 H   0  0  0  0  0  0
   27.9022    3.9176   -0.2096 H   0  0  0  0  0  0
   26.8986    6.4236   -0.3162 H   0  0  0  0  0  0
   26.0649    5.8412   -1.6968 H   0  0  0  0  0  0
   25.7146    3.8367   -1.8928 H   0  0  0  0  0  0
   28.2343    6.9981   -1.9647 H   0  0  0  0  0  0
   29.7192    3.5279   -3.6094 H   0  0  0  0  0  0
   29.2670    3.5484   -1.9553 H   0  0  0  0  0  0
   31.8562    4.3342   -4.3473 H   0  0  0  0  0  0
   34.1323    5.0660   -3.7290 H   0  0  0  0  0  0
   32.8187    5.7720    0.2903 H   0  0  0  0  0  0
   30.5332    5.0543   -0.3238 H   0  0  0  0  0  0
  1  2  1  0  0  0
  1 28  1  0  0  0
  1 29  1  0  0  0
  1 30  1  0  0  0
  2 19  1  0  0  0
  2  3  1  0  0  0
  2 20  1  0  0  0
  3 31  1  0  0  0
  3 32  1  0  0  0
  3 33  1  0  0  0
  4  8  2  0  0  0
  4  5  1  0  0  0
  4 34  1  0  0  0
  5 15  1  0  0  0
  5  6  2  0  0  0
  6  7  1  0  0  0
  6 35  1  0  0  0
  7  9  2  0  0  0
  7 16  1  0  0  0
  8  9  1  0  0  0
  8 13  1  0  0  0
  9 10  1  0  0  0
 10 11  1  0  0  0
 11 12  1  0  0  0
 11 36  1  0  0  0
 11 37  1  0  0  0
 12 14  2  0  0  0
 12 13  1  0  0  0
 13 38  1  0  0  0
 15 39  1  0  0  0
 16 17  1  0  0  0
 16 18  1  0  0  0
 16 40  1  0  0  0
 17 19  1  0  0  0
 17 41  1  0  0  0
 17 42  1  0  0  0
 18 43  1  0  0  0
 19 44  1  0  0  0
 20 21  1  0  0  0
 20 45  1  0  0  0
 20 46  1  0  0  0
 21 22  2  0  0  0
 21 26  1  0  0  0
 22 23  1  0  0  0
 22 47  1  0  0  0
 23 24  2  0  0  0
 23 48  1  0  0  0
 24 25  1  0  0  0
 24 27  1  0  0  0
 25 26  2  0  0  0
 25 49  1  0  0  0
 26 50  1  0  0  0
M  END
> <s_m_entry_id>
3349

> <s_m_entry_name>
dock_pv.441

> <s_m_Source_Path>
/home/csk/Desktop/cluster/DUD-E-result/adrb1

> <s_m_Source_File>
dock_pv.maegz

> <i_m_Source_File_Index>
441

> <chembl_id>
CHEMBL600616

> <chembl_pref_name>
None

> <i_lp_mmshare_version>
53161

> <i_f3d_flags>
0

> <r_lp_tautomer_probability>
0.999999999999998

> <s_lp_Force_Field>
OPLS_2005

> <r_lp_Energy>
34.871632

> <b_lp_Chiralities_Consistent>
1

> <s_lp_Variant>
CHEMBL213_lig1031-1

> <s_i_glide_gridfile>
glide-grid_2vt4

> <i_i_glide_lignum>
1182

> <i_i_glide_rotatable_bonds>
8

> <r_i_docking_score>
-6.92574950838896

> <r_i_glide_ligand_efficiency>
-0.256509241051443

> <r_i_glide_ligand_efficiency_sa>
-0.769527722308917

> <r_i_glide_ligand_efficiency_ln>
-1.61220030564866

> <r_i_glide_gscore>
-6.92574950838896

> <r_i_glide_lipo>
-2.61536883623455

> <r_i_glide_hbond>
-0.523305370328085

> <r_i_glide_metal>
0

> <r_i_glide_rewards>
-1.12927697284949

> <r_i_glide_evdw>
-38.309253692627

> <r_i_glide_ecoul>
-8.45349979400635

> <r_i_glide_erotb>
0.525689324755462

> <r_i_glide_esite>
0

> <r_i_glide_emodel>
-59.6129451588533

> <r_i_glide_energy>
-46.7627534866333

> <r_i_glide_einternal>
9.0240592956543

> <i_i_glide_confnum>
64

> <i_i_glide_posenum>
271

> <r_i_glide_eff_state_penalty>
0

> <s_user_duplicate_titles>
CHEMBL213_lig1031,603129

> <s_m_subgroup_title>
dock_pv

> <s_m_subgroupid>
dock_pv

> <b_m_subgroup_collapsed>
1

$$$$
CHEMBL213_lig1164
                    3D
 Schrodinger Suite 2021-1.
 72 75  0  0  1  0            999 V2000
   31.4867    4.9535   -2.6364 C   0  0  0  0  0  0
   30.3946    4.2675   -3.1637 C   0  0  0  0  0  0
   32.8651    4.3213   -4.5431 C   0  0  0  0  0  0
   32.7068    4.9716   -3.3095 C   0  0  0  0  0  0
   29.2311    4.2500   -2.4304 O   0  0  0  0  0  0
   34.2307    4.3006   -5.2607 C   0  0  2  0  0  0
   35.4844    4.6943   -4.4329 C   0  0  0  0  0  0
   35.6718    3.7974   -3.2927 N   0  0  2  0  0  0
   37.0081    3.8670   -2.7062 C   0  0  0  0  0  0
   37.3986    5.2189   -2.0515 C   0  0  0  0  0  0
   36.7456    5.5794   -0.7135 C   0  0  0  0  0  0
   35.6736    4.8504   -0.1960 C   0  0  0  0  0  0
   35.0871    5.2355    1.0011 C   0  0  0  0  0  0
   35.5380    6.3563    1.6995 C   0  0  0  0  0  0
   36.6478    7.0500    1.2162 C   0  0  0  0  0  0
   37.2396    6.6710    0.0093 C   0  0  0  0  0  0
   34.2079    5.0500   -6.4611 O   0  0  0  0  0  0
   31.7467    3.6683   -5.1005 C   0  0  0  0  0  0
   30.5192    3.6176   -4.4026 C   0  0  0  0  0  0
   29.4446    2.8806   -4.9618 N   0  0  0  0  0  0
   29.4576    2.1728   -6.1150 C   0  0  0  0  0  0
   30.6972    2.2930   -6.8599 C   0  0  0  0  0  0
   31.7746    2.9721   -6.4092 C   0  0  0  0  0  0
   28.5128    1.4830   -6.4787 O   0  0  0  0  0  0
   34.9047    6.7971    2.8786 N   0  0  0  0  0  0
   33.5557    6.6915    3.2781 C   0  0  0  0  0  0
   32.5510    6.3182    2.3850 C   0  0  0  0  0  0
   31.2231    6.2993    2.7684 C   0  0  0  0  0  0
   30.8461    6.6500    4.0700 C   0  0  0  0  0  0
   31.8451    7.0428    4.9641 C   0  0  0  0  0  0
   33.1911    7.0500    4.5772 C   0  0  0  0  0  0
   29.5485    6.5583    4.5515 O   0  0  0  0  0  0
   28.5445    5.8879    3.7701 C   0  0  0  0  0  0
   27.6844    4.9329    4.6183 C   0  0  0  0  0  0
   26.9310    5.5634    5.6408 O   0  0  0  0  0  0
   25.8909    6.4118    5.1715 C   0  0  0  0  0  0
   24.8740    6.5217    6.3052 C   0  0  0  0  0  0
   23.8080    7.4499    5.9850 N   0  0  0  0  0  0
   31.3955    5.4501   -1.6813 H   0  0  0  0  0  0
   33.5374    5.4828   -2.8452 H   0  0  0  0  0  0
   28.7788    3.3941   -2.4257 H   0  0  0  0  0  0
   34.4066    3.2686   -5.5693 H   0  0  0  0  0  0
   36.3649    4.6443   -5.0777 H   0  0  0  0  0  0
   35.3963    5.7214   -4.0775 H   0  0  0  0  0  0
   35.4605    2.8431   -3.5503 H   0  0  0  0  0  0
   37.0080    3.1037   -1.9273 H   0  0  0  0  0  0
   37.7737    3.5404   -3.4120 H   0  0  0  0  0  0
   38.4763    5.1878   -1.8840 H   0  0  0  0  0  0
   37.2403    6.0393   -2.7521 H   0  0  0  0  0  0
   35.2748    3.9886   -0.7091 H   0  0  0  0  0  0
   34.2705    4.6500    1.3803 H   0  0  0  0  0  0
   37.0291    7.9093    1.7473 H   0  0  0  0  0  0
   38.0777    7.2354   -0.3734 H   0  0  0  0  0  0
   34.8555    5.7683   -6.4150 H   0  0  0  0  0  0
   28.5729    2.8006   -4.4617 H   0  0  0  0  0  0
   30.7363    1.8120   -7.8253 H   0  0  0  0  0  0
   32.6513    3.0259   -7.0390 H   0  0  0  0  0  0
   35.4576    7.4138    3.4533 H   0  0  0  0  0  0
   32.7590    6.1176    1.3475 H   0  0  0  0  0  0
   30.5212    6.0140    2.0066 H   0  0  0  0  0  0
   31.5770    7.3202    5.9715 H   0  0  0  0  0  0
   33.9425    7.3615    5.2864 H   0  0  0  0  0  0
   27.9286    6.6485    3.2905 H   0  0  0  0  0  0
   28.9294    5.2550    2.9750 H   0  0  0  0  0  0
   27.0193    4.3505    3.9778 H   0  0  0  0  0  0
   28.3236    4.1958    5.0990 H   0  0  0  0  0  0
   26.2967    7.3918    4.9131 H   0  0  0  0  0  0
   25.4038    6.0102    4.2800 H   0  0  0  0  0  0
   24.4613    5.5403    6.5452 H   0  0  0  0  0  0
   25.3993    6.8712    7.1850 H   0  0  0  0  0  0
   23.3156    7.1403    5.1584 H   0  0  0  0  0  0
   23.1099    7.4501    6.7234 H   0  0  0  0  0  0
  1  2  2  0  0  0
  1  4  1  0  0  0
  1 39  1  0  0  0
  2 19  1  0  0  0
  2  5  1  0  0  0
  3 18  1  0  0  0
  3  4  2  0  0  0
  3  6  1  0  0  0
  4 40  1  0  0  0
  5 41  1  0  0  0
  6  7  1  0  0  0
  6 17  1  0  0  0
  6 42  1  0  0  0
  7  8  1  0  0  0
  7 43  1  0  0  0
  7 44  1  0  0  0
  8  9  1  0  0  0
  8 45  1  0  0  0
  9 10  1  0  0  0
  9 46  1  0  0  0
  9 47  1  0  0  0
 10 11  1  0  0  0
 10 48  1  0  0  0
 10 49  1  0  0  0
 11 12  2  0  0  0
 11 16  1  0  0  0
 12 13  1  0  0  0
 12 50  1  0  0  0
 13 14  2  0  0  0
 13 51  1  0  0  0
 14 15  1  0  0  0
 14 25  1  0  0  0
 15 16  2  0  0  0
 15 52  1  0  0  0
 16 53  1  0  0  0
 17 54  1  0  0  0
 18 19  2  0  0  0
 18 23  1  0  0  0
 19 20  1  0  0  0
 20 21  1  0  0  0
 20 55  1  0  0  0
 21 22  1  0  0  0
 21 24  2  0  0  0
 22 23  2  0  0  0
 22 56  1  0  0  0
 23 57  1  0  0  0
 25 26  1  0  0  0
 25 58  1  0  0  0
 26 27  2  0  0  0
 26 31  1  0  0  0
 27 28  1  0  0  0
 27 59  1  0  0  0
 28 29  2  0  0  0
 28 60  1  0  0  0
 29 30  1  0  0  0
 29 32  1  0  0  0
 30 31  2  0  0  0
 30 61  1  0  0  0
 31 62  1  0  0  0
 32 33  1  0  0  0
 33 34  1  0  0  0
 33 63  1  0  0  0
 33 64  1  0  0  0
 34 35  1  0  0  0
 34 65  1  0  0  0
 34 66  1  0  0  0
 35 36  1  0  0  0
 36 37  1  0  0  0
 36 67  1  0  0  0
 36 68  1  0  0  0
 37 38  1  0  0  0
 37 69  1  0  0  0
 37 70  1  0  0  0
 38 71  1  0  0  0
 38 72  1  0  0  0
M  END
> <s_m_entry_id>
3350

> <s_m_entry_name>
dock_pv.442

> <s_m_Source_Path>
/home/csk/Desktop/cluster/DUD-E-result/adrb1

> <s_m_Source_File>
dock_pv.maegz

> <i_m_Source_File_Index>
442

> <chembl_id>
CHEMBL3298691

> <chembl_pref_name>
None

> <i_lp_mmshare_version>
53161

> <i_f3d_flags>
0

> <r_lp_tautomer_probability>
1

> <s_lp_Force_Field>
OPLS_2005

> <r_lp_Energy>
45.164944

> <b_lp_Chiralities_Consistent>
1

> <s_lp_Variant>
CHEMBL213_lig1164-1

> <s_i_glide_gridfile>
glide-grid_2vt4

> <i_i_glide_lignum>
1360

> <i_i_glide_rotatable_bonds>
16

> <r_i_docking_score>
-6.92057745767071

> <r_i_glide_ligand_efficiency>
-0.182120459412387

> <r_i_glide_ligand_efficiency_sa>
-0.612284504876962

> <r_i_glide_ligand_efficiency_ln>
-1.49228008263657

> <r_i_glide_gscore>
-6.92057745767071

> <r_i_glide_lipo>
-2.71840601299439

> <r_i_glide_hbond>
-0.960047891183224

> <r_i_glide_metal>
0

> <r_i_glide_rewards>
-0.0418776502242592

> <r_i_glide_evdw>
-52.4186248779297

> <r_i_glide_ecoul>
-10.4037294387817

> <r_i_glide_erotb>
0.992797690557022

> <r_i_glide_esite>
-0.0115529341121155

> <r_i_glide_emodel>
-81.6105782719174

> <r_i_glide_energy>
-62.8223543167114

> <r_i_glide_einternal>
17.4115180969238

> <i_i_glide_confnum>
1

> <i_i_glide_posenum>
82

> <r_i_glide_eff_state_penalty>
0

> <s_user_duplicate_titles>
CHEMBL213_lig1164

> <s_m_subgroup_title>
dock_pv

> <s_m_subgroupid>
dock_pv

> <b_m_subgroup_collapsed>
1

$$$$
CHEMBL213_lig145
                    3D
 Schrodinger Suite 2021-1.
 76 78  0  0  1  0            999 V2000
   35.3154    3.3765   -3.2457 S   0  0  0  0  0  0
   33.7331    2.6501   -3.6148 N   0  0  0  0  0  0
   35.1105    4.2482   -1.7017 C   0  0  0  0  0  0
   35.6249    4.3599   -4.2862 O   0  0  0  0  0  0
   36.2080    2.2473   -2.9843 O   0  0  0  0  0  0
   34.6186    6.1763    3.1175 C   0  0  0  0  0  0
   34.2059    6.2501    1.8430 N   0  0  0  0  0  0
   26.4578    4.5863    0.7327 C   0  0  0  0  0  0
   24.8747    3.7659    2.3835 N   0  0  0  0  0  0
   35.5159    5.4501    3.5384 O   0  0  0  0  0  0
   35.8536    3.9094   -0.5654 C   0  0  0  0  0  0
   34.1686    5.2679   -1.6465 C   0  0  0  0  0  0
   32.5611    3.3644   -3.9104 C   0  0  0  0  0  0
   34.6082    5.5498    0.7019 C   0  0  0  0  0  0
   27.5564    5.5871    0.4028 C   0  0  1  0  0  0
   33.8977    5.8872   -0.4442 C   0  0  0  0  0  0
   35.6141    4.5743    0.6396 C   0  0  0  0  0  0
   28.0735    5.4255   -2.0777 N   0  0  1  0  0  0
   30.1625    4.7509   -4.2695 C   0  0  0  0  0  0
   25.8184    4.6498    1.9772 C   0  0  0  0  0  0
   32.5588    4.6231   -4.5243 C   0  0  0  0  0  0
   31.3463    2.7658   -3.5737 C   0  0  0  0  0  0
   31.3675    5.3285   -4.6697 C   0  0  0  0  0  0
   30.1529    3.4489   -3.7865 C   0  0  0  0  0  0
   28.8388    5.0500    0.6652 O   0  0  0  0  0  0
   33.8611    7.0800    4.0948 C   0  0  0  0  0  0
   27.5157    6.2425   -0.9988 C   0  0  0  0  0  0
   26.0779    3.5654   -0.1455 C   0  0  0  0  0  0
   24.5423    2.7731    1.5238 C   0  0  0  0  0  0
   28.2929    6.2699   -3.2424 C   0  0  0  0  0  0
   28.8423    5.4891   -4.4406 C   0  0  0  0  0  0
   33.1160    6.2709    5.1784 C   0  0  0  0  0  0
   28.0273    6.5662    4.4695 C   0  0  0  0  0  0
   25.1022    2.6500    0.2522 C   0  0  0  0  0  0
   29.2527    7.2358    5.1225 C   0  0  0  0  0  0
   31.7394    6.8359    5.5856 C   0  0  0  0  0  0
   30.6199    6.8280    4.5238 C   0  0  0  0  0  0
   27.8430    5.0880    4.8526 C   0  0  0  0  0  0
   33.6140    1.7215   -3.2432 H   0  0  0  0  0  0
   33.4794    6.9294    1.6587 H   0  0  0  0  0  0
   36.6049    3.1320   -0.6085 H   0  0  0  0  0  0
   33.6242    5.5785   -2.5178 H   0  0  0  0  0  0
   27.4082    6.4136    1.0989 H   0  0  0  0  0  0
   33.1336    6.6500   -0.4171 H   0  0  0  0  0  0
   36.1844    4.2902    1.5098 H   0  0  0  0  0  0
   28.9566    5.0194   -1.8041 H   0  0  0  0  0  0
   26.0475    5.4408    2.6723 H   0  0  0  0  0  0
   33.4692    5.0914   -4.8612 H   0  0  0  0  0  0
   31.3156    1.7714   -3.1526 H   0  0  0  0  0  0
   31.3819    6.3113   -5.1135 H   0  0  0  0  0  0
   29.2028    2.9780   -3.6021 H   0  0  0  0  0  0
   28.9513    4.2891    0.0914 H   0  0  0  0  0  0
   33.1603    7.7106    3.5444 H   0  0  0  0  0  0
   34.5585    7.7794    4.5560 H   0  0  0  0  0  0
   28.0849    7.1697   -0.9340 H   0  0  0  0  0  0
   26.4895    6.5235   -1.2433 H   0  0  0  0  0  0
   26.5246    3.4756   -1.1262 H   0  0  0  0  0  0
   23.8080    2.0642    1.8721 H   0  0  0  0  0  0
   29.0081    7.0494   -2.9886 H   0  0  0  0  0  0
   27.3563    6.7517   -3.5317 H   0  0  0  0  0  0
   29.0075    6.2254   -5.2150 H   0  0  0  0  0  0
   28.0853    4.7964   -4.8124 H   0  0  0  0  0  0
   33.7494    6.2255    6.0659 H   0  0  0  0  0  0
   33.0080    5.2266    4.8830 H   0  0  0  0  0  0
   28.0946    6.6496    3.3855 H   0  0  0  0  0  0
   27.1306    7.1132    4.7646 H   0  0  0  0  0  0
   24.7860    1.8625   -0.4145 H   0  0  0  0  0  0
   29.1557    8.3173    5.0383 H   0  0  0  0  0  0
   29.2179    7.0413    6.1958 H   0  0  0  0  0  0
   31.8527    7.8500    5.9569 H   0  0  0  0  0  0
   31.4087    6.2503    6.4422 H   0  0  0  0  0  0
   30.5539    5.8501    4.0563 H   0  0  0  0  0  0
   30.8683    7.5085    3.7085 H   0  0  0  0  0  0
   26.8786    4.7035    4.5309 H   0  0  0  0  0  0
   27.8692    4.9482    5.9324 H   0  0  0  0  0  0
   28.6076    4.4627    4.3878 H   0  0  0  0  0  0
  1  2  1  0  0  0
  1  3  1  0  0  0
  1  4  2  0  0  0
  1  5  2  0  0  0
  2 13  1  0  0  0
  2 39  1  0  0  0
  3 11  1  0  0  0
  3 12  2  0  0  0
  6  7  1  0  0  0
  6 10  2  0  0  0
  6 26  1  0  0  0
  7 14  1  0  0  0
  7 40  1  0  0  0
  8 15  1  0  0  0
  8 20  1  0  0  0
  8 28  2  0  0  0
  9 20  2  0  0  0
  9 29  1  0  0  0
 11 17  2  0  0  0
 11 41  1  0  0  0
 12 16  1  0  0  0
 12 42  1  0  0  0
 13 21  1  0  0  0
 13 22  2  0  0  0
 14 16  2  0  0  0
 14 17  1  0  0  0
 15 27  1  0  0  0
 15 25  1  0  0  0
 15 43  1  0  0  0
 16 44  1  0  0  0
 17 45  1  0  0  0
 18 30  1  0  0  0
 18 27  1  0  0  0
 18 46  1  0  0  0
 19 24  2  0  0  0
 19 31  1  0  0  0
 19 23  1  0  0  0
 20 47  1  0  0  0
 21 23  2  0  0  0
 21 48  1  0  0  0
 22 24  1  0  0  0
 22 49  1  0  0  0
 23 50  1  0  0  0
 24 51  1  0  0  0
 25 52  1  0  0  0
 26 32  1  0  0  0
 26 53  1  0  0  0
 26 54  1  0  0  0
 27 55  1  0  0  0
 27 56  1  0  0  0
 28 34  1  0  0  0
 28 57  1  0  0  0
 29 34  2  0  0  0
 29 58  1  0  0  0
 30 31  1  0  0  0
 30 59  1  0  0  0
 30 60  1  0  0  0
 31 61  1  0  0  0
 31 62  1  0  0  0
 32 36  1  0  0  0
 32 63  1  0  0  0
 32 64  1  0  0  0
 33 35  1  0  0  0
 33 38  1  0  0  0
 33 65  1  0  0  0
 33 66  1  0  0  0
 34 67  1  0  0  0
 35 37  1  0  0  0
 35 68  1  0  0  0
 35 69  1  0  0  0
 36 37  1  0  0  0
 36 70  1  0  0  0
 36 71  1  0  0  0
 37 72  1  0  0  0
 37 73  1  0  0  0
 38 74  1  0  0  0
 38 75  1  0  0  0
 38 76  1  0  0  0
M  END
> <s_m_entry_id>
3351

> <s_m_entry_name>
dock_pv.443

> <s_m_Source_Path>
/home/csk/Desktop/cluster/DUD-E-result/adrb1

> <s_m_Source_File>
dock_pv.maegz

> <i_m_Source_File_Index>
443

> <chembl_id>
CHEMBL318165

> <chembl_pref_name>
None

> <i_lp_mmshare_version>
53161

> <i_f3d_flags>
0

> <r_lp_tautomer_probability>
1

> <s_lp_Force_Field>
OPLS_2005

> <r_lp_Energy>
23.479878

> <b_lp_Chiralities_Consistent>
1

> <s_lp_Variant>
CHEMBL213_lig145-1

> <s_i_glide_gridfile>
glide-grid_2vt4

> <i_i_glide_lignum>
177

> <i_i_glide_rotatable_bonds>
18

> <r_i_docking_score>
-6.91497273920913

> <r_i_glide_ligand_efficiency>
-0.181972966821293

> <r_i_glide_ligand_efficiency_sa>
-0.61178863841362

> <r_i_glide_ligand_efficiency_ln>
-1.49107154046214

> <r_i_glide_gscore>
-6.91497273920913

> <r_i_glide_lipo>
-3.58955490688011

> <r_i_glide_hbond>
-0.591428804945335

> <r_i_glide_metal>
0

> <r_i_glide_rewards>
0.0412683335689833

> <r_i_glide_evdw>
-54.9365386962891

> <r_i_glide_ecoul>
-7.01386213302612

> <r_i_glide_erotb>
1.06809493405877

> <r_i_glide_esite>
-0.0444460402430709

> <r_i_glide_emodel>
-72.8833624177498

> <r_i_glide_energy>
-61.9504008293152

> <r_i_glide_einternal>
19.7406787872314

> <i_i_glide_confnum>
14

> <i_i_glide_posenum>
370

> <r_i_glide_eff_state_penalty>
0

> <s_user_duplicate_titles>
CHEMBL213_lig145

> <s_m_subgroup_title>
dock_pv

> <s_m_subgroupid>
dock_pv

> <b_m_subgroup_collapsed>
1

$$$$
CHEMBL213_lig950
                    3D
 Schrodinger Suite 2021-1.
 58 60  0  0  1  0            999 V2000
   29.0041    7.4509    5.5487 C   0  0  0  0  0  0
   28.0171    6.6432    5.0014 C   0  0  0  0  0  0
   28.2965    5.8498    3.8917 C   0  0  0  0  0  0
   29.5783    5.8651    3.3384 C   0  0  0  0  0  0
   30.5899    6.6512    3.9027 C   0  0  0  0  0  0
   30.2815    7.4615    5.0020 C   0  0  0  0  0  0
   26.7661    6.6493    5.5595 O   0  0  0  0  0  0
   31.8393    6.6013    3.3124 O   0  0  0  0  0  0
   33.0270    6.8863    4.0735 C   0  0  0  0  0  0
   34.0092    7.6842    3.1900 C   0  0  2  0  0  0
   34.5836    6.8570    2.0201 C   0  0  0  0  0  0
   35.5680    5.8730    2.4711 N   0  0  1  0  0  0
   35.8849    4.8428    1.4869 C   0  0  0  0  0  0
   36.4520    5.3453    0.1361 C   0  0  0  0  0  0
   35.5330    5.2143   -1.0811 C   0  0  0  0  0  0
   36.1074    5.2081   -2.3547 C   0  0  0  0  0  0
   35.3120    5.0488   -3.4857 C   0  0  0  0  0  0
   33.9299    4.9201   -3.3533 C   0  0  0  0  0  0
   33.3483    4.9257   -2.0802 C   0  0  0  0  0  0
   34.1461    5.0729   -0.9566 C   0  0  0  0  0  0
   33.1868    4.7376   -4.5273 N   0  0  0  0  0  0
   31.8931    5.0498   -4.7376 C   0  0  0  0  0  0
   31.3259    4.6219   -6.0926 C   0  0  0  0  0  0
   31.1748    5.6570   -3.9399 O   0  0  0  0  0  0
   35.0671    8.2498    3.9527 O   0  0  0  0  0  0
   30.5378    3.3156   -6.0241 C   0  0  0  0  0  0
   30.8911    2.2249   -6.8281 C   0  0  0  0  0  0
   30.2075    1.0509   -6.8306 N   0  0  0  0  0  0
   29.1218    0.9500   -6.0219 C   0  0  0  0  0  0
   28.6824    1.9952   -5.2149 C   0  0  0  0  0  0
   29.4062    3.1856   -5.2088 C   0  0  0  0  0  0
   28.7762    8.0899    6.3853 H   0  0  0  0  0  0
   27.5279    5.2236    3.4618 H   0  0  0  0  0  0
   29.8019    5.2447    2.4825 H   0  0  0  0  0  0
   31.0029    8.1355    5.4342 H   0  0  0  0  0  0
   26.6635    7.3398    6.2296 H   0  0  0  0  0  0
   33.4728    5.9431    4.3939 H   0  0  0  0  0  0
   32.8581    7.4485    4.9884 H   0  0  0  0  0  0
   33.4443    8.5225    2.7851 H   0  0  0  0  0  0
   35.0336    7.5186    1.2790 H   0  0  0  0  0  0
   33.7403    6.3682    1.5388 H   0  0  0  0  0  0
   36.4014    6.3769    2.7447 H   0  0  0  0  0  0
   35.0062    4.2250    1.3539 H   0  0  0  0  0  0
   36.6079    4.1708    1.9383 H   0  0  0  0  0  0
   37.3359    4.7404   -0.0782 H   0  0  0  0  0  0
   36.8186    6.3700    0.2072 H   0  0  0  0  0  0
   37.1779    5.3123   -2.4757 H   0  0  0  0  0  0
   35.7823    5.0439   -4.4601 H   0  0  0  0  0  0
   32.2866    4.7866   -1.9416 H   0  0  0  0  0  0
   33.6542    5.0449   -0.0014 H   0  0  0  0  0  0
   33.7096    4.3943   -5.3182 H   0  0  0  0  0  0
   32.1226    4.5598   -6.8363 H   0  0  0  0  0  0
   30.6453    5.4122   -6.4147 H   0  0  0  0  0  0
   34.6810    8.7939    4.6424 H   0  0  0  0  0  0
   31.7419    2.2756   -7.4920 H   0  0  0  0  0  0
   28.5969    0.0059   -6.0167 H   0  0  0  0  0  0
   27.8079    1.8826   -4.5898 H   0  0  0  0  0  0
   29.0809    4.0036   -4.5822 H   0  0  0  0  0  0
  1  6  1  0  0  0
  1  2  2  0  0  0
  1 32  1  0  0  0
  2  3  1  0  0  0
  2  7  1  0  0  0
  3  4  2  0  0  0
  3 33  1  0  0  0
  4  5  1  0  0  0
  4 34  1  0  0  0
  5  8  1  0  0  0
  5  6  2  0  0  0
  6 35  1  0  0  0
  7 36  1  0  0  0
  8  9  1  0  0  0
  9 10  1  0  0  0
  9 37  1  0  0  0
  9 38  1  0  0  0
 10 11  1  0  0  0
 10 25  1  0  0  0
 10 39  1  0  0  0
 11 12  1  0  0  0
 11 40  1  0  0  0
 11 41  1  0  0  0
 12 13  1  0  0  0
 12 42  1  0  0  0
 13 14  1  0  0  0
 13 43  1  0  0  0
 13 44  1  0  0  0
 14 15  1  0  0  0
 14 45  1  0  0  0
 14 46  1  0  0  0
 15 16  2  0  0  0
 15 20  1  0  0  0
 16 17  1  0  0  0
 16 47  1  0  0  0
 17 18  2  0  0  0
 17 48  1  0  0  0
 18 19  1  0  0  0
 18 21  1  0  0  0
 19 20  2  0  0  0
 19 49  1  0  0  0
 20 50  1  0  0  0
 21 22  1  0  0  0
 21 51  1  0  0  0
 22 23  1  0  0  0
 22 24  2  0  0  0
 23 26  1  0  0  0
 23 52  1  0  0  0
 23 53  1  0  0  0
 25 54  1  0  0  0
 26 27  2  0  0  0
 26 31  1  0  0  0
 27 28  1  0  0  0
 27 55  1  0  0  0
 28 29  2  0  0  0
 29 30  1  0  0  0
 29 56  1  0  0  0
 30 31  2  0  0  0
 30 57  1  0  0  0
 31 58  1  0  0  0
M  END
> <s_m_entry_id>
3352

> <s_m_entry_name>
dock_pv.444

> <s_m_Source_Path>
/home/csk/Desktop/cluster/DUD-E-result/adrb1

> <s_m_Source_File>
dock_pv.maegz

> <i_m_Source_File_Index>
444

> <chembl_id>
CHEMBL561818

> <chembl_pref_name>
None

> <i_lp_mmshare_version>
53161

> <i_f3d_flags>
0

> <r_lp_tautomer_probability>
0.999999999999998

> <s_lp_Force_Field>
OPLS_2005

> <r_lp_Energy>
32.840639

> <b_lp_Chiralities_Consistent>
1

> <s_lp_Variant>
CHEMBL213_lig950-1

> <s_i_glide_gridfile>
glide-grid_2vt4

> <i_i_glide_lignum>
1062

> <i_i_glide_rotatable_bonds>
14

> <r_i_docking_score>
-6.91242776299226

> <r_i_glide_ligand_efficiency>
-0.222981540741686

> <r_i_glide_ligand_efficiency_sa>
-0.700469897124553

> <r_i_glide_ligand_efficiency_ln>
-1.55896430102461

> <r_i_glide_gscore>
-6.91242776299226

> <r_i_glide_lipo>
-2.58099195352412

> <r_i_glide_hbond>
-0.603042098694603

> <r_i_glide_metal>
0

> <r_i_glide_rewards>
-0.896922960964898

> <r_i_glide_evdw>
-47.4390563964844

> <r_i_glide_ecoul>
-11.2374849319458

> <r_i_glide_erotb>
1.22610480980746

> <r_i_glide_esite>
0

> <r_i_glide_emodel>
-78.0963740129425

> <r_i_glide_energy>
-58.6765413284302

> <r_i_glide_einternal>
10.1102437973022

> <i_i_glide_confnum>
55

> <i_i_glide_posenum>
388

> <r_i_glide_eff_state_penalty>
0

> <s_user_duplicate_titles>
CHEMBL213_lig950,559459

> <s_m_subgroup_title>
dock_pv

> <s_m_subgroupid>
dock_pv

> <b_m_subgroup_collapsed>
1

$$$$
CHEMBL213_lig569
                    3D
 Schrodinger Suite 2021-1.
 44 46  0  0  1  0            999 V2000
   25.8208    4.0574    1.1064 C   0  0  0  0  0  0
   24.1610    4.2498    2.6258 N   0  0  0  0  0  0
   24.4835    3.8258    1.3635 C   0  0  0  0  0  0
   26.3521    4.6501    2.3172 C   0  0  0  0  0  0
   25.2650    4.8124    3.2273 C   0  0  0  0  0  0
   29.8046    4.4612   -4.6031 C   0  0  0  0  0  0
   26.5627    3.7185   -0.1768 C   0  0  0  0  0  0
   29.3079    3.1676   -4.8126 C   0  0  0  0  0  0
   28.5273    4.2800   -1.5140 N   0  0  1  0  0  0
   29.4201    5.2159   -2.1985 C   0  0  0  0  0  0
   29.0477    5.4252   -3.6871 C   0  0  1  0  0  0
   30.0060    2.2612   -5.6083 C   0  0  0  0  0  0
   29.4078    0.6542   -5.8109 Cl  0  0  0  0  0  0
   27.4698    4.8616   -0.6856 C   0  0  1  0  0  0
   29.2544    6.7891   -4.0153 O   0  0  0  0  0  0
   31.0076    4.8378   -5.2168 C   0  0  0  0  0  0
   27.6318    5.0570    2.7402 C   0  0  0  0  0  0
   31.7009    3.9352   -6.0220 C   0  0  0  0  0  0
   25.4082    5.4497    4.4660 C   0  0  0  0  0  0
   31.1992    2.6488   -6.2205 C   0  0  0  0  0  0
   26.6836    6.0300   -1.3258 C   0  0  0  0  0  0
   27.7835    5.6590    3.9882 C   0  0  0  0  0  0
   26.6905    5.8663    4.8232 C   0  0  0  0  0  0
   23.2242    4.1866    2.9972 H   0  0  0  0  0  0
   23.7216    3.3978    0.7244 H   0  0  0  0  0  0
   25.8598    3.4501   -0.9674 H   0  0  0  0  0  0
   27.1418    2.8107   -0.0151 H   0  0  0  0  0  0
   28.3830    2.8569   -4.3449 H   0  0  0  0  0  0
   28.2697    3.4228   -2.0103 H   0  0  0  0  0  0
   30.4458    4.8517   -2.1208 H   0  0  0  0  0  0
   29.4080    6.1603   -1.6523 H   0  0  0  0  0  0
   27.9770    5.2776   -3.8422 H   0  0  0  0  0  0
   28.0088    5.2865    0.1557 H   0  0  0  0  0  0
   28.5650    7.3148   -3.6027 H   0  0  0  0  0  0
   31.4061    5.8319   -5.0750 H   0  0  0  0  0  0
   28.5000    4.9089    2.1172 H   0  0  0  0  0  0
   32.6265    4.2346   -6.4926 H   0  0  0  0  0  0
   24.5710    5.5994    5.1328 H   0  0  0  0  0  0
   31.7446    1.9491   -6.8354 H   0  0  0  0  0  0
   25.8879    6.3677   -0.6618 H   0  0  0  0  0  0
   27.3201    6.8928   -1.5164 H   0  0  0  0  0  0
   26.2180    5.7576   -2.2679 H   0  0  0  0  0  0
   28.7650    5.9795    4.3070 H   0  0  0  0  0  0
   26.8405    6.3558    5.7755 H   0  0  0  0  0  0
  1  3  2  0  0  0
  1  4  1  0  0  0
  1  7  1  0  0  0
  2  3  1  0  0  0
  2  5  1  0  0  0
  2 24  1  0  0  0
  3 25  1  0  0  0
  4  5  2  0  0  0
  4 17  1  0  0  0
  5 19  1  0  0  0
  6 11  1  0  0  0
  6  8  2  0  0  0
  6 16  1  0  0  0
  7 14  1  0  0  0
  7 26  1  0  0  0
  7 27  1  0  0  0
  8 12  1  0  0  0
  8 28  1  0  0  0
  9 14  1  0  0  0
  9 10  1  0  0  0
  9 29  1  0  0  0
 10 11  1  0  0  0
 10 30  1  0  0  0
 10 31  1  0  0  0
 11 15  1  0  0  0
 11 32  1  0  0  0
 12 13  1  0  0  0
 12 20  2  0  0  0
 14 21  1  0  0  0
 14 33  1  0  0  0
 15 34  1  0  0  0
 16 18  2  0  0  0
 16 35  1  0  0  0
 17 22  2  0  0  0
 17 36  1  0  0  0
 18 20  1  0  0  0
 18 37  1  0  0  0
 19 23  2  0  0  0
 19 38  1  0  0  0
 20 39  1  0  0  0
 21 40  1  0  0  0
 21 41  1  0  0  0
 21 42  1  0  0  0
 22 23  1  0  0  0
 22 43  1  0  0  0
 23 44  1  0  0  0
M  END
> <s_m_entry_id>
3353

> <s_m_entry_name>
dock_pv.445

> <s_m_Source_Path>
/home/csk/Desktop/cluster/DUD-E-result/adrb1

> <s_m_Source_File>
dock_pv.maegz

> <i_m_Source_File_Index>
445

> <chembl_id>
CHEMBL282039

> <chembl_pref_name>
None

> <i_lp_mmshare_version>
53161

> <i_f3d_flags>
0

> <r_lp_tautomer_probability>
1

> <s_lp_Force_Field>
OPLS_2005

> <r_lp_Energy>
20.135936

> <b_lp_Chiralities_Consistent>
1

> <s_lp_Variant>
CHEMBL213_lig569-1

> <s_i_glide_gridfile>
glide-grid_2vt4

> <i_i_glide_lignum>
669

> <i_i_glide_rotatable_bonds>
7

> <r_i_docking_score>
-6.91006464830282

> <r_i_glide_ligand_efficiency>
-0.300437593404471

> <r_i_glide_ligand_efficiency_sa>
-0.854404550496051

> <r_i_glide_ligand_efficiency_ln>
-1.67091628896168

> <r_i_glide_gscore>
-6.91006464830282

> <r_i_glide_lipo>
-2.89836365856659

> <r_i_glide_hbond>
-0.32

> <r_i_glide_metal>
0

> <r_i_glide_rewards>
-1.76687524440971

> <r_i_glide_evdw>
-38.0402793884277

> <r_i_glide_ecoul>
-4.78511047363281

> <r_i_glide_erotb>
0.694954795139791

> <r_i_glide_esite>
0

> <r_i_glide_emodel>
-53.5556246886111

> <r_i_glide_energy>
-42.8253898620605

> <r_i_glide_einternal>
15.2329921722412

> <i_i_glide_confnum>
97

> <i_i_glide_posenum>
278

> <r_i_glide_eff_state_penalty>
0

> <s_user_duplicate_titles>
CHEMBL213_lig569,32348

> <s_m_subgroup_title>
dock_pv

> <s_m_subgroupid>
dock_pv

> <b_m_subgroup_collapsed>
1

$$$$
CHEMBL213_lig290
                    3D
 Schrodinger Suite 2021-1.
 52 54  0  0  1  0            999 V2000
   35.8809    4.2510   -2.8512 S   0  0  0  0  0  0
   27.9932    5.8502    3.3779 N   0  0  0  0  0  0
   36.4227    5.5500   -1.7769 N   0  0  0  0  0  0
   34.6957    4.7494   -3.5567 O   0  0  0  0  0  0
   35.8063    3.0278   -2.0465 O   0  0  0  0  0  0
   29.4312    5.8497    3.0248 C   0  0  0  0  0  0
   30.1363    7.0534    5.0578 N   0  0  2  0  0  0
   27.0274    5.1821    2.6087 C   0  0  0  0  0  0
   30.2394    7.0491    3.5996 C   0  0  1  0  0  0
   32.5507    6.0486    3.4642 N   0  0  1  0  0  0
   35.7859    5.7965   -0.5543 C   0  0  0  0  0  0
   37.3078    4.1003   -4.0580 C   0  0  0  0  0  0
   27.8407    6.0752    4.8318 C   0  0  0  0  0  0
   28.7307    7.1979    5.4215 C   0  0  0  0  0  0
   34.5830    6.1754    1.9468 C   0  0  0  0  0  0
   36.5571    6.1810    0.5429 C   0  0  0  0  0  0
   34.4058    5.6468   -0.4119 C   0  0  0  0  0  0
   35.9573    6.3729    1.7866 C   0  0  0  0  0  0
   33.8110    5.8301    0.8313 C   0  0  0  0  0  0
   31.6927    7.1594    3.0729 C   0  0  0  0  0  0
   33.9873    6.3014    3.3541 C   0  0  0  0  0  0
   27.1738    5.0501    1.2159 C   0  0  0  0  0  0
   25.8630    4.6502    3.1928 C   0  0  0  0  0  0
   24.9090    3.9806    2.4272 C   0  0  0  0  0  0
   26.2190    4.3880    0.4451 C   0  0  0  0  0  0
   25.0917    3.8497    1.0549 C   0  0  0  0  0  0
   37.4199    5.6947   -1.7850 H   0  0  0  0  0  0
   29.5852    5.8497    1.9550 H   0  0  0  0  0  0
   29.8321    4.9146    3.4030 H   0  0  0  0  0  0
   30.6551    7.8512    5.4013 H   0  0  0  0  0  0
   29.8022    7.9661    3.2069 H   0  0  0  0  0  0
   32.2404    5.5775    4.3098 H   0  0  0  0  0  0
   37.0761    3.3127   -4.7718 H   0  0  0  0  0  0
   38.2104    3.8518   -3.5011 H   0  0  0  0  0  0
   37.4316    5.0500   -4.5750 H   0  0  0  0  0  0
   26.8077    6.3329    5.0653 H   0  0  0  0  0  0
   28.0810    5.1456    5.3491 H   0  0  0  0  0  0
   28.3674    8.1755    5.1018 H   0  0  0  0  0  0
   28.6516    7.2074    6.5092 H   0  0  0  0  0  0
   37.6249    6.3082    0.4402 H   0  0  0  0  0  0
   33.7890    5.3595   -1.2498 H   0  0  0  0  0  0
   36.5699    6.6496    2.6317 H   0  0  0  0  0  0
   32.7493    5.6607    0.9193 H   0  0  0  0  0  0
   32.1224    8.0902    3.4390 H   0  0  0  0  0  0
   31.6696    7.2358    1.9865 H   0  0  0  0  0  0
   34.4798    5.5474    3.9690 H   0  0  0  0  0  0
   34.2320    7.2763    3.7797 H   0  0  0  0  0  0
   28.0224    5.4655    0.6980 H   0  0  0  0  0  0
   25.6854    4.7235    4.2532 H   0  0  0  0  0  0
   24.0260    3.5701    2.8949 H   0  0  0  0  0  0
   26.3477    4.2974   -0.6250 H   0  0  0  0  0  0
   24.3493    3.3423    0.4540 H   0  0  0  0  0  0
  1  3  1  0  0  0
  1  4  2  0  0  0
  1  5  2  0  0  0
  1 12  1  0  0  0
  2  6  1  0  0  0
  2  8  1  0  0  0
  2 13  1  0  0  0
  3 11  1  0  0  0
  3 27  1  0  0  0
  6  9  1  0  0  0
  6 28  1  0  0  0
  6 29  1  0  0  0
  7  9  1  0  0  0
  7 14  1  0  0  0
  7 30  1  0  0  0
  8 22  1  0  0  0
  8 23  2  0  0  0
  9 20  1  0  0  0
  9 31  1  0  0  0
 10 21  1  0  0  0
 10 20  1  0  0  0
 10 32  1  0  0  0
 11 16  2  0  0  0
 11 17  1  0  0  0
 12 33  1  0  0  0
 12 34  1  0  0  0
 12 35  1  0  0  0
 13 14  1  0  0  0
 13 36  1  0  0  0
 13 37  1  0  0  0
 14 38  1  0  0  0
 14 39  1  0  0  0
 15 19  1  0  0  0
 15 21  1  0  0  0
 15 18  2  0  0  0
 16 18  1  0  0  0
 16 40  1  0  0  0
 17 19  2  0  0  0
 17 41  1  0  0  0
 18 42  1  0  0  0
 19 43  1  0  0  0
 20 44  1  0  0  0
 20 45  1  0  0  0
 21 46  1  0  0  0
 21 47  1  0  0  0
 22 25  2  0  0  0
 22 48  1  0  0  0
 23 24  1  0  0  0
 23 49  1  0  0  0
 24 26  2  0  0  0
 24 50  1  0  0  0
 25 26  1  0  0  0
 25 51  1  0  0  0
 26 52  1  0  0  0
M  END
> <s_m_entry_id>
3354

> <s_m_entry_name>
dock_pv.446

> <s_m_Source_Path>
/home/csk/Desktop/cluster/DUD-E-result/adrb1

> <s_m_Source_File>
dock_pv.maegz

> <i_m_Source_File_Index>
446

> <chembl_id>
CHEMBL163153

> <chembl_pref_name>
None

> <i_lp_mmshare_version>
53161

> <i_f3d_flags>
0

> <r_lp_tautomer_probability>
1

> <s_lp_Force_Field>
OPLS_2005

> <r_lp_Energy>
36.949358

> <b_lp_Chiralities_Consistent>
1

> <s_lp_Variant>
CHEMBL213_lig290-2

> <s_i_glide_gridfile>
glide-grid_2vt4

> <i_i_glide_lignum>
331

> <i_i_glide_rotatable_bonds>
7

> <r_i_docking_score>
-6.90843369109172

> <r_i_glide_ligand_efficiency>
-0.265708988118912

> <r_i_glide_ligand_efficiency_sa>
-0.787161831787896

> <r_i_glide_ligand_efficiency_ln>
-1.62242298393303

> <r_i_glide_gscore>
-6.90843369109172

> <r_i_glide_lipo>
-2.54942256442429

> <r_i_glide_hbond>
-0.48750821501923

> <r_i_glide_metal>
0

> <r_i_glide_rewards>
-1.93052773628768

> <r_i_glide_evdw>
-39.7555274963379

> <r_i_glide_ecoul>
-5.1215968132019

> <r_i_glide_erotb>
0.827230456296564

> <r_i_glide_esite>
-0.0121897348599079

> <r_i_glide_emodel>
-56.0435377803822

> <r_i_glide_energy>
-44.8771243095398

> <r_i_glide_einternal>
9.01088619232178

> <i_i_glide_confnum>
175

> <i_i_glide_posenum>
361

> <r_i_glide_eff_state_penalty>
0

> <s_user_duplicate_titles>
CHEMBL213_lig290

> <s_m_subgroup_title>
dock_pv

> <s_m_subgroupid>
dock_pv

> <b_m_subgroup_collapsed>
1

$$$$
CHEMBL213_lig714
                    3D
 Schrodinger Suite 2021-1.
 69 72  0  0  1  0            999 V2000
   33.1538    4.2175   -2.4970 C   0  0  0  0  0  0
   34.4911    3.8068   -2.5767 C   0  0  0  0  0  0
   35.4696    4.4123   -1.7897 C   0  0  0  0  0  0
   35.1212    5.4311   -0.9061 C   0  0  0  0  0  0
   33.7923    5.8503   -0.8337 C   0  0  0  0  0  0
   32.8142    5.2481   -1.6146 C   0  0  0  0  0  0
   32.1271    3.4860   -3.3767 C   0  0  0  0  0  0
   30.7118    4.0980   -3.6381 C   0  0  0  0  0  0
   29.9546    4.0926   -2.3764 N   0  0  2  0  0  0
   30.8036    5.5177   -4.2574 C   0  0  0  0  0  0
   29.9785    3.1594   -4.6291 C   0  0  0  0  0  0
   28.6167    4.6995   -2.3709 C   0  0  0  0  0  0
   27.8545    4.5078   -1.0342 C   0  0  1  0  0  0
   28.5373    5.1679    0.1814 C   0  0  0  0  0  0
   27.8071    4.9803    1.4038 O   0  0  0  0  0  0
   28.3118    5.5123    2.5795 C   0  0  0  0  0  0
   29.1189    6.8966    4.9014 C   0  0  0  0  0  0
   30.0539    6.5740    3.9193 C   0  0  0  0  0  0
   29.6639    5.8500    2.7864 C   0  0  0  0  0  0
   27.8020    6.4788    4.7328 C   0  0  0  0  0  0
   27.3903    5.8099    3.5929 C   0  0  0  0  0  0
   25.8986    5.6547    3.6834 C   0  0  2  0  0  0
   25.5920    6.1059    5.1200 C   0  0  0  0  0  0
   26.7255    6.6498    5.5849 N   0  0  0  0  0  0
   24.5160    6.0278    5.7074 O   0  0  0  0  0  0
   26.6000    5.1364   -1.2147 O   0  0  0  0  0  0
   36.1129    6.0360   -0.1571 O   0  0  0  0  0  0
   36.0108    6.2356    1.2105 C   0  0  0  0  0  0
   35.0015    5.6355    1.9002 N   0  0  0  0  0  0
   34.9138    5.8470    3.2350 C   0  0  0  0  0  0
   35.8255    6.6356    3.9555 C   0  0  0  0  0  0
   36.8602    7.2422    3.2258 C   0  0  0  0  0  0
   36.9546    7.0450    1.8449 C   0  0  0  0  0  0
   35.7260    6.8193    5.4525 C   0  0  0  0  0  0
   34.6921    6.2515    6.0712 N   0  0  0  0  0  0
   36.5700    7.4485    6.0869 O   0  0  0  0  0  0
   25.3330    4.2533    3.3822 C   0  0  0  0  0  0
   34.7775    3.0109   -3.2488 H   0  0  0  0  0  0
   36.4989    4.0888   -1.8619 H   0  0  0  0  0  0
   33.5223    6.6498   -0.1632 H   0  0  0  0  0  0
   31.8065    5.6062   -1.5106 H   0  0  0  0  0  0
   32.6050    3.3440   -4.3475 H   0  0  0  0  0  0
   32.0110    2.4846   -2.9588 H   0  0  0  0  0  0
   30.5256    4.3599   -1.5905 H   0  0  0  0  0  0
   31.4982    5.5386   -5.0977 H   0  0  0  0  0  0
   29.8374    5.8623   -4.6297 H   0  0  0  0  0  0
   31.1406    6.2692   -3.5465 H   0  0  0  0  0  0
   30.5558    3.0137   -5.5427 H   0  0  0  0  0  0
   29.8092    2.1728   -4.1919 H   0  0  0  0  0  0
   29.0031    3.5420   -4.9297 H   0  0  0  0  0  0
   28.7023    5.7662   -2.5873 H   0  0  0  0  0  0
   28.0144    4.2453   -3.1577 H   0  0  0  0  0  0
   27.6883    3.4494   -0.8280 H   0  0  0  0  0  0
   29.5484    4.7705    0.2718 H   0  0  0  0  0  0
   28.6082    6.2311   -0.0411 H   0  0  0  0  0  0
   29.4266    7.4485    5.7772 H   0  0  0  0  0  0
   31.0849    6.8719    4.0344 H   0  0  0  0  0  0
   30.4180    5.6209    2.0494 H   0  0  0  0  0  0
   25.4145    6.3817    3.0351 H   0  0  0  0  0  0
   26.7610    7.1722    6.4543 H   0  0  0  0  0  0
   26.0918    4.6824   -1.9061 H   0  0  0  0  0  0
   34.0871    5.3380    3.7090 H   0  0  0  0  0  0
   37.5974    7.8603    3.7183 H   0  0  0  0  0  0
   37.7470    7.5034    1.2733 H   0  0  0  0  0  0
   34.6205    6.3316    7.0731 H   0  0  0  0  0  0
   33.9834    5.7456    5.5627 H   0  0  0  0  0  0
   25.8080    3.4815    3.9849 H   0  0  0  0  0  0
   24.2570    4.2051    3.5617 H   0  0  0  0  0  0
   25.4938    3.9909    2.3355 H   0  0  0  0  0  0
  1  6  1  0  0  0
  1  2  2  0  0  0
  1  7  1  0  0  0
  2  3  1  0  0  0
  2 38  1  0  0  0
  3  4  2  0  0  0
  3 39  1  0  0  0
  4  5  1  0  0  0
  4 27  1  0  0  0
  5  6  2  0  0  0
  5 40  1  0  0  0
  6 41  1  0  0  0
  7  8  1  0  0  0
  7 42  1  0  0  0
  7 43  1  0  0  0
  8  9  1  0  0  0
  8 10  1  0  0  0
  8 11  1  0  0  0
  9 12  1  0  0  0
  9 44  1  0  0  0
 10 45  1  0  0  0
 10 46  1  0  0  0
 10 47  1  0  0  0
 11 48  1  0  0  0
 11 49  1  0  0  0
 11 50  1  0  0  0
 12 13  1  0  0  0
 12 51  1  0  0  0
 12 52  1  0  0  0
 13 26  1  0  0  0
 13 14  1  0  0  0
 13 53  1  0  0  0
 14 15  1  0  0  0
 14 54  1  0  0  0
 14 55  1  0  0  0
 15 16  1  0  0  0
 16 19  1  0  0  0
 16 21  2  0  0  0
 17 18  1  0  0  0
 17 20  2  0  0  0
 17 56  1  0  0  0
 18 19  2  0  0  0
 18 57  1  0  0  0
 19 58  1  0  0  0
 20 21  1  0  0  0
 20 24  1  0  0  0
 21 22  1  0  0  0
 22 23  1  0  0  0
 22 37  1  0  0  0
 22 59  1  0  0  0
 23 24  1  0  0  0
 23 25  2  0  0  0
 24 60  1  0  0  0
 26 61  1  0  0  0
 27 28  1  0  0  0
 28 29  2  0  0  0
 28 33  1  0  0  0
 29 30  1  0  0  0
 30 31  2  0  0  0
 30 62  1  0  0  0
 31 32  1  0  0  0
 31 34  1  0  0  0
 32 33  2  0  0  0
 32 63  1  0  0  0
 33 64  1  0  0  0
 34 35  1  0  0  0
 34 36  2  0  0  0
 35 65  1  0  0  0
 35 66  1  0  0  0
 37 67  1  0  0  0
 37 68  1  0  0  0
 37 69  1  0  0  0
M  END
> <s_m_entry_id>
3355

> <s_m_entry_name>
dock_pv.447

> <s_m_Source_Path>
/home/csk/Desktop/cluster/DUD-E-result/adrb1

> <s_m_Source_File>
dock_pv.maegz

> <i_m_Source_File_Index>
447

> <chembl_id>
CHEMBL404626

> <chembl_pref_name>
None

> <i_lp_mmshare_version>
53161

> <i_f3d_flags>
0

> <r_lp_tautomer_probability>
1

> <s_lp_Force_Field>
OPLS_2005

> <r_lp_Energy>
55.579591

> <b_lp_Chiralities_Consistent>
1

> <s_lp_Variant>
CHEMBL213_lig714-1

> <s_i_glide_gridfile>
glide-grid_2vt4

> <i_i_glide_lignum>
819

> <i_i_glide_rotatable_bonds>
12

> <r_i_docking_score>
-6.90670201622667

> <r_i_glide_ligand_efficiency>
-0.18666762206018

> <r_i_glide_ligand_efficiency_sa>
-0.622017928475036

> <r_i_glide_ligand_efficiency_ln>
-1.4979017512515

> <r_i_glide_gscore>
-6.90670201622667

> <r_i_glide_lipo>
-2.75298333351973

> <r_i_glide_hbond>
-0.304

> <r_i_glide_metal>
0

> <r_i_glide_rewards>
-1.02837602881194

> <r_i_glide_evdw>
-53.9072914123535

> <r_i_glide_ecoul>
-6.19405889511108

> <r_i_glide_erotb>
0.803130750989333

> <r_i_glide_esite>
0

> <r_i_glide_emodel>
-81.06863383691

> <r_i_glide_energy>
-60.1013503074646

> <r_i_glide_einternal>
8.36417961120605

> <i_i_glide_confnum>
50

> <i_i_glide_posenum>
20

> <r_i_glide_eff_state_penalty>
0

> <s_user_duplicate_titles>
CHEMBL213_lig714

> <s_m_subgroup_title>
dock_pv

> <s_m_subgroupid>
dock_pv

> <b_m_subgroup_collapsed>
1

$$$$
CHEMBL213_lig1404
                    3D
 Schrodinger Suite 2021-1.
 69 73  0  0  1  0            999 V2000
   27.7127    4.1351   -0.4152 N   0  0  1  0  0  0
   28.6649    4.2865   -1.4976 C   0  0  0  0  0  0
   29.0477    5.7333   -1.8232 C   0  0  0  0  0  0
   30.0826    5.7646   -2.9793 C   0  0  0  0  0  0
   31.2354    4.8318   -2.8801 N   0  0  0  0  0  0
   30.8518    3.4897   -2.4304 C   0  0  0  0  0  0
   29.9789    3.5661   -1.1726 C   0  0  0  0  0  0
   32.5683    5.1940   -2.7777 C   0  0  0  0  0  0
   32.8792    5.8497   -1.6291 N   0  0  0  0  0  0
   34.1879    6.0135   -1.3438 C   0  0  0  0  0  0
   35.2427    5.5725   -2.0636 N   0  0  0  0  0  0
   33.5818    4.7363   -3.6884 C   0  0  0  0  0  0
   34.9177    4.9519   -3.2015 C   0  0  0  0  0  0
   36.1459    4.2501   -4.2235 S   0  0  0  0  0  0
   34.9166    3.8396   -5.3786 C   0  0  0  0  0  0
   33.6012    4.0943   -5.0096 C   0  0  0  0  0  0
   26.3219    4.2008   -0.8300 C   0  0  0  0  0  0
   25.4372    4.4469    0.4008 C   0  0  2  0  0  0
   25.3076    3.3381    1.4704 C   0  0  0  0  0  0
   24.1215    4.6500   -0.0150 O   0  0  0  0  0  0
   24.9374    3.8562    2.7536 O   0  0  0  0  0  0
   25.7727    4.7445    3.4084 C   0  0  0  0  0  0
   27.1228    4.9613    3.0837 C   0  0  0  0  0  0
   27.9075    5.8507    3.8189 C   0  0  0  0  0  0
   27.3221    6.5735    4.8587 C   0  0  0  0  0  0
   25.9817    6.3792    5.1864 C   0  0  0  0  0  0
   25.2253    5.4502    4.4778 C   0  0  0  0  0  0
   32.4528    3.6667   -5.8997 C   0  0  0  0  0  0
   31.1835    4.1881   -5.7025 C   0  0  0  0  0  0
   30.0564    3.4497   -6.0329 C   0  0  0  0  0  0
   30.1928    2.3218   -6.8365 C   0  0  0  0  0  0
   31.4546    1.9382   -7.2859 C   0  0  0  0  0  0
   32.5832    2.6125   -6.8150 C   0  0  0  0  0  0
   28.0714    7.4501    5.5850 O   0  0  0  0  0  0
   29.4084    5.9097    3.5806 C   0  0  0  0  0  0
   29.9344    7.2264    3.5850 O   0  0  0  0  0  0
   31.3447    7.2356    3.4063 C   0  0  0  0  0  0
   27.8675    3.2031   -0.0598 H   0  0  0  0  0  0
   28.2477    3.8500   -2.4056 H   0  0  0  0  0  0
   28.1647    6.2982   -2.1215 H   0  0  0  0  0  0
   29.4108    6.2499   -0.9396 H   0  0  0  0  0  0
   29.5205    5.4759   -3.8680 H   0  0  0  0  0  0
   30.4388    6.7669   -3.2149 H   0  0  0  0  0  0
   30.2848    3.0212   -3.2357 H   0  0  0  0  0  0
   31.7223    2.8514   -2.2656 H   0  0  0  0  0  0
   30.4904    4.0631   -0.3482 H   0  0  0  0  0  0
   29.7953    2.5595   -0.8148 H   0  0  0  0  0  0
   34.4125    6.5353   -0.4243 H   0  0  0  0  0  0
   35.2528    3.3883   -6.3001 H   0  0  0  0  0  0
   26.0464    3.2786   -1.3423 H   0  0  0  0  0  0
   26.2080    5.0326   -1.5279 H   0  0  0  0  0  0
   25.8080    5.3767    0.8363 H   0  0  0  0  0  0
   26.2079    2.7675    1.5581 H   0  0  0  0  0  0
   24.5756    2.5832    1.1758 H   0  0  0  0  0  0
   23.8638    3.9995   -0.6896 H   0  0  0  0  0  0
   27.5897    4.3979    2.2917 H   0  0  0  0  0  0
   25.5312    6.9277    6.0018 H   0  0  0  0  0  0
   24.1962    5.2812    4.7566 H   0  0  0  0  0  0
   31.0799    5.1330   -5.2105 H   0  0  0  0  0  0
   29.0997    3.7533   -5.6260 H   0  0  0  0  0  0
   29.3176    1.7549   -7.1185 H   0  0  0  0  0  0
   31.5668    1.0670   -7.9159 H   0  0  0  0  0  0
   33.5536    2.2089   -7.0572 H   0  0  0  0  0  0
   27.5371    7.9548    6.2214 H   0  0  0  0  0  0
   29.7087    5.3401    2.6979 H   0  0  0  0  0  0
   29.8077    5.4500    4.4659 H   0  0  0  0  0  0
   31.7197    8.2494    3.4869 H   0  0  0  0  0  0
   31.6209    6.8576    2.4219 H   0  0  0  0  0  0
   31.8548    6.6410    4.1652 H   0  0  0  0  0  0
  1  2  1  0  0  0
  1 17  1  0  0  0
  1 38  1  0  0  0
  2  3  1  0  0  0
  2  7  1  0  0  0
  2 39  1  0  0  0
  3  4  1  0  0  0
  3 40  1  0  0  0
  3 41  1  0  0  0
  4  5  1  0  0  0
  4 42  1  0  0  0
  4 43  1  0  0  0
  5  6  1  0  0  0
  5  8  1  0  0  0
  6  7  1  0  0  0
  6 44  1  0  0  0
  6 45  1  0  0  0
  7 46  1  0  0  0
  7 47  1  0  0  0
  8  9  2  0  0  0
  8 12  1  0  0  0
  9 10  1  0  0  0
 10 11  2  0  0  0
 10 48  1  0  0  0
 11 13  1  0  0  0
 12 13  2  0  0  0
 12 16  1  0  0  0
 13 14  1  0  0  0
 14 15  1  0  0  0
 15 16  2  0  0  0
 15 49  1  0  0  0
 16 28  1  0  0  0
 17 18  1  0  0  0
 17 50  1  0  0  0
 17 51  1  0  0  0
 18 19  1  0  0  0
 18 20  1  0  0  0
 18 52  1  0  0  0
 19 21  1  0  0  0
 19 53  1  0  0  0
 19 54  1  0  0  0
 20 55  1  0  0  0
 21 22  1  0  0  0
 22 23  2  0  0  0
 22 27  1  0  0  0
 23 24  1  0  0  0
 23 56  1  0  0  0
 24 25  2  0  0  0
 24 35  1  0  0  0
 25 26  1  0  0  0
 25 34  1  0  0  0
 26 27  2  0  0  0
 26 57  1  0  0  0
 27 58  1  0  0  0
 28 29  2  0  0  0
 28 33  1  0  0  0
 29 30  1  0  0  0
 29 59  1  0  0  0
 30 31  2  0  0  0
 30 60  1  0  0  0
 31 32  1  0  0  0
 31 61  1  0  0  0
 32 33  2  0  0  0
 32 62  1  0  0  0
 33 63  1  0  0  0
 34 64  1  0  0  0
 35 36  1  0  0  0
 35 65  1  0  0  0
 35 66  1  0  0  0
 36 37  1  0  0  0
 37 67  1  0  0  0
 37 68  1  0  0  0
 37 69  1  0  0  0
M  END
> <s_m_entry_id>
3356

> <s_m_entry_name>
dock_pv.448

> <s_m_Source_Path>
/home/csk/Desktop/cluster/DUD-E-result/adrb1

> <s_m_Source_File>
dock_pv.maegz

> <i_m_Source_File_Index>
448

> <chembl_id>
CHEMBL1257675

> <chembl_pref_name>
None

> <i_lp_mmshare_version>
53161

> <i_f3d_flags>
0

> <r_lp_tautomer_probability>
1

> <s_lp_Force_Field>
OPLS_2005

> <r_lp_Energy>
45.153466

> <b_lp_Chiralities_Consistent>
1

> <s_lp_Variant>
CHEMBL213_lig1404-1

> <s_i_glide_gridfile>
glide-grid_2vt4

> <i_i_glide_lignum>
1711

> <i_i_glide_rotatable_bonds>
12

> <r_i_docking_score>
-6.90563328656953

> <r_i_glide_ligand_efficiency>
-0.186638737474852

> <r_i_glide_ligand_efficiency_sa>
-0.621921678628746

> <r_i_glide_ligand_efficiency_ln>
-1.49766996884344

> <r_i_glide_gscore>
-6.90563328656953

> <r_i_glide_lipo>
-3.32735521154275

> <r_i_glide_hbond>
-0.153859240711844

> <r_i_glide_metal>
0

> <r_i_glide_rewards>
-0.433685339986537

> <r_i_glide_evdw>
-36.6128158569336

> <r_i_glide_ecoul>
-12.2831382751465

> <r_i_glide_erotb>
0.682378039790246

> <r_i_glide_esite>
0

> <r_i_glide_emodel>
-40.6019729929878

> <r_i_glide_energy>
-48.8959541320801

> <r_i_glide_einternal>
28.0566520690918

> <i_i_glide_confnum>
37

> <i_i_glide_posenum>
224

> <r_i_glide_eff_state_penalty>
0

> <s_user_duplicate_titles>
CHEMBL213_lig1404

> <s_m_subgroup_title>
dock_pv

> <s_m_subgroupid>
dock_pv

> <b_m_subgroup_collapsed>
1

$$$$
CHEMBL213_lig1349
                    3D
 Schrodinger Suite 2021-1.
 61 65  0  0  1  0            999 V2000
   38.0026    6.3640   -0.3544 C   0  0  0  0  0  0
   36.9951    6.6309    0.5679 C   0  0  0  0  0  0
   35.6621    6.3565    0.2682 C   0  0  0  0  0  0
   34.6687    6.6497    1.1665 O   0  0  0  0  0  0
   34.2765    5.5911    2.0299 C   0  0  0  0  0  0
   33.8779    6.1926    3.3931 C   0  0  1  0  0  0
   32.6067    7.0940    3.4110 C   0  0  0  0  0  0
   33.8095    5.1871    4.3877 O   0  0  0  0  0  0
   31.2856    6.4596    3.5827 N   0  0  1  0  0  0
   30.2937    7.4597    3.9877 C   0  0  0  0  0  0
   28.9342    6.8233    4.3365 C   0  0  0  0  0  0
   28.3402    5.9717    3.1969 C   0  0  0  0  0  0
   29.4158    5.0300    2.6244 C   0  0  0  0  0  0
   30.8248    5.6543    2.4425 C   0  0  0  0  0  0
   26.9758    5.3331    3.5660 C   0  0  0  0  0  0
   37.7231    5.8295   -1.6123 C   0  0  0  0  0  0
   36.3828    5.5628   -1.9146 C   0  0  0  0  0  0
   35.3325    5.8158   -0.9913 C   0  0  0  0  0  0
   35.8119    5.0513   -3.0623 N   0  0  0  0  0  0
   34.4429    4.9598   -2.9176 C   0  0  0  0  0  0
   34.1239    5.4363   -1.6179 C   0  0  0  0  0  0
   32.7797    5.4548   -1.2129 C   0  0  0  0  0  0
   31.8019    4.9937   -2.0919 C   0  0  0  0  0  0
   32.1399    4.5317   -3.3606 C   0  0  0  0  0  0
   33.4613    4.5076   -3.8070 C   0  0  0  0  0  0
   26.1593    4.6500    2.4635 C   0  0  0  0  0  0
   26.5053    4.7074    1.1062 C   0  0  0  0  0  0
   25.7839    3.9761    0.1683 C   0  0  0  0  0  0
   24.6914    3.2165    0.5802 C   0  0  0  0  0  0
   24.2934    3.2055    1.9127 C   0  0  0  0  0  0
   25.0266    3.9237    2.8501 C   0  0  0  0  0  0
   39.0279    6.5800   -0.0941 H   0  0  0  0  0  0
   37.2480    7.0561    1.5269 H   0  0  0  0  0  0
   35.0872    4.8718    2.1748 H   0  0  0  0  0  0
   33.4604    5.0499    1.5688 H   0  0  0  0  0  0
   34.7127    6.8289    3.6910 H   0  0  0  0  0  0
   32.5673    7.6625    2.4866 H   0  0  0  0  0  0
   32.7611    7.8481    4.1811 H   0  0  0  0  0  0
   32.8876    4.8926    4.4303 H   0  0  0  0  0  0
   30.1978    8.1985    3.1920 H   0  0  0  0  0  0
   30.6578    7.9965    4.8653 H   0  0  0  0  0  0
   28.2289    7.6069    4.6175 H   0  0  0  0  0  0
   29.0389    6.2293    5.2425 H   0  0  0  0  0  0
   28.1476    6.6499    2.3844 H   0  0  0  0  0  0
   29.4845    4.1435    3.2504 H   0  0  0  0  0  0
   29.1082    4.6501    1.6583 H   0  0  0  0  0  0
   30.8785    6.2390    1.5247 H   0  0  0  0  0  0
   31.5147    4.8333    2.2961 H   0  0  0  0  0  0
   26.3314    6.1001    3.9995 H   0  0  0  0  0  0
   27.1475    4.6026    4.3591 H   0  0  0  0  0  0
   38.5166    5.6302   -2.3189 H   0  0  0  0  0  0
   36.3281    4.8115   -3.8976 H   0  0  0  0  0  0
   32.4972    5.8348   -0.2446 H   0  0  0  0  0  0
   30.7651    5.0003   -1.7882 H   0  0  0  0  0  0
   31.3576    4.1844   -4.0172 H   0  0  0  0  0  0
   33.7100    4.1517   -4.7961 H   0  0  0  0  0  0
   27.3257    5.3090    0.7527 H   0  0  0  0  0  0
   26.0580    4.0036   -0.8774 H   0  0  0  0  0  0
   24.1355    2.6465   -0.1503 H   0  0  0  0  0  0
   23.4312    2.6324    2.2176 H   0  0  0  0  0  0
   24.7329    3.8902    3.8884 H   0  0  0  0  0  0
  1  2  2  0  0  0
  1 16  1  0  0  0
  1 32  1  0  0  0
  2  3  1  0  0  0
  2 33  1  0  0  0
  3 18  2  0  0  0
  3  4  1  0  0  0
  4  5  1  0  0  0
  5  6  1  0  0  0
  5 34  1  0  0  0
  5 35  1  0  0  0
  6  7  1  0  0  0
  6  8  1  0  0  0
  6 36  1  0  0  0
  7  9  1  0  0  0
  7 37  1  0  0  0
  7 38  1  0  0  0
  8 39  1  0  0  0
  9 10  1  0  0  0
  9 14  1  0  0  0
 10 11  1  0  0  0
 10 40  1  0  0  0
 10 41  1  0  0  0
 11 12  1  0  0  0
 11 42  1  0  0  0
 11 43  1  0  0  0
 12 15  1  0  0  0
 12 13  1  0  0  0
 12 44  1  0  0  0
 13 14  1  0  0  0
 13 45  1  0  0  0
 13 46  1  0  0  0
 14 47  1  0  0  0
 14 48  1  0  0  0
 15 26  1  0  0  0
 15 49  1  0  0  0
 15 50  1  0  0  0
 16 17  2  0  0  0
 16 51  1  0  0  0
 17 18  1  0  0  0
 17 19  1  0  0  0
 18 21  1  0  0  0
 19 20  1  0  0  0
 19 52  1  0  0  0
 20 21  2  0  0  0
 20 25  1  0  0  0
 21 22  1  0  0  0
 22 23  2  0  0  0
 22 53  1  0  0  0
 23 24  1  0  0  0
 23 54  1  0  0  0
 24 25  2  0  0  0
 24 55  1  0  0  0
 25 56  1  0  0  0
 26 27  2  0  0  0
 26 31  1  0  0  0
 27 28  1  0  0  0
 27 57  1  0  0  0
 28 29  2  0  0  0
 28 58  1  0  0  0
 29 30  1  0  0  0
 29 59  1  0  0  0
 30 31  2  0  0  0
 30 60  1  0  0  0
 31 61  1  0  0  0
M  END
> <s_m_entry_id>
3357

> <s_m_entry_name>
dock_pv.449

> <s_m_Source_Path>
/home/csk/Desktop/cluster/DUD-E-result/adrb1

> <s_m_Source_File>
dock_pv.maegz

> <i_m_Source_File_Index>
449

> <chembl_id>
CHEMBL1086542

> <chembl_pref_name>
None

> <i_lp_mmshare_version>
53161

> <i_f3d_flags>
0

> <r_lp_tautomer_probability>
1

> <s_lp_Force_Field>
OPLS_2005

> <r_lp_Energy>
47.676333

> <b_lp_Chiralities_Consistent>
1

> <s_lp_Variant>
CHEMBL213_lig1349-2

> <s_i_glide_gridfile>
glide-grid_2vt4

> <i_i_glide_lignum>
1629

> <i_i_glide_rotatable_bonds>
8

> <r_i_docking_score>
-6.90070633736506

> <r_i_glide_ligand_efficiency>
-0.222603430237583

> <r_i_glide_ligand_efficiency_sa>
-0.699282108103857

> <r_i_glide_ligand_efficiency_ln>
-1.55632076032712

> <r_i_glide_gscore>
-6.90070633736506

> <r_i_glide_lipo>
-3.33211987698197

> <r_i_glide_hbond>
-0.32

> <r_i_glide_metal>
0

> <r_i_glide_rewards>
-1.34109677980107

> <r_i_glide_evdw>
-41.4058609008789

> <r_i_glide_ecoul>
-3.309978723526

> <r_i_glide_erotb>
0.689180647386868

> <r_i_glide_esite>
-0.0298804743960462

> <r_i_glide_emodel>
-51.8251593061906

> <r_i_glide_energy>
-44.7158396244049

> <r_i_glide_einternal>
15.6124267578125

> <i_i_glide_confnum>
5

> <i_i_glide_posenum>
13

> <r_i_glide_eff_state_penalty>
0

> <s_user_duplicate_titles>
CHEMBL213_lig1349,630997

> <s_m_subgroup_title>
dock_pv

> <s_m_subgroupid>
dock_pv

> <b_m_subgroup_collapsed>
1

$$$$
CHEMBL213_lig496
                    3D
 Schrodinger Suite 2021-1.
 51 52  0  0  1  0            999 V2000
   28.5871    2.2496   -6.4008 C   0  0  0  0  0  0
   29.7048    2.1070   -7.2185 C   0  0  0  0  0  0
   30.9817    2.3928   -6.7233 C   0  0  0  0  0  0
   31.1453    2.8339   -5.3967 C   0  0  0  0  0  0
   30.0052    2.9716   -4.5886 C   0  0  0  0  0  0
   28.7369    2.6780   -5.0864 C   0  0  0  0  0  0
   32.1250    2.2382   -7.6149 C   0  0  0  0  0  0
   33.0278    2.1101   -8.3275 N   0  0  0  0  0  0
   32.4219    3.0858   -4.9256 O   0  0  0  0  0  0
   32.5988    4.0198   -3.8562 C   0  0  0  0  0  0
   34.0676    4.5044   -3.8156 C   0  0  2  0  0  0
   34.3144    5.6130   -2.7638 C   0  0  0  0  0  0
   34.3836    5.0500   -5.0844 O   0  0  0  0  0  0
   34.2099    5.1218   -1.3923 N   0  0  2  0  0  0
   33.9478    6.2107   -0.4518 C   0  0  0  0  0  0
   34.1132    5.7291    1.0108 C   0  0  0  0  0  0
   33.1487    6.2498    1.9860 N   0  0  0  0  0  0
   31.8291    5.9936    2.0046 C   0  0  0  0  0  0
   31.2367    5.4492    1.0757 O   0  0  0  0  0  0
   31.2639    6.4083    3.1577 N   0  0  0  0  0  0
   29.9248    6.2832    3.5823 C   0  0  0  0  0  0
   29.5487    7.0505    4.6838 C   0  0  0  0  0  0
   28.2317    7.0373    5.1405 C   0  0  0  0  0  0
   27.2504    6.2682    4.4975 C   0  0  0  0  0  0
   27.6439    5.4601    3.4129 C   0  0  0  0  0  0
   28.9683    5.4520    2.9780 C   0  0  0  0  0  0
   25.8015    6.3218    4.9306 C   0  0  0  0  0  0
   25.4082    7.4496    5.5847 O   0  0  0  0  0  0
   25.0089    5.4263    4.6708 O   0  0  0  0  0  0
   26.7522    4.6913    2.7436 F   0  0  0  0  0  0
   27.5980    2.0293   -6.7780 H   0  0  0  0  0  0
   29.5643    1.7834   -8.2407 H   0  0  0  0  0  0
   30.0880    3.2816   -3.5575 H   0  0  0  0  0  0
   27.8705    2.7781   -4.4464 H   0  0  0  0  0  0
   31.9409    4.8808   -3.9919 H   0  0  0  0  0  0
   32.3301    3.5546   -2.9062 H   0  0  0  0  0  0
   34.7359    3.6578   -3.6456 H   0  0  0  0  0  0
   35.3125    6.0371   -2.8911 H   0  0  0  0  0  0
   33.5959    6.4154   -2.9232 H   0  0  0  0  0  0
   35.2936    5.3668   -5.0935 H   0  0  0  0  0  0
   35.0604    4.6387   -1.1289 H   0  0  0  0  0  0
   34.6216    7.0497   -0.6282 H   0  0  0  0  0  0
   32.9393    6.5832   -0.6223 H   0  0  0  0  0  0
   34.0816    4.6499    1.0628 H   0  0  0  0  0  0
   35.1201    5.9751    1.3497 H   0  0  0  0  0  0
   33.5065    6.9253    2.6434 H   0  0  0  0  0  0
   31.8554    6.9298    3.7849 H   0  0  0  0  0  0
   30.2700    7.6894    5.1748 H   0  0  0  0  0  0
   27.9977    7.6592    5.9848 H   0  0  0  0  0  0
   29.2204    4.8134    2.1459 H   0  0  0  0  0  0
   26.1347    7.9782    5.9345 H   0  0  0  0  0  0
  1  6  1  0  0  0
  1  2  2  0  0  0
  1 31  1  0  0  0
  2  3  1  0  0  0
  2 32  1  0  0  0
  3  7  1  0  0  0
  3  4  2  0  0  0
  4  9  1  0  0  0
  4  5  1  0  0  0
  5  6  2  0  0  0
  5 33  1  0  0  0
  6 34  1  0  0  0
  7  8  3  0  0  0
  9 10  1  0  0  0
 10 11  1  0  0  0
 10 35  1  0  0  0
 10 36  1  0  0  0
 11 12  1  0  0  0
 11 13  1  0  0  0
 11 37  1  0  0  0
 12 14  1  0  0  0
 12 38  1  0  0  0
 12 39  1  0  0  0
 13 40  1  0  0  0
 14 15  1  0  0  0
 14 41  1  0  0  0
 15 16  1  0  0  0
 15 42  1  0  0  0
 15 43  1  0  0  0
 16 17  1  0  0  0
 16 44  1  0  0  0
 16 45  1  0  0  0
 17 18  1  0  0  0
 17 46  1  0  0  0
 18 19  2  0  0  0
 18 20  1  0  0  0
 20 21  1  0  0  0
 20 47  1  0  0  0
 21 22  2  0  0  0
 21 26  1  0  0  0
 22 23  1  0  0  0
 22 48  1  0  0  0
 23 24  2  0  0  0
 23 49  1  0  0  0
 24 25  1  0  0  0
 24 27  1  0  0  0
 25 26  2  0  0  0
 25 30  1  0  0  0
 26 50  1  0  0  0
 27 28  1  0  0  0
 27 29  2  0  0  0
 28 51  1  0  0  0
M  END
> <s_m_entry_id>
3358

> <s_m_entry_name>
dock_pv.450

> <s_m_Source_Path>
/home/csk/Desktop/cluster/DUD-E-result/adrb1

> <s_m_Source_File>
dock_pv.maegz

> <i_m_Source_File_Index>
450

> <chembl_id>
CHEMBL2011222

> <chembl_pref_name>
None

> <i_lp_mmshare_version>
53161

> <i_f3d_flags>
0

> <r_lp_tautomer_probability>
1

> <s_lp_Force_Field>
OPLS_2005

> <r_lp_Energy>
33.579605

> <b_lp_Chiralities_Consistent>
1

> <s_lp_Variant>
CHEMBL213_lig496-1

> <s_i_glide_gridfile>
glide-grid_2vt4

> <i_i_glide_lignum>
587

> <i_i_glide_rotatable_bonds>
14

> <r_i_docking_score>
-6.90061325382635

> <r_i_glide_ligand_efficiency>
-0.230020441794212

> <r_i_glide_ligand_efficiency_sa>
-0.714726992966533

> <r_i_glide_ligand_efficiency_ln>
-1.56789451947285

> <r_i_glide_gscore>
-6.90061325382635

> <r_i_glide_lipo>
-2.45799230277338

> <r_i_glide_hbond>
0

> <r_i_glide_metal>
0

> <r_i_glide_rewards>
-2.19604038939633

> <r_i_glide_evdw>
-44.4942474365234

> <r_i_glide_ecoul>
-8.96596622467041

> <r_i_glide_erotb>
1.36724023870408

> <r_i_glide_esite>
-0.0442134948339905

> <r_i_glide_emodel>
-68.1416097864333

> <r_i_glide_energy>
-53.4602136611938

> <r_i_glide_einternal>
14.3938035964966

> <i_i_glide_confnum>
82

> <i_i_glide_posenum>
65

> <r_i_glide_eff_state_penalty>
0

> <s_user_duplicate_titles>
CHEMBL213_lig496

> <s_m_subgroup_title>
dock_pv

> <s_m_subgroupid>
dock_pv

> <b_m_subgroup_collapsed>
1

$$$$
CHEMBL213_lig1463
                    3D
 Schrodinger Suite 2021-1.
 20 21  0  0  1  0            999 V2000
   28.2242    6.8071    4.8282 C   0  0  0  0  0  0
   26.9410    6.2627    4.7345 C   0  0  0  0  0  0
   26.6476    5.3420    3.7270 C   0  0  0  0  0  0
   27.6374    4.9625    2.8251 C   0  0  0  0  0  0
   29.2188    6.4220    3.9242 C   0  0  0  0  0  0
   28.9324    5.4676    2.9268 C   0  0  0  0  0  0
   30.0643    5.0497    1.9854 C   0  0  0  0  0  0
   31.2782    5.8500    2.1546 N   0  0  0  0  0  0
   31.4142    6.7751    3.2257 C   0  0  0  0  0  0
   30.4732    7.0491    4.0437 N   0  0  0  0  0  0
   32.6331    7.4500    3.3511 N   0  0  0  0  0  0
   25.0722    4.6500    3.5850 Cl  0  0  0  0  0  0
   28.4388    7.5388    5.5938 H   0  0  0  0  0  0
   26.1769    6.5659    5.4355 H   0  0  0  0  0  0
   27.4024    4.2500    2.0479 H   0  0  0  0  0  0
   29.7391    5.1285    0.9476 H   0  0  0  0  0  0
   30.3142    4.0045    2.1692 H   0  0  0  0  0  0
   32.0989    5.6139    1.6177 H   0  0  0  0  0  0
   32.6086    8.2107    4.0213 H   0  0  0  0  0  0
   33.0301    7.7906    2.4860 H   0  0  0  0  0  0
  1  2  1  0  0  0
  1  5  2  0  0  0
  1 13  1  0  0  0
  2  3  2  0  0  0
  2 14  1  0  0  0
  3  4  1  0  0  0
  3 12  1  0  0  0
  4  6  2  0  0  0
  4 15  1  0  0  0
  5  6  1  0  0  0
  5 10  1  0  0  0
  6  7  1  0  0  0
  7  8  1  0  0  0
  7 16  1  0  0  0
  7 17  1  0  0  0
  8  9  1  0  0  0
  8 18  1  0  0  0
  9 10  2  0  0  0
  9 11  1  0  0  0
 11 19  1  0  0  0
 11 20  1  0  0  0
M  END
> <s_m_entry_id>
3361

> <s_m_entry_name>
dock_pv.453

> <s_m_Source_Path>
/home/csk/Desktop/cluster/DUD-E-result/adrb1

> <s_m_Source_File>
dock_pv.maegz

> <i_m_Source_File_Index>
453

> <chembl_id>
CHEMBL2436555

> <chembl_pref_name>
None

> <i_lp_mmshare_version>
53161

> <i_f3d_flags>
0

> <r_lp_tautomer_probability>
1

> <s_lp_Force_Field>
OPLS_2005

> <r_lp_Energy>
4.978272

> <b_lp_Chiralities_Consistent>
1

> <s_lp_Variant>
CHEMBL213_lig1463-1

> <s_i_glide_gridfile>
glide-grid_2vt4

> <i_i_glide_lignum>
1799

> <i_i_glide_rotatable_bonds>
0

> <r_i_docking_score>
-6.89565709594062

> <r_i_glide_ligand_efficiency>
-0.574638091328385

> <r_i_glide_ligand_efficiency_sa>
-1.31559281382482

> <r_i_glide_ligand_efficiency_ln>
-1.97872074890732

> <r_i_glide_gscore>
-6.89565709594062

> <r_i_glide_lipo>
-1.83988922559278

> <r_i_glide_hbond>
-0.608

> <r_i_glide_metal>
0

> <r_i_glide_rewards>
-2.61468436356467

> <r_i_glide_evdw>
-20.8656902313232

> <r_i_glide_ecoul>
-5.10165023803711

> <r_i_glide_erotb>
0

> <r_i_glide_esite>
-0.0245514595114524

> <r_i_glide_emodel>
-35.9372944311247

> <r_i_glide_energy>
-25.9673404693604

> <r_i_glide_einternal>
0

> <i_i_glide_confnum>
1

> <i_i_glide_posenum>
217

> <r_i_glide_eff_state_penalty>
0

> <s_user_duplicate_titles>
CHEMBL213_lig1463

> <s_m_subgroup_title>
dock_pv

> <s_m_subgroupid>
dock_pv

> <b_m_subgroup_collapsed>
1

$$$$
CHEMBL213_lig1485
                    3D
 Schrodinger Suite 2021-1.
 50 52  0  0  1  0            999 V2000
   26.2082    3.9847   -0.2506 C   0  0  0  0  0  0
   25.0330    3.5750    0.3849 C   0  0  0  0  0  0
   24.8288    3.8501    1.7319 C   0  0  0  0  0  0
   27.2222    4.6469    0.4575 C   0  0  0  0  0  0
   27.0086    4.8993    1.8283 C   0  0  0  0  0  0
   25.8113    4.5371    2.4456 C   0  0  0  0  0  0
   25.7581    4.8977    3.7812 N   0  0  0  0  0  0
   26.8857    5.4493    4.3487 C   0  0  0  0  0  0
   28.1278    5.5645    3.0178 S   0  0  0  0  0  0
   28.5542    4.9703   -0.2447 C   0  0  2  0  0  0
   28.5348    6.0947   -1.2933 C   0  0  0  0  0  0
   29.2166    3.8500   -0.8150 O   0  0  0  0  0  0
   27.8084    5.7605   -2.5136 N   0  0  1  0  0  0
   27.0536    5.7931    5.5162 O   0  0  0  0  0  0
   23.6672    3.4630    2.3463 O   0  0  0  0  0  0
   28.1716    6.5819   -3.6658 C   0  0  0  0  0  0
   29.6446    6.4471   -4.1600 C   0  0  0  0  0  0
   30.1080    5.1280   -4.7826 C   0  0  0  0  0  0
   29.3635    3.9459   -4.7067 C   0  0  0  0  0  0
   29.8307    2.7647   -5.2855 C   0  0  0  0  0  0
   31.0674    2.7589   -5.9380 C   0  0  0  0  0  0
   31.8221    3.9268   -6.0143 C   0  0  0  0  0  0
   31.3432    5.1022   -5.4385 C   0  0  0  0  0  0
   28.9903    1.5005   -5.1784 C   0  0  0  0  0  0
   28.8392    0.7027   -6.4813 C   0  0  0  0  0  0
   28.2068    1.4909   -7.6399 C   0  0  0  0  0  0
   26.3305    3.7607   -1.2998 H   0  0  0  0  0  0
   24.2774    3.0512   -0.1828 H   0  0  0  0  0  0
   24.9303    4.7442    4.3369 H   0  0  0  0  0  0
   29.2481    5.3021    0.5263 H   0  0  0  0  0  0
   29.5821    6.2500   -1.5251 H   0  0  0  0  0  0
   28.1349    7.0153   -0.8668 H   0  0  0  0  0  0
   28.6035    3.3146   -1.3324 H   0  0  0  0  0  0
   27.9001    4.7804   -2.7368 H   0  0  0  0  0  0
   23.0533    3.0503    1.7330 H   0  0  0  0  0  0
   27.8937    7.6275   -3.5157 H   0  0  0  0  0  0
   27.5164    6.2306   -4.4622 H   0  0  0  0  0  0
   30.3554    6.6592   -3.3667 H   0  0  0  0  0  0
   29.8076    7.2356   -4.8940 H   0  0  0  0  0  0
   28.4035    3.9286   -4.2193 H   0  0  0  0  0  0
   31.4484    1.8544   -6.3866 H   0  0  0  0  0  0
   32.7775    3.9251   -6.5175 H   0  0  0  0  0  0
   31.9375    6.0018   -5.5109 H   0  0  0  0  0  0
   27.9918    1.7495   -4.8149 H   0  0  0  0  0  0
   29.4410    0.8667   -4.4152 H   0  0  0  0  0  0
   28.2078   -0.1500   -6.2469 H   0  0  0  0  0  0
   29.8014    0.2921   -6.7897 H   0  0  0  0  0  0
   28.0549    0.8520   -8.5101 H   0  0  0  0  0  0
   28.8397    2.3218   -7.9509 H   0  0  0  0  0  0
   27.2367    1.8986   -7.3555 H   0  0  0  0  0  0
  1  2  2  0  0  0
  1  4  1  0  0  0
  1 27  1  0  0  0
  2  3  1  0  0  0
  2 28  1  0  0  0
  3  6  2  0  0  0
  3 15  1  0  0  0
  4  5  2  0  0  0
  4 10  1  0  0  0
  5  6  1  0  0  0
  5  9  1  0  0  0
  6  7  1  0  0  0
  7  8  1  0  0  0
  7 29  1  0  0  0
  8  9  1  0  0  0
  8 14  2  0  0  0
 10 11  1  0  0  0
 10 12  1  0  0  0
 10 30  1  0  0  0
 11 13  1  0  0  0
 11 31  1  0  0  0
 11 32  1  0  0  0
 12 33  1  0  0  0
 13 16  1  0  0  0
 13 34  1  0  0  0
 15 35  1  0  0  0
 16 17  1  0  0  0
 16 36  1  0  0  0
 16 37  1  0  0  0
 17 18  1  0  0  0
 17 38  1  0  0  0
 17 39  1  0  0  0
 18 19  2  0  0  0
 18 23  1  0  0  0
 19 20  1  0  0  0
 19 40  1  0  0  0
 20 21  2  0  0  0
 20 24  1  0  0  0
 21 22  1  0  0  0
 21 41  1  0  0  0
 22 23  2  0  0  0
 22 42  1  0  0  0
 23 43  1  0  0  0
 24 25  1  0  0  0
 24 44  1  0  0  0
 24 45  1  0  0  0
 25 26  1  0  0  0
 25 46  1  0  0  0
 25 47  1  0  0  0
 26 48  1  0  0  0
 26 49  1  0  0  0
 26 50  1  0  0  0
M  END
> <s_m_entry_id>
3362

> <s_m_entry_name>
dock_pv.454

> <s_m_Source_Path>
/home/csk/Desktop/cluster/DUD-E-result/adrb1

> <s_m_Source_File>
dock_pv.maegz

> <i_m_Source_File_Index>
454

> <chembl_id>
CHEMBL3323666

> <chembl_pref_name>
None

> <i_lp_mmshare_version>
53161

> <i_f3d_flags>
0

> <r_lp_tautomer_probability>
1

> <s_lp_Force_Field>
OPLS_2005

> <r_lp_Energy>
26.765054

> <b_lp_Chiralities_Consistent>
1

> <s_lp_Variant>
CHEMBL213_lig1485-1

> <s_i_glide_gridfile>
glide-grid_2vt4

> <i_i_glide_lignum>
1833

> <i_i_glide_rotatable_bonds>
10

> <r_i_docking_score>
-6.89460212098722

> <r_i_glide_ligand_efficiency>
-0.265177004653355

> <r_i_glide_ligand_efficiency_sa>
-0.785585832864434

> <r_i_glide_ligand_efficiency_ln>
-1.61917468507907

> <r_i_glide_gscore>
-6.89460212098722

> <r_i_glide_lipo>
-2.91007964532166

> <r_i_glide_hbond>
-0.298396747901246

> <r_i_glide_metal>
0

> <r_i_glide_rewards>
-1.6190391276227

> <r_i_glide_evdw>
-44.3863143920898

> <r_i_glide_ecoul>
-5.48167705535889

> <r_i_glide_erotb>
0.974480677766712

> <r_i_glide_esite>
0

> <r_i_glide_emodel>
-65.6264299170784

> <r_i_glide_energy>
-49.8679914474487

> <r_i_glide_einternal>
6.88881635665894

> <i_i_glide_confnum>
80

> <i_i_glide_posenum>
111

> <r_i_glide_eff_state_penalty>
0

> <s_user_duplicate_titles>
CHEMBL213_lig1485

> <s_m_subgroup_title>
dock_pv

> <s_m_subgroupid>
dock_pv

> <b_m_subgroup_collapsed>
1

$$$$
CHEMBL213_lig373
                    3D
 Schrodinger Suite 2021-1.
 59 62  0  0  1  0            999 V2000
   33.9286    4.2403   -3.6451 C   0  0  0  0  0  0
   34.5864    4.6500   -4.8017 C   0  0  0  0  0  0
   32.7807    3.6120   -3.8571 N   0  0  0  0  0  0
   32.4557    3.5367   -5.1288 C   0  0  0  0  0  0
   33.6336    4.2510   -6.1947 S   0  0  0  0  0  0
   24.7313    3.8146    2.4793 C   0  0  0  0  0  0
   25.5543    3.8847    1.3562 C   0  0  0  0  0  0
   26.6081    4.7359    1.2730 N   0  0  0  0  0  0
   26.8492    5.5556    2.3285 C   0  0  0  0  0  0
   26.0763    5.5625    3.4992 C   0  0  0  0  0  0
   25.0082    4.6527    3.5618 C   0  0  0  0  0  0
   26.3603    6.5751    4.6217 C   0  0  2  0  0  0
   27.7382    6.3979    5.3039 C   0  0  0  0  0  0
   25.3915    6.5899    5.6559 O   0  0  0  0  0  0
   28.8137    7.0502    4.5611 N   0  0  1  0  0  0
   30.0691    6.8751    5.2697 C   0  0  0  0  0  0
   31.2944    7.5247    4.6406 C   0  0  0  0  0  0
   31.9597    6.8204    3.4462 C   0  0  0  0  0  0
   31.2036    6.2501    2.4226 C   0  0  0  0  0  0
   31.8158    5.7699    1.2717 C   0  0  0  0  0  0
   33.2126    5.8073    1.1493 C   0  0  0  0  0  0
   33.9801    6.2544    2.2255 C   0  0  0  0  0  0
   33.3555    6.7880    3.3539 C   0  0  0  0  0  0
   33.9090    5.3539    0.0073 N   0  0  0  0  0  0
   33.4373    5.1410   -1.2419 C   0  0  0  0  0  0
   32.3130    5.4696   -1.6239 O   0  0  0  0  0  0
   34.4058    4.4229   -2.2034 C   0  0  0  0  0  0
   31.1657    2.9495   -5.6397 C   0  0  0  0  0  0
   30.1000    2.7293   -4.7555 C   0  0  0  0  0  0
   28.8948    2.2029   -5.2148 C   0  0  0  0  0  0
   28.7475    1.8791   -6.5592 C   0  0  0  0  0  0
   29.7957    2.0842   -7.4494 C   0  0  0  0  0  0
   31.0004    2.6137   -6.9911 C   0  0  0  0  0  0
   35.5306    5.1696   -4.9015 H   0  0  0  0  0  0
   23.8955    3.1304    2.5075 H   0  0  0  0  0  0
   25.3718    3.2599    0.4932 H   0  0  0  0  0  0
   27.6632    6.2494    2.1914 H   0  0  0  0  0  0
   24.3634    4.6226    4.4299 H   0  0  0  0  0  0
   26.2875    7.5752    4.1891 H   0  0  0  0  0  0
   27.9412    5.3342    5.4471 H   0  0  0  0  0  0
   27.7163    6.8579    6.2934 H   0  0  0  0  0  0
   25.6586    7.2550    6.3011 H   0  0  0  0  0  0
   28.9005    6.6102    3.6582 H   0  0  0  0  0  0
   30.3011    5.8490    5.1636 H   0  0  0  0  0  0
   30.0042    7.0501    6.3441 H   0  0  0  0  0  0
   32.0351    7.6058    5.4361 H   0  0  0  0  0  0
   31.0080    8.5376    4.3851 H   0  0  0  0  0  0
   30.1313    6.2158    2.4775 H   0  0  0  0  0  0
   31.1901    5.3667    0.4910 H   0  0  0  0  0  0
   35.0598    6.2625    2.1680 H   0  0  0  0  0  0
   33.9602    7.2090    4.1433 H   0  0  0  0  0  0
   34.8854    5.1507    0.1575 H   0  0  0  0  0  0
   34.6276    3.4468   -1.7704 H   0  0  0  0  0  0
   35.3496    4.9699   -2.1945 H   0  0  0  0  0  0
   30.1899    2.9778   -3.7071 H   0  0  0  0  0  0
   28.0722    2.0520   -4.5287 H   0  0  0  0  0  0
   27.8106    1.4783   -6.9132 H   0  0  0  0  0  0
   29.6675    1.8509   -8.4949 H   0  0  0  0  0  0
   31.7997    2.7657   -7.7010 H   0  0  0  0  0  0
  1  2  2  0  0  0
  1 27  1  0  0  0
  1  3  1  0  0  0
  2  5  1  0  0  0
  2 34  1  0  0  0
  3  4  2  0  0  0
  4  5  1  0  0  0
  4 28  1  0  0  0
  6 11  1  0  0  0
  6  7  2  0  0  0
  6 35  1  0  0  0
  7  8  1  0  0  0
  7 36  1  0  0  0
  8  9  2  0  0  0
  9 10  1  0  0  0
  9 37  1  0  0  0
 10 11  2  0  0  0
 10 12  1  0  0  0
 11 38  1  0  0  0
 12 13  1  0  0  0
 12 14  1  0  0  0
 12 39  1  0  0  0
 13 15  1  0  0  0
 13 40  1  0  0  0
 13 41  1  0  0  0
 14 42  1  0  0  0
 15 16  1  0  0  0
 15 43  1  0  0  0
 16 17  1  0  0  0
 16 44  1  0  0  0
 16 45  1  0  0  0
 17 18  1  0  0  0
 17 46  1  0  0  0
 17 47  1  0  0  0
 18 19  2  0  0  0
 18 23  1  0  0  0
 19 20  1  0  0  0
 19 48  1  0  0  0
 20 21  2  0  0  0
 20 49  1  0  0  0
 21 22  1  0  0  0
 21 24  1  0  0  0
 22 23  2  0  0  0
 22 50  1  0  0  0
 23 51  1  0  0  0
 24 25  1  0  0  0
 24 52  1  0  0  0
 25 26  2  0  0  0
 25 27  1  0  0  0
 27 53  1  0  0  0
 27 54  1  0  0  0
 28 29  2  0  0  0
 28 33  1  0  0  0
 29 30  1  0  0  0
 29 55  1  0  0  0
 30 31  2  0  0  0
 30 56  1  0  0  0
 31 32  1  0  0  0
 31 57  1  0  0  0
 32 33  2  0  0  0
 32 58  1  0  0  0
 33 59  1  0  0  0
M  END
> <s_m_entry_id>
3363

> <s_m_entry_name>
dock_pv.455

> <s_m_Source_Path>
/home/csk/Desktop/cluster/DUD-E-result/adrb1

> <s_m_Source_File>
dock_pv.maegz

> <i_m_Source_File_Index>
455

> <chembl_id>
CHEMBL1090746

> <chembl_pref_name>
None

> <i_lp_mmshare_version>
53161

> <i_f3d_flags>
0

> <r_lp_tautomer_probability>
1

> <s_lp_Force_Field>
OPLS_2005

> <r_lp_Energy>
33.58985

> <b_lp_Chiralities_Consistent>
1

> <s_lp_Variant>
CHEMBL213_lig373-1

> <s_i_glide_gridfile>
glide-grid_2vt4

> <i_i_glide_lignum>
439

> <i_i_glide_rotatable_bonds>
12

> <r_i_docking_score>
-6.89304099570767

> <r_i_glide_ligand_efficiency>
-0.20888003017296

> <r_i_glide_ligand_efficiency_sa>
-0.669989866849457

> <r_i_glide_ligand_efficiency_ln>
-1.53297662718921

> <r_i_glide_gscore>
-6.89304099570767

> <r_i_glide_lipo>
-3.37077704234033

> <r_i_glide_hbond>
-0.204004692901274

> <r_i_glide_metal>
0

> <r_i_glide_rewards>
-1.34196298738357

> <r_i_glide_evdw>
-48.3089828491211

> <r_i_glide_ecoul>
-3.44879150390625

> <r_i_glide_erotb>
0.956471594959502

> <r_i_glide_esite>
0

> <r_i_glide_emodel>
-70.0676047629346

> <r_i_glide_energy>
-51.7577743530273

> <r_i_glide_einternal>
8.34463596343994

> <i_i_glide_confnum>
50

> <i_i_glide_posenum>
73

> <r_i_glide_eff_state_penalty>
0

> <s_user_duplicate_titles>
CHEMBL213_lig373

> <s_m_subgroup_title>
dock_pv

> <s_m_subgroupid>
dock_pv

> <b_m_subgroup_collapsed>
1

$$$$
CHEMBL213_lig1050
                    3D
 Schrodinger Suite 2021-1.
 65 66  0  0  1  0            999 V2000
   30.0552    2.6015   -5.5007 C   0  0  0  0  0  0
   30.9022    2.3471   -6.5907 C   0  0  0  0  0  0
   32.1187    3.0188   -6.7040 C   0  0  0  0  0  0
   32.5014    3.9439   -5.7377 C   0  0  0  0  0  0
   31.6667    4.2141   -4.6490 C   0  0  0  0  0  0
   30.4524    3.5287   -4.5286 C   0  0  0  0  0  0
   28.7013    1.9140   -5.3651 C   0  0  0  0  0  0
   27.8080    2.2500   -6.4117 O   0  0  0  0  0  0
   30.5651    1.4501   -7.5663 O   0  0  0  0  0  0
   32.0498    5.3078   -3.6588 C   0  0  2  0  0  0
   32.4874    4.7813   -2.2656 C   0  0  0  0  0  0
   31.0050    6.2499   -3.5241 O   0  0  0  0  0  0
   33.1905    5.8494   -1.5558 N   0  0  2  0  0  0
   33.8321    5.4604   -0.3091 C   0  0  0  0  0  0
   32.9238    5.7358    0.9090 C   0  0  0  0  0  0
   33.7315    6.1469    2.1612 C   0  0  0  0  0  0
   32.9164    6.2539    3.4644 C   0  0  0  0  0  0
   31.6673    7.1544    3.3845 C   0  0  0  0  0  0
   30.8648    7.2129    4.6931 C   0  0  0  0  0  0
   29.5074    7.4917    4.3830 O   0  0  0  0  0  0
   28.6100    7.4052    5.4809 C   0  0  0  0  0  0
   27.2049    7.0485    4.9673 C   0  0  0  0  0  0
   27.2893    5.8796    4.1581 O   0  0  0  0  0  0
   26.0470    5.4005    3.6531 C   0  0  0  0  0  0
   26.2078    4.8161    2.2477 C   0  0  0  0  0  0
   25.2207    3.9809    1.6932 C   0  0  0  0  0  0
   25.3517    3.5157    0.3841 C   0  0  0  0  0  0
   26.4529    3.8817   -0.3896 C   0  0  0  0  0  0
   27.4313    4.7126    0.1486 C   0  0  0  0  0  0
   27.3138    5.1700    1.4615 C   0  0  0  0  0  0
   23.7973    3.5524    2.5765 Cl  0  0  0  0  0  0
   28.8000    5.1719   -0.8024 Cl  0  0  0  0  0  0
   32.7740    2.8328   -7.5422 H   0  0  0  0  0  0
   33.4412    4.4688   -5.8519 H   0  0  0  0  0  0
   29.7988    3.7453   -3.6949 H   0  0  0  0  0  0
   28.8440    0.8332   -5.3522 H   0  0  0  0  0  0
   28.2294    2.1793   -4.4153 H   0  0  0  0  0  0
   26.9115    2.2500   -6.0442 H   0  0  0  0  0  0
   31.2033    1.4491   -8.2833 H   0  0  0  0  0  0
   32.8957    5.8457   -4.0852 H   0  0  0  0  0  0
   31.6298    4.4161   -1.6990 H   0  0  0  0  0  0
   33.1702    3.9423   -2.3998 H   0  0  0  0  0  0
   30.7898    6.5862   -4.3996 H   0  0  0  0  0  0
   32.5084    6.5546   -1.3155 H   0  0  0  0  0  0
   34.2018    4.4343   -0.3307 H   0  0  0  0  0  0
   34.7119    6.0996   -0.2317 H   0  0  0  0  0  0
   32.2077    6.5237    0.6831 H   0  0  0  0  0  0
   32.3032    4.8713    1.1254 H   0  0  0  0  0  0
   34.5353    5.4255    2.3186 H   0  0  0  0  0  0
   34.2240    7.1017    1.9744 H   0  0  0  0  0  0
   32.6173    5.2502    3.7518 H   0  0  0  0  0  0
   33.5679    6.6092    4.2636 H   0  0  0  0  0  0
   31.9606    8.1612    3.0970 H   0  0  0  0  0  0
   31.0113    6.7830    2.5979 H   0  0  0  0  0  0
   30.9258    6.2501    5.1905 H   0  0  0  0  0  0
   31.2723    7.9522    5.3826 H   0  0  0  0  0  0
   28.9162    6.6524    6.2097 H   0  0  0  0  0  0
   28.6081    8.3671    5.9913 H   0  0  0  0  0  0
   26.5343    6.8697    5.8093 H   0  0  0  0  0  0
   26.7959    7.8822    4.3930 H   0  0  0  0  0  0
   25.6767    4.6500    4.3491 H   0  0  0  0  0  0
   25.2931    6.1882    3.5980 H   0  0  0  0  0  0
   24.5838    2.8911   -0.0497 H   0  0  0  0  0  0
   26.5378    3.5302   -1.4097 H   0  0  0  0  0  0
   28.0818    5.8178    1.8605 H   0  0  0  0  0  0
  1  6  1  0  0  0
  1  2  2  0  0  0
  1  7  1  0  0  0
  2  9  1  0  0  0
  2  3  1  0  0  0
  3  4  2  0  0  0
  3 33  1  0  0  0
  4  5  1  0  0  0
  4 34  1  0  0  0
  5 10  1  0  0  0
  5  6  2  0  0  0
  6 35  1  0  0  0
  7  8  1  0  0  0
  7 36  1  0  0  0
  7 37  1  0  0  0
  8 38  1  0  0  0
  9 39  1  0  0  0
 10 11  1  0  0  0
 10 12  1  0  0  0
 10 40  1  0  0  0
 11 13  1  0  0  0
 11 41  1  0  0  0
 11 42  1  0  0  0
 12 43  1  0  0  0
 13 14  1  0  0  0
 13 44  1  0  0  0
 14 15  1  0  0  0
 14 45  1  0  0  0
 14 46  1  0  0  0
 15 16  1  0  0  0
 15 47  1  0  0  0
 15 48  1  0  0  0
 16 17  1  0  0  0
 16 49  1  0  0  0
 16 50  1  0  0  0
 17 18  1  0  0  0
 17 51  1  0  0  0
 17 52  1  0  0  0
 18 19  1  0  0  0
 18 53  1  0  0  0
 18 54  1  0  0  0
 19 20  1  0  0  0
 19 55  1  0  0  0
 19 56  1  0  0  0
 20 21  1  0  0  0
 21 22  1  0  0  0
 21 57  1  0  0  0
 21 58  1  0  0  0
 22 23  1  0  0  0
 22 59  1  0  0  0
 22 60  1  0  0  0
 23 24  1  0  0  0
 24 25  1  0  0  0
 24 61  1  0  0  0
 24 62  1  0  0  0
 25 26  2  0  0  0
 25 30  1  0  0  0
 26 27  1  0  0  0
 26 31  1  0  0  0
 27 28  2  0  0  0
 27 63  1  0  0  0
 28 29  1  0  0  0
 28 64  1  0  0  0
 29 30  2  0  0  0
 29 32  1  0  0  0
 30 65  1  0  0  0
M  END
> <s_m_entry_id>
3364

> <s_m_entry_name>
dock_pv.456

> <s_m_Source_Path>
/home/csk/Desktop/cluster/DUD-E-result/adrb1

> <s_m_Source_File>
dock_pv.maegz

> <i_m_Source_File_Index>
456

> <chembl_id>
CHEMBL1084648

> <chembl_pref_name>
None

> <i_lp_mmshare_version>
53161

> <i_f3d_flags>
0

> <r_lp_tautomer_probability>
0.999999999997365

> <s_lp_Force_Field>
OPLS_2005

> <r_lp_Energy>
21.74946

> <b_lp_Chiralities_Consistent>
1

> <s_lp_Variant>
CHEMBL213_lig1050-1

> <s_i_glide_gridfile>
glide-grid_2vt4

> <i_i_glide_lignum>
1218

> <i_i_glide_rotatable_bonds>
19

> <r_i_docking_score>
-6.8928733596899

> <r_i_glide_ligand_efficiency>
-0.21540229249031

> <r_i_glide_ligand_efficiency_sa>
-0.683859650600933

> <r_i_glide_ligand_efficiency_ln>
-1.543502237866

> <r_i_glide_gscore>
-6.8928733596899

> <r_i_glide_lipo>
-3.38062050615452

> <r_i_glide_hbond>
-0.301980910510956

> <r_i_glide_metal>
0

> <r_i_glide_rewards>
-0.660650423960546

> <r_i_glide_evdw>
-48.0937767028809

> <r_i_glide_ecoul>
-9.55502700805664

> <r_i_glide_erotb>
1.28832136728866

> <r_i_glide_esite>
0

> <r_i_glide_emodel>
-72.6567010321934

> <r_i_glide_energy>
-57.6488037109375

> <r_i_glide_einternal>
16.8165626525879

> <i_i_glide_confnum>
58

> <i_i_glide_posenum>
151

> <r_i_glide_eff_state_penalty>
0

> <s_user_duplicate_titles>
CHEMBL213_lig1050,631574

> <s_m_subgroup_title>
dock_pv

> <s_m_subgroupid>
dock_pv

> <b_m_subgroup_collapsed>
1

$$$$
CHEMBL213_lig1393
                    3D
 Schrodinger Suite 2021-1.
 52 55  0  0  1  0            999 V2000
   27.9906    4.2499   -0.8610 N   0  0  1  0  0  0
   28.7990    4.9503   -1.8575 C   0  0  0  0  0  0
   30.3006    4.9239   -1.5084 C   0  0  0  0  0  0
   31.2040    5.5616   -2.5919 C   0  0  0  0  0  0
   30.9751    4.8822   -3.8785 N   0  0  0  0  0  0
   29.5949    5.1819   -4.2886 C   0  0  0  0  0  0
   28.5827    4.5238   -3.3300 C   0  0  0  0  0  0
   31.9792    4.4964   -4.7693 C   0  0  0  0  0  0
   33.2352    4.9647   -4.5270 N   0  0  0  0  0  0
   34.2151    4.6400   -5.4019 C   0  0  0  0  0  0
   34.1071    3.8538   -6.4995 N   0  0  0  0  0  0
   31.7489    3.6138   -5.8684 C   0  0  0  0  0  0
   32.8863    3.3506   -6.6964 C   0  0  0  0  0  0
   32.5284    2.2495   -8.0149 S   0  0  0  0  0  0
   30.8775    2.1294   -7.4604 C   0  0  0  0  0  0
   30.6122    2.8655   -6.3195 C   0  0  0  0  0  0
   26.5490    4.3777   -1.0768 C   0  0  0  0  0  0
   25.7717    4.6685    0.2262 C   0  0  2  0  0  0
   25.9644    3.6953    1.3853 C   0  0  0  0  0  0
   24.3830    4.6499   -0.0144 O   0  0  0  0  0  0
   25.4977    4.2519    2.6173 O   0  0  0  0  0  0
   26.3308    5.0480    3.3802 C   0  0  0  0  0  0
   27.6690    5.3587    3.0703 C   0  0  0  0  0  0
   28.4336    6.1136    3.9551 C   0  0  0  0  0  0
   27.8644    6.5799    5.1322 C   0  0  0  0  0  0
   26.5377    6.2917    5.4430 C   0  0  0  0  0  0
   25.7732    5.5393    4.5600 C   0  0  0  0  0  0
   28.6080    7.3439    5.9841 O   0  0  0  0  0  0
   28.2080    3.2683   -1.0051 H   0  0  0  0  0  0
   28.5301    6.0081   -1.8321 H   0  0  0  0  0  0
   30.4677    5.4208   -0.5521 H   0  0  0  0  0  0
   30.6299    3.8910   -1.3832 H   0  0  0  0  0  0
   31.0102    6.6326   -2.7127 H   0  0  0  0  0  0
   32.2408    5.4534   -2.2698 H   0  0  0  0  0  0
   29.4549    6.2656   -4.2922 H   0  0  0  0  0  0
   29.4083    4.8786   -5.3100 H   0  0  0  0  0  0
   28.7032    3.4500   -3.4366 H   0  0  0  0  0  0
   27.5721    4.7656   -3.6610 H   0  0  0  0  0  0
   35.1960    5.0549   -5.2107 H   0  0  0  0  0  0
   30.1871    1.5043   -8.0097 H   0  0  0  0  0  0
   29.6517    2.8577   -5.8245 H   0  0  0  0  0  0
   26.2055    3.4588   -1.5521 H   0  0  0  0  0  0
   26.3380    5.1975   -1.7624 H   0  0  0  0  0  0
   26.0606    5.6683    0.5494 H   0  0  0  0  0  0
   27.0095    3.4490    1.4493 H   0  0  0  0  0  0
   25.4625    2.7428    1.1997 H   0  0  0  0  0  0
   24.1597    3.9983   -0.6923 H   0  0  0  0  0  0
   28.1417    5.0301    2.1582 H   0  0  0  0  0  0
   29.4627    6.3428    3.7178 H   0  0  0  0  0  0
   26.0982    6.6511    6.3630 H   0  0  0  0  0  0
   24.7410    5.3160    4.7914 H   0  0  0  0  0  0
   28.0131    7.8493    6.5550 H   0  0  0  0  0  0
  1 17  1  0  0  0
  1  2  1  0  0  0
  1 29  1  0  0  0
  2  3  1  0  0  0
  2  7  1  0  0  0
  2 30  1  0  0  0
  3  4  1  0  0  0
  3 31  1  0  0  0
  3 32  1  0  0  0
  4  5  1  0  0  0
  4 33  1  0  0  0
  4 34  1  0  0  0
  5  6  1  0  0  0
  5  8  1  0  0  0
  6  7  1  0  0  0
  6 35  1  0  0  0
  6 36  1  0  0  0
  7 37  1  0  0  0
  7 38  1  0  0  0
  8 12  1  0  0  0
  8  9  2  0  0  0
  9 10  1  0  0  0
 10 11  2  0  0  0
 10 39  1  0  0  0
 11 13  1  0  0  0
 12 13  2  0  0  0
 12 16  1  0  0  0
 13 14  1  0  0  0
 14 15  1  0  0  0
 15 16  2  0  0  0
 15 40  1  0  0  0
 16 41  1  0  0  0
 17 18  1  0  0  0
 17 42  1  0  0  0
 17 43  1  0  0  0
 18 19  1  0  0  0
 18 20  1  0  0  0
 18 44  1  0  0  0
 19 21  1  0  0  0
 19 45  1  0  0  0
 19 46  1  0  0  0
 20 47  1  0  0  0
 21 22  1  0  0  0
 22 23  2  0  0  0
 22 27  1  0  0  0
 23 24  1  0  0  0
 23 48  1  0  0  0
 24 25  2  0  0  0
 24 49  1  0  0  0
 25 26  1  0  0  0
 25 28  1  0  0  0
 26 27  2  0  0  0
 26 50  1  0  0  0
 27 51  1  0  0  0
 28 52  1  0  0  0
M  END
> <s_m_entry_id>
3365

> <s_m_entry_name>
dock_pv.457

> <s_m_Source_Path>
/home/csk/Desktop/cluster/DUD-E-result/adrb1

> <s_m_Source_File>
dock_pv.maegz

> <i_m_Source_File_Index>
457

> <chembl_id>
CHEMBL1257674

> <chembl_pref_name>
None

> <i_lp_mmshare_version>
53161

> <i_f3d_flags>
0

> <r_lp_tautomer_probability>
1

> <s_lp_Force_Field>
OPLS_2005

> <r_lp_Energy>
32.211406

> <b_lp_Chiralities_Consistent>
1

> <s_lp_Variant>
CHEMBL213_lig1393-1

> <s_i_glide_gridfile>
glide-grid_2vt4

> <i_i_glide_lignum>
1689

> <i_i_glide_rotatable_bonds>
9

> <r_i_docking_score>
-6.88886286342015

> <r_i_glide_ligand_efficiency>
-0.24603081655072

> <r_i_glide_ligand_efficiency_sa>
-0.747094463449656

> <r_i_glide_ligand_efficiency_ln>
-1.59015181468004

> <r_i_glide_gscore>
-6.88886286342015

> <r_i_glide_lipo>
-2.89327027693379

> <r_i_glide_hbond>
-0.582305565928007

> <r_i_glide_metal>
0

> <r_i_glide_rewards>
-0.933999613204743

> <r_i_glide_evdw>
-35.2490005493164

> <r_i_glide_ecoul>
-10.2515020370483

> <r_i_glide_erotb>
0.855590964458518

> <r_i_glide_esite>
-0.0347030387890624

> <r_i_glide_emodel>
-60.7900618716746

> <r_i_glide_energy>
-45.5005025863647

> <r_i_glide_einternal>
9.60719394683838

> <i_i_glide_confnum>
4

> <i_i_glide_posenum>
112

> <r_i_glide_eff_state_penalty>
0

> <s_user_duplicate_titles>
CHEMBL213_lig1393

> <s_m_subgroup_title>
dock_pv

> <s_m_subgroupid>
dock_pv

> <b_m_subgroup_collapsed>
1

$$$$
CHEMBL213_lig76
                    3D
 Schrodinger Suite 2021-1.
 72 75  0  0  1  0            999 V2000
   35.2797    6.8128    3.2947 S   0  0  0  0  0  0
   28.5705    5.6325    3.2006 N   0  0  0  0  0  0
   29.2704    6.4460    3.9670 C   0  0  0  0  0  0
   28.5976    7.0532    4.9254 N   0  0  0  0  0  0
   35.6896    7.0490    1.5777 N   0  0  0  0  0  0
   27.3609    5.7906    3.6503 C   0  0  0  0  0  0
   27.2880    6.6190    4.7209 O   0  0  0  0  0  0
   33.5116    6.6955    3.4440 C   0  0  0  0  0  0
   35.6755    8.0578    3.9633 O   0  0  0  0  0  0
   35.8080    5.5272    3.7547 O   0  0  0  0  0  0
   30.7435    6.6154    3.7587 C   0  0  0  0  0  0
   30.9625    3.7204   -5.7054 C   0  0  0  0  0  0
   30.4944    1.6989   -6.9780 N   0  0  0  0  0  0
   32.7159    6.2501    2.3906 C   0  0  0  0  0  0
   32.9363    7.0500    4.6611 C   0  0  0  0  0  0
   31.5546    7.0499    4.8081 C   0  0  0  0  0  0
   31.3367    6.2172    2.5507 C   0  0  0  0  0  0
   35.6176    6.0772    0.5689 C   0  0  0  0  0  0
   31.8448    4.9623   -5.5088 C   0  0  1  0  0  0
   33.6963    3.9075   -4.1758 N   0  0  1  0  0  0
   35.5345    4.2488   -1.5557 C   0  0  0  0  0  0
   31.2612    2.7880   -6.7104 C   0  0  0  0  0  0
   35.9388    4.7355    0.7826 C   0  0  0  0  0  0
   35.2531    6.4997   -0.7109 C   0  0  0  0  0  0
   35.9035    3.8338   -0.2757 C   0  0  0  0  0  0
   35.2055    5.5928   -1.7669 C   0  0  0  0  0  0
   31.4084    5.8502   -4.4868 O   0  0  0  0  0  0
   26.0802    5.1869    3.1115 C   0  0  0  0  0  0
   26.8845    6.2500   -1.7242 O   0  0  0  0  0  0
   26.1588    4.6733    1.6491 C   0  0  0  0  0  0
   33.3635    4.6715   -5.3750 C   0  0  0  0  0  0
   29.8067    3.4944   -4.9434 C   0  0  0  0  0  0
   29.3778    1.5160   -6.2310 C   0  0  0  0  0  0
   26.4174    5.2511   -0.8463 C   0  0  2  0  0  0
   35.1354    3.6739   -4.0917 C   0  0  0  0  0  0
   35.5358    3.2025   -2.6766 C   0  0  0  0  0  0
   26.6713    5.6923    0.6042 C   0  0  0  0  0  0
   28.9970    2.3898   -5.2150 C   0  0  0  0  0  0
   27.0992    3.9281   -1.2264 C   0  0  0  0  0  0
   35.6014    8.0024    1.2680 H   0  0  0  0  0  0
   33.1444    5.9455    1.4494 H   0  0  0  0  0  0
   33.5567    7.3795    5.4815 H   0  0  0  0  0  0
   31.1260    7.3472    5.7524 H   0  0  0  0  0  0
   30.7308    5.8493    1.7357 H   0  0  0  0  0  0
   31.7257    5.5486   -6.4149 H   0  0  0  0  0  0
   33.3425    4.3710   -3.3487 H   0  0  0  0  0  0
   32.1283    2.9102   -7.3425 H   0  0  0  0  0  0
   36.2405    4.3698    1.7477 H   0  0  0  0  0  0
   35.0086    7.5358   -0.8977 H   0  0  0  0  0  0
   36.1698    2.8016   -0.0964 H   0  0  0  0  0  0
   34.9270    5.9572   -2.7437 H   0  0  0  0  0  0
   31.2397    6.7059   -4.8980 H   0  0  0  0  0  0
   25.2897    5.9328    3.1850 H   0  0  0  0  0  0
   25.7609    4.3703    3.7598 H   0  0  0  0  0  0
   26.6196    5.9936   -2.6135 H   0  0  0  0  0  0
   25.1665    4.3240    1.3575 H   0  0  0  0  0  0
   26.7986    3.7959    1.5876 H   0  0  0  0  0  0
   33.9122    5.6139   -5.3784 H   0  0  0  0  0  0
   33.7036    4.1214   -6.2525 H   0  0  0  0  0  0
   29.5203    4.1737   -4.1531 H   0  0  0  0  0  0
   28.7769    0.6482   -6.4569 H   0  0  0  0  0  0
   25.3430    5.1645   -0.9964 H   0  0  0  0  0  0
   35.6689    4.6006   -4.3123 H   0  0  0  0  0  0
   35.4601    2.9488   -4.8396 H   0  0  0  0  0  0
   36.5497    2.8030   -2.7336 H   0  0  0  0  0  0
   34.9061    2.3619   -2.3814 H   0  0  0  0  0  0
   27.7421    5.8500    0.7343 H   0  0  0  0  0  0
   26.2081    6.6654    0.7672 H   0  0  0  0  0  0
   28.0977    2.2135   -4.6407 H   0  0  0  0  0  0
   26.6545    3.0850   -0.6983 H   0  0  0  0  0  0
   28.1641    3.9427   -0.9919 H   0  0  0  0  0  0
   27.0082    3.7230   -2.2940 H   0  0  0  0  0  0
  1  5  1  0  0  0
  1  8  1  0  0  0
  1  9  2  0  0  0
  1 10  2  0  0  0
  2  3  1  0  0  0
  2  6  2  0  0  0
  3 11  1  0  0  0
  3  4  2  0  0  0
  4  7  1  0  0  0
  5 18  1  0  0  0
  5 40  1  0  0  0
  6 28  1  0  0  0
  6  7  1  0  0  0
  8 14  2  0  0  0
  8 15  1  0  0  0
 11 16  1  0  0  0
 11 17  2  0  0  0
 12 19  1  0  0  0
 12 22  1  0  0  0
 12 32  2  0  0  0
 13 22  2  0  0  0
 13 33  1  0  0  0
 14 17  1  0  0  0
 14 41  1  0  0  0
 15 16  2  0  0  0
 15 42  1  0  0  0
 16 43  1  0  0  0
 17 44  1  0  0  0
 18 23  2  0  0  0
 18 24  1  0  0  0
 19 31  1  0  0  0
 19 27  1  0  0  0
 19 45  1  0  0  0
 20 35  1  0  0  0
 20 31  1  0  0  0
 20 46  1  0  0  0
 21 26  1  0  0  0
 21 36  1  0  0  0
 21 25  2  0  0  0
 22 47  1  0  0  0
 23 25  1  0  0  0
 23 48  1  0  0  0
 24 26  2  0  0  0
 24 49  1  0  0  0
 25 50  1  0  0  0
 26 51  1  0  0  0
 27 52  1  0  0  0
 28 30  1  0  0  0
 28 53  1  0  0  0
 28 54  1  0  0  0
 29 34  1  0  0  0
 29 55  1  0  0  0
 30 37  1  0  0  0
 30 56  1  0  0  0
 30 57  1  0  0  0
 31 58  1  0  0  0
 31 59  1  0  0  0
 32 38  1  0  0  0
 32 60  1  0  0  0
 33 38  2  0  0  0
 33 61  1  0  0  0
 34 37  1  0  0  0
 34 39  1  0  0  0
 34 62  1  0  0  0
 35 36  1  0  0  0
 35 63  1  0  0  0
 35 64  1  0  0  0
 36 65  1  0  0  0
 36 66  1  0  0  0
 37 67  1  0  0  0
 37 68  1  0  0  0
 38 69  1  0  0  0
 39 70  1  0  0  0
 39 71  1  0  0  0
 39 72  1  0  0  0
M  END
> <s_m_entry_id>
3366

> <s_m_entry_name>
dock_pv.458

> <s_m_Source_Path>
/home/csk/Desktop/cluster/DUD-E-result/adrb1

> <s_m_Source_File>
dock_pv.maegz

> <i_m_Source_File_Index>
458

> <chembl_id>
CHEMBL418411

> <chembl_pref_name>
None

> <i_lp_mmshare_version>
53161

> <i_f3d_flags>
0

> <r_lp_tautomer_probability>
1

> <s_lp_Force_Field>
OPLS_2005

> <r_lp_Energy>
18.104632

> <b_lp_Chiralities_Consistent>
1

> <s_lp_Variant>
CHEMBL213_lig76-1

> <s_i_glide_gridfile>
glide-grid_2vt4

> <i_i_glide_lignum>
98

> <i_i_glide_rotatable_bonds>
16

> <r_i_docking_score>
-6.8835563438244

> <r_i_glide_ligand_efficiency>
-0.176501444713446

> <r_i_glide_ligand_efficiency_sa>
-0.598553718289825

> <r_i_glide_ligand_efficiency_ln>
-1.47602988148279

> <r_i_glide_gscore>
-6.8835563438244

> <r_i_glide_lipo>
-2.77016092291509

> <r_i_glide_hbond>
-0.257383322126369

> <r_i_glide_metal>
0

> <r_i_glide_rewards>
-0.397234935465685

> <r_i_glide_evdw>
-59.7438507080078

> <r_i_glide_ecoul>
-7.91429424285889

> <r_i_glide_erotb>
0.815559508511966

> <r_i_glide_esite>
-0.1

> <r_i_glide_emodel>
-90.6175735830341

> <r_i_glide_energy>
-67.6581449508667

> <r_i_glide_einternal>
8.21210289001465

> <i_i_glide_confnum>
26

> <i_i_glide_posenum>
152

> <r_i_glide_eff_state_penalty>
0

> <s_user_duplicate_titles>
CHEMBL213_lig76

> <s_m_subgroup_title>
dock_pv

> <s_m_subgroupid>
dock_pv

> <b_m_subgroup_collapsed>
1

$$$$
CHEMBL213_lig1176
                    3D
 Schrodinger Suite 2021-1.
 56 59  0  0  1  0            999 V2000
   26.4667    6.0119    5.0778 C   0  0  0  0  0  0
   26.0580    5.3765    3.9058 C   0  0  0  0  0  0
   26.9324    5.2557    2.8232 C   0  0  0  0  0  0
   28.2260    5.7729    2.9405 C   0  0  0  0  0  0
   28.6381    6.4586    4.0889 C   0  0  0  0  0  0
   27.7499    6.5529    5.1695 C   0  0  0  0  0  0
   29.9842    7.1949    4.0627 C   0  0  2  0  0  0
   31.2165    6.2905    3.8272 C   0  0  0  0  0  0
   30.2119    8.0238    5.1849 O   0  0  0  0  0  0
   32.3053    7.0620    3.2306 N   0  0  2  0  0  0
   33.2160    6.2923    2.3875 C   0  0  0  0  0  0
   32.5283    5.8498    1.0814 C   0  0  0  0  0  0
   33.5071    5.6695    0.0566 O   0  0  0  0  0  0
   33.1021    5.3287   -1.2212 C   0  0  0  0  0  0
   34.1126    5.2574   -2.1853 C   0  0  0  0  0  0
   31.4086    4.6783   -2.8653 C   0  0  0  0  0  0
   31.7701    5.0484   -1.5717 C   0  0  0  0  0  0
   32.4116    4.5784   -3.8388 C   0  0  0  0  0  0
   33.7485    4.8764   -3.4810 C   0  0  0  0  0  0
   34.4768    4.6996   -4.6405 N   0  0  0  0  0  0
   33.6993    4.3071   -5.6663 N   0  0  0  0  0  0
   32.4693    4.2155   -5.2211 C   0  0  0  0  0  0
   26.4849    4.5908    1.6721 N   0  0  0  0  0  0
   26.9802    4.9895    0.0118 S   0  0  0  0  0  0
   26.3355    3.4727   -0.8808 C   0  0  0  0  0  0
   28.4458    4.9887   -0.0522 O   0  0  0  0  0  0
   26.2098    6.1605   -0.4126 O   0  0  0  0  0  0
   31.3304    3.7888   -6.1240 C   0  0  0  0  0  0
   31.4999    2.6715   -7.1274 C   0  0  0  0  0  0
   30.6445    2.4672   -5.8891 C   0  0  0  0  0  0
   25.7833    6.1068    5.9112 H   0  0  0  0  0  0
   25.0562    4.9717    3.8458 H   0  0  0  0  0  0
   28.9212    5.6894    2.1235 H   0  0  0  0  0  0
   28.0311    7.0773    6.0707 H   0  0  0  0  0  0
   29.8803    7.8645    3.2095 H   0  0  0  0  0  0
   31.5689    5.8516    4.7599 H   0  0  0  0  0  0
   30.9399    5.4629    3.1747 H   0  0  0  0  0  0
   31.0467    8.4874    5.0405 H   0  0  0  0  0  0
   32.8103    7.6115    3.9144 H   0  0  0  0  0  0
   34.0526    6.9449    2.1358 H   0  0  0  0  0  0
   33.6372    5.4478    2.9353 H   0  0  0  0  0  0
   31.9638    4.9331    1.2439 H   0  0  0  0  0  0
   31.8080    6.6118    0.7852 H   0  0  0  0  0  0
   35.1381    5.4711   -1.9229 H   0  0  0  0  0  0
   30.3779    4.4520   -3.1029 H   0  0  0  0  0  0
   30.9850    5.0997   -0.8323 H   0  0  0  0  0  0
   35.4672    4.8547   -4.7812 H   0  0  0  0  0  0
   25.5087    4.3454    1.7275 H   0  0  0  0  0  0
   26.6209    3.5337   -1.9303 H   0  0  0  0  0  0
   25.2494    3.4501   -0.8071 H   0  0  0  0  0  0
   26.7766    2.5929   -0.4160 H   0  0  0  0  0  0
   30.6708    4.6117   -6.4055 H   0  0  0  0  0  0
   31.0143    2.7588   -8.0988 H   0  0  0  0  0  0
   32.4675    2.1712   -7.1972 H   0  0  0  0  0  0
   31.0078    1.8332   -5.0798 H   0  0  0  0  0  0
   29.5599    2.4276   -5.9883 H   0  0  0  0  0  0
  1  2  2  0  0  0
  1  6  1  0  0  0
  1 31  1  0  0  0
  2  3  1  0  0  0
  2 32  1  0  0  0
  3  4  2  0  0  0
  3 23  1  0  0  0
  4  5  1  0  0  0
  4 33  1  0  0  0
  5  6  2  0  0  0
  5  7  1  0  0  0
  6 34  1  0  0  0
  7  8  1  0  0  0
  7  9  1  0  0  0
  7 35  1  0  0  0
  8 10  1  0  0  0
  8 36  1  0  0  0
  8 37  1  0  0  0
  9 38  1  0  0  0
 10 11  1  0  0  0
 10 39  1  0  0  0
 11 12  1  0  0  0
 11 40  1  0  0  0
 11 41  1  0  0  0
 12 13  1  0  0  0
 12 42  1  0  0  0
 12 43  1  0  0  0
 13 14  1  0  0  0
 14 15  2  0  0  0
 14 17  1  0  0  0
 15 19  1  0  0  0
 15 44  1  0  0  0
 16 18  1  0  0  0
 16 17  2  0  0  0
 16 45  1  0  0  0
 17 46  1  0  0  0
 18 19  2  0  0  0
 18 22  1  0  0  0
 19 20  1  0  0  0
 20 21  1  0  0  0
 20 47  1  0  0  0
 21 22  2  0  0  0
 22 28  1  0  0  0
 23 24  1  0  0  0
 23 48  1  0  0  0
 24 25  1  0  0  0
 24 26  2  0  0  0
 24 27  2  0  0  0
 25 49  1  0  0  0
 25 50  1  0  0  0
 25 51  1  0  0  0
 28 29  1  0  0  0
 28 30  1  0  0  0
 28 52  1  0  0  0
 29 30  1  0  0  0
 29 53  1  0  0  0
 29 54  1  0  0  0
 30 55  1  0  0  0
 30 56  1  0  0  0
M  END
> <s_m_entry_id>
3367

> <s_m_entry_name>
dock_pv.459

> <s_m_Source_Path>
/home/csk/Desktop/cluster/DUD-E-result/adrb1

> <s_m_Source_File>
dock_pv.maegz

> <i_m_Source_File_Index>
459

> <chembl_id>
CHEMBL3600395

> <chembl_pref_name>
None

> <i_lp_mmshare_version>
53161

> <i_f3d_flags>
0

> <r_lp_tautomer_probability>
0.980392156862745

> <s_lp_Force_Field>
OPLS_2005

> <r_lp_Energy>
19.190148

> <b_lp_Chiralities_Consistent>
1

> <s_lp_Variant>
CHEMBL213_lig1176-1

> <s_i_glide_gridfile>
glide-grid_2vt4

> <i_i_glide_lignum>
1375

> <i_i_glide_rotatable_bonds>
11

> <r_i_docking_score>
-6.87868458409492

> <r_i_glide_ligand_efficiency>
-0.229289486136497

> <r_i_glide_ligand_efficiency_sa>
-0.712455743789047

> <r_i_glide_ligand_efficiency_ln>
-1.56291208677788

> <r_i_glide_gscore>
-6.87868458409492

> <r_i_glide_lipo>
-3.18833059473129

> <r_i_glide_hbond>
-0.322387673883034

> <r_i_glide_metal>
0

> <r_i_glide_rewards>
-1.0637792135016

> <r_i_glide_evdw>
-44.9371795654297

> <r_i_glide_ecoul>
-6.65062808990479

> <r_i_glide_erotb>
0.965407541474773

> <r_i_glide_esite>
-0.0251414516965694

> <r_i_glide_emodel>
-63.1723828166783

> <r_i_glide_energy>
-51.5878076553345

> <r_i_glide_einternal>
15.235164642334

> <i_i_glide_confnum>
27

> <i_i_glide_posenum>
56

> <r_i_glide_eff_state_penalty>
0

> <s_user_duplicate_titles>
CHEMBL213_lig1176

> <s_m_subgroup_title>
dock_pv

> <s_m_subgroupid>
dock_pv

> <b_m_subgroup_collapsed>
1

$$$$
CHEMBL213_lig1412
                    3D
 Schrodinger Suite 2021-1.
 68 72  0  0  1  0            999 V2000
   27.0081    5.8506   -2.6858 N   0  0  1  0  0  0
   27.1406    5.4061   -1.3113 C   0  0  0  0  0  0
   26.8311    6.5117   -0.3095 C   0  0  0  0  0  0
   27.1164    6.0060    1.1127 C   0  0  0  0  0  0
   26.4498    4.7410    1.4974 N   0  0  0  0  0  0
   26.4402    3.7228    0.4328 C   0  0  0  0  0  0
   26.1581    4.2913   -0.9400 C   0  0  0  0  0  0
   25.6267    4.6504    2.6139 C   0  0  0  0  0  0
   24.4151    4.0917    2.3618 N   0  0  0  0  0  0
   23.4838    4.1693    3.3241 C   0  0  0  0  0  0
   23.6269    4.6500    4.5781 N   0  0  0  0  0  0
   25.9190    5.2385    3.8839 C   0  0  0  0  0  0
   24.7985    5.2566    4.7845 C   0  0  0  0  0  0
   25.0909    6.2088    6.2010 S   0  0  0  0  0  0
   26.7729    6.2545    5.7799 C   0  0  0  0  0  0
   27.1031    5.7920    4.5199 C   0  0  0  0  0  0
   28.0978    6.5922   -3.3149 C   0  0  0  0  0  0
   29.4395    5.8148   -3.3931 C   0  0  1  0  0  0
   29.3514    4.4969   -4.1870 C   0  0  0  0  0  0
   30.4023    6.6499   -4.0146 O   0  0  0  0  0  0
   30.6223    3.8470   -4.1724 O   0  0  0  0  0  0
   31.0322    3.2784   -5.3569 C   0  0  0  0  0  0
   30.1993    2.4035   -6.0664 C   0  0  0  0  0  0
   30.6218    1.8553   -7.2759 C   0  0  0  0  0  0
   31.8789    2.1771   -7.7852 C   0  0  0  0  0  0
   32.7173    3.0412   -7.0819 C   0  0  0  0  0  0
   32.3073    3.5859   -5.8604 C   0  0  0  0  0  0
   28.5138    5.8705    4.0109 C   0  0  0  0  0  0
   29.3300    6.9669    4.3245 C   0  0  0  0  0  0
   30.5846    7.1032    3.7317 C   0  0  0  0  0  0
   31.0079    6.1731    2.7844 C   0  0  0  0  0  0
   30.2123    5.0690    2.4748 C   0  0  0  0  0  0
   29.0083    4.8850    3.1580 C   0  0  0  0  0  0
   33.2344    4.5370   -5.1100 C   0  0  0  0  0  0
   33.8073    3.9401   -3.8376 C   0  0  0  0  0  0
   33.5473    4.3901   -2.5999 C   0  0  0  0  0  0
   26.3958    5.2582   -3.2485 H   0  0  0  0  0  0
   28.1476    5.0174   -1.1631 H   0  0  0  0  0  0
   27.4251    7.3944   -0.5308 H   0  0  0  0  0  0
   25.8082    6.8659   -0.4063 H   0  0  0  0  0  0
   28.1854    5.8482    1.1313 H   0  0  0  0  0  0
   26.8757    6.7860    1.8322 H   0  0  0  0  0  0
   27.4079    3.2579    0.3849 H   0  0  0  0  0  0
   25.7500    2.9061    0.6447 H   0  0  0  0  0  0
   25.1256    4.6347   -0.9499 H   0  0  0  0  0  0
   26.2102    3.4653   -1.6454 H   0  0  0  0  0  0
   22.5212    3.7647    3.0818 H   0  0  0  0  0  0
   27.4470    6.7099    6.4886 H   0  0  0  0  0  0
   28.2074    7.5393   -2.7856 H   0  0  0  0  0  0
   27.7670    6.8467   -4.3227 H   0  0  0  0  0  0
   29.8183    5.6102   -2.3921 H   0  0  0  0  0  0
   29.0119    4.7182   -5.1974 H   0  0  0  0  0  0
   28.6104    3.8303   -3.7474 H   0  0  0  0  0  0
   30.1447    6.8364   -4.9209 H   0  0  0  0  0  0
   29.2238    2.1525   -5.6771 H   0  0  0  0  0  0
   29.9714    1.1894   -7.8229 H   0  0  0  0  0  0
   32.2047    1.7599   -8.7270 H   0  0  0  0  0  0
   33.6887    3.2845   -7.4878 H   0  0  0  0  0  0
   28.9826    7.7400    4.9946 H   0  0  0  0  0  0
   31.2112    7.9512    3.9686 H   0  0  0  0  0  0
   31.9625    6.3022    2.2946 H   0  0  0  0  0  0
   30.5566    4.3302    1.7667 H   0  0  0  0  0  0
   28.4275    4.0011    2.9576 H   0  0  0  0  0  0
   32.6834    5.4492   -4.8829 H   0  0  0  0  0  0
   34.0637    4.8503   -5.7459 H   0  0  0  0  0  0
   34.4736    3.0987   -3.9638 H   0  0  0  0  0  0
   32.8849    5.2268   -2.4339 H   0  0  0  0  0  0
   33.9942    3.9224   -1.7354 H   0  0  0  0  0  0
  1 17  1  0  0  0
  1  2  1  0  0  0
  1 37  1  0  0  0
  2  3  1  0  0  0
  2  7  1  0  0  0
  2 38  1  0  0  0
  3  4  1  0  0  0
  3 39  1  0  0  0
  3 40  1  0  0  0
  4  5  1  0  0  0
  4 41  1  0  0  0
  4 42  1  0  0  0
  5  6  1  0  0  0
  5  8  1  0  0  0
  6  7  1  0  0  0
  6 43  1  0  0  0
  6 44  1  0  0  0
  7 45  1  0  0  0
  7 46  1  0  0  0
  8  9  2  0  0  0
  8 12  1  0  0  0
  9 10  1  0  0  0
 10 11  2  0  0  0
 10 47  1  0  0  0
 11 13  1  0  0  0
 12 13  2  0  0  0
 12 16  1  0  0  0
 13 14  1  0  0  0
 14 15  1  0  0  0
 15 16  2  0  0  0
 15 48  1  0  0  0
 16 28  1  0  0  0
 17 18  1  0  0  0
 17 49  1  0  0  0
 17 50  1  0  0  0
 18 19  1  0  0  0
 18 20  1  0  0  0
 18 51  1  0  0  0
 19 21  1  0  0  0
 19 52  1  0  0  0
 19 53  1  0  0  0
 20 54  1  0  0  0
 21 22  1  0  0  0
 22 23  2  0  0  0
 22 27  1  0  0  0
 23 24  1  0  0  0
 23 55  1  0  0  0
 24 25  2  0  0  0
 24 56  1  0  0  0
 25 26  1  0  0  0
 25 57  1  0  0  0
 26 27  2  0  0  0
 26 58  1  0  0  0
 27 34  1  0  0  0
 28 29  2  0  0  0
 28 33  1  0  0  0
 29 30  1  0  0  0
 29 59  1  0  0  0
 30 31  2  0  0  0
 30 60  1  0  0  0
 31 32  1  0  0  0
 31 61  1  0  0  0
 32 33  2  0  0  0
 32 62  1  0  0  0
 33 63  1  0  0  0
 34 35  1  0  0  0
 34 64  1  0  0  0
 34 65  1  0  0  0
 35 36  2  0  0  0
 35 66  1  0  0  0
 36 67  1  0  0  0
 36 68  1  0  0  0
M  END
> <s_m_entry_id>
3368

> <s_m_entry_name>
dock_pv.460

> <s_m_Source_Path>
/home/csk/Desktop/cluster/DUD-E-result/adrb1

> <s_m_Source_File>
dock_pv.maegz

> <i_m_Source_File_Index>
460

> <chembl_id>
CHEMBL1258597

> <chembl_pref_name>
None

> <i_lp_mmshare_version>
53161

> <i_f3d_flags>
0

> <r_lp_tautomer_probability>
1

> <s_lp_Force_Field>
OPLS_2005

> <r_lp_Energy>
45.610032

> <b_lp_Chiralities_Consistent>
1

> <s_lp_Variant>
CHEMBL213_lig1412-2

> <s_i_glide_gridfile>
glide-grid_2vt4

> <i_i_glide_lignum>
1728

> <i_i_glide_rotatable_bonds>
11

> <r_i_docking_score>
-6.87860194951492

> <r_i_glide_ligand_efficiency>
-0.191072276375415

> <r_i_glide_ligand_efficiency_sa>
-0.630906755118684

> <r_i_glide_ligand_efficiency_ln>
-1.50072510703575

> <r_i_glide_gscore>
-6.87860194951492

> <r_i_glide_lipo>
-4.11472647546889

> <r_i_glide_hbond>
-0.142404329152121

> <r_i_glide_metal>
0

> <r_i_glide_rewards>
-1.00083687348285

> <r_i_glide_evdw>
-33.1536750793457

> <r_i_glide_ecoul>
-5.18437623977661

> <r_i_glide_erotb>
0.814705918522718

> <r_i_glide_esite>
0

> <r_i_glide_emodel>
-41.2485287068228

> <r_i_glide_energy>
-38.3380513191223

> <r_i_glide_einternal>
9.61912822723389

> <i_i_glide_confnum>
184

> <i_i_glide_posenum>
331

> <r_i_glide_eff_state_penalty>
0

> <s_user_duplicate_titles>
CHEMBL213_lig1412

> <s_m_subgroup_title>
dock_pv

> <s_m_subgroupid>
dock_pv

> <b_m_subgroup_collapsed>
1

$$$$
CHEMBL213_lig492
                    3D
 Schrodinger Suite 2021-1.
 55 56  0  0  1  0            999 V2000
   24.9604    3.8505    1.8280 C   0  0  0  0  0  0
   24.8165    4.4087    3.0973 C   0  0  0  0  0  0
   25.8097    5.2454    3.6234 C   0  0  0  0  0  0
   26.9893    5.4805    2.8957 C   0  0  0  0  0  0
   27.0943    4.9589    1.5974 C   0  0  0  0  0  0
   26.0874    4.1510    1.0657 C   0  0  0  0  0  0
   25.5942    5.8499    4.9347 C   0  0  0  0  0  0
   25.4158    6.3145    5.9779 N   0  0  0  0  0  0
   27.9930    6.2499    3.4556 O   0  0  0  0  0  0
   29.3333    5.7599    3.3699 C   0  0  0  0  0  0
   30.3704    6.8340    3.7890 C   0  0  2  0  0  0
   31.8323    6.3569    3.5837 C   0  0  0  0  0  0
   30.2083    7.2003    5.1498 O   0  0  0  0  0  0
   32.7214    7.4498    3.1850 N   0  0  2  0  0  0
   34.1370    7.0861    3.0836 C   0  0  0  0  0  0
   34.4660    5.8572    2.2016 C   0  0  0  0  0  0
   33.7718    5.8500    0.9123 N   0  0  0  0  0  0
   34.2785    5.4498   -0.2611 C   0  0  0  0  0  0
   35.4760    5.2427   -0.4461 O   0  0  0  0  0  0
   33.2980    5.2544   -1.1655 N   0  0  0  0  0  0
   33.4223    4.8249   -2.4984 C   0  0  0  0  0  0
   34.5576    5.0703   -3.2841 C   0  0  0  0  0  0
   34.5954    4.6474   -4.6103 C   0  0  0  0  0  0
   33.5085    3.9689   -5.1578 C   0  0  0  0  0  0
   32.3683    3.7093   -4.3964 C   0  0  0  0  0  0
   32.3300    4.1535   -3.0623 C   0  0  0  0  0  0
   31.3502    3.0217   -5.0301 O   0  0  0  0  0  0
   30.1821    2.6548   -4.2997 C   0  0  0  0  0  0
   29.2394    1.8712   -5.2264 C   0  0  0  0  0  0
   29.7134    0.6746   -5.5833 F   0  0  0  0  0  0
   24.1833    3.2208    1.4191 H   0  0  0  0  0  0
   23.9093    4.2121    3.6519 H   0  0  0  0  0  0
   27.9546    5.1732    0.9814 H   0  0  0  0  0  0
   26.1843    3.7528    0.0654 H   0  0  0  0  0  0
   29.4079    4.8666    3.9850 H   0  0  0  0  0  0
   29.5779    5.4458    2.3552 H   0  0  0  0  0  0
   30.1780    7.7210    3.1853 H   0  0  0  0  0  0
   32.2081    5.8501    4.4742 H   0  0  0  0  0  0
   31.8403    5.6179    2.7832 H   0  0  0  0  0  0
   30.8292    7.9121    5.3332 H   0  0  0  0  0  0
   32.6078    8.2924    3.7544 H   0  0  0  0  0  0
   34.6717    7.9535    2.6955 H   0  0  0  0  0  0
   34.5365    6.9302    4.0867 H   0  0  0  0  0  0
   35.5490    5.7977    2.0749 H   0  0  0  0  0  0
   34.2075    4.9503    2.7454 H   0  0  0  0  0  0
   32.8823    6.3300    0.9142 H   0  0  0  0  0  0
   32.3536    5.3217   -0.8228 H   0  0  0  0  0  0
   35.4114    5.6050   -2.8901 H   0  0  0  0  0  0
   35.4686    4.8561   -5.2130 H   0  0  0  0  0  0
   33.5489    3.6449   -6.1875 H   0  0  0  0  0  0
   31.4572    3.9706   -2.4546 H   0  0  0  0  0  0
   30.4489    2.0377   -3.4404 H   0  0  0  0  0  0
   29.6712    3.5474   -3.9337 H   0  0  0  0  0  0
   28.2788    1.6924   -4.7442 H   0  0  0  0  0  0
   29.0432    2.4266   -6.1442 H   0  0  0  0  0  0
  1  6  1  0  0  0
  1  2  2  0  0  0
  1 31  1  0  0  0
  2  3  1  0  0  0
  2 32  1  0  0  0
  3  7  1  0  0  0
  3  4  2  0  0  0
  4  9  1  0  0  0
  4  5  1  0  0  0
  5  6  2  0  0  0
  5 33  1  0  0  0
  6 34  1  0  0  0
  7  8  3  0  0  0
  9 10  1  0  0  0
 10 11  1  0  0  0
 10 35  1  0  0  0
 10 36  1  0  0  0
 11 12  1  0  0  0
 11 13  1  0  0  0
 11 37  1  0  0  0
 12 14  1  0  0  0
 12 38  1  0  0  0
 12 39  1  0  0  0
 13 40  1  0  0  0
 14 15  1  0  0  0
 14 41  1  0  0  0
 15 16  1  0  0  0
 15 42  1  0  0  0
 15 43  1  0  0  0
 16 17  1  0  0  0
 16 44  1  0  0  0
 16 45  1  0  0  0
 17 18  1  0  0  0
 17 46  1  0  0  0
 18 19  2  0  0  0
 18 20  1  0  0  0
 20 21  1  0  0  0
 20 47  1  0  0  0
 21 22  2  0  0  0
 21 26  1  0  0  0
 22 23  1  0  0  0
 22 48  1  0  0  0
 23 24  2  0  0  0
 23 49  1  0  0  0
 24 25  1  0  0  0
 24 50  1  0  0  0
 25 26  2  0  0  0
 25 27  1  0  0  0
 26 51  1  0  0  0
 27 28  1  0  0  0
 28 29  1  0  0  0
 28 52  1  0  0  0
 28 53  1  0  0  0
 29 30  1  0  0  0
 29 54  1  0  0  0
 29 55  1  0  0  0
M  END
> <s_m_entry_id>
3369

> <s_m_entry_name>
dock_pv.461

> <s_m_Source_Path>
/home/csk/Desktop/cluster/DUD-E-result/adrb1

> <s_m_Source_File>
dock_pv.maegz

> <i_m_Source_File_Index>
461

> <chembl_id>
CHEMBL2011218

> <chembl_pref_name>
None

> <i_lp_mmshare_version>
53161

> <i_f3d_flags>
0

> <r_lp_tautomer_probability>
1

> <s_lp_Force_Field>
OPLS_2005

> <r_lp_Energy>
30.55768

> <b_lp_Chiralities_Consistent>
1

> <s_lp_Variant>
CHEMBL213_lig492-1

> <s_i_glide_gridfile>
glide-grid_2vt4

> <i_i_glide_lignum>
582

> <i_i_glide_rotatable_bonds>
15

> <r_i_docking_score>
-6.87354416460133

> <r_i_glide_ligand_efficiency>
-0.229118138820044

> <r_i_glide_ligand_efficiency_sa>
-0.711923327838159

> <r_i_glide_ligand_efficiency_ln>
-1.56174412745957

> <r_i_glide_gscore>
-6.87354416460133

> <r_i_glide_lipo>
-2.29883805320252

> <r_i_glide_hbond>
-0.357870995195403

> <r_i_glide_metal>
0

> <r_i_glide_rewards>
-2.14749975255956

> <r_i_glide_evdw>
-45.8465881347656

> <r_i_glide_ecoul>
-8.38604164123535

> <r_i_glide_erotb>
1.48090028927974

> <r_i_glide_esite>
0

> <r_i_glide_emodel>
-72.0971744417455

> <r_i_glide_energy>
-54.232629776001

> <r_i_glide_einternal>
8.6320161819458

> <i_i_glide_confnum>
260

> <i_i_glide_posenum>
280

> <r_i_glide_eff_state_penalty>
0

> <s_user_duplicate_titles>
CHEMBL213_lig492

> <s_m_subgroup_title>
dock_pv

> <s_m_subgroupid>
dock_pv

> <b_m_subgroup_collapsed>
1

$$$$
CHEMBL213_lig949
                    3D
 Schrodinger Suite 2021-1.
 56 58  0  0  1  0            999 V2000
   28.9150    7.5296    5.2903 C   0  0  0  0  0  0
   27.9638    6.6623    4.7683 C   0  0  0  0  0  0
   28.2884    5.8328    3.6971 C   0  0  0  0  0  0
   29.5874    5.8401    3.1863 C   0  0  0  0  0  0
   30.5740    6.6503    3.7557 C   0  0  0  0  0  0
   30.2088    7.5326    4.7835 C   0  0  0  0  0  0
   26.7034    6.6500    5.3056 O   0  0  0  0  0  0
   31.8656    6.4703    3.2872 O   0  0  0  0  0  0
   32.9690    7.0999    3.9507 C   0  0  0  0  0  0
   34.1825    6.1650    4.1083 C   0  0  2  0  0  0
   34.8345    5.6700    2.8091 C   0  0  0  0  0  0
   35.2695    6.7664    1.9408 N   0  0  1  0  0  0
   36.4172    6.4290    1.0966 C   0  0  0  0  0  0
   36.3090    5.1265    0.2634 C   0  0  0  0  0  0
   35.3379    5.1772   -0.9099 C   0  0  0  0  0  0
   35.8219    5.1608   -2.2203 C   0  0  0  0  0  0
   34.9326    5.1239   -3.2903 C   0  0  0  0  0  0
   33.5552    5.1229   -3.0566 C   0  0  0  0  0  0
   33.0722    5.1446   -1.7434 C   0  0  0  0  0  0
   33.9615    5.1713   -0.6800 C   0  0  0  0  0  0
   32.7248    5.0495   -4.1832 N   0  0  0  0  0  0
   31.4113    5.3372   -4.2797 C   0  0  0  0  0  0
   30.7660    5.0061   -5.6217 C   0  0  0  0  0  0
   30.7310    5.8500   -3.3929 O   0  0  0  0  0  0
   33.8089    5.0508    4.9012 O   0  0  0  0  0  0
   30.2073    3.5941   -5.6691 C   0  0  0  0  0  0
   29.0935    3.1380   -4.9425 C   0  0  0  0  0  0
   28.7407    1.8250   -5.2158 C   0  0  0  0  0  0
   29.8072    1.0902   -6.3549 S   0  0  0  0  0  0
   30.7104    2.5671   -6.4672 C   0  0  0  0  0  0
   28.6523    8.2058    6.0878 H   0  0  0  0  0  0
   27.5442    5.1724    3.2775 H   0  0  0  0  0  0
   29.8499    5.1652    2.3848 H   0  0  0  0  0  0
   30.9036    8.2380    5.2104 H   0  0  0  0  0  0
   26.6079    7.2887    6.0229 H   0  0  0  0  0  0
   32.7497    7.4370    4.9615 H   0  0  0  0  0  0
   33.2480    7.9765    3.3662 H   0  0  0  0  0  0
   34.9468    6.6992    4.6732 H   0  0  0  0  0  0
   34.1282    5.0467    2.2705 H   0  0  0  0  0  0
   35.6889    5.0451    3.0681 H   0  0  0  0  0  0
   34.5010    7.0887    1.3583 H   0  0  0  0  0  0
   37.3362    6.4329    1.6828 H   0  0  0  0  0  0
   36.5270    7.2668    0.4061 H   0  0  0  0  0  0
   36.0494    4.2716    0.8885 H   0  0  0  0  0  0
   37.3037    4.8801   -0.1142 H   0  0  0  0  0  0
   36.8847    5.1550   -2.4162 H   0  0  0  0  0  0
   35.3282    5.1028   -4.2965 H   0  0  0  0  0  0
   32.0170    5.1069   -1.5193 H   0  0  0  0  0  0
   33.5598    5.1661    0.3174 H   0  0  0  0  0  0
   33.1835    4.7563   -5.0322 H   0  0  0  0  0  0
   31.4944    5.1743   -6.4132 H   0  0  0  0  0  0
   29.9808    5.7410   -5.8008 H   0  0  0  0  0  0
   32.9091    4.7845    4.6624 H   0  0  0  0  0  0
   28.5417    3.7610   -4.2526 H   0  0  0  0  0  0
   27.9080    1.2727   -4.8043 H   0  0  0  0  0  0
   31.5585    2.6202   -7.1333 H   0  0  0  0  0  0
  1  6  1  0  0  0
  1  2  2  0  0  0
  1 31  1  0  0  0
  2  3  1  0  0  0
  2  7  1  0  0  0
  3  4  2  0  0  0
  3 32  1  0  0  0
  4  5  1  0  0  0
  4 33  1  0  0  0
  5  8  1  0  0  0
  5  6  2  0  0  0
  6 34  1  0  0  0
  7 35  1  0  0  0
  8  9  1  0  0  0
  9 10  1  0  0  0
  9 36  1  0  0  0
  9 37  1  0  0  0
 10 11  1  0  0  0
 10 25  1  0  0  0
 10 38  1  0  0  0
 11 12  1  0  0  0
 11 39  1  0  0  0
 11 40  1  0  0  0
 12 13  1  0  0  0
 12 41  1  0  0  0
 13 14  1  0  0  0
 13 42  1  0  0  0
 13 43  1  0  0  0
 14 15  1  0  0  0
 14 44  1  0  0  0
 14 45  1  0  0  0
 15 16  2  0  0  0
 15 20  1  0  0  0
 16 17  1  0  0  0
 16 46  1  0  0  0
 17 18  2  0  0  0
 17 47  1  0  0  0
 18 19  1  0  0  0
 18 21  1  0  0  0
 19 20  2  0  0  0
 19 48  1  0  0  0
 20 49  1  0  0  0
 21 22  1  0  0  0
 21 50  1  0  0  0
 22 23  1  0  0  0
 22 24  2  0  0  0
 23 26  1  0  0  0
 23 51  1  0  0  0
 23 52  1  0  0  0
 25 53  1  0  0  0
 26 27  1  0  0  0
 26 30  2  0  0  0
 27 28  2  0  0  0
 27 54  1  0  0  0
 28 29  1  0  0  0
 28 55  1  0  0  0
 29 30  1  0  0  0
 30 56  1  0  0  0
M  END
> <s_m_entry_id>
3370

> <s_m_entry_name>
dock_pv.462

> <s_m_Source_Path>
/home/csk/Desktop/cluster/DUD-E-result/adrb1

> <s_m_Source_File>
dock_pv.maegz

> <i_m_Source_File_Index>
462

> <chembl_id>
CHEMBL551892

> <chembl_pref_name>
None

> <i_lp_mmshare_version>
53161

> <i_f3d_flags>
0

> <r_lp_tautomer_probability>
0.999999999999998

> <s_lp_Force_Field>
OPLS_2005

> <r_lp_Energy>
29.984369

> <b_lp_Chiralities_Consistent>
1

> <s_lp_Variant>
CHEMBL213_lig949-1

> <s_i_glide_gridfile>
glide-grid_2vt4

> <i_i_glide_lignum>
1061

> <i_i_glide_rotatable_bonds>
14

> <r_i_docking_score>
-6.87120098176031

> <r_i_glide_ligand_efficiency>
-0.229040032725344

> <r_i_glide_ligand_efficiency_sa>
-0.711680634042068

> <r_i_glide_ligand_efficiency_ln>
-1.56121173078707

> <r_i_glide_gscore>
-6.87120098176031

> <r_i_glide_lipo>
-2.5521295410218

> <r_i_glide_hbond>
-0.41163266334877

> <r_i_glide_metal>
0

> <r_i_glide_rewards>
-0.956120152008817

> <r_i_glide_evdw>
-49.2147216796875

> <r_i_glide_ecoul>
-11.2706546783447

> <r_i_glide_erotb>
1.20001566035516

> <r_i_glide_esite>
0

> <r_i_glide_emodel>
-81.4700634490606

> <r_i_glide_energy>
-60.4853763580322

> <r_i_glide_einternal>
9.96574974060059

> <i_i_glide_confnum>
126

> <i_i_glide_posenum>
318

> <r_i_glide_eff_state_penalty>
0

> <s_user_duplicate_titles>
CHEMBL213_lig949,563024

> <s_m_subgroup_title>
dock_pv

> <s_m_subgroupid>
dock_pv

> <b_m_subgroup_collapsed>
1

$$$$
CHEMBL213_lig1468
                    3D
 Schrodinger Suite 2021-1.
 42 43  0  0  1  0            999 V2000
   25.0084    5.0501    4.1810 C   0  0  0  0  0  0
   25.9121    5.8508    4.8779 C   0  0  0  0  0  0
   27.1242    6.2272    4.2792 C   0  0  0  0  0  0
   27.3808    5.8260    2.9563 C   0  0  0  0  0  0
   26.4599    5.0456    2.2415 C   0  0  0  0  0  0
   25.2786    4.6492    2.8778 C   0  0  0  0  0  0
   25.5734    6.2502    6.1471 O   0  0  0  0  0  0
   28.1410    7.0788    5.0433 C   0  0  0  0  0  0
   29.4809    6.6559    4.9089 O   0  0  0  0  0  0
   26.7543    4.6067    0.7972 C   0  0  2  0  0  0
   26.5151    5.7173   -0.2578 C   0  0  0  0  0  0
   26.0353    3.4494    0.3998 O   0  0  0  0  0  0
   27.0081    5.2878   -1.5674 N   0  0  2  0  0  0
   27.3936    6.4093   -2.4056 C   0  0  0  0  0  0
   27.9850    5.9157   -3.7413 C   0  0  0  0  0  0
   29.4038    5.3390   -3.6857 C   0  0  0  0  0  0
   30.3895    5.8478   -4.5369 C   0  0  0  0  0  0
   31.6703    5.3026   -4.5358 C   0  0  0  0  0  0
   31.9737    4.2508   -3.6735 C   0  0  0  0  0  0
   31.0015    3.7352   -2.8208 C   0  0  0  0  0  0
   29.7183    4.2760   -2.8325 C   0  0  0  0  0  0
   33.7252    3.5037   -3.6641 Br  0  0  0  0  0  0
   24.0819    4.7520    4.6494 H   0  0  0  0  0  0
   28.3016    6.1157    2.4725 H   0  0  0  0  0  0
   24.5534    4.0384    2.3602 H   0  0  0  0  0  0
   26.1185    6.9672    6.4873 H   0  0  0  0  0  0
   28.0577    8.1231    4.7499 H   0  0  0  0  0  0
   27.9393    7.0499    6.1122 H   0  0  0  0  0  0
   29.7126    6.6170    3.9784 H   0  0  0  0  0  0
   27.8077    4.3367    0.7708 H   0  0  0  0  0  0
   25.4560    5.9646   -0.3415 H   0  0  0  0  0  0
   27.0307    6.6249    0.0643 H   0  0  0  0  0  0
   26.1172    3.3893   -0.5564 H   0  0  0  0  0  0
   26.2557    4.8266   -2.0821 H   0  0  0  0  0  0
   26.5386    7.0556   -2.5993 H   0  0  0  0  0  0
   28.1495    6.9960   -1.8816 H   0  0  0  0  0  0
   27.3232    5.1818   -4.2037 H   0  0  0  0  0  0
   27.9823    6.7721   -4.4145 H   0  0  0  0  0  0
   30.1640    6.6555   -5.2187 H   0  0  0  0  0  0
   32.4228    5.6898   -5.2085 H   0  0  0  0  0  0
   31.2339    2.9116   -2.1625 H   0  0  0  0  0  0
   28.9697    3.8501   -2.1816 H   0  0  0  0  0  0
  1  2  2  0  0  0
  1  6  1  0  0  0
  1 23  1  0  0  0
  2  3  1  0  0  0
  2  7  1  0  0  0
  3  4  2  0  0  0
  3  8  1  0  0  0
  4  5  1  0  0  0
  4 24  1  0  0  0
  5  6  2  0  0  0
  5 10  1  0  0  0
  6 25  1  0  0  0
  7 26  1  0  0  0
  8  9  1  0  0  0
  8 27  1  0  0  0
  8 28  1  0  0  0
  9 29  1  0  0  0
 10 11  1  0  0  0
 10 12  1  0  0  0
 10 30  1  0  0  0
 11 13  1  0  0  0
 11 31  1  0  0  0
 11 32  1  0  0  0
 12 33  1  0  0  0
 13 14  1  0  0  0
 13 34  1  0  0  0
 14 15  1  0  0  0
 14 35  1  0  0  0
 14 36  1  0  0  0
 15 16  1  0  0  0
 15 37  1  0  0  0
 15 38  1  0  0  0
 16 17  2  0  0  0
 16 21  1  0  0  0
 17 18  1  0  0  0
 17 39  1  0  0  0
 18 19  2  0  0  0
 18 40  1  0  0  0
 19 20  1  0  0  0
 19 22  1  0  0  0
 20 21  2  0  0  0
 20 41  1  0  0  0
 21 42  1  0  0  0
M  END
> <s_m_entry_id>
3371

> <s_m_entry_name>
dock_pv.463

> <s_m_Source_Path>
/home/csk/Desktop/cluster/DUD-E-result/adrb1

> <s_m_Source_File>
dock_pv.maegz

> <i_m_Source_File_Index>
463

> <chembl_id>
CHEMBL3290971

> <chembl_pref_name>
None

> <i_lp_mmshare_version>
53161

> <i_f3d_flags>
0

> <r_lp_tautomer_probability>
0.999999999997365

> <s_lp_Force_Field>
OPLS_2005

> <r_lp_Energy>
22.418943

> <b_lp_Chiralities_Consistent>
1

> <s_lp_Variant>
CHEMBL213_lig1468-1

> <s_i_glide_gridfile>
glide-grid_2vt4

> <i_i_glide_lignum>
1804

> <i_i_glide_rotatable_bonds>
10

> <r_i_docking_score>
-6.87101350896429

> <r_i_glide_ligand_efficiency>
-0.312318795862013

> <r_i_glide_ligand_efficiency_sa>
-0.875129548806604

> <r_i_glide_ligand_efficiency_ln>
-1.67952632789814

> <r_i_glide_gscore>
-6.87101350896429

> <r_i_glide_lipo>
-2.60038696786047

> <r_i_glide_hbond>
-0.661622918715288

> <r_i_glide_metal>
0

> <r_i_glide_rewards>
-1.34349142818392

> <r_i_glide_evdw>
-34.8421401977539

> <r_i_glide_ecoul>
-9.22829151153564

> <r_i_glide_erotb>
0.860838542413436

> <r_i_glide_esite>
0

> <r_i_glide_emodel>
-60.5847759456749

> <r_i_glide_energy>
-44.0704317092896

> <r_i_glide_einternal>
5.85100793838501

> <i_i_glide_confnum>
91

> <i_i_glide_posenum>
328

> <r_i_glide_eff_state_penalty>
0

> <s_user_duplicate_titles>
CHEMBL213_lig1468

> <s_m_subgroup_title>
dock_pv

> <s_m_subgroupid>
dock_pv

> <b_m_subgroup_collapsed>
1

$$$$
CHEMBL213_lig348
                    3D
 Schrodinger Suite 2021-1.
 70 74  0  0  1  0            999 V2000
   35.4544    7.0741    3.6541 S   0  0  0  0  0  0
   28.6403    5.8504    3.5560 N   0  0  0  0  0  0
   29.4306    6.4882    4.3797 C   0  0  0  0  0  0
   27.3759    5.7826    3.9569 C   0  0  0  0  0  0
   26.2738    3.8227   -0.4557 C   0  0  0  0  0  0
   28.6103    7.0500    5.7966 S   0  0  0  0  0  0
   35.8164    7.3149    1.9326 N   0  0  0  0  0  0
   27.1362    6.3893    5.1855 C   0  0  0  0  0  0
   33.6907    6.8427    3.8299 C   0  0  0  0  0  0
   25.8049    4.1394    0.9467 C   0  0  0  0  0  0
   26.3600    5.0946    3.1060 C   0  0  0  0  0  0
   36.1129    5.8508    4.1215 O   0  0  0  0  0  0
   35.7675    8.3559    4.2945 O   0  0  0  0  0  0
   26.6753    4.8380    1.7728 C   0  0  0  0  0  0
   30.9109    6.6501    4.1706 C   0  0  0  0  0  0
   30.9882    3.1904   -5.3990 C   0  0  0  0  0  0
   30.3525    2.0638   -7.4527 N   0  0  0  0  0  0
   32.8681    6.5593    2.7406 C   0  0  0  0  0  0
   33.1341    6.9895    5.0968 C   0  0  0  0  0  0
   31.7543    6.9187    5.2548 C   0  0  0  0  0  0
   31.4881    6.4676    2.9079 C   0  0  0  0  0  0
   26.2081    4.9220   -1.2078 F   0  0  0  0  0  0
   27.5460    3.4501   -0.4155 F   0  0  0  0  0  0
   25.5604    2.8207   -0.9641 F   0  0  0  0  0  0
   35.8498    6.3386    0.9262 C   0  0  0  0  0  0
   32.0525    3.9144   -4.5767 C   0  0  1  0  0  0
   33.6002    3.5399   -2.5767 N   0  0  2  0  0  0
   35.9982    4.5187   -1.1907 C   0  0  0  0  0  0
   31.2608    2.7301   -6.6941 C   0  0  0  0  0  0
   35.8857    6.7937   -0.3941 C   0  0  0  0  0  0
   35.8610    4.9643    1.1801 C   0  0  0  0  0  0
   35.9690    5.8884   -1.4505 C   0  0  0  0  0  0
   35.9449    4.0603    0.1270 C   0  0  0  0  0  0
   31.6093    5.2019   -4.1760 O   0  0  0  0  0  0
   24.5657    3.7216    1.4428 C   0  0  0  0  0  0
   25.1153    4.6774    3.5919 C   0  0  0  0  0  0
   24.2181    3.9983    2.7659 C   0  0  0  0  0  0
   32.4363    3.0726   -3.3289 C   0  0  0  0  0  0
   29.7142    2.9370   -4.8713 C   0  0  0  0  0  0
   29.1258    1.8350   -6.9174 C   0  0  0  0  0  0
   34.8580    3.5768   -3.3178 C   0  0  0  0  0  0
   36.0564    3.5174   -2.3443 C   0  0  0  0  0  0
   28.7720    2.2475   -5.6322 C   0  0  0  0  0  0
   35.8197    8.2758    1.6279 H   0  0  0  0  0  0
   26.2130    6.4926    5.7350 H   0  0  0  0  0  0
   27.6253    5.1533    1.3692 H   0  0  0  0  0  0
   33.2769    6.4313    1.7507 H   0  0  0  0  0  0
   33.7649    7.2027    5.9493 H   0  0  0  0  0  0
   31.3557    7.0478    6.2447 H   0  0  0  0  0  0
   30.8763    6.2439    2.0470 H   0  0  0  0  0  0
   32.9361    4.0457   -5.2029 H   0  0  0  0  0  0
   33.7137    3.0522   -1.6976 H   0  0  0  0  0  0
   32.2272    2.8926   -7.1510 H   0  0  0  0  0  0
   35.8501    7.8496   -0.6112 H   0  0  0  0  0  0
   35.8039    4.5613    2.1764 H   0  0  0  0  0  0
   36.0082    6.2497   -2.4688 H   0  0  0  0  0  0
   35.9585    3.0035    0.3427 H   0  0  0  0  0  0
   31.4251    5.7199   -4.9642 H   0  0  0  0  0  0
   23.8708    3.1862    0.8103 H   0  0  0  0  0  0
   24.8313    4.8775    4.6138 H   0  0  0  0  0  0
   23.2558    3.6875    3.1493 H   0  0  0  0  0  0
   31.5847    3.0335   -2.6477 H   0  0  0  0  0  0
   32.6199    2.0361   -3.6150 H   0  0  0  0  0  0
   29.4550    3.2622   -3.8719 H   0  0  0  0  0  0
   28.4172    1.3079   -7.5395 H   0  0  0  0  0  0
   34.9073    2.7260   -3.9990 H   0  0  0  0  0  0
   34.8902    4.4979   -3.9030 H   0  0  0  0  0  0
   36.1391    2.5057   -1.9451 H   0  0  0  0  0  0
   36.9845    3.6814   -2.8937 H   0  0  0  0  0  0
   27.7935    2.0398   -5.2279 H   0  0  0  0  0  0
  1  7  1  0  0  0
  1  9  1  0  0  0
  1 12  2  0  0  0
  1 13  2  0  0  0
  2  3  2  0  0  0
  2  4  1  0  0  0
  3 15  1  0  0  0
  3  6  1  0  0  0
  4 11  1  0  0  0
  4  8  2  0  0  0
  5 10  1  0  0  0
  5 22  1  0  0  0
  5 23  1  0  0  0
  5 24  1  0  0  0
  6  8  1  0  0  0
  7 25  1  0  0  0
  7 44  1  0  0  0
  8 45  1  0  0  0
  9 18  1  0  0  0
  9 19  2  0  0  0
 10 14  1  0  0  0
 10 35  2  0  0  0
 11 14  2  0  0  0
 11 36  1  0  0  0
 14 46  1  0  0  0
 15 20  2  0  0  0
 15 21  1  0  0  0
 16 26  1  0  0  0
 16 29  1  0  0  0
 16 39  2  0  0  0
 17 29  2  0  0  0
 17 40  1  0  0  0
 18 21  2  0  0  0
 18 47  1  0  0  0
 19 20  1  0  0  0
 19 48  1  0  0  0
 20 49  1  0  0  0
 21 50  1  0  0  0
 25 30  2  0  0  0
 25 31  1  0  0  0
 26 38  1  0  0  0
 26 34  1  0  0  0
 26 51  1  0  0  0
 27 41  1  0  0  0
 27 38  1  0  0  0
 27 52  1  0  0  0
 28 33  1  0  0  0
 28 42  1  0  0  0
 28 32  2  0  0  0
 29 53  1  0  0  0
 30 32  1  0  0  0
 30 54  1  0  0  0
 31 33  2  0  0  0
 31 55  1  0  0  0
 32 56  1  0  0  0
 33 57  1  0  0  0
 34 58  1  0  0  0
 35 37  1  0  0  0
 35 59  1  0  0  0
 36 37  2  0  0  0
 36 60  1  0  0  0
 37 61  1  0  0  0
 38 62  1  0  0  0
 38 63  1  0  0  0
 39 43  1  0  0  0
 39 64  1  0  0  0
 40 43  2  0  0  0
 40 65  1  0  0  0
 41 42  1  0  0  0
 41 66  1  0  0  0
 41 67  1  0  0  0
 42 68  1  0  0  0
 42 69  1  0  0  0
 43 70  1  0  0  0
M  END
> <s_m_entry_id>
3372

> <s_m_entry_name>
dock_pv.464

> <s_m_Source_Path>
/home/csk/Desktop/cluster/DUD-E-result/adrb1

> <s_m_Source_File>
dock_pv.maegz

> <i_m_Source_File_Index>
464

> <chembl_id>
CHEMBL338794

> <chembl_pref_name>
None

> <i_lp_mmshare_version>
53161

> <i_f3d_flags>
0

> <r_lp_tautomer_probability>
1

> <s_lp_Force_Field>
OPLS_2005

> <r_lp_Energy>
32.279742

> <b_lp_Chiralities_Consistent>
1

> <s_lp_Variant>
CHEMBL213_lig348-1

> <s_i_glide_gridfile>
glide-grid_2vt4

> <i_i_glide_lignum>
409

> <i_i_glide_rotatable_bonds>
13

> <r_i_docking_score>
-6.86953436169509

> <r_i_glide_ligand_efficiency>
-0.159756613062676

> <r_i_glide_ligand_efficiency_sa>
-0.55969100763603

> <r_i_glide_ligand_efficiency_ln>
-1.44281571762803

> <r_i_glide_gscore>
-6.86953436169509

> <r_i_glide_lipo>
-3.8179694854925

> <r_i_glide_hbond>
0

> <r_i_glide_metal>
0

> <r_i_glide_rewards>
0.284841523564316

> <r_i_glide_evdw>
-56.8621444702148

> <r_i_glide_ecoul>
-4.64328050613403

> <r_i_glide_erotb>
0.40620856090712

> <r_i_glide_esite>
-0.203015661243174

> <r_i_glide_emodel>
-76.1185294417188

> <r_i_glide_energy>
-61.5054249763489

> <r_i_glide_einternal>
8.89845371246338

> <i_i_glide_confnum>
2

> <i_i_glide_posenum>
92

> <r_i_glide_eff_state_penalty>
0

> <s_user_duplicate_titles>
CHEMBL213_lig348

> <s_m_subgroup_title>
dock_pv

> <s_m_subgroupid>
dock_pv

> <b_m_subgroup_collapsed>
1

$$$$
CHEMBL213_lig1434
                    3D
 Schrodinger Suite 2021-1.
 60 63  0  0  1  0            999 V2000
   32.1320    3.9098   -5.4902 C   0  0  0  0  0  0
   33.4382    3.4497   -5.6815 C   0  0  0  0  0  0
   34.4415    3.7030   -4.7527 C   0  0  0  0  0  0
   31.8259    4.7194   -4.3728 C   0  0  0  0  0  0
   32.8068    4.8424   -3.3636 C   0  0  0  0  0  0
   34.1221    4.3727   -3.5676 C   0  0  0  0  0  0
   35.0996    4.5992   -2.5674 N   0  0  0  0  0  0
   34.9201    5.2173   -1.3801 C   0  0  0  0  0  0
   33.5431    5.6020   -1.1316 C   0  0  0  0  0  0
   32.5532    5.4503   -2.0381 C   0  0  0  0  0  0
   35.8471    5.4362   -0.6105 O   0  0  0  0  0  0
   35.7105    3.2482   -5.0240 O   0  0  0  0  0  0
   30.5064    5.5204   -4.2743 C   0  0  2  0  0  0
   29.2382    4.7047   -3.9217 C   0  0  0  0  0  0
   28.4377    5.4343   -2.9297 N   0  0  2  0  0  0
   28.6531    4.8654   -1.6102 C   0  0  0  0  0  0
   30.2080    6.2500   -5.4415 O   0  0  0  0  0  0
   27.5789    3.8513   -1.2945 C   0  0  0  0  0  0
   28.6139    5.8499   -0.4478 C   0  0  0  0  0  0
   27.5356    5.3390    0.4925 C   0  0  0  0  0  0
   26.8284    4.3158   -0.1101 C   0  0  0  0  0  0
   25.7942    3.6693    0.5412 C   0  0  0  0  0  0
   25.5135    3.9983    1.8623 C   0  0  0  0  0  0
   26.2077    5.0462    2.5064 C   0  0  0  0  0  0
   27.2096    5.7095    1.7947 C   0  0  0  0  0  0
   25.9279    5.4140    3.9726 C   0  0  0  0  0  0
   26.2821    6.8526    4.3978 C   0  0  0  0  0  0
   24.5737    3.0839    2.6032 C   0  0  0  0  0  0
   23.1456    3.6032    2.6581 C   0  0  0  0  0  0
   31.0808    3.4622   -6.4987 C   0  0  0  0  0  0
   33.6833    2.8733   -6.5626 H   0  0  0  0  0  0
   36.0541    4.3131   -2.7111 H   0  0  0  0  0  0
   33.3217    6.0083   -0.1556 H   0  0  0  0  0  0
   31.5496    5.7051   -1.7427 H   0  0  0  0  0  0
   36.4134    3.8046   -4.6821 H   0  0  0  0  0  0
   30.6479    6.3227   -3.5519 H   0  0  0  0  0  0
   28.6261    4.5497   -4.8110 H   0  0  0  0  0  0
   29.4951    3.6964   -3.5890 H   0  0  0  0  0  0
   27.4584    5.3208   -3.1660 H   0  0  0  0  0  0
   29.6279    4.3714   -1.5736 H   0  0  0  0  0  0
   30.8765    6.9310   -5.6139 H   0  0  0  0  0  0
   27.0082    3.4500   -2.1329 H   0  0  0  0  0  0
   28.1195    3.0498   -0.8150 H   0  0  0  0  0  0
   29.5992    5.8498    0.0148 H   0  0  0  0  0  0
   28.3773    6.8501   -0.8151 H   0  0  0  0  0  0
   25.3066    2.8254    0.0735 H   0  0  0  0  0  0
   27.8082    6.4258    2.3092 H   0  0  0  0  0  0
   24.8651    5.2869    4.1755 H   0  0  0  0  0  0
   26.4583    4.7052    4.6083 H   0  0  0  0  0  0
   25.9378    7.0480    5.4140 H   0  0  0  0  0  0
   27.3571    7.0306    4.3915 H   0  0  0  0  0  0
   25.8074    7.5852    3.7443 H   0  0  0  0  0  0
   24.5893    2.0778    2.1794 H   0  0  0  0  0  0
   25.0079    2.9665    3.5850 H   0  0  0  0  0  0
   22.6078    3.0497    3.4135 H   0  0  0  0  0  0
   23.0946    4.6497    2.9358 H   0  0  0  0  0  0
   22.6431    3.4776    1.6993 H   0  0  0  0  0  0
   30.4353    4.2722   -6.8114 H   0  0  0  0  0  0
   31.5288    3.0605   -7.4091 H   0  0  0  0  0  0
   30.4437    2.6966   -6.0549 H   0  0  0  0  0  0
  1  2  2  0  0  0
  1  4  1  0  0  0
  1 30  1  0  0  0
  2  3  1  0  0  0
  2 31  1  0  0  0
  3 12  1  0  0  0
  3  6  2  0  0  0
  4  5  2  0  0  0
  4 13  1  0  0  0
  5 10  1  0  0  0
  5  6  1  0  0  0
  6  7  1  0  0  0
  7  8  1  0  0  0
  7 32  1  0  0  0
  8  9  1  0  0  0
  8 11  2  0  0  0
  9 10  2  0  0  0
  9 33  1  0  0  0
 10 34  1  0  0  0
 12 35  1  0  0  0
 13 14  1  0  0  0
 13 17  1  0  0  0
 13 36  1  0  0  0
 14 15  1  0  0  0
 14 37  1  0  0  0
 14 38  1  0  0  0
 15 16  1  0  0  0
 15 39  1  0  0  0
 16 18  1  0  0  0
 16 19  1  0  0  0
 16 40  1  0  0  0
 17 41  1  0  0  0
 18 21  1  0  0  0
 18 42  1  0  0  0
 18 43  1  0  0  0
 19 20  1  0  0  0
 19 44  1  0  0  0
 19 45  1  0  0  0
 20 21  2  0  0  0
 20 25  1  0  0  0
 21 22  1  0  0  0
 22 23  2  0  0  0
 22 46  1  0  0  0
 23 24  1  0  0  0
 23 28  1  0  0  0
 24 25  2  0  0  0
 24 26  1  0  0  0
 25 47  1  0  0  0
 26 27  1  0  0  0
 26 48  1  0  0  0
 26 49  1  0  0  0
 27 50  1  0  0  0
 27 51  1  0  0  0
 27 52  1  0  0  0
 28 29  1  0  0  0
 28 53  1  0  0  0
 28 54  1  0  0  0
 29 55  1  0  0  0
 29 56  1  0  0  0
 29 57  1  0  0  0
 30 58  1  0  0  0
 30 59  1  0  0  0
 30 60  1  0  0  0
M  END
> <s_m_entry_id>
3373

> <s_m_entry_name>
dock_pv.465

> <s_m_Source_Path>
/home/csk/Desktop/cluster/DUD-E-result/adrb1

> <s_m_Source_File>
dock_pv.maegz

> <i_m_Source_File_Index>
465

> <chembl_id>
CHEMBL2088195

> <chembl_pref_name>
None

> <i_lp_mmshare_version>
53161

> <i_f3d_flags>
0

> <r_lp_tautomer_probability>
1

> <s_lp_Force_Field>
OPLS_2005

> <r_lp_Energy>
49.068105

> <b_lp_Chiralities_Consistent>
1

> <s_lp_Variant>
CHEMBL213_lig1434-1

> <s_i_glide_gridfile>
glide-grid_2vt4

> <i_i_glide_lignum>
1765

> <i_i_glide_rotatable_bonds>
8

> <r_i_docking_score>
-6.86908133262341

> <r_i_glide_ligand_efficiency>
-0.228969377754114

> <r_i_glide_ligand_efficiency_sa>
-0.711461092619004

> <r_i_glide_ligand_efficiency_ln>
-1.56073012340774

> <r_i_glide_gscore>
-6.86908133262341

> <r_i_glide_lipo>
-3.24086397731061

> <r_i_glide_hbond>
-0.32

> <r_i_glide_metal>
0

> <r_i_glide_rewards>
-1.32160489024805

> <r_i_glide_evdw>
-32.0268592834473

> <r_i_glide_ecoul>
-5.74140071868896

> <r_i_glide_erotb>
0.475940606910962

> <r_i_glide_esite>
0

> <r_i_glide_emodel>
-58.2006247027536

> <r_i_glide_energy>
-37.7682600021362

> <r_i_glide_einternal>
13.9337673187256

> <i_i_glide_confnum>
1

> <i_i_glide_posenum>
93

> <r_i_glide_eff_state_penalty>
0

> <s_user_duplicate_titles>
CHEMBL213_lig1434

> <s_m_subgroup_title>
dock_pv

> <s_m_subgroupid>
dock_pv

> <b_m_subgroup_collapsed>
1

$$$$
CHEMBL213_lig1123
                    3D
 Schrodinger Suite 2021-1.
 81 83  0  0  1  0            999 V2000
   26.6627    4.4816    0.2538 C   0  0  0  0  0  0
   25.6014    4.2500    1.1394 C   0  0  0  0  0  0
   25.7343    4.6196    2.4857 C   0  0  0  0  0  0
   26.9075    5.2113    2.9645 C   0  0  0  0  0  0
   27.9531    5.4253    2.0588 C   0  0  0  0  0  0
   27.8334    5.0589    0.7217 C   0  0  0  0  0  0
   26.6080    4.1613   -1.0752 O   0  0  0  0  0  0
   24.2950    3.6425    0.6629 C   0  0  0  0  0  0
   24.4763    2.4219   -0.0148 O   0  0  0  0  0  0
   27.0133    5.5261    4.4640 C   0  0  2  0  0  0
   27.9482    6.6798    4.9136 C   0  0  0  0  0  0
   27.4087    4.3838    5.1849 O   0  0  0  0  0  0
   29.3491    6.3270    4.7188 N   0  0  2  0  0  0
   30.3099    7.3080    5.1670 C   0  0  0  0  0  0
   31.6210    7.2495    4.3510 C   0  0  0  0  0  0
   31.6702    6.4568    3.0422 C   0  0  0  0  0  0
   33.0783    6.4034    2.4353 C   0  0  0  0  0  0
   33.0312    5.7763    1.0394 C   0  0  0  0  0  0
   34.3470    5.8457    0.2592 C   0  0  0  0  0  0
   35.3342    5.0478    0.9020 O   0  0  0  0  0  0
   36.6198    5.0464    0.2858 C   0  0  0  0  0  0
   36.6258    4.4909   -1.1532 C   0  0  0  0  0  0
   36.0191    3.0778   -1.2808 C   0  0  0  0  0  0
   35.9982    2.5601   -2.7311 C   0  0  0  0  0  0
   33.2952    4.6499   -5.3761 C   0  0  0  0  0  0
   32.7852    3.9503   -4.2794 C   0  0  0  0  0  0
   33.6561    3.2696   -3.4213 C   0  0  0  0  0  0
   35.0355    3.2917   -3.6578 C   0  0  0  0  0  0
   35.5324    3.9810   -4.7680 C   0  0  0  0  0  0
   34.6641    4.6499   -5.6258 C   0  0  0  0  0  0
   31.0195    3.9376   -3.9830 S   0  0  0  0  0  0
   30.3733    2.5344   -5.0994 C   0  0  0  0  0  0
   28.8457    2.4531   -5.0918 C   0  0  0  0  0  0
   28.5095    2.1196   -6.5279 C   0  0  0  0  0  0
   29.5796    2.2407   -7.3311 C   0  0  0  0  0  0
   30.8001    2.6976   -6.5617 C   0  0  0  0  0  0
   30.8275    3.5536   -2.5791 O   0  0  0  0  0  0
   30.4950    5.2146   -4.4793 O   0  0  0  0  0  0
   24.9188    4.4331    3.1698 H   0  0  0  0  0  0
   28.8912    5.8496    2.3566 H   0  0  0  0  0  0
   28.6558    5.2274    0.0410 H   0  0  0  0  0  0
   25.7506    3.8589   -1.3956 H   0  0  0  0  0  0
   23.6028    3.4804    1.4913 H   0  0  0  0  0  0
   23.8101    4.3508   -0.0099 H   0  0  0  0  0  0
   23.8533    2.4413   -0.7568 H   0  0  0  0  0  0
   26.0138    5.7964    4.8094 H   0  0  0  0  0  0
   27.6988    7.5981    4.3851 H   0  0  0  0  0  0
   27.7794    6.8752    5.9755 H   0  0  0  0  0  0
   28.3733    4.4253    5.2491 H   0  0  0  0  0  0
   29.5665    6.0297    3.7782 H   0  0  0  0  0  0
   29.8957    8.3179    5.1431 H   0  0  0  0  0  0
   30.5270    7.0587    6.2069 H   0  0  0  0  0  0
   31.8077    8.2498    3.9896 H   0  0  0  0  0  0
   32.4479    6.9651    5.0030 H   0  0  0  0  0  0
   31.3046    5.4482    3.1847 H   0  0  0  0  0  0
   31.0044    6.9393    2.3321 H   0  0  0  0  0  0
   33.4993    7.4080    2.3855 H   0  0  0  0  0  0
   33.7442    5.8284    3.0803 H   0  0  0  0  0  0
   32.7203    4.7446    1.1689 H   0  0  0  0  0  0
   32.2518    6.2485    0.4422 H   0  0  0  0  0  0
   34.1574    5.4812   -0.7519 H   0  0  0  0  0  0
   34.6809    6.8815    0.1722 H   0  0  0  0  0  0
   37.0378    6.0533    0.3029 H   0  0  0  0  0  0
   37.2759    4.4360    0.9081 H   0  0  0  0  0  0
   36.1100    5.1852   -1.8178 H   0  0  0  0  0  0
   37.6563    4.4683   -1.5099 H   0  0  0  0  0  0
   36.6081    2.3892   -0.6739 H   0  0  0  0  0  0
   35.0115    3.0521   -0.8634 H   0  0  0  0  0  0
   37.0077    2.6481   -3.1293 H   0  0  0  0  0  0
   35.7510    1.4981   -2.7500 H   0  0  0  0  0  0
   32.6398    5.2012   -6.0349 H   0  0  0  0  0  0
   33.2660    2.7321   -2.5705 H   0  0  0  0  0  0
   36.5957    4.0162   -4.9661 H   0  0  0  0  0  0
   35.0581    5.1937   -6.4729 H   0  0  0  0  0  0
   30.8050    1.6294   -4.6680 H   0  0  0  0  0  0
   28.4931    1.6778   -4.4151 H   0  0  0  0  0  0
   28.3760    3.3895   -4.7863 H   0  0  0  0  0  0
   27.5082    1.8496   -6.8259 H   0  0  0  0  0  0
   29.5969    2.0836   -8.4011 H   0  0  0  0  0  0
   31.0174    3.7352   -6.8150 H   0  0  0  0  0  0
   31.6887    2.1069   -6.7883 H   0  0  0  0  0  0
  1  2  1  0  0  0
  1  6  2  0  0  0
  1  7  1  0  0  0
  2  3  2  0  0  0
  2  8  1  0  0  0
  3  4  1  0  0  0
  3 39  1  0  0  0
  4  5  2  0  0  0
  4 10  1  0  0  0
  5  6  1  0  0  0
  5 40  1  0  0  0
  6 41  1  0  0  0
  7 42  1  0  0  0
  8  9  1  0  0  0
  8 43  1  0  0  0
  8 44  1  0  0  0
  9 45  1  0  0  0
 10 11  1  0  0  0
 10 12  1  0  0  0
 10 46  1  0  0  0
 11 13  1  0  0  0
 11 47  1  0  0  0
 11 48  1  0  0  0
 12 49  1  0  0  0
 13 14  1  0  0  0
 13 50  1  0  0  0
 14 15  1  0  0  0
 14 51  1  0  0  0
 14 52  1  0  0  0
 15 16  1  0  0  0
 15 53  1  0  0  0
 15 54  1  0  0  0
 16 17  1  0  0  0
 16 55  1  0  0  0
 16 56  1  0  0  0
 17 18  1  0  0  0
 17 57  1  0  0  0
 17 58  1  0  0  0
 18 19  1  0  0  0
 18 59  1  0  0  0
 18 60  1  0  0  0
 19 20  1  0  0  0
 19 61  1  0  0  0
 19 62  1  0  0  0
 20 21  1  0  0  0
 21 22  1  0  0  0
 21 63  1  0  0  0
 21 64  1  0  0  0
 22 23  1  0  0  0
 22 65  1  0  0  0
 22 66  1  0  0  0
 23 24  1  0  0  0
 23 67  1  0  0  0
 23 68  1  0  0  0
 24 28  1  0  0  0
 24 69  1  0  0  0
 24 70  1  0  0  0
 25 26  1  0  0  0
 25 30  2  0  0  0
 25 71  1  0  0  0
 26 27  2  0  0  0
 26 31  1  0  0  0
 27 28  1  0  0  0
 27 72  1  0  0  0
 28 29  2  0  0  0
 29 30  1  0  0  0
 29 73  1  0  0  0
 30 74  1  0  0  0
 31 32  1  0  0  0
 31 37  2  0  0  0
 31 38  2  0  0  0
 32 33  1  0  0  0
 32 36  1  0  0  0
 32 75  1  0  0  0
 33 34  1  0  0  0
 33 76  1  0  0  0
 33 77  1  0  0  0
 34 35  2  0  0  0
 34 78  1  0  0  0
 35 36  1  0  0  0
 35 79  1  0  0  0
 36 80  1  0  0  0
 36 81  1  0  0  0
M  END
> <s_m_entry_id>
3374

> <s_m_entry_name>
dock_pv.466

> <s_m_Source_Path>
/home/csk/Desktop/cluster/DUD-E-result/adrb1

> <s_m_Source_File>
dock_pv.maegz

> <i_m_Source_File_Index>
466

> <chembl_id>
CHEMBL3124955

> <chembl_pref_name>
None

> <i_lp_mmshare_version>
53161

> <i_f3d_flags>
0

> <r_lp_tautomer_probability>
0.999999999997365

> <s_lp_Force_Field>
OPLS_2005

> <r_lp_Energy>
36.289611

> <b_lp_Chiralities_Consistent>
1

> <s_lp_Variant>
CHEMBL213_lig1123-1

> <s_i_glide_gridfile>
glide-grid_2vt4

> <i_i_glide_lignum>
1318

> <i_i_glide_rotatable_bonds>
21

> <r_i_docking_score>
-6.86786267401914

> <r_i_glide_ligand_efficiency>
-0.180733228263662

> <r_i_glide_ligand_efficiency_sa>
-0.607620667877056

> <r_i_glide_ligand_efficiency_ln>
-1.48091322456947

> <r_i_glide_gscore>
-6.86786267401914

> <r_i_glide_lipo>
-3.51783636657305

> <r_i_glide_hbond>
-0.232388280534599

> <r_i_glide_metal>
0

> <r_i_glide_rewards>
-0.912577754741201

> <r_i_glide_evdw>
-46.6356925964355

> <r_i_glide_ecoul>
-7.49805688858032

> <r_i_glide_erotb>
1.25143289093854

> <r_i_glide_esite>
0

> <r_i_glide_emodel>
-71.1419647380581

> <r_i_glide_energy>
-54.1337494850159

> <r_i_glide_einternal>
11.670708656311

> <i_i_glide_confnum>
42

> <i_i_glide_posenum>
329

> <r_i_glide_eff_state_penalty>
0

> <s_user_duplicate_titles>
CHEMBL213_lig1123

> <s_m_subgroup_title>
dock_pv

> <s_m_subgroupid>
dock_pv

> <b_m_subgroup_collapsed>
1

$$$$
CHEMBL213_lig892
                    3D
 Schrodinger Suite 2021-1.
 52 55  0  0  1  0            999 V2000
   25.8461    5.8430    4.7007 C   0  0  0  0  0  0
   27.1856    6.2111    4.8068 C   0  0  0  0  0  0
   28.0856    5.8520    3.8023 C   0  0  0  0  0  0
   27.6394    5.1486    2.6827 C   0  0  0  0  0  0
   26.2922    4.7822    2.5524 C   0  0  0  0  0  0
   25.4078    5.1230    3.5855 C   0  0  0  0  0  0
   24.7430    6.2505    5.9668 Cl  0  0  0  0  0  0
   25.8365    3.9874    1.3110 C   0  0  2  0  0  0
   25.6937    4.7890   -0.0150 C   0  0  0  0  0  0
   24.6253    3.2738    1.5029 O   0  0  0  0  0  0
   26.8192    5.6826   -0.2686 N   0  0  1  0  0  0
   27.5801    5.3916   -1.4769 C   0  0  1  0  0  0
   27.5152    6.5698   -2.4557 C   0  0  0  0  0  0
   28.2201    6.2234   -3.7733 C   0  0  0  0  0  0
   29.0479    5.0872   -1.1174 C   0  0  0  0  0  0
   30.0015    5.1098   -2.3142 C   0  0  0  0  0  0
   29.6369    5.7059   -3.5431 C   0  0  0  0  0  0
   30.5947    5.8016   -4.5588 C   0  0  0  0  0  0
   31.8887    5.3204   -4.3789 C   0  0  0  0  0  0
   32.2530    4.7366   -3.1703 C   0  0  0  0  0  0
   31.3019    4.6218   -2.1573 C   0  0  0  0  0  0
   33.5318    4.2589   -2.9990 O   0  0  0  0  0  0
   34.4472    5.0194   -2.3137 C   0  0  0  0  0  0
   35.6783    5.4370   -2.7873 C   0  0  0  0  0  0
   36.4106    6.1328   -1.8140 C   0  0  0  0  0  0
   35.7410    6.2645   -0.5924 C   0  0  0  0  0  0
   34.1824    5.4693   -0.6532 S   0  0  0  0  0  0
   36.2355    6.9267    0.5955 C   0  0  0  0  0  0
   35.3280    6.9840    1.6157 O   0  0  0  0  0  0
   37.3650    7.4075    0.6698 O   0  0  0  0  0  0
   27.5253    6.7689    5.6681 H   0  0  0  0  0  0
   29.1267    6.1230    3.8817 H   0  0  0  0  0  0
   28.3469    4.8929    1.9099 H   0  0  0  0  0  0
   24.3709    4.8281    3.5218 H   0  0  0  0  0  0
   26.6078    3.2309    1.1629 H   0  0  0  0  0  0
   24.8111    5.4297   -0.0152 H   0  0  0  0  0  0
   25.5286    4.0889   -0.8351 H   0  0  0  0  0  0
   24.2598    3.0506    0.6401 H   0  0  0  0  0  0
   26.4588    6.6244   -0.3483 H   0  0  0  0  0  0
   27.1767    4.5241   -2.0041 H   0  0  0  0  0  0
   27.9661    7.4492   -1.9999 H   0  0  0  0  0  0
   26.4764    6.8304   -2.6672 H   0  0  0  0  0  0
   28.2369    7.1045   -4.4151 H   0  0  0  0  0  0
   27.6460    5.4608   -4.3009 H   0  0  0  0  0  0
   29.1136    4.1342   -0.5934 H   0  0  0  0  0  0
   29.4085    5.8492   -0.4266 H   0  0  0  0  0  0
   30.3316    6.2530   -5.5057 H   0  0  0  0  0  0
   32.6120    5.4053   -5.1790 H   0  0  0  0  0  0
   31.5911    4.1834   -1.2143 H   0  0  0  0  0  0
   36.0376    5.2473   -3.7881 H   0  0  0  0  0  0
   37.3971    6.5357   -2.0003 H   0  0  0  0  0  0
   34.4715    6.6412    1.3503 H   0  0  0  0  0  0
  1  6  1  0  0  0
  1  2  2  0  0  0
  1  7  1  0  0  0
  2  3  1  0  0  0
  2 31  1  0  0  0
  3  4  2  0  0  0
  3 32  1  0  0  0
  4  5  1  0  0  0
  4 33  1  0  0  0
  5  8  1  0  0  0
  5  6  2  0  0  0
  6 34  1  0  0  0
  8  9  1  0  0  0
  8 10  1  0  0  0
  8 35  1  0  0  0
  9 11  1  0  0  0
  9 36  1  0  0  0
  9 37  1  0  0  0
 10 38  1  0  0  0
 11 12  1  0  0  0
 11 39  1  0  0  0
 12 13  1  0  0  0
 12 15  1  0  0  0
 12 40  1  0  0  0
 13 14  1  0  0  0
 13 41  1  0  0  0
 13 42  1  0  0  0
 14 17  1  0  0  0
 14 43  1  0  0  0
 14 44  1  0  0  0
 15 16  1  0  0  0
 15 45  1  0  0  0
 15 46  1  0  0  0
 16 17  2  0  0  0
 16 21  1  0  0  0
 17 18  1  0  0  0
 18 19  2  0  0  0
 18 47  1  0  0  0
 19 20  1  0  0  0
 19 48  1  0  0  0
 20 21  2  0  0  0
 20 22  1  0  0  0
 21 49  1  0  0  0
 22 23  1  0  0  0
 23 24  2  0  0  0
 23 27  1  0  0  0
 24 25  1  0  0  0
 24 50  1  0  0  0
 25 26  2  0  0  0
 25 51  1  0  0  0
 26 27  1  0  0  0
 26 28  1  0  0  0
 28 29  1  0  0  0
 28 30  2  0  0  0
 29 52  1  0  0  0
M  END
> <s_m_entry_id>
3375

> <s_m_entry_name>
dock_pv.467

> <s_m_Source_Path>
/home/csk/Desktop/cluster/DUD-E-result/adrb1

> <s_m_Source_File>
dock_pv.maegz

> <i_m_Source_File_Index>
467

> <chembl_id>
CHEMBL497280

> <chembl_pref_name>
None

> <i_lp_mmshare_version>
53161

> <i_f3d_flags>
0

> <r_lp_tautomer_probability>
1

> <s_lp_Force_Field>
OPLS_2005

> <r_lp_Energy>
33.04289

> <b_lp_Chiralities_Consistent>
1

> <s_lp_Variant>
CHEMBL213_lig892-1

> <s_i_glide_gridfile>
glide-grid_2vt4

> <i_i_glide_lignum>
1000

> <i_i_glide_rotatable_bonds>
9

> <r_i_docking_score>
-6.86301563846599

> <r_i_glide_ligand_efficiency>
-0.228767187948866

> <r_i_glide_ligand_efficiency_sa>
-0.710832841884479

> <r_i_glide_ligand_efficiency_ln>
-1.55935193160414

> <r_i_glide_gscore>
-6.86301563846599

> <r_i_glide_lipo>
-3.38502422798895

> <r_i_glide_hbond>
0

> <r_i_glide_metal>
0

> <r_i_glide_rewards>
-0.949862028056888

> <r_i_glide_evdw>
-50.5351142883301

> <r_i_glide_ecoul>
-4.06745719909668

> <r_i_glide_erotb>
0.608744911860859

> <r_i_glide_esite>
0

> <r_i_glide_emodel>
-72.2057833989874

> <r_i_glide_energy>
-54.6025714874268

> <r_i_glide_einternal>
12.5770387649536

> <i_i_glide_confnum>
14

> <i_i_glide_posenum>
178

> <r_i_glide_eff_state_penalty>
0

> <s_user_duplicate_titles>
CHEMBL213_lig892,511596

> <s_m_subgroup_title>
dock_pv

> <s_m_subgroupid>
dock_pv

> <b_m_subgroup_collapsed>
1

$$$$
CHEMBL213_lig1371
                    3D
 Schrodinger Suite 2021-1.
 52 55  0  0  1  0            999 V2000
   33.7263    4.5814   -4.7598 C   0  0  0  0  0  0
   34.1081    4.6679   -6.0972 C   0  0  0  0  0  0
   33.4136    3.9606   -7.0713 C   0  0  0  0  0  0
   32.6600    3.7568   -4.3612 C   0  0  0  0  0  0
   31.9582    3.0549   -5.3586 C   0  0  0  0  0  0
   32.3236    3.1659   -6.7026 C   0  0  0  0  0  0
   31.5061    2.4339   -7.5463 N   0  0  0  0  0  0
   30.4650    1.7261   -6.9851 C   0  0  0  0  0  0
   30.5984    1.9475   -5.1804 S   0  0  0  0  0  0
   32.3169    3.6275   -2.8652 C   0  0  2  0  0  0
   31.1719    4.5595   -2.4014 C   0  0  0  0  0  0
   29.8726    4.0991   -2.8951 N   0  0  2  0  0  0
   28.7629    5.0453   -2.8218 C   0  0  1  0  0  0
   33.4211    3.8904   -2.0156 O   0  0  0  0  0  0
   33.8085    4.0525   -8.3830 O   0  0  0  0  0  0
   29.6137    1.0500   -7.5571 O   0  0  0  0  0  0
   28.4639    5.7078   -1.4715 C   0  0  1  0  0  0
   27.5727    6.9065   -1.8401 C   0  0  0  0  0  0
   27.8359    7.2326   -3.3211 C   0  0  0  0  0  0
   28.8604    6.2061   -3.8110 C   0  0  0  0  0  0
   27.7655    4.7861   -0.6436 O   0  0  0  0  0  0
   27.5507    5.2215    0.6970 C   0  0  0  0  0  0
   26.2914    4.5989    1.2775 C   0  0  0  0  0  0
   25.3477    3.9637    0.4610 C   0  0  0  0  0  0
   24.1667    3.4799    1.0145 C   0  0  0  0  0  0
   23.9310    3.6260    2.3774 C   0  0  0  0  0  0
   24.8678    4.2496    3.1963 C   0  0  0  0  0  0
   26.0536    4.7289    2.6476 C   0  0  0  0  0  0
   34.2869    5.1498   -4.0302 H   0  0  0  0  0  0
   34.9421    5.3009   -6.3681 H   0  0  0  0  0  0
   31.6401    2.4361   -8.5468 H   0  0  0  0  0  0
   32.0376    2.5928   -2.6574 H   0  0  0  0  0  0
   31.1218    4.5675   -1.3126 H   0  0  0  0  0  0
   31.3849    5.5771   -2.7272 H   0  0  0  0  0  0
   29.5801    3.2274   -2.4584 H   0  0  0  0  0  0
   27.8835    4.4676   -3.1181 H   0  0  0  0  0  0
   34.1210    3.2617   -2.2087 H   0  0  0  0  0  0
   34.5415    4.6614   -8.4963 H   0  0  0  0  0  0
   29.3720    6.0347   -0.9597 H   0  0  0  0  0  0
   26.5158    6.6744   -1.6858 H   0  0  0  0  0  0
   27.8112    7.7654   -1.2154 H   0  0  0  0  0  0
   26.9098    7.1541   -3.8926 H   0  0  0  0  0  0
   28.2079    8.2499   -3.4550 H   0  0  0  0  0  0
   29.8554    6.6533   -3.8274 H   0  0  0  0  0  0
   28.6317    5.8703   -4.8157 H   0  0  0  0  0  0
   28.4261    4.9795    1.3014 H   0  0  0  0  0  0
   27.4076    6.3014    0.7522 H   0  0  0  0  0  0
   25.5019    3.8706   -0.6063 H   0  0  0  0  0  0
   23.4139    3.0303    0.3796 H   0  0  0  0  0  0
   23.0074    3.2627    2.7985 H   0  0  0  0  0  0
   24.6699    4.3754    4.2488 H   0  0  0  0  0  0
   26.7737    5.2264    3.2830 H   0  0  0  0  0  0
  1  2  2  0  0  0
  1  4  1  0  0  0
  1 29  1  0  0  0
  2  3  1  0  0  0
  2 30  1  0  0  0
  3  6  2  0  0  0
  3 15  1  0  0  0
  4  5  2  0  0  0
  4 10  1  0  0  0
  5  9  1  0  0  0
  5  6  1  0  0  0
  6  7  1  0  0  0
  7  8  1  0  0  0
  7 31  1  0  0  0
  8 16  2  0  0  0
  8  9  1  0  0  0
 10 14  1  0  0  0
 10 11  1  0  0  0
 10 32  1  0  0  0
 11 12  1  0  0  0
 11 33  1  0  0  0
 11 34  1  0  0  0
 12 13  1  0  0  0
 12 35  1  0  0  0
 13 17  1  0  0  0
 13 20  1  0  0  0
 13 36  1  0  0  0
 14 37  1  0  0  0
 15 38  1  0  0  0
 17 18  1  0  0  0
 17 21  1  0  0  0
 17 39  1  0  0  0
 18 19  1  0  0  0
 18 40  1  0  0  0
 18 41  1  0  0  0
 19 20  1  0  0  0
 19 42  1  0  0  0
 19 43  1  0  0  0
 20 44  1  0  0  0
 20 45  1  0  0  0
 21 22  1  0  0  0
 22 23  1  0  0  0
 22 46  1  0  0  0
 22 47  1  0  0  0
 23 24  2  0  0  0
 23 28  1  0  0  0
 24 25  1  0  0  0
 24 48  1  0  0  0
 25 26  2  0  0  0
 25 49  1  0  0  0
 26 27  1  0  0  0
 26 50  1  0  0  0
 27 28  2  0  0  0
 27 51  1  0  0  0
 28 52  1  0  0  0
M  END
> <s_m_entry_id>
3376

> <s_m_entry_name>
dock_pv.468

> <s_m_Source_Path>
/home/csk/Desktop/cluster/DUD-E-result/adrb1

> <s_m_Source_File>
dock_pv.maegz

> <i_m_Source_File_Index>
468

> <chembl_id>
CHEMBL1221680

> <chembl_pref_name>
None

> <i_lp_mmshare_version>
53161

> <i_f3d_flags>
0

> <r_lp_tautomer_probability>
1

> <s_lp_Force_Field>
OPLS_2005

> <r_lp_Energy>
49.569512

> <b_lp_Chiralities_Consistent>
1

> <s_lp_Variant>
CHEMBL213_lig1371-1

> <s_i_glide_gridfile>
glide-grid_2vt4

> <i_i_glide_lignum>
1657

> <i_i_glide_rotatable_bonds>
9

> <r_i_docking_score>
-6.86188387137579

> <r_i_glide_ligand_efficiency>
-0.245067281120564

> <r_i_glide_ligand_efficiency_sa>
-0.744168602391683

> <r_i_glide_ligand_efficiency_ln>
-1.58392427117857

> <r_i_glide_gscore>
-6.86188387137579

> <r_i_glide_lipo>
-2.92977032416425

> <r_i_glide_hbond>
-0.504058150393604

> <r_i_glide_metal>
0

> <r_i_glide_rewards>
-1.38920559860108

> <r_i_glide_evdw>
-43.9085731506348

> <r_i_glide_ecoul>
-4.66016530990601

> <r_i_glide_erotb>
0.855603655800785

> <r_i_glide_esite>
0

> <r_i_glide_emodel>
-64.7037593486845

> <r_i_glide_energy>
-48.5687384605408

> <r_i_glide_einternal>
12.0453195571899

> <i_i_glide_confnum>
42

> <i_i_glide_posenum>
271

> <r_i_glide_eff_state_penalty>
0

> <s_user_duplicate_titles>
CHEMBL213_lig1371,688109

> <s_m_subgroup_title>
dock_pv

> <s_m_subgroupid>
dock_pv

> <b_m_subgroup_collapsed>
1

$$$$
CHEMBL213_lig1393
                    3D
 Schrodinger Suite 2021-1.
 52 55  0  0  1  0            999 V2000
   28.8494    5.1212   -3.2574 N   0  0  1  0  0  0
   28.4546    4.7105   -1.9134 C   0  0  0  0  0  0
   28.4339    5.8229   -0.8660 C   0  0  0  0  0  0
   27.9923    5.3315    0.5308 C   0  0  0  0  0  0
   26.7868    4.4788    0.5664 N   0  0  0  0  0  0
   26.7201    3.5142   -0.5556 C   0  0  0  0  0  0
   27.0350    4.1746   -1.8869 C   0  0  0  0  0  0
   25.9371    4.3607    1.6695 C   0  0  0  0  0  0
   24.8135    3.6201    1.4528 N   0  0  0  0  0  0
   23.8655    3.6049    2.4020 C   0  0  0  0  0  0
   23.8968    4.2500    3.5849 N   0  0  0  0  0  0
   26.1197    5.0389    2.9146 C   0  0  0  0  0  0
   25.0142    4.9453    3.8165 C   0  0  0  0  0  0
   25.2467    5.8896    5.2807 S   0  0  0  0  0  0
   26.8428    6.3268    4.7432 C   0  0  0  0  0  0
   27.1774    5.8096    3.5069 C   0  0  0  0  0  0
   30.1965    5.6472   -3.4834 C   0  0  0  0  0  0
   31.3596    4.9540   -2.7276 C   0  0  1  0  0  0
   31.6271    3.4796   -3.1103 C   0  0  0  0  0  0
   32.5353    5.7121   -2.9463 O   0  0  0  0  0  0
   31.8922    3.3466   -4.5110 O   0  0  0  0  0  0
   30.9474    2.8328   -5.3811 C   0  0  0  0  0  0
   31.3375    2.7373   -6.7170 C   0  0  0  0  0  0
   30.4583    2.2497   -7.6805 C   0  0  0  0  0  0
   29.1776    1.8500   -7.3068 C   0  0  0  0  0  0
   28.7747    1.9318   -5.9802 C   0  0  0  0  0  0
   29.6530    2.4253   -5.0225 C   0  0  0  0  0  0
   28.2957    1.3806   -8.2398 O   0  0  0  0  0  0
   28.5231    4.4883   -3.9761 H   0  0  0  0  0  0
   29.1176    3.9040   -1.5979 H   0  0  0  0  0  0
   29.4177    6.2499   -0.7839 H   0  0  0  0  0  0
   27.7954    6.6528   -1.1761 H   0  0  0  0  0  0
   28.8154    4.8687    1.0743 H   0  0  0  0  0  0
   27.7261    6.2499    1.0473 H   0  0  0  0  0  0
   27.4108    2.6957   -0.3640 H   0  0  0  0  0  0
   25.7364    3.0588   -0.6712 H   0  0  0  0  0  0
   26.3372    5.0021   -2.0182 H   0  0  0  0  0  0
   26.8925    3.4529   -2.6927 H   0  0  0  0  0  0
   22.9812    3.0307    2.1859 H   0  0  0  0  0  0
   27.4504    6.9544    5.3820 H   0  0  0  0  0  0
   28.1438    5.9826    3.0607 H   0  0  0  0  0  0
   30.1661    6.6984   -3.2151 H   0  0  0  0  0  0
   30.3834    5.6325   -4.5582 H   0  0  0  0  0  0
   31.1794    5.0064   -1.6545 H   0  0  0  0  0  0
   30.8468    2.8226   -2.7336 H   0  0  0  0  0  0
   32.5255    3.1406   -2.5926 H   0  0  0  0  0  0
   32.8924    5.4489   -3.8011 H   0  0  0  0  0  0
   32.3273    3.0576   -7.0077 H   0  0  0  0  0  0
   30.7729    2.2125   -8.7127 H   0  0  0  0  0  0
   27.7790    1.6282   -5.6910 H   0  0  0  0  0  0
   29.2858    2.4886   -4.0157 H   0  0  0  0  0  0
   28.6084    1.4515   -9.1477 H   0  0  0  0  0  0
  1 17  1  0  0  0
  1  2  1  0  0  0
  1 29  1  0  0  0
  2  3  1  0  0  0
  2  7  1  0  0  0
  2 30  1  0  0  0
  3  4  1  0  0  0
  3 31  1  0  0  0
  3 32  1  0  0  0
  4  5  1  0  0  0
  4 33  1  0  0  0
  4 34  1  0  0  0
  5  6  1  0  0  0
  5  8  1  0  0  0
  6  7  1  0  0  0
  6 35  1  0  0  0
  6 36  1  0  0  0
  7 37  1  0  0  0
  7 38  1  0  0  0
  8 12  1  0  0  0
  8  9  2  0  0  0
  9 10  1  0  0  0
 10 11  2  0  0  0
 10 39  1  0  0  0
 11 13  1  0  0  0
 12 13  2  0  0  0
 12 16  1  0  0  0
 13 14  1  0  0  0
 14 15  1  0  0  0
 15 16  2  0  0  0
 15 40  1  0  0  0
 16 41  1  0  0  0
 17 18  1  0  0  0
 17 42  1  0  0  0
 17 43  1  0  0  0
 18 19  1  0  0  0
 18 20  1  0  0  0
 18 44  1  0  0  0
 19 21  1  0  0  0
 19 45  1  0  0  0
 19 46  1  0  0  0
 20 47  1  0  0  0
 21 22  1  0  0  0
 22 23  2  0  0  0
 22 27  1  0  0  0
 23 24  1  0  0  0
 23 48  1  0  0  0
 24 25  2  0  0  0
 24 49  1  0  0  0
 25 26  1  0  0  0
 25 28  1  0  0  0
 26 27  2  0  0  0
 26 50  1  0  0  0
 27 51  1  0  0  0
 28 52  1  0  0  0
M  END
> <s_m_entry_id>
3377

> <s_m_entry_name>
dock_pv.469

> <s_m_Source_Path>
/home/csk/Desktop/cluster/DUD-E-result/adrb1

> <s_m_Source_File>
dock_pv.maegz

> <i_m_Source_File_Index>
469

> <chembl_id>
CHEMBL1257674

> <chembl_pref_name>
None

> <i_lp_mmshare_version>
53161

> <i_f3d_flags>
0

> <r_lp_tautomer_probability>
1

> <s_lp_Force_Field>
OPLS_2005

> <r_lp_Energy>
38.619848

> <b_lp_Chiralities_Consistent>
1

> <s_lp_Variant>
CHEMBL213_lig1393-2

> <s_i_glide_gridfile>
glide-grid_2vt4

> <i_i_glide_lignum>
1690

> <i_i_glide_rotatable_bonds>
9

> <r_i_docking_score>
-6.86184489818448

> <r_i_glide_ligand_efficiency>
-0.245065889220874

> <r_i_glide_ligand_efficiency_sa>
-0.74416437576444

> <r_i_glide_ligand_efficiency_ln>
-1.58391527502172

> <r_i_glide_gscore>
-6.86184489818448

> <r_i_glide_lipo>
-2.95748846343559

> <r_i_glide_hbond>
-0.265881332880997

> <r_i_glide_metal>
0

> <r_i_glide_rewards>
-1.50076372105053

> <r_i_glide_evdw>
-38.7059097290039

> <r_i_glide_ecoul>
-7.05337905883789

> <r_i_glide_erotb>
0.855590964458518

> <r_i_glide_esite>
0

> <r_i_glide_emodel>
-51.4811930033521

> <r_i_glide_energy>
-45.7592887878418

> <r_i_glide_einternal>
19.2874889373779

> <i_i_glide_confnum>
57

> <i_i_glide_posenum>
20

> <r_i_glide_eff_state_penalty>
0

> <s_user_duplicate_titles>
CHEMBL213_lig1393

> <s_m_subgroup_title>
dock_pv

> <s_m_subgroupid>
dock_pv

> <b_m_subgroup_collapsed>
1

$$$$
CHEMBL213_lig1244
                    3D
 Schrodinger Suite 2021-1.
 48 49  0  0  1  0            999 V2000
   27.0904    5.5642    4.9932 C   0  0  0  0  0  0
   31.0912    3.9796   -5.6063 C   0  0  0  0  0  0
   30.0889    3.0196   -5.3974 C   0  0  0  0  0  0
   29.4005    4.9525   -3.0795 N   0  0  1  0  0  0
   27.7991    4.5833    4.7877 O   0  0  0  0  0  0
   30.8000    5.2771   -3.3478 C   0  0  0  0  0  0
   31.0972    5.3240   -4.8674 C   0  0  2  0  0  0
   25.2943    4.5797    3.5859 O   0  0  0  0  0  0
   25.6091    5.5989    4.5571 C   0  0  0  0  0  0
   27.5889    6.6499    5.5852 N   0  0  0  0  0  0
   30.0873    1.8246   -6.1071 C   0  0  0  0  0  0
   25.8077    4.6502    2.3005 C   0  0  0  0  0  0
   26.7943    4.7048   -0.3180 C   0  0  0  0  0  0
   27.4335    4.7072   -1.7019 C   0  0  0  0  0  0
   28.8707    0.6501   -5.7786 Cl  0  0  0  0  0  0
   25.4506    3.6488    1.3936 C   0  0  0  0  0  0
   26.6126    5.7095    1.8588 C   0  0  0  0  0  0
   25.9541    3.6656    0.0927 C   0  0  0  0  0  0
   27.0711    5.7507    0.5533 C   0  0  0  0  0  0
   30.2080    6.2500   -5.4538 O   0  0  0  0  0  0
   28.9466    5.0713   -1.7049 C   0  0  1  0  0  0
   32.0879    3.7112   -6.5542 C   0  0  0  0  0  0
   32.0713    2.5249   -7.2884 C   0  0  0  0  0  0
   31.0687    1.5799   -7.0652 C   0  0  0  0  0  0
   29.8070    4.1836   -0.7790 C   0  0  0  0  0  0
   29.2900    3.1740   -4.6920 H   0  0  0  0  0  0
   28.8117    5.4808   -3.7148 H   0  0  0  0  0  0
   31.0332    6.2468   -2.9070 H   0  0  0  0  0  0
   31.4552    4.5367   -2.8895 H   0  0  0  0  0  0
   32.1003    5.7422   -4.9676 H   0  0  0  0  0  0
   24.9834    5.4422    5.4359 H   0  0  0  0  0  0
   25.3364    6.5863    4.1813 H   0  0  0  0  0  0
   27.0003    7.4181    5.8851 H   0  0  0  0  0  0
   28.5674    6.6667    5.8186 H   0  0  0  0  0  0
   27.2849    3.7321   -2.1641 H   0  0  0  0  0  0
   26.8779    5.4159   -2.3180 H   0  0  0  0  0  0
   24.8034    2.8440    1.7079 H   0  0  0  0  0  0
   26.8711    6.5358    2.4974 H   0  0  0  0  0  0
   25.7019    2.8685   -0.5921 H   0  0  0  0  0  0
   27.6660    6.5883    0.2267 H   0  0  0  0  0  0
   30.7170    6.9911   -5.8241 H   0  0  0  0  0  0
   29.0622    6.1158   -1.4108 H   0  0  0  0  0  0
   32.8678    4.4347   -6.7434 H   0  0  0  0  0  0
   32.8391    2.3366   -8.0249 H   0  0  0  0  0  0
   31.0681    0.6523   -7.6149 H   0  0  0  0  0  0
   29.4670    4.2544    0.2507 H   0  0  0  0  0  0
   29.7756    3.1338   -1.0733 H   0  0  0  0  0  0
   30.8502    4.4982   -0.7697 H   0  0  0  0  0  0
  1  5  2  0  0  0
  1  9  1  0  0  0
  1 10  1  0  0  0
  2  7  1  0  0  0
  2  3  2  0  0  0
  2 22  1  0  0  0
  3 11  1  0  0  0
  3 26  1  0  0  0
  4 21  1  0  0  0
  4  6  1  0  0  0
  4 27  1  0  0  0
  6  7  1  0  0  0
  6 28  1  0  0  0
  6 29  1  0  0  0
  7 20  1  0  0  0
  7 30  1  0  0  0
  8  9  1  0  0  0
  8 12  1  0  0  0
  9 31  1  0  0  0
  9 32  1  0  0  0
 10 33  1  0  0  0
 10 34  1  0  0  0
 11 15  1  0  0  0
 11 24  2  0  0  0
 12 16  1  0  0  0
 12 17  2  0  0  0
 13 19  2  0  0  0
 13 14  1  0  0  0
 13 18  1  0  0  0
 14 21  1  0  0  0
 14 35  1  0  0  0
 14 36  1  0  0  0
 16 18  2  0  0  0
 16 37  1  0  0  0
 17 19  1  0  0  0
 17 38  1  0  0  0
 18 39  1  0  0  0
 19 40  1  0  0  0
 20 41  1  0  0  0
 21 25  1  0  0  0
 21 42  1  0  0  0
 22 23  2  0  0  0
 22 43  1  0  0  0
 23 24  1  0  0  0
 23 44  1  0  0  0
 24 45  1  0  0  0
 25 46  1  0  0  0
 25 47  1  0  0  0
 25 48  1  0  0  0
M  END
> <s_m_entry_id>
3378

> <s_m_entry_name>
dock_pv.470

> <s_m_Source_Path>
/home/csk/Desktop/cluster/DUD-E-result/adrb1

> <s_m_Source_File>
dock_pv.maegz

> <i_m_Source_File_Index>
470

> <chembl_id>
CHEMBL38569

> <chembl_pref_name>
None

> <i_lp_mmshare_version>
53161

> <i_f3d_flags>
0

> <r_lp_tautomer_probability>
1

> <s_lp_Force_Field>
OPLS_2005

> <r_lp_Energy>
15.507631

> <b_lp_Chiralities_Consistent>
1

> <s_lp_Variant>
CHEMBL213_lig1244-1

> <s_i_glide_gridfile>
glide-grid_2vt4

> <i_i_glide_lignum>
1488

> <i_i_glide_rotatable_bonds>
10

> <r_i_docking_score>
-6.86102752063438

> <r_i_glide_ligand_efficiency>
-0.274441100825375

> <r_i_glide_ligand_efficiency_sa>
-0.802470646047045

> <r_i_glide_ligand_efficiency_ln>
-1.62626913079356

> <r_i_glide_gscore>
-6.86102752063438

> <r_i_glide_lipo>
-2.70752737641316

> <r_i_glide_hbond>
-0.559667318245573

> <r_i_glide_metal>
0

> <r_i_glide_rewards>
-2.02430014017315

> <r_i_glide_evdw>
-35.7315559387207

> <r_i_glide_ecoul>
-5.36080455780029

> <r_i_glide_erotb>
1.02116579480359

> <r_i_glide_esite>
0

> <r_i_glide_emodel>
-56.2014256050545

> <r_i_glide_energy>
-41.092360496521

> <r_i_glide_einternal>
9.35439491271973

> <i_i_glide_confnum>
33

> <i_i_glide_posenum>
118

> <r_i_glide_eff_state_penalty>
0

> <s_user_duplicate_titles>
CHEMBL213_lig1244

> <s_m_subgroup_title>
dock_pv

> <s_m_subgroupid>
dock_pv

> <b_m_subgroup_collapsed>
1

$$$$
CHEMBL213_lig912
                    3D
 Schrodinger Suite 2021-1.
 54 57  0  0  1  0            999 V2000
   29.8160    1.6088   -7.1735 C   0  0  0  0  0  0
   28.7246    1.6819   -6.3100 C   0  0  0  0  0  0
   28.7564    2.5539   -5.2246 C   0  0  0  0  0  0
   29.8709    3.3647   -5.0172 C   0  0  0  0  0  0
   30.9697    3.3230   -5.8936 C   0  0  0  0  0  0
   30.9381    2.4140   -6.9682 C   0  0  0  0  0  0
   32.1747    4.2460   -5.6575 C   0  0  2  0  0  0
   33.2932    3.4979   -4.8793 C   0  0  0  0  0  0
   34.4524    4.3461   -4.5697 N   0  0  1  0  0  0
   31.8007    5.4502   -5.0004 O   0  0  0  0  0  0
   34.7158    4.4648   -3.1386 C   0  0  1  0  0  0
   36.0307    5.2049   -2.8214 C   0  0  0  0  0  0
   36.3638    5.1228   -1.3166 C   0  0  0  0  0  0
   33.5810    5.2083   -2.4066 C   0  0  0  0  0  0
   33.8483    5.4003   -0.9223 C   0  0  0  0  0  0
   35.1641    5.4427   -0.4177 C   0  0  0  0  0  0
   35.3462    5.7123    0.9438 C   0  0  0  0  0  0
   34.2575    5.9140    1.7934 C   0  0  0  0  0  0
   32.9451    5.8411    1.3063 C   0  0  0  0  0  0
   32.7712    5.5676   -0.0522 C   0  0  0  0  0  0
   31.7670    6.0386    2.1932 C   0  0  0  0  0  0
   31.7908    7.0197    3.1879 C   0  0  0  0  0  0
   30.7016    7.2065    4.0272 C   0  0  0  0  0  0
   29.5478    6.4250    3.8851 C   0  0  0  0  0  0
   29.5052    5.4505    2.8737 C   0  0  0  0  0  0
   30.6084    5.2601    2.0423 C   0  0  0  0  0  0
   28.3563    6.6504    4.7854 C   0  0  0  0  0  0
   28.6076    7.4489    5.8617 O   0  0  0  0  0  0
   27.2536    6.1606    4.5687 O   0  0  0  0  0  0
   32.2643    2.2515   -8.0670 Cl  0  0  0  0  0  0
   29.7888    0.9327   -8.0138 H   0  0  0  0  0  0
   27.8573    1.0624   -6.4790 H   0  0  0  0  0  0
   27.9155    2.6050   -4.5476 H   0  0  0  0  0  0
   29.8727    4.0321   -4.1663 H   0  0  0  0  0  0
   32.5714    4.5610   -6.6241 H   0  0  0  0  0  0
   33.6519    2.6640   -5.4836 H   0  0  0  0  0  0
   32.8775    3.0333   -3.9823 H   0  0  0  0  0  0
   35.2873    4.0463   -5.0554 H   0  0  0  0  0  0
   31.6287    6.1281   -5.6607 H   0  0  0  0  0  0
   34.7835    3.4527   -2.7342 H   0  0  0  0  0  0
   35.9714    6.2454   -3.1466 H   0  0  0  0  0  0
   36.8531    4.7723   -3.3949 H   0  0  0  0  0  0
   37.2073    5.7719   -1.0832 H   0  0  0  0  0  0
   36.6924    4.1076   -1.0927 H   0  0  0  0  0  0
   32.6118    4.7393   -2.5754 H   0  0  0  0  0  0
   33.4948    6.2062   -2.8383 H   0  0  0  0  0  0
   36.3467    5.7451    1.3482 H   0  0  0  0  0  0
   34.4352    6.1103    2.8419 H   0  0  0  0  0  0
   31.7726    5.5053   -0.4553 H   0  0  0  0  0  0
   32.6525    7.6589    3.3049 H   0  0  0  0  0  0
   30.7711    7.9821    4.7791 H   0  0  0  0  0  0
   28.6302    4.8312    2.7374 H   0  0  0  0  0  0
   30.5667    4.4940    1.2812 H   0  0  0  0  0  0
   27.7839    7.6531    6.3282 H   0  0  0  0  0  0
  1  6  1  0  0  0
  1  2  2  0  0  0
  1 31  1  0  0  0
  2  3  1  0  0  0
  2 32  1  0  0  0
  3  4  2  0  0  0
  3 33  1  0  0  0
  4  5  1  0  0  0
  4 34  1  0  0  0
  5  7  1  0  0  0
  5  6  2  0  0  0
  6 30  1  0  0  0
  7  8  1  0  0  0
  7 10  1  0  0  0
  7 35  1  0  0  0
  8  9  1  0  0  0
  8 36  1  0  0  0
  8 37  1  0  0  0
  9 11  1  0  0  0
  9 38  1  0  0  0
 10 39  1  0  0  0
 11 12  1  0  0  0
 11 14  1  0  0  0
 11 40  1  0  0  0
 12 13  1  0  0  0
 12 41  1  0  0  0
 12 42  1  0  0  0
 13 16  1  0  0  0
 13 43  1  0  0  0
 13 44  1  0  0  0
 14 15  1  0  0  0
 14 45  1  0  0  0
 14 46  1  0  0  0
 15 16  2  0  0  0
 15 20  1  0  0  0
 16 17  1  0  0  0
 17 18  2  0  0  0
 17 47  1  0  0  0
 18 19  1  0  0  0
 18 48  1  0  0  0
 19 20  2  0  0  0
 19 21  1  0  0  0
 20 49  1  0  0  0
 21 22  2  0  0  0
 21 26  1  0  0  0
 22 23  1  0  0  0
 22 50  1  0  0  0
 23 24  2  0  0  0
 23 51  1  0  0  0
 24 25  1  0  0  0
 24 27  1  0  0  0
 25 26  2  0  0  0
 25 52  1  0  0  0
 26 53  1  0  0  0
 27 28  1  0  0  0
 27 29  2  0  0  0
 28 54  1  0  0  0
M  END
> <s_m_entry_id>
3379

> <s_m_entry_name>
dock_pv.471

> <s_m_Source_Path>
/home/csk/Desktop/cluster/DUD-E-result/adrb1

> <s_m_Source_File>
dock_pv.maegz

> <i_m_Source_File_Index>
471

> <chembl_id>
CHEMBL450842

> <chembl_pref_name>
None

> <i_lp_mmshare_version>
53161

> <i_f3d_flags>
0

> <r_lp_tautomer_probability>
1

> <s_lp_Force_Field>
OPLS_2005

> <r_lp_Energy>
35.133734

> <b_lp_Chiralities_Consistent>
1

> <s_lp_Variant>
CHEMBL213_lig912-1

> <s_i_glide_gridfile>
glide-grid_2vt4

> <i_i_glide_lignum>
1020

> <i_i_glide_rotatable_bonds>
8

> <r_i_docking_score>
-6.85160645908732

> <r_i_glide_ligand_efficiency>
-0.228386881969577

> <r_i_glide_ligand_efficiency_sa>
-0.709651142784763

> <r_i_glide_ligand_efficiency_ln>
-1.55675964173634

> <r_i_glide_gscore>
-6.85160645908732

> <r_i_glide_lipo>
-3.14671860340457

> <r_i_glide_hbond>
-0.148549298671383

> <r_i_glide_metal>
0

> <r_i_glide_rewards>
-1.18261261504053

> <r_i_glide_evdw>
-42.6355514526367

> <r_i_glide_ecoul>
-5.32166481018066

> <r_i_glide_erotb>
0.556301352188095

> <r_i_glide_esite>
0

> <r_i_glide_emodel>
-62.9607765857979

> <r_i_glide_energy>
-47.9572162628174

> <r_i_glide_einternal>
8.6949577331543

> <i_i_glide_confnum>
20

> <i_i_glide_posenum>
338

> <r_i_glide_eff_state_penalty>
0

> <s_user_duplicate_titles>
CHEMBL213_lig912,512076

> <s_m_subgroup_title>
dock_pv

> <s_m_subgroupid>
dock_pv

> <b_m_subgroup_collapsed>
1

$$$$
CHEMBL213_lig338
                    3D
 Schrodinger Suite 2021-1.
 73 76  0  0  1  0            999 V2000
   35.6907    6.9732    2.3221 S   0  0  0  0  0  0
   29.1325    6.9191    4.4632 C   0  0  0  0  0  0
   29.8804    6.2029    3.5759 N   0  0  0  0  0  0
   27.8926    6.3849    4.3857 N   0  0  0  0  0  0
   35.8080    7.0693    0.5567 N   0  0  0  0  0  0
   33.9938    6.5989    2.7374 C   0  0  0  0  0  0
   29.0910    5.1717    2.9076 C   0  0  0  0  0  0
   31.2629    6.3687    3.3060 C   0  0  0  0  0  0
   35.9564    8.3274    2.8185 O   0  0  0  0  0  0
   36.5049    5.8501    2.7843 O   0  0  0  0  0  0
   29.4808    7.8523    5.1849 O   0  0  0  0  0  0
   27.8419    5.1078    3.7187 C   0  0  0  0  0  0
   32.2713    3.6491   -6.8386 C   0  0  0  0  0  0
   30.8812    1.7236   -7.3429 N   0  0  0  0  0  0
   33.1524    5.9283    1.8507 C   0  0  0  0  0  0
   33.4990    7.0501    3.9558 C   0  0  0  0  0  0
   32.1431    6.9403    4.2376 C   0  0  0  0  0  0
   31.7922    5.8501    2.1161 C   0  0  0  0  0  0
   35.6988    5.9597   -0.2830 C   0  0  0  0  0  0
   33.5339    4.4700   -7.1467 C   0  0  1  0  0  0
   34.6480    3.7062   -5.0622 N   0  0  1  0  0  0
   35.4303    3.7964   -2.0184 C   0  0  0  0  0  0
   31.9755    2.4931   -7.5730 C   0  0  0  0  0  0
   26.7566    7.0020    5.0821 C   0  0  0  0  0  0
   36.5032    4.8333   -0.1175 C   0  0  0  0  0  0
   34.7645    6.0075   -1.3165 C   0  0  0  0  0  0
   36.3657    3.7546   -0.9836 C   0  0  0  0  0  0
   34.6100    4.9204   -2.1676 C   0  0  0  0  0  0
   33.4080    5.8492   -6.8150 O   0  0  0  0  0  0
   34.8126    3.8680   -6.5036 C   0  0  0  0  0  0
   31.3804    4.0157   -5.8190 C   0  0  0  0  0  0
   30.0386    2.0976   -6.3468 C   0  0  0  0  0  0
   35.6982    2.9158   -4.4363 C   0  0  0  0  0  0
   35.3062    2.6099   -2.9723 C   0  0  0  0  0  0
   25.3941    6.7877    4.4030 C   0  0  0  0  0  0
   24.7666    5.3960    4.6648 C   0  0  0  0  0  0
   30.2510    3.2339   -5.5644 C   0  0  0  0  0  0
   23.8353    5.3777    5.8825 C   0  0  0  0  0  0
   35.4056    7.9195    0.1932 H   0  0  0  0  0  0
   28.8773    5.4498    1.8747 H   0  0  0  0  0  0
   29.6111    4.2123    2.9339 H   0  0  0  0  0  0
   27.8571    4.2899    4.4404 H   0  0  0  0  0  0
   26.9652    5.0211    3.0774 H   0  0  0  0  0  0
   33.5166    5.5158    0.9271 H   0  0  0  0  0  0
   34.1497    7.5428    4.6619 H   0  0  0  0  0  0
   31.8085    7.3155    5.1900 H   0  0  0  0  0  0
   31.1621    5.3618    1.3889 H   0  0  0  0  0  0
   33.6638    4.4587   -8.2306 H   0  0  0  0  0  0
   34.6577    4.6297   -4.6504 H   0  0  0  0  0  0
   32.6223    2.1635   -8.3736 H   0  0  0  0  0  0
   26.9315    8.0748    5.1849 H   0  0  0  0  0  0
   26.7161    6.6125    6.0999 H   0  0  0  0  0  0
   37.2488    4.7909    0.6602 H   0  0  0  0  0  0
   34.1406    6.8813   -1.4468 H   0  0  0  0  0  0
   37.0050    2.8927   -0.8534 H   0  0  0  0  0  0
   33.8572    4.9560   -2.9390 H   0  0  0  0  0  0
   34.2789    6.2786   -6.8220 H   0  0  0  0  0  0
   35.6806    4.4927   -6.7230 H   0  0  0  0  0  0
   34.9999    2.8918   -6.9542 H   0  0  0  0  0  0
   31.5660    4.8965   -5.2234 H   0  0  0  0  0  0
   29.1763    1.4694   -6.1774 H   0  0  0  0  0  0
   36.6227    3.4988   -4.4539 H   0  0  0  0  0  0
   35.8950    1.9857   -4.9736 H   0  0  0  0  0  0
   35.9405    1.7956   -2.6141 H   0  0  0  0  0  0
   34.2881    2.2173   -2.9225 H   0  0  0  0  0  0
   25.4807    6.9775    3.3316 H   0  0  0  0  0  0
   24.7067    7.5463    4.7850 H   0  0  0  0  0  0
   25.5464    4.6500    4.7847 H   0  0  0  0  0  0
   24.2090    5.0483    3.7927 H   0  0  0  0  0  0
   29.5587    3.5011   -4.7799 H   0  0  0  0  0  0
   23.4081    4.3889    6.0444 H   0  0  0  0  0  0
   23.0088    6.0753    5.7432 H   0  0  0  0  0  0
   24.3713    5.6689    6.7846 H   0  0  0  0  0  0
  1  5  1  0  0  0
  1  6  1  0  0  0
  1  9  2  0  0  0
  1 10  2  0  0  0
  2  3  1  0  0  0
  2  4  1  0  0  0
  2 11  2  0  0  0
  3  8  1  0  0  0
  3  7  1  0  0  0
  4 24  1  0  0  0
  4 12  1  0  0  0
  5 19  1  0  0  0
  5 39  1  0  0  0
  6 15  2  0  0  0
  6 16  1  0  0  0
  7 12  1  0  0  0
  7 40  1  0  0  0
  7 41  1  0  0  0
  8 17  1  0  0  0
  8 18  2  0  0  0
 12 42  1  0  0  0
 12 43  1  0  0  0
 13 20  1  0  0  0
 13 23  1  0  0  0
 13 31  2  0  0  0
 14 23  2  0  0  0
 14 32  1  0  0  0
 15 18  1  0  0  0
 15 44  1  0  0  0
 16 17  2  0  0  0
 16 45  1  0  0  0
 17 46  1  0  0  0
 18 47  1  0  0  0
 19 25  1  0  0  0
 19 26  2  0  0  0
 20 30  1  0  0  0
 20 29  1  0  0  0
 20 48  1  0  0  0
 21 33  1  0  0  0
 21 30  1  0  0  0
 21 49  1  0  0  0
 22 28  2  0  0  0
 22 34  1  0  0  0
 22 27  1  0  0  0
 23 50  1  0  0  0
 24 35  1  0  0  0
 24 51  1  0  0  0
 24 52  1  0  0  0
 25 27  2  0  0  0
 25 53  1  0  0  0
 26 28  1  0  0  0
 26 54  1  0  0  0
 27 55  1  0  0  0
 28 56  1  0  0  0
 29 57  1  0  0  0
 30 58  1  0  0  0
 30 59  1  0  0  0
 31 37  1  0  0  0
 31 60  1  0  0  0
 32 37  2  0  0  0
 32 61  1  0  0  0
 33 34  1  0  0  0
 33 62  1  0  0  0
 33 63  1  0  0  0
 34 64  1  0  0  0
 34 65  1  0  0  0
 35 36  1  0  0  0
 35 66  1  0  0  0
 35 67  1  0  0  0
 36 38  1  0  0  0
 36 68  1  0  0  0
 36 69  1  0  0  0
 37 70  1  0  0  0
 38 71  1  0  0  0
 38 72  1  0  0  0
 38 73  1  0  0  0
M  END
> <s_m_entry_id>
3380

> <s_m_entry_name>
dock_pv.472

> <s_m_Source_Path>
/home/csk/Desktop/cluster/DUD-E-result/adrb1

> <s_m_Source_File>
dock_pv.maegz

> <i_m_Source_File_Index>
472

> <chembl_id>
CHEMBL166013

> <chembl_pref_name>
None

> <i_lp_mmshare_version>
53161

> <i_f3d_flags>
0

> <r_lp_tautomer_probability>
1

> <s_lp_Force_Field>
OPLS_2005

> <r_lp_Energy>
63.239013

> <b_lp_Chiralities_Consistent>
1

> <s_lp_Variant>
CHEMBL213_lig338-1

> <s_i_glide_gridfile>
glide-grid_2vt4

> <i_i_glide_lignum>
399

> <i_i_glide_rotatable_bonds>
14

> <r_i_docking_score>
-6.85133632174892

> <r_i_glide_ligand_efficiency>
-0.180298324256551

> <r_i_glide_ligand_efficiency_sa>
-0.606158531302603

> <r_i_glide_ligand_efficiency_ln>
-1.47734965686398

> <r_i_glide_gscore>
-6.85133632174892

> <r_i_glide_lipo>
-3.14126759742565

> <r_i_glide_hbond>
-0.16

> <r_i_glide_metal>
0

> <r_i_glide_rewards>
-0.571561021848683

> <r_i_glide_evdw>
-54.0513458251953

> <r_i_glide_ecoul>
-7.07981491088867

> <r_i_glide_erotb>
0.786031825418478

> <r_i_glide_esite>
0

> <r_i_glide_emodel>
-79.608281904501

> <r_i_glide_energy>
-61.131160736084

> <r_i_glide_einternal>
10.7195243835449

> <i_i_glide_confnum>
47

> <i_i_glide_posenum>
255

> <r_i_glide_eff_state_penalty>
0

> <s_user_duplicate_titles>
CHEMBL213_lig338

> <s_m_subgroup_title>
dock_pv

> <s_m_subgroupid>
dock_pv

> <b_m_subgroup_collapsed>
1

$$$$
CHEMBL213_lig1054
                    3D
 Schrodinger Suite 2021-1.
 66 67  0  0  1  0            999 V2000
   26.2121    5.8048    4.5413 C   0  0  0  0  0  0
   27.5711    6.1508    4.4967 C   0  0  0  0  0  0
   28.3406    5.7727    3.4003 C   0  0  0  0  0  0
   27.7679    5.0501    2.3559 C   0  0  0  0  0  0
   26.4247    4.6504    2.4013 C   0  0  0  0  0  0
   25.6550    5.0489    3.5016 C   0  0  0  0  0  0
   25.3205    6.2520    5.6867 C   0  0  0  0  0  0
   25.0080    7.6197    5.5850 O   0  0  0  0  0  0
   28.1737    6.8673    5.5029 O   0  0  0  0  0  0
   25.8410    3.7820    1.2660 C   0  0  2  0  0  0
   25.4333    4.5458   -0.0154 C   0  0  0  0  0  0
   24.7268    3.0017    1.6708 O   0  0  0  0  0  0
   26.4699    5.4715   -0.4765 N   0  0  2  0  0  0
   25.9452    6.4698   -1.4020 C   0  0  0  0  0  0
   26.7115    6.4200   -2.7342 C   0  0  0  0  0  0
   28.1878    6.8471   -2.6371 C   0  0  0  0  0  0
   29.1302    6.1883   -3.6671 C   0  0  0  0  0  0
   29.2630    4.6573   -3.5040 C   0  0  0  0  0  0
   30.4636    4.0567   -4.2596 C   0  0  0  0  0  0
   31.7189    4.5151   -3.7587 O   0  0  0  0  0  0
   32.1317    3.9333   -2.5238 C   0  0  0  0  0  0
   33.5295    4.4432   -2.1415 C   0  0  0  0  0  0
   33.4832    5.8494   -1.9211 O   0  0  0  0  0  0
   34.7158    6.4260   -1.4890 C   0  0  0  0  0  0
   35.0083    6.1851   -0.0083 C   0  0  0  0  0  0
   36.3082    6.3819    0.4676 C   0  0  0  0  0  0
   36.5790    6.2615    1.8293 C   0  0  0  0  0  0
   35.5453    5.9649    2.7153 C   0  0  0  0  0  0
   34.2479    5.7729    2.2507 C   0  0  0  0  0  0
   33.9844    5.8501    0.8862 C   0  0  0  0  0  0
   35.8074    5.8508    4.0551 O   0  0  0  0  0  0
   29.3855    6.0448    3.3538 H   0  0  0  0  0  0
   28.3815    4.7759    1.5107 H   0  0  0  0  0  0
   24.6096    4.7766    3.5409 H   0  0  0  0  0  0
   24.3884    5.6836    5.6932 H   0  0  0  0  0  0
   25.8060    6.0558    6.6442 H   0  0  0  0  0  0
   25.6144    8.1231    6.1462 H   0  0  0  0  0  0
   27.5494    7.2765    6.1095 H   0  0  0  0  0  0
   26.6080    3.0606    0.9876 H   0  0  0  0  0  0
   25.2418    3.8281   -0.8147 H   0  0  0  0  0  0
   24.4850    5.0498    0.1529 H   0  0  0  0  0  0
   24.2484    2.7213    0.8869 H   0  0  0  0  0  0
   27.1648    4.9451   -0.9897 H   0  0  0  0  0  0
   24.8841    6.3337   -1.5956 H   0  0  0  0  0  0
   26.0476    7.4496   -0.9342 H   0  0  0  0  0  0
   26.6197    5.4231   -3.1486 H   0  0  0  0  0  0
   26.2083    7.0522   -3.4647 H   0  0  0  0  0  0
   28.2081    7.9309   -2.7601 H   0  0  0  0  0  0
   28.5825    6.6504   -1.6391 H   0  0  0  0  0  0
   28.7992    6.4213   -4.6792 H   0  0  0  0  0  0
   30.1161    6.6456   -3.5680 H   0  0  0  0  0  0
   29.3214    4.3946   -2.4475 H   0  0  0  0  0  0
   28.3553    4.1751   -3.8710 H   0  0  0  0  0  0
   30.4231    2.9651   -4.2457 H   0  0  0  0  0  0
   30.4031    4.3440   -5.3111 H   0  0  0  0  0  0
   31.4325    4.1849   -1.7258 H   0  0  0  0  0  0
   32.1553    2.8447   -2.6092 H   0  0  0  0  0  0
   33.8740    3.9236   -1.2462 H   0  0  0  0  0  0
   34.2359    4.2167   -2.9427 H   0  0  0  0  0  0
   35.5468    6.1039   -2.1193 H   0  0  0  0  0  0
   34.6252    7.5045   -1.6152 H   0  0  0  0  0  0
   37.1048    6.6404   -0.2148 H   0  0  0  0  0  0
   37.5839    6.4108    2.1949 H   0  0  0  0  0  0
   33.4429    5.5457    2.9353 H   0  0  0  0  0  0
   32.9714    5.7129    0.5351 H   0  0  0  0  0  0
   35.0021    5.7441    4.5663 H   0  0  0  0  0  0
  1  6  1  0  0  0
  1  2  2  0  0  0
  1  7  1  0  0  0
  2  9  1  0  0  0
  2  3  1  0  0  0
  3  4  2  0  0  0
  3 32  1  0  0  0
  4  5  1  0  0  0
  4 33  1  0  0  0
  5 10  1  0  0  0
  5  6  2  0  0  0
  6 34  1  0  0  0
  7  8  1  0  0  0
  7 35  1  0  0  0
  7 36  1  0  0  0
  8 37  1  0  0  0
  9 38  1  0  0  0
 10 11  1  0  0  0
 10 12  1  0  0  0
 10 39  1  0  0  0
 11 13  1  0  0  0
 11 40  1  0  0  0
 11 41  1  0  0  0
 12 42  1  0  0  0
 13 14  1  0  0  0
 13 43  1  0  0  0
 14 15  1  0  0  0
 14 44  1  0  0  0
 14 45  1  0  0  0
 15 16  1  0  0  0
 15 46  1  0  0  0
 15 47  1  0  0  0
 16 17  1  0  0  0
 16 48  1  0  0  0
 16 49  1  0  0  0
 17 18  1  0  0  0
 17 50  1  0  0  0
 17 51  1  0  0  0
 18 19  1  0  0  0
 18 52  1  0  0  0
 18 53  1  0  0  0
 19 20  1  0  0  0
 19 54  1  0  0  0
 19 55  1  0  0  0
 20 21  1  0  0  0
 21 22  1  0  0  0
 21 56  1  0  0  0
 21 57  1  0  0  0
 22 23  1  0  0  0
 22 58  1  0  0  0
 22 59  1  0  0  0
 23 24  1  0  0  0
 24 25  1  0  0  0
 24 60  1  0  0  0
 24 61  1  0  0  0
 25 26  2  0  0  0
 25 30  1  0  0  0
 26 27  1  0  0  0
 26 62  1  0  0  0
 27 28  2  0  0  0
 27 63  1  0  0  0
 28 29  1  0  0  0
 28 31  1  0  0  0
 29 30  2  0  0  0
 29 64  1  0  0  0
 30 65  1  0  0  0
 31 66  1  0  0  0
M  END
> <s_m_entry_id>
3381

> <s_m_entry_name>
dock_pv.473

> <s_m_Source_Path>
/home/csk/Desktop/cluster/DUD-E-result/adrb1

> <s_m_Source_File>
dock_pv.maegz

> <i_m_Source_File_Index>
473

> <chembl_id>
CHEMBL1086535

> <chembl_pref_name>
None

> <i_lp_mmshare_version>
53161

> <i_f3d_flags>
0

> <r_lp_tautomer_probability>
0.99999999999473

> <s_lp_Force_Field>
OPLS_2005

> <r_lp_Energy>
24.898174

> <b_lp_Chiralities_Consistent>
1

> <s_lp_Variant>
CHEMBL213_lig1054-1

> <s_i_glide_gridfile>
glide-grid_2vt4

> <i_i_glide_lignum>
1222

> <i_i_glide_rotatable_bonds>
20

> <r_i_docking_score>
-6.84575688730965

> <r_i_glide_ligand_efficiency>
-0.22083086733257

> <r_i_glide_ligand_efficiency_sa>
-0.693713813295276

> <r_i_glide_ligand_efficiency_ln>
-1.54392797534123

> <r_i_glide_gscore>
-6.84575688730965

> <r_i_glide_lipo>
-3.0751007954225

> <r_i_glide_hbond>
-0.383400486163383

> <r_i_glide_metal>
0

> <r_i_glide_rewards>
-0.886484696969696

> <r_i_glide_evdw>
-44.7683334350586

> <r_i_glide_ecoul>
-13.0470561981201

> <r_i_glide_erotb>
1.69470419271687

> <r_i_glide_esite>
0

> <r_i_glide_emodel>
-77.1418379785555

> <r_i_glide_energy>
-57.8153896331787

> <r_i_glide_einternal>
10.2057390213013

> <i_i_glide_confnum>
185

> <i_i_glide_posenum>
251

> <r_i_glide_eff_state_penalty>
0

> <s_user_duplicate_titles>
CHEMBL213_lig1054,631736

> <s_m_subgroup_title>
dock_pv

> <s_m_subgroupid>
dock_pv

> <b_m_subgroup_collapsed>
1

$$$$
CHEMBL213_lig1002
                    3D
 Schrodinger Suite 2021-1.
 53 55  0  0  1  0            999 V2000
   24.4909    4.6500    3.9847 C   0  0  0  0  0  0
   23.7069    3.9729    3.0438 C   0  0  0  0  0  0
   24.2268    3.6274    1.7953 C   0  0  0  0  0  0
   25.5436    3.9636    1.4551 C   0  0  0  0  0  0
   23.9335    5.0500    5.1849 O   0  0  0  0  0  0
   26.1293    3.6327    0.0767 C   0  0  2  0  0  0
   26.3275    4.9073   -0.7715 C   0  0  0  0  0  0
   25.4080    2.6500   -0.6478 O   0  0  0  0  0  0
   27.4080    4.7453   -1.7520 N   0  0  2  0  0  0
   27.7672    5.8973   -2.5945 C   0  0  0  0  0  0
   29.1617    5.6146   -3.2434 C   0  0  0  0  0  0
   29.3803    4.4205   -4.1996 C   0  0  0  0  0  0
   28.3916    3.4501   -4.4261 C   0  0  0  0  0  0
   28.6156    2.3762   -5.2855 C   0  0  0  0  0  0
   29.8353    2.2503   -5.9409 C   0  0  0  0  0  0
   30.8302    3.2016   -5.7345 C   0  0  0  0  0  0
   30.6147    4.2830   -4.8717 C   0  0  0  0  0  0
   26.7152    6.2500   -3.6717 C   0  0  0  0  0  0
   27.8978    7.1261   -1.6828 C   0  0  0  0  0  0
   25.8016    5.0060    3.6515 C   0  0  0  0  0  0
   26.3207    4.6501    2.4037 C   0  0  0  0  0  0
   27.6024    5.0586    2.0789 O   0  0  0  0  0  0
   28.5287    5.1450    3.1879 C   0  0  0  0  0  0
   27.9478    5.9055    4.4133 C   0  0  0  0  0  0
   26.6165    5.7395    4.5189 N   0  0  0  0  0  0
   28.6085    6.5851    5.1960 O   0  0  0  0  0  0
   31.7429    5.2888   -4.6850 C   0  0  0  0  0  0
   22.6811    3.7240    3.2727 H   0  0  0  0  0  0
   23.5933    3.1160    1.0842 H   0  0  0  0  0  0
   22.9734    5.0164    5.1792 H   0  0  0  0  0  0
   27.1039    3.1956    0.2728 H   0  0  0  0  0  0
   26.6225    5.6916   -0.0787 H   0  0  0  0  0  0
   25.3910    5.2361   -1.2150 H   0  0  0  0  0  0
   24.7910    3.0906   -1.2527 H   0  0  0  0  0  0
   27.2034    3.9423   -2.3330 H   0  0  0  0  0  0
   29.8941    5.5041   -2.4420 H   0  0  0  0  0  0
   29.4534    6.5121   -3.7912 H   0  0  0  0  0  0
   27.4260    3.4917   -3.9522 H   0  0  0  0  0  0
   27.8362    1.6435   -5.4366 H   0  0  0  0  0  0
   30.0107    1.4180   -6.6061 H   0  0  0  0  0  0
   31.7739    3.0937   -6.2495 H   0  0  0  0  0  0
   27.0246    7.1198   -4.2528 H   0  0  0  0  0  0
   26.5472    5.4496   -4.3882 H   0  0  0  0  0  0
   25.7553    6.5024   -3.2255 H   0  0  0  0  0  0
   28.2080    7.9969   -2.2554 H   0  0  0  0  0  0
   26.9585    7.4107   -1.2103 H   0  0  0  0  0  0
   28.6080    6.9427   -0.8790 H   0  0  0  0  0  0
   28.7488    4.1368    3.5429 H   0  0  0  0  0  0
   29.4646    5.6131    2.8825 H   0  0  0  0  0  0
   26.2006    6.1658    5.3344 H   0  0  0  0  0  0
   31.9542    5.4384   -3.6263 H   0  0  0  0  0  0
   32.6718    4.9651   -5.1570 H   0  0  0  0  0  0
   31.4576    6.2500   -5.1103 H   0  0  0  0  0  0
  1  2  1  0  0  0
  1  5  1  0  0  0
  1 20  2  0  0  0
  2  3  2  0  0  0
  2 28  1  0  0  0
  3  4  1  0  0  0
  3 29  1  0  0  0
  4  6  1  0  0  0
  4 21  2  0  0  0
  5 30  1  0  0  0
  6  7  1  0  0  0
  6  8  1  0  0  0
  6 31  1  0  0  0
  7  9  1  0  0  0
  7 32  1  0  0  0
  7 33  1  0  0  0
  8 34  1  0  0  0
  9 10  1  0  0  0
  9 35  1  0  0  0
 10 18  1  0  0  0
 10 19  1  0  0  0
 10 11  1  0  0  0
 11 12  1  0  0  0
 11 36  1  0  0  0
 11 37  1  0  0  0
 12 13  2  0  0  0
 12 17  1  0  0  0
 13 14  1  0  0  0
 13 38  1  0  0  0
 14 15  2  0  0  0
 14 39  1  0  0  0
 15 16  1  0  0  0
 15 40  1  0  0  0
 16 17  2  0  0  0
 16 41  1  0  0  0
 17 27  1  0  0  0
 18 42  1  0  0  0
 18 43  1  0  0  0
 18 44  1  0  0  0
 19 45  1  0  0  0
 19 46  1  0  0  0
 19 47  1  0  0  0
 20 21  1  0  0  0
 20 25  1  0  0  0
 21 22  1  0  0  0
 22 23  1  0  0  0
 23 24  1  0  0  0
 23 48  1  0  0  0
 23 49  1  0  0  0
 24 25  1  0  0  0
 24 26  2  0  0  0
 25 50  1  0  0  0
 27 51  1  0  0  0
 27 52  1  0  0  0
 27 53  1  0  0  0
M  END
> <s_m_entry_id>
3382

> <s_m_entry_name>
dock_pv.474

> <s_m_Source_Path>
/home/csk/Desktop/cluster/DUD-E-result/adrb1

> <s_m_Source_File>
dock_pv.maegz

> <i_m_Source_File_Index>
474

> <chembl_id>
CHEMBL579394

> <chembl_pref_name>
None

> <i_lp_mmshare_version>
53161

> <i_f3d_flags>
0

> <r_lp_tautomer_probability>
1

> <s_lp_Force_Field>
OPLS_2005

> <r_lp_Energy>
27.77877

> <b_lp_Chiralities_Consistent>
1

> <s_lp_Variant>
CHEMBL213_lig1002-1

> <s_i_glide_gridfile>
glide-grid_2vt4

> <i_i_glide_lignum>
1123

> <i_i_glide_rotatable_bonds>
8

> <r_i_docking_score>
-6.84574051415968

> <r_i_glide_ligand_efficiency>
-0.253545944968877

> <r_i_glide_ligand_efficiency_sa>
-0.760637834070985

> <r_i_glide_ligand_efficiency_ln>
-1.59357553084344

> <r_i_glide_gscore>
-6.84574051415968

> <r_i_glide_lipo>
-2.37590993257191

> <r_i_glide_hbond>
-0.573938675199713

> <r_i_glide_metal>
0

> <r_i_glide_rewards>
-1.98002167446998

> <r_i_glide_evdw>
-33.7660179138184

> <r_i_glide_ecoul>
-7.14053535461426

> <r_i_glide_erotb>
0.843510966964976

> <r_i_glide_esite>
0

> <r_i_glide_emodel>
-48.7536154946346

> <r_i_glide_energy>
-40.9065532684326

> <r_i_glide_einternal>
12.0890798568726

> <i_i_glide_confnum>
131

> <i_i_glide_posenum>
344

> <r_i_glide_eff_state_penalty>
0

> <s_user_duplicate_titles>
CHEMBL213_lig1002

> <s_m_subgroup_title>
dock_pv

> <s_m_subgroupid>
dock_pv

> <b_m_subgroup_collapsed>
1

$$$$
CHEMBL213_lig14
                    3D
 Schrodinger Suite 2021-1.
 46 47  0  0  1  0            999 V2000
   27.2106    4.4861    0.1139 O   0  0  0  0  0  0
   24.9722    5.8388    5.5645 O   0  0  0  0  0  0
   26.6080    6.2506   -2.8845 O   0  0  0  0  0  0
   29.4070    3.8512   -2.6261 N   0  0  1  0  0  0
   26.5776    4.9934    2.3600 C   0  0  0  0  0  0
   25.5947    5.0260    3.3808 C   0  0  0  0  0  0
   26.3031    4.3306    1.1502 C   0  0  0  0  0  0
   25.7729    5.8561    4.6287 C   0  0  0  0  0  0
   27.8998    5.7346    2.5357 C   0  0  0  0  0  0
   24.4343    4.2525    3.2220 C   0  0  0  0  0  0
   25.1150    3.5988    1.0099 C   0  0  0  0  0  0
   26.9892    6.7827    4.6273 C   0  0  0  0  0  0
   24.1910    3.5577    2.0450 C   0  0  0  0  0  0
   28.2021    6.0693    4.0095 C   0  0  0  0  0  0
   26.6943    4.4965   -1.2194 C   0  0  0  0  0  0
   27.5098    5.4247   -2.1636 C   0  0  1  0  0  0
   30.5488    3.4714   -3.4583 C   0  0  0  0  0  0
   28.3979    4.7266   -3.2217 C   0  0  0  0  0  0
   31.4967    4.6786   -3.6199 C   0  0  0  0  0  0
   30.0923    2.9217   -4.8291 C   0  0  0  0  0  0
   31.2418    2.3474   -2.6653 C   0  0  0  0  0  0
   25.8944    5.6736   -3.2116 H   0  0  0  0  0  0
   28.9447    2.9595   -2.4018 H   0  0  0  0  0  0
   28.7267    5.1738    2.0965 H   0  0  0  0  0  0
   27.7931    6.6494    1.9638 H   0  0  0  0  0  0
   23.6714    4.2486    3.9891 H   0  0  0  0  0  0
   24.8879    3.0806    0.0900 H   0  0  0  0  0  0
   27.2243    7.0740    5.6509 H   0  0  0  0  0  0
   26.7358    7.6420    4.0081 H   0  0  0  0  0  0
   23.2562    3.0373    1.9209 H   0  0  0  0  0  0
   28.4504    5.1616    4.5650 H   0  0  0  0  0  0
   29.0828    6.7108    4.0675 H   0  0  0  0  0  0
   25.6717    4.8765   -1.1842 H   0  0  0  0  0  0
   26.6104    3.4840   -1.6176 H   0  0  0  0  0  0
   28.1312    6.0938   -1.5647 H   0  0  0  0  0  0
   28.8770    5.4915   -3.8334 H   0  0  0  0  0  0
   27.7722    4.1282   -3.8848 H   0  0  0  0  0  0
   32.4172    4.3948   -4.1335 H   0  0  0  0  0  0
   31.7793    5.0934   -2.6508 H   0  0  0  0  0  0
   31.0442    5.4888   -4.1924 H   0  0  0  0  0  0
   29.3646    2.1153   -4.7143 H   0  0  0  0  0  0
   29.6219    3.6907   -5.4438 H   0  0  0  0  0  0
   30.9357    2.5241   -5.3950 H   0  0  0  0  0  0
   30.6232    1.4494   -2.6137 H   0  0  0  0  0  0
   32.1967    2.0663   -3.1103 H   0  0  0  0  0  0
   31.4288    2.6486   -1.6342 H   0  0  0  0  0  0
  1  7  1  0  0  0
  1 15  1  0  0  0
  2  8  2  0  0  0
  3 16  1  0  0  0
  3 22  1  0  0  0
  4 17  1  0  0  0
  4 18  1  0  0  0
  4 23  1  0  0  0
  5  6  2  0  0  0
  5  7  1  0  0  0
  5  9  1  0  0  0
  6  8  1  0  0  0
  6 10  1  0  0  0
  7 11  2  0  0  0
  8 12  1  0  0  0
  9 14  1  0  0  0
  9 24  1  0  0  0
  9 25  1  0  0  0
 10 13  2  0  0  0
 10 26  1  0  0  0
 11 13  1  0  0  0
 11 27  1  0  0  0
 12 14  1  0  0  0
 12 28  1  0  0  0
 12 29  1  0  0  0
 13 30  1  0  0  0
 14 31  1  0  0  0
 14 32  1  0  0  0
 15 16  1  0  0  0
 15 33  1  0  0  0
 15 34  1  0  0  0
 16 18  1  0  0  0
 16 35  1  0  0  0
 17 19  1  0  0  0
 17 20  1  0  0  0
 17 21  1  0  0  0
 18 36  1  0  0  0
 18 37  1  0  0  0
 19 38  1  0  0  0
 19 39  1  0  0  0
 19 40  1  0  0  0
 20 41  1  0  0  0
 20 42  1  0  0  0
 20 43  1  0  0  0
 21 44  1  0  0  0
 21 45  1  0  0  0
 21 46  1  0  0  0
M  END
> <s_m_entry_id>
3383

> <s_m_entry_name>
dock_pv.475

> <s_m_Source_Path>
/home/csk/Desktop/cluster/DUD-E-result/adrb1

> <s_m_Source_File>
dock_pv.maegz

> <i_m_Source_File_Index>
475

> <chembl_id>
CHEMBL1793796

> <chembl_pref_name>
BUNOLOL

> <i_lp_mmshare_version>
53161

> <i_f3d_flags>
0

> <r_lp_tautomer_probability>
0.99995

> <s_lp_Force_Field>
OPLS_2005

> <r_lp_Energy>
24.061495

> <b_lp_Chiralities_Consistent>
1

> <s_lp_Variant>
CHEMBL213_lig14-1

> <s_i_glide_gridfile>
glide-grid_2vt4

> <i_i_glide_lignum>
25

> <i_i_glide_rotatable_bonds>
7

> <r_i_docking_score>
-6.84512756349662

> <r_i_glide_ligand_efficiency>
-0.325958455404601

> <r_i_glide_ligand_efficiency_sa>
-0.89929466219896

> <r_i_glide_ligand_efficiency_ln>
-1.69244395819191

> <r_i_glide_gscore>
-6.84512756349662

> <r_i_glide_lipo>
-2.08340435784047

> <r_i_glide_hbond>
-0.456

> <r_i_glide_metal>
0

> <r_i_glide_rewards>
-2.37525995751421

> <r_i_glide_evdw>
-26.9934959411621

> <r_i_glide_ecoul>
-9.60070991516113

> <r_i_glide_erotb>
0.859318036190326

> <r_i_glide_esite>
0

> <r_i_glide_emodel>
-46.5847347404668

> <r_i_glide_energy>
-36.5942058563232

> <r_i_glide_einternal>
11.2245330810547

> <i_i_glide_confnum>
206

> <i_i_glide_posenum>
384

> <r_i_glide_eff_state_penalty>
0

> <s_user_duplicate_titles>
CHEMBL213_lig14

> <s_m_subgroup_title>
dock_pv

> <s_m_subgroupid>
dock_pv

> <b_m_subgroup_collapsed>
1

$$$$
CHEMBL213_lig1479
                    3D
 Schrodinger Suite 2021-1.
 60 62  0  0  1  0            999 V2000
   34.4745    6.1293   -0.5665 C   0  0  0  0  0  0
   35.5590    6.2468    0.2999 C   0  0  0  0  0  0
   36.7545    5.5602    0.0274 C   0  0  0  0  0  0
   36.8272    4.7674   -1.1227 C   0  0  0  0  0  0
   35.7342    4.6253   -1.9826 C   0  0  0  0  0  0
   34.5587    5.3303   -1.6996 C   0  0  0  0  0  0
   35.4076    7.0496    1.3991 O   0  0  0  0  0  0
   37.9783    5.6648    0.9343 C   0  0  0  0  0  0
   38.6152    4.4214    1.1832 O   0  0  0  0  0  0
   35.8802    3.7066   -3.1994 C   0  0  2  0  0  0
   34.7019    3.6956   -4.2142 C   0  0  0  0  0  0
   36.2072    2.3787   -2.8181 O   0  0  0  0  0  0
   33.4621    3.1206   -3.6830 N   0  0  1  0  0  0
   32.3743    3.2187   -4.6505 C   0  0  0  0  0  0
   31.6534    4.5901   -4.6141 C   0  0  0  0  0  0
   30.4525    4.6452   -3.6686 C   0  0  0  0  0  0
   30.5836    4.3190   -2.3170 C   0  0  0  0  0  0
   29.4626    4.3210   -1.4891 C   0  0  0  0  0  0
   28.1978    4.6514   -1.9988 C   0  0  0  0  0  0
   28.0760    4.9853   -3.3473 C   0  0  0  0  0  0
   29.1989    4.9999   -4.1718 C   0  0  0  0  0  0
   27.0275    4.6077   -1.2133 N   0  0  0  0  0  0
   26.8609    4.7444    0.1744 C   0  0  0  0  0  0
   25.7180    4.2491    0.8014 C   0  0  0  0  0  0
   25.5452    4.4115    2.1804 C   0  0  0  0  0  0
   26.5007    5.1145    2.9362 C   0  0  0  0  0  0
   27.8081    5.4181    0.9348 C   0  0  0  0  0  0
   27.6558    5.5740    2.3048 C   0  0  0  0  0  0
   26.3086    5.4500    4.3806 C   0  0  0  0  0  0
   27.2195    5.7981    5.1370 O   0  0  0  0  0  0
   25.0071    5.4536    4.7252 O   0  0  0  0  0  0
   24.5765    5.9282    5.9917 C   0  0  0  0  0  0
   33.5515    6.6496   -0.3672 H   0  0  0  0  0  0
   37.7468    4.2498   -1.3552 H   0  0  0  0  0  0
   33.6946    5.2674   -2.3419 H   0  0  0  0  0  0
   34.5325    7.4524    1.4095 H   0  0  0  0  0  0
   38.6973    6.3554    0.4939 H   0  0  0  0  0  0
   37.7033    6.0841    1.9028 H   0  0  0  0  0  0
   38.8718    4.0128    0.3456 H   0  0  0  0  0  0
   36.7392    4.0858   -3.7567 H   0  0  0  0  0  0
   35.0079    3.1211   -5.0918 H   0  0  0  0  0  0
   34.5291    4.7167   -4.5563 H   0  0  0  0  0  0
   37.0380    2.3981   -2.3297 H   0  0  0  0  0  0
   33.6343    2.1631   -3.4059 H   0  0  0  0  0  0
   31.6448    2.4481   -4.3914 H   0  0  0  0  0  0
   32.6997    2.9626   -5.6607 H   0  0  0  0  0  0
   31.3035    4.7971   -5.6262 H   0  0  0  0  0  0
   32.3398    5.4053   -4.3866 H   0  0  0  0  0  0
   31.5449    4.0333   -1.9150 H   0  0  0  0  0  0
   29.5779    4.0094   -0.4640 H   0  0  0  0  0  0
   27.1080    5.2324   -3.7617 H   0  0  0  0  0  0
   29.0923    5.2674   -5.2117 H   0  0  0  0  0  0
   26.1650    4.5887   -1.7522 H   0  0  0  0  0  0
   24.9616    3.7385    0.2210 H   0  0  0  0  0  0
   24.6413    4.0314    2.6353 H   0  0  0  0  0  0
   28.6628    5.8493    0.4451 H   0  0  0  0  0  0
   28.4158    6.1189    2.8486 H   0  0  0  0  0  0
   23.4899    6.0079    5.9862 H   0  0  0  0  0  0
   24.9866    6.9139    6.2124 H   0  0  0  0  0  0
   24.8689    5.2435    6.7854 H   0  0  0  0  0  0
  1  2  2  0  0  0
  1  6  1  0  0  0
  1 33  1  0  0  0
  2  3  1  0  0  0
  2  7  1  0  0  0
  3  4  2  0  0  0
  3  8  1  0  0  0
  4  5  1  0  0  0
  4 34  1  0  0  0
  5  6  2  0  0  0
  5 10  1  0  0  0
  6 35  1  0  0  0
  7 36  1  0  0  0
  8  9  1  0  0  0
  8 37  1  0  0  0
  8 38  1  0  0  0
  9 39  1  0  0  0
 10 11  1  0  0  0
 10 12  1  0  0  0
 10 40  1  0  0  0
 11 13  1  0  0  0
 11 41  1  0  0  0
 11 42  1  0  0  0
 12 43  1  0  0  0
 13 14  1  0  0  0
 13 44  1  0  0  0
 14 15  1  0  0  0
 14 45  1  0  0  0
 14 46  1  0  0  0
 15 16  1  0  0  0
 15 47  1  0  0  0
 15 48  1  0  0  0
 16 17  2  0  0  0
 16 21  1  0  0  0
 17 18  1  0  0  0
 17 49  1  0  0  0
 18 19  2  0  0  0
 18 50  1  0  0  0
 19 20  1  0  0  0
 19 22  1  0  0  0
 20 21  2  0  0  0
 20 51  1  0  0  0
 21 52  1  0  0  0
 22 23  1  0  0  0
 22 53  1  0  0  0
 23 24  2  0  0  0
 23 27  1  0  0  0
 24 25  1  0  0  0
 24 54  1  0  0  0
 25 26  2  0  0  0
 25 55  1  0  0  0
 26 28  1  0  0  0
 26 29  1  0  0  0
 27 28  2  0  0  0
 27 56  1  0  0  0
 28 57  1  0  0  0
 29 30  2  0  0  0
 29 31  1  0  0  0
 31 32  1  0  0  0
 32 58  1  0  0  0
 32 59  1  0  0  0
 32 60  1  0  0  0
M  END
> <s_m_entry_id>
3384

> <s_m_entry_name>
dock_pv.476

> <s_m_Source_Path>
/home/csk/Desktop/cluster/DUD-E-result/adrb1

> <s_m_Source_File>
dock_pv.maegz

> <i_m_Source_File_Index>
476

> <chembl_id>
CHEMBL3290996

> <chembl_pref_name>
None

> <i_lp_mmshare_version>
53161

> <i_f3d_flags>
0

> <r_lp_tautomer_probability>
0.999999999997365

> <s_lp_Force_Field>
OPLS_2005

> <r_lp_Energy>
33.542596

> <b_lp_Chiralities_Consistent>
1

> <s_lp_Variant>
CHEMBL213_lig1479-1

> <s_i_glide_gridfile>
glide-grid_2vt4

> <i_i_glide_lignum>
1826

> <i_i_glide_rotatable_bonds>
14

> <r_i_docking_score>
-6.844560572024

> <r_i_glide_ligand_efficiency>
-0.21389251787575

> <r_i_glide_ligand_efficiency_sa>
-0.679066414983696

> <r_i_glide_ligand_efficiency_ln>
-1.53268368775075

> <r_i_glide_gscore>
-6.844560572024

> <r_i_glide_lipo>
-2.32032700170918

> <r_i_glide_hbond>
-0.694849645827296

> <r_i_glide_metal>
0

> <r_i_glide_rewards>
-1.36170443711524

> <r_i_glide_evdw>
-42.5111045837402

> <r_i_glide_ecoul>
-8.83870983123779

> <r_i_glide_erotb>
1.04619276675293

> <r_i_glide_esite>
-0.0625105502525249

> <r_i_glide_emodel>
-69.6671851565162

> <r_i_glide_energy>
-51.349814414978

> <r_i_glide_einternal>
10.4750347137451

> <i_i_glide_confnum>
11

> <i_i_glide_posenum>
106

> <r_i_glide_eff_state_penalty>
0

> <s_user_duplicate_titles>
CHEMBL213_lig1479

> <s_m_subgroup_title>
dock_pv

> <s_m_subgroupid>
dock_pv

> <b_m_subgroup_collapsed>
1

$$$$
CHEMBL213_lig1394
                    3D
 Schrodinger Suite 2021-1.
 59 62  0  0  1  0            999 V2000
   31.7396    6.2489    3.0849 N   0  0  1  0  0  0
   31.7482    6.1675    1.6190 C   0  0  0  0  0  0
   33.1500    5.8774    1.0842 C   0  0  0  0  0  0
   33.2438    5.8477   -0.4542 C   0  0  0  0  0  0
   32.2337    5.0530   -1.2046 N   0  0  0  0  0  0
   30.9026    5.0501   -0.5632 C   0  0  0  0  0  0
   30.8418    5.1068    0.9889 C   0  0  0  0  0  0
   32.5050    4.5718   -2.5001 C   0  0  0  0  0  0
   33.8315    4.3549   -2.7366 N   0  0  0  0  0  0
   34.1923    3.6319   -3.8141 C   0  0  0  0  0  0
   33.3675    3.0512   -4.7084 N   0  0  0  0  0  0
   31.5417    4.1686   -3.4889 C   0  0  0  0  0  0
   32.0767    3.3313   -4.5281 C   0  0  0  0  0  0
   30.8510    2.6569   -5.5775 S   0  0  0  0  0  0
   29.6647    3.6247   -4.7677 C   0  0  0  0  0  0
   30.1526    4.4651   -3.7851 C   0  0  0  0  0  0
   30.9375    7.3261    3.6754 C   0  0  0  0  0  0
   29.7115    6.8116    4.4693 C   0  0  2  0  0  0
   28.7561    6.0230    3.5711 C   0  0  0  0  0  0
   29.0095    7.8847    5.0410 O   0  0  0  0  0  0
   27.4656    5.7098    4.0824 O   0  0  0  0  0  0
   26.5720    5.1465    3.1818 C   0  0  0  0  0  0
   26.8426    4.9104    1.8176 C   0  0  0  0  0  0
   25.9365    4.2500    0.9828 C   0  0  0  0  0  0
   24.7176    3.8454    1.5266 C   0  0  0  0  0  0
   24.4008    4.1309    2.8520 C   0  0  0  0  0  0
   25.3223    4.7795    3.6711 C   0  0  0  0  0  0
   29.3284    5.5988   -3.2224 C   0  0  0  0  0  0
   23.8079    3.1690    0.7759 O   0  0  0  0  0  0
   26.2690    3.9936   -0.4908 C   0  0  0  0  0  0
   27.6482    3.8502   -0.7582 O   0  0  0  0  0  0
   31.4466    5.3567    3.4750 H   0  0  0  0  0  0
   31.4080    7.1056    1.1854 H   0  0  0  0  0  0
   33.8279    6.6501    1.4456 H   0  0  0  0  0  0
   33.5766    4.9704    1.4939 H   0  0  0  0  0  0
   33.2533    6.8588   -0.8537 H   0  0  0  0  0  0
   34.2391    5.4514   -0.6516 H   0  0  0  0  0  0
   30.2906    5.8495   -0.9547 H   0  0  0  0  0  0
   30.4151    4.1199   -0.8584 H   0  0  0  0  0  0
   31.0078    4.1275    1.4272 H   0  0  0  0  0  0
   29.8167    5.3425    1.2217 H   0  0  0  0  0  0
   35.2517    3.4656   -3.9515 H   0  0  0  0  0  0
   28.6475    3.6006   -5.1314 H   0  0  0  0  0  0
   30.6276    8.0476    2.9192 H   0  0  0  0  0  0
   31.5984    7.8505    4.3626 H   0  0  0  0  0  0
   30.0632    6.2498    5.3180 H   0  0  0  0  0  0
   29.2394    5.0922    3.2745 H   0  0  0  0  0  0
   28.6059    6.6491    2.7018 H   0  0  0  0  0  0
   28.1667    7.5565    5.3726 H   0  0  0  0  0  0
   27.7685    5.2147    1.3717 H   0  0  0  0  0  0
   23.4386    3.8440    3.2483 H   0  0  0  0  0  0
   25.0704    4.9915    4.6996 H   0  0  0  0  0  0
   28.5495    5.9072   -3.9217 H   0  0  0  0  0  0
   28.8054    5.3475   -2.3086 H   0  0  0  0  0  0
   29.9364    6.4864   -3.0546 H   0  0  0  0  0  0
   23.8013    3.3819   -0.1678 H   0  0  0  0  0  0
   25.8835    4.8219   -1.0856 H   0  0  0  0  0  0
   25.7750    3.0894   -0.8474 H   0  0  0  0  0  0
   27.7732    3.1834   -1.4488 H   0  0  0  0  0  0
  1 17  1  0  0  0
  1  2  1  0  0  0
  1 32  1  0  0  0
  2  3  1  0  0  0
  2  7  1  0  0  0
  2 33  1  0  0  0
  3  4  1  0  0  0
  3 34  1  0  0  0
  3 35  1  0  0  0
  4  5  1  0  0  0
  4 36  1  0  0  0
  4 37  1  0  0  0
  5  6  1  0  0  0
  5  8  1  0  0  0
  6  7  1  0  0  0
  6 38  1  0  0  0
  6 39  1  0  0  0
  7 40  1  0  0  0
  7 41  1  0  0  0
  8  9  2  0  0  0
  8 12  1  0  0  0
  9 10  1  0  0  0
 10 11  2  0  0  0
 10 42  1  0  0  0
 11 13  1  0  0  0
 12 16  1  0  0  0
 12 13  2  0  0  0
 13 14  1  0  0  0
 14 15  1  0  0  0
 15 16  2  0  0  0
 15 43  1  0  0  0
 16 28  1  0  0  0
 17 18  1  0  0  0
 17 44  1  0  0  0
 17 45  1  0  0  0
 18 19  1  0  0  0
 18 20  1  0  0  0
 18 46  1  0  0  0
 19 21  1  0  0  0
 19 47  1  0  0  0
 19 48  1  0  0  0
 20 49  1  0  0  0
 21 22  1  0  0  0
 22 23  2  0  0  0
 22 27  1  0  0  0
 23 24  1  0  0  0
 23 50  1  0  0  0
 24 25  2  0  0  0
 24 30  1  0  0  0
 25 26  1  0  0  0
 25 29  1  0  0  0
 26 27  2  0  0  0
 26 51  1  0  0  0
 27 52  1  0  0  0
 28 53  1  0  0  0
 28 54  1  0  0  0
 28 55  1  0  0  0
 29 56  1  0  0  0
 30 31  1  0  0  0
 30 57  1  0  0  0
 30 58  1  0  0  0
 31 59  1  0  0  0
M  END
> <s_m_entry_id>
3385

> <s_m_entry_name>
dock_pv.477

> <s_m_Source_Path>
/home/csk/Desktop/cluster/DUD-E-result/adrb1

> <s_m_Source_File>
dock_pv.maegz

> <i_m_Source_File_Index>
477

> <chembl_id>
CHEMBL1258485

> <chembl_pref_name>
None

> <i_lp_mmshare_version>
53161

> <i_f3d_flags>
0

> <r_lp_tautomer_probability>
1

> <s_lp_Force_Field>
OPLS_2005

> <r_lp_Energy>
38.64937

> <b_lp_Chiralities_Consistent>
1

> <s_lp_Variant>
CHEMBL213_lig1394-1

> <s_i_glide_gridfile>
glide-grid_2vt4

> <i_i_glide_lignum>
1691

> <i_i_glide_rotatable_bonds>
11

> <r_i_docking_score>
-6.84352134426924

> <r_i_glide_ligand_efficiency>
-0.220758753040943

> <r_i_glide_ligand_efficiency_sa>
-0.69348727485506

> <r_i_glide_ligand_efficiency_ln>
-1.54342379187445

> <r_i_glide_gscore>
-6.84352134426924

> <r_i_glide_lipo>
-2.74154959767656

> <r_i_glide_hbond>
-0.700746383152243

> <r_i_glide_metal>
0

> <r_i_glide_rewards>
-0.918757245968637

> <r_i_glide_evdw>
-39.9205856323242

> <r_i_glide_ecoul>
-8.64063835144043

> <r_i_glide_erotb>
0.80965691686048

> <r_i_glide_esite>
0

> <r_i_glide_emodel>
-54.3825966955348

> <r_i_glide_energy>
-48.5612239837646

> <r_i_glide_einternal>
20.2831382751465

> <i_i_glide_confnum>
83

> <i_i_glide_posenum>
296

> <r_i_glide_eff_state_penalty>
0

> <s_user_duplicate_titles>
CHEMBL213_lig1394

> <s_m_subgroup_title>
dock_pv

> <s_m_subgroupid>
dock_pv

> <b_m_subgroup_collapsed>
1

$$$$
CHEMBL213_lig1021
                    3D
 Schrodinger Suite 2021-1.
 65 67  0  0  1  0            999 V2000
   36.1280    2.5293   -2.5193 C   0  0  0  0  0  0
   36.2481    3.7738   -3.4256 C   0  0  0  0  0  0
   37.3331    3.5238   -4.5013 C   0  0  0  0  0  0
   29.6560    4.3366   -3.8205 C   0  0  0  0  0  0
   30.6161    5.2300   -3.3515 C   0  0  0  0  0  0
   31.8385    5.3575   -4.0060 C   0  0  0  0  0  0
   32.1301    4.6036   -5.1504 C   0  0  0  0  0  0
   28.4724    4.2499   -3.1370 O   0  0  0  0  0  0
   33.4637    4.7820   -5.8914 C   0  0  2  0  0  0
   34.7115    4.9880   -4.9947 C   0  0  0  0  0  0
   33.4080    5.8501   -6.8189 O   0  0  0  0  0  0
   34.9324    3.8687   -4.0742 N   0  0  1  0  0  0
   36.6587    5.0450   -2.6189 C   0  0  0  0  0  0
   36.0076    5.2822   -1.2596 C   0  0  0  0  0  0
   34.6445    5.5568   -1.1650 C   0  0  0  0  0  0
   34.0786    5.8500    0.0716 C   0  0  0  0  0  0
   34.8715    5.8784    1.2217 C   0  0  0  0  0  0
   36.2406    5.5869    1.1268 C   0  0  0  0  0  0
   36.7999    5.2835   -0.1096 C   0  0  0  0  0  0
   34.2105    6.2336    2.4111 N   0  0  0  0  0  0
   34.6427    6.1995    3.6916 C   0  0  0  0  0  0
   29.9229    3.5643   -4.9630 C   0  0  0  0  0  0
   31.1544    3.7107   -5.6196 C   0  0  0  0  0  0
   31.3652    3.0496   -6.8170 O   0  0  0  0  0  0
   30.6740    1.7937   -6.9737 C   0  0  0  0  0  0
   29.1816    1.8437   -6.5482 C   0  0  0  0  0  0
   28.9763    2.6953   -5.5249 N   0  0  0  0  0  0
   28.2900    1.1939   -7.0890 O   0  0  0  0  0  0
   33.6504    6.6284    4.7862 C   0  0  0  0  0  0
   35.7706    5.8500    4.0443 O   0  0  0  0  0  0
   32.1706    6.7712    4.3512 C   0  0  0  0  0  0
   31.2494    7.0500    5.5483 C   0  0  0  0  0  0
   29.8601    7.0499    5.1267 N   0  0  0  0  0  0
   37.0077    2.3995   -1.8979 H   0  0  0  0  0  0
   35.2772    2.6075   -1.8410 H   0  0  0  0  0  0
   35.9859    1.6125   -3.0931 H   0  0  0  0  0  0
   38.3155    3.4488   -4.0332 H   0  0  0  0  0  0
   37.1453    2.6202   -5.0803 H   0  0  0  0  0  0
   37.4250    4.3458   -5.2104 H   0  0  0  0  0  0
   30.4096    5.8280   -2.4767 H   0  0  0  0  0  0
   32.5565    6.0594   -3.6189 H   0  0  0  0  0  0
   28.1818    3.3377   -3.0101 H   0  0  0  0  0  0
   33.6536    3.8852   -6.4843 H   0  0  0  0  0  0
   35.5683    5.1138   -5.6556 H   0  0  0  0  0  0
   34.6082    5.8928   -4.4059 H   0  0  0  0  0  0
   34.2529    6.3316   -6.8150 H   0  0  0  0  0  0
   34.7196    2.9884   -4.5202 H   0  0  0  0  0  0
   37.7377    5.0137   -2.4547 H   0  0  0  0  0  0
   36.5189    5.9422   -3.2151 H   0  0  0  0  0  0
   34.0287    5.5489   -2.0493 H   0  0  0  0  0  0
   33.0220    6.0764    0.1257 H   0  0  0  0  0  0
   36.8978    5.6090    1.9817 H   0  0  0  0  0  0
   37.8581    5.0695   -0.1741 H   0  0  0  0  0  0
   33.2636    6.5516    2.2744 H   0  0  0  0  0  0
   31.1388    1.0499   -6.3276 H   0  0  0  0  0  0
   30.7418    1.4508   -8.0066 H   0  0  0  0  0  0
   28.0233    2.7160   -5.1879 H   0  0  0  0  0  0
   33.7124    5.8798    5.5789 H   0  0  0  0  0  0
   34.0061    7.5667    5.2120 H   0  0  0  0  0  0
   32.0698    7.5804    3.6229 H   0  0  0  0  0  0
   31.8511    5.8504    3.8567 H   0  0  0  0  0  0
   31.4081    6.2999    6.3236 H   0  0  0  0  0  0
   31.4794    8.0196    5.9846 H   0  0  0  0  0  0
   29.7005    7.8355    4.5123 H   0  0  0  0  0  0
   29.6776    6.2276    4.5635 H   0  0  0  0  0  0
  1  2  1  0  0  0
  1 34  1  0  0  0
  1 35  1  0  0  0
  1 36  1  0  0  0
  2  3  1  0  0  0
  2 12  1  0  0  0
  2 13  1  0  0  0
  3 37  1  0  0  0
  3 38  1  0  0  0
  3 39  1  0  0  0
  4  8  1  0  0  0
  4  5  1  0  0  0
  4 22  2  0  0  0
  5  6  2  0  0  0
  5 40  1  0  0  0
  6  7  1  0  0  0
  6 41  1  0  0  0
  7  9  1  0  0  0
  7 23  2  0  0  0
  8 42  1  0  0  0
  9 10  1  0  0  0
  9 11  1  0  0  0
  9 43  1  0  0  0
 10 12  1  0  0  0
 10 44  1  0  0  0
 10 45  1  0  0  0
 11 46  1  0  0  0
 12 47  1  0  0  0
 13 14  1  0  0  0
 13 48  1  0  0  0
 13 49  1  0  0  0
 14 19  1  0  0  0
 14 15  2  0  0  0
 15 16  1  0  0  0
 15 50  1  0  0  0
 16 17  2  0  0  0
 16 51  1  0  0  0
 17 18  1  0  0  0
 17 20  1  0  0  0
 18 19  2  0  0  0
 18 52  1  0  0  0
 19 53  1  0  0  0
 20 21  1  0  0  0
 20 54  1  0  0  0
 21 29  1  0  0  0
 21 30  2  0  0  0
 22 23  1  0  0  0
 22 27  1  0  0  0
 23 24  1  0  0  0
 24 25  1  0  0  0
 25 26  1  0  0  0
 25 55  1  0  0  0
 25 56  1  0  0  0
 26 27  1  0  0  0
 26 28  2  0  0  0
 27 57  1  0  0  0
 29 31  1  0  0  0
 29 58  1  0  0  0
 29 59  1  0  0  0
 31 32  1  0  0  0
 31 60  1  0  0  0
 31 61  1  0  0  0
 32 33  1  0  0  0
 32 62  1  0  0  0
 32 63  1  0  0  0
 33 64  1  0  0  0
 33 65  1  0  0  0
M  END
> <s_m_entry_id>
3386

> <s_m_entry_name>
dock_pv.478

> <s_m_Source_Path>
/home/csk/Desktop/cluster/DUD-E-result/adrb1

> <s_m_Source_File>
dock_pv.maegz

> <i_m_Source_File_Index>
478

> <chembl_id>
CHEMBL577702

> <chembl_pref_name>
None

> <i_lp_mmshare_version>
53161

> <i_f3d_flags>
0

> <r_lp_tautomer_probability>
1

> <s_lp_Force_Field>
OPLS_2005

> <r_lp_Energy>
31.962724

> <b_lp_Chiralities_Consistent>
1

> <s_lp_Variant>
CHEMBL213_lig1021-1

> <s_i_glide_gridfile>
glide-grid_2vt4

> <i_i_glide_lignum>
1163

> <i_i_glide_rotatable_bonds>
13

> <r_i_docking_score>
-6.84179959766185

> <r_i_glide_ligand_efficiency>
-0.207327260535208

> <r_i_glide_ligand_efficiency_sa>
-0.665009304935598

> <r_i_glide_ligand_efficiency_ln>
-1.52158080557758

> <r_i_glide_gscore>
-6.84179959766185

> <r_i_glide_lipo>
-1.63573553897866

> <r_i_glide_hbond>
-0.934931103958523

> <r_i_glide_metal>
0

> <r_i_glide_rewards>
-0.789557732967978

> <r_i_glide_evdw>
-49.6192207336426

> <r_i_glide_ecoul>
-13.0780754089355

> <r_i_glide_erotb>
0.964273159736915

> <r_i_glide_esite>
-0.00317603347114648

> <r_i_glide_emodel>
-83.0657510479657

> <r_i_glide_energy>
-62.6972961425781

> <r_i_glide_einternal>
11.8651847839355

> <i_i_glide_confnum>
26

> <i_i_glide_posenum>
91

> <r_i_glide_eff_state_penalty>
0

> <s_user_duplicate_titles>
CHEMBL213_lig1021

> <s_m_subgroup_title>
dock_pv

> <s_m_subgroupid>
dock_pv

> <b_m_subgroup_collapsed>
1

$$$$
CHEMBL213_lig433
                    3D
 Schrodinger Suite 2021-1.
 59 61  0  0  1  0            999 V2000
   27.3028    6.2192    4.7128 C   0  0  0  0  0  0
   29.4307    6.7212    4.6918 C   0  0  0  0  0  0
   27.6343    5.6771    3.4361 C   0  0  0  0  0  0
   28.3347    6.8067    5.3804 N   0  0  0  0  0  0
   29.3705    5.8502    3.1851 S   0  0  0  0  0  0
   29.5075    5.3515   -3.6420 S   0  0  0  0  0  0
   25.9818    6.1188    5.1867 C   0  0  0  0  0  0
   27.6385    5.6691   -3.5558 C   0  0  0  0  0  0
   26.6537    5.1051    2.6033 C   0  0  0  0  0  0
   30.1376    5.8473   -2.4155 O   0  0  0  0  0  0
   29.9652    5.8490   -4.9414 O   0  0  0  0  0  0
   30.6148    7.1885    5.1854 O   0  0  0  0  0  0
   25.0498    5.4500    4.4084 C   0  0  0  0  0  0
   25.3772    4.9550    3.1503 C   0  0  0  0  0  0
   29.7106    3.4697   -3.6433 C   0  0  0  0  0  0
   27.4085    5.2990   -1.1387 N   0  0  2  0  0  0
   25.5893    6.6491    6.3850 O   0  0  0  0  0  0
   30.9295    3.0068   -4.4773 C   0  0  0  0  0  0
   27.1607    6.2465   -2.2129 C   0  0  0  0  0  0
   35.1321    5.8483   -1.3975 C   0  0  0  0  0  0
   32.5364    3.4017   -2.7049 O   0  0  0  0  0  0
   26.9081    4.6526    1.1699 C   0  0  0  0  0  0
   32.2828    3.6303   -4.0861 C   0  0  0  0  0  0
   26.8424    5.7738    0.1205 C   0  0  0  0  0  0
   33.9077    5.3883   -2.1721 C   0  0  0  0  0  0
   33.8038    3.8524   -2.2328 C   0  0  0  0  0  0
   36.3859    5.8492   -2.0149 C   0  0  0  0  0  0
   35.0065    6.2500   -0.0653 C   0  0  0  0  0  0
   36.1315    6.6502    0.6504 C   0  0  0  0  0  0
   37.5097    6.2535   -1.3008 C   0  0  0  0  0  0
   37.3789    6.6529    0.0282 C   0  0  0  0  0  0
   27.4071    6.3674   -4.3590 H   0  0  0  0  0  0
   27.1223    4.7384   -3.7892 H   0  0  0  0  0  0
   31.2275    7.3989    4.4754 H   0  0  0  0  0  0
   24.0452    5.3272    4.7854 H   0  0  0  0  0  0
   24.6020    4.4805    2.5644 H   0  0  0  0  0  0
   28.7855    3.0409   -4.0250 H   0  0  0  0  0  0
   29.8082    3.1587   -2.6038 H   0  0  0  0  0  0
   28.4110    5.1892   -1.0390 H   0  0  0  0  0  0
   26.2051    7.3061    6.7519 H   0  0  0  0  0  0
   30.7396    3.2175   -5.5301 H   0  0  0  0  0  0
   31.0093    1.9215   -4.4006 H   0  0  0  0  0  0
   27.7298    7.1506   -1.9887 H   0  0  0  0  0  0
   26.1030    6.5151   -2.2764 H   0  0  0  0  0  0
   26.2414    3.8323    0.8948 H   0  0  0  0  0  0
   27.9059    4.2501    1.1414 H   0  0  0  0  0  0
   32.2859    4.6972   -4.3138 H   0  0  0  0  0  0
   33.0711    3.1774   -4.6903 H   0  0  0  0  0  0
   27.3839    6.6503    0.4778 H   0  0  0  0  0  0
   25.8077    6.0824   -0.0158 H   0  0  0  0  0  0
   33.0096    5.7997   -1.7075 H   0  0  0  0  0  0
   33.9434    5.8164   -3.1732 H   0  0  0  0  0  0
   34.6092    3.4251   -2.8341 H   0  0  0  0  0  0
   33.9299    3.4524   -1.2264 H   0  0  0  0  0  0
   36.4946    5.5411   -3.0461 H   0  0  0  0  0  0
   34.0399    6.2514    0.4171 H   0  0  0  0  0  0
   36.0383    6.9584    1.6822 H   0  0  0  0  0  0
   38.4807    6.2512   -1.7761 H   0  0  0  0  0  0
   38.2537    6.9603    0.5806 H   0  0  0  0  0  0
  1  3  2  0  0  0
  1  4  1  0  0  0
  1  7  1  0  0  0
  2  4  2  0  0  0
  2  5  1  0  0  0
  2 12  1  0  0  0
  3  5  1  0  0  0
  3  9  1  0  0  0
  6  8  1  0  0  0
  6 10  2  0  0  0
  6 11  2  0  0  0
  6 15  1  0  0  0
  7 13  2  0  0  0
  7 17  1  0  0  0
  8 19  1  0  0  0
  8 32  1  0  0  0
  8 33  1  0  0  0
  9 14  2  0  0  0
  9 22  1  0  0  0
 12 34  1  0  0  0
 13 14  1  0  0  0
 13 35  1  0  0  0
 14 36  1  0  0  0
 15 18  1  0  0  0
 15 37  1  0  0  0
 15 38  1  0  0  0
 16 19  1  0  0  0
 16 24  1  0  0  0
 16 39  1  0  0  0
 17 40  1  0  0  0
 18 23  1  0  0  0
 18 41  1  0  0  0
 18 42  1  0  0  0
 19 43  1  0  0  0
 19 44  1  0  0  0
 20 25  1  0  0  0
 20 27  2  0  0  0
 20 28  1  0  0  0
 21 23  1  0  0  0
 21 26  1  0  0  0
 22 24  1  0  0  0
 22 45  1  0  0  0
 22 46  1  0  0  0
 23 47  1  0  0  0
 23 48  1  0  0  0
 24 49  1  0  0  0
 24 50  1  0  0  0
 25 26  1  0  0  0
 25 51  1  0  0  0
 25 52  1  0  0  0
 26 53  1  0  0  0
 26 54  1  0  0  0
 27 30  1  0  0  0
 27 55  1  0  0  0
 28 29  2  0  0  0
 28 56  1  0  0  0
 29 31  1  0  0  0
 29 57  1  0  0  0
 30 31  2  0  0  0
 30 58  1  0  0  0
 31 59  1  0  0  0
M  END
> <s_m_entry_id>
3387

> <s_m_entry_name>
dock_pv.479

> <s_m_Source_Path>
/home/csk/Desktop/cluster/DUD-E-result/adrb1

> <s_m_Source_File>
dock_pv.maegz

> <i_m_Source_File_Index>
479

> <chembl_id>
CHEMBL82663

> <chembl_pref_name>
SIBENADET

> <i_lp_mmshare_version>
53161

> <i_f3d_flags>
0

> <r_lp_tautomer_probability>
1

> <s_lp_Force_Field>
OPLS_2005

> <r_lp_Energy>
3.912372

> <b_lp_Chiralities_Consistent>
1

> <s_lp_Variant>
CHEMBL213_lig433-1

> <s_i_glide_gridfile>
glide-grid_2vt4

> <i_i_glide_lignum>
507

> <i_i_glide_rotatable_bonds>
15

> <r_i_docking_score>
-6.84068584152876

> <r_i_glide_ligand_efficiency>
-0.220667285210605

> <r_i_glide_ligand_efficiency_sa>
-0.693199939582849

> <r_i_glide_ligand_efficiency_ln>
-1.54278429910875

> <r_i_glide_gscore>
-6.84068584152876

> <r_i_glide_lipo>
-2.69744439601274

> <r_i_glide_hbond>
-0.505543943332487

> <r_i_glide_metal>
0

> <r_i_glide_rewards>
-1.27692510235219

> <r_i_glide_evdw>
-41.0737800598145

> <r_i_glide_ecoul>
-9.51920413970947

> <r_i_glide_erotb>
1.1207972241158

> <r_i_glide_esite>
0

> <r_i_glide_emodel>
-67.3615982130326

> <r_i_glide_energy>
-50.5929841995239

> <r_i_glide_einternal>
10.417893409729

> <i_i_glide_confnum>
72

> <i_i_glide_posenum>
294

> <r_i_glide_eff_state_penalty>
0

> <s_user_duplicate_titles>
CHEMBL213_lig433

> <s_m_subgroup_title>
dock_pv

> <s_m_subgroupid>
dock_pv

> <b_m_subgroup_collapsed>
1

$$$$
CHEMBL213_lig418
                    3D
 Schrodinger Suite 2021-1.
 61 63  0  0  1  0            999 V2000
   23.9626    4.0013    2.7848 C   0  0  0  0  0  0
   24.5449    4.6499    3.8793 C   0  0  0  0  0  0
   25.9824    4.3459    1.4791 C   0  0  0  0  0  0
   24.6732    3.8499    1.5944 C   0  0  0  0  0  0
   26.5923    4.8921    2.6223 C   0  0  0  0  0  0
   25.8711    5.0747    3.7990 C   0  0  0  0  0  0
   26.5953    5.7292    4.7841 N   0  0  0  0  0  0
   27.9037    6.0628    4.5077 C   0  0  0  0  0  0
   28.2502    5.4502    2.8199 S   0  0  0  0  0  0
   28.7019    6.6498    5.2359 O   0  0  0  0  0  0
   23.8089    4.8573    5.0267 O   0  0  0  0  0  0
   26.6651    4.4277    0.1084 C   0  0  2  0  0  0
   26.4811    5.8582   -0.4636 C   0  0  0  0  0  0
   26.2081    3.4501   -0.8148 O   0  0  0  0  0  0
   27.5291    6.2282   -1.4112 N   0  0  1  0  0  0
   27.0205    6.3717   -2.7616 C   0  0  0  0  0  0
   28.1502    6.7670   -3.7193 C   0  0  0  0  0  0
   29.6796    5.6418   -3.6636 S   0  0  0  0  0  0
   29.0343    3.8686   -3.5999 C   0  0  0  0  0  0
   28.5855    3.4044   -4.9867 C   0  0  0  0  0  0
   28.5939    1.8781   -5.1734 C   0  0  0  0  0  0
   28.5721    1.4696   -6.5805 N   0  0  1  0  0  0
   29.6536    1.9606   -7.4398 C   0  0  0  0  0  0
   31.0643    1.4965   -7.0096 C   0  0  0  0  0  0
   32.1205    2.5905   -7.0996 C   0  0  0  0  0  0
   33.0078    2.6366   -8.1799 C   0  0  0  0  0  0
   33.9641    3.6507   -8.2635 C   0  0  0  0  0  0
   34.0466    4.6168   -7.2607 C   0  0  0  0  0  0
   33.1811    4.5618   -6.1694 C   0  0  0  0  0  0
   32.2273    3.5485   -6.0861 C   0  0  0  0  0  0
   30.4069    5.8499   -2.4131 O   0  0  0  0  0  0
   30.3994    5.8496   -4.9224 O   0  0  0  0  0  0
   35.0307    3.7143   -9.6166 Cl  0  0  0  0  0  0
   22.9422    3.6534    2.8369 H   0  0  0  0  0  0
   24.1738    3.4181    0.7371 H   0  0  0  0  0  0
   26.1835    5.9885    5.6685 H   0  0  0  0  0  0
   22.8819    4.6220    4.9304 H   0  0  0  0  0  0
   27.7292    4.2501    0.2660 H   0  0  0  0  0  0
   26.5784    6.5755    0.3541 H   0  0  0  0  0  0
   25.4692    6.0010   -0.8517 H   0  0  0  0  0  0
   25.9924    3.8622   -1.6617 H   0  0  0  0  0  0
   27.9966    7.0782   -1.1214 H   0  0  0  0  0  0
   26.2231    7.1145   -2.7924 H   0  0  0  0  0  0
   26.6101    5.4160   -3.0716 H   0  0  0  0  0  0
   28.4963    7.7829   -3.5393 H   0  0  0  0  0  0
   27.7757    6.7286   -4.7367 H   0  0  0  0  0  0
   28.2299    3.8495   -2.8678 H   0  0  0  0  0  0
   29.8463    3.2564   -3.2121 H   0  0  0  0  0  0
   29.2950    3.8418   -5.6778 H   0  0  0  0  0  0
   27.5963    3.8036   -5.2150 H   0  0  0  0  0  0
   27.7266    1.4498   -4.6723 H   0  0  0  0  0  0
   29.4536    1.4367   -4.6702 H   0  0  0  0  0  0
   28.4387    0.4708   -6.6494 H   0  0  0  0  0  0
   29.5878    3.0430   -7.5786 H   0  0  0  0  0  0
   29.4360    1.5302   -8.4150 H   0  0  0  0  0  0
   31.3783    0.6498   -7.6140 H   0  0  0  0  0  0
   31.0658    1.1166   -5.9908 H   0  0  0  0  0  0
   32.9456    1.8986   -8.9661 H   0  0  0  0  0  0
   34.7786    5.4097   -7.3231 H   0  0  0  0  0  0
   33.2450    5.3109   -5.3924 H   0  0  0  0  0  0
   31.5683    3.5139   -5.2318 H   0  0  0  0  0  0
  1  4  1  0  0  0
  1  2  2  0  0  0
  1 34  1  0  0  0
  2 11  1  0  0  0
  2  6  1  0  0  0
  3 12  1  0  0  0
  3  5  1  0  0  0
  3  4  2  0  0  0
  4 35  1  0  0  0
  5  9  1  0  0  0
  5  6  2  0  0  0
  6  7  1  0  0  0
  7  8  1  0  0  0
  7 36  1  0  0  0
  8  9  1  0  0  0
  8 10  2  0  0  0
 11 37  1  0  0  0
 12 13  1  0  0  0
 12 14  1  0  0  0
 12 38  1  0  0  0
 13 15  1  0  0  0
 13 39  1  0  0  0
 13 40  1  0  0  0
 14 41  1  0  0  0
 15 16  1  0  0  0
 15 42  1  0  0  0
 16 17  1  0  0  0
 16 43  1  0  0  0
 16 44  1  0  0  0
 17 18  1  0  0  0
 17 45  1  0  0  0
 17 46  1  0  0  0
 18 19  1  0  0  0
 18 31  2  0  0  0
 18 32  2  0  0  0
 19 20  1  0  0  0
 19 47  1  0  0  0
 19 48  1  0  0  0
 20 21  1  0  0  0
 20 49  1  0  0  0
 20 50  1  0  0  0
 21 22  1  0  0  0
 21 51  1  0  0  0
 21 52  1  0  0  0
 22 23  1  0  0  0
 22 53  1  0  0  0
 23 24  1  0  0  0
 23 54  1  0  0  0
 23 55  1  0  0  0
 24 25  1  0  0  0
 24 56  1  0  0  0
 24 57  1  0  0  0
 25 26  2  0  0  0
 25 30  1  0  0  0
 26 27  1  0  0  0
 26 58  1  0  0  0
 27 28  2  0  0  0
 27 33  1  0  0  0
 28 29  1  0  0  0
 28 59  1  0  0  0
 29 30  2  0  0  0
 29 60  1  0  0  0
 30 61  1  0  0  0
M  END
> <s_m_entry_id>
3388

> <s_m_entry_name>
dock_pv.480

> <s_m_Source_Path>
/home/csk/Desktop/cluster/DUD-E-result/adrb1

> <s_m_Source_File>
dock_pv.maegz

> <i_m_Source_File_Index>
480

> <chembl_id>
CHEMBL1807831

> <chembl_pref_name>
None

> <i_lp_mmshare_version>
53161

> <i_f3d_flags>
0

> <r_lp_tautomer_probability>
1

> <s_lp_Force_Field>
OPLS_2005

> <r_lp_Energy>
27.822553

> <b_lp_Chiralities_Consistent>
1

> <s_lp_Variant>
CHEMBL213_lig418-1

> <s_i_glide_gridfile>
glide-grid_2vt4

> <i_i_glide_lignum>
491

> <i_i_glide_rotatable_bonds>
15

> <r_i_docking_score>
-6.83824053293822

> <r_i_glide_ligand_efficiency>
-0.207219410089037

> <r_i_glide_ligand_efficiency_sa>
-0.664663370927403

> <r_i_glide_ligand_efficiency_ln>
-1.5207892880109

> <r_i_glide_gscore>
-6.83824053293822

> <r_i_glide_lipo>
-3.39548651802928

> <r_i_glide_hbond>
-0.350510263609266

> <r_i_glide_metal>
0

> <r_i_glide_rewards>
-0.658574447233229

> <r_i_glide_evdw>
-49.597095489502

> <r_i_glide_ecoul>
-5.90124750137329

> <r_i_glide_erotb>
0.931372595614641

> <r_i_glide_esite>
0

> <r_i_glide_emodel>
-68.5412668566859

> <r_i_glide_energy>
-55.4983429908752

> <r_i_glide_einternal>
19.1680297851562

> <i_i_glide_confnum>
15

> <i_i_glide_posenum>
294

> <r_i_glide_eff_state_penalty>
0

> <s_user_duplicate_titles>
CHEMBL213_lig418

> <s_m_subgroup_title>
dock_pv

> <s_m_subgroupid>
dock_pv

> <b_m_subgroup_collapsed>
1

$$$$
CHEMBL213_lig676
                    3D
 Schrodinger Suite 2021-1.
 55 57  0  0  1  0            999 V2000
   29.8381    7.8374    4.9837 C   0  0  0  0  0  0
   30.7197    7.3802    4.0085 C   0  0  0  0  0  0
   30.3571    6.3195    3.1856 C   0  0  0  0  0  0
   29.1160    5.7061    3.3458 C   0  0  0  0  0  0
   28.2228    6.1502    4.3287 C   0  0  0  0  0  0
   28.6059    7.2092    5.1652 C   0  0  0  0  0  0
   31.4189    5.8187    1.9269 Cl  0  0  0  0  0  0
   26.8592    5.4649    4.4365 C   0  0  2  0  0  0
   26.0659    5.5511    3.1044 C   0  0  0  0  0  0
   26.0341    5.9515    5.4832 O   0  0  0  0  0  0
   25.4864    4.2506    2.7785 N   0  0  2  0  0  0
   25.1516    3.9924    1.3749 C   0  0  1  0  0  0
   26.3527    4.1444    0.3907 C   0  0  0  0  0  0
   24.5991    2.5627    1.3408 C   0  0  0  0  0  0
   26.2933    5.3641   -0.4129 N   0  0  0  0  0  0
   27.2437    5.6336   -1.4115 C   0  0  0  0  0  0
   28.4840    4.9857   -1.5267 C   0  0  0  0  0  0
   29.3391    5.2683   -2.6044 C   0  0  0  0  0  0
   28.9513    6.2308   -3.5449 C   0  0  0  0  0  0
   27.7340    6.8917   -3.4237 C   0  0  0  0  0  0
   26.8866    6.5877   -2.3629 C   0  0  0  0  0  0
   30.6456    4.5723   -2.7734 C   0  0  0  0  0  0
   31.6538    4.8328   -1.8390 C   0  0  0  0  0  0
   32.9462    4.3448   -2.0146 C   0  0  0  0  0  0
   33.2473    3.5605   -3.1216 C   0  0  0  0  0  0
   32.2508    3.2593   -4.0454 C   0  0  0  0  0  0
   30.9414    3.7342   -3.8780 C   0  0  0  0  0  0
   29.9189    3.3578   -4.9210 C   0  0  0  0  0  0
   28.6845    3.0506   -4.4317 O   0  0  0  0  0  0
   30.2050    3.2927   -6.1157 O   0  0  0  0  0  0
   30.1180    8.6845    5.5849 H   0  0  0  0  0  0
   31.6784    7.8592    3.8733 H   0  0  0  0  0  0
   28.8446    4.8870    2.6954 H   0  0  0  0  0  0
   27.9475    7.5650    5.9431 H   0  0  0  0  0  0
   27.0907    4.4244    4.6754 H   0  0  0  0  0  0
   25.2962    6.3164    3.1842 H   0  0  0  0  0  0
   26.7180    5.8725    2.2927 H   0  0  0  0  0  0
   26.5387    5.9597    6.2984 H   0  0  0  0  0  0
   24.6638    4.1074    3.3449 H   0  0  0  0  0  0
   24.3366    4.6480    1.0704 H   0  0  0  0  0  0
   27.3071    4.0950    0.9175 H   0  0  0  0  0  0
   26.3812    3.3048   -0.3105 H   0  0  0  0  0  0
   24.2300    2.3077    0.3456 H   0  0  0  0  0  0
   25.3785    1.8485    1.6036 H   0  0  0  0  0  0
   23.7714    2.4218    2.0360 H   0  0  0  0  0  0
   25.3559    5.5930   -0.7183 H   0  0  0  0  0  0
   28.7785    4.2385   -0.8042 H   0  0  0  0  0  0
   29.5959    6.4647   -4.3811 H   0  0  0  0  0  0
   27.4386    7.6252   -4.1608 H   0  0  0  0  0  0
   25.9252    7.0725   -2.3032 H   0  0  0  0  0  0
   31.4481    5.4503   -0.9775 H   0  0  0  0  0  0
   33.7137    4.5744   -1.2881 H   0  0  0  0  0  0
   34.2501    3.1844   -3.2673 H   0  0  0  0  0  0
   32.5082    2.6515   -4.9016 H   0  0  0  0  0  0
   28.6702    2.9283   -3.4763 H   0  0  0  0  0  0
  1  6  1  0  0  0
  1  2  2  0  0  0
  1 31  1  0  0  0
  2  3  1  0  0  0
  2 32  1  0  0  0
  3  4  2  0  0  0
  3  7  1  0  0  0
  4  5  1  0  0  0
  4 33  1  0  0  0
  5  8  1  0  0  0
  5  6  2  0  0  0
  6 34  1  0  0  0
  8  9  1  0  0  0
  8 10  1  0  0  0
  8 35  1  0  0  0
  9 11  1  0  0  0
  9 36  1  0  0  0
  9 37  1  0  0  0
 10 38  1  0  0  0
 11 12  1  0  0  0
 11 39  1  0  0  0
 12 13  1  0  0  0
 12 14  1  0  0  0
 12 40  1  0  0  0
 13 15  1  0  0  0
 13 41  1  0  0  0
 13 42  1  0  0  0
 14 43  1  0  0  0
 14 44  1  0  0  0
 14 45  1  0  0  0
 15 16  1  0  0  0
 15 46  1  0  0  0
 16 17  2  0  0  0
 16 21  1  0  0  0
 17 18  1  0  0  0
 17 47  1  0  0  0
 18 19  2  0  0  0
 18 22  1  0  0  0
 19 20  1  0  0  0
 19 48  1  0  0  0
 20 21  2  0  0  0
 20 49  1  0  0  0
 21 50  1  0  0  0
 22 23  2  0  0  0
 22 27  1  0  0  0
 23 24  1  0  0  0
 23 51  1  0  0  0
 24 25  2  0  0  0
 24 52  1  0  0  0
 25 26  1  0  0  0
 25 53  1  0  0  0
 26 27  2  0  0  0
 26 54  1  0  0  0
 27 28  1  0  0  0
 28 29  1  0  0  0
 28 30  2  0  0  0
 29 55  1  0  0  0
M  END
> <s_m_entry_id>
3389

> <s_m_entry_name>
dock_pv.481

> <s_m_Source_Path>
/home/csk/Desktop/cluster/DUD-E-result/adrb1

> <s_m_Source_File>
dock_pv.maegz

> <i_m_Source_File_Index>
481

> <chembl_id>
CHEMBL377028

> <chembl_pref_name>
None

> <i_lp_mmshare_version>
53161

> <i_f3d_flags>
0

> <r_lp_tautomer_probability>
1

> <s_lp_Force_Field>
OPLS_2005

> <r_lp_Energy>
35.19561

> <b_lp_Chiralities_Consistent>
1

> <s_lp_Variant>
CHEMBL213_lig676-1

> <s_i_glide_gridfile>
glide-grid_2vt4

> <i_i_glide_lignum>
778

> <i_i_glide_rotatable_bonds>
11

> <r_i_docking_score>
-6.8301476225714

> <r_i_glide_ligand_efficiency>
-0.227671587419047

> <r_i_glide_ligand_efficiency_sa>
-0.707428556308543

> <r_i_glide_ligand_efficiency_ln>
-1.55188396026718

> <r_i_glide_gscore>
-6.8301476225714

> <r_i_glide_lipo>
-3.2906135127613

> <r_i_glide_hbond>
0

> <r_i_glide_metal>
0

> <r_i_glide_rewards>
-1.03367978171241

> <r_i_glide_evdw>
-48.7957305908203

> <r_i_glide_ecoul>
-6.04439926147461

> <r_i_glide_erotb>
0.878732154091492

> <r_i_glide_esite>
-0.0381400634269691

> <r_i_glide_emodel>
-65.176583042192

> <r_i_glide_energy>
-54.8401298522949

> <r_i_glide_einternal>
17.8121318817139

> <i_i_glide_confnum>
53

> <i_i_glide_posenum>
290

> <r_i_glide_eff_state_penalty>
0

> <s_user_duplicate_titles>
CHEMBL213_lig676

> <s_m_subgroup_title>
dock_pv

> <s_m_subgroupid>
dock_pv

> <b_m_subgroup_collapsed>
1

$$$$
CHEMBL213_lig1414
                    3D
 Schrodinger Suite 2021-1.
 67 71  0  0  1  0            999 V2000
   27.3997    6.2669   -2.9148 N   0  0  1  0  0  0
   27.5601    5.7250   -1.5836 C   0  0  0  0  0  0
   26.9740    6.6178   -0.4849 C   0  0  0  0  0  0
   27.2877    5.9950    0.8888 C   0  0  0  0  0  0
   26.7397    4.6478    1.0791 N   0  0  0  0  0  0
   27.1215    3.7811   -0.0526 C   0  0  0  0  0  0
   26.8652    4.3693   -1.4360 C   0  0  0  0  0  0
   25.7290    4.3703    1.9940 C   0  0  0  0  0  0
   24.6546    3.7490    1.4397 N   0  0  0  0  0  0
   23.5152    3.7322    2.1565 C   0  0  0  0  0  0
   23.3210    4.2131    3.4003 N   0  0  0  0  0  0
   25.6985    4.8432    3.3533 C   0  0  0  0  0  0
   24.4225    4.6634    3.9968 C   0  0  0  0  0  0
   24.3005    5.4499    5.5817 S   0  0  0  0  0  0
   25.9922    5.8567    5.4434 C   0  0  0  0  0  0
   26.6432    5.4972    4.2591 C   0  0  0  0  0  0
   28.3291    5.6493   -3.8588 C   0  0  0  0  0  0
   29.7263    6.3125   -3.9195 C   0  0  1  0  0  0
   30.7071    5.5505   -4.8395 C   0  0  0  0  0  0
   29.5936    7.6379   -4.4150 O   0  0  0  0  0  0
   31.1248    4.2966   -4.2875 O   0  0  0  0  0  0
   32.3044    4.2282   -3.5677 C   0  0  0  0  0  0
   32.9560    2.9977   -3.5164 C   0  0  0  0  0  0
   34.1745    2.8576   -2.8495 C   0  0  0  0  0  0
   34.7371    3.9477   -2.1904 C   0  0  0  0  0  0
   34.0858    5.1864   -2.1942 C   0  0  0  0  0  0
   32.8726    5.3094   -2.8822 C   0  0  0  0  0  0
   28.1045    5.8236    4.0368 C   0  0  0  0  0  0
   28.9072    5.0538    3.1860 C   0  0  0  0  0  0
   30.1692    5.4936    2.7853 C   0  0  0  0  0  0
   30.6978    6.6460    3.3677 C   0  0  0  0  0  0
   29.9632    7.3659    4.3083 C   0  0  0  0  0  0
   28.6639    6.9705    4.6215 C   0  0  0  0  0  0
   34.6469    6.3982   -1.4500 C   0  0  0  0  0  0
   36.1733    6.4158   -1.2528 C   0  0  0  0  0  0
   26.4655    6.0111   -3.2178 H   0  0  0  0  0  0
   28.6243    5.5961   -1.3751 H   0  0  0  0  0  0
   27.4073    7.6141   -0.5496 H   0  0  0  0  0  0
   25.8997    6.7514   -0.6162 H   0  0  0  0  0  0
   28.3628    5.8498    0.9200 H   0  0  0  0  0  0
   27.0118    6.6538    1.7065 H   0  0  0  0  0  0
   28.2037    3.7232   -0.0154 H   0  0  0  0  0  0
   26.7441    2.7613    0.0436 H   0  0  0  0  0  0
   25.8081    4.4909   -1.6108 H   0  0  0  0  0  0
   27.1889    3.6562   -2.1914 H   0  0  0  0  0  0
   22.6188    3.4499    1.6250 H   0  0  0  0  0  0
   26.4341    6.3841    6.2783 H   0  0  0  0  0  0
   27.8455    5.7395   -4.8152 H   0  0  0  0  0  0
   28.4254    4.5768   -3.6880 H   0  0  0  0  0  0
   30.1428    6.3377   -2.9145 H   0  0  0  0  0  0
   31.5731    6.1652   -5.0955 H   0  0  0  0  0  0
   30.2191    5.3497   -5.7950 H   0  0  0  0  0  0
   30.3223    7.8475   -5.0196 H   0  0  0  0  0  0
   32.5116    2.1523   -4.0142 H   0  0  0  0  0  0
   34.6761    1.9013   -2.8208 H   0  0  0  0  0  0
   35.6712    3.8092   -1.6664 H   0  0  0  0  0  0
   32.3617    6.2499   -2.8781 H   0  0  0  0  0  0
   28.5304    4.1296    2.7865 H   0  0  0  0  0  0
   30.7539    4.9150    2.0854 H   0  0  0  0  0  0
   31.6913    6.9749    3.0980 H   0  0  0  0  0  0
   30.3889    8.2507    4.7592 H   0  0  0  0  0  0
   28.0844    7.5893    5.2917 H   0  0  0  0  0  0
   34.1477    6.4757   -0.4826 H   0  0  0  0  0  0
   34.3823    7.2944   -2.0087 H   0  0  0  0  0  0
   36.4910    7.3591   -0.8077 H   0  0  0  0  0  0
   36.6981    6.3056   -2.2047 H   0  0  0  0  0  0
   36.5069    5.6182   -0.5872 H   0  0  0  0  0  0
  1 17  1  0  0  0
  1  2  1  0  0  0
  1 36  1  0  0  0
  2  3  1  0  0  0
  2  7  1  0  0  0
  2 37  1  0  0  0
  3  4  1  0  0  0
  3 38  1  0  0  0
  3 39  1  0  0  0
  4  5  1  0  0  0
  4 40  1  0  0  0
  4 41  1  0  0  0
  5  6  1  0  0  0
  5  8  1  0  0  0
  6  7  1  0  0  0
  6 42  1  0  0  0
  6 43  1  0  0  0
  7 44  1  0  0  0
  7 45  1  0  0  0
  8  9  2  0  0  0
  8 12  1  0  0  0
  9 10  1  0  0  0
 10 11  2  0  0  0
 10 46  1  0  0  0
 11 13  1  0  0  0
 12 13  2  0  0  0
 12 16  1  0  0  0
 13 14  1  0  0  0
 14 15  1  0  0  0
 15 16  2  0  0  0
 15 47  1  0  0  0
 16 28  1  0  0  0
 17 18  1  0  0  0
 17 48  1  0  0  0
 17 49  1  0  0  0
 18 19  1  0  0  0
 18 20  1  0  0  0
 18 50  1  0  0  0
 19 21  1  0  0  0
 19 51  1  0  0  0
 19 52  1  0  0  0
 20 53  1  0  0  0
 21 22  1  0  0  0
 22 23  2  0  0  0
 22 27  1  0  0  0
 23 24  1  0  0  0
 23 54  1  0  0  0
 24 25  2  0  0  0
 24 55  1  0  0  0
 25 26  1  0  0  0
 25 56  1  0  0  0
 26 27  2  0  0  0
 26 34  1  0  0  0
 27 57  1  0  0  0
 28 29  2  0  0  0
 28 33  1  0  0  0
 29 30  1  0  0  0
 29 58  1  0  0  0
 30 31  2  0  0  0
 30 59  1  0  0  0
 31 32  1  0  0  0
 31 60  1  0  0  0
 32 33  2  0  0  0
 32 61  1  0  0  0
 33 62  1  0  0  0
 34 35  1  0  0  0
 34 63  1  0  0  0
 34 64  1  0  0  0
 35 65  1  0  0  0
 35 66  1  0  0  0
 35 67  1  0  0  0
M  END
> <s_m_entry_id>
3390

> <s_m_entry_name>
dock_pv.482

> <s_m_Source_Path>
/home/csk/Desktop/cluster/DUD-E-result/adrb1

> <s_m_Source_File>
dock_pv.maegz

> <i_m_Source_File_Index>
482

> <chembl_id>
CHEMBL1258484

> <chembl_pref_name>
None

> <i_lp_mmshare_version>
53161

> <i_f3d_flags>
0

> <r_lp_tautomer_probability>
1

> <s_lp_Force_Field>
OPLS_2005

> <r_lp_Energy>
43.55949

> <b_lp_Chiralities_Consistent>
1

> <s_lp_Variant>
CHEMBL213_lig1414-2

> <s_i_glide_gridfile>
glide-grid_2vt4

> <i_i_glide_lignum>
1732

> <i_i_glide_rotatable_bonds>
10

> <r_i_docking_score>
-6.82974410907897

> <r_i_glide_ligand_efficiency>
-0.195135545973685

> <r_i_glide_ligand_efficiency_sa>
-0.638301309598316

> <r_i_glide_ligand_efficiency_ln>
-1.49928040994653

> <r_i_glide_gscore>
-6.82974410907897

> <r_i_glide_lipo>
-3.85969100991396

> <r_i_glide_hbond>
-0.328490545371361

> <r_i_glide_metal>
0

> <r_i_glide_rewards>
-1.0504311452077

> <r_i_glide_evdw>
-32.5112457275391

> <r_i_glide_ecoul>
-4.31319618225098

> <r_i_glide_erotb>
0.681410305128655

> <r_i_glide_esite>
0

> <r_i_glide_emodel>
-37.5607121139978

> <r_i_glide_energy>
-36.82444190979

> <r_i_glide_einternal>
11.6155309677124

> <i_i_glide_confnum>
45

> <i_i_glide_posenum>
70

> <r_i_glide_eff_state_penalty>
0

> <s_user_duplicate_titles>
CHEMBL213_lig1414

> <s_m_subgroup_title>
dock_pv

> <s_m_subgroupid>
dock_pv

> <b_m_subgroup_collapsed>
1

$$$$
CHEMBL213_lig1233
                    3D
 Schrodinger Suite 2021-1.
 58 61  0  0  1  0            999 V2000
   26.7097    6.3218    4.7881 S   0  0  0  0  0  0
   26.0167    5.3533    3.4375 C   0  0  0  0  0  0
   26.6957    5.3704    2.2154 C   0  0  0  0  0  0
   26.8794    4.7728   -0.0898 N   0  0  0  0  0  0
   26.2257    4.6503    1.1155 C   0  0  0  0  0  0
   28.9134    5.0727   -2.1884 N   0  0  0  0  0  0
   24.8201    4.6189    3.5360 C   0  0  0  0  0  0
   26.4341    5.6473    6.0584 O   0  0  0  0  0  0
   28.0895    6.6680    4.4339 O   0  0  0  0  0  0
   25.8042    7.8059    4.7852 N   0  0  0  0  0  0
   35.0083    5.0934   -1.7983 C   0  0  0  0  0  0
   34.1366    4.6050   -2.8214 C   0  0  0  0  0  0
   33.1301    5.4496   -3.2695 O   0  0  0  0  0  0
   27.4585    3.6535   -0.8150 C   0  0  0  0  0  0
   26.9395    6.0093   -0.8828 C   0  0  0  0  0  0
   25.0902    3.8500    1.2498 C   0  0  0  0  0  0
   24.3837    3.8501    2.4511 C   0  0  0  0  0  0
   30.2609    5.4159   -2.6677 C   0  0  0  0  0  0
   28.3162    6.2577   -1.5561 C   0  0  0  0  0  0
   28.9178    3.9951   -1.1939 C   0  0  0  0  0  0
   36.0580    4.2577   -1.3033 C   0  0  0  0  0  0
   30.9202    4.4189   -3.6572 C   0  0  1  0  0  0
   32.1965    5.0321   -4.2774 C   0  0  0  0  0  0
   23.8080    4.6501    4.9394 Cl  0  0  0  0  0  0
   31.2629    3.1765   -3.0713 O   0  0  0  0  0  0
   35.3622    2.4981   -2.8229 C   0  0  0  0  0  0
   34.3438    3.3051   -3.3124 C   0  0  0  0  0  0
   34.8799    6.3963   -1.2480 C   0  0  0  0  0  0
   36.2080    2.9581   -1.8277 C   0  0  0  0  0  0
   36.9353    4.7462   -0.3040 C   0  0  0  0  0  0
   35.7594    6.8505   -0.2696 C   0  0  0  0  0  0
   36.7796    6.0332    0.1997 C   0  0  0  0  0  0
   27.5919    5.9637    2.0998 H   0  0  0  0  0  0
   24.8424    7.6247    5.0815 H   0  0  0  0  0  0
   26.2098    8.4338    5.4895 H   0  0  0  0  0  0
   27.4079    2.7448   -0.2165 H   0  0  0  0  0  0
   26.8509    3.4505   -1.6988 H   0  0  0  0  0  0
   26.1688    5.9512   -1.6540 H   0  0  0  0  0  0
   26.6702    6.8643   -0.2619 H   0  0  0  0  0  0
   24.7194    3.2860    0.4050 H   0  0  0  0  0  0
   23.4715    3.2757    2.5259 H   0  0  0  0  0  0
   30.2016    6.3734   -3.1893 H   0  0  0  0  0  0
   30.9267    5.5816   -1.8194 H   0  0  0  0  0  0
   28.1944    7.0374   -2.3096 H   0  0  0  0  0  0
   29.0059    6.6501   -0.8147 H   0  0  0  0  0  0
   29.4805    4.2953   -0.3072 H   0  0  0  0  0  0
   29.4119    3.1041   -1.5644 H   0  0  0  0  0  0
   30.2171    4.2220   -4.4680 H   0  0  0  0  0  0
   32.6346    4.3973   -5.0473 H   0  0  0  0  0  0
   31.9017    5.9344   -4.8134 H   0  0  0  0  0  0
   31.9522    3.3341   -2.4205 H   0  0  0  0  0  0
   35.5054    1.5021   -3.2150 H   0  0  0  0  0  0
   33.7199    2.8836   -4.0833 H   0  0  0  0  0  0
   34.0985    7.0496   -1.6036 H   0  0  0  0  0  0
   37.0021    2.3257   -1.4571 H   0  0  0  0  0  0
   37.7375    4.1126    0.0494 H   0  0  0  0  0  0
   35.6470    7.8494    0.1227 H   0  0  0  0  0  0
   37.4592    6.4009    0.9540 H   0  0  0  0  0  0
  1  2  1  0  0  0
  1  8  2  0  0  0
  1  9  2  0  0  0
  1 10  1  0  0  0
  2  3  2  0  0  0
  2  7  1  0  0  0
  3  5  1  0  0  0
  3 33  1  0  0  0
  4  5  1  0  0  0
  4 14  1  0  0  0
  4 15  1  0  0  0
  5 16  2  0  0  0
  6 19  1  0  0  0
  6 18  1  0  0  0
  6 20  1  0  0  0
  7 17  2  0  0  0
  7 24  1  0  0  0
 10 34  1  0  0  0
 10 35  1  0  0  0
 11 12  2  0  0  0
 11 21  1  0  0  0
 11 28  1  0  0  0
 12 13  1  0  0  0
 12 27  1  0  0  0
 13 23  1  0  0  0
 14 20  1  0  0  0
 14 36  1  0  0  0
 14 37  1  0  0  0
 15 19  1  0  0  0
 15 38  1  0  0  0
 15 39  1  0  0  0
 16 17  1  0  0  0
 16 40  1  0  0  0
 17 41  1  0  0  0
 18 22  1  0  0  0
 18 42  1  0  0  0
 18 43  1  0  0  0
 19 44  1  0  0  0
 19 45  1  0  0  0
 20 46  1  0  0  0
 20 47  1  0  0  0
 21 30  1  0  0  0
 21 29  2  0  0  0
 22 23  1  0  0  0
 22 25  1  0  0  0
 22 48  1  0  0  0
 23 49  1  0  0  0
 23 50  1  0  0  0
 25 51  1  0  0  0
 26 27  2  0  0  0
 26 29  1  0  0  0
 26 52  1  0  0  0
 27 53  1  0  0  0
 28 31  2  0  0  0
 28 54  1  0  0  0
 29 55  1  0  0  0
 30 32  2  0  0  0
 30 56  1  0  0  0
 31 32  1  0  0  0
 31 57  1  0  0  0
 32 58  1  0  0  0
M  END
> <s_m_entry_id>
3391

> <s_m_entry_name>
dock_pv.483

> <s_m_Source_Path>
/home/csk/Desktop/cluster/DUD-E-result/adrb1

> <s_m_Source_File>
dock_pv.maegz

> <i_m_Source_File_Index>
483

> <chembl_id>
CHEMBL41214

> <chembl_pref_name>
None

> <i_lp_mmshare_version>
53161

> <i_f3d_flags>
0

> <r_lp_tautomer_probability>
1

> <s_lp_Force_Field>
OPLS_2005

> <r_lp_Energy>
72.235718

> <b_lp_Chiralities_Consistent>
1

> <s_lp_Variant>
CHEMBL213_lig1233-2

> <s_i_glide_gridfile>
glide-grid_2vt4

> <i_i_glide_lignum>
1471

> <i_i_glide_rotatable_bonds>
8

> <r_i_docking_score>
-6.82950908401197

> <r_i_glide_ligand_efficiency>
-0.213422158875374

> <r_i_glide_ligand_efficiency_sa>
-0.677573118241423

> <r_i_glide_ligand_efficiency_ln>
-1.52931324929679

> <r_i_glide_gscore>
-6.82950908401197

> <r_i_glide_lipo>
-2.76295083004684

> <r_i_glide_hbond>
-0.4033385741768

> <r_i_glide_metal>
0

> <r_i_glide_rewards>
-1.10526438051403

> <r_i_glide_evdw>
-46.7924270629883

> <r_i_glide_ecoul>
-4.43430805206299

> <r_i_glide_erotb>
0.446812261684562

> <r_i_glide_esite>
0

> <r_i_glide_emodel>
-63.5922777832206

> <r_i_glide_energy>
-51.2267351150513

> <r_i_glide_einternal>
15.2361650466919

> <i_i_glide_confnum>
27

> <i_i_glide_posenum>
214

> <r_i_glide_eff_state_penalty>
0

> <s_user_duplicate_titles>
CHEMBL213_lig1233

> <s_m_subgroup_title>
dock_pv

> <s_m_subgroupid>
dock_pv

> <b_m_subgroup_collapsed>
1

$$$$
CHEMBL213_lig996
                    3D
 Schrodinger Suite 2021-1.
 53 55  0  0  1  0            999 V2000
   25.0421    3.8510    1.6621 C   0  0  0  0  0  0
   25.0088    3.2985    0.3851 C   0  0  0  0  0  0
   26.0752    3.4932   -0.4930 C   0  0  0  0  0  0
   27.1952    4.2575   -0.1354 C   0  0  0  0  0  0
   23.9673    3.6756    2.4942 O   0  0  0  0  0  0
   28.3289    4.5410   -1.1477 C   0  0  1  0  0  0
   29.6598    3.7960   -0.8157 C   0  0  0  0  0  0
   27.9517    4.2501   -2.4842 O   0  0  0  0  0  0
   30.6446    3.6029   -1.8965 N   0  0  1  0  0  0
   31.5071    4.6675   -2.4245 C   0  0  0  0  0  0
   32.5509    3.9908   -3.3719 C   0  0  0  0  0  0
   32.0948    3.4899   -4.7524 C   0  0  0  0  0  0
   32.9011    3.7573   -5.8651 C   0  0  0  0  0  0
   32.5475    3.2878   -7.1283 C   0  0  0  0  0  0
   31.3777    2.5500   -7.2964 C   0  0  0  0  0  0
   30.5501    2.2746   -6.2014 C   0  0  0  0  0  0
   30.9217    2.7415   -4.9342 C   0  0  0  0  0  0
   30.6828    5.7202   -3.1931 C   0  0  0  0  0  0
   32.2866    5.3265   -1.2591 C   0  0  0  0  0  0
   26.1692    4.5766    2.0657 C   0  0  0  0  0  0
   27.2325    4.7584    1.1742 C   0  0  0  0  0  0
   28.3404    5.4500    1.6114 O   0  0  0  0  0  0
   28.6716    5.2760    3.0110 C   0  0  0  0  0  0
   27.4507    5.4398    3.9612 C   0  0  0  0  0  0
   26.2983    5.0887    3.3598 N   0  0  0  0  0  0
   27.5177    5.8369    5.1220 O   0  0  0  0  0  0
   29.2557    1.4782   -6.3642 C   0  0  0  0  0  0
   29.2786    0.4121   -5.5648 F   0  0  0  0  0  0
   28.2124    2.2406   -6.0401 F   0  0  0  0  0  0
   29.0807    1.0500   -7.6154 F   0  0  0  0  0  0
   24.1475    2.7388    0.0482 H   0  0  0  0  0  0
   25.9962    3.0758   -1.4866 H   0  0  0  0  0  0
   23.2094    3.3139    2.0288 H   0  0  0  0  0  0
   28.5113    5.6143   -1.1093 H   0  0  0  0  0  0
   29.4040    2.7761   -0.5403 H   0  0  0  0  0  0
   30.1277    4.2185    0.0728 H   0  0  0  0  0  0
   28.2062    3.3308   -2.6478 H   0  0  0  0  0  0
   31.1270    2.7181   -1.8295 H   0  0  0  0  0  0
   33.0399    3.1579   -2.8642 H   0  0  0  0  0  0
   33.3493    4.7155   -3.5431 H   0  0  0  0  0  0
   33.8137    4.3268   -5.7564 H   0  0  0  0  0  0
   33.1780    3.5022   -7.9787 H   0  0  0  0  0  0
   31.1173    2.2055   -8.2868 H   0  0  0  0  0  0
   30.2802    2.5124   -4.0973 H   0  0  0  0  0  0
   31.3183    6.4550   -3.6872 H   0  0  0  0  0  0
   30.0618    5.2644   -3.9645 H   0  0  0  0  0  0
   30.0060    6.2500   -2.5335 H   0  0  0  0  0  0
   32.8462    6.1994   -1.5966 H   0  0  0  0  0  0
   31.6429    5.6596   -0.4488 H   0  0  0  0  0  0
   33.0057    4.6417   -0.8119 H   0  0  0  0  0  0
   29.0298    4.2565    3.1651 H   0  0  0  0  0  0
   29.4599    5.9644    3.3159 H   0  0  0  0  0  0
   25.4845    5.1116    3.9561 H   0  0  0  0  0  0
  1  2  1  0  0  0
  1  5  1  0  0  0
  1 20  2  0  0  0
  2  3  2  0  0  0
  2 31  1  0  0  0
  3  4  1  0  0  0
  3 32  1  0  0  0
  4 21  2  0  0  0
  4  6  1  0  0  0
  5 33  1  0  0  0
  6  7  1  0  0  0
  6  8  1  0  0  0
  6 34  1  0  0  0
  7  9  1  0  0  0
  7 35  1  0  0  0
  7 36  1  0  0  0
  8 37  1  0  0  0
  9 10  1  0  0  0
  9 38  1  0  0  0
 10 18  1  0  0  0
 10 19  1  0  0  0
 10 11  1  0  0  0
 11 12  1  0  0  0
 11 39  1  0  0  0
 11 40  1  0  0  0
 12 17  1  0  0  0
 12 13  2  0  0  0
 13 14  1  0  0  0
 13 41  1  0  0  0
 14 15  2  0  0  0
 14 42  1  0  0  0
 15 16  1  0  0  0
 15 43  1  0  0  0
 16 17  2  0  0  0
 16 27  1  0  0  0
 17 44  1  0  0  0
 18 45  1  0  0  0
 18 46  1  0  0  0
 18 47  1  0  0  0
 19 48  1  0  0  0
 19 49  1  0  0  0
 19 50  1  0  0  0
 20 21  1  0  0  0
 20 25  1  0  0  0
 21 22  1  0  0  0
 22 23  1  0  0  0
 23 24  1  0  0  0
 23 51  1  0  0  0
 23 52  1  0  0  0
 24 25  1  0  0  0
 24 26  2  0  0  0
 25 53  1  0  0  0
 27 28  1  0  0  0
 27 29  1  0  0  0
 27 30  1  0  0  0
M  END
> <s_m_entry_id>
3392

> <s_m_entry_name>
dock_pv.484

> <s_m_Source_Path>
/home/csk/Desktop/cluster/DUD-E-result/adrb1

> <s_m_Source_File>
dock_pv.maegz

> <i_m_Source_File_Index>
484

> <chembl_id>
CHEMBL568273

> <chembl_pref_name>
None

> <i_lp_mmshare_version>
53161

> <i_f3d_flags>
0

> <r_lp_tautomer_probability>
1

> <s_lp_Force_Field>
OPLS_2005

> <r_lp_Energy>
34.772755

> <b_lp_Chiralities_Consistent>
1

> <s_lp_Variant>
CHEMBL213_lig996-2

> <s_i_glide_gridfile>
glide-grid_2vt4

> <i_i_glide_lignum>
1112

> <i_i_glide_rotatable_bonds>
9

> <r_i_docking_score>
-6.82807138524319

> <r_i_glide_ligand_efficiency>
-0.227602379508106

> <r_i_glide_ligand_efficiency_sa>
-0.707213511238244

> <r_i_glide_ligand_efficiency_ln>
-1.55141221652379

> <r_i_glide_gscore>
-6.82807138524319

> <r_i_glide_lipo>
-2.44708990713431

> <r_i_glide_hbond>
-0.32

> <r_i_glide_metal>
0

> <r_i_glide_rewards>
-1.93315990453375

> <r_i_glide_evdw>
-41.2709312438965

> <r_i_glide_ecoul>
-4.588134765625

> <r_i_glide_erotb>
0.660471721983722

> <r_i_glide_esite>
-0.0365265185202816

> <r_i_glide_emodel>
-57.0919999770358

> <r_i_glide_energy>
-45.8590660095215

> <r_i_glide_einternal>
9.23215007781982

> <i_i_glide_confnum>
18

> <i_i_glide_posenum>
4

> <r_i_glide_eff_state_penalty>
0

> <s_user_duplicate_titles>
CHEMBL213_lig996,573919

> <s_m_subgroup_title>
dock_pv

> <s_m_subgroupid>
dock_pv

> <b_m_subgroup_collapsed>
1

$$$$
CHEMBL213_lig824
                    3D
 Schrodinger Suite 2021-1.
 62 64  0  0  1  0            999 V2000
   35.4892    6.6214    4.2931 C   0  0  0  0  0  0
   36.6080    7.4085    4.0284 C   0  0  0  0  0  0
   37.0117    7.6241    2.7122 C   0  0  0  0  0  0
   36.2986    7.0542    1.6580 C   0  0  0  0  0  0
   35.1617    6.2705    1.9064 C   0  0  0  0  0  0
   34.7728    6.0556    3.2379 C   0  0  0  0  0  0
   34.3402    5.6335    0.7763 C   0  0  2  0  0  0
   34.7337    6.0518   -0.6723 C   0  0  0  0  0  0
   32.9496    5.8500    0.9732 O   0  0  0  0  0  0
   33.9776    5.2788   -1.6527 N   0  0  1  0  0  0
   34.3010    5.5814   -3.0415 C   0  0  0  0  0  0
   33.3563    4.8231   -4.0059 C   0  0  0  0  0  0
   32.0181    5.4103   -4.1424 N   0  0  0  0  0  0
   30.9664    5.1440   -3.2498 C   0  0  0  0  0  0
   29.7651    5.8303   -3.4356 C   0  0  0  0  0  0
   28.7146    5.6606   -2.5347 C   0  0  0  0  0  0
   28.8711    4.8262   -1.4238 C   0  0  0  0  0  0
   30.0622    4.1245   -1.2541 C   0  0  0  0  0  0
   31.0908    4.2581   -2.1753 C   0  0  0  0  0  0
   27.7796    4.6500   -0.4437 C   0  0  0  0  0  0
   26.6080    4.0156   -0.8188 C   0  0  0  0  0  0
   25.5813    3.8071    0.0889 C   0  0  0  0  0  0
   25.7008    4.2301    1.4229 C   0  0  0  0  0  0
   26.9015    4.8624    1.8294 C   0  0  0  0  0  0
   27.9230    5.0500    0.8810 C   0  0  0  0  0  0
   24.5634    3.9740    2.3919 C   0  0  0  0  0  0
   24.6253    4.2500    3.5850 O   0  0  0  0  0  0
   23.4345    3.4500    1.8372 O   0  0  0  0  0  0
   27.0513    5.2542    3.1506 O   0  0  0  0  0  0
   28.2632    5.8620    3.5893 C   0  0  0  0  0  0
   29.2157    7.3606    5.4174 C   0  0  0  0  0  0
   28.0324    6.4933    4.9663 C   0  0  0  0  0  0
   34.9967    6.3455    5.9242 Cl  0  0  0  0  0  0
   37.1646    7.8500    4.8409 H   0  0  0  0  0  0
   37.8796    8.2328    2.5063 H   0  0  0  0  0  0
   36.6414    7.2453    0.6523 H   0  0  0  0  0  0
   33.9022    5.4514    3.4534 H   0  0  0  0  0  0
   34.5234    4.5626    0.8623 H   0  0  0  0  0  0
   35.7947    5.8554   -0.8342 H   0  0  0  0  0  0
   34.5673    7.1199   -0.8170 H   0  0  0  0  0  0
   32.7755    6.7832    0.7850 H   0  0  0  0  0  0
   34.0853    4.2901   -1.4703 H   0  0  0  0  0  0
   35.3361    5.2995   -3.2430 H   0  0  0  0  0  0
   34.2080    6.6500   -3.2109 H   0  0  0  0  0  0
   33.2923    3.7719   -3.7232 H   0  0  0  0  0  0
   33.7962    4.8106   -5.0040 H   0  0  0  0  0  0
   31.9075    6.1940   -4.7726 H   0  0  0  0  0  0
   29.6425    6.5062   -4.2698 H   0  0  0  0  0  0
   27.7870    6.1944   -2.6871 H   0  0  0  0  0  0
   30.1853    3.4552   -0.4156 H   0  0  0  0  0  0
   31.9878    3.6848   -2.0153 H   0  0  0  0  0  0
   26.5063    3.6601   -1.8342 H   0  0  0  0  0  0
   24.7044    3.3029   -0.2911 H   0  0  0  0  0  0
   28.8811    5.4500    1.1616 H   0  0  0  0  0  0
   23.4889    3.4112    0.8814 H   0  0  0  0  0  0
   28.5746    6.6500    2.9058 H   0  0  0  0  0  0
   29.0611    5.1183    3.6323 H   0  0  0  0  0  0
   29.0080    7.8106    6.3850 H   0  0  0  0  0  0
   29.4020    8.1750    4.7157 H   0  0  0  0  0  0
   30.1360    6.7819    5.4997 H   0  0  0  0  0  0
   27.8346    5.7112    5.7002 H   0  0  0  0  0  0
   27.1343    7.1124    4.9341 H   0  0  0  0  0  0
  1  6  1  0  0  0
  1  2  2  0  0  0
  1 33  1  0  0  0
  2  3  1  0  0  0
  2 34  1  0  0  0
  3  4  2  0  0  0
  3 35  1  0  0  0
  4  5  1  0  0  0
  4 36  1  0  0  0
  5  6  2  0  0  0
  5  7  1  0  0  0
  6 37  1  0  0  0
  7  8  1  0  0  0
  7  9  1  0  0  0
  7 38  1  0  0  0
  8 10  1  0  0  0
  8 39  1  0  0  0
  8 40  1  0  0  0
  9 41  1  0  0  0
 10 11  1  0  0  0
 10 42  1  0  0  0
 11 12  1  0  0  0
 11 43  1  0  0  0
 11 44  1  0  0  0
 12 13  1  0  0  0
 12 45  1  0  0  0
 12 46  1  0  0  0
 13 14  1  0  0  0
 13 47  1  0  0  0
 14 19  1  0  0  0
 14 15  2  0  0  0
 15 16  1  0  0  0
 15 48  1  0  0  0
 16 17  2  0  0  0
 16 49  1  0  0  0
 17 18  1  0  0  0
 17 20  1  0  0  0
 18 19  2  0  0  0
 18 50  1  0  0  0
 19 51  1  0  0  0
 20 21  2  0  0  0
 20 25  1  0  0  0
 21 22  1  0  0  0
 21 52  1  0  0  0
 22 23  2  0  0  0
 22 53  1  0  0  0
 23 24  1  0  0  0
 23 26  1  0  0  0
 24 25  2  0  0  0
 24 29  1  0  0  0
 25 54  1  0  0  0
 26 27  2  0  0  0
 26 28  1  0  0  0
 28 55  1  0  0  0
 29 30  1  0  0  0
 30 32  1  0  0  0
 30 56  1  0  0  0
 30 57  1  0  0  0
 31 32  1  0  0  0
 31 58  1  0  0  0
 31 59  1  0  0  0
 31 60  1  0  0  0
 32 61  1  0  0  0
 32 62  1  0  0  0
M  END
> <s_m_entry_id>
3393

> <s_m_entry_name>
dock_pv.485

> <s_m_Source_Path>
/home/csk/Desktop/cluster/DUD-E-result/adrb1

> <s_m_Source_File>
dock_pv.maegz

> <i_m_Source_File_Index>
485

> <chembl_id>
CHEMBL459645

> <chembl_pref_name>
None

> <i_lp_mmshare_version>
53161

> <i_f3d_flags>
0

> <r_lp_tautomer_probability>
1

> <s_lp_Force_Field>
OPLS_2005

> <r_lp_Energy>
42.14889

> <b_lp_Chiralities_Consistent>
1

> <s_lp_Variant>
CHEMBL213_lig824-1

> <s_i_glide_gridfile>
glide-grid_2vt4

> <i_i_glide_lignum>
932

> <i_i_glide_rotatable_bonds>
14

> <r_i_docking_score>
-6.82679369337393

> <r_i_glide_ligand_efficiency>
-0.206872536162846

> <r_i_glide_ligand_efficiency_sa>
-0.663550760902262

> <r_i_glide_ligand_efficiency_ln>
-1.51824357016036

> <r_i_glide_gscore>
-6.82679369337393

> <r_i_glide_lipo>
-2.56239015612331

> <r_i_glide_hbond>
-0.32

> <r_i_glide_metal>
0

> <r_i_glide_rewards>
-0.89204963430831

> <r_i_glide_evdw>
-53.3286819458008

> <r_i_glide_ecoul>
-8.69400119781494

> <r_i_glide_erotb>
0.918180374019972

> <r_i_glide_esite>
0

> <r_i_glide_emodel>
-81.6711113648411

> <r_i_glide_energy>
-62.0226831436157

> <r_i_glide_einternal>
12.2931652069092

> <i_i_glide_confnum>
35

> <i_i_glide_posenum>
332

> <r_i_glide_eff_state_penalty>
0

> <s_user_duplicate_titles>
CHEMBL213_lig824,448582

> <s_m_subgroup_title>
dock_pv

> <s_m_subgroupid>
dock_pv

> <b_m_subgroup_collapsed>
1

$$$$
CHEMBL213_lig543
                    3D
 Schrodinger Suite 2021-1.
 62 65  0  0  1  0            999 V2000
   29.4064    3.4501   -4.0150 N   0  0  0  0  0  0
   29.5342    4.7658   -3.8201 C   0  0  0  0  0  0
   30.0482    2.8231   -5.0038 C   0  0  0  0  0  0
   30.6064    5.4499   -5.0943 S   0  0  0  0  0  0
   30.8475    3.8224   -5.8386 C   0  0  1  0  0  0
   35.9924    4.7167   -1.7847 N   0  0  0  0  0  0
   35.0514    4.4297   -2.7757 C   0  0  0  0  0  0
   29.0240    5.4298   -2.9221 O   0  0  0  0  0  0
   30.0014    1.6146   -5.2270 O   0  0  0  0  0  0
   36.1587    3.9405   -0.5472 C   0  0  0  0  0  0
   36.4992    6.0765   -1.5311 C   0  0  0  0  0  0
   32.3368    3.4228   -6.0241 C   0  0  0  0  0  0
   34.6081    6.6155    1.7853 N   0  0  1  0  0  0
   35.2678    4.5217    0.5706 C   0  0  0  0  0  0
   35.5897    6.7897   -0.5042 C   0  0  0  0  0  0
   34.0271    3.4972   -2.5830 C   0  0  0  0  0  0
   35.1414    5.0454   -4.0223 C   0  0  0  0  0  0
   35.5339    6.0211    0.8350 C   0  0  0  0  0  0
   31.1137    7.0775    4.2986 O   0  0  0  0  0  0
   33.2776    3.7662   -4.8651 C   0  0  0  0  0  0
   33.5360    6.7792    4.0216 C   0  0  1  0  0  0
   29.7971    6.6909    4.1388 C   0  0  0  0  0  0
   34.6675    6.1596    3.1701 C   0  0  0  0  0  0
   27.0963    5.9929    3.9906 C   0  0  0  0  0  0
   32.1215    6.5229    3.4507 C   0  0  0  0  0  0
   33.1526    3.1541   -3.6150 C   0  0  0  0  0  0
   34.2756    4.7195   -5.0604 C   0  0  0  0  0  0
   29.3517    5.7626    3.1848 C   0  0  0  0  0  0
   28.8693    7.2723    5.0033 C   0  0  0  0  0  0
   27.5213    6.9293    4.9267 C   0  0  0  0  0  0
   28.0066    5.4116    3.1139 C   0  0  0  0  0  0
   33.6281    6.1993    5.3132 O   0  0  0  0  0  0
   25.7738    5.6510    3.9281 O   0  0  0  0  0  0
   28.8377    2.9039   -3.3776 H   0  0  0  0  0  0
   30.3664    3.8456   -6.8145 H   0  0  0  0  0  0
   37.2076    3.9842   -0.2466 H   0  0  0  0  0  0
   35.9576    2.8821   -0.7166 H   0  0  0  0  0  0
   37.5123    5.9985   -1.1316 H   0  0  0  0  0  0
   36.6083    6.6577   -2.4437 H   0  0  0  0  0  0
   32.7025    3.9207   -6.9240 H   0  0  0  0  0  0
   32.4280    2.3622   -6.2586 H   0  0  0  0  0  0
   34.2760    7.5545    1.5845 H   0  0  0  0  0  0
   35.4162    3.9336    1.4747 H   0  0  0  0  0  0
   34.2292    4.3889    0.2682 H   0  0  0  0  0  0
   34.5916    6.8689   -0.9396 H   0  0  0  0  0  0
   35.9453    7.8081   -0.3432 H   0  0  0  0  0  0
   33.9007    3.0500   -1.6155 H   0  0  0  0  0  0
   35.9193    5.7596   -4.2060 H   0  0  0  0  0  0
   36.5452    6.0813    1.2420 H   0  0  0  0  0  0
   33.7060    7.8496    4.1210 H   0  0  0  0  0  0
   35.6418    6.4094    3.5932 H   0  0  0  0  0  0
   34.5540    5.0750    3.1874 H   0  0  0  0  0  0
   32.0034    5.4499    3.3227 H   0  0  0  0  0  0
   32.0217    6.9676    2.4593 H   0  0  0  0  0  0
   32.3832    2.4179   -3.4354 H   0  0  0  0  0  0
   34.3943    5.2159   -6.0139 H   0  0  0  0  0  0
   30.0314    5.2943    2.4906 H   0  0  0  0  0  0
   29.1953    7.9998    5.7308 H   0  0  0  0  0  0
   26.8044    7.3970    5.5849 H   0  0  0  0  0  0
   27.6816    4.6895    2.3794 H   0  0  0  0  0  0
   33.1171    5.3841    5.3146 H   0  0  0  0  0  0
   25.5755    5.0515    3.2053 H   0  0  0  0  0  0
  1  2  1  0  0  0
  1  3  1  0  0  0
  1 34  1  0  0  0
  2  4  1  0  0  0
  2  8  2  0  0  0
  3  5  1  0  0  0
  3  9  2  0  0  0
  4  5  1  0  0  0
  5 12  1  0  0  0
  5 35  1  0  0  0
  6  7  1  0  0  0
  6 10  1  0  0  0
  6 11  1  0  0  0
  7 17  2  0  0  0
  7 16  1  0  0  0
 10 14  1  0  0  0
 10 36  1  0  0  0
 10 37  1  0  0  0
 11 15  1  0  0  0
 11 38  1  0  0  0
 11 39  1  0  0  0
 12 20  1  0  0  0
 12 40  1  0  0  0
 12 41  1  0  0  0
 13 18  1  0  0  0
 13 23  1  0  0  0
 13 42  1  0  0  0
 14 18  1  0  0  0
 14 43  1  0  0  0
 14 44  1  0  0  0
 15 18  1  0  0  0
 15 45  1  0  0  0
 15 46  1  0  0  0
 16 26  2  0  0  0
 16 47  1  0  0  0
 17 27  1  0  0  0
 17 48  1  0  0  0
 18 49  1  0  0  0
 19 25  1  0  0  0
 19 22  1  0  0  0
 20 26  1  0  0  0
 20 27  2  0  0  0
 21 23  1  0  0  0
 21 25  1  0  0  0
 21 32  1  0  0  0
 21 50  1  0  0  0
 22 28  2  0  0  0
 22 29  1  0  0  0
 23 51  1  0  0  0
 23 52  1  0  0  0
 24 30  1  0  0  0
 24 33  1  0  0  0
 24 31  2  0  0  0
 25 53  1  0  0  0
 25 54  1  0  0  0
 26 55  1  0  0  0
 27 56  1  0  0  0
 28 31  1  0  0  0
 28 57  1  0  0  0
 29 30  2  0  0  0
 29 58  1  0  0  0
 30 59  1  0  0  0
 31 60  1  0  0  0
 32 61  1  0  0  0
 33 62  1  0  0  0
M  END
> <s_m_entry_id>
3394

> <s_m_entry_name>
dock_pv.486

> <s_m_Source_Path>
/home/csk/Desktop/cluster/DUD-E-result/adrb1

> <s_m_Source_File>
dock_pv.maegz

> <i_m_Source_File_Index>
486

> <chembl_id>
CHEMBL166085

> <chembl_pref_name>
None

> <i_lp_mmshare_version>
53161

> <i_f3d_flags>
0

> <r_lp_tautomer_probability>
0.999986600176988

> <s_lp_Force_Field>
OPLS_2005

> <r_lp_Energy>
39.416952

> <b_lp_Chiralities_Consistent>
1

> <s_lp_Variant>
CHEMBL213_lig543-1

> <s_i_glide_gridfile>
glide-grid_2vt4

> <i_i_glide_lignum>
639

> <i_i_glide_rotatable_bonds>
11

> <r_i_docking_score>
-6.82295072543599

> <r_i_glide_ligand_efficiency>
-0.206756082588969

> <r_i_glide_ligand_efficiency_sa>
-0.663177232066637

> <r_i_glide_ligand_efficiency_ln>
-1.51738891398879

> <r_i_glide_gscore>
-6.82295072543599

> <r_i_glide_lipo>
-2.93650191398969

> <r_i_glide_hbond>
-0.576218044339528

> <r_i_glide_metal>
0

> <r_i_glide_rewards>
-0.448256222494545

> <r_i_glide_evdw>
-48.0297050476074

> <r_i_glide_ecoul>
-8.17657661437988

> <r_i_glide_erotb>
0.818074264023404

> <r_i_glide_esite>
-0.05207706409827

> <r_i_glide_emodel>
-72.0064459357159

> <r_i_glide_energy>
-56.2062816619873

> <r_i_glide_einternal>
13.2316236495972

> <i_i_glide_confnum>
12

> <i_i_glide_posenum>
302

> <r_i_glide_eff_state_penalty>
0

> <s_user_duplicate_titles>
CHEMBL213_lig543

> <s_m_subgroup_title>
dock_pv

> <s_m_subgroupid>
dock_pv

> <b_m_subgroup_collapsed>
1

$$$$
CHEMBL213_lig1064
                    3D
 Schrodinger Suite 2021-1.
 65 69  0  0  1  0            999 V2000
   28.1514    4.8858   -2.6892 N   0  0  1  0  0  0
   29.5518    5.2034   -2.9328 C   0  0  0  0  0  0
   30.5676    4.1377   -2.4677 C   0  0  0  0  0  0
   32.0368    4.5660   -2.7468 C   0  0  0  0  0  0
   32.2837    4.9634   -4.1484 N   0  0  0  0  0  0
   31.2731    5.9484   -4.5895 C   0  0  0  0  0  0
   29.8282    5.4618   -4.4152 C   0  0  0  0  0  0
   33.0404    4.2352   -5.0765 C   0  0  0  0  0  0
   32.4183    4.0560   -6.2776 N   0  0  0  0  0  0
   33.0651    3.3871   -7.2502 C   0  0  0  0  0  0
   34.3094    2.8765   -7.1957 N   0  0  0  0  0  0
   34.3734    3.7377   -4.8753 C   0  0  0  0  0  0
   34.9280    3.0698   -6.0307 C   0  0  0  0  0  0
   36.5711    2.5231   -5.8173 S   0  0  0  0  0  0
   36.5280    3.1431   -4.2040 C   0  0  0  0  0  0
   35.3564    3.7619   -3.8028 C   0  0  0  0  0  0
   27.6413    5.2639   -1.3696 C   0  0  0  0  0  0
   27.2361    4.0389   -0.5218 C   0  0  1  0  0  0
   26.6566    4.4218    0.8514 C   0  0  0  0  0  0
   26.2079    3.3073   -1.1538 O   0  0  0  0  0  0
   27.6121    5.0501    1.7025 O   0  0  0  0  0  0
   27.2062    5.4273    2.9705 C   0  0  0  0  0  0
   25.9011    5.2693    3.4707 C   0  0  0  0  0  0
   25.5727    5.7107    4.7498 C   0  0  0  0  0  0
   26.5425    6.3047    5.5486 C   0  0  0  0  0  0
   27.8442    6.4801    5.0726 C   0  0  0  0  0  0
   28.1686    6.0208    3.7888 C   0  0  0  0  0  0
   35.3194    4.3580   -2.4350 C   0  0  0  0  0  0
   35.7990    3.6048   -1.3535 C   0  0  0  0  0  0
   35.8070    4.1394   -0.0693 C   0  0  0  0  0  0
   35.3167    5.4252    0.1396 C   0  0  0  0  0  0
   34.8452    6.1813   -0.9300 C   0  0  0  0  0  0
   34.8620    5.6570   -2.2187 C   0  0  0  0  0  0
   28.8529    7.2117    5.9511 C   0  0  0  0  0  0
   30.2080    7.0500    5.5793 O   0  0  0  0  0  0
   27.5601    5.2333   -3.4312 H   0  0  0  0  0  0
   29.7933    6.1334   -2.4172 H   0  0  0  0  0  0
   30.4446    3.9532   -1.4002 H   0  0  0  0  0  0
   30.3692    3.1767   -2.9447 H   0  0  0  0  0  0
   32.2698    5.4168   -2.1075 H   0  0  0  0  0  0
   32.7129    3.7614   -2.4584 H   0  0  0  0  0  0
   31.4096    6.8572   -4.0061 H   0  0  0  0  0  0
   31.4470    6.2491   -5.6231 H   0  0  0  0  0  0
   29.6389    4.5731   -5.0187 H   0  0  0  0  0  0
   29.1556    6.2321   -4.7961 H   0  0  0  0  0  0
   32.5297    3.2501   -8.1758 H   0  0  0  0  0  0
   37.4188    3.0519   -3.5991 H   0  0  0  0  0  0
   26.7807    5.9204   -1.5056 H   0  0  0  0  0  0
   28.3728    5.8558   -0.8167 H   0  0  0  0  0  0
   28.1009    3.3857   -0.4155 H   0  0  0  0  0  0
   26.2789    3.5221    1.3411 H   0  0  0  0  0  0
   25.8058    5.0859    0.7020 H   0  0  0  0  0  0
   25.8302    3.8411   -1.8708 H   0  0  0  0  0  0
   25.1221    4.8152    2.8800 H   0  0  0  0  0  0
   24.5647    5.5917    5.1216 H   0  0  0  0  0  0
   26.2696    6.6500    6.5361 H   0  0  0  0  0  0
   29.1667    6.1444    3.3980 H   0  0  0  0  0  0
   36.1673    2.6006   -1.5029 H   0  0  0  0  0  0
   36.1685    3.5503    0.7607 H   0  0  0  0  0  0
   35.2973    5.8388    1.1383 H   0  0  0  0  0  0
   34.4617    7.1688   -0.7570 H   0  0  0  0  0  0
   34.5163    6.2560   -3.0471 H   0  0  0  0  0  0
   28.7551    6.8420    6.9733 H   0  0  0  0  0  0
   28.6089    8.2736    5.9835 H   0  0  0  0  0  0
   30.3479    7.4413    4.7113 H   0  0  0  0  0  0
  1 17  1  0  0  0
  1  2  1  0  0  0
  1 36  1  0  0  0
  2  3  1  0  0  0
  2  7  1  0  0  0
  2 37  1  0  0  0
  3  4  1  0  0  0
  3 38  1  0  0  0
  3 39  1  0  0  0
  4  5  1  0  0  0
  4 40  1  0  0  0
  4 41  1  0  0  0
  5  6  1  0  0  0
  5  8  1  0  0  0
  6  7  1  0  0  0
  6 42  1  0  0  0
  6 43  1  0  0  0
  7 44  1  0  0  0
  7 45  1  0  0  0
  8  9  2  0  0  0
  8 12  1  0  0  0
  9 10  1  0  0  0
 10 11  2  0  0  0
 10 46  1  0  0  0
 11 13  1  0  0  0
 12 13  2  0  0  0
 12 16  1  0  0  0
 13 14  1  0  0  0
 14 15  1  0  0  0
 15 16  2  0  0  0
 15 47  1  0  0  0
 16 28  1  0  0  0
 17 18  1  0  0  0
 17 48  1  0  0  0
 17 49  1  0  0  0
 18 19  1  0  0  0
 18 20  1  0  0  0
 18 50  1  0  0  0
 19 21  1  0  0  0
 19 51  1  0  0  0
 19 52  1  0  0  0
 20 53  1  0  0  0
 21 22  1  0  0  0
 22 23  2  0  0  0
 22 27  1  0  0  0
 23 24  1  0  0  0
 23 54  1  0  0  0
 24 25  2  0  0  0
 24 55  1  0  0  0
 25 26  1  0  0  0
 25 56  1  0  0  0
 26 27  2  0  0  0
 26 34  1  0  0  0
 27 57  1  0  0  0
 28 29  2  0  0  0
 28 33  1  0  0  0
 29 30  1  0  0  0
 29 58  1  0  0  0
 30 31  2  0  0  0
 30 59  1  0  0  0
 31 32  1  0  0  0
 31 60  1  0  0  0
 32 33  2  0  0  0
 32 61  1  0  0  0
 33 62  1  0  0  0
 34 35  1  0  0  0
 34 63  1  0  0  0
 34 64  1  0  0  0
 35 65  1  0  0  0
M  END
> <s_m_entry_id>
3395

> <s_m_entry_name>
dock_pv.487

> <s_m_Source_Path>
/home/csk/Desktop/cluster/DUD-E-result/adrb1

> <s_m_Source_File>
dock_pv.maegz

> <i_m_Source_File_Index>
487

> <chembl_id>
CHEMBL1258371

> <chembl_pref_name>
None

> <i_lp_mmshare_version>
53161

> <i_f3d_flags>
0

> <r_lp_tautomer_probability>
1

> <s_lp_Force_Field>
OPLS_2005

> <r_lp_Energy>
41.913985

> <b_lp_Chiralities_Consistent>
1

> <s_lp_Variant>
CHEMBL213_lig1064-2

> <s_i_glide_gridfile>
glide-grid_2vt4

> <i_i_glide_lignum>
1239

> <i_i_glide_rotatable_bonds>
11

> <r_i_docking_score>
-6.82223527519809

> <r_i_glide_ligand_efficiency>
-0.194921007862803

> <r_i_glide_ligand_efficiency_sa>
-0.637599541212389

> <r_i_glide_ligand_efficiency_ln>
-1.49763205426009

> <r_i_glide_gscore>
-6.82223527519809

> <r_i_glide_lipo>
-2.91028180022053

> <r_i_glide_hbond>
-0.545920385234781

> <r_i_glide_metal>
0

> <r_i_glide_rewards>
-0.771250012209682

> <r_i_glide_evdw>
-47.813362121582

> <r_i_glide_ecoul>
-6.43379163742065

> <r_i_glide_erotb>
0.760953774159103

> <r_i_glide_esite>
0

> <r_i_glide_emodel>
-67.758582583734

> <r_i_glide_energy>
-54.2471537590027

> <r_i_glide_einternal>
15.1623830795288

> <i_i_glide_confnum>
138

> <i_i_glide_posenum>
130

> <r_i_glide_eff_state_penalty>
0

> <s_user_duplicate_titles>
CHEMBL213_lig1064

> <s_m_subgroup_title>
dock_pv

> <s_m_subgroupid>
dock_pv

> <b_m_subgroup_collapsed>
1

$$$$
CHEMBL213_lig1379
                    3D
 Schrodinger Suite 2021-1.
 54 57  0  0  1  0            999 V2000
   24.7313    3.9245    1.6599 C   0  0  0  0  0  0
   24.0727    4.1468    2.8693 C   0  0  0  0  0  0
   24.7359    4.7725    3.9256 C   0  0  0  0  0  0
   26.0643    4.3325    1.4757 C   0  0  0  0  0  0
   26.7240    4.9448    2.5606 C   0  0  0  0  0  0
   26.0603    5.1760    3.7630 C   0  0  0  0  0  0
   26.8409    5.8245    4.7077 N   0  0  0  0  0  0
   28.1510    6.0947    4.3850 C   0  0  0  0  0  0
   28.4052    5.4500    2.6941 S   0  0  0  0  0  0
   26.7721    4.0117    0.1496 C   0  0  2  0  0  0
   26.8221    5.1297   -0.9176 C   0  0  0  0  0  0
   27.9745    4.9069   -1.8149 N   0  0  2  0  0  0
   27.9563    5.6652   -3.0670 C   0  0  2  0  0  0
   26.3012    2.8069   -0.4150 O   0  0  0  0  0  0
   24.0768    5.0500    5.1021 O   0  0  0  0  0  0
   28.9992    6.6500    5.0801 O   0  0  0  0  0  0
   29.1896    5.5170   -4.0261 C   0  0  1  0  0  0
   29.7826    6.9155   -4.1553 C   0  0  0  0  0  0
   28.6080    7.8544   -3.9161 C   0  0  0  0  0  0
   27.8004    7.1693   -2.8209 C   0  0  0  0  0  0
   29.6495    3.0223   -4.0149 C   0  0  0  0  0  0
   29.5810    2.6230   -5.5077 C   0  0  0  0  0  0
   30.8914    2.8968   -6.2702 C   0  0  0  0  0  0
   31.4458    4.3036   -5.9878 C   0  0  0  0  0  0
   31.5943    4.5426   -4.4732 C   0  0  0  0  0  0
   30.2436    4.4111   -3.7123 C   0  0  0  0  0  0
   24.1933    3.4417    0.8550 H   0  0  0  0  0  0
   23.0422    3.8403    2.9742 H   0  0  0  0  0  0
   26.4698    6.1087    5.6023 H   0  0  0  0  0  0
   27.8080    3.8500    0.3851 H   0  0  0  0  0  0
   25.8756    5.1871   -1.4547 H   0  0  0  0  0  0
   26.9626    6.0893   -0.4184 H   0  0  0  0  0  0
   28.0703    3.9255   -2.0387 H   0  0  0  0  0  0
   27.0725    5.3246   -3.6117 H   0  0  0  0  0  0
   26.9348    2.5221   -1.0834 H   0  0  0  0  0  0
   23.1450    4.8188    5.0731 H   0  0  0  0  0  0
   28.7903    5.2878   -5.0062 H   0  0  0  0  0  0
   30.2080    7.0500   -5.1461 H   0  0  0  0  0  0
   30.5858    7.0500   -3.4337 H   0  0  0  0  0  0
   28.0014    7.9391   -4.8150 H   0  0  0  0  0  0
   28.9254    8.8609   -3.6389 H   0  0  0  0  0  0
   26.7511    7.4500   -2.9001 H   0  0  0  0  0  0
   28.2079    7.4641   -1.8525 H   0  0  0  0  0  0
   30.2080    2.2637   -3.4627 H   0  0  0  0  0  0
   28.6395    3.0500   -3.6150 H   0  0  0  0  0  0
   29.3255    1.5656   -5.5869 H   0  0  0  0  0  0
   28.7594    3.1458   -5.9911 H   0  0  0  0  0  0
   31.6388    2.1594   -5.9809 H   0  0  0  0  0  0
   30.7352    2.7635   -7.3415 H   0  0  0  0  0  0
   32.4092    4.4314   -6.4831 H   0  0  0  0  0  0
   30.7802    5.0528   -6.4150 H   0  0  0  0  0  0
   32.0407    5.5242   -4.3185 H   0  0  0  0  0  0
   32.3115    3.8261   -4.0685 H   0  0  0  0  0  0
   30.4941    4.4509   -2.6507 H   0  0  0  0  0  0
  1  2  2  0  0  0
  1  4  1  0  0  0
  1 27  1  0  0  0
  2  3  1  0  0  0
  2 28  1  0  0  0
  3  6  2  0  0  0
  3 15  1  0  0  0
  4  5  2  0  0  0
  4 10  1  0  0  0
  5  9  1  0  0  0
  5  6  1  0  0  0
  6  7  1  0  0  0
  7  8  1  0  0  0
  7 29  1  0  0  0
  8 16  2  0  0  0
  8  9  1  0  0  0
 10 14  1  0  0  0
 10 11  1  0  0  0
 10 30  1  0  0  0
 11 12  1  0  0  0
 11 31  1  0  0  0
 11 32  1  0  0  0
 12 13  1  0  0  0
 12 33  1  0  0  0
 13 17  1  0  0  0
 13 20  1  0  0  0
 13 34  1  0  0  0
 14 35  1  0  0  0
 15 36  1  0  0  0
 17 18  1  0  0  0
 17 26  1  0  0  0
 17 37  1  0  0  0
 18 19  1  0  0  0
 18 38  1  0  0  0
 18 39  1  0  0  0
 19 20  1  0  0  0
 19 40  1  0  0  0
 19 41  1  0  0  0
 20 42  1  0  0  0
 20 43  1  0  0  0
 21 26  1  0  0  0
 21 22  1  0  0  0
 21 44  1  0  0  0
 21 45  1  0  0  0
 22 23  1  0  0  0
 22 46  1  0  0  0
 22 47  1  0  0  0
 23 24  1  0  0  0
 23 48  1  0  0  0
 23 49  1  0  0  0
 24 25  1  0  0  0
 24 50  1  0  0  0
 24 51  1  0  0  0
 25 26  1  0  0  0
 25 52  1  0  0  0
 25 53  1  0  0  0
 26 54  1  0  0  0
M  END
> <s_m_entry_id>
3396

> <s_m_entry_name>
dock_pv.488

> <s_m_Source_Path>
/home/csk/Desktop/cluster/DUD-E-result/adrb1

> <s_m_Source_File>
dock_pv.maegz

> <i_m_Source_File_Index>
488

> <chembl_id>
CHEMBL1221736

> <chembl_pref_name>
None

> <i_lp_mmshare_version>
53161

> <i_f3d_flags>
0

> <r_lp_tautomer_probability>
1

> <s_lp_Force_Field>
OPLS_2005

> <r_lp_Energy>
56.807399

> <b_lp_Chiralities_Consistent>
1

> <s_lp_Variant>
CHEMBL213_lig1379-3

> <s_i_glide_gridfile>
glide-grid_2vt4

> <i_i_glide_lignum>
1667

> <i_i_glide_rotatable_bonds>
7

> <r_i_docking_score>
-6.8217102896361

> <r_i_glide_ligand_efficiency>
-0.262373472678312

> <r_i_glide_ligand_efficiency_sa>
-0.777280380419736

> <r_i_glide_ligand_efficiency_ln>
-1.60205627766387

> <r_i_glide_gscore>
-6.8217102896361

> <r_i_glide_lipo>
-2.82940330841311

> <r_i_glide_hbond>
-0.701369620678477

> <r_i_glide_metal>
0

> <r_i_glide_rewards>
-1.59195054545454

> <r_i_glide_evdw>
-26.5885925292969

> <r_i_glide_ecoul>
-7.01556730270386

> <r_i_glide_erotb>
0.682777906780445

> <r_i_glide_esite>
0

> <r_i_glide_emodel>
-45.806990691906

> <r_i_glide_energy>
-33.6041598320007

> <r_i_glide_einternal>
5.17252922058105

> <i_i_glide_confnum>
269

> <i_i_glide_posenum>
182

> <r_i_glide_eff_state_penalty>
0

> <s_user_duplicate_titles>
CHEMBL213_lig1379,CHEMBL213_lig1495,688165

> <s_m_subgroup_title>
dock_pv

> <s_m_subgroupid>
dock_pv

> <b_m_subgroup_collapsed>
1

$$$$
CHEMBL213_lig217
                    3D
 Schrodinger Suite 2021-1.
 49 50  0  0  1  0            999 V2000
   29.0740    4.2500   -2.8292 N   0  0  1  0  0  0
   27.6677    5.1182    1.1332 O   0  0  0  0  0  0
   27.2119    4.6725   -1.2521 C   0  0  1  0  0  0
   27.2829    5.3194    2.4453 C   0  0  0  0  0  0
   28.7418    4.7332   -1.4871 C   0  0  0  0  0  0
   26.6562    5.9394    5.0939 C   0  0  0  0  0  0
   36.3190    4.0989   -0.4765 C   0  0  0  0  0  0
   34.1132    4.5922   -2.0990 C   0  0  0  0  0  0
   26.7844    4.4650    0.2184 C   0  0  0  0  0  0
   32.9226    4.8761   -3.0048 C   0  0  0  0  0  0
   26.0022    5.0500    2.9540 C   0  0  0  0  0  0
   28.2527    5.8500    3.2965 C   0  0  0  0  0  0
   25.6895    5.3764    4.2696 C   0  0  0  0  0  0
   35.3519    5.0147   -0.0667 C   0  0  0  0  0  0
   27.9406    6.1776    4.6145 C   0  0  0  0  0  0
   36.1953    3.4351   -1.6946 C   0  0  0  0  0  0
   34.2494    5.2671   -0.8810 C   0  0  0  0  0  0
   35.0898    3.6778   -2.5043 C   0  0  0  0  0  0
   26.6080    5.8500   -1.7647 O   0  0  0  0  0  0
   31.5590    4.4645   -2.4067 C   0  0  0  0  0  0
   26.3306    6.2500    6.3850 O   0  0  0  0  0  0
   37.4080    3.8500    0.3143 O   0  0  0  0  0  0
   30.3705    4.6237   -3.3939 C   0  0  2  0  0  0
   30.2277    6.0251   -4.0065 C   0  0  0  0  0  0
   28.9377    3.2408   -2.8520 H   0  0  0  0  0  0
   26.7991    3.8247   -1.8027 H   0  0  0  0  0  0
   29.2488    4.0850   -0.7720 H   0  0  0  0  0  0
   29.1082    5.7455   -1.3089 H   0  0  0  0  0  0
   25.7507    4.7977    0.3200 H   0  0  0  0  0  0
   26.7992    3.3994    0.4513 H   0  0  0  0  0  0
   32.9303    5.9444   -3.2166 H   0  0  0  0  0  0
   33.0659    4.3825   -3.9679 H   0  0  0  0  0  0
   25.2240    4.6172    2.3464 H   0  0  0  0  0  0
   29.2470    6.0408    2.9193 H   0  0  0  0  0  0
   24.6964    5.1872    4.6505 H   0  0  0  0  0  0
   35.4590    5.5299    0.8757 H   0  0  0  0  0  0
   28.6925    6.6121    5.2547 H   0  0  0  0  0  0
   36.9519    2.7337   -2.0150 H   0  0  0  0  0  0
   33.5055    5.9836   -0.5625 H   0  0  0  0  0  0
   35.0020    3.1597   -3.4480 H   0  0  0  0  0  0
   25.9510    5.5609   -2.4151 H   0  0  0  0  0  0
   31.6079    3.4235   -2.0830 H   0  0  0  0  0  0
   31.3836    5.0511   -1.5046 H   0  0  0  0  0  0
   26.6081    7.1390    6.6581 H   0  0  0  0  0  0
   38.0578    3.2994   -0.1563 H   0  0  0  0  0  0
   30.5382    3.9323   -4.2219 H   0  0  0  0  0  0
   31.0988    6.3025   -4.5995 H   0  0  0  0  0  0
   29.3625    6.0880   -4.6674 H   0  0  0  0  0  0
   30.0967    6.7670   -3.2280 H   0  0  0  0  0  0
  1  5  1  0  0  0
  1 23  1  0  0  0
  1 25  1  0  0  0
  2  9  1  0  0  0
  2  4  1  0  0  0
  3  5  1  0  0  0
  3  9  1  0  0  0
  3 19  1  0  0  0
  3 26  1  0  0  0
  4 11  1  0  0  0
  4 12  2  0  0  0
  5 27  1  0  0  0
  5 28  1  0  0  0
  6 15  2  0  0  0
  6 21  1  0  0  0
  6 13  1  0  0  0
  7 16  1  0  0  0
  7 22  1  0  0  0
  7 14  2  0  0  0
  8 10  1  0  0  0
  8 17  2  0  0  0
  8 18  1  0  0  0
  9 29  1  0  0  0
  9 30  1  0  0  0
 10 20  1  0  0  0
 10 31  1  0  0  0
 10 32  1  0  0  0
 11 13  2  0  0  0
 11 33  1  0  0  0
 12 15  1  0  0  0
 12 34  1  0  0  0
 13 35  1  0  0  0
 14 17  1  0  0  0
 14 36  1  0  0  0
 15 37  1  0  0  0
 16 18  2  0  0  0
 16 38  1  0  0  0
 17 39  1  0  0  0
 18 40  1  0  0  0
 19 41  1  0  0  0
 20 23  1  0  0  0
 20 42  1  0  0  0
 20 43  1  0  0  0
 21 44  1  0  0  0
 22 45  1  0  0  0
 23 24  1  0  0  0
 23 46  1  0  0  0
 24 47  1  0  0  0
 24 48  1  0  0  0
 24 49  1  0  0  0
M  END
> <s_m_entry_id>
3398

> <s_m_entry_name>
dock_pv.490

> <s_m_Source_Path>
/home/csk/Desktop/cluster/DUD-E-result/adrb1

> <s_m_Source_File>
dock_pv.maegz

> <i_m_Source_File_Index>
490

> <chembl_id>
CHEMBL12994

> <chembl_pref_name>
None

> <i_lp_mmshare_version>
53161

> <i_f3d_flags>
0

> <r_lp_tautomer_probability>
0.999999999997365

> <s_lp_Force_Field>
OPLS_2005

> <r_lp_Energy>
19.904922

> <b_lp_Chiralities_Consistent>
1

> <s_lp_Variant>
CHEMBL213_lig217-1

> <s_i_glide_gridfile>
glide-grid_2vt4

> <i_i_glide_lignum>
252

> <i_i_glide_rotatable_bonds>
12

> <r_i_docking_score>
-6.81690503640431

> <r_i_glide_ligand_efficiency>
-0.28403770985018

> <r_i_glide_ligand_efficiency_sa>
-0.819306529097111

> <r_i_glide_ligand_efficiency_ln>
-1.63159818260087

> <r_i_glide_gscore>
-6.81690503640431

> <r_i_glide_lipo>
-2.58703770093992

> <r_i_glide_hbond>
-0.8

> <r_i_glide_metal>
0

> <r_i_glide_rewards>
-1.14917755541865

> <r_i_glide_evdw>
-33.2704315185547

> <r_i_glide_ecoul>
-14.3962879180908

> <r_i_glide_erotb>
1.54227498359561

> <r_i_glide_esite>
0

> <r_i_glide_emodel>
-61.2380010363893

> <r_i_glide_energy>
-47.6667194366455

> <r_i_glide_einternal>
15.1938323974609

> <i_i_glide_confnum>
216

> <i_i_glide_posenum>
339

> <r_i_glide_eff_state_penalty>
0

> <s_user_duplicate_titles>
CHEMBL213_lig217,11211

> <s_m_subgroup_title>
dock_pv

> <s_m_subgroupid>
dock_pv

> <b_m_subgroup_collapsed>
1

$$$$
CHEMBL213_lig1061
                    3D
 Schrodinger Suite 2021-1.
 65 69  0  0  1  0            999 V2000
   27.0083    5.8511   -3.2377 N   0  0  3  0  0  0
   27.3691    5.4672   -1.8785 C   0  0  0  0  0  0
   27.1315    6.5483   -0.8177 C   0  0  0  0  0  0
   27.5935    6.0418    0.5585 C   0  0  0  0  0  0
   26.9887    4.7851    0.9923 N   0  0  0  0  0  0
   27.1363    3.7540   -0.0315 C   0  0  0  0  0  0
   26.6066    4.2297   -1.3730 C   0  0  0  0  0  0
   26.2034    4.6602    2.1232 C   0  0  0  0  0  0
   25.0868    3.9057    1.9310 N   0  0  0  0  0  0
   24.1492    3.9481    2.8900 C   0  0  0  0  0  0
   24.2064    4.6497    4.0447 N   0  0  0  0  0  0
   26.4566    5.3324    3.3631 C   0  0  0  0  0  0
   25.3399    5.3100    4.2494 C   0  0  0  0  0  0
   25.5636    6.2505    5.6908 S   0  0  0  0  0  0
   27.1874    6.5803    5.1862 C   0  0  0  0  0  0
   27.5904    5.9973    3.9932 C   0  0  0  0  0  0
   27.6302    7.0079   -3.8689 C   0  0  0  0  0  0
   29.1806    6.9604   -4.0097 C   0  0  1  0  0  0
   29.8615    5.9715   -4.9720 C   0  0  0  0  0  0
   29.5625    8.2715   -4.4145 O   0  0  0  0  0  0
   29.2684    4.6958   -4.8151 O   0  0  0  0  0  0
   30.0093    3.6920   -4.2561 C   0  0  0  0  0  0
   30.8320    3.9164   -3.1453 C   0  0  0  0  0  0
   31.5309    2.8634   -2.5770 C   0  0  0  0  0  0
   31.4120    1.5870   -3.1141 C   0  0  0  0  0  0
   30.6079    1.3641   -4.2312 C   0  0  0  0  0  0
   29.8798    2.4124   -4.8077 C   0  0  0  0  0  0
   29.0301    6.0477    3.5625 C   0  0  0  0  0  0
   29.5288    5.0747    2.6981 C   0  0  0  0  0  0
   30.8071    5.1694    2.1615 C   0  0  0  0  0  0
   31.6548    6.1830    2.5919 C   0  0  0  0  0  0
   31.2168    7.0988    3.5401 C   0  0  0  0  0  0
   29.9004    7.0578    3.9935 C   0  0  0  0  0  0
   29.0396    2.2651   -5.8986 O   0  0  0  0  0  0
   28.8105    0.9704   -6.4329 C   0  0  0  0  0  0
   26.1291    5.4465   -3.5745 H   0  0  0  0  0  0
   28.4212    5.1824   -1.8986 H   0  0  0  0  0  0
   27.6893    7.4501   -1.0670 H   0  0  0  0  0  0
   26.0845    6.8502   -0.7791 H   0  0  0  0  0  0
   28.6607    5.8487    0.4804 H   0  0  0  0  0  0
   27.4028    6.8004    1.3106 H   0  0  0  0  0  0
   28.2047    3.6150   -0.1174 H   0  0  0  0  0  0
   26.7204    2.7874    0.2560 H   0  0  0  0  0  0
   25.5501    4.4549   -1.2151 H   0  0  0  0  0  0
   26.6548    3.4297   -2.1085 H   0  0  0  0  0  0
   23.2479    3.3802    2.7081 H   0  0  0  0  0  0
   27.7970    7.1561    5.8680 H   0  0  0  0  0  0
   27.3642    7.8535   -3.2447 H   0  0  0  0  0  0
   27.1382    7.1858   -4.8150 H   0  0  0  0  0  0
   29.5791    6.6520   -3.0389 H   0  0  0  0  0  0
   30.9393    5.9685   -4.7916 H   0  0  0  0  0  0
   29.8076    6.2522   -6.0215 H   0  0  0  0  0  0
   30.2961    8.2323   -5.0484 H   0  0  0  0  0  0
   30.9184    4.8950   -2.7030 H   0  0  0  0  0  0
   32.1603    3.0474   -1.7198 H   0  0  0  0  0  0
   31.9510    0.7700   -2.6631 H   0  0  0  0  0  0
   30.5453    0.3631   -4.6293 H   0  0  0  0  0  0
   28.9113    4.2507    2.4093 H   0  0  0  0  0  0
   31.1449    4.4309    1.4524 H   0  0  0  0  0  0
   32.6623    6.2426    2.2079 H   0  0  0  0  0  0
   31.8975    7.8505    3.8995 H   0  0  0  0  0  0
   29.5711    7.8236    4.6786 H   0  0  0  0  0  0
   28.1113    1.0453   -7.2672 H   0  0  0  0  0  0
   29.7320    0.5292   -6.8138 H   0  0  0  0  0  0
   28.3708    0.3039   -5.6891 H   0  0  0  0  0  0
  1 17  1  0  0  0
  1  2  1  0  0  0
  1 36  1  0  0  0
  2  3  1  0  0  0
  2  7  1  0  0  0
  2 37  1  0  0  0
  3  4  1  0  0  0
  3 38  1  0  0  0
  3 39  1  0  0  0
  4  5  1  0  0  0
  4 40  1  0  0  0
  4 41  1  0  0  0
  5  6  1  0  0  0
  5  8  1  0  0  0
  6  7  1  0  0  0
  6 42  1  0  0  0
  6 43  1  0  0  0
  7 44  1  0  0  0
  7 45  1  0  0  0
  8  9  2  0  0  0
  8 12  1  0  0  0
  9 10  1  0  0  0
 10 11  2  0  0  0
 10 46  1  0  0  0
 11 13  1  0  0  0
 12 13  2  0  0  0
 12 16  1  0  0  0
 13 14  1  0  0  0
 14 15  1  0  0  0
 15 16  2  0  0  0
 15 47  1  0  0  0
 16 28  1  0  0  0
 17 18  1  0  0  0
 17 48  1  0  0  0
 17 49  1  0  0  0
 18 19  1  0  0  0
 18 20  1  0  0  0
 18 50  1  0  0  0
 19 21  1  0  0  0
 19 51  1  0  0  0
 19 52  1  0  0  0
 20 53  1  0  0  0
 21 22  1  0  0  0
 22 23  2  0  0  0
 22 27  1  0  0  0
 23 24  1  0  0  0
 23 54  1  0  0  0
 24 25  2  0  0  0
 24 55  1  0  0  0
 25 26  1  0  0  0
 25 56  1  0  0  0
 26 27  2  0  0  0
 26 57  1  0  0  0
 27 34  1  0  0  0
 28 29  2  0  0  0
 28 33  1  0  0  0
 29 30  1  0  0  0
 29 58  1  0  0  0
 30 31  2  0  0  0
 30 59  1  0  0  0
 31 32  1  0  0  0
 31 60  1  0  0  0
 32 33  2  0  0  0
 32 61  1  0  0  0
 33 62  1  0  0  0
 34 35  1  0  0  0
 35 63  1  0  0  0
 35 64  1  0  0  0
 35 65  1  0  0  0
M  END
> <s_m_entry_id>
3399

> <s_m_entry_name>
dock_pv.491

> <s_m_Source_Path>
/home/csk/Desktop/cluster/DUD-E-result/adrb1

> <s_m_Source_File>
dock_pv.maegz

> <i_m_Source_File_Index>
491

> <chembl_id>
CHEMBL1258023

> <chembl_pref_name>
None

> <i_lp_mmshare_version>
53161

> <i_f3d_flags>
0

> <r_lp_tautomer_probability>
1

> <s_lp_Force_Field>
OPLS_2005

> <r_lp_Energy>
42.404343

> <b_lp_Chiralities_Consistent>
1

> <s_lp_Variant>
CHEMBL213_lig1061-2

> <s_i_glide_gridfile>
glide-grid_2vt4

> <i_i_glide_lignum>
1233

> <i_i_glide_rotatable_bonds>
10

> <r_i_docking_score>
-6.81348719312279

> <r_i_glide_ligand_efficiency>
-0.194671062660651

> <r_i_glide_ligand_efficiency_sa>
-0.636781953883208

> <r_i_glide_ligand_efficiency_ln>
-1.49571165609134

> <r_i_glide_gscore>
-6.81348719312279

> <r_i_glide_lipo>
-3.33381312571286

> <r_i_glide_hbond>
-0.452445796804175

> <r_i_glide_metal>
0

> <r_i_glide_rewards>
-1.20361343407626

> <r_i_glide_evdw>
-35.5749359130859

> <r_i_glide_ecoul>
-4.80847597122192

> <r_i_glide_erotb>
0.676403354808092

> <r_i_glide_esite>
0

> <r_i_glide_emodel>
-49.0686040897111

> <r_i_glide_energy>
-40.3834118843079

> <r_i_glide_einternal>
15.2896499633789

> <i_i_glide_confnum>
168

> <i_i_glide_posenum>
150

> <r_i_glide_eff_state_penalty>
0

> <s_user_duplicate_titles>
CHEMBL213_lig1061

> <s_m_subgroup_title>
dock_pv

> <s_m_subgroupid>
dock_pv

> <b_m_subgroup_collapsed>
1

$$$$
CHEMBL213_lig931
                    3D
 Schrodinger Suite 2021-1.
 71 74  0  0  1  0            999 V2000
   26.9704    5.8194    0.2501 C   0  0  0  0  0  0
   28.2539    5.4005   -0.4875 C   0  0  0  0  0  0
   28.2582    5.4853   -1.8349 N   0  0  0  0  0  0
   29.2314    5.0498    0.1745 O   0  0  0  0  0  0
   29.3087    5.1112   -2.6942 C   0  0  0  0  0  0
   30.1388    4.0102   -2.4372 C   0  0  0  0  0  0
   31.1113    3.6376   -3.3582 C   0  0  0  0  0  0
   31.2702    4.3637   -4.5387 C   0  0  0  0  0  0
   30.4639    5.4783   -4.7854 C   0  0  0  0  0  0
   29.4757    5.8424   -3.8714 C   0  0  0  0  0  0
   32.2809    3.8973   -5.5834 C   0  0  0  0  0  0
   33.7204    4.4391   -5.4228 C   0  0  1  0  0  0
   34.2594    4.0536   -4.1141 N   0  0  2  0  0  0
   35.5987    4.5770   -3.8449 C   0  0  0  0  0  0
   36.1049    4.2641   -2.4181 C   0  0  1  0  0  0
   35.2634    4.9003   -1.2898 C   0  0  0  0  0  0
   36.2162    2.8582   -2.2217 O   0  0  0  0  0  0
   36.1050    5.1213   -0.1577 O   0  0  0  0  0  0
   35.5759    5.6570    0.9986 C   0  0  0  0  0  0
   34.2045    5.7510    1.2722 C   0  0  0  0  0  0
   33.7683    6.2582    2.4926 C   0  0  0  0  0  0
   34.6952    6.7146    3.4262 C   0  0  0  0  0  0
   36.0592    6.6494    3.1555 C   0  0  0  0  0  0
   36.4938    6.1129    1.9455 C   0  0  0  0  0  0
   26.2095    4.6502    0.8730 C   0  0  0  0  0  0
   25.8034    4.5680    2.2000 N   0  0  0  0  0  0
   25.7935    3.6254    0.1563 N   0  0  0  0  0  0
   25.9364    5.5233    3.3107 C   0  0  0  0  0  0
   27.3204    5.9497    3.7901 C   0  0  0  0  0  0
   27.3886    6.9292    4.7868 C   0  0  0  0  0  0
   28.6183    7.4496    5.1804 C   0  0  0  0  0  0
   28.4990    5.4512    3.2330 C   0  0  0  0  0  0
   25.0436    2.9057    0.9647 C   0  0  0  0  0  0
   25.0077    3.4489    2.2339 C   0  0  0  0  0  0
   29.7218    6.0134    3.5858 C   0  0  0  0  0  0
   29.7815    7.0130    4.5541 C   0  0  0  0  0  0
   34.6097    3.9387   -6.5813 C   0  0  0  0  0  0
   26.3144    6.3481   -0.4423 H   0  0  0  0  0  0
   27.2420    6.5697    0.9901 H   0  0  0  0  0  0
   27.4414    5.8727   -2.2828 H   0  0  0  0  0  0
   30.0055    3.4096   -1.5494 H   0  0  0  0  0  0
   31.7266    2.7722   -3.1610 H   0  0  0  0  0  0
   30.5824    6.0489   -5.6957 H   0  0  0  0  0  0
   28.8408    6.6895   -4.0884 H   0  0  0  0  0  0
   32.2878    2.8062   -5.6038 H   0  0  0  0  0  0
   31.8973    4.1862   -6.5633 H   0  0  0  0  0  0
   33.6762    5.5271   -5.4690 H   0  0  0  0  0  0
   34.2864    3.0474   -4.0163 H   0  0  0  0  0  0
   36.3204    4.1700   -4.5534 H   0  0  0  0  0  0
   35.5949    5.6576   -3.9859 H   0  0  0  0  0  0
   37.1147    4.6744   -2.3620 H   0  0  0  0  0  0
   34.8703    5.8653   -1.6164 H   0  0  0  0  0  0
   34.4067    4.2634   -1.0584 H   0  0  0  0  0  0
   37.0182    2.6882   -1.7081 H   0  0  0  0  0  0
   33.4641    5.4166    0.5629 H   0  0  0  0  0  0
   32.7127    6.3267    2.7000 H   0  0  0  0  0  0
   34.3485    7.1271    4.3625 H   0  0  0  0  0  0
   36.7756    7.0106    3.8788 H   0  0  0  0  0  0
   37.5505    6.0503    1.7337 H   0  0  0  0  0  0
   25.4030    5.1145    4.1700 H   0  0  0  0  0  0
   25.4077    6.4295    3.0301 H   0  0  0  0  0  0
   26.4872    7.3146    5.2426 H   0  0  0  0  0  0
   28.6619    8.2160    5.9396 H   0  0  0  0  0  0
   28.4749    4.6597    2.5004 H   0  0  0  0  0  0
   24.5314    2.0174    0.6248 H   0  0  0  0  0  0
   24.4932    3.1511    3.1337 H   0  0  0  0  0  0
   30.6248    5.6434    3.1254 H   0  0  0  0  0  0
   30.7382    7.4346    4.8298 H   0  0  0  0  0  0
   34.1495    4.1504   -7.5467 H   0  0  0  0  0  0
   35.5791    4.4368   -6.5937 H   0  0  0  0  0  0
   34.7795    2.8625   -6.5277 H   0  0  0  0  0  0
  1  2  1  0  0  0
  1 25  1  0  0  0
  1 38  1  0  0  0
  1 39  1  0  0  0
  2  3  1  0  0  0
  2  4  2  0  0  0
  3  5  1  0  0  0
  3 40  1  0  0  0
  5 10  1  0  0  0
  5  6  2  0  0  0
  6  7  1  0  0  0
  6 41  1  0  0  0
  7  8  2  0  0  0
  7 42  1  0  0  0
  8  9  1  0  0  0
  8 11  1  0  0  0
  9 10  2  0  0  0
  9 43  1  0  0  0
 10 44  1  0  0  0
 11 12  1  0  0  0
 11 45  1  0  0  0
 11 46  1  0  0  0
 12 13  1  0  0  0
 12 37  1  0  0  0
 12 47  1  0  0  0
 13 14  1  0  0  0
 13 48  1  0  0  0
 14 15  1  0  0  0
 14 49  1  0  0  0
 14 50  1  0  0  0
 15 16  1  0  0  0
 15 17  1  0  0  0
 15 51  1  0  0  0
 16 18  1  0  0  0
 16 52  1  0  0  0
 16 53  1  0  0  0
 17 54  1  0  0  0
 18 19  1  0  0  0
 19 20  2  0  0  0
 19 24  1  0  0  0
 20 21  1  0  0  0
 20 55  1  0  0  0
 21 22  2  0  0  0
 21 56  1  0  0  0
 22 23  1  0  0  0
 22 57  1  0  0  0
 23 24  2  0  0  0
 23 58  1  0  0  0
 24 59  1  0  0  0
 25 26  1  0  0  0
 25 27  2  0  0  0
 26 34  1  0  0  0
 26 28  1  0  0  0
 27 33  1  0  0  0
 28 29  1  0  0  0
 28 60  1  0  0  0
 28 61  1  0  0  0
 29 30  2  0  0  0
 29 32  1  0  0  0
 30 31  1  0  0  0
 30 62  1  0  0  0
 31 36  2  0  0  0
 31 63  1  0  0  0
 32 35  2  0  0  0
 32 64  1  0  0  0
 33 34  2  0  0  0
 33 65  1  0  0  0
 34 66  1  0  0  0
 35 36  1  0  0  0
 35 67  1  0  0  0
 36 68  1  0  0  0
 37 69  1  0  0  0
 37 70  1  0  0  0
 37 71  1  0  0  0
M  END
> <s_m_entry_id>
3400

> <s_m_entry_name>
dock_pv.492

> <s_m_Source_Path>
/home/csk/Desktop/cluster/DUD-E-result/adrb1

> <s_m_Source_File>
dock_pv.maegz

> <i_m_Source_File_Index>
492

> <chembl_id>
CHEMBL466088

> <chembl_pref_name>
None

> <i_lp_mmshare_version>
53161

> <i_f3d_flags>
0

> <r_lp_tautomer_probability>
1

> <s_lp_Force_Field>
OPLS_2005

> <r_lp_Energy>
37.977539

> <b_lp_Chiralities_Consistent>
1

> <s_lp_Variant>
CHEMBL213_lig931-2

> <s_i_glide_gridfile>
glide-grid_2vt4

> <i_i_glide_lignum>
1040

> <i_i_glide_rotatable_bonds>
15

> <r_i_docking_score>
-6.81239972758697

> <r_i_glide_ligand_efficiency>
-0.184118911556405

> <r_i_glide_ligand_efficiency_sa>
-0.613525059651058

> <r_i_glide_ligand_efficiency_ln>
-1.47744979560486

> <r_i_glide_gscore>
-6.81239972758697

> <r_i_glide_lipo>
-3.38408607206219

> <r_i_glide_hbond>
0

> <r_i_glide_metal>
0

> <r_i_glide_rewards>
-0.957965472535669

> <r_i_glide_evdw>
-55.7825660705566

> <r_i_glide_ecoul>
-4.95159530639648

> <r_i_glide_erotb>
1.06707505989672

> <r_i_glide_esite>
-0.00555564339852459

> <r_i_glide_emodel>
-73.3250931104258

> <r_i_glide_energy>
-60.7341613769531

> <r_i_glide_einternal>
12.3320121765137

> <i_i_glide_confnum>
69

> <i_i_glide_posenum>
105

> <r_i_glide_eff_state_penalty>
0

> <s_user_duplicate_titles>
CHEMBL213_lig931,480613

> <s_m_subgroup_title>
dock_pv

> <s_m_subgroupid>
dock_pv

> <b_m_subgroup_collapsed>
1

$$$$
CHEMBL213_lig1216 
                    3D
 Schrodinger Suite 2021-1.
 48 50  0  0  1  0            999 V2000
   32.0053    4.1608   -2.2751 C   0  0  0  0  0  0
   31.9436    3.0875   -3.1558 C   0  0  0  0  0  0
   29.7805    4.8725   -2.9486 C   0  0  0  0  0  0
   30.9290    5.0319   -2.1681 C   0  0  0  0  0  0
   29.7233    3.7975   -3.8624 C   0  0  0  0  0  0
   30.8025    2.8949   -3.9457 C   0  0  0  0  0  0
   30.7237    1.8145   -4.8522 N   0  0  0  0  0  0
   29.7313    1.5433   -5.7274 C   0  0  0  0  0  0
   28.6085    2.4488   -5.6109 C   0  0  0  0  0  0
   28.5894    3.5092   -4.7738 C   0  0  0  0  0  0
   29.8093    0.6499   -6.5634 O   0  0  0  0  0  0
   33.0270    2.2501   -3.2152 O   0  0  0  0  0  0
   28.6548    5.8974   -2.7638 C   0  0  2  0  0  0
   27.3293    5.3079   -2.2420 C   0  0  0  0  0  0
   28.4117    6.6205   -3.9564 O   0  0  0  0  0  0
   27.4089    4.7010   -0.9106 N   0  0  1  0  0  0
   26.1517    4.8692   -0.1806 C   0  0  0  0  0  0
   25.8766    3.6889    0.7720 C   0  0  0  0  0  0
   25.3138    4.1001    2.1531 C   0  0  0  0  0  0
   26.2248    4.9398    3.0574 C   0  0  0  0  0  0
   27.5962    5.0940    2.8104 C   0  0  0  0  0  0
   28.3839    5.8502    3.6737 C   0  0  0  0  0  0
   27.7980    6.4774    4.7720 C   0  0  0  0  0  0
   26.4397    6.3248    5.0336 C   0  0  0  0  0  0
   25.6584    5.5491    4.1811 C   0  0  0  0  0  0
   28.5591    7.2710    5.5867 O   0  0  0  0  0  0
   32.8809    4.3194   -1.6579 H   0  0  0  0  0  0
   30.9926    5.8442   -1.4667 H   0  0  0  0  0  0
   31.5126    1.1948   -4.9198 H   0  0  0  0  0  0
   27.7570    2.2624   -6.2479 H   0  0  0  0  0  0
   27.7208    4.1472   -4.7987 H   0  0  0  0  0  0
   33.8254    2.6417   -2.8501 H   0  0  0  0  0  0
   28.9674    6.6497   -2.0381 H   0  0  0  0  0  0
   27.0078    4.5198   -2.9170 H   0  0  0  0  0  0
   26.5637    6.0869   -2.2638 H   0  0  0  0  0  0
   27.6930    7.2428   -3.8049 H   0  0  0  0  0  0
   27.5891    3.7113   -1.0301 H   0  0  0  0  0  0
   25.2918    4.9724   -0.8428 H   0  0  0  0  0  0
   26.2241    5.8076    0.3699 H   0  0  0  0  0  0
   26.7495    3.0541    0.8977 H   0  0  0  0  0  0
   25.1535    3.0333    0.2867 H   0  0  0  0  0  0
   25.0396    3.1980    2.7052 H   0  0  0  0  0  0
   24.3830    4.6435    1.9986 H   0  0  0  0  0  0
   28.0684    4.6486    1.9490 H   0  0  0  0  0  0
   29.4408    5.9700    3.4735 H   0  0  0  0  0  0
   25.9864    6.8087    5.8880 H   0  0  0  0  0  0
   24.6069    5.4293    4.3881 H   0  0  0  0  0  0
   28.0056    7.7467    6.2181 H   0  0  0  0  0  0
  1  2  2  0  0  0
  1  4  1  0  0  0
  1 27  1  0  0  0
  2  6  1  0  0  0
  2 12  1  0  0  0
  3  5  1  0  0  0
  3  4  2  0  0  0
  3 13  1  0  0  0
  4 28  1  0  0  0
  5  6  2  0  0  0
  5 10  1  0  0  0
  6  7  1  0  0  0
  7  8  1  0  0  0
  7 29  1  0  0  0
  8  9  1  0  0  0
  8 11  2  0  0  0
  9 10  2  0  0  0
  9 30  1  0  0  0
 10 31  1  0  0  0
 12 32  1  0  0  0
 13 14  1  0  0  0
 13 15  1  0  0  0
 13 33  1  0  0  0
 14 16  1  0  0  0
 14 34  1  0  0  0
 14 35  1  0  0  0
 15 36  1  0  0  0
 16 17  1  0  0  0
 16 37  1  0  0  0
 17 18  1  0  0  0
 17 38  1  0  0  0
 17 39  1  0  0  0
 18 19  1  0  0  0
 18 40  1  0  0  0
 18 41  1  0  0  0
 19 20  1  0  0  0
 19 42  1  0  0  0
 19 43  1  0  0  0
 20 21  2  0  0  0
 20 25  1  0  0  0
 21 22  1  0  0  0
 21 44  1  0  0  0
 22 23  2  0  0  0
 22 45  1  0  0  0
 23 24  1  0  0  0
 23 26  1  0  0  0
 24 25  2  0  0  0
 24 46  1  0  0  0
 25 47  1  0  0  0
 26 48  1  0  0  0
M  END
> <s_m_entry_id>
3401

> <s_m_entry_name>
dock_pv.493

> <s_m_Source_Path>
/home/csk/Desktop/cluster/DUD-E-result/adrb1

> <s_m_Source_File>
dock_pv.maegz

> <i_m_Source_File_Index>
493

> <chembl_id>
CHEMBL4556022

> <chembl_pref_name>
None

> <i_lp_mmshare_version>
53161

> <i_f3d_flags>
0

> <r_lp_tautomer_probability>
0.999999999997365

> <s_lp_Force_Field>
OPLS_2005

> <r_lp_Energy>
32.292477

> <b_lp_Chiralities_Consistent>
1

> <s_lp_Variant>
CHEMBL213_lig1216 -1

> <s_i_glide_gridfile>
glide-grid_2vt4

> <i_i_glide_lignum>
1443

> <i_i_glide_rotatable_bonds>
10

> <r_i_docking_score>
-6.81225422330181

> <r_i_glide_ligand_efficiency>
-0.2620097778193

> <r_i_glide_ligand_efficiency_sa>
-0.776202935830985

> <r_i_glide_ligand_efficiency_ln>
-1.59983555151314

> <r_i_glide_gscore>
-6.81225422330181

> <r_i_glide_lipo>
-2.47158214757279

> <r_i_glide_hbond>
-0.40360535194402

> <r_i_glide_metal>
0

> <r_i_glide_rewards>
-1.65106278787879

> <r_i_glide_evdw>
-39.6837387084961

> <r_i_glide_ecoul>
-9.11183834075928

> <r_i_glide_erotb>
1.06495875063248

> <r_i_glide_esite>
0

> <r_i_glide_emodel>
-63.7900201564922

> <r_i_glide_energy>
-48.7955770492554

> <r_i_glide_einternal>
9.66119003295898

> <i_i_glide_confnum>
214

> <i_i_glide_posenum>
351

> <r_i_glide_eff_state_penalty>
0

> <s_user_duplicate_titles>
CHEMBL213_lig1216 

> <s_m_subgroup_title>
dock_pv

> <s_m_subgroupid>
dock_pv

> <b_m_subgroup_collapsed>
1

$$$$
CHEMBL213_lig722
                    3D
 Schrodinger Suite 2021-1.
 61 64  0  0  1  0            999 V2000
   30.5407    5.3056   -3.3286 C   0  0  0  0  0  0
   29.1956    5.5503   -3.6191 C   0  0  0  0  0  0
   28.2168    5.3114   -2.6561 C   0  0  0  0  0  0
   28.5734    4.8351   -1.3886 C   0  0  0  0  0  0
   29.9218    4.5701   -1.1188 C   0  0  0  0  0  0
   30.9007    4.7975   -2.0820 C   0  0  0  0  0  0
   27.5443    4.6233   -0.3340 C   0  0  0  0  0  0
   26.3540    3.9599   -0.6018 C   0  0  0  0  0  0
   25.3886    3.7986    0.3883 C   0  0  0  0  0  0
   25.6126    4.2489    1.7057 C   0  0  0  0  0  0
   26.8541    4.8531    2.0148 C   0  0  0  0  0  0
   27.7661    5.0613    0.9689 C   0  0  0  0  0  0
   31.6166    5.6438   -4.3507 C   0  0  0  0  0  0
   31.8323    4.5836   -5.4500 C   0  0  0  0  0  0
   32.8979    3.6331   -5.1313 N   0  0  2  0  0  0
   34.2564    4.1763   -5.2846 C   0  0  0  0  0  0
   34.7808    4.3302   -6.7436 C   0  0  1  0  0  0
   34.6770    3.0564   -7.5793 C   0  0  0  0  0  0
   34.2070    5.4498   -7.3984 O   0  0  0  0  0  0
   35.7765    2.1990   -7.6907 C   0  0  0  0  0  0
   35.6931    1.0630   -8.4919 C   0  0  0  0  0  0
   34.5112    0.7841   -9.1764 C   0  0  0  0  0  0
   33.4106    1.6304   -9.0610 C   0  0  0  0  0  0
   33.4920    2.7596   -8.2591 C   0  0  0  0  0  0
   24.5204    4.1338    2.7561 C   0  0  0  0  0  0
   23.4083    3.4500    2.3651 O   0  0  0  0  0  0
   24.6083    4.6496    3.8704 O   0  0  0  0  0  0
   27.1268    5.1796    3.3408 O   0  0  0  0  0  0
   28.1638    5.9683    3.8015 C   0  0  0  0  0  0
   29.4943    5.8087    3.4034 C   0  0  0  0  0  0
   30.4919    6.6500    3.8864 C   0  0  0  0  0  0
   30.1688    7.6215    4.8213 C   0  0  0  0  0  0
   28.8609    7.7531    5.2731 C   0  0  0  0  0  0
   27.8621    6.9171    4.7829 C   0  0  0  0  0  0
   28.9063    5.9450   -4.5820 H   0  0  0  0  0  0
   27.1796    5.5127   -2.8903 H   0  0  0  0  0  0
   30.2136    4.1838   -0.1539 H   0  0  0  0  0  0
   31.9374    4.5942   -1.8535 H   0  0  0  0  0  0
   26.1767    3.5845   -1.6009 H   0  0  0  0  0  0
   24.4641    3.3295    0.0821 H   0  0  0  0  0  0
   28.6832    5.5807    1.1280 H   0  0  0  0  0  0
   31.3355    6.5887   -4.8157 H   0  0  0  0  0  0
   32.5485    5.8505   -3.8279 H   0  0  0  0  0  0
   30.9107    4.0094   -5.5587 H   0  0  0  0  0  0
   31.9749    5.0526   -6.4200 H   0  0  0  0  0  0
   32.8000    2.8165   -5.7187 H   0  0  0  0  0  0
   34.3765    5.1104   -4.7346 H   0  0  0  0  0  0
   34.9177    3.4689   -4.7819 H   0  0  0  0  0  0
   35.8388    4.5889   -6.6766 H   0  0  0  0  0  0
   34.7570    6.2292   -7.2013 H   0  0  0  0  0  0
   36.6983    2.4175   -7.1705 H   0  0  0  0  0  0
   36.5431    0.4043   -8.5872 H   0  0  0  0  0  0
   34.4537   -0.0908   -9.8073 H   0  0  0  0  0  0
   32.4967    1.4367   -9.6014 H   0  0  0  0  0  0
   32.6426    3.4204   -8.1769 H   0  0  0  0  0  0
   23.4726    3.1585    1.4539 H   0  0  0  0  0  0
   29.7857    5.0035    2.7480 H   0  0  0  0  0  0
   31.5141    6.5224    3.5625 H   0  0  0  0  0  0
   30.9481    8.2645    5.2017 H   0  0  0  0  0  0
   28.6081    8.5183    5.9885 H   0  0  0  0  0  0
   26.8464    7.0264    5.1339 H   0  0  0  0  0  0
  1  6  1  0  0  0
  1 13  1  0  0  0
  1  2  2  0  0  0
  2  3  1  0  0  0
  2 35  1  0  0  0
  3  4  2  0  0  0
  3 36  1  0  0  0
  4  5  1  0  0  0
  4  7  1  0  0  0
  5  6  2  0  0  0
  5 37  1  0  0  0
  6 38  1  0  0  0
  7 12  1  0  0  0
  7  8  2  0  0  0
  8  9  1  0  0  0
  8 39  1  0  0  0
  9 10  2  0  0  0
  9 40  1  0  0  0
 10 11  1  0  0  0
 10 25  1  0  0  0
 11 12  2  0  0  0
 11 28  1  0  0  0
 12 41  1  0  0  0
 13 14  1  0  0  0
 13 42  1  0  0  0
 13 43  1  0  0  0
 14 15  1  0  0  0
 14 44  1  0  0  0
 14 45  1  0  0  0
 15 16  1  0  0  0
 15 46  1  0  0  0
 16 17  1  0  0  0
 16 47  1  0  0  0
 16 48  1  0  0  0
 17 18  1  0  0  0
 17 19  1  0  0  0
 17 49  1  0  0  0
 18 20  2  0  0  0
 18 24  1  0  0  0
 19 50  1  0  0  0
 20 21  1  0  0  0
 20 51  1  0  0  0
 21 22  2  0  0  0
 21 52  1  0  0  0
 22 23  1  0  0  0
 22 53  1  0  0  0
 23 24  2  0  0  0
 23 54  1  0  0  0
 24 55  1  0  0  0
 25 26  1  0  0  0
 25 27  2  0  0  0
 26 56  1  0  0  0
 28 29  1  0  0  0
 29 30  2  0  0  0
 29 34  1  0  0  0
 30 31  1  0  0  0
 30 57  1  0  0  0
 31 32  2  0  0  0
 31 58  1  0  0  0
 32 33  1  0  0  0
 32 59  1  0  0  0
 33 34  2  0  0  0
 33 60  1  0  0  0
 34 61  1  0  0  0
M  END
> <s_m_entry_id>
3402

> <s_m_entry_name>
dock_pv.494

> <s_m_Source_Path>
/home/csk/Desktop/cluster/DUD-E-result/adrb1

> <s_m_Source_File>
dock_pv.maegz

> <i_m_Source_File_Index>
494

> <chembl_id>
CHEMBL273006

> <chembl_pref_name>
None

> <i_lp_mmshare_version>
53161

> <i_f3d_flags>
0

> <r_lp_tautomer_probability>
1

> <s_lp_Force_Field>
OPLS_2005

> <r_lp_Energy>
40.144221

> <b_lp_Chiralities_Consistent>
1

> <s_lp_Variant>
CHEMBL213_lig722-1

> <s_i_glide_gridfile>
glide-grid_2vt4

> <i_i_glide_lignum>
828

> <i_i_glide_rotatable_bonds>
12

> <r_i_docking_score>
-6.80990255931613

> <r_i_glide_ligand_efficiency>
-0.200291251744592

> <r_i_glide_ligand_efficiency_sa>
-0.648865902081708

> <r_i_glide_ligand_efficiency_ln>
-1.50449848664974

> <r_i_glide_gscore>
-6.80990255931613

> <r_i_glide_lipo>
-2.86657167701947

> <r_i_glide_hbond>
-0.16

> <r_i_glide_metal>
0

> <r_i_glide_rewards>
-1.18502814562491

> <r_i_glide_evdw>
-46.5935287475586

> <r_i_glide_ecoul>
-7.64644908905029

> <r_i_glide_erotb>
0.878341064063721

> <r_i_glide_esite>
0

> <r_i_glide_emodel>
-72.529447858111

> <r_i_glide_energy>
-54.2399778366089

> <r_i_glide_einternal>
10.1760807037354

> <i_i_glide_confnum>
62

> <i_i_glide_posenum>
83

> <r_i_glide_eff_state_penalty>
0

> <s_user_duplicate_titles>
CHEMBL213_lig722,439192

> <s_m_subgroup_title>
dock_pv

> <s_m_subgroupid>
dock_pv

> <b_m_subgroup_collapsed>
1

$$$$
CHEMBL213_lig1213 
                    3D
 Schrodinger Suite 2021-1.
 51 53  0  0  1  0            999 V2000
   32.8361    4.6492   -5.2561 C   0  0  0  0  0  0
   32.3429    3.8250   -6.2658 C   0  0  0  0  0  0
   30.8469    4.2500   -3.9035 C   0  0  0  0  0  0
   32.0988    4.8570   -4.0905 C   0  0  0  0  0  0
   30.3496    3.4216   -4.9245 C   0  0  0  0  0  0
   31.0977    3.2068   -6.1011 C   0  0  0  0  0  0
   30.5643    2.3721   -7.1078 N   0  0  0  0  0  0
   29.3692    1.7425   -7.0896 C   0  0  0  0  0  0
   28.6083    1.9606   -5.8804 C   0  0  0  0  0  0
   29.0395    2.7333   -4.8654 C   0  0  0  0  0  0
   28.9750    1.0501   -8.0149 O   0  0  0  0  0  0
   33.0850    3.6465   -7.4067 O   0  0  0  0  0  0
   30.0309    4.4819   -2.6201 C   0  0  2  0  0  0
   28.7668    5.3395   -2.8953 C   0  0  0  0  0  0
   30.7826    5.0497   -1.5602 O   0  0  0  0  0  0
   27.7000    5.0785   -1.9312 N   0  0  1  0  0  0
   27.5939    6.1470   -0.9530 C   0  0  0  0  0  0
   26.3976    5.8989   -0.0185 C   0  0  0  0  0  0
   26.5623    4.7867    1.0475 C   0  0  0  0  0  0
   27.3783    5.2527    2.2455 C   0  0  0  0  0  0
   26.7559    5.8497    3.3471 C   0  0  0  0  0  0
   27.5267    6.3907    4.3762 C   0  0  0  0  0  0
   28.9195    6.3848    4.2846 C   0  0  0  0  0  0
   29.5317    5.7472    3.1932 C   0  0  0  0  0  0
   28.7662    5.1419    2.2066 C   0  0  0  0  0  0
   29.6163    7.0296    5.2902 O   0  0  0  0  0  0
   31.0218    7.2072    5.1396 C   0  0  0  0  0  0
   33.7927    5.1397   -5.3713 H   0  0  0  0  0  0
   32.5123    5.5037   -3.3297 H   0  0  0  0  0  0
   31.1032    2.2322   -7.9479 H   0  0  0  0  0  0
   27.6448    1.4790   -5.8074 H   0  0  0  0  0  0
   28.3873    2.8411   -4.0145 H   0  0  0  0  0  0
   33.8564    4.2209   -7.4468 H   0  0  0  0  0  0
   29.7373    3.4914   -2.2712 H   0  0  0  0  0  0
   28.3488    5.0768   -3.8662 H   0  0  0  0  0  0
   29.0195    6.3979   -2.9889 H   0  0  0  0  0  0
   31.4428    4.4085   -1.2898 H   0  0  0  0  0  0
   26.8073    4.9265   -2.3948 H   0  0  0  0  0  0
   27.4468    7.0977   -1.4638 H   0  0  0  0  0  0
   28.5208    6.2303   -0.3880 H   0  0  0  0  0  0
   25.5062    5.7029   -0.6185 H   0  0  0  0  0  0
   26.2088    6.8430    0.4937 H   0  0  0  0  0  0
   27.0045    3.8906    0.6041 H   0  0  0  0  0  0
   25.5780    4.4702    1.4007 H   0  0  0  0  0  0
   25.6782    5.9242    3.3911 H   0  0  0  0  0  0
   27.0456    6.8711    5.2175 H   0  0  0  0  0  0
   30.6070    5.6986    3.1039 H   0  0  0  0  0  0
   29.2560    4.6501    1.3738 H   0  0  0  0  0  0
   31.4083    7.7760    5.9836 H   0  0  0  0  0  0
   31.2568    7.7665    4.2330 H   0  0  0  0  0  0
   31.5481    6.2527    5.1198 H   0  0  0  0  0  0
  1  2  2  0  0  0
  1  4  1  0  0  0
  1 28  1  0  0  0
  2  6  1  0  0  0
  2 12  1  0  0  0
  3  5  1  0  0  0
  3  4  2  0  0  0
  3 13  1  0  0  0
  4 29  1  0  0  0
  5  6  2  0  0  0
  5 10  1  0  0  0
  6  7  1  0  0  0
  7  8  1  0  0  0
  7 30  1  0  0  0
  8  9  1  0  0  0
  8 11  2  0  0  0
  9 10  2  0  0  0
  9 31  1  0  0  0
 10 32  1  0  0  0
 12 33  1  0  0  0
 13 14  1  0  0  0
 13 15  1  0  0  0
 13 34  1  0  0  0
 14 16  1  0  0  0
 14 35  1  0  0  0
 14 36  1  0  0  0
 15 37  1  0  0  0
 16 17  1  0  0  0
 16 38  1  0  0  0
 17 18  1  0  0  0
 17 39  1  0  0  0
 17 40  1  0  0  0
 18 19  1  0  0  0
 18 41  1  0  0  0
 18 42  1  0  0  0
 19 20  1  0  0  0
 19 43  1  0  0  0
 19 44  1  0  0  0
 20 21  2  0  0  0
 20 25  1  0  0  0
 21 22  1  0  0  0
 21 45  1  0  0  0
 22 23  2  0  0  0
 22 46  1  0  0  0
 23 24  1  0  0  0
 23 26  1  0  0  0
 24 25  2  0  0  0
 24 47  1  0  0  0
 25 48  1  0  0  0
 26 27  1  0  0  0
 27 49  1  0  0  0
 27 50  1  0  0  0
 27 51  1  0  0  0
M  END
> <s_m_entry_id>
3403

> <s_m_entry_name>
dock_pv.495

> <s_m_Source_Path>
/home/csk/Desktop/cluster/DUD-E-result/adrb1

> <s_m_Source_File>
dock_pv.maegz

> <i_m_Source_File_Index>
495

> <chembl_id>
CHEMBL4588479

> <chembl_pref_name>
None

> <i_lp_mmshare_version>
53161

> <i_f3d_flags>
0

> <r_lp_tautomer_probability>
1

> <s_lp_Force_Field>
OPLS_2005

> <r_lp_Energy>
32.50213

> <b_lp_Chiralities_Consistent>
1

> <s_lp_Variant>
CHEMBL213_lig1213 -1

> <s_i_glide_gridfile>
glide-grid_2vt4

> <i_i_glide_lignum>
1437

> <i_i_glide_rotatable_bonds>
10

> <r_i_docking_score>
-6.80853625572114

> <r_i_glide_ligand_efficiency>
-0.252168009471153

> <r_i_glide_ligand_efficiency_sa>
-0.756504027582355

> <r_i_glide_ligand_efficiency_ln>
-1.58491499283909

> <r_i_glide_gscore>
-6.80853625572114

> <r_i_glide_lipo>
-2.38574581066466

> <r_i_glide_hbond>
-0.594106056687613

> <r_i_glide_metal>
0

> <r_i_glide_rewards>
-1.50230863216871

> <r_i_glide_evdw>
-40.1686363220215

> <r_i_glide_ecoul>
-8.74455261230469

> <r_i_glide_erotb>
0.993738951746631

> <r_i_glide_esite>
0

> <r_i_glide_emodel>
-62.2227436612449

> <r_i_glide_energy>
-48.9131889343262

> <r_i_glide_einternal>
14.386251449585

> <i_i_glide_confnum>
106

> <i_i_glide_posenum>
325

> <r_i_glide_eff_state_penalty>
0

> <s_user_duplicate_titles>
CHEMBL213_lig1213 

> <s_m_subgroup_title>
dock_pv

> <s_m_subgroupid>
dock_pv

> <b_m_subgroup_collapsed>
1

$$$$
CHEMBL213_lig1489
                    3D
 Schrodinger Suite 2021-1.
 51 54  0  0  1  0            999 V2000
   24.2080    3.7038    1.7742 C   0  0  0  0  0  0
   23.6433    4.0132    3.0087 C   0  0  0  0  0  0
   24.3994    4.6500    3.9926 C   0  0  0  0  0  0
   25.5484    4.0121    1.5044 C   0  0  0  0  0  0
   26.3025    4.6500    2.5116 C   0  0  0  0  0  0
   25.7284    4.9861    3.7341 C   0  0  0  0  0  0
   26.6025    5.6478    4.5880 N   0  0  0  0  0  0
   27.8930    5.8500    4.1585 C   0  0  0  0  0  0
   28.0041    5.1161    2.4929 S   0  0  0  0  0  0
   26.1775    3.6185    0.1628 C   0  0  2  0  0  0
   26.6998    4.8277   -0.6546 C   0  0  0  0  0  0
   25.4080    2.7369   -0.6392 O   0  0  0  0  0  0
   27.9162    4.4620   -1.3801 N   0  0  2  0  0  0
   28.7066    5.5632   -1.9289 C   0  0  1  0  0  0
   29.8912    5.1447   -2.8366 C   0  0  2  0  0  0
   30.1464    6.3691   -3.7232 C   0  0  0  0  0  0
   28.7765    7.0151   -3.9280 C   0  0  0  0  0  0
   27.9229    6.6361   -2.7095 C   0  0  0  0  0  0
   28.8041    6.4106    4.7620 O   0  0  0  0  0  0
   23.8080    5.0192    5.1850 O   0  0  0  0  0  0
   29.7262    3.8667   -3.6637 C   0  0  0  0  0  0
   30.7505    2.9187   -3.6836 C   0  0  0  0  0  0
   30.6081    1.7621   -4.4393 C   0  0  0  0  0  0
   29.4654    1.5586   -5.2097 C   0  0  0  0  0  0
   28.4527    2.5147   -5.2150 C   0  0  0  0  0  0
   28.5724    3.6546   -4.4247 C   0  0  0  0  0  0
   29.2943    0.2661   -5.9754 C   0  0  0  0  0  0
   23.5933    3.2179    1.0297 H   0  0  0  0  0  0
   22.6080    3.7767    3.1996 H   0  0  0  0  0  0
   26.3332    5.9909    5.4964 H   0  0  0  0  0  0
   27.0080    3.0014    0.4659 H   0  0  0  0  0  0
   25.9228    5.2120   -1.3153 H   0  0  0  0  0  0
   26.9522    5.6480    0.0163 H   0  0  0  0  0  0
   24.8585    3.2469   -1.2547 H   0  0  0  0  0  0
   27.8080    3.6734   -2.0150 H   0  0  0  0  0  0
   29.1367    6.0731   -1.0646 H   0  0  0  0  0  0
   30.7706    4.9682   -2.2144 H   0  0  0  0  0  0
   30.6694    6.1281   -4.6508 H   0  0  0  0  0  0
   30.8233    7.0499   -3.2150 H   0  0  0  0  0  0
   28.3170    6.5914   -4.8150 H   0  0  0  0  0  0
   28.8415    8.0940   -4.0796 H   0  0  0  0  0  0
   26.9467    6.2919   -3.0554 H   0  0  0  0  0  0
   27.8080    7.5151   -2.0822 H   0  0  0  0  0  0
   24.3218    5.6311    5.7133 H   0  0  0  0  0  0
   31.6492    3.0636   -3.1022 H   0  0  0  0  0  0
   31.3951    1.0290   -4.4150 H   0  0  0  0  0  0
   27.5554    2.3614   -5.7968 H   0  0  0  0  0  0
   27.7626    4.3689   -4.4150 H   0  0  0  0  0  0
   29.8080   -0.5500   -5.4682 H   0  0  0  0  0  0
   28.2411   -0.0162   -6.0150 H   0  0  0  0  0  0
   29.6879    0.3663   -6.9864 H   0  0  0  0  0  0
  1  2  2  0  0  0
  1  4  1  0  0  0
  1 28  1  0  0  0
  2  3  1  0  0  0
  2 29  1  0  0  0
  3  6  2  0  0  0
  3 20  1  0  0  0
  4  5  2  0  0  0
  4 10  1  0  0  0
  5  6  1  0  0  0
  5  9  1  0  0  0
  6  7  1  0  0  0
  7  8  1  0  0  0
  7 30  1  0  0  0
  8  9  1  0  0  0
  8 19  2  0  0  0
 10 11  1  0  0  0
 10 12  1  0  0  0
 10 31  1  0  0  0
 11 13  1  0  0  0
 11 32  1  0  0  0
 11 33  1  0  0  0
 12 34  1  0  0  0
 13 14  1  0  0  0
 13 35  1  0  0  0
 14 15  1  0  0  0
 14 18  1  0  0  0
 14 36  1  0  0  0
 15 16  1  0  0  0
 15 21  1  0  0  0
 15 37  1  0  0  0
 16 17  1  0  0  0
 16 38  1  0  0  0
 16 39  1  0  0  0
 17 18  1  0  0  0
 17 40  1  0  0  0
 17 41  1  0  0  0
 18 42  1  0  0  0
 18 43  1  0  0  0
 20 44  1  0  0  0
 21 22  2  0  0  0
 21 26  1  0  0  0
 22 23  1  0  0  0
 22 45  1  0  0  0
 23 24  2  0  0  0
 23 46  1  0  0  0
 24 25  1  0  0  0
 24 27  1  0  0  0
 25 26  2  0  0  0
 25 47  1  0  0  0
 26 48  1  0  0  0
 27 49  1  0  0  0
 27 50  1  0  0  0
 27 51  1  0  0  0
M  END
> <s_m_entry_id>
3404

> <s_m_entry_name>
dock_pv.496

> <s_m_Source_Path>
/home/csk/Desktop/cluster/DUD-E-result/adrb1

> <s_m_Source_File>
dock_pv.maegz

> <i_m_Source_File_Index>
496

> <chembl_id>
CHEMBL3323662

> <chembl_pref_name>
None

> <i_lp_mmshare_version>
53161

> <i_f3d_flags>
0

> <r_lp_tautomer_probability>
1

> <s_lp_Force_Field>
OPLS_2005

> <r_lp_Energy>
51.823624

> <b_lp_Chiralities_Consistent>
1

> <s_lp_Variant>
CHEMBL213_lig1489-1

> <s_i_glide_gridfile>
glide-grid_2vt4

> <i_i_glide_lignum>
1837

> <i_i_glide_rotatable_bonds>
7

> <r_i_docking_score>
-6.80685387198317

> <r_i_glide_ligand_efficiency>
-0.25210569896234

> <r_i_glide_ligand_efficiency_sa>
-0.75631709605612

> <r_i_glide_ligand_efficiency_ln>
-1.58452336164115

> <r_i_glide_gscore>
-6.80685387198317

> <r_i_glide_lipo>
-2.71756442614606

> <r_i_glide_hbond>
-0.706444969704523

> <r_i_glide_metal>
0

> <r_i_glide_rewards>
-1.68754868181818

> <r_i_glide_evdw>
-33.8100204467773

> <r_i_glide_ecoul>
-4.41595125198364

> <r_i_glide_erotb>
0.657597915822005

> <r_i_glide_esite>
0

> <r_i_glide_emodel>
-47.8014808408236

> <r_i_glide_energy>
-38.225971698761

> <r_i_glide_einternal>
10.4187812805176

> <i_i_glide_confnum>
316

> <i_i_glide_posenum>
344

> <r_i_glide_eff_state_penalty>
0

> <s_user_duplicate_titles>
CHEMBL213_lig1489

> <s_m_subgroup_title>
dock_pv

> <s_m_subgroupid>
dock_pv

> <b_m_subgroup_collapsed>
1

$$$$
CHEMBL213_lig1001
                    3D
 Schrodinger Suite 2021-1.
 53 55  0  0  1  0            999 V2000
   24.7777    4.5342    3.4447 C   0  0  0  0  0  0
   24.2086    3.9058    2.3380 C   0  0  0  0  0  0
   24.9026    3.8500    1.1298 C   0  0  0  0  0  0
   26.2000    4.3819    1.0172 C   0  0  0  0  0  0
   26.0763    5.0500    3.3609 C   0  0  0  0  0  0
   26.7871    4.9338    2.1614 C   0  0  0  0  0  0
   28.0661    5.4503    2.0862 O   0  0  0  0  0  0
   28.8101    5.4176    3.3255 C   0  0  0  0  0  0
   28.0104    6.0012    4.5254 C   0  0  0  0  0  0
   26.6971    5.7157    4.4242 N   0  0  0  0  0  0
   28.5041    6.6489    5.4475 O   0  0  0  0  0  0
   26.9486    4.3936   -0.3226 C   0  0  2  0  0  0
   26.9952    5.8220   -0.9450 C   0  0  0  0  0  0
   26.3933    3.4500   -1.2137 O   0  0  0  0  0  0
   28.1685    6.1991   -1.7636 N   0  0  1  0  0  0
   28.3865    5.7264   -3.1436 C   0  0  0  0  0  0
   28.8911    4.2494   -3.1397 C   0  0  0  0  0  0
   27.1175    5.9514   -3.9930 C   0  0  0  0  0  0
   29.4732    6.6712   -3.6983 C   0  0  0  0  0  0
   29.5194    3.6964   -4.4266 C   0  0  0  0  0  0
   28.8151    2.7800   -5.2151 C   0  0  0  0  0  0
   29.3912    2.2538   -6.3702 C   0  0  0  0  0  0
   30.6718    2.6500   -6.7557 C   0  0  0  0  0  0
   31.3997    3.5679   -5.9838 C   0  0  0  0  0  0
   30.8204    4.0571   -4.8014 C   0  0  0  0  0  0
   32.7735    4.0165   -6.4302 C   0  0  0  0  0  0
   33.3097    5.0485   -5.7203 O   0  0  0  0  0  0
   33.3521    3.5058   -7.3879 O   0  0  0  0  0  0
   24.0333    4.6501    4.5896 O   0  0  0  0  0  0
   23.2086    3.5006    2.3919 H   0  0  0  0  0  0
   24.4087    3.4117    0.2730 H   0  0  0  0  0  0
   29.0094    4.3752    3.5833 H   0  0  0  0  0  0
   29.7620    5.9404    3.2272 H   0  0  0  0  0  0
   26.1359    6.0100    5.2103 H   0  0  0  0  0  0
   27.9737    4.0819   -0.1211 H   0  0  0  0  0  0
   27.0735    6.5146   -0.1060 H   0  0  0  0  0  0
   26.0417    6.0949   -1.3957 H   0  0  0  0  0  0
   25.9000    3.9026   -1.9167 H   0  0  0  0  0  0
   28.3059    7.1996   -1.7293 H   0  0  0  0  0  0
   28.0479    3.6108   -2.9153 H   0  0  0  0  0  0
   29.6062    4.0960   -2.3304 H   0  0  0  0  0  0
   27.0416    5.2211   -4.7926 H   0  0  0  0  0  0
   26.2080    5.8504   -3.4264 H   0  0  0  0  0  0
   27.0645    6.9548   -4.4150 H   0  0  0  0  0  0
   29.6643    6.4886   -4.7559 H   0  0  0  0  0  0
   29.1607    7.7148   -3.6375 H   0  0  0  0  0  0
   30.4199    6.5772   -3.1682 H   0  0  0  0  0  0
   27.8195    2.4700   -4.9299 H   0  0  0  0  0  0
   28.8378    1.5488   -6.9729 H   0  0  0  0  0  0
   31.0888    2.2448   -7.6681 H   0  0  0  0  0  0
   31.3735    4.7368   -4.1715 H   0  0  0  0  0  0
   34.1513    5.3146   -6.1012 H   0  0  0  0  0  0
   23.0912    4.5479    4.4336 H   0  0  0  0  0  0
  1  2  1  0  0  0
  1  5  2  0  0  0
  1 29  1  0  0  0
  2  3  2  0  0  0
  2 30  1  0  0  0
  3  4  1  0  0  0
  3 31  1  0  0  0
  4  6  2  0  0  0
  4 12  1  0  0  0
  5 10  1  0  0  0
  5  6  1  0  0  0
  6  7  1  0  0  0
  7  8  1  0  0  0
  8  9  1  0  0  0
  8 32  1  0  0  0
  8 33  1  0  0  0
  9 10  1  0  0  0
  9 11  2  0  0  0
 10 34  1  0  0  0
 12 14  1  0  0  0
 12 13  1  0  0  0
 12 35  1  0  0  0
 13 15  1  0  0  0
 13 36  1  0  0  0
 13 37  1  0  0  0
 14 38  1  0  0  0
 15 16  1  0  0  0
 15 39  1  0  0  0
 16 17  1  0  0  0
 16 18  1  0  0  0
 16 19  1  0  0  0
 17 20  1  0  0  0
 17 40  1  0  0  0
 17 41  1  0  0  0
 18 42  1  0  0  0
 18 43  1  0  0  0
 18 44  1  0  0  0
 19 45  1  0  0  0
 19 46  1  0  0  0
 19 47  1  0  0  0
 20 21  2  0  0  0
 20 25  1  0  0  0
 21 22  1  0  0  0
 21 48  1  0  0  0
 22 23  2  0  0  0
 22 49  1  0  0  0
 23 24  1  0  0  0
 23 50  1  0  0  0
 24 25  2  0  0  0
 24 26  1  0  0  0
 25 51  1  0  0  0
 26 27  1  0  0  0
 26 28  2  0  0  0
 27 52  1  0  0  0
 29 53  1  0  0  0
M  END
> <s_m_entry_id>
3405

> <s_m_entry_name>
dock_pv.497

> <s_m_Source_Path>
/home/csk/Desktop/cluster/DUD-E-result/adrb1

> <s_m_Source_File>
dock_pv.maegz

> <i_m_Source_File_Index>
497

> <chembl_id>
CHEMBL566973

> <chembl_pref_name>
None

> <i_lp_mmshare_version>
53161

> <i_f3d_flags>
0

> <r_lp_tautomer_probability>
1

> <s_lp_Force_Field>
OPLS_2005

> <r_lp_Energy>
28.952143

> <b_lp_Chiralities_Consistent>
1

> <s_lp_Variant>
CHEMBL213_lig1001-1

> <s_i_glide_gridfile>
glide-grid_2vt4

> <i_i_glide_lignum>
1121

> <i_i_glide_rotatable_bonds>
10

> <r_i_docking_score>
-6.80622392842268

> <r_i_glide_ligand_efficiency>
-0.234697376842162

> <r_i_glide_ligand_efficiency_sa>
-0.721064699007159

> <r_i_glide_ligand_efficiency_ln>
-1.55845268866152

> <r_i_glide_gscore>
-6.80622392842268

> <r_i_glide_lipo>
-2.26004661899492

> <r_i_glide_hbond>
-0.35221584292204

> <r_i_glide_metal>
0

> <r_i_glide_rewards>
-2.00637691814885

> <r_i_glide_evdw>
-39.1646690368652

> <r_i_glide_ecoul>
-7.23475503921509

> <r_i_glide_erotb>
0.855862159368651

> <r_i_glide_esite>
0

> <r_i_glide_emodel>
-59.600952117443

> <r_i_glide_energy>
-46.3994240760803

> <r_i_glide_einternal>
11.6687345504761

> <i_i_glide_confnum>
92

> <i_i_glide_posenum>
361

> <r_i_glide_eff_state_penalty>
0

> <s_user_duplicate_titles>
CHEMBL213_lig1001

> <s_m_subgroup_title>
dock_pv

> <s_m_subgroupid>
dock_pv

> <b_m_subgroup_collapsed>
1

$$$$
CHEMBL213_lig999
                    3D
 Schrodinger Suite 2021-1.
 53 55  0  0  1  0            999 V2000
   33.6983    4.5169   -5.4901 C   0  0  0  0  0  0
   32.5069    4.3202   -6.1877 C   0  0  0  0  0  0
   31.2792    4.6417   -5.6049 C   0  0  0  0  0  0
   31.2172    5.1477   -4.3014 C   0  0  0  0  0  0
   34.8833    4.2503   -6.1272 O   0  0  0  0  0  0
   29.8753    5.5460   -3.6821 C   0  0  2  0  0  0
   28.9131    4.3479   -3.4926 C   0  0  0  0  0  0
   29.2099    6.5445   -4.4150 O   0  0  0  0  0  0
   27.8036    4.5978   -2.5584 N   0  0  3  0  0  0
   27.9585    4.9807   -1.1441 C   0  0  0  0  0  0
   26.8277    4.2724   -0.3106 C   0  0  0  0  0  0
   26.6126    4.6713    1.1702 C   0  0  0  0  0  0
   25.4572    4.2493    1.8391 C   0  0  0  0  0  0
   25.2068    4.6483    3.1573 C   0  0  0  0  0  0
   26.1177    5.4699    3.8367 C   0  0  0  0  0  0
   27.2951    5.8439    3.1862 C   0  0  0  0  0  0
   27.5322    5.4498    1.8794 C   0  0  0  0  0  0
   29.3815    4.5801   -0.6270 C   0  0  0  0  0  0
   27.7149    6.5138   -1.1886 C   0  0  0  0  0  0
   33.6573    4.9990   -4.1741 C   0  0  0  0  0  0
   32.4179    5.2971   -3.5913 C   0  0  0  0  0  0
   32.4036    5.8479   -2.3240 O   0  0  0  0  0  0
   33.4469    5.3814   -1.4375 C   0  0  0  0  0  0
   34.8586    5.4389   -2.0804 C   0  0  0  0  0  0
   34.8110    5.2223   -3.4092 N   0  0  0  0  0  0
   35.8940    5.6682   -1.4627 O   0  0  0  0  0  0
   25.8175    6.0012    5.2199 C   0  0  0  0  0  0
   24.7200    5.8802    5.7591 O   0  0  0  0  0  0
   26.8623    6.6499    5.8088 O   0  0  0  0  0  0
   32.5356    3.9490   -7.2007 H   0  0  0  0  0  0
   30.3725    4.5185   -6.1776 H   0  0  0  0  0  0
   35.5596    4.9153   -5.9609 H   0  0  0  0  0  0
   30.0941    6.0048   -2.7271 H   0  0  0  0  0  0
   29.4630    3.4659   -3.1646 H   0  0  0  0  0  0
   28.4966    4.0587   -4.4583 H   0  0  0  0  0  0
   28.3035    6.5739   -4.0921 H   0  0  0  0  0  0
   26.8805    4.2423   -2.8181 H   0  0  0  0  0  0
   26.9914    3.1933   -0.3424 H   0  0  0  0  0  0
   25.8715    4.4348   -0.8135 H   0  0  0  0  0  0
   24.7316    3.6378    1.3230 H   0  0  0  0  0  0
   24.2882    4.3361    3.6332 H   0  0  0  0  0  0
   28.0352    6.4703    3.6659 H   0  0  0  0  0  0
   28.4367    5.8071    1.4293 H   0  0  0  0  0  0
   29.3922    4.2560    0.3995 H   0  0  0  0  0  0
   29.8053    3.7169   -1.1333 H   0  0  0  0  0  0
   30.1010    5.3949   -0.6811 H   0  0  0  0  0  0
   27.4081    6.9404   -0.2359 H   0  0  0  0  0  0
   28.5979    7.0496   -1.5241 H   0  0  0  0  0  0
   26.9011    6.7819   -1.8682 H   0  0  0  0  0  0
   33.4470    5.9444   -0.5026 H   0  0  0  0  0  0
   33.2677    4.3277   -1.2119 H   0  0  0  0  0  0
   35.7195    5.1991   -3.8507 H   0  0  0  0  0  0
   26.6080    7.1860    6.5723 H   0  0  0  0  0  0
  1  2  1  0  0  0
  1  5  1  0  0  0
  1 20  2  0  0  0
  2  3  2  0  0  0
  2 30  1  0  0  0
  3  4  1  0  0  0
  3 31  1  0  0  0
  4 21  2  0  0  0
  4  6  1  0  0  0
  5 32  1  0  0  0
  6  7  1  0  0  0
  6  8  1  0  0  0
  6 33  1  0  0  0
  7  9  1  0  0  0
  7 34  1  0  0  0
  7 35  1  0  0  0
  8 36  1  0  0  0
  9 10  1  0  0  0
  9 37  1  0  0  0
 10 18  1  0  0  0
 10 19  1  0  0  0
 10 11  1  0  0  0
 11 12  1  0  0  0
 11 38  1  0  0  0
 11 39  1  0  0  0
 12 17  1  0  0  0
 12 13  2  0  0  0
 13 14  1  0  0  0
 13 40  1  0  0  0
 14 15  2  0  0  0
 14 41  1  0  0  0
 15 16  1  0  0  0
 15 27  1  0  0  0
 16 17  2  0  0  0
 16 42  1  0  0  0
 17 43  1  0  0  0
 18 44  1  0  0  0
 18 45  1  0  0  0
 18 46  1  0  0  0
 19 47  1  0  0  0
 19 48  1  0  0  0
 19 49  1  0  0  0
 20 21  1  0  0  0
 20 25  1  0  0  0
 21 22  1  0  0  0
 22 23  1  0  0  0
 23 24  1  0  0  0
 23 50  1  0  0  0
 23 51  1  0  0  0
 24 25  1  0  0  0
 24 26  2  0  0  0
 25 52  1  0  0  0
 27 28  2  0  0  0
 27 29  1  0  0  0
 29 53  1  0  0  0
M  END
> <s_m_entry_id>
3406

> <s_m_entry_name>
dock_pv.498

> <s_m_Source_Path>
/home/csk/Desktop/cluster/DUD-E-result/adrb1

> <s_m_Source_File>
dock_pv.maegz

> <i_m_Source_File_Index>
498

> <chembl_id>
CHEMBL577289

> <chembl_pref_name>
None

> <i_lp_mmshare_version>
53161

> <i_f3d_flags>
0

> <r_lp_tautomer_probability>
1

> <s_lp_Force_Field>
OPLS_2005

> <r_lp_Energy>
29.288448

> <b_lp_Chiralities_Consistent>
1

> <s_lp_Variant>
CHEMBL213_lig999-1

> <s_i_glide_gridfile>
glide-grid_2vt4

> <i_i_glide_lignum>
1117

> <i_i_glide_rotatable_bonds>
10

> <r_i_docking_score>
-6.80538935520708

> <r_i_glide_ligand_efficiency>
-0.234668598455417

> <r_i_glide_ligand_efficiency_sa>
-0.720976282685446

> <r_i_glide_ligand_efficiency_ln>
-1.5582615925581

> <r_i_glide_gscore>
-6.80538935520708

> <r_i_glide_lipo>
-2.37974203852701

> <r_i_glide_hbond>
-0.387351861885244

> <r_i_glide_metal>
0

> <r_i_glide_rewards>
-1.63166391875554

> <r_i_glide_evdw>
-40.7831764221191

> <r_i_glide_ecoul>
-8.00321292877197

> <r_i_glide_erotb>
0.855862159368651

> <r_i_glide_esite>
-0.0228529349861873

> <r_i_glide_emodel>
-63.1348092768489

> <r_i_glide_energy>
-48.7863893508911

> <r_i_glide_einternal>
11.6700172424316

> <i_i_glide_confnum>
112

> <i_i_glide_posenum>
353

> <r_i_glide_eff_state_penalty>
0

> <s_user_duplicate_titles>
CHEMBL213_lig999

> <s_m_subgroup_title>
dock_pv

> <s_m_subgroupid>
dock_pv

> <b_m_subgroup_collapsed>
1

$$$$
CHEMBL213_lig191
                    3D
 Schrodinger Suite 2021-1.
 61 63  0  0  1  0            999 V2000
   35.3871    3.4031   -3.9323 S   0  0  0  0  0  0
   36.5638    4.6498   -3.4479 N   0  0  0  0  0  0
   33.7788    4.1505   -3.6799 C   0  0  0  0  0  0
   35.5583    3.2296   -5.3791 O   0  0  0  0  0  0
   35.4985    2.2499   -3.0340 O   0  0  0  0  0  0
   33.2496    4.2286   -2.3925 C   0  0  0  0  0  0
   33.0600    4.6501   -4.7673 C   0  0  0  0  0  0
   36.8913    5.0244   -2.1328 C   0  0  0  0  0  0
   30.9803    6.1109    2.8520 O   0  0  0  0  0  0
   29.8472    6.3192    3.6161 C   0  0  0  0  0  0
   33.4339    6.1091    2.6903 C   0  0  1  0  0  0
   27.5482    6.5456    5.1759 C   0  0  0  0  0  0
   31.2679    5.3015   -3.2723 C   0  0  0  0  0  0
   32.1703    6.8355    3.1777 C   0  0  0  0  0  0
   31.8079    5.2229   -4.5650 C   0  0  0  0  0  0
   31.9993    4.8034   -2.1946 C   0  0  0  0  0  0
   35.8907    6.2297    2.6903 N   0  0  2  0  0  0
   37.7304    5.8524    0.4070 C   0  0  0  0  0  0
   37.5777    6.2312   -1.9671 C   0  0  0  0  0  0
   36.6079    4.2442   -1.0051 C   0  0  0  0  0  0
   29.7482    7.3225    4.5930 C   0  0  0  0  0  0
   28.7680    5.4554    3.4075 C   0  0  0  0  0  0
   28.6108    7.4240    5.3752 C   0  0  0  0  0  0
   27.6171    5.5672    4.1856 C   0  0  0  0  0  0
   37.9943    6.6475   -0.7067 C   0  0  0  0  0  0
   37.0363    4.6488    0.2531 C   0  0  0  0  0  0
   33.3509    5.8501    1.2931 O   0  0  0  0  0  0
   26.4354    6.6495    5.9627 O   0  0  0  0  0  0
   30.0374    5.8507   -2.9741 O   0  0  0  0  0  0
   34.6785    6.9715    3.0012 C   0  0  0  0  0  0
   37.0571    7.0901    2.5393 C   0  0  0  0  0  0
   38.1603    6.3129    1.7956 C   0  0  0  0  0  0
   29.2692    6.4455   -4.0156 C   0  0  0  0  0  0
   36.8689    5.2762   -4.1824 H   0  0  0  0  0  0
   33.8034    3.8484   -1.5463 H   0  0  0  0  0  0
   33.4687    4.6043   -5.7668 H   0  0  0  0  0  0
   33.5074    5.1588    3.2205 H   0  0  0  0  0  0
   32.0992    7.8500    2.7817 H   0  0  0  0  0  0
   32.2922    6.9327    4.2584 H   0  0  0  0  0  0
   31.2743    5.6088   -5.4216 H   0  0  0  0  0  0
   31.5883    4.8604   -1.1964 H   0  0  0  0  0  0
   35.7303    5.7307    1.8201 H   0  0  0  0  0  0
   37.8068    6.8548   -2.8146 H   0  0  0  0  0  0
   36.0977    3.2999   -1.0689 H   0  0  0  0  0  0
   30.5435    8.0280    4.7740 H   0  0  0  0  0  0
   28.8377    4.6809    2.6574 H   0  0  0  0  0  0
   28.6046    8.1841    6.1389 H   0  0  0  0  0  0
   26.7892    4.8894    4.0327 H   0  0  0  0  0  0
   38.5260    7.5817   -0.6045 H   0  0  0  0  0  0
   36.8285    4.0178    1.1049 H   0  0  0  0  0  0
   33.1797    6.6938    0.8534 H   0  0  0  0  0  0
   26.5088    7.4032    6.5697 H   0  0  0  0  0  0
   34.6161    7.8981    2.4248 H   0  0  0  0  0  0
   34.7029    7.2439    4.0587 H   0  0  0  0  0  0
   36.7810    7.9527    1.9273 H   0  0  0  0  0  0
   37.4076    7.4518    3.5058 H   0  0  0  0  0  0
   39.0531    6.9358    1.7081 H   0  0  0  0  0  0
   38.4837    5.4503    2.3796 H   0  0  0  0  0  0
   28.3431    6.8442   -3.5999 H   0  0  0  0  0  0
   29.8063    7.2733   -4.4808 H   0  0  0  0  0  0
   29.0050    5.7168   -4.7820 H   0  0  0  0  0  0
  1  2  1  0  0  0
  1  3  1  0  0  0
  1  4  2  0  0  0
  1  5  2  0  0  0
  2  8  1  0  0  0
  2 34  1  0  0  0
  3  6  2  0  0  0
  3  7  1  0  0  0
  6 16  1  0  0  0
  6 35  1  0  0  0
  7 15  2  0  0  0
  7 36  1  0  0  0
  8 19  2  0  0  0
  8 20  1  0  0  0
  9 14  1  0  0  0
  9 10  1  0  0  0
 10 21  1  0  0  0
 10 22  2  0  0  0
 11 30  1  0  0  0
 11 14  1  0  0  0
 11 27  1  0  0  0
 11 37  1  0  0  0
 12 24  2  0  0  0
 12 28  1  0  0  0
 12 23  1  0  0  0
 13 15  1  0  0  0
 13 29  1  0  0  0
 13 16  2  0  0  0
 14 38  1  0  0  0
 14 39  1  0  0  0
 15 40  1  0  0  0
 16 41  1  0  0  0
 17 31  1  0  0  0
 17 30  1  0  0  0
 17 42  1  0  0  0
 18 26  1  0  0  0
 18 32  1  0  0  0
 18 25  2  0  0  0
 19 25  1  0  0  0
 19 43  1  0  0  0
 20 26  2  0  0  0
 20 44  1  0  0  0
 21 23  2  0  0  0
 21 45  1  0  0  0
 22 24  1  0  0  0
 22 46  1  0  0  0
 23 47  1  0  0  0
 24 48  1  0  0  0
 25 49  1  0  0  0
 26 50  1  0  0  0
 27 51  1  0  0  0
 28 52  1  0  0  0
 29 33  1  0  0  0
 30 53  1  0  0  0
 30 54  1  0  0  0
 31 32  1  0  0  0
 31 55  1  0  0  0
 31 56  1  0  0  0
 32 57  1  0  0  0
 32 58  1  0  0  0
 33 59  1  0  0  0
 33 60  1  0  0  0
 33 61  1  0  0  0
M  END
> <s_m_entry_id>
3407

> <s_m_entry_name>
dock_pv.499

> <s_m_Source_Path>
/home/csk/Desktop/cluster/DUD-E-result/adrb1

> <s_m_Source_File>
dock_pv.maegz

> <i_m_Source_File_Index>
499

> <chembl_id>
CHEMBL12686

> <chembl_pref_name>
None

> <i_lp_mmshare_version>
53161

> <i_f3d_flags>
0

> <r_lp_tautomer_probability>
1

> <s_lp_Force_Field>
OPLS_2005

> <r_lp_Energy>
28.23064

> <b_lp_Chiralities_Consistent>
1

> <s_lp_Variant>
CHEMBL213_lig191-1

> <s_i_glide_gridfile>
glide-grid_2vt4

> <i_i_glide_lignum>
226

> <i_i_glide_rotatable_bonds>
14

> <r_i_docking_score>
-6.80483297684231

> <r_i_glide_ligand_efficiency>
-0.206207059904312

> <r_i_glide_ligand_efficiency_sa>
-0.661416222959706

> <r_i_glide_ligand_efficiency_ln>
-1.51335962051023

> <r_i_glide_gscore>
-6.80483297684231

> <r_i_glide_lipo>
-2.7032726311687

> <r_i_glide_hbond>
-0.371038578416252

> <r_i_glide_metal>
0

> <r_i_glide_rewards>
-0.216857522371336

> <r_i_glide_evdw>
-47.4860000610352

> <r_i_glide_ecoul>
-14.1801156997681

> <r_i_glide_erotb>
0.996068782934597

> <r_i_glide_esite>
-0.00841566980364838

> <r_i_glide_emodel>
-84.6585349225975

> <r_i_glide_energy>
-61.6661157608032

> <r_i_glide_einternal>
3.49038743972778

> <i_i_glide_confnum>
13

> <i_i_glide_posenum>
297

> <r_i_glide_eff_state_penalty>
0

> <s_user_duplicate_titles>
CHEMBL213_lig191

> <s_m_subgroup_title>
dock_pv

> <s_m_subgroupid>
dock_pv

> <b_m_subgroup_collapsed>
1

$$$$
CHEMBL213_lig1078
                    3D
 Schrodinger Suite 2021-1.
 79 81  0  0  1  0            999 V2000
   30.6708    3.5799   -4.9675 C   0  0  0  0  0  0
   30.1510    2.5400   -5.7500 C   0  0  0  0  0  0
   30.8538    2.0865   -6.8654 C   0  0  0  0  0  0
   32.0836    2.6518   -7.2010 C   0  0  0  0  0  0
   32.6301    3.6768   -6.4210 C   0  0  0  0  0  0
   31.9114    4.1357   -5.3086 C   0  0  0  0  0  0
   29.9119    4.1353   -3.7657 C   0  0  0  0  0  0
   30.2083    3.4504   -2.5649 O   0  0  0  0  0  0
   28.9529    1.9415   -5.4498 O   0  0  0  0  0  0
   33.9813    4.2875   -6.8169 C   0  0  2  0  0  0
   34.9389    4.6465   -5.6556 C   0  0  0  0  0  0
   33.8087    5.4503   -7.6031 O   0  0  0  0  0  0
   35.2508    3.4926   -4.8103 N   0  0  2  0  0  0
   36.3992    3.7182   -3.9344 C   0  0  0  0  0  0
   36.2077    4.9018   -2.9664 C   0  0  0  0  0  0
   37.3633    5.0446   -1.9576 C   0  0  0  0  0  0
   37.2833    6.3115   -1.0764 C   0  0  0  0  0  0
   35.9648    6.4985   -0.2961 C   0  0  0  0  0  0
   35.6047    5.3252    0.6361 C   0  0  0  0  0  0
   34.2768    5.4499    1.1188 O   0  0  0  0  0  0
   34.1007    6.3396    2.2069 C   0  0  0  0  0  0
   32.6049    6.3383    2.5540 C   0  0  0  0  0  0
   32.2122    7.4176    3.5757 C   0  0  0  0  0  0
   31.3482    6.9427    4.7578 C   0  0  0  0  0  0
   29.8701    6.6503    4.4741 C   0  0  0  0  0  0
   29.4095    6.0243    3.3010 C   0  0  0  0  0  0
   28.0401    5.8507    3.0626 C   0  0  0  0  0  0
   27.1406    6.2505    4.0575 C   0  0  0  0  0  0
   27.5895    6.7756    5.2535 C   0  0  0  0  0  0
   28.9415    7.0022    5.4576 C   0  0  0  0  0  0
   27.5506    5.4392    1.6688 C   0  0  0  0  0  0
   26.4555    4.4628    1.5724 N   0  0  0  0  0  0
   25.4277    4.2850    2.5534 C   0  0  0  0  0  0
   24.4405    3.4551    1.8356 C   0  0  0  0  0  0
   24.9052    3.3417    0.5852 N   0  0  0  0  0  0
   26.1441    3.8503    0.4117 C   0  0  0  0  0  0
   26.8282    3.7830   -0.6045 O   0  0  0  0  0  0
   23.4073    3.0487    2.3388 O   0  0  0  0  0  0
   30.4460    1.2920   -7.4727 H   0  0  0  0  0  0
   32.6078    2.2957   -8.0733 H   0  0  0  0  0  0
   32.3159    4.9347   -4.7033 H   0  0  0  0  0  0
   30.1610    5.1881   -3.6268 H   0  0  0  0  0  0
   28.8366    4.1054   -3.9414 H   0  0  0  0  0  0
   29.5350    2.7728   -2.4112 H   0  0  0  0  0  0
   28.5667    2.2483   -4.6246 H   0  0  0  0  0  0
   34.5050    3.5655   -7.4450 H   0  0  0  0  0  0
   35.8645    5.0501   -6.0758 H   0  0  0  0  0  0
   34.4947    5.4323   -5.0444 H   0  0  0  0  0  0
   34.4916    6.0945   -7.3642 H   0  0  0  0  0  0
   35.3943    2.6642   -5.3680 H   0  0  0  0  0  0
   36.5625    2.8063   -3.3590 H   0  0  0  0  0  0
   37.3034    3.8506   -4.5301 H   0  0  0  0  0  0
   36.1287    5.8326   -3.5246 H   0  0  0  0  0  0
   35.2661    4.7742   -2.4337 H   0  0  0  0  0  0
   37.4092    4.1550   -1.3280 H   0  0  0  0  0  0
   38.3112    5.0618   -2.4970 H   0  0  0  0  0  0
   38.1174    6.3026   -0.3746 H   0  0  0  0  0  0
   37.4392    7.1844   -1.7106 H   0  0  0  0  0  0
   36.0313    7.4172    0.2857 H   0  0  0  0  0  0
   35.1454    6.6599   -0.9989 H   0  0  0  0  0  0
   35.6228    4.3864    0.0845 H   0  0  0  0  0  0
   36.3225    5.2169    1.4529 H   0  0  0  0  0  0
   34.6830    6.0020    3.0666 H   0  0  0  0  0  0
   34.4363    7.3470    1.9548 H   0  0  0  0  0  0
   32.0293    6.4780    1.6377 H   0  0  0  0  0  0
   32.3358    5.3596    2.9392 H   0  0  0  0  0  0
   33.1269    7.8499    3.9845 H   0  0  0  0  0  0
   31.7079    8.2414    3.0715 H   0  0  0  0  0  0
   31.8136    6.0820    5.2335 H   0  0  0  0  0  0
   31.3960    7.7377    5.5037 H   0  0  0  0  0  0
   30.1037    5.7344    2.5302 H   0  0  0  0  0  0
   26.0755    6.2496    3.9323 H   0  0  0  0  0  0
   26.8628    7.0502    5.9997 H   0  0  0  0  0  0
   29.2569    7.4498    6.3850 H   0  0  0  0  0  0
   27.2428    6.3472    1.1507 H   0  0  0  0  0  0
   28.4012    5.0598    1.1004 H   0  0  0  0  0  0
   25.8070    3.8426    3.4727 H   0  0  0  0  0  0
   24.9348    5.2258    2.7850 H   0  0  0  0  0  0
   24.3665    2.9558   -0.1763 H   0  0  0  0  0  0
  1  6  1  0  0  0
  1  2  2  0  0  0
  1  7  1  0  0  0
  2  3  1  0  0  0
  2  9  1  0  0  0
  3  4  2  0  0  0
  3 39  1  0  0  0
  4  5  1  0  0  0
  4 40  1  0  0  0
  5 10  1  0  0  0
  5  6  2  0  0  0
  6 41  1  0  0  0
  7  8  1  0  0  0
  7 42  1  0  0  0
  7 43  1  0  0  0
  8 44  1  0  0  0
  9 45  1  0  0  0
 10 11  1  0  0  0
 10 12  1  0  0  0
 10 46  1  0  0  0
 11 13  1  0  0  0
 11 47  1  0  0  0
 11 48  1  0  0  0
 12 49  1  0  0  0
 13 14  1  0  0  0
 13 50  1  0  0  0
 14 15  1  0  0  0
 14 51  1  0  0  0
 14 52  1  0  0  0
 15 16  1  0  0  0
 15 53  1  0  0  0
 15 54  1  0  0  0
 16 17  1  0  0  0
 16 55  1  0  0  0
 16 56  1  0  0  0
 17 18  1  0  0  0
 17 57  1  0  0  0
 17 58  1  0  0  0
 18 19  1  0  0  0
 18 59  1  0  0  0
 18 60  1  0  0  0
 19 20  1  0  0  0
 19 61  1  0  0  0
 19 62  1  0  0  0
 20 21  1  0  0  0
 21 22  1  0  0  0
 21 63  1  0  0  0
 21 64  1  0  0  0
 22 23  1  0  0  0
 22 65  1  0  0  0
 22 66  1  0  0  0
 23 24  1  0  0  0
 23 67  1  0  0  0
 23 68  1  0  0  0
 24 25  1  0  0  0
 24 69  1  0  0  0
 24 70  1  0  0  0
 25 26  2  0  0  0
 25 30  1  0  0  0
 26 27  1  0  0  0
 26 71  1  0  0  0
 27 28  2  0  0  0
 27 31  1  0  0  0
 28 29  1  0  0  0
 28 72  1  0  0  0
 29 30  2  0  0  0
 29 73  1  0  0  0
 30 74  1  0  0  0
 31 32  1  0  0  0
 31 75  1  0  0  0
 31 76  1  0  0  0
 32 33  1  0  0  0
 32 36  1  0  0  0
 33 34  1  0  0  0
 33 77  1  0  0  0
 33 78  1  0  0  0
 34 35  1  0  0  0
 34 38  2  0  0  0
 35 36  1  0  0  0
 35 79  1  0  0  0
 36 37  2  0  0  0
M  END
> <s_m_entry_id>
3408

> <s_m_entry_name>
dock_pv.500

> <s_m_Source_Path>
/home/csk/Desktop/cluster/DUD-E-result/adrb1

> <s_m_Source_File>
dock_pv.maegz

> <i_m_Source_File_Index>
500

> <chembl_id>
CHEMBL1814274

> <chembl_pref_name>
None

> <i_lp_mmshare_version>
53161

> <i_f3d_flags>
0

> <r_lp_tautomer_probability>
0.999999999778939

> <s_lp_Force_Field>
OPLS_2005

> <r_lp_Energy>
32.738185

> <b_lp_Chiralities_Consistent>
1

> <s_lp_Variant>
CHEMBL213_lig1078-1

> <s_i_glide_gridfile>
glide-grid_2vt4

> <i_i_glide_lignum>
1260

> <i_i_glide_rotatable_bonds>
21

> <r_i_docking_score>
-6.8040406057075

> <r_i_glide_ligand_efficiency>
-0.179053700150197

> <r_i_glide_ligand_efficiency_sa>
-0.601974135671408

> <r_i_glide_ligand_efficiency_ln>
-1.46715130918644

> <r_i_glide_gscore>
-6.8040406057075

> <r_i_glide_lipo>
-2.59020907732485

> <r_i_glide_hbond>
-0.152702287374077

> <r_i_glide_metal>
0

> <r_i_glide_rewards>
-1.34169285427921

> <r_i_glide_evdw>
-54.0130157470703

> <r_i_glide_ecoul>
-9.00252532958984

> <r_i_glide_erotb>
1.33159320006263

> <r_i_glide_esite>
0

> <r_i_glide_emodel>
-78.0912858592137

> <r_i_glide_energy>
-63.0155410766602

> <r_i_glide_einternal>
18.7339038848877

> <i_i_glide_confnum>
31

> <i_i_glide_posenum>
133

> <r_i_glide_eff_state_penalty>
0

> <s_user_duplicate_titles>
CHEMBL213_lig1078

> <s_m_subgroup_title>
dock_pv

> <s_m_subgroupid>
dock_pv

> <b_m_subgroup_collapsed>
1

$$$$
CHEMBL213_lig459
                    3D
 Schrodinger Suite 2021-1.
 62 65  0  0  1  0            999 V2000
   36.9196    5.9544   -0.8028 C   0  0  0  0  0  0
   35.6178    6.2140   -0.3876 C   0  0  0  0  0  0
   36.0898    4.4649   -2.5412 C   0  0  0  0  0  0
   37.1513    5.0956   -1.8760 C   0  0  0  0  0  0
   34.7795    4.7303   -2.1064 C   0  0  0  0  0  0
   34.5459    5.6100   -1.0492 C   0  0  0  0  0  0
   33.1988    5.7722   -0.7708 N   0  0  0  0  0  0
   32.2978    5.0503   -1.5208 C   0  0  0  0  0  0
   33.2639    4.0623   -2.7036 S   0  0  0  0  0  0
   31.0765    5.0456   -1.4168 O   0  0  0  0  0  0
   35.4081    7.0501    0.6786 O   0  0  0  0  0  0
   36.4367    3.5141   -3.6929 C   0  0  2  0  0  0
   36.3100    4.1441   -5.1070 C   0  0  0  0  0  0
   34.9695    4.5431   -5.5489 N   0  0  2  0  0  0
   34.2347    3.4322   -6.1465 C   0  0  0  0  0  0
   32.9517    3.9063   -6.8581 C   0  0  0  0  0  0
   31.7520    4.1356   -5.9444 C   0  0  0  0  0  0
   30.9229    3.0670   -5.5977 C   0  0  0  0  0  0
   29.7925    3.2876   -4.8149 C   0  0  0  0  0  0
   29.4766    4.5759   -4.3744 C   0  0  0  0  0  0
   30.3219    5.6423   -4.7061 C   0  0  0  0  0  0
   31.4556    5.4194   -5.4851 C   0  0  0  0  0  0
   35.8081    2.2502   -3.5966 O   0  0  0  0  0  0
   28.2016    4.7614   -3.5514 C   0  0  0  0  0  0
   28.1729    5.9563   -2.7052 N   0  0  2  0  0  0
   27.2157    5.8054   -1.6126 C   0  0  0  0  0  0
   27.7361    4.8687   -0.4993 C   0  0  0  0  0  0
   26.7516    4.6745    0.6456 C   0  0  0  0  0  0
   25.6082    3.8924    0.4559 C   0  0  0  0  0  0
   24.7288    3.6814    1.5155 C   0  0  0  0  0  0
   24.9968    4.2499    2.7601 C   0  0  0  0  0  0
   26.1312    5.0388    2.9529 C   0  0  0  0  0  0
   27.0102    5.2496    1.8934 C   0  0  0  0  0  0
   37.7538    6.4169   -0.2962 H   0  0  0  0  0  0
   38.1734    4.9068   -2.1777 H   0  0  0  0  0  0
   32.8623    6.3840   -0.0420 H   0  0  0  0  0  0
   34.4932    7.3298    0.7829 H   0  0  0  0  0  0
   37.4942    3.2689   -3.5922 H   0  0  0  0  0  0
   36.9159    5.0497   -5.1005 H   0  0  0  0  0  0
   36.7833    3.5020   -5.8520 H   0  0  0  0  0  0
   35.0324    5.3448   -6.1699 H   0  0  0  0  0  0
   34.8491    2.8646   -6.8485 H   0  0  0  0  0  0
   33.9601    2.7412   -5.3493 H   0  0  0  0  0  0
   33.1476    4.7998   -7.4534 H   0  0  0  0  0  0
   32.6628    3.1548   -7.5934 H   0  0  0  0  0  0
   31.1456    2.0685   -5.9436 H   0  0  0  0  0  0
   29.1548    2.4547   -4.5549 H   0  0  0  0  0  0
   30.1028    6.6458   -4.3720 H   0  0  0  0  0  0
   32.0983    6.2464   -5.7463 H   0  0  0  0  0  0
   36.1032    1.8293   -2.7849 H   0  0  0  0  0  0
   27.3846    4.8720   -4.2666 H   0  0  0  0  0  0
   27.9731    3.8395   -3.0199 H   0  0  0  0  0  0
   27.8772    6.7407   -3.2702 H   0  0  0  0  0  0
   27.0233    6.7841   -1.1723 H   0  0  0  0  0  0
   26.2431    5.4766   -1.9871 H   0  0  0  0  0  0
   27.9781    3.8817   -0.8922 H   0  0  0  0  0  0
   28.6823    5.2520   -0.1150 H   0  0  0  0  0  0
   25.4003    3.4518   -0.5097 H   0  0  0  0  0  0
   23.8430    3.0805    1.3672 H   0  0  0  0  0  0
   24.3136    4.0860    3.5796 H   0  0  0  0  0  0
   26.3340    5.4744    3.9206 H   0  0  0  0  0  0
   27.8951    5.8491    2.0452 H   0  0  0  0  0  0
  1  4  1  0  0  0
  1  2  2  0  0  0
  1 34  1  0  0  0
  2 11  1  0  0  0
  2  6  1  0  0  0
  3 12  1  0  0  0
  3  5  1  0  0  0
  3  4  2  0  0  0
  4 35  1  0  0  0
  5  9  1  0  0  0
  5  6  2  0  0  0
  6  7  1  0  0  0
  7  8  1  0  0  0
  7 36  1  0  0  0
  8  9  1  0  0  0
  8 10  2  0  0  0
 11 37  1  0  0  0
 12 23  1  0  0  0
 12 13  1  0  0  0
 12 38  1  0  0  0
 13 14  1  0  0  0
 13 39  1  0  0  0
 13 40  1  0  0  0
 14 15  1  0  0  0
 14 41  1  0  0  0
 15 16  1  0  0  0
 15 42  1  0  0  0
 15 43  1  0  0  0
 16 17  1  0  0  0
 16 44  1  0  0  0
 16 45  1  0  0  0
 17 18  2  0  0  0
 17 22  1  0  0  0
 18 19  1  0  0  0
 18 46  1  0  0  0
 19 20  2  0  0  0
 19 47  1  0  0  0
 20 21  1  0  0  0
 20 24  1  0  0  0
 21 22  2  0  0  0
 21 48  1  0  0  0
 22 49  1  0  0  0
 23 50  1  0  0  0
 24 25  1  0  0  0
 24 51  1  0  0  0
 24 52  1  0  0  0
 25 26  1  0  0  0
 25 53  1  0  0  0
 26 27  1  0  0  0
 26 54  1  0  0  0
 26 55  1  0  0  0
 27 28  1  0  0  0
 27 56  1  0  0  0
 27 57  1  0  0  0
 28 29  2  0  0  0
 28 33  1  0  0  0
 29 30  1  0  0  0
 29 58  1  0  0  0
 30 31  2  0  0  0
 30 59  1  0  0  0
 31 32  1  0  0  0
 31 60  1  0  0  0
 32 33  2  0  0  0
 32 61  1  0  0  0
 33 62  1  0  0  0
M  END
> <s_m_entry_id>
3409

> <s_m_entry_name>
dock_pv.501

> <s_m_Source_Path>
/home/csk/Desktop/cluster/DUD-E-result/adrb1

> <s_m_Source_File>
dock_pv.maegz

> <i_m_Source_File_Index>
501

> <chembl_id>
CHEMBL1944695

> <chembl_pref_name>
None

> <i_lp_mmshare_version>
53161

> <i_f3d_flags>
0

> <r_lp_tautomer_probability>
1

> <s_lp_Force_Field>
OPLS_2005

> <r_lp_Energy>
36.176689

> <b_lp_Chiralities_Consistent>
1

> <s_lp_Variant>
CHEMBL213_lig459-1

> <s_i_glide_gridfile>
glide-grid_2vt4

> <i_i_glide_lignum>
547

> <i_i_glide_rotatable_bonds>
13

> <r_i_docking_score>
-6.80162317885095

> <r_i_glide_ligand_efficiency>
-0.206109793298514

> <r_i_glide_ligand_efficiency_sa>
-0.661104236982807

> <r_i_glide_ligand_efficiency_ln>
-1.5126457780564

> <r_i_glide_gscore>
-6.80162317885095

> <r_i_glide_lipo>
-2.63783250114077

> <r_i_glide_hbond>
-0.449917295126209

> <r_i_glide_metal>
0

> <r_i_glide_rewards>
-0.874301651348422

> <r_i_glide_evdw>
-50.3939552307129

> <r_i_glide_ecoul>
-8.38382816314697

> <r_i_glide_erotb>
0.937700254772139

> <r_i_glide_esite>
0

> <r_i_glide_emodel>
-80.4320656111907

> <r_i_glide_energy>
-58.7777833938599

> <r_i_glide_einternal>
8.17262935638428

> <i_i_glide_confnum>
17

> <i_i_glide_posenum>
55

> <r_i_glide_eff_state_penalty>
0

> <s_user_duplicate_titles>
CHEMBL213_lig459

> <s_m_subgroup_title>
dock_pv

> <s_m_subgroupid>
dock_pv

> <b_m_subgroup_collapsed>
1

$$$$
CHEMBL213_lig1498
                    3D
 Schrodinger Suite 2021-1.
 51 54  0  0  1  0            999 V2000
   28.7893    5.1785    2.2116 C   0  0  0  0  0  0
   29.5334    5.8499    3.1849 C   0  0  0  0  0  0
   28.9053    6.3705    4.3066 C   0  0  0  0  0  0
   27.3986    5.0147    2.3175 C   0  0  0  0  0  0
   26.8066    5.4541    3.5192 C   0  0  0  0  0  0
   27.5379    6.1643    4.4762 C   0  0  0  0  0  0
   26.7646    6.6239    5.5293 N   0  0  0  0  0  0
   25.4445    6.2500    5.5517 C   0  0  0  0  0  0
   25.1749    5.1963    4.0931 S   0  0  0  0  0  0
   26.6398    4.3317    1.1375 C   0  0  2  0  0  0
   26.7638    5.0555   -0.2279 C   0  0  0  0  0  0
   25.2606    4.0894    1.3365 O   0  0  0  0  0  0
   28.0551    4.8148   -0.8781 N   0  0  2  0  0  0
   28.1380    5.4080   -2.2121 C   0  0  2  0  0  0
   29.5502    5.3276   -2.8356 C   0  0  2  0  0  0
   29.6145    6.4877   -3.8591 C   0  0  0  0  0  0
   28.3734    7.3615   -3.6234 C   0  0  0  0  0  0
   27.7734    6.8946   -2.3006 C   0  0  0  0  0  0
   24.5971    6.5384    6.3849 O   0  0  0  0  0  0
   29.6360    7.0651    5.2362 O   0  0  0  0  0  0
   29.9424    3.9262   -3.3884 C   0  0  0  0  0  0
   29.1118    3.4483   -4.6045 C   0  0  0  0  0  0
   30.0940    3.3431   -5.7762 C   0  0  0  0  0  0
   31.4098    2.9696   -5.1039 C   0  0  0  0  0  0
   31.4191    3.8193   -3.8310 C   0  0  0  0  0  0
   29.3169    4.8169    1.3425 H   0  0  0  0  0  0
   30.5986    5.9710    3.0485 H   0  0  0  0  0  0
   27.1106    7.2628    6.2364 H   0  0  0  0  0  0
   27.0076    3.3213    1.0147 H   0  0  0  0  0  0
   25.9951    4.6850   -0.9109 H   0  0  0  0  0  0
   26.5845    6.1219   -0.0833 H   0  0  0  0  0  0
   24.8583    3.8472    0.4974 H   0  0  0  0  0  0
   28.2082    3.8184   -0.9872 H   0  0  0  0  0  0
   27.4252    4.8662   -2.8371 H   0  0  0  0  0  0
   30.2656    5.5702   -2.0462 H   0  0  0  0  0  0
   29.6431    6.1423   -4.8923 H   0  0  0  0  0  0
   30.5261    7.0673   -3.7127 H   0  0  0  0  0  0
   27.6411    7.2003   -4.4149 H   0  0  0  0  0  0
   28.6070    8.4277   -3.6163 H   0  0  0  0  0  0
   26.6938    7.0494   -2.2869 H   0  0  0  0  0  0
   28.2075    7.4494   -1.4692 H   0  0  0  0  0  0
   30.5298    7.2446    4.9303 H   0  0  0  0  0  0
   29.8082    3.2106   -2.5765 H   0  0  0  0  0  0
   28.6759    2.4668   -4.4146 H   0  0  0  0  0  0
   28.2769    4.1126   -4.8224 H   0  0  0  0  0  0
   29.7788    2.6082   -6.5182 H   0  0  0  0  0  0
   30.2022    4.3021   -6.2852 H   0  0  0  0  0  0
   31.4072    1.9089   -4.8471 H   0  0  0  0  0  0
   32.2751    3.1589   -5.7404 H   0  0  0  0  0  0
   31.8418    4.8030   -4.0417 H   0  0  0  0  0  0
   32.0424    3.3649   -3.0593 H   0  0  0  0  0  0
  1  2  2  0  0  0
  1  4  1  0  0  0
  1 26  1  0  0  0
  2  3  1  0  0  0
  2 27  1  0  0  0
  3  6  2  0  0  0
  3 20  1  0  0  0
  4  5  2  0  0  0
  4 10  1  0  0  0
  5  6  1  0  0  0
  5  9  1  0  0  0
  6  7  1  0  0  0
  7  8  1  0  0  0
  7 28  1  0  0  0
  8  9  1  0  0  0
  8 19  2  0  0  0
 10 11  1  0  0  0
 10 12  1  0  0  0
 10 29  1  0  0  0
 11 13  1  0  0  0
 11 30  1  0  0  0
 11 31  1  0  0  0
 12 32  1  0  0  0
 13 14  1  0  0  0
 13 33  1  0  0  0
 14 15  1  0  0  0
 14 18  1  0  0  0
 14 34  1  0  0  0
 15 16  1  0  0  0
 15 21  1  0  0  0
 15 35  1  0  0  0
 16 17  1  0  0  0
 16 36  1  0  0  0
 16 37  1  0  0  0
 17 18  1  0  0  0
 17 38  1  0  0  0
 17 39  1  0  0  0
 18 40  1  0  0  0
 18 41  1  0  0  0
 20 42  1  0  0  0
 21 22  1  0  0  0
 21 25  1  0  0  0
 21 43  1  0  0  0
 22 23  1  0  0  0
 22 44  1  0  0  0
 22 45  1  0  0  0
 23 24  1  0  0  0
 23 46  1  0  0  0
 23 47  1  0  0  0
 24 25  1  0  0  0
 24 48  1  0  0  0
 24 49  1  0  0  0
 25 50  1  0  0  0
 25 51  1  0  0  0
M  END
> <s_m_entry_id>
3410

> <s_m_entry_name>
dock_pv.502

> <s_m_Source_Path>
/home/csk/Desktop/cluster/DUD-E-result/adrb1

> <s_m_Source_File>
dock_pv.maegz

> <i_m_Source_File_Index>
502

> <chembl_id>
CHEMBL3323654

> <chembl_pref_name>
None

> <i_lp_mmshare_version>
53161

> <i_f3d_flags>
0

> <r_lp_tautomer_probability>
1

> <s_lp_Force_Field>
OPLS_2005

> <r_lp_Energy>
57.562769

> <b_lp_Chiralities_Consistent>
1

> <s_lp_Variant>
CHEMBL213_lig1498-1

> <s_i_glide_gridfile>
glide-grid_2vt4

> <i_i_glide_lignum>
1846

> <i_i_glide_rotatable_bonds>
7

> <r_i_docking_score>
-6.80121832059296

> <r_i_glide_ligand_efficiency>
-0.272048732823718

> <r_i_glide_ligand_efficiency_sa>
-0.795475319581373

> <r_i_glide_ligand_efficiency_ln>
-1.61209255804665

> <r_i_glide_gscore>
-6.80121832059296

> <r_i_glide_lipo>
-2.6162275374037

> <r_i_glide_hbond>
-0.596493252621286

> <r_i_glide_metal>
0

> <r_i_glide_rewards>
-1.52852276495646

> <r_i_glide_evdw>
-33.9954299926758

> <r_i_glide_ecoul>
-7.27273654937744

> <r_i_glide_erotb>
0.730707216428897

> <r_i_glide_esite>
0

> <r_i_glide_emodel>
-50.5768923386521

> <r_i_glide_energy>
-41.2681665420532

> <r_i_glide_einternal>
13.0836563110352

> <i_i_glide_confnum>
329

> <i_i_glide_posenum>
289

> <r_i_glide_eff_state_penalty>
0

> <s_user_duplicate_titles>
CHEMBL213_lig1498

> <s_m_subgroup_title>
dock_pv

> <s_m_subgroupid>
dock_pv

> <b_m_subgroup_collapsed>
1

$$$$
CHEMBL213_lig524 
                    3D
 Schrodinger Suite 2021-1.
 84 85  0  0  1  0            999 V2000
   30.4542    2.1453   -7.5611 C   0  0  0  0  0  0
   29.1936    1.6621   -7.9022 C   0  0  0  0  0  0
   28.1163    1.8500   -7.0638 C   0  0  0  0  0  0
   28.2876    2.5082   -5.8582 C   0  0  0  0  0  0
   29.5323    3.0500   -5.5106 C   0  0  0  0  0  0
   30.6305    2.8727   -6.3724 C   0  0  0  0  0  0
   31.8237    3.4627   -6.0065 O   0  0  0  0  0  0
   32.9517    3.4595   -6.8815 C   0  0  0  0  0  0
   33.9525    4.5799   -6.5030 C   0  0  2  0  0  0
   34.5004    4.5466   -5.0492 C   0  0  0  0  0  0
   29.6850    3.8885   -4.2372 C   0  0  0  0  0  0
   28.3645    4.4273   -3.6498 C   0  0  0  0  0  0
   28.5411    5.3288   -2.4257 C   0  0  0  0  0  0
   27.1708    5.7385   -1.8479 C   0  0  0  0  0  0
   27.2200    6.2643   -0.4104 C   0  0  0  0  0  0
   27.5734    5.2097    0.6640 C   0  0  0  0  0  0
   26.3624    4.4491    1.1998 C   0  0  0  0  0  0
   25.7640    3.4751    0.3922 C   0  0  0  0  0  0
   24.6080    2.8275    0.8119 C   0  0  0  0  0  0
   24.0529    3.1349    2.0493 C   0  0  0  0  0  0
   24.6617    4.0723    2.8759 C   0  0  0  0  0  0
   25.8336    4.7333    2.4745 C   0  0  0  0  0  0
   33.4080    5.8500   -6.8304 O   0  0  0  0  0  0
   26.5121    5.6608    3.2496 O   0  0  0  0  0  0
   33.4429    4.6934   -4.0492 N   0  0  1  0  0  0
   33.8561    4.6748   -2.6507 C   0  0  0  0  0  0
   32.5773    4.6525   -1.8018 C   0  0  0  0  0  0
   34.7396    5.8774   -2.2806 C   0  0  0  0  0  0
   25.9879    6.1792    4.4771 C   0  0  0  0  0  0
   27.0766    6.2051    5.5724 C   0  0  2  0  0  0
   28.3689    6.9789    5.2129 C   0  0  0  0  0  0
   27.4080    4.8962    5.9757 O   0  0  0  0  0  0
   29.1598    6.2638    4.2063 N   0  0  2  0  0  0
   30.3652    6.9596    3.7570 C   0  0  0  0  0  0
   31.0080    6.1577    2.6113 C   0  0  0  0  0  0
   31.3674    7.1597    4.9076 C   0  0  0  0  0  0
   31.2698    1.9723   -8.2451 H   0  0  0  0  0  0
   29.0080    1.1355   -8.8150 H   0  0  0  0  0  0
   27.1448    1.4988   -7.3678 H   0  0  0  0  0  0
   27.4157    2.6362   -5.2382 H   0  0  0  0  0  0
   32.6564    3.6124   -7.9208 H   0  0  0  0  0  0
   33.4358    2.4846   -6.8152 H   0  0  0  0  0  0
   34.8138    4.4600   -7.1619 H   0  0  0  0  0  0
   35.2549    5.3259   -4.9382 H   0  0  0  0  0  0
   35.0028    3.5920   -4.8869 H   0  0  0  0  0  0
   30.2132    3.2871   -3.4970 H   0  0  0  0  0  0
   30.3237    4.7443   -4.4615 H   0  0  0  0  0  0
   27.8136    4.9765   -4.4150 H   0  0  0  0  0  0
   27.7336    3.5881   -3.3543 H   0  0  0  0  0  0
   29.1362    4.7912   -1.6886 H   0  0  0  0  0  0
   29.1148    6.2188   -2.6881 H   0  0  0  0  0  0
   26.7182    6.4893   -2.4976 H   0  0  0  0  0  0
   26.4978    4.8911   -1.8763 H   0  0  0  0  0  0
   27.9611    7.0500   -0.4150 H   0  0  0  0  0  0
   26.2795    6.7560   -0.1552 H   0  0  0  0  0  0
   28.3015    4.4961    0.2866 H   0  0  0  0  0  0
   28.0845    5.7045    1.4853 H   0  0  0  0  0  0
   26.1784    3.2245   -0.5726 H   0  0  0  0  0  0
   24.1335    2.1035    0.1667 H   0  0  0  0  0  0
   23.1489    2.6500    2.3848 H   0  0  0  0  0  0
   24.1878    4.2500    3.8248 H   0  0  0  0  0  0
   34.1238    6.5048   -6.8150 H   0  0  0  0  0  0
   32.8179    5.4500   -4.2897 H   0  0  0  0  0  0
   34.4042    3.7489   -2.4667 H   0  0  0  0  0  0
   32.8200    4.6501   -0.7400 H   0  0  0  0  0  0
   31.9860    3.7590   -2.0036 H   0  0  0  0  0  0
   31.9451    5.5214   -1.9892 H   0  0  0  0  0  0
   35.0352    5.8265   -1.2324 H   0  0  0  0  0  0
   35.6598    5.9094   -2.8634 H   0  0  0  0  0  0
   34.2080    6.8184   -2.4172 H   0  0  0  0  0  0
   25.6595    7.1986    4.2709 H   0  0  0  0  0  0
   25.1188    5.6687    4.8806 H   0  0  0  0  0  0
   26.6300    6.6500    6.4592 H   0  0  0  0  0  0
   28.1054    7.9723    4.8494 H   0  0  0  0  0  0
   28.9533    7.1155    6.1235 H   0  0  0  0  0  0
   28.0636    4.5758    5.3458 H   0  0  0  0  0  0
   28.5690    6.0090    3.4221 H   0  0  0  0  0  0
   30.0736    7.9336    3.3635 H   0  0  0  0  0  0
   31.7739    6.7519    2.1112 H   0  0  0  0  0  0
   31.4947    5.2531    2.9682 H   0  0  0  0  0  0
   30.2923    5.8500    1.8533 H   0  0  0  0  0  0
   32.3455    7.4500    4.5257 H   0  0  0  0  0  0
   31.0373    7.9449    5.5850 H   0  0  0  0  0  0
   31.5183    6.2500    5.4859 H   0  0  0  0  0  0
  1  2  2  0  0  0
  1  6  1  0  0  0
  1 37  1  0  0  0
  2  3  1  0  0  0
  2 38  1  0  0  0
  3  4  2  0  0  0
  3 39  1  0  0  0
  4  5  1  0  0  0
  4 40  1  0  0  0
  5  6  2  0  0  0
  5 11  1  0  0  0
  6  7  1  0  0  0
  7  8  1  0  0  0
  8  9  1  0  0  0
  8 41  1  0  0  0
  8 42  1  0  0  0
  9 10  1  0  0  0
  9 23  1  0  0  0
  9 43  1  0  0  0
 10 25  1  0  0  0
 10 44  1  0  0  0
 10 45  1  0  0  0
 11 12  1  0  0  0
 11 46  1  0  0  0
 11 47  1  0  0  0
 12 13  1  0  0  0
 12 48  1  0  0  0
 12 49  1  0  0  0
 13 14  1  0  0  0
 13 50  1  0  0  0
 13 51  1  0  0  0
 14 15  1  0  0  0
 14 52  1  0  0  0
 14 53  1  0  0  0
 15 16  1  0  0  0
 15 54  1  0  0  0
 15 55  1  0  0  0
 16 17  1  0  0  0
 16 56  1  0  0  0
 16 57  1  0  0  0
 17 18  2  0  0  0
 17 22  1  0  0  0
 18 19  1  0  0  0
 18 58  1  0  0  0
 19 20  2  0  0  0
 19 59  1  0  0  0
 20 21  1  0  0  0
 20 60  1  0  0  0
 21 22  2  0  0  0
 21 61  1  0  0  0
 22 24  1  0  0  0
 23 62  1  0  0  0
 24 29  1  0  0  0
 25 26  1  0  0  0
 25 63  1  0  0  0
 26 27  1  0  0  0
 26 28  1  0  0  0
 26 64  1  0  0  0
 27 65  1  0  0  0
 27 66  1  0  0  0
 27 67  1  0  0  0
 28 68  1  0  0  0
 28 69  1  0  0  0
 28 70  1  0  0  0
 29 30  1  0  0  0
 29 71  1  0  0  0
 29 72  1  0  0  0
 30 31  1  0  0  0
 30 32  1  0  0  0
 30 73  1  0  0  0
 31 33  1  0  0  0
 31 74  1  0  0  0
 31 75  1  0  0  0
 32 76  1  0  0  0
 33 34  1  0  0  0
 33 77  1  0  0  0
 34 35  1  0  0  0
 34 36  1  0  0  0
 34 78  1  0  0  0
 35 79  1  0  0  0
 35 80  1  0  0  0
 35 81  1  0  0  0
 36 82  1  0  0  0
 36 83  1  0  0  0
 36 84  1  0  0  0
M  END
> <s_m_entry_id>
3411

> <s_m_entry_name>
dock_pv.503

> <s_m_Source_Path>
/home/csk/Desktop/cluster/DUD-E-result/adrb1

> <s_m_Source_File>
dock_pv.maegz

> <i_m_Source_File_Index>
503

> <chembl_id>
CHEMBL4473518

> <chembl_pref_name>
None

> <i_lp_mmshare_version>
53161

> <i_f3d_flags>
0

> <r_lp_tautomer_probability>
1

> <s_lp_Force_Field>
OPLS_2005

> <r_lp_Energy>
28.339859

> <b_lp_Chiralities_Consistent>
1

> <s_lp_Variant>
CHEMBL213_lig524 -1

> <s_i_glide_gridfile>
glide-grid_2vt4

> <i_i_glide_lignum>
617

> <i_i_glide_rotatable_bonds>
21

> <r_i_docking_score>
-6.79988022709838

> <r_i_glide_ligand_efficiency>
-0.188885561863844

> <r_i_glide_ligand_efficiency_sa>
-0.623686382896

> <r_i_glide_ligand_efficiency_ln>
-1.48355015401961

> <r_i_glide_gscore>
-6.79988022709838

> <r_i_glide_lipo>
-3.96768842052239

> <r_i_glide_hbond>
0

> <r_i_glide_metal>
0

> <r_i_glide_rewards>
-0.9

> <r_i_glide_evdw>
-49.2262878417969

> <r_i_glide_ecoul>
-5.70391798019409

> <r_i_glide_erotb>
1.38471028254297

> <r_i_glide_esite>
0

> <r_i_glide_emodel>
-72.2148941973222

> <r_i_glide_energy>
-54.930205821991

> <r_i_glide_einternal>
11.0812501907349

> <i_i_glide_confnum>
17

> <i_i_glide_posenum>
250

> <r_i_glide_eff_state_penalty>
0

> <s_user_duplicate_titles>
CHEMBL213_lig524 

> <s_m_subgroup_title>
dock_pv

> <s_m_subgroupid>
dock_pv

> <b_m_subgroup_collapsed>
1

$$$$
576187
                    3D
 Schrodinger Suite 2021-1.
 78 80  0  0  1  0            999 V2000
   37.1871    4.2499   -4.2552 C   0  0  0  0  0  0
   35.9395    3.3657   -4.4706 C   0  0  0  0  0  0
   36.2854    2.1540   -5.3730 C   0  0  0  0  0  0
   35.3732    2.8213   -3.1255 C   0  0  0  0  0  0
   35.1761    3.8166   -1.9824 C   0  0  0  0  0  0
   34.0425    4.6324   -1.9321 C   0  0  0  0  0  0
   33.8218    5.4500   -0.8249 C   0  0  0  0  0  0
   34.7210    5.4393    0.2444 C   0  0  0  0  0  0
   35.8823    4.6584    0.1695 C   0  0  0  0  0  0
   36.1081    3.8538   -0.9418 C   0  0  0  0  0  0
   34.4111    6.2500    1.3487 N   0  0  0  0  0  0
   34.7752    6.0832    2.6371 C   0  0  0  0  0  0
   35.4080    5.1228    3.0748 O   0  0  0  0  0  0
   34.3536    7.1858    3.6119 C   0  0  0  0  0  0
   33.2070    6.7677    4.5591 C   0  0  0  0  0  0
   31.8203    6.7921    3.8860 C   0  0  0  0  0  0
   30.7999    7.0500    4.8948 N   0  0  2  0  0  0
   29.4670    7.1941    4.3225 C   0  0  0  0  0  0
   28.9154    5.8757    3.7368 C   0  0  0  0  0  0
   27.3990    5.8598    3.4558 C   0  0  0  0  0  0
   26.3690    6.2121    5.0045 S   0  0  0  0  0  0
   25.0080    5.7221    4.7850 O   0  0  0  0  0  0
   27.1190    5.8499    6.2105 O   0  0  0  0  0  0
   26.3415    7.8634    4.9014 O   0  0  0  0  0  0
   34.8947    4.1746   -5.1144 N   0  0  1  0  0  0
   35.0252    4.4860   -6.5463 C   0  0  0  0  0  0
   33.6711    4.7842   -7.2415 C   0  0  1  0  0  0
   32.4961    3.8964   -6.7782 C   0  0  0  0  0  0
   32.2164    2.7084   -7.4666 C   0  0  0  0  0  0
   31.1632    1.8805   -7.0698 C   0  0  0  0  0  0
   30.3721    2.2095   -5.9682 C   0  0  0  0  0  0
   30.6370    3.3889   -5.2595 C   0  0  0  0  0  0
   31.6868    4.2229   -5.6758 C   0  0  0  0  0  0
   31.9512    5.3550   -4.9267 O   0  0  0  0  0  0
   30.7656    6.0022   -4.4152 C   0  0  0  0  0  0
   29.8852    5.0239   -3.5926 C   0  0  0  0  0  0
   29.2786    5.3240   -2.5681 O   0  0  0  0  0  0
   29.9019    3.7855   -4.1280 N   0  0  0  0  0  0
   29.3529    1.3604   -5.6148 O   0  0  0  0  0  0
   33.4080    6.1712   -7.2150 O   0  0  0  0  0  0
   37.9802    3.7079   -3.7399 H   0  0  0  0  0  0
   37.5930    4.6188   -5.1978 H   0  0  0  0  0  0
   36.9536    5.1317   -3.6576 H   0  0  0  0  0  0
   36.6080    1.2767   -4.8150 H   0  0  0  0  0  0
   35.4080    1.8500   -5.9376 H   0  0  0  0  0  0
   37.0687    2.3864   -6.0955 H   0  0  0  0  0  0
   34.4252    2.3082   -3.2963 H   0  0  0  0  0  0
   36.0312    2.0341   -2.7518 H   0  0  0  0  0  0
   33.3216    4.6144   -2.7360 H   0  0  0  0  0  0
   32.9322    6.0619   -0.7879 H   0  0  0  0  0  0
   36.6134    4.6584    0.9633 H   0  0  0  0  0  0
   37.0008    3.2425   -0.9773 H   0  0  0  0  0  0
   33.7859    7.0216    1.1503 H   0  0  0  0  0  0
   35.2368    7.4212    4.2069 H   0  0  0  0  0  0
   34.1004    8.1074    3.0847 H   0  0  0  0  0  0
   33.3875    5.7815    4.9928 H   0  0  0  0  0  0
   33.2237    7.4500    5.4089 H   0  0  0  0  0  0
   31.7859    7.5987    3.1505 H   0  0  0  0  0  0
   31.6478    5.8522    3.3594 H   0  0  0  0  0  0
   31.0568    7.9162    5.3518 H   0  0  0  0  0  0
   28.8309    7.5299    5.1396 H   0  0  0  0  0  0
   29.4470    7.9960    3.5850 H   0  0  0  0  0  0
   29.4424    5.6435    2.8107 H   0  0  0  0  0  0
   29.1355    5.0501    4.4097 H   0  0  0  0  0  0
   27.0989    6.5702    2.6870 H   0  0  0  0  0  0
   27.0974    4.8707    3.1117 H   0  0  0  0  0  0
   26.6080    8.2400    5.7740 H   0  0  0  0  0  0
   33.9576    3.8888   -4.8694 H   0  0  0  0  0  0
   35.4531    3.6536   -7.0993 H   0  0  0  0  0  0
   35.7360    5.2989   -6.6899 H   0  0  0  0  0  0
   33.8179    4.5917   -8.3060 H   0  0  0  0  0  0
   32.8162    2.4215   -8.3185 H   0  0  0  0  0  0
   30.9655    0.9706   -7.6150 H   0  0  0  0  0  0
   30.1534    6.3301   -5.2573 H   0  0  0  0  0  0
   31.0080    6.8789   -3.8181 H   0  0  0  0  0  0
   29.3017    3.1309   -3.6454 H   0  0  0  0  0  0
   28.7415    1.7325   -4.9741 H   0  0  0  0  0  0
   34.2482    6.6373   -7.0455 H   0  0  0  0  0  0
  1  2  1  0  0  0
  1 41  1  0  0  0
  1 42  1  0  0  0
  1 43  1  0  0  0
  2  3  1  0  0  0
  2  4  1  0  0  0
  2 25  1  0  0  0
  3 44  1  0  0  0
  3 45  1  0  0  0
  3 46  1  0  0  0
  4  5  1  0  0  0
  4 47  1  0  0  0
  4 48  1  0  0  0
  5 10  1  0  0  0
  5  6  2  0  0  0
  6  7  1  0  0  0
  6 49  1  0  0  0
  7  8  2  0  0  0
  7 50  1  0  0  0
  8  9  1  0  0  0
  8 11  1  0  0  0
  9 10  2  0  0  0
  9 51  1  0  0  0
 10 52  1  0  0  0
 11 12  1  0  0  0
 11 53  1  0  0  0
 12 13  2  0  0  0
 12 14  1  0  0  0
 14 15  1  0  0  0
 14 54  1  0  0  0
 14 55  1  0  0  0
 15 16  1  0  0  0
 15 56  1  0  0  0
 15 57  1  0  0  0
 16 17  1  0  0  0
 16 58  1  0  0  0
 16 59  1  0  0  0
 17 18  1  0  0  0
 17 60  1  0  0  0
 18 19  1  0  0  0
 18 61  1  0  0  0
 18 62  1  0  0  0
 19 20  1  0  0  0
 19 63  1  0  0  0
 19 64  1  0  0  0
 20 21  1  0  0  0
 20 65  1  0  0  0
 20 66  1  0  0  0
 21 22  2  0  0  0
 21 23  2  0  0  0
 21 24  1  0  0  0
 24 67  1  0  0  0
 25 26  1  0  0  0
 25 68  1  0  0  0
 26 27  1  0  0  0
 26 69  1  0  0  0
 26 70  1  0  0  0
 27 28  1  0  0  0
 27 40  1  0  0  0
 27 71  1  0  0  0
 28 33  1  0  0  0
 28 29  2  0  0  0
 29 30  1  0  0  0
 29 72  1  0  0  0
 30 31  2  0  0  0
 30 73  1  0  0  0
 31 32  1  0  0  0
 31 39  1  0  0  0
 32 38  1  0  0  0
 32 33  2  0  0  0
 33 34  1  0  0  0
 34 35  1  0  0  0
 35 36  1  0  0  0
 35 74  1  0  0  0
 35 75  1  0  0  0
 36 37  2  0  0  0
 36 38  1  0  0  0
 38 76  1  0  0  0
 39 77  1  0  0  0
 40 78  1  0  0  0
M  END
> <s_m_entry_id>
4497

> <s_m_entry_name>
ligand_docking-pose.4

> <s_m_Source_Path>
/home/csk/Desktop/cluster/DUD-E-result/adrb1

> <s_m_Source_File>
ligand_docking-pose.sdf

> <i_m_Source_File_Index>
4

> <i_lp_mmshare_version>
53161

> <r_lp_tautomer_probability>
0.9999999999415

> <s_lp_Force_Field>
OPLS_2005

> <r_lp_Energy>
35.10534

> <b_lp_Chiralities_Consistent>
1

> <s_lp_Variant>
576187-2

> <s_i_glide_gridfile>
glide-grid_2vt4

> <i_i_glide_lignum>
210

> <i_i_glide_rotatable_bonds>
19

> <r_i_docking_score>
-9.21159564090642

> <r_i_glide_ligand_efficiency>
-0.230289891022661

> <r_i_glide_ligand_efficiency_sa>
-0.787580347854665

> <r_i_glide_ligand_efficiency_ln>
-1.964562265047

> <r_i_glide_gscore>
-9.21159564090642

> <r_i_glide_lipo>
-2.79078753574436

> <r_i_glide_hbond>
-0.733638859805959

> <r_i_glide_metal>
0

> <r_i_glide_rewards>
-0.564981774078718

> <r_i_glide_evdw>
-59.2867126464844

> <r_i_glide_ecoul>
-20.3356456756592

> <r_i_glide_erotb>
0.89996015061409

> <r_i_glide_esite>
-0.00746513821837472

> <r_i_glide_emodel>
-115.069670478105

> <r_i_glide_energy>
-79.6223583221436

> <r_i_glide_einternal>
12.8468465805054

> <i_i_glide_confnum>
142

> <i_i_glide_posenum>
371

> <r_i_glide_eff_state_penalty>
0

> <i_f3d_flags>
0

> <s_user_duplicate_titles>
576187

> <s_m_subgroup_title>
dock_pv

> <s_m_subgroupid>
dock_pv1

> <b_m_subgroup_collapsed>
0

$$$$
576062
                    3D
 Schrodinger Suite 2021-1.
 82 84  0  0  1  0            999 V2000
   36.2567    2.4814   -5.0336 C   0  0  0  0  0  0
   35.6741    3.2330   -3.8158 C   0  0  0  0  0  0
   34.7158    2.2793   -3.0511 C   0  0  0  0  0  0
   36.8079    3.7264   -2.8663 C   0  0  0  0  0  0
   36.3409    4.4735   -1.6131 C   0  0  0  0  0  0
   35.9176    5.7935   -1.7268 C   0  0  0  0  0  0
   35.4204    6.4762   -0.6208 C   0  0  0  0  0  0
   35.3708    5.8479    0.6250 C   0  0  0  0  0  0
   35.8322    4.5284    0.7524 C   0  0  0  0  0  0
   36.3135    3.8468   -0.3653 C   0  0  0  0  0  0
   34.7947    6.5930    1.6688 N   0  0  0  0  0  0
   34.7866    6.3605    2.9975 C   0  0  0  0  0  0
   35.3991    5.4586    3.5685 O   0  0  0  0  0  0
   33.9540    7.3359    3.8342 C   0  0  0  0  0  0
   32.5376    6.8163    4.1759 C   0  0  0  0  0  0
   31.5693    6.8389    2.9740 C   0  0  0  0  0  0
   30.2633    6.2234    3.1802 N   0  0  0  0  0  0
   29.2797    6.6445    3.9877 C   0  0  0  0  0  0
   29.4081    7.5731    4.7822 O   0  0  0  0  0  0
   27.9621    5.8511    3.8219 C   0  0  0  0  0  0
   26.8296    6.1784    4.7864 N   0  3  0  0  0  0
   25.6346    5.2904    4.3516 C   0  0  0  0  0  0
   27.1955    5.8188    6.2461 C   0  0  0  0  0  0
   26.3469    7.6446    4.7177 C   0  0  0  0  0  0
   35.0578    4.4260   -4.4109 N   0  0  1  0  0  0
   33.6753    4.7682   -4.0811 C   0  0  0  0  0  0
   32.7204    4.2442   -5.1747 C   0  0  1  0  0  0
   31.2445    4.1488   -4.7689 C   0  0  0  0  0  0
   30.7237    4.7854   -3.6273 C   0  0  0  0  0  0
   29.3798    4.6460   -3.2804 C   0  0  0  0  0  0
   28.5323    3.8501   -4.0508 C   0  0  0  0  0  0
   29.0380    3.1809   -5.1674 C   0  0  0  0  0  0
   30.3789    3.3493   -5.5264 C   0  0  0  0  0  0
   30.8295    2.8215   -6.7217 O   0  0  0  0  0  0
   30.1410    1.6502   -7.1953 C   0  0  0  0  0  0
   28.5936    1.7606   -7.1033 C   0  0  0  0  0  0
   27.8141    1.3017   -7.9331 O   0  0  0  0  0  0
   28.2081    2.4335   -6.0035 N   0  0  0  0  0  0
   28.8895    5.2935   -2.1782 O   0  0  0  0  0  0
   32.9045    5.0477   -6.3296 O   0  0  0  0  0  0
   36.6079    1.4847   -4.7686 H   0  0  0  0  0  0
   35.5044    2.3363   -5.8108 H   0  0  0  0  0  0
   37.0850    3.0253   -5.4905 H   0  0  0  0  0  0
   35.2193    1.3443   -2.8149 H   0  0  0  0  0  0
   34.3726    2.7083   -2.1103 H   0  0  0  0  0  0
   33.8197    2.0387   -3.6153 H   0  0  0  0  0  0
   37.4066    2.8741   -2.5569 H   0  0  0  0  0  0
   37.5145    4.3610   -3.4029 H   0  0  0  0  0  0
   35.9517    6.2532   -2.6972 H   0  0  0  0  0  0
   35.0641    7.4871   -0.7477 H   0  0  0  0  0  0
   35.7963    3.9977    1.6883 H   0  0  0  0  0  0
   36.6488    2.8233   -0.2629 H   0  0  0  0  0  0
   34.2819    7.4077    1.3556 H   0  0  0  0  0  0
   34.5031    7.5181    4.7577 H   0  0  0  0  0  0
   33.8875    8.2974    3.3274 H   0  0  0  0  0  0
   32.6076    5.8121    4.5987 H   0  0  0  0  0  0
   32.1205    7.4420    4.9644 H   0  0  0  0  0  0
   31.4435    7.8524    2.5977 H   0  0  0  0  0  0
   32.0287    6.3135    2.1361 H   0  0  0  0  0  0
   30.0882    5.4030    2.6157 H   0  0  0  0  0  0
   27.5650    6.0408    2.8226 H   0  0  0  0  0  0
   28.1594    4.7824    3.9238 H   0  0  0  0  0  0
   24.8140    5.4494    5.0526 H   0  0  0  0  0  0
   25.3343    5.5873    3.3441 H   0  0  0  0  0  0
   25.9558    4.2508    4.3621 H   0  0  0  0  0  0
   26.2994    5.9730    6.8491 H   0  0  0  0  0  0
   27.5124    4.7757    6.2721 H   0  0  0  0  0  0
   27.9876    6.4874    6.5852 H   0  0  0  0  0  0
   25.4343    7.7304    5.3103 H   0  0  0  0  0  0
   27.1180    8.2667    5.1590 H   0  0  0  0  0  0
   26.1573    7.8928    3.6756 H   0  0  0  0  0  0
   35.6826    5.2208   -4.3378 H   0  0  0  0  0  0
   33.5851    5.8486   -4.0095 H   0  0  0  0  0  0
   33.4045    4.4048   -3.0900 H   0  0  0  0  0  0
   33.0127    3.2295   -5.4504 H   0  0  0  0  0  0
   31.3504    5.4093   -3.0072 H   0  0  0  0  0  0
   27.4882    3.7472   -3.7859 H   0  0  0  0  0  0
   30.4241    0.8038   -6.5678 H   0  0  0  0  0  0
   30.4284    1.4498   -8.2246 H   0  0  0  0  0  0
   27.2074    2.4632   -5.8496 H   0  0  0  0  0  0
   27.9508    5.1359   -2.0614 H   0  0  0  0  0  0
   33.8476    5.2203   -6.4148 H   0  0  0  0  0  0
  1  2  1  0  0  0
  1 41  1  0  0  0
  1 42  1  0  0  0
  1 43  1  0  0  0
  2  3  1  0  0  0
  2  4  1  0  0  0
  2 25  1  0  0  0
  3 44  1  0  0  0
  3 45  1  0  0  0
  3 46  1  0  0  0
  4  5  1  0  0  0
  4 47  1  0  0  0
  4 48  1  0  0  0
  5 10  1  0  0  0
  5  6  2  0  0  0
  6  7  1  0  0  0
  6 49  1  0  0  0
  7  8  2  0  0  0
  7 50  1  0  0  0
  8  9  1  0  0  0
  8 11  1  0  0  0
  9 10  2  0  0  0
  9 51  1  0  0  0
 10 52  1  0  0  0
 11 12  1  0  0  0
 11 53  1  0  0  0
 12 13  2  0  0  0
 12 14  1  0  0  0
 14 15  1  0  0  0
 14 54  1  0  0  0
 14 55  1  0  0  0
 15 16  1  0  0  0
 15 56  1  0  0  0
 15 57  1  0  0  0
 16 17  1  0  0  0
 16 58  1  0  0  0
 16 59  1  0  0  0
 17 18  1  0  0  0
 17 60  1  0  0  0
 18 19  2  0  0  0
 18 20  1  0  0  0
 20 21  1  0  0  0
 20 61  1  0  0  0
 20 62  1  0  0  0
 21 22  1  0  0  0
 21 23  1  0  0  0
 21 24  1  0  0  0
 22 63  1  0  0  0
 22 64  1  0  0  0
 22 65  1  0  0  0
 23 66  1  0  0  0
 23 67  1  0  0  0
 23 68  1  0  0  0
 24 69  1  0  0  0
 24 70  1  0  0  0
 24 71  1  0  0  0
 25 26  1  0  0  0
 25 72  1  0  0  0
 26 27  1  0  0  0
 26 73  1  0  0  0
 26 74  1  0  0  0
 27 28  1  0  0  0
 27 40  1  0  0  0
 27 75  1  0  0  0
 28 33  1  0  0  0
 28 29  2  0  0  0
 29 30  1  0  0  0
 29 76  1  0  0  0
 30 31  2  0  0  0
 30 39  1  0  0  0
 31 32  1  0  0  0
 31 77  1  0  0  0
 32 38  1  0  0  0
 32 33  2  0  0  0
 33 34  1  0  0  0
 34 35  1  0  0  0
 35 36  1  0  0  0
 35 78  1  0  0  0
 35 79  1  0  0  0
 36 37  2  0  0  0
 36 38  1  0  0  0
 38 80  1  0  0  0
 39 81  1  0  0  0
 40 82  1  0  0  0
M  CHG  1  21   1
M  END
> <s_m_entry_id>
4506

> <s_m_entry_name>
ligand_docking-pose.13

> <s_m_Source_Path>
/home/csk/Desktop/cluster/DUD-E-result/adrb1

> <s_m_Source_File>
ligand_docking-pose.sdf

> <i_m_Source_File_Index>
13

> <i_lp_mmshare_version>
53161

> <r_lp_tautomer_probability>
1

> <s_lp_Force_Field>
OPLS_2005

> <r_lp_Energy>
40.079905

> <b_lp_Chiralities_Consistent>
1

> <s_lp_Variant>
576062-2

> <s_i_glide_gridfile>
glide-grid_2vt4

> <i_i_glide_lignum>
325

> <i_i_glide_rotatable_bonds>
17

> <r_i_docking_score>
-8.48446283235722

> <r_i_glide_ligand_efficiency>
-0.21211157080893

> <r_i_glide_ligand_efficiency_sa>
-0.725411367298179

> <r_i_glide_ligand_efficiency_ln>
-1.80948623554677

> <r_i_glide_gscore>
-8.48446283235722

> <r_i_glide_lipo>
-2.47466493438075

> <r_i_glide_hbond>
-0.864

> <r_i_glide_metal>
0

> <r_i_glide_rewards>
-1.15006796652551

> <r_i_glide_evdw>
-60.6541938781738

> <r_i_glide_ecoul>
-11.8904237747192

> <r_i_glide_erotb>
0.862337161679484

> <r_i_glide_esite>
-0.0417938330138639

> <r_i_glide_emodel>
-104.243689522952

> <r_i_glide_energy>
-72.5446176528931

> <r_i_glide_einternal>
15.5949678421021

> <i_i_glide_confnum>
16

> <i_i_glide_posenum>
257

> <r_i_glide_eff_state_penalty>
0

> <i_f3d_flags>
0

> <s_user_duplicate_titles>
576062

> <s_m_subgroup_title>
dock_pv

> <s_m_subgroupid>
dock_pv1

> <b_m_subgroup_collapsed>
0

$$$$
160598
                    3D
 Schrodinger Suite 2021-1.
 59 61  0  0  1  0            999 V2000
   28.2331    3.0447   -4.5679 C   0  0  0  0  0  0
   29.6722    2.1177   -5.3603 S   0  0  0  0  0  0
   29.2741    1.7142   -6.7127 O   0  0  0  0  0  0
   30.2093    1.1331   -4.4162 O   0  0  0  0  0  0
   30.9010    3.3775   -5.5686 N   0  0  0  0  0  0
   31.7313    3.8682   -4.5493 C   0  0  0  0  0  0
   32.9115    4.5162   -4.9162 C   0  0  0  0  0  0
   33.7560    5.0495   -3.9435 C   0  0  0  0  0  0
   33.4185    4.9786   -2.5835 C   0  0  0  0  0  0
   32.2297    4.3270   -2.2286 C   0  0  0  0  0  0
   31.4068    3.7592   -3.1955 C   0  0  0  0  0  0
   34.3336    5.6064   -1.5474 C   0  0  0  0  0  0
   35.3217    6.2498   -1.8971 O   0  0  0  0  0  0
   34.0216    5.4499   -0.2462 N   0  0  0  0  0  0
   34.8131    6.0152    0.8520 C   0  0  0  0  0  0
   34.1955    5.8589    2.2594 C   0  0  0  0  0  0
   32.7891    6.2500    2.2938 N   0  0  1  0  0  0
   32.3603    6.6534    3.6319 C   0  0  0  0  0  0
   30.8727    7.0800    3.6218 C   0  0  1  0  0  0
   29.8953    5.8853    3.5590 C   0  0  0  0  0  0
   28.6652    6.2499    2.9495 O   0  0  0  0  0  0
   27.4980    5.9097    3.5819 C   0  0  0  0  0  0
   27.2184    6.4061    4.8556 C   0  0  0  0  0  0
   25.9831    6.1865    5.4494 C   0  0  0  0  0  0
   25.0080    5.4507    4.7850 C   0  0  0  0  0  0
   25.2578    4.9123    3.4949 C   0  0  0  0  0  0
   26.5184    5.1621    2.8733 C   0  0  0  0  0  0
   26.7413    4.6720    1.5568 C   0  0  0  0  0  0
   25.7588    3.9444    0.8914 C   0  0  0  0  0  0
   24.5381    3.6871    1.5045 C   0  0  0  0  0  0
   24.2796    4.1616    2.7880 C   0  0  0  0  0  0
   30.6079    7.8499    4.7851 O   0  0  0  0  0  0
   27.4231    2.3354   -4.4145 H   0  0  0  0  0  0
   28.5293    3.4501   -3.6067 H   0  0  0  0  0  0
   27.9001    3.8496   -5.2148 H   0  0  0  0  0  0
   31.0472    3.7156   -6.5067 H   0  0  0  0  0  0
   33.1828    4.6090   -5.9582 H   0  0  0  0  0  0
   34.6684    5.5386   -4.2622 H   0  0  0  0  0  0
   31.9142    4.2507   -1.2036 H   0  0  0  0  0  0
   30.5174    3.2474   -2.8663 H   0  0  0  0  0  0
   33.2362    4.8771    0.0154 H   0  0  0  0  0  0
   34.9874    7.0778    0.6653 H   0  0  0  0  0  0
   35.8070    5.5647    0.8508 H   0  0  0  0  0  0
   34.7828    6.4704    2.9470 H   0  0  0  0  0  0
   34.3027    4.8316    2.6040 H   0  0  0  0  0  0
   32.6433    7.0080    1.6303 H   0  0  0  0  0  0
   32.9766    7.5007    3.9352 H   0  0  0  0  0  0
   32.5196    5.8500    4.3517 H   0  0  0  0  0  0
   30.6993    7.7504    2.7799 H   0  0  0  0  0  0
   29.7754    5.4500    4.5450 H   0  0  0  0  0  0
   30.3069    5.0985    2.9256 H   0  0  0  0  0  0
   27.9525    7.0098    5.3693 H   0  0  0  0  0  0
   25.7794    6.6053    6.4242 H   0  0  0  0  0  0
   24.0444    5.2863    5.2466 H   0  0  0  0  0  0
   27.6864    4.8669    1.0694 H   0  0  0  0  0  0
   25.9392    3.5812   -0.1114 H   0  0  0  0  0  0
   23.7813    3.1302    0.9699 H   0  0  0  0  0  0
   23.3195    3.9747    3.2459 H   0  0  0  0  0  0
   31.2472    8.5756    4.8041 H   0  0  0  0  0  0
  1  2  1  0  0  0
  1 33  1  0  0  0
  1 34  1  0  0  0
  1 35  1  0  0  0
  2  3  2  0  0  0
  2  4  2  0  0  0
  2  5  1  0  0  0
  5  6  1  0  0  0
  5 36  1  0  0  0
  6 11  1  0  0  0
  6  7  2  0  0  0
  7  8  1  0  0  0
  7 37  1  0  0  0
  8  9  2  0  0  0
  8 38  1  0  0  0
  9 10  1  0  0  0
  9 12  1  0  0  0
 10 11  2  0  0  0
 10 39  1  0  0  0
 11 40  1  0  0  0
 12 13  2  0  0  0
 12 14  1  0  0  0
 14 15  1  0  0  0
 14 41  1  0  0  0
 15 16  1  0  0  0
 15 42  1  0  0  0
 15 43  1  0  0  0
 16 17  1  0  0  0
 16 44  1  0  0  0
 16 45  1  0  0  0
 17 18  1  0  0  0
 17 46  1  0  0  0
 18 19  1  0  0  0
 18 47  1  0  0  0
 18 48  1  0  0  0
 19 20  1  0  0  0
 19 32  1  0  0  0
 19 49  1  0  0  0
 20 21  1  0  0  0
 20 50  1  0  0  0
 20 51  1  0  0  0
 21 22  1  0  0  0
 22 27  1  0  0  0
 22 23  2  0  0  0
 23 24  1  0  0  0
 23 52  1  0  0  0
 24 25  2  0  0  0
 24 53  1  0  0  0
 25 26  1  0  0  0
 25 54  1  0  0  0
 26 31  2  0  0  0
 26 27  1  0  0  0
 27 28  2  0  0  0
 28 29  1  0  0  0
 28 55  1  0  0  0
 29 30  2  0  0  0
 29 56  1  0  0  0
 30 31  1  0  0  0
 30 57  1  0  0  0
 31 58  1  0  0  0
 32 59  1  0  0  0
M  END
> <s_m_entry_id>
4514

> <s_m_entry_name>
ligand_docking-pose.21

> <s_m_Source_Path>
/home/csk/Desktop/cluster/DUD-E-result/adrb1

> <s_m_Source_File>
ligand_docking-pose.sdf

> <i_m_Source_File_Index>
21

> <i_lp_mmshare_version>
53161

> <r_lp_tautomer_probability>
1

> <s_lp_Force_Field>
OPLS_2005

> <r_lp_Energy>
22.617069

> <b_lp_Chiralities_Consistent>
1

> <s_lp_Variant>
160598-2

> <s_i_glide_gridfile>
glide-grid_2vt4

> <i_i_glide_lignum>
543

> <i_i_glide_rotatable_bonds>
13

> <r_i_docking_score>
-8.35046628057953

> <r_i_glide_ligand_efficiency>
-0.26095207126811

> <r_i_glide_ligand_efficiency_sa>
-0.82847118393147

> <r_i_glide_ligand_efficiency_ln>
-1.86989702533558

> <r_i_glide_gscore>
-8.35046628057953

> <r_i_glide_lipo>
-3.34143904623106

> <r_i_glide_hbond>
-0.304

> <r_i_glide_metal>
0

> <r_i_glide_rewards>
-1.31411792484973

> <r_i_glide_evdw>
-47.3131904602051

> <r_i_glide_ecoul>
-13.2377042770386

> <r_i_glide_erotb>
0.960405855067304

> <r_i_glide_esite>
0

> <r_i_glide_emodel>
-82.5965899950258

> <r_i_glide_energy>
-60.5508947372437

> <r_i_glide_einternal>
13.8368768692017

> <i_i_glide_confnum>
72

> <i_i_glide_posenum>
286

> <r_i_glide_eff_state_penalty>
0

> <i_f3d_flags>
0

> <s_user_duplicate_titles>
160598

> <s_m_subgroup_title>
dock_pv

> <s_m_subgroupid>
dock_pv1

> <b_m_subgroup_collapsed>
0

$$$$
172989
                    3D
 Schrodinger Suite 2021-1.
 63 65  0  0  1  0            999 V2000
   32.6867    5.0496   -4.8398 C   0  0  0  0  0  0
   33.9852    4.9889   -4.3395 C   0  0  0  0  0  0
   34.2287    5.1341   -2.9721 C   0  0  0  0  0  0
   33.1467    5.3114   -2.0999 C   0  0  0  0  0  0
   31.8507    5.3841   -2.5987 C   0  0  0  0  0  0
   31.6169    5.2671   -3.9698 C   0  0  0  0  0  0
   30.1977    5.3796   -4.5154 C   0  0  0  0  0  0
   29.2891    4.2001   -4.1125 C   0  0  0  0  0  0
   28.8369    4.2500   -2.7257 N   0  0  1  0  0  0
   27.7530    5.2098   -2.5386 C   0  0  0  0  0  0
   26.9817    4.9485   -1.2283 C   0  0  1  0  0  0
   27.7953    5.1530    0.0585 C   0  0  0  0  0  0
   26.9864    4.7711    1.1745 O   0  0  0  0  0  0
   27.3407    5.2280    2.4229 C   0  0  0  0  0  0
   28.6699    5.4501    2.8034 C   0  0  0  0  0  0
   28.9525    5.9444    4.0726 C   0  0  0  0  0  0
   27.9165    6.1867    4.9715 C   0  0  0  0  0  0
   26.5935    5.9490    4.6081 C   0  0  0  0  0  0
   26.3092    5.4585    3.3355 C   0  0  0  0  0  0
   28.2079    6.6500    6.2254 O   0  0  0  0  0  0
   25.8944    5.8505   -1.2150 O   0  0  0  0  0  0
   35.5773    5.1136   -2.5739 N   0  0  0  0  0  0
   36.1153    5.2949   -1.2233 C   0  0  0  0  0  0
   35.7823    6.6937   -0.6478 C   0  0  0  0  0  0
   36.3127    6.8561    0.7945 C   0  0  0  0  0  0
   35.8078    5.7165    1.5924 N   0  0  0  0  0  0
   36.2560    4.3790    1.1537 C   0  0  0  0  0  0
   35.7057    4.1516   -0.2709 C   0  0  0  0  0  0
   35.0105    5.8507    2.6833 C   0  0  0  0  0  0
   35.0080    5.0536    3.6190 O   0  0  0  0  0  0
   34.2081    6.9151    2.7127 N   0  0  0  0  0  0
   26.5707    3.9365   -1.2392 H   0  0  0  0  0  0
   32.5224    4.9537   -5.9028 H   0  0  0  0  0  0
   34.8066    4.8516   -5.0288 H   0  0  0  0  0  0
   33.2765    5.4136   -1.0368 H   0  0  0  0  0  0
   31.0257    5.5307   -1.9170 H   0  0  0  0  0  0
   30.2344    5.4376   -5.6052 H   0  0  0  0  0  0
   29.7680    6.3331   -4.2060 H   0  0  0  0  0  0
   29.8858    3.2907   -4.1906 H   0  0  0  0  0  0
   28.4682    4.0477   -4.8148 H   0  0  0  0  0  0
   28.5852    3.3099   -2.4167 H   0  0  0  0  0  0
   27.0521    5.1250   -3.3730 H   0  0  0  0  0  0
   28.1559    6.2248   -2.5404 H   0  0  0  0  0  0
   28.0958    6.2004    0.1181 H   0  0  0  0  0  0
   28.7059    4.5557    0.0276 H   0  0  0  0  0  0
   29.4857    5.2505    2.1242 H   0  0  0  0  0  0
   29.9794    6.1190    4.3604 H   0  0  0  0  0  0
   25.7911    6.1277    5.3080 H   0  0  0  0  0  0
   25.2864    5.2714    3.0453 H   0  0  0  0  0  0
   27.5171    7.2223    6.5863 H   0  0  0  0  0  0
   25.3151    5.5752   -1.9393 H   0  0  0  0  0  0
   36.2519    5.2252   -3.3198 H   0  0  0  0  0  0
   37.1995    5.2409   -1.3486 H   0  0  0  0  0  0
   36.2425    7.4502   -1.2826 H   0  0  0  0  0  0
   34.7192    6.9239   -0.6611 H   0  0  0  0  0  0
   37.4006    6.7766    0.7903 H   0  0  0  0  0  0
   36.0839    7.8272    1.2356 H   0  0  0  0  0  0
   37.3456    4.3929    1.1281 H   0  0  0  0  0  0
   35.9689    3.5790    1.8397 H   0  0  0  0  0  0
   34.6286    4.0069   -0.2231 H   0  0  0  0  0  0
   36.0996    3.2076   -0.6514 H   0  0  0  0  0  0
   34.0525    7.4699    1.8815 H   0  0  0  0  0  0
   33.6129    7.0444    3.5149 H   0  0  0  0  0  0
  1  6  1  0  0  0
  1  2  2  0  0  0
  1 33  1  0  0  0
  2  3  1  0  0  0
  2 34  1  0  0  0
  3  4  2  0  0  0
  3 22  1  0  0  0
  4  5  1  0  0  0
  4 35  1  0  0  0
  5  6  2  0  0  0
  5 36  1  0  0  0
  6  7  1  0  0  0
  7  8  1  0  0  0
  7 37  1  0  0  0
  7 38  1  0  0  0
  8  9  1  0  0  0
  8 39  1  0  0  0
  8 40  1  0  0  0
  9 10  1  0  0  0
  9 41  1  0  0  0
 10 11  1  0  0  0
 10 42  1  0  0  0
 10 43  1  0  0  0
 11 32  1  0  0  0
 11 12  1  0  0  0
 11 21  1  0  0  0
 12 13  1  0  0  0
 12 44  1  0  0  0
 12 45  1  0  0  0
 13 14  1  0  0  0
 14 19  1  0  0  0
 14 15  2  0  0  0
 15 16  1  0  0  0
 15 46  1  0  0  0
 16 17  2  0  0  0
 16 47  1  0  0  0
 17 18  1  0  0  0
 17 20  1  0  0  0
 18 19  2  0  0  0
 18 48  1  0  0  0
 19 49  1  0  0  0
 20 50  1  0  0  0
 21 51  1  0  0  0
 22 23  1  0  0  0
 22 52  1  0  0  0
 23 28  1  0  0  0
 23 24  1  0  0  0
 23 53  1  0  0  0
 24 25  1  0  0  0
 24 54  1  0  0  0
 24 55  1  0  0  0
 25 26  1  0  0  0
 25 56  1  0  0  0
 25 57  1  0  0  0
 26 27  1  0  0  0
 26 29  1  0  0  0
 27 28  1  0  0  0
 27 58  1  0  0  0
 27 59  1  0  0  0
 28 60  1  0  0  0
 28 61  1  0  0  0
 29 30  2  0  0  0
 29 31  1  0  0  0
 31 62  1  0  0  0
 31 63  1  0  0  0
M  END
> <s_m_entry_id>
4524

> <s_m_entry_name>
ligand_docking-pose.31

> <s_m_Source_Path>
/home/csk/Desktop/cluster/DUD-E-result/adrb1

> <s_m_Source_File>
ligand_docking-pose.sdf

> <i_m_Source_File_Index>
31

> <i_lp_mmshare_version>
53161

> <r_lp_tautomer_probability>
1

> <s_lp_Force_Field>
OPLS_2005

> <r_lp_Energy>
49.994195

> <b_lp_Chiralities_Consistent>
1

> <s_lp_Variant>
172989-1

> <s_i_glide_gridfile>
glide-grid_2vt4

> <i_i_glide_lignum>
805

> <i_i_glide_rotatable_bonds>
13

> <r_i_docking_score>
-8.11425388551011

> <r_i_glide_ligand_efficiency>
-0.261750125339036

> <r_i_glide_ligand_efficiency_sa>
-0.822256778559863

> <r_i_glide_ligand_efficiency_ln>
-1.83001292319974

> <r_i_glide_gscore>
-8.11425388551011

> <r_i_glide_lipo>
-2.60071650540604

> <r_i_glide_hbond>
-1.38228489598866

> <r_i_glide_metal>
0

> <r_i_glide_rewards>
-0.348914034343611

> <r_i_glide_evdw>
-43.517406463623

> <r_i_glide_ecoul>
-17.8281192779541

> <r_i_glide_erotb>
1.08174564802148

> <r_i_glide_esite>
-0.0139958829190107

> <r_i_glide_emodel>
-86.4406299005082

> <r_i_glide_energy>
-61.3455257415771

> <r_i_glide_einternal>
9.65736198425293

> <i_i_glide_confnum>
38

> <i_i_glide_posenum>
73

> <r_i_glide_eff_state_penalty>
0

> <i_f3d_flags>
0

> <s_user_duplicate_titles>
172989

> <s_m_subgroup_title>
dock_pv

> <s_m_subgroupid>
dock_pv1

> <b_m_subgroup_collapsed>
0

$$$$
58615
                    3D
 Schrodinger Suite 2021-1.
 57 59  0  0  1  0            999 V2000
   29.8054    5.4501   -1.7270 C   0  0  0  0  0  0
   28.3263    5.4032   -2.1761 C   0  0  0  0  0  0
   27.7262    6.8295   -2.0884 C   0  0  0  0  0  0
   28.0891    4.8115   -3.6101 C   0  0  0  0  0  0
   29.3303    4.4261   -4.4150 C   0  0  0  0  0  0
   30.2082    5.4167   -4.8654 C   0  0  0  0  0  0
   31.3277    5.0706   -5.6147 C   0  0  0  0  0  0
   31.5500    3.7393   -5.9616 C   0  0  0  0  0  0
   30.6725    2.7429   -5.5111 C   0  0  0  0  0  0
   29.5650    3.0888   -4.7431 C   0  0  0  0  0  0
   32.6742    3.4644   -6.7562 N   0  0  0  0  0  0
   32.7503    2.5447   -7.7384 C   0  0  0  0  0  0
   31.8088    1.8372   -8.0925 O   0  0  0  0  0  0
   34.0838    2.4425   -8.4763 C   0  0  0  0  0  0
   34.4775    0.6315   -9.2140 Br  0  0  0  0  0  0
   27.7586    4.4671   -1.2040 N   0  0  1  0  0  0
   26.5013    4.7818   -0.5258 C   0  0  0  0  0  0
   26.1141    3.5819    0.3671 C   0  0  1  0  0  0
   25.4470    3.9784    1.6920 C   0  0  0  0  0  0
   24.1247    3.6186    1.9571 C   0  0  0  0  0  0
   23.5253    3.9435    3.1623 C   0  0  0  0  0  0
   24.2082    4.6500    4.1423 C   0  0  0  0  0  0
   25.5446    5.0747    3.9112 C   0  0  0  0  0  0
   26.1916    4.7031    2.6904 C   0  0  0  0  0  0
   27.5567    5.0891    2.5577 C   0  0  0  0  0  0
   28.1762    5.8308    3.5616 C   0  0  0  0  0  0
   27.4587    6.2128    4.6913 C   0  0  0  0  0  0
   26.1704    5.8334    4.8633 N   0  0  0  0  0  0
   28.1338    7.0002    5.5848 O   0  0  0  0  0  0
   23.5427    4.9876    5.2987 O   0  0  0  0  0  0
   25.3871    2.6500   -0.4149 O   0  0  0  0  0  0
   30.3866    6.1598   -2.3135 H   0  0  0  0  0  0
   29.8862    5.7498   -0.6806 H   0  0  0  0  0  0
   30.2911    4.4759   -1.8088 H   0  0  0  0  0  0
   28.2050    7.5056   -2.7970 H   0  0  0  0  0  0
   26.6615    6.8311   -2.3252 H   0  0  0  0  0  0
   27.8327    7.2617   -1.0943 H   0  0  0  0  0  0
   27.5430    5.5280   -4.2257 H   0  0  0  0  0  0
   27.4076    3.9580   -3.5855 H   0  0  0  0  0  0
   30.0230    6.4572   -4.6401 H   0  0  0  0  0  0
   31.9939    5.8498   -5.9575 H   0  0  0  0  0  0
   30.8374    1.7035   -5.7530 H   0  0  0  0  0  0
   28.8851    2.3157   -4.4151 H   0  0  0  0  0  0
   33.4504    4.1008   -6.6536 H   0  0  0  0  0  0
   34.9150    2.7167   -7.8259 H   0  0  0  0  0  0
   34.0739    3.1354   -9.3177 H   0  0  0  0  0  0
   27.7104    3.5391   -1.6163 H   0  0  0  0  0  0
   26.6629    5.6651    0.0912 H   0  0  0  0  0  0
   25.6962    5.0290   -1.2151 H   0  0  0  0  0  0
   27.0078    3.0504    0.6747 H   0  0  0  0  0  0
   23.5451    3.0730    1.2266 H   0  0  0  0  0  0
   22.5076    3.6519    3.3508 H   0  0  0  0  0  0
   28.1213    4.8224    1.6768 H   0  0  0  0  0  0
   29.2085    6.1301    3.4462 H   0  0  0  0  0  0
   27.5505    7.3589    6.2648 H   0  0  0  0  0  0
   24.0756    5.5437    5.8723 H   0  0  0  0  0  0
   24.7803    3.1260   -0.9994 H   0  0  0  0  0  0
  1  2  1  0  0  0
  1 32  1  0  0  0
  1 33  1  0  0  0
  1 34  1  0  0  0
  2  3  1  0  0  0
  2  4  1  0  0  0
  2 16  1  0  0  0
  3 35  1  0  0  0
  3 36  1  0  0  0
  3 37  1  0  0  0
  4  5  1  0  0  0
  4 38  1  0  0  0
  4 39  1  0  0  0
  5 10  1  0  0  0
  5  6  2  0  0  0
  6  7  1  0  0  0
  6 40  1  0  0  0
  7  8  2  0  0  0
  7 41  1  0  0  0
  8  9  1  0  0  0
  8 11  1  0  0  0
  9 10  2  0  0  0
  9 42  1  0  0  0
 10 43  1  0  0  0
 11 12  1  0  0  0
 11 44  1  0  0  0
 12 13  2  0  0  0
 12 14  1  0  0  0
 14 15  1  0  0  0
 14 45  1  0  0  0
 14 46  1  0  0  0
 16 17  1  0  0  0
 16 47  1  0  0  0
 17 18  1  0  0  0
 17 48  1  0  0  0
 17 49  1  0  0  0
 18 19  1  0  0  0
 18 31  1  0  0  0
 18 50  1  0  0  0
 19 24  1  0  0  0
 19 20  2  0  0  0
 20 21  1  0  0  0
 20 51  1  0  0  0
 21 22  2  0  0  0
 21 52  1  0  0  0
 22 23  1  0  0  0
 22 30  1  0  0  0
 23 28  2  0  0  0
 23 24  1  0  0  0
 24 25  2  0  0  0
 25 26  1  0  0  0
 25 53  1  0  0  0
 26 27  2  0  0  0
 26 54  1  0  0  0
 27 28  1  0  0  0
 27 29  1  0  0  0
 29 55  1  0  0  0
 30 56  1  0  0  0
 31 57  1  0  0  0
M  END
> <s_m_entry_id>
4533

> <s_m_entry_name>
ligand_docking-pose.40

> <s_m_Source_Path>
/home/csk/Desktop/cluster/DUD-E-result/adrb1

> <s_m_Source_File>
ligand_docking-pose.sdf

> <i_m_Source_File_Index>
40

> <i_lp_mmshare_version>
53161

> <r_lp_tautomer_probability>
1

> <s_lp_Force_Field>
OPLS_2005

> <r_lp_Energy>
28.326902

> <b_lp_Chiralities_Consistent>
1

> <s_lp_Variant>
58615-2

> <s_i_glide_gridfile>
glide-grid_2vt4

> <i_i_glide_lignum>
162

> <i_i_glide_rotatable_bonds>
12

> <r_i_docking_score>
-7.94226360993664

> <r_i_glide_ligand_efficiency>
-0.25620205193344

> <r_i_glide_ligand_efficiency_sa>
-0.804828168125427

> <r_i_glide_ligand_efficiency_ln>
-1.79122384518899

> <r_i_glide_gscore>
-7.94226360993664

> <r_i_glide_lipo>
-3.2178181881851

> <r_i_glide_hbond>
-0.80724099812145

> <r_i_glide_metal>
0

> <r_i_glide_rewards>
-0.912362726564667

> <r_i_glide_evdw>
-41.0583038330078

> <r_i_glide_ecoul>
-10.8935270309448

> <r_i_glide_erotb>
0.682102549226682

> <r_i_glide_esite>
0

> <r_i_glide_emodel>
-66.032166720617

> <r_i_glide_energy>
-51.9518308639526

> <r_i_glide_einternal>
19.0014705657959

> <i_i_glide_confnum>
280

> <i_i_glide_posenum>
185

> <r_i_glide_eff_state_penalty>
0

> <i_f3d_flags>
0

> <s_user_duplicate_titles>
58615

> <s_m_subgroup_title>
dock_pv

> <s_m_subgroupid>
dock_pv1

> <b_m_subgroup_collapsed>
0

$$$$
511937
                    3D
 Schrodinger Suite 2021-1.
 73 77  0  0  1  0            999 V2000
   32.7527    1.6462   -8.2278 C   0  0  0  0  0  0
   32.5838    2.6627   -7.3015 C   0  0  0  0  0  0
   33.6606    3.4793   -6.9370 C   0  0  0  0  0  0
   34.9111    3.2567   -7.5283 C   0  0  0  0  0  0
   35.0777    2.2354   -8.4667 C   0  0  0  0  0  0
   33.9967    1.4260   -8.8163 C   0  0  0  0  0  0
   36.6176    1.9799   -9.2026 Cl  0  0  0  0  0  0
   33.4764    4.6451   -5.9686 C   0  0  2  0  0  0
   32.2039    4.5114   -5.0800 C   0  0  0  0  0  0
   32.1832    5.4502   -3.9585 N   0  0  1  0  0  0
   30.8628    5.7821   -3.4107 C   0  0  1  0  0  0
   29.7118    6.0062   -4.4179 C   0  0  0  0  0  0
   28.4928    6.6703   -3.7585 C   0  0  0  0  0  0
   28.1205    6.0341   -2.4229 C   0  0  0  0  0  0
   26.8467    6.2501   -1.8884 C   0  0  0  0  0  0
   26.4820    5.7207   -0.6561 C   0  0  0  0  0  0
   27.4057    5.0039    0.0953 C   0  0  0  0  0  0
   28.6859    4.8013   -0.4220 C   0  0  0  0  0  0
   29.0453    5.2534   -1.6937 C   0  0  0  0  0  0
   30.3923    4.8373   -2.2932 C   0  0  0  0  0  0
   27.0170    4.4398    1.2884 O   0  0  0  0  0  0
   27.2602    5.1142    2.4620 C   0  0  0  0  0  0
   26.1870    5.2965    3.3259 C   0  0  0  0  0  0
   26.3106    6.0673    4.4858 C   0  0  0  0  0  0
   27.5606    6.6380    4.7856 C   0  0  0  0  0  0
   28.6734    6.4036    3.9652 C   0  0  0  0  0  0
   28.5191    5.6138    2.8182 C   0  0  0  0  0  0
   29.8874    7.0505    4.2668 N   0  0  0  0  0  0
   31.2075    6.4936    3.9573 C   0  0  0  0  0  0
   31.9134    7.1944    2.7872 C   0  0  0  0  0  0
   33.3157    6.5682    2.5724 C   0  0  0  0  0  0
   34.1894    6.6301    3.8439 C   0  0  0  0  0  0
   33.4738    6.0357    5.0710 C   0  0  0  0  0  0
   32.0682    6.6500    5.2383 C   0  0  0  0  0  0
   25.0980    6.2536    5.3611 C   0  0  0  0  0  0
   24.2076    5.4155    5.4398 O   0  0  0  0  0  0
   25.0079    7.4500    5.9850 O   0  0  0  0  0  0
   33.4079    5.8499   -6.7100 O   0  0  0  0  0  0
   34.3529    4.6744   -5.3171 H   0  0  0  0  0  0
   31.0210    6.7452   -2.9394 H   0  0  0  0  0  0
   31.8940    1.0500   -8.4688 H   0  0  0  0  0  0
   31.5953    2.8089   -6.8946 H   0  0  0  0  0  0
   35.7493    3.8909   -7.2738 H   0  0  0  0  0  0
   34.1217    0.6350   -9.5413 H   0  0  0  0  0  0
   32.1391    3.5037   -4.6650 H   0  0  0  0  0  0
   31.3415    4.6395   -5.7319 H   0  0  0  0  0  0
   32.7487    5.0554   -3.2185 H   0  0  0  0  0  0
   29.4164    5.0645   -4.8807 H   0  0  0  0  0  0
   30.0611    6.6479   -5.2266 H   0  0  0  0  0  0
   27.6296    6.6322   -4.4203 H   0  0  0  0  0  0
   28.7023    7.7299   -3.6129 H   0  0  0  0  0  0
   26.1161    6.8157   -2.4495 H   0  0  0  0  0  0
   25.4741    5.8503   -0.2980 H   0  0  0  0  0  0
   29.4105    4.2499    0.1498 H   0  0  0  0  0  0
   31.1609    4.7303   -1.5272 H   0  0  0  0  0  0
   30.2540    3.8414   -2.7192 H   0  0  0  0  0  0
   25.2323    4.8682    3.0517 H   0  0  0  0  0  0
   27.6872    7.2508    5.6659 H   0  0  0  0  0  0
   29.3578    5.4497    2.1620 H   0  0  0  0  0  0
   29.8697    7.9222    4.7757 H   0  0  0  0  0  0
   31.0980    5.4684    3.5908 H   0  0  0  0  0  0
   32.0302    8.2499    3.0121 H   0  0  0  0  0  0
   31.3306    7.1135    1.8720 H   0  0  0  0  0  0
   33.8489    7.0500    1.7561 H   0  0  0  0  0  0
   33.1997    5.5327    2.2607 H   0  0  0  0  0  0
   34.4488    7.6705    4.0491 H   0  0  0  0  0  0
   35.1322    6.1099    3.6732 H   0  0  0  0  0  0
   34.0655    6.2079    5.9706 H   0  0  0  0  0  0
   33.4071    4.9524    4.9613 H   0  0  0  0  0  0
   31.5703    6.2500    6.1151 H   0  0  0  0  0  0
   32.1803    7.7071    5.4754 H   0  0  0  0  0  0
   25.8487    7.9070    6.1018 H   0  0  0  0  0  0
   34.2702    6.2964   -6.7043 H   0  0  0  0  0  0
  1  6  1  0  0  0
  1  2  2  0  0  0
  1 41  1  0  0  0
  2  3  1  0  0  0
  2 42  1  0  0  0
  3  4  2  0  0  0
  3  8  1  0  0  0
  4  5  1  0  0  0
  4 43  1  0  0  0
  5  6  2  0  0  0
  5  7  1  0  0  0
  6 44  1  0  0  0
  8 39  1  0  0  0
  8  9  1  0  0  0
  8 38  1  0  0  0
  9 10  1  0  0  0
  9 45  1  0  0  0
  9 46  1  0  0  0
 10 11  1  0  0  0
 10 47  1  0  0  0
 11 40  1  0  0  0
 11 20  1  0  0  0
 11 12  1  0  0  0
 12 13  1  0  0  0
 12 48  1  0  0  0
 12 49  1  0  0  0
 13 14  1  0  0  0
 13 50  1  0  0  0
 13 51  1  0  0  0
 14 19  2  0  0  0
 14 15  1  0  0  0
 15 16  2  0  0  0
 15 52  1  0  0  0
 16 17  1  0  0  0
 16 53  1  0  0  0
 17 18  2  0  0  0
 17 21  1  0  0  0
 18 19  1  0  0  0
 18 54  1  0  0  0
 19 20  1  0  0  0
 20 55  1  0  0  0
 20 56  1  0  0  0
 21 22  1  0  0  0
 22 27  1  0  0  0
 22 23  2  0  0  0
 23 24  1  0  0  0
 23 57  1  0  0  0
 24 25  2  0  0  0
 24 35  1  0  0  0
 25 26  1  0  0  0
 25 58  1  0  0  0
 26 27  2  0  0  0
 26 28  1  0  0  0
 27 59  1  0  0  0
 28 29  1  0  0  0
 28 60  1  0  0  0
 29 34  1  0  0  0
 29 30  1  0  0  0
 29 61  1  0  0  0
 30 31  1  0  0  0
 30 62  1  0  0  0
 30 63  1  0  0  0
 31 32  1  0  0  0
 31 64  1  0  0  0
 31 65  1  0  0  0
 32 33  1  0  0  0
 32 66  1  0  0  0
 32 67  1  0  0  0
 33 34  1  0  0  0
 33 68  1  0  0  0
 33 69  1  0  0  0
 34 70  1  0  0  0
 34 71  1  0  0  0
 35 36  2  0  0  0
 35 37  1  0  0  0
 37 72  1  0  0  0
 38 73  1  0  0  0
M  END
> <s_m_entry_id>
4549

> <s_m_entry_name>
ligand_docking-pose.56

> <s_m_Source_Path>
/home/csk/Desktop/cluster/DUD-E-result/adrb1

> <s_m_Source_File>
ligand_docking-pose.sdf

> <i_m_Source_File_Index>
56

> <i_lp_mmshare_version>
53161

> <r_lp_tautomer_probability>
1

> <s_lp_Force_Field>
OPLS_2005

> <r_lp_Energy>
35.124708

> <b_lp_Chiralities_Consistent>
1

> <s_lp_Variant>
511937-1

> <s_i_glide_gridfile>
glide-grid_2vt4

> <i_i_glide_lignum>
435

> <i_i_glide_rotatable_bonds>
11

> <r_i_docking_score>
-7.68519612513555

> <r_i_glide_ligand_efficiency>
-0.202242003293041

> <r_i_glide_ligand_efficiency_sa>
-0.67993264046852

> <r_i_glide_ligand_efficiency_ln>
-1.65715436014432

> <r_i_glide_gscore>
-7.68519612513555

> <r_i_glide_lipo>
-3.57485119452926

> <r_i_glide_hbond>
-0.153683567322191

> <r_i_glide_metal>
0

> <r_i_glide_rewards>
-0.721107280638457

> <r_i_glide_evdw>
-49.184268951416

> <r_i_glide_ecoul>
-9.02088165283203

> <r_i_glide_erotb>
0.57679161284996

> <r_i_glide_esite>
0

> <r_i_glide_emodel>
-68.4799465001139

> <r_i_glide_energy>
-58.205150604248

> <r_i_glide_einternal>
19.7092876434326

> <i_i_glide_confnum>
30

> <i_i_glide_posenum>
331

> <r_i_glide_eff_state_penalty>
0

> <i_f3d_flags>
0

> <s_user_duplicate_titles>
511937

> <s_m_subgroup_title>
dock_pv

> <s_m_subgroupid>
dock_pv1

> <b_m_subgroup_collapsed>
0

$$$$
62146
                    3D
 Schrodinger Suite 2021-1.
 56 58  0  0  1  0            999 V2000
   35.9721    3.0562   -3.9231 C   0  0  0  0  0  0
   36.5155    3.8641   -2.9310 C   0  0  0  0  0  0
   35.6829    4.6566   -2.1396 C   0  0  0  0  0  0
   34.2928    4.6289   -2.3414 C   0  0  0  0  0  0
   33.7387    3.8394   -3.3634 C   0  0  0  0  0  0
   34.5984    3.0500   -4.1403 C   0  0  0  0  0  0
   32.3661    3.8533   -3.5375 O   0  0  0  0  0  0
   31.7874    3.5862   -4.8238 C   0  0  0  0  0  0
   30.9596    4.8038   -5.2924 C   0  0  1  0  0  0
   29.9001    5.2689   -4.2720 C   0  0  0  0  0  0
   28.7752    4.3375   -4.2705 N   0  0  2  0  0  0
   28.1098    4.2264   -2.9807 C   0  0  0  0  0  0
   27.4527    5.5155   -2.4528 C   0  0  0  0  0  0
   26.8261    5.2848   -1.1485 N   0  0  0  0  0  0
   27.4947    5.0500   -0.0055 C   0  0  0  0  0  0
   28.7236    5.0502    0.0746 O   0  0  0  0  0  0
   26.6485    4.8392    1.2205 C   0  0  0  0  0  0
   25.4792    4.0680    1.1832 C   0  0  0  0  0  0
   24.6751    3.9638    2.3176 C   0  0  0  0  0  0
   25.0073    4.6514    3.4884 C   0  0  0  0  0  0
   26.2060    5.3848    3.5535 C   0  0  0  0  0  0
   27.0255    5.4501    2.4218 C   0  0  0  0  0  0
   26.6790    6.3265    5.0124 S   0  0  0  0  0  0
   26.6071    5.4503    6.1831 O   0  0  0  0  0  0
   27.9194    7.0494    4.7175 O   0  0  0  0  0  0
   25.4291    7.5226    5.1849 N   0  0  0  0  0  0
   23.8531    4.6500    4.7849 Cl  0  0  0  0  0  0
   31.8647    5.8490   -5.5672 O   0  0  0  0  0  0
   33.2654    5.6868   -1.3604 S   0  0  0  0  0  0
   34.2555    5.6539    0.1737 C   0  0  0  0  0  0
   35.7304    6.0365   -0.0698 C   0  0  0  0  0  0
   36.3970    6.7169    0.7060 O   0  0  0  0  0  0
   36.2731    5.4647   -1.1623 N   0  0  0  0  0  0
   36.6094    2.4331   -4.5303 H   0  0  0  0  0  0
   37.5872    3.8556   -2.7771 H   0  0  0  0  0  0
   34.2213    2.3996   -4.9108 H   0  0  0  0  0  0
   32.4991    3.3355   -5.6091 H   0  0  0  0  0  0
   31.1373    2.7177   -4.7097 H   0  0  0  0  0  0
   30.4777    4.5703   -6.2439 H   0  0  0  0  0  0
   30.3543    5.3578   -3.2823 H   0  0  0  0  0  0
   29.5148    6.2534   -4.5436 H   0  0  0  0  0  0
   29.0680    3.4129   -4.5561 H   0  0  0  0  0  0
   27.3469    3.4514   -3.0841 H   0  0  0  0  0  0
   28.8353    3.8499   -2.2591 H   0  0  0  0  0  0
   28.1829    6.3214   -2.3583 H   0  0  0  0  0  0
   26.6781    5.8495   -3.1436 H   0  0  0  0  0  0
   25.8200    5.1977   -1.1538 H   0  0  0  0  0  0
   25.1717    3.5683    0.2731 H   0  0  0  0  0  0
   23.7562    3.3974    2.2661 H   0  0  0  0  0  0
   27.9362    6.0301    2.4591 H   0  0  0  0  0  0
   24.5795    7.1199    5.5886 H   0  0  0  0  0  0
   25.7650    8.2500    5.8283 H   0  0  0  0  0  0
   31.4076    6.6220   -5.9272 H   0  0  0  0  0  0
   34.2081    4.6500    0.5892 H   0  0  0  0  0  0
   33.8093    6.3507    0.8809 H   0  0  0  0  0  0
   37.2649    5.6295   -1.2372 H   0  0  0  0  0  0
  1  6  1  0  0  0
  1  2  2  0  0  0
  1 34  1  0  0  0
  2  3  1  0  0  0
  2 35  1  0  0  0
  3 33  1  0  0  0
  3  4  2  0  0  0
  4  5  1  0  0  0
  4 29  1  0  0  0
  5  6  2  0  0  0
  5  7  1  0  0  0
  6 36  1  0  0  0
  7  8  1  0  0  0
  8  9  1  0  0  0
  8 37  1  0  0  0
  8 38  1  0  0  0
  9 10  1  0  0  0
  9 28  1  0  0  0
  9 39  1  0  0  0
 10 11  1  0  0  0
 10 40  1  0  0  0
 10 41  1  0  0  0
 11 12  1  0  0  0
 11 42  1  0  0  0
 12 13  1  0  0  0
 12 43  1  0  0  0
 12 44  1  0  0  0
 13 14  1  0  0  0
 13 45  1  0  0  0
 13 46  1  0  0  0
 14 15  1  0  0  0
 14 47  1  0  0  0
 15 16  2  0  0  0
 15 17  1  0  0  0
 17 22  1  0  0  0
 17 18  2  0  0  0
 18 19  1  0  0  0
 18 48  1  0  0  0
 19 20  2  0  0  0
 19 49  1  0  0  0
 20 21  1  0  0  0
 20 27  1  0  0  0
 21 22  2  0  0  0
 21 23  1  0  0  0
 22 50  1  0  0  0
 23 24  2  0  0  0
 23 25  2  0  0  0
 23 26  1  0  0  0
 26 51  1  0  0  0
 26 52  1  0  0  0
 28 53  1  0  0  0
 29 30  1  0  0  0
 30 31  1  0  0  0
 30 54  1  0  0  0
 30 55  1  0  0  0
 31 32  2  0  0  0
 31 33  1  0  0  0
 33 56  1  0  0  0
M  END
> <s_m_entry_id>
4574

> <s_m_entry_name>
ligand_docking-pose.81

> <s_m_Source_Path>
/home/csk/Desktop/cluster/DUD-E-result/adrb1

> <s_m_Source_File>
ligand_docking-pose.sdf

> <i_m_Source_File_Index>
81

> <i_lp_mmshare_version>
53161

> <r_lp_tautomer_probability>
1

> <s_lp_Force_Field>
OPLS_2005

> <r_lp_Energy>
46.503238

> <b_lp_Chiralities_Consistent>
1

> <s_lp_Variant>
62146-2

> <s_i_glide_gridfile>
glide-grid_2vt4

> <i_i_glide_lignum>
186

> <i_i_glide_rotatable_bonds>
12

> <r_i_docking_score>
-7.38005700707428

> <r_i_glide_ligand_efficiency>
-0.223638091123463

> <r_i_glide_ligand_efficiency_sa>
-0.717326853937196

> <r_i_glide_ligand_efficiency_ln>
-1.64128646648319

> <r_i_glide_gscore>
-7.38005700707428

> <r_i_glide_lipo>
-2.53371588412953

> <r_i_glide_hbond>
-0.304408638163545

> <r_i_glide_metal>
0

> <r_i_glide_rewards>
-0.715179216998583

> <r_i_glide_evdw>
-48.3958320617676

> <r_i_glide_ecoul>
-13.6393032073975

> <r_i_glide_erotb>
0.696176317611862

> <r_i_glide_esite>
-0.0572425011964864

> <r_i_glide_emodel>
-83.6236449325472

> <r_i_glide_energy>
-62.035135269165

> <r_i_glide_einternal>
10.2169561386108

> <i_i_glide_confnum>
89

> <i_i_glide_posenum>
38

> <r_i_glide_eff_state_penalty>
0

> <i_f3d_flags>
0

> <s_user_duplicate_titles>
62146

> <s_m_subgroup_title>
dock_pv

> <s_m_subgroupid>
dock_pv1

> <b_m_subgroup_collapsed>
0

$$$$
545224
                    3D
 Schrodinger Suite 2021-1.
 56 58  0  0  1  0            999 V2000
   31.1618    4.9627   -4.6040 C   0  0  0  0  0  0
   31.3395    4.3511   -3.2034 C   0  0  0  0  0  0
   32.6498    3.8202   -3.0083 O   0  0  0  0  0  0
   33.7018    4.6226   -2.7308 C   0  0  0  0  0  0
   33.6574    5.8498   -2.6208 O   0  0  0  0  0  0
   34.9968    3.8154   -2.5455 C   0  0  0  0  0  0
   36.2882    4.6257   -2.2435 C   0  0  0  0  0  0
   36.3653    5.3841   -0.9148 C   0  0  0  0  0  0
   37.4328    6.2543   -0.6990 C   0  0  0  0  0  0
   37.5193    6.9837    0.4855 C   0  0  0  0  0  0
   36.5431    6.8733    1.4816 C   0  0  0  0  0  0
   35.4728    5.9745    1.2805 C   0  0  0  0  0  0
   35.4092    5.2381    0.0938 C   0  0  0  0  0  0
   34.3753    5.8143    2.3262 C   0  0  0  0  0  0
   34.1598    7.1160    3.1244 C   0  0  2  0  0  0
   35.5099    7.4902    3.7647 C   0  0  0  0  0  0
   36.6081    7.7772    2.7171 C   0  0  0  0  0  0
   33.0998    7.0500    4.1270 N   0  0  2  0  0  0
   31.7670    6.8588    3.5465 C   0  0  0  0  0  0
   30.6465    6.9218    4.6225 C   0  0  2  0  0  0
   29.2521    6.4401    4.1592 C   0  0  0  0  0  0
   29.1013    5.4807    3.1434 C   0  0  0  0  0  0
   27.8371    5.0499    2.7438 C   0  0  0  0  0  0
   26.6985    5.5380    3.3732 C   0  0  0  0  0  0
   26.8251    6.4655    4.4015 C   0  0  0  0  0  0
   28.0895    6.9147    4.7912 C   0  0  0  0  0  0
   25.4080    7.0502    5.1850 Cl  0  0  0  0  0  0
   30.6077    8.2257    5.1849 O   0  0  0  0  0  0
   30.1346    5.2985   -4.7496 H   0  0  0  0  0  0
   31.3871    4.2336   -5.3833 H   0  0  0  0  0  0
   31.8116    5.8253   -4.7534 H   0  0  0  0  0  0
   31.1023    5.0848   -2.4304 H   0  0  0  0  0  0
   30.6281    3.5338   -3.0788 H   0  0  0  0  0  0
   34.8459    3.0538   -1.7797 H   0  0  0  0  0  0
   35.1516    3.2750   -3.4797 H   0  0  0  0  0  0
   37.1383    3.9414   -2.2740 H   0  0  0  0  0  0
   36.4561    5.3376   -3.0556 H   0  0  0  0  0  0
   38.1926    6.3781   -1.4581 H   0  0  0  0  0  0
   38.3446    7.6682    0.6153 H   0  0  0  0  0  0
   34.5856    4.5536   -0.0383 H   0  0  0  0  0  0
   33.4517    5.4520    1.8758 H   0  0  0  0  0  0
   34.6817    5.0248    3.0142 H   0  0  0  0  0  0
   33.8813    7.8955    2.4136 H   0  0  0  0  0  0
   35.8287    6.6914    4.4364 H   0  0  0  0  0  0
   35.3931    8.3709    4.3980 H   0  0  0  0  0  0
   37.5919    7.7020    3.1817 H   0  0  0  0  0  0
   36.5153    8.8116    2.3853 H   0  0  0  0  0  0
   33.1027    7.9498    4.6003 H   0  0  0  0  0  0
   31.5686    7.5855    2.7560 H   0  0  0  0  0  0
   31.7652    5.8694    3.0971 H   0  0  0  0  0  0
   30.9416    6.2528    5.4283 H   0  0  0  0  0  0
   29.9537    5.0460    2.6448 H   0  0  0  0  0  0
   27.7365    4.3238    1.9519 H   0  0  0  0  0  0
   25.7214    5.1928    3.0662 H   0  0  0  0  0  0
   28.1594    7.6397    5.5893 H   0  0  0  0  0  0
   31.4286    8.6970    4.9690 H   0  0  0  0  0  0
  1  2  1  0  0  0
  1 29  1  0  0  0
  1 30  1  0  0  0
  1 31  1  0  0  0
  2  3  1  0  0  0
  2 32  1  0  0  0
  2 33  1  0  0  0
  3  4  1  0  0  0
  4  5  2  0  0  0
  4  6  1  0  0  0
  6  7  1  0  0  0
  6 34  1  0  0  0
  6 35  1  0  0  0
  7  8  1  0  0  0
  7 36  1  0  0  0
  7 37  1  0  0  0
  8 13  1  0  0  0
  8  9  2  0  0  0
  9 10  1  0  0  0
  9 38  1  0  0  0
 10 11  2  0  0  0
 10 39  1  0  0  0
 11 17  1  0  0  0
 11 12  1  0  0  0
 12 13  2  0  0  0
 12 14  1  0  0  0
 13 40  1  0  0  0
 14 15  1  0  0  0
 14 41  1  0  0  0
 14 42  1  0  0  0
 15 16  1  0  0  0
 15 18  1  0  0  0
 15 43  1  0  0  0
 16 17  1  0  0  0
 16 44  1  0  0  0
 16 45  1  0  0  0
 17 46  1  0  0  0
 17 47  1  0  0  0
 18 19  1  0  0  0
 18 48  1  0  0  0
 19 20  1  0  0  0
 19 49  1  0  0  0
 19 50  1  0  0  0
 20 21  1  0  0  0
 20 28  1  0  0  0
 20 51  1  0  0  0
 21 26  1  0  0  0
 21 22  2  0  0  0
 22 23  1  0  0  0
 22 52  1  0  0  0
 23 24  2  0  0  0
 23 53  1  0  0  0
 24 25  1  0  0  0
 24 54  1  0  0  0
 25 26  2  0  0  0
 25 27  1  0  0  0
 26 55  1  0  0  0
 28 56  1  0  0  0
M  END
> <s_m_entry_id>
4576

> <s_m_entry_name>
ligand_docking-pose.83

> <s_m_Source_Path>
/home/csk/Desktop/cluster/DUD-E-result/adrb1

> <s_m_Source_File>
ligand_docking-pose.sdf

> <i_m_Source_File_Index>
83

> <i_lp_mmshare_version>
53161

> <r_lp_tautomer_probability>
1

> <s_lp_Force_Field>
OPLS_2005

> <r_lp_Energy>
26.13585

> <b_lp_Chiralities_Consistent>
1

> <s_lp_Variant>
545224-2

> <s_i_glide_gridfile>
glide-grid_2vt4

> <i_i_glide_lignum>
292

> <i_i_glide_rotatable_bonds>
10

> <r_i_docking_score>
-7.3584074121394

> <r_i_glide_ligand_efficiency>
-0.262800264719264

> <r_i_glide_ligand_efficiency_sa>
-0.798016384766138

> <r_i_glide_ligand_efficiency_ln>
-1.69853648295145

> <r_i_glide_gscore>
-7.3584074121394

> <r_i_glide_lipo>
-2.61006210612436

> <r_i_glide_hbond>
-0.746755891559453

> <r_i_glide_metal>
0

> <r_i_glide_rewards>
-1.16968423362505

> <r_i_glide_evdw>
-39.5078659057617

> <r_i_glide_ecoul>
-11.3775205612183

> <r_i_glide_erotb>
0.850116198640279

> <r_i_glide_esite>
0

> <r_i_glide_emodel>
-69.2306280398822

> <r_i_glide_energy>
-50.88538646698

> <r_i_glide_einternal>
6.66159725189209

> <i_i_glide_confnum>
77

> <i_i_glide_posenum>
326

> <r_i_glide_eff_state_penalty>
0

> <i_f3d_flags>
0

> <s_user_duplicate_titles>
545224

> <s_m_subgroup_title>
dock_pv

> <s_m_subgroupid>
dock_pv1

> <b_m_subgroup_collapsed>
0

$$$$
260844
                    3D
 Schrodinger Suite 2021-1.
 65 67  0  0  1  0            999 V2000
   26.8724    6.6160   -0.2497 C   0  0  0  0  0  0
   27.4535    5.5551   -1.2012 C   0  0  2  0  0  0
   28.9422    5.3235   -0.8236 C   0  0  0  0  0  0
   29.7204    4.4670   -1.8386 C   0  0  0  0  0  0
   29.7071    5.1176   -3.2468 C   0  0  2  0  0  0
   28.2125    5.3051   -3.6574 C   0  0  0  0  0  0
   27.4230    6.1543   -2.6376 C   0  0  0  0  0  0
   30.5837    4.3674   -4.3180 C   0  0  0  0  0  0
   30.7964    5.3183   -5.5257 C   0  0  0  0  0  0
   31.9902    4.0222   -3.7579 C   0  0  0  0  0  0
   29.8802    3.1409   -4.7261 N   0  0  0  0  0  0
   30.2180    2.2452   -5.6687 C   0  0  0  0  0  0
   31.2464    2.2987   -6.3400 O   0  0  0  0  0  0
   29.2127    1.1342   -5.9305 C   0  0  0  0  0  0
   28.2080    1.4501   -7.6153 Br  0  0  0  0  0  0
   26.6080    4.3670   -1.1326 N   0  0  2  0  0  0
   26.8227    3.3800   -0.0780 C   0  0  0  0  0  0
   25.5243    2.7933    0.5316 C   0  0  1  0  0  0
   24.7604    3.7750    1.4096 C   0  0  0  0  0  0
   25.7583    4.2499    2.2928 O   0  0  0  0  0  0
   25.4380    4.7498    3.5162 C   0  0  0  0  0  0
   24.2080    4.6500    4.1604 C   0  0  0  0  0  0
   23.9919    5.2926    5.3744 C   0  0  0  0  0  0
   24.9913    6.0393    5.9913 C   0  0  0  0  0  0
   26.2442    6.0640    5.3742 C   0  0  0  0  0  0
   26.4891    5.4344    4.1287 C   0  0  0  0  0  0
   27.8511    5.7065    3.7748 C   0  0  0  0  0  0
   28.3876    6.4810    4.7783 C   0  0  0  0  0  0
   27.4295    6.6500    5.7439 N   0  0  0  0  0  0
   29.7119    7.0500    4.9318 C   0  0  0  0  0  0
   30.7731    7.4784    5.0633 N   0  0  0  0  0  0
   24.6477    2.2500   -0.4150 O   0  0  0  0  0  0
   27.5648    7.2446    6.5535 H   0  0  0  0  0  0
   27.3280    7.5911   -0.4150 H   0  0  0  0  0  0
   25.8080    6.7439   -0.4274 H   0  0  0  0  0  0
   26.9883    6.3407    0.7989 H   0  0  0  0  0  0
   29.4080    6.2937   -0.8020 H   0  0  0  0  0  0
   29.0692    4.9062    0.1736 H   0  0  0  0  0  0
   29.3388    3.4502   -1.8775 H   0  0  0  0  0  0
   30.7414    4.3628   -1.4737 H   0  0  0  0  0  0
   30.1258    6.1182   -3.1175 H   0  0  0  0  0  0
   27.7205    4.3427   -3.8065 H   0  0  0  0  0  0
   28.1507    5.7957   -4.6264 H   0  0  0  0  0  0
   26.3929    6.2501   -2.9872 H   0  0  0  0  0  0
   27.8495    7.1589   -2.6437 H   0  0  0  0  0  0
   31.2692    6.2500   -5.2150 H   0  0  0  0  0  0
   31.4449    4.8805   -6.2848 H   0  0  0  0  0  0
   29.8633    5.5819   -6.0180 H   0  0  0  0  0  0
   32.4630    4.8914   -3.2999 H   0  0  0  0  0  0
   31.9491    3.2311   -3.0087 H   0  0  0  0  0  0
   32.6639    3.6697   -4.5401 H   0  0  0  0  0  0
   29.0326    2.9588   -4.2079 H   0  0  0  0  0  0
   29.7276    0.1779   -6.0135 H   0  0  0  0  0  0
   28.4839    1.0500   -5.1227 H   0  0  0  0  0  0
   26.3585    3.9967   -2.0472 H   0  0  0  0  0  0
   27.3803    3.8500    0.7273 H   0  0  0  0  0  0
   27.4684    2.5779   -0.4150 H   0  0  0  0  0  0
   25.8080    1.9575    1.1702 H   0  0  0  0  0  0
   23.9411    3.2481    1.8987 H   0  0  0  0  0  0
   24.3473    4.5984    0.8248 H   0  0  0  0  0  0
   23.3654    4.1665    3.6925 H   0  0  0  0  0  0
   23.0081    5.2333    5.8086 H   0  0  0  0  0  0
   24.7923    6.5737    6.8986 H   0  0  0  0  0  0
   28.3708    5.3853    2.8835 H   0  0  0  0  0  0
   24.2716    2.9514   -0.9752 H   0  0  0  0  0  0
  1  2  1  0  0  0
  1 34  1  0  0  0
  1 35  1  0  0  0
  1 36  1  0  0  0
  2  7  1  0  0  0
  2  3  1  0  0  0
  2 16  1  0  0  0
  3  4  1  0  0  0
  3 37  1  0  0  0
  3 38  1  0  0  0
  4  5  1  0  0  0
  4 39  1  0  0  0
  4 40  1  0  0  0
  5  6  1  0  0  0
  5  8  1  0  0  0
  5 41  1  0  0  0
  6  7  1  0  0  0
  6 42  1  0  0  0
  6 43  1  0  0  0
  7 44  1  0  0  0
  7 45  1  0  0  0
  8  9  1  0  0  0
  8 10  1  0  0  0
  8 11  1  0  0  0
  9 46  1  0  0  0
  9 47  1  0  0  0
  9 48  1  0  0  0
 10 49  1  0  0  0
 10 50  1  0  0  0
 10 51  1  0  0  0
 11 12  1  0  0  0
 11 52  1  0  0  0
 12 13  2  0  0  0
 12 14  1  0  0  0
 14 15  1  0  0  0
 14 53  1  0  0  0
 14 54  1  0  0  0
 16 17  1  0  0  0
 16 55  1  0  0  0
 17 18  1  0  0  0
 17 56  1  0  0  0
 17 57  1  0  0  0
 18 19  1  0  0  0
 18 32  1  0  0  0
 18 58  1  0  0  0
 19 20  1  0  0  0
 19 59  1  0  0  0
 19 60  1  0  0  0
 20 21  1  0  0  0
 21 26  1  0  0  0
 21 22  2  0  0  0
 22 23  1  0  0  0
 22 61  1  0  0  0
 23 24  2  0  0  0
 23 62  1  0  0  0
 24 25  1  0  0  0
 24 63  1  0  0  0
 25 29  1  0  0  0
 25 26  2  0  0  0
 26 27  1  0  0  0
 27 28  2  0  0  0
 27 64  1  0  0  0
 28 29  1  0  0  0
 28 30  1  0  0  0
 29 33  1  0  0  0
 30 31  3  0  0  0
 32 65  1  0  0  0
M  END
> <s_m_entry_id>
4581

> <s_m_entry_name>
ligand_docking-pose.88

> <s_m_Source_Path>
/home/csk/Desktop/cluster/DUD-E-result/adrb1

> <s_m_Source_File>
ligand_docking-pose.sdf

> <i_m_Source_File_Index>
88

> <i_lp_mmshare_version>
53161

> <r_lp_tautomer_probability>
1

> <s_lp_Force_Field>
OPLS_2005

> <r_lp_Energy>
29.793275

> <b_lp_Chiralities_Consistent>
1

> <s_lp_Variant>
260844-4

> <s_i_glide_gridfile>
glide-grid_2vt4

> <i_i_glide_lignum>
28

> <i_i_glide_rotatable_bonds>
11

> <r_i_docking_score>
-7.29870884096659

> <r_i_glide_ligand_efficiency>
-0.228084651280206

> <r_i_glide_ligand_efficiency_sa>
-0.724123629923457

> <r_i_glide_ligand_efficiency_ln>
-1.63437986478125

> <r_i_glide_gscore>
-7.29870884096659

> <r_i_glide_lipo>
-3.17738317109915

> <r_i_glide_hbond>
-0.62778202524167

> <r_i_glide_metal>
0

> <r_i_glide_rewards>
-0.734852588010325

> <r_i_glide_evdw>
-39.7742080688477

> <r_i_glide_ecoul>
-9.93677616119385

> <r_i_glide_erotb>
0.720535771006021

> <r_i_glide_esite>
0

> <r_i_glide_emodel>
-64.1862329838298

> <r_i_glide_energy>
-49.7109842300415

> <r_i_glide_einternal>
11.2188205718994

> <i_i_glide_confnum>
277

> <i_i_glide_posenum>
97

> <r_i_glide_eff_state_penalty>
0

> <i_f3d_flags>
0

> <s_user_duplicate_titles>
260844

> <s_m_subgroup_title>
dock_pv

> <s_m_subgroupid>
dock_pv1

> <b_m_subgroup_collapsed>
0

$$$$
474656
                    3D
 Schrodinger Suite 2021-1.
 50 52  0  0  1  0            999 V2000
   32.1115    3.1367   -4.2373 C   0  0  0  0  0  0
   31.4112    4.3907   -3.6595 C   0  0  0  0  0  0
   32.2388    4.9590   -2.4563 C   0  0  0  0  0  0
   33.5335    5.4098   -2.8156 O   0  0  0  0  0  0
   31.2473    5.4378   -4.8080 C   0  0  0  0  0  0
   30.6288    6.6500   -4.4147 O   0  0  0  0  0  0
   30.0792    3.9103   -3.2496 N   0  0  2  0  0  0
   29.3273    4.7085   -2.2774 C   0  0  0  0  0  0
   27.8027    4.5959   -2.4815 C   0  0  1  0  0  0
   27.0283    4.9791   -1.2054 C   0  0  0  0  0  0
   27.0686    3.8766   -0.3048 O   0  0  0  0  0  0
   26.1716    3.9605    0.7277 C   0  0  0  0  0  0
   24.9236    3.3565    0.5983 C   0  0  0  0  0  0
   23.9869    3.4701    1.6228 C   0  0  0  0  0  0
   24.2821    4.1740    2.7853 C   0  0  0  0  0  0
   25.5287    4.7862    2.9339 C   0  0  0  0  0  0
   26.4756    4.6620    1.8992 C   0  0  0  0  0  0
   27.7337    5.2240    1.9862 O   0  0  0  0  0  0
   28.1497    5.7796    3.1759 C   0  0  0  0  0  0
   29.5032    6.0864    3.2858 C   0  0  0  0  0  0
   29.9723    6.7150    4.4358 C   0  0  0  0  0  0
   29.0875    7.0166    5.4718 C   0  0  0  0  0  0
   27.7508    6.6501    5.3880 C   0  0  0  0  0  0
   27.2662    6.0274    4.2380 C   0  0  0  0  0  0
   25.8524    5.6009    4.1320 C   0  0  0  0  0  0
   25.0267    5.8480    5.0159 O   0  0  0  0  0  0
   31.6540    7.0500    4.6096 Cl  0  0  0  0  0  0
   27.4080    5.4507   -3.5360 O   0  0  0  0  0  0
   33.0976    3.3726   -4.6367 H   0  0  0  0  0  0
   32.2412    2.3605   -3.4806 H   0  0  0  0  0  0
   31.5355    2.6936   -5.0524 H   0  0  0  0  0  0
   32.3189    4.2168   -1.6610 H   0  0  0  0  0  0
   31.7339    5.8053   -1.9936 H   0  0  0  0  0  0
   34.1007    4.6505   -2.9738 H   0  0  0  0  0  0
   32.2119    5.6755   -5.2598 H   0  0  0  0  0  0
   30.6250    5.0276   -5.6070 H   0  0  0  0  0  0
   30.7579    7.2972   -5.1247 H   0  0  0  0  0  0
   30.0783    2.9335   -2.9841 H   0  0  0  0  0  0
   29.5969    4.3431   -1.2852 H   0  0  0  0  0  0
   29.5975    5.7634   -2.2949 H   0  0  0  0  0  0
   27.5167    3.5811   -2.7616 H   0  0  0  0  0  0
   27.4494    5.8757   -0.7442 H   0  0  0  0  0  0
   25.9936    5.2286   -1.4465 H   0  0  0  0  0  0
   24.6771    2.8302   -0.3126 H   0  0  0  0  0  0
   23.0082    3.0502    1.5068 H   0  0  0  0  0  0
   23.5237    4.2556    3.5532 H   0  0  0  0  0  0
   30.1835    5.8489    2.4816 H   0  0  0  0  0  0
   29.4308    7.4532    6.3852 H   0  0  0  0  0  0
   27.0966    6.8488    6.2255 H   0  0  0  0  0  0
   26.4659    5.2862   -3.6860 H   0  0  0  0  0  0
  1  2  1  0  0  0
  1 29  1  0  0  0
  1 30  1  0  0  0
  1 31  1  0  0  0
  2  3  1  0  0  0
  2  5  1  0  0  0
  2  7  1  0  0  0
  3  4  1  0  0  0
  3 32  1  0  0  0
  3 33  1  0  0  0
  4 34  1  0  0  0
  5  6  1  0  0  0
  5 35  1  0  0  0
  5 36  1  0  0  0
  6 37  1  0  0  0
  7  8  1  0  0  0
  7 38  1  0  0  0
  8  9  1  0  0  0
  8 39  1  0  0  0
  8 40  1  0  0  0
  9 10  1  0  0  0
  9 28  1  0  0  0
  9 41  1  0  0  0
 10 11  1  0  0  0
 10 42  1  0  0  0
 10 43  1  0  0  0
 11 12  1  0  0  0
 12 17  1  0  0  0
 12 13  2  0  0  0
 13 14  1  0  0  0
 13 44  1  0  0  0
 14 15  2  0  0  0
 14 45  1  0  0  0
 15 16  1  0  0  0
 15 46  1  0  0  0
 16 25  1  0  0  0
 16 17  2  0  0  0
 17 18  1  0  0  0
 18 19  1  0  0  0
 19 24  2  0  0  0
 19 20  1  0  0  0
 20 21  2  0  0  0
 20 47  1  0  0  0
 21 22  1  0  0  0
 21 27  1  0  0  0
 22 23  2  0  0  0
 22 48  1  0  0  0
 23 24  1  0  0  0
 23 49  1  0  0  0
 24 25  1  0  0  0
 25 26  2  0  0  0
 28 50  1  0  0  0
M  END
> <s_m_entry_id>
4589

> <s_m_entry_name>
ligand_docking-pose.96

> <s_m_Source_Path>
/home/csk/Desktop/cluster/DUD-E-result/adrb1

> <s_m_Source_File>
ligand_docking-pose.sdf

> <i_m_Source_File_Index>
96

> <i_lp_mmshare_version>
53161

> <r_lp_tautomer_probability>
1

> <s_lp_Force_Field>
OPLS_2005

> <r_lp_Energy>
37.315696

> <b_lp_Chiralities_Consistent>
1

> <s_lp_Variant>
474656-2

> <s_i_glide_gridfile>
glide-grid_2vt4

> <i_i_glide_lignum>
392

> <i_i_glide_rotatable_bonds>
11

> <r_i_docking_score>
-7.26547719408331

> <r_i_glide_ligand_efficiency>
-0.259481328360118

> <r_i_glide_ligand_efficiency_sa>
-0.787938139230792

> <r_i_glide_ligand_efficiency_ln>
-1.67708546007434

> <r_i_glide_gscore>
-7.26547719408331

> <r_i_glide_lipo>
-2.84215822356211

> <r_i_glide_hbond>
-0.480195051966201

> <r_i_glide_metal>
0

> <r_i_glide_rewards>
-1.3236230395227

> <r_i_glide_evdw>
-39.5375480651855

> <r_i_glide_ecoul>
-9.80426406860352

> <r_i_glide_erotb>
0.828016134517505

> <r_i_glide_esite>
0

> <r_i_glide_emodel>
-65.0060003308551

> <r_i_glide_energy>
-49.3418121337891

> <r_i_glide_einternal>
11.8955411911011

> <i_i_glide_confnum>
10

> <i_i_glide_posenum>
388

> <r_i_glide_eff_state_penalty>
0

> <i_f3d_flags>
0

> <s_user_duplicate_titles>
474656

> <s_m_subgroup_title>
dock_pv

> <s_m_subgroupid>
dock_pv1

> <b_m_subgroup_collapsed>
0

$$$$
58616
                    3D
 Schrodinger Suite 2021-1.
 50 52  0  0  1  0            999 V2000
   29.5447    5.2804   -1.2382 C   0  0  0  0  0  0
   28.2289    5.3156   -2.0565 C   0  0  0  0  0  0
   27.8084    6.7679   -2.3798 C   0  0  0  0  0  0
   28.3331    4.4804   -3.3762 C   0  0  0  0  0  0
   29.7231    4.4227   -4.0134 C   0  0  0  0  0  0
   30.1834    5.4684   -4.8130 C   0  0  0  0  0  0
   31.4784    5.4328   -5.3236 C   0  0  0  0  0  0
   32.3062    4.3500   -5.0413 C   0  0  0  0  0  0
   31.8518    3.2982   -4.2504 C   0  0  0  0  0  0
   30.5573    3.3341   -3.7401 C   0  0  0  0  0  0
   27.1962    4.6639   -1.2443 N   0  0  2  0  0  0
   26.7034    5.3207   -0.0272 C   0  0  0  0  0  0
   26.2830    4.2507    1.0127 C   0  0  1  0  0  0
   26.2061    4.7687    2.4656 C   0  0  0  0  0  0
   25.0152    4.6500    3.1836 C   0  0  0  0  0  0
   24.8902    5.1627    4.4575 C   0  0  0  0  0  0
   25.9253    5.8497    5.0698 C   0  0  0  0  0  0
   27.1789    5.9627    4.4135 C   0  0  0  0  0  0
   27.3406    5.3691    3.1187 C   0  0  0  0  0  0
   28.6508    5.4030    2.5750 C   0  0  0  0  0  0
   29.6769    6.0607    3.2489 C   0  0  0  0  0  0
   29.4227    6.6796    4.4689 C   0  0  0  0  0  0
   28.2006    6.6165    5.0453 N   0  0  0  0  0  0
   30.4862    7.3108    5.0533 O   0  0  0  0  0  0
   25.7085    6.3480    6.3292 O   0  0  0  0  0  0
   25.0855    3.6598    0.5342 O   0  0  0  0  0  0
   30.3746    5.7064   -1.8017 H   0  0  0  0  0  0
   29.4839    5.8500   -0.3174 H   0  0  0  0  0  0
   29.8209    4.2597   -0.9688 H   0  0  0  0  0  0
   28.4745    7.2236   -3.1132 H   0  0  0  0  0  0
   26.7991    6.8039   -2.7992 H   0  0  0  0  0  0
   27.8076    7.4025   -1.4931 H   0  0  0  0  0  0
   27.6187    4.8431   -4.1180 H   0  0  0  0  0  0
   28.0159    3.4500   -3.2165 H   0  0  0  0  0  0
   29.5521    6.3161   -5.0253 H   0  0  0  0  0  0
   31.8455    6.2493   -5.9304 H   0  0  0  0  0  0
   33.3132    4.3312   -5.4353 H   0  0  0  0  0  0
   32.4987    2.4645   -4.0241 H   0  0  0  0  0  0
   30.2082    2.5267   -3.1126 H   0  0  0  0  0  0
   27.4092    3.6815   -1.1210 H   0  0  0  0  0  0
   27.4600    5.9796    0.3805 H   0  0  0  0  0  0
   25.8623    5.9710   -0.2685 H   0  0  0  0  0  0
   27.0080    3.4498    1.0352 H   0  0  0  0  0  0
   24.1510    4.1710    2.7458 H   0  0  0  0  0  0
   23.9490    5.0530    4.9758 H   0  0  0  0  0  0
   28.8652    4.9197    1.6367 H   0  0  0  0  0  0
   30.6650    6.0862    2.8126 H   0  0  0  0  0  0
   31.2729    7.3200    4.5036 H   0  0  0  0  0  0
   26.4205    6.9281    6.6271 H   0  0  0  0  0  0
   25.0421    3.8099   -0.4201 H   0  0  0  0  0  0
  1  2  1  0  0  0
  1 27  1  0  0  0
  1 28  1  0  0  0
  1 29  1  0  0  0
  2  3  1  0  0  0
  2  4  1  0  0  0
  2 11  1  0  0  0
  3 30  1  0  0  0
  3 31  1  0  0  0
  3 32  1  0  0  0
  4  5  1  0  0  0
  4 33  1  0  0  0
  4 34  1  0  0  0
  5 10  1  0  0  0
  5  6  2  0  0  0
  6  7  1  0  0  0
  6 35  1  0  0  0
  7  8  2  0  0  0
  7 36  1  0  0  0
  8  9  1  0  0  0
  8 37  1  0  0  0
  9 10  2  0  0  0
  9 38  1  0  0  0
 10 39  1  0  0  0
 11 12  1  0  0  0
 11 40  1  0  0  0
 12 13  1  0  0  0
 12 41  1  0  0  0
 12 42  1  0  0  0
 13 14  1  0  0  0
 13 26  1  0  0  0
 13 43  1  0  0  0
 14 19  1  0  0  0
 14 15  2  0  0  0
 15 16  1  0  0  0
 15 44  1  0  0  0
 16 17  2  0  0  0
 16 45  1  0  0  0
 17 18  1  0  0  0
 17 25  1  0  0  0
 18 23  2  0  0  0
 18 19  1  0  0  0
 19 20  2  0  0  0
 20 21  1  0  0  0
 20 46  1  0  0  0
 21 22  2  0  0  0
 21 47  1  0  0  0
 22 23  1  0  0  0
 22 24  1  0  0  0
 24 48  1  0  0  0
 25 49  1  0  0  0
 26 50  1  0  0  0
M  END
> <s_m_entry_id>
4591

> <s_m_entry_name>
ligand_docking-pose.98

> <s_m_Source_Path>
/home/csk/Desktop/cluster/DUD-E-result/adrb1

> <s_m_Source_File>
ligand_docking-pose.sdf

> <i_m_Source_File_Index>
98

> <i_lp_mmshare_version>
53161

> <r_lp_tautomer_probability>
1

> <s_lp_Force_Field>
OPLS_2005

> <r_lp_Energy>
27.136224

> <b_lp_Chiralities_Consistent>
1

> <s_lp_Variant>
58616-2

> <s_i_glide_gridfile>
glide-grid_2vt4

> <i_i_glide_lignum>
95

> <i_i_glide_rotatable_bonds>
9

> <r_i_docking_score>
-7.22578185438651

> <r_i_glide_ligand_efficiency>
-0.277914686707173

> <r_i_glide_ligand_efficiency_sa>
-0.823321165828514

> <r_i_glide_ligand_efficiency_ln>
-1.69695115877855

> <r_i_glide_gscore>
-7.22578185438651

> <r_i_glide_lipo>
-2.73462346777439

> <r_i_glide_hbond>
-0.339515798780031

> <r_i_glide_metal>
0

> <r_i_glide_rewards>
-1.9665928615129

> <r_i_glide_evdw>
-35.9706344604492

> <r_i_glide_ecoul>
-7.69864368438721

> <r_i_glide_erotb>
0.768278549361361

> <r_i_glide_esite>
0

> <r_i_glide_emodel>
-55.7889784395529

> <r_i_glide_energy>
-43.6692781448364

> <r_i_glide_einternal>
11.4190654754639

> <i_i_glide_confnum>
32

> <i_i_glide_posenum>
322

> <r_i_glide_eff_state_penalty>
0

> <i_f3d_flags>
0

> <s_user_duplicate_titles>
58616

> <s_m_subgroup_title>
dock_pv

> <s_m_subgroupid>
dock_pv1

> <b_m_subgroup_collapsed>
0

$$$$
576106
                    3D
 Schrodinger Suite 2021-1.
 70 72  0  0  1  0            999 V2000
   37.4381    4.2118   -4.2663 C   0  0  0  0  0  0
   36.2003    3.3021   -4.4115 C   0  0  0  0  0  0
   36.4438    2.2184   -5.5035 C   0  0  0  0  0  0
   35.8076    2.6680   -3.0368 C   0  0  0  0  0  0
   35.4450    3.6460   -1.9023 C   0  0  0  0  0  0
   36.3535    3.9140   -0.8717 C   0  0  0  0  0  0
   36.0084    4.7716    0.1717 C   0  0  0  0  0  0
   34.7444    5.3772    0.1928 C   0  0  0  0  0  0
   33.8457    5.1285   -0.8452 C   0  0  0  0  0  0
   34.1868    4.2515   -1.8720 C   0  0  0  0  0  0
   34.3126    6.2493    1.2081 N   0  0  0  0  0  0
   34.6319    6.2366    2.5183 C   0  0  0  0  0  0
   35.4075    5.4432    3.0510 O   0  0  0  0  0  0
   33.9375    7.2923    3.3863 C   0  0  0  0  0  0
   32.6030    6.8073    3.9993 C   0  0  0  0  0  0
   31.4138    6.8461    3.0112 C   0  0  0  0  0  0
   30.1554    6.3711    3.5852 N   0  0  0  0  0  0
   29.4429    7.0503    4.6068 C   0  0  0  0  0  0
   29.8085    8.0988    5.1848 N   0  0  0  0  0  0
   28.2352    6.4170    4.9423 N   0  0  0  0  0  0
   35.0629    4.1174   -4.8429 N   0  0  1  0  0  0
   35.0730    4.6708   -6.1975 C   0  0  0  0  0  0
   33.6909    5.2341   -6.5813 C   0  0  2  0  0  0
   32.5361    4.2492   -6.3216 C   0  0  0  0  0  0
   32.2623    3.2072   -7.2151 C   0  0  0  0  0  0
   31.2687    2.2669   -6.9310 C   0  0  0  0  0  0
   30.5464    2.3345   -5.7387 C   0  0  0  0  0  0
   30.8138    3.3634   -4.8267 C   0  0  0  0  0  0
   31.7874    4.3217   -5.1369 C   0  0  0  0  0  0
   32.0958    5.2878   -4.1972 O   0  0  0  0  0  0
   31.0102    5.6925   -3.3335 C   0  0  0  0  0  0
   30.2142    4.5025   -2.7400 C   0  0  0  0  0  0
   29.6980    4.5046   -1.6258 O   0  0  0  0  0  0
   30.1817    3.4503   -3.5786 N   0  0  0  0  0  0
   29.5952    1.3751   -5.4876 O   0  0  0  0  0  0
   33.8076    5.6622   -7.9226 O   0  0  0  0  0  0
   38.2893    3.6677   -3.8615 H   0  0  0  0  0  0
   37.7484    4.6453   -5.2166 H   0  0  0  0  0  0
   37.2421    5.0494   -3.5962 H   0  0  0  0  0  0
   37.0037    1.3404   -5.1998 H   0  0  0  0  0  0
   35.4990    1.8498   -5.8965 H   0  0  0  0  0  0
   36.9934    2.6286   -6.3507 H   0  0  0  0  0  0
   34.9582    1.9977   -3.1698 H   0  0  0  0  0  0
   36.6053    2.0130   -2.6876 H   0  0  0  0  0  0
   37.3281    3.4518   -0.8708 H   0  0  0  0  0  0
   36.7317    4.9612    0.9508 H   0  0  0  0  0  0
   32.8646    5.5769   -0.8403 H   0  0  0  0  0  0
   33.4676    4.0323   -2.6431 H   0  0  0  0  0  0
   33.6195    6.9319    0.9267 H   0  0  0  0  0  0
   34.6281    7.5374    4.1936 H   0  0  0  0  0  0
   33.7936    8.2224    2.8302 H   0  0  0  0  0  0
   32.7157    5.8033    4.4108 H   0  0  0  0  0  0
   32.3807    7.4486    4.8526 H   0  0  0  0  0  0
   31.2825    7.8501    2.6116 H   0  0  0  0  0  0
   31.6342    6.2188    2.1455 H   0  0  0  0  0  0
   29.8416    5.4543    3.2833 H   0  0  0  0  0  0
   30.6973    8.4250    4.8258 H   0  0  0  0  0  0
   27.5882    6.9325    5.5197 H   0  0  0  0  0  0
   27.7692    5.8478    4.2546 H   0  0  0  0  0  0
   34.1883    3.6562   -4.6463 H   0  0  0  0  0  0
   35.3182    3.9032   -6.9295 H   0  0  0  0  0  0
   35.8342    5.4492   -6.2653 H   0  0  0  0  0  0
   33.5096    6.1428   -6.0151 H   0  0  0  0  0  0
   32.8291    3.1244   -8.1315 H   0  0  0  0  0  0
   31.0710    1.4731   -7.6362 H   0  0  0  0  0  0
   30.2991    6.2870   -3.9096 H   0  0  0  0  0  0
   31.3831    6.2834   -2.5006 H   0  0  0  0  0  0
   29.6229    2.6850   -3.2245 H   0  0  0  0  0  0
   28.9785    1.6163   -4.7914 H   0  0  0  0  0  0
   34.4986    6.3394   -7.9239 H   0  0  0  0  0  0
  1  2  1  0  0  0
  1 37  1  0  0  0
  1 38  1  0  0  0
  1 39  1  0  0  0
  2  3  1  0  0  0
  2  4  1  0  0  0
  2 21  1  0  0  0
  3 40  1  0  0  0
  3 41  1  0  0  0
  3 42  1  0  0  0
  4  5  1  0  0  0
  4 43  1  0  0  0
  4 44  1  0  0  0
  5 10  1  0  0  0
  5  6  2  0  0  0
  6  7  1  0  0  0
  6 45  1  0  0  0
  7  8  2  0  0  0
  7 46  1  0  0  0
  8  9  1  0  0  0
  8 11  1  0  0  0
  9 10  2  0  0  0
  9 47  1  0  0  0
 10 48  1  0  0  0
 11 12  1  0  0  0
 11 49  1  0  0  0
 12 13  2  0  0  0
 12 14  1  0  0  0
 14 15  1  0  0  0
 14 50  1  0  0  0
 14 51  1  0  0  0
 15 16  1  0  0  0
 15 52  1  0  0  0
 15 53  1  0  0  0
 16 17  1  0  0  0
 16 54  1  0  0  0
 16 55  1  0  0  0
 17 18  1  0  0  0
 17 56  1  0  0  0
 18 19  2  3  0  0
 18 20  1  0  0  0
 19 57  1  0  0  0
 20 58  1  0  0  0
 20 59  1  0  0  0
 21 22  1  0  0  0
 21 60  1  0  0  0
 22 23  1  0  0  0
 22 61  1  0  0  0
 22 62  1  0  0  0
 23 24  1  0  0  0
 23 36  1  0  0  0
 23 63  1  0  0  0
 24 29  1  0  0  0
 24 25  2  0  0  0
 25 26  1  0  0  0
 25 64  1  0  0  0
 26 27  2  0  0  0
 26 65  1  0  0  0
 27 28  1  0  0  0
 27 35  1  0  0  0
 28 34  1  0  0  0
 28 29  2  0  0  0
 29 30  1  0  0  0
 30 31  1  0  0  0
 31 32  1  0  0  0
 31 66  1  0  0  0
 31 67  1  0  0  0
 32 33  2  0  0  0
 32 34  1  0  0  0
 34 68  1  0  0  0
 35 69  1  0  0  0
 36 70  1  0  0  0
M  END
> <s_m_entry_id>
4596

> <s_m_entry_name>
ligand_docking-pose.103

> <s_m_Source_Path>
/home/csk/Desktop/cluster/DUD-E-result/adrb1

> <s_m_Source_File>
ligand_docking-pose.sdf

> <i_m_Source_File_Index>
103

> <i_lp_mmshare_version>
53161

> <r_lp_tautomer_probability>
0.9999999999415

> <s_lp_Force_Field>
OPLS_2005

> <r_lp_Energy>
21.414153

> <b_lp_Chiralities_Consistent>
1

> <s_lp_Variant>
576106-2

> <s_i_glide_gridfile>
glide-grid_2vt4

> <i_i_glide_lignum>
64

> <i_i_glide_rotatable_bonds>
15

> <r_i_docking_score>
-7.21145664507848

> <r_i_glide_ligand_efficiency>
-0.200318240141069

> <r_i_glide_ligand_efficiency_sa>
-0.661436254782323

> <r_i_glide_ligand_efficiency_ln>
-1.57334500891308

> <r_i_glide_gscore>
-7.21145664507848

> <r_i_glide_lipo>
-2.38084035778656

> <r_i_glide_hbond>
-1.05727026778595

> <r_i_glide_metal>
0

> <r_i_glide_rewards>
-0.0410931841194978

> <r_i_glide_evdw>
-51.3759307861328

> <r_i_glide_ecoul>
-14.5629043579102

> <r_i_glide_erotb>
1.06723708360882

> <r_i_glide_esite>
-0.0462577260021298

> <r_i_glide_emodel>
-90.6322985396425

> <r_i_glide_energy>
-65.938835144043

> <r_i_glide_einternal>
7.71464347839355

> <i_i_glide_confnum>
67

> <i_i_glide_posenum>
353

> <r_i_glide_eff_state_penalty>
0

> <i_f3d_flags>
0

> <s_user_duplicate_titles>
576106

> <s_m_subgroup_title>
dock_pv

> <s_m_subgroupid>
dock_pv1

> <b_m_subgroup_collapsed>
0

$$$$
55752
                    3D
 Schrodinger Suite 2021-1.
 47 49  0  0  1  0            999 V2000
   31.2683    4.0156   -2.5003 C   0  0  0  0  0  0
   31.2483    5.0060   -3.4795 C   0  0  0  0  0  0
   30.1158    5.8241   -3.5307 C   0  0  0  0  0  0
   29.0085    5.6716   -2.6285 C   0  0  0  0  0  0
   28.0577    6.6871   -3.0014 C   0  0  0  0  0  0
   28.6068    7.4162   -4.0151 C   0  0  0  0  0  0
   29.8170    6.8801   -4.3658 N   0  0  0  0  0  0
   29.0794    4.6503   -1.6447 C   0  0  0  0  0  0
   30.2144    3.8469   -1.6083 C   0  0  0  0  0  0
   28.1009    4.4088   -0.6959 O   0  0  0  0  0  0
   26.8242    5.0219   -0.8360 C   0  0  0  0  0  0
   25.7802    4.4513    0.1351 C   0  0  2  0  0  0
   26.2273    4.4842    1.6111 C   0  0  0  0  0  0
   26.6082    5.8295    2.0429 N   0  0  1  0  0  0
   26.5096    5.9814    3.4882 C   0  0  0  0  0  0
   27.6624    5.2744    4.2116 C   0  0  0  0  0  0
   29.0083    5.8980    3.8881 C   0  0  0  0  0  0
   29.5009    6.9144    4.7075 C   0  0  0  0  0  0
   30.7657    7.4340    4.4683 C   0  0  0  0  0  0
   31.5237    6.9472    3.4031 C   0  0  0  0  0  0
   31.0145    5.9740    2.5467 C   0  0  0  0  0  0
   29.7481    5.4500    2.7856 C   0  0  0  0  0  0
   32.7994    7.4500    3.1853 N   0  0  0  0  0  0
   25.4100    3.1349   -0.2420 O   0  0  0  0  0  0
   30.3868    7.2621   -5.1152 H   0  0  0  0  0  0
   32.1223    3.3566   -2.4320 H   0  0  0  0  0  0
   32.0735    5.1272   -4.1663 H   0  0  0  0  0  0
   27.0848    6.9099   -2.5956 H   0  0  0  0  0  0
   28.2076    8.2520   -4.5675 H   0  0  0  0  0  0
   30.2560    3.0534   -0.8775 H   0  0  0  0  0  0
   26.4723    4.9050   -1.8568 H   0  0  0  0  0  0
   26.9314    6.0862   -0.6237 H   0  0  0  0  0  0
   24.8735    5.0483    0.0308 H   0  0  0  0  0  0
   27.0964    3.8498    1.7448 H   0  0  0  0  0  0
   25.4202    4.0922    2.2333 H   0  0  0  0  0  0
   27.5661    6.0053    1.7659 H   0  0  0  0  0  0
   25.5319    5.6914    3.8771 H   0  0  0  0  0  0
   26.5985    7.0506    3.6817 H   0  0  0  0  0  0
   27.6894    4.2118    3.9739 H   0  0  0  0  0  0
   27.4926    5.3059    5.2886 H   0  0  0  0  0  0
   28.9185    7.2833    5.5398 H   0  0  0  0  0  0
   31.1484    8.2048    5.1191 H   0  0  0  0  0  0
   31.5994    5.6087    1.7155 H   0  0  0  0  0  0
   29.3671    4.6700    2.1430 H   0  0  0  0  0  0
   32.9981    8.2793    3.7419 H   0  0  0  0  0  0
   33.0283    7.5223    2.1990 H   0  0  0  0  0  0
   24.8588    3.1992   -1.0345 H   0  0  0  0  0  0
  1  9  1  0  0  0
  1  2  2  0  0  0
  1 26  1  0  0  0
  2  3  1  0  0  0
  2 27  1  0  0  0
  3  7  1  0  0  0
  3  4  2  0  0  0
  4  5  1  0  0  0
  4  8  1  0  0  0
  5  6  2  0  0  0
  5 28  1  0  0  0
  6  7  1  0  0  0
  6 29  1  0  0  0
  7 25  1  0  0  0
  8  9  2  0  0  0
  8 10  1  0  0  0
  9 30  1  0  0  0
 10 11  1  0  0  0
 11 12  1  0  0  0
 11 31  1  0  0  0
 11 32  1  0  0  0
 12 13  1  0  0  0
 12 24  1  0  0  0
 12 33  1  0  0  0
 13 14  1  0  0  0
 13 34  1  0  0  0
 13 35  1  0  0  0
 14 15  1  0  0  0
 14 36  1  0  0  0
 15 16  1  0  0  0
 15 37  1  0  0  0
 15 38  1  0  0  0
 16 17  1  0  0  0
 16 39  1  0  0  0
 16 40  1  0  0  0
 17 22  1  0  0  0
 17 18  2  0  0  0
 18 19  1  0  0  0
 18 41  1  0  0  0
 19 20  2  0  0  0
 19 42  1  0  0  0
 20 21  1  0  0  0
 20 23  1  0  0  0
 21 22  2  0  0  0
 21 43  1  0  0  0
 22 44  1  0  0  0
 23 45  1  0  0  0
 23 46  1  0  0  0
 24 47  1  0  0  0
M  END
> <s_m_entry_id>
4610

> <s_m_entry_name>
ligand_docking-pose.117

> <s_m_Source_Path>
/home/csk/Desktop/cluster/DUD-E-result/adrb1

> <s_m_Source_File>
ligand_docking-pose.sdf

> <i_m_Source_File_Index>
117

> <i_lp_mmshare_version>
53161

> <r_lp_tautomer_probability>
1

> <s_lp_Force_Field>
OPLS_2005

> <r_lp_Energy>
20.771512

> <b_lp_Chiralities_Consistent>
1

> <s_lp_Variant>
55752-1

> <s_i_glide_gridfile>
glide-grid_2vt4

> <i_i_glide_lignum>
298

> <i_i_glide_rotatable_bonds>
9

> <r_i_docking_score>
-7.15902322927675

> <r_i_glide_ligand_efficiency>
-0.298292634553198

> <r_i_glide_ligand_efficiency_sa>
-0.860424847108937

> <r_i_glide_ligand_efficiency_ln>
-1.71348276493617

> <r_i_glide_gscore>
-7.15902322927675

> <r_i_glide_lipo>
-2.34203197128966

> <r_i_glide_hbond>
-0.933292946455747

> <r_i_glide_metal>
0

> <r_i_glide_rewards>
-2.14875501515151

> <r_i_glide_evdw>
-32.3080024719238

> <r_i_glide_ecoul>
-8.84605884552002

> <r_i_glide_erotb>
1.23890423211505

> <r_i_glide_esite>
-0.03153857807069

> <r_i_glide_emodel>
-50.7880318601327

> <r_i_glide_energy>
-41.1540613174438

> <r_i_glide_einternal>
14.9359178543091

> <i_i_glide_confnum>
30

> <i_i_glide_posenum>
252

> <r_i_glide_eff_state_penalty>
0

> <i_f3d_flags>
0

> <s_user_duplicate_titles>
55752

> <s_m_subgroup_title>
dock_pv

> <s_m_subgroupid>
dock_pv1

> <b_m_subgroup_collapsed>
0

$$$$
262766
                    3D
 Schrodinger Suite 2021-1.
 59 60  0  0  1  0            999 V2000
   35.5782    5.4849   -1.3557 C   0  0  0  0  0  0
   34.2520    5.2171   -0.6229 C   0  0  1  0  0  0
   34.2214    5.8954    0.7700 C   0  0  0  0  0  0
   32.8441    5.9432    1.4787 C   0  0  0  0  0  0
   32.9304    6.3330    2.9743 C   0  0  0  0  0  0
   31.6578    6.9794    3.5606 C   0  0  0  0  0  0
   30.4396    6.2499    3.2115 N   0  0  0  0  0  0
   29.2880    6.2501    3.9768 C   0  0  0  0  0  0
   29.1284    6.7797    5.0792 O   0  0  0  0  0  0
   28.3571    5.5676    3.2975 O   0  0  0  0  0  0
   27.0110    5.4721    3.7472 C   0  0  0  0  0  0
   26.1378    4.7713    2.7072 C   0  0  0  0  0  0
   24.9071    4.2502    3.1140 C   0  0  0  0  0  0
   24.0845    3.5975    2.1970 C   0  0  0  0  0  0
   24.4895    3.4729    0.8715 C   0  0  0  0  0  0
   25.7071    3.9993    0.4498 C   0  0  0  0  0  0
   26.5315    4.6498    1.3654 C   0  0  0  0  0  0
   33.1248    5.6607   -1.4439 N   0  0  1  0  0  0
   32.7754    4.7056   -2.4936 C   0  0  0  0  0  0
   31.4926    5.1252   -3.2517 C   0  0  1  0  0  0
   31.1960    4.1629   -4.4033 C   0  0  0  0  0  0
   31.9246    4.2702   -5.5927 C   0  0  0  0  0  0
   31.6827    3.3958   -6.6522 C   0  0  0  0  0  0
   30.6963    2.4151   -6.5455 C   0  0  0  0  0  0
   29.9560    2.3003   -5.3613 C   0  0  0  0  0  0
   30.2160    3.1658   -4.2965 C   0  0  0  0  0  0
   28.9693    1.3564   -5.2149 O   0  0  0  0  0  0
   30.4703    1.5852   -7.6150 O   0  0  0  0  0  0
   30.4135    5.2430   -2.3304 O   0  0  0  0  0  0
   36.4297    5.1464   -0.7653 H   0  0  0  0  0  0
   35.6298    4.9662   -2.3109 H   0  0  0  0  0  0
   35.7166    6.5504   -1.5515 H   0  0  0  0  0  0
   34.1812    4.1432   -0.4466 H   0  0  0  0  0  0
   34.9186    5.3606    1.4170 H   0  0  0  0  0  0
   34.6079    6.9136    0.6903 H   0  0  0  0  0  0
   32.1983    6.6488    0.9592 H   0  0  0  0  0  0
   32.3198    4.9995    1.3776 H   0  0  0  0  0  0
   33.1965    5.4507    3.5584 H   0  0  0  0  0  0
   33.7516    7.0351    3.1232 H   0  0  0  0  0  0
   31.7647    7.0807    4.6421 H   0  0  0  0  0  0
   31.5361    7.9794    3.1504 H   0  0  0  0  0  0
   30.3998    5.7947    2.3146 H   0  0  0  0  0  0
   26.9857    4.9075    4.6810 H   0  0  0  0  0  0
   26.6036    6.4652    3.9453 H   0  0  0  0  0  0
   24.5825    4.3510    4.1381 H   0  0  0  0  0  0
   23.1312    3.1991    2.5109 H   0  0  0  0  0  0
   23.8462    2.9778    0.1592 H   0  0  0  0  0  0
   26.0031    3.9061   -0.5870 H   0  0  0  0  0  0
   27.4684    5.0622    1.0227 H   0  0  0  0  0  0
   32.3157    5.8137   -0.8556 H   0  0  0  0  0  0
   32.6258    3.7114   -2.0650 H   0  0  0  0  0  0
   33.5990    4.6323   -3.2056 H   0  0  0  0  0  0
   31.6402    6.1161   -3.6823 H   0  0  0  0  0  0
   32.6859    5.0307   -5.6988 H   0  0  0  0  0  0
   32.2577    3.4982   -7.5621 H   0  0  0  0  0  0
   29.6536    3.0510   -3.3807 H   0  0  0  0  0  0
   28.5090    1.4508   -4.3753 H   0  0  0  0  0  0
   31.0355    1.7941   -8.3611 H   0  0  0  0  0  0
   29.6268    5.4986   -2.8202 H   0  0  0  0  0  0
  1  2  1  0  0  0
  1 30  1  0  0  0
  1 31  1  0  0  0
  1 32  1  0  0  0
  2  3  1  0  0  0
  2 18  1  0  0  0
  2 33  1  0  0  0
  3  4  1  0  0  0
  3 34  1  0  0  0
  3 35  1  0  0  0
  4  5  1  0  0  0
  4 36  1  0  0  0
  4 37  1  0  0  0
  5  6  1  0  0  0
  5 38  1  0  0  0
  5 39  1  0  0  0
  6  7  1  0  0  0
  6 40  1  0  0  0
  6 41  1  0  0  0
  7  8  1  0  0  0
  7 42  1  0  0  0
  8  9  2  0  0  0
  8 10  1  0  0  0
 10 11  1  0  0  0
 11 12  1  0  0  0
 11 43  1  0  0  0
 11 44  1  0  0  0
 12 17  1  0  0  0
 12 13  2  0  0  0
 13 14  1  0  0  0
 13 45  1  0  0  0
 14 15  2  0  0  0
 14 46  1  0  0  0
 15 16  1  0  0  0
 15 47  1  0  0  0
 16 17  2  0  0  0
 16 48  1  0  0  0
 17 49  1  0  0  0
 18 19  1  0  0  0
 18 50  1  0  0  0
 19 20  1  0  0  0
 19 51  1  0  0  0
 19 52  1  0  0  0
 20 21  1  0  0  0
 20 29  1  0  0  0
 20 53  1  0  0  0
 21 26  1  0  0  0
 21 22  2  0  0  0
 22 23  1  0  0  0
 22 54  1  0  0  0
 23 24  2  0  0  0
 23 55  1  0  0  0
 24 25  1  0  0  0
 24 28  1  0  0  0
 25 26  2  0  0  0
 25 27  1  0  0  0
 26 56  1  0  0  0
 27 57  1  0  0  0
 28 58  1  0  0  0
 29 59  1  0  0  0
M  END
> <s_m_entry_id>
4625

> <s_m_entry_name>
ligand_docking-pose.132

> <s_m_Source_Path>
/home/csk/Desktop/cluster/DUD-E-result/adrb1

> <s_m_Source_File>
ligand_docking-pose.sdf

> <i_m_Source_File_Index>
132

> <i_lp_mmshare_version>
53161

> <r_lp_tautomer_probability>
0.999999999999776

> <s_lp_Force_Field>
OPLS_2005

> <r_lp_Energy>
21.331622

> <b_lp_Chiralities_Consistent>
1

> <s_lp_Variant>
262766-4

> <s_i_glide_gridfile>
glide-grid_2vt4

> <i_i_glide_lignum>
396

> <i_i_glide_rotatable_bonds>
16

> <r_i_docking_score>
-7.05528344263443

> <r_i_glide_ligand_efficiency>
-0.243285635952911

> <r_i_glide_ligand_efficiency_sa>
-0.747450551946849

> <r_i_glide_ligand_efficiency_ln>
-1.61548100181166

> <r_i_glide_gscore>
-7.05528344263443

> <r_i_glide_lipo>
-3.18533774252322

> <r_i_glide_hbond>
-0.270639343997627

> <r_i_glide_metal>
0

> <r_i_glide_rewards>
-1.56161849129834

> <r_i_glide_evdw>
-45.9012565612793

> <r_i_glide_ecoul>
-7.97553777694702

> <r_i_glide_erotb>
1.45370562979078

> <r_i_glide_esite>
0

> <r_i_glide_emodel>
-73.6537170538421

> <r_i_glide_energy>
-53.8767943382263

> <r_i_glide_einternal>
10.8852510452271

> <i_i_glide_confnum>
178

> <i_i_glide_posenum>
339

> <r_i_glide_eff_state_penalty>
0

> <i_f3d_flags>
0

> <s_user_duplicate_titles>
262766

> <s_m_subgroup_title>
dock_pv

> <s_m_subgroupid>
dock_pv1

> <b_m_subgroup_collapsed>
0

$$$$
550947
                    3D
 Schrodinger Suite 2021-1.
 50 52  0  0  1  0            999 V2000
   21.8481    3.6226    5.6860 C   0  0  0  0  0  0
   22.3945    4.7367    4.7850 C   0  0  0  0  0  0
   23.7893    4.6500    4.4375 O   0  0  0  0  0  0
   24.1792    4.2500    3.1849 C   0  0  0  0  0  0
   23.4108    3.7104    2.3850 O   0  0  0  0  0  0
   25.5936    4.6175    2.8344 C   0  0  0  0  0  0
   26.5377    4.9859    3.7986 C   0  0  0  0  0  0
   27.8682    5.1845    3.4354 C   0  0  0  0  0  0
   28.2919    5.0500    2.1084 C   0  0  0  0  0  0
   27.3285    4.7973    1.1067 C   0  0  0  0  0  0
   26.0047    4.5646    1.4934 C   0  0  0  0  0  0
   27.7283    4.6502   -0.3659 C   0  0  0  0  0  0
   29.0914    5.2964   -0.6996 C   0  0  1  0  0  0
   30.1308    4.7600    0.3044 C   0  0  0  0  0  0
   29.7904    5.0501    1.7860 C   0  0  0  0  0  0
   29.4295    5.1036   -2.1095 N   0  0  1  0  0  0
   30.7530    5.5215   -2.5912 C   0  0  0  0  0  0
   30.9709    5.2505   -4.1074 C   0  0  1  0  0  0
   30.7082    3.7965   -4.5357 C   0  0  0  0  0  0
   30.9473    2.7391   -3.6494 C   0  0  0  0  0  0
   30.6080    1.4375   -3.9989 C   0  0  0  0  0  0
   30.0548    1.1559   -5.2438 C   0  0  0  0  0  0
   29.8564    2.1889   -6.1543 C   0  0  0  0  0  0
   30.2080    3.4959   -5.8098 C   0  0  0  0  0  0
   29.1315    1.8500   -7.6815 Cl  0  0  0  0  0  0
   30.2080    6.2101   -4.8311 O   0  0  0  0  0  0
   20.8243    3.8500    5.9849 H   0  0  0  0  0  0
   22.4491    3.5178    6.5877 H   0  0  0  0  0  0
   21.8080    2.6623    5.1850 H   0  0  0  0  0  0
   21.7660    4.8212    3.8962 H   0  0  0  0  0  0
   22.2699    5.6863    5.3045 H   0  0  0  0  0  0
   26.2687    5.0602    4.8423 H   0  0  0  0  0  0
   28.5965    5.3869    4.2072 H   0  0  0  0  0  0
   25.2913    4.3031    0.7216 H   0  0  0  0  0  0
   27.7981    3.5785   -0.5623 H   0  0  0  0  0  0
   26.9493    5.0127   -1.0396 H   0  0  0  0  0  0
   28.9649    6.3666   -0.5602 H   0  0  0  0  0  0
   31.1227    5.1626    0.1017 H   0  0  0  0  0  0
   30.2080    3.6850    0.1473 H   0  0  0  0  0  0
   30.2365    5.9892    2.1065 H   0  0  0  0  0  0
   30.2810    4.2944    2.4013 H   0  0  0  0  0  0
   29.0321    4.2817   -2.5504 H   0  0  0  0  0  0
   30.9055    6.5819   -2.4150 H   0  0  0  0  0  0
   31.5310    5.0032   -2.0319 H   0  0  0  0  0  0
   32.0175    5.4526   -4.3402 H   0  0  0  0  0  0
   31.3470    2.9142   -2.6621 H   0  0  0  0  0  0
   30.7388    0.6500   -3.2739 H   0  0  0  0  0  0
   29.7692    0.1443   -5.4925 H   0  0  0  0  0  0
   30.0464    4.2912   -6.5174 H   0  0  0  0  0  0
   30.7885    6.8663   -5.2389 H   0  0  0  0  0  0
  1  2  1  0  0  0
  1 27  1  0  0  0
  1 28  1  0  0  0
  1 29  1  0  0  0
  2  3  1  0  0  0
  2 30  1  0  0  0
  2 31  1  0  0  0
  3  4  1  0  0  0
  4  5  2  0  0  0
  4  6  1  0  0  0
  6 11  1  0  0  0
  6  7  2  0  0  0
  7  8  1  0  0  0
  7 32  1  0  0  0
  8  9  2  0  0  0
  8 33  1  0  0  0
  9 15  1  0  0  0
  9 10  1  0  0  0
 10 11  2  0  0  0
 10 12  1  0  0  0
 11 34  1  0  0  0
 12 13  1  0  0  0
 12 35  1  0  0  0
 12 36  1  0  0  0
 13 14  1  0  0  0
 13 16  1  0  0  0
 13 37  1  0  0  0
 14 15  1  0  0  0
 14 38  1  0  0  0
 14 39  1  0  0  0
 15 40  1  0  0  0
 15 41  1  0  0  0
 16 17  1  0  0  0
 16 42  1  0  0  0
 17 18  1  0  0  0
 17 43  1  0  0  0
 17 44  1  0  0  0
 18 19  1  0  0  0
 18 26  1  0  0  0
 18 45  1  0  0  0
 19 24  1  0  0  0
 19 20  2  0  0  0
 20 21  1  0  0  0
 20 46  1  0  0  0
 21 22  2  0  0  0
 21 47  1  0  0  0
 22 23  1  0  0  0
 22 48  1  0  0  0
 23 24  2  0  0  0
 23 25  1  0  0  0
 24 49  1  0  0  0
 26 50  1  0  0  0
M  END
> <s_m_entry_id>
4626

> <s_m_entry_name>
ligand_docking-pose.133

> <s_m_Source_Path>
/home/csk/Desktop/cluster/DUD-E-result/adrb1

> <s_m_Source_File>
ligand_docking-pose.sdf

> <i_m_Source_File_Index>
133

> <i_lp_mmshare_version>
53161

> <r_lp_tautomer_probability>
1

> <s_lp_Force_Field>
OPLS_2005

> <r_lp_Energy>
26.04569

> <b_lp_Chiralities_Consistent>
1

> <s_lp_Variant>
550947-3

> <s_i_glide_gridfile>
glide-grid_2vt4

> <i_i_glide_lignum>
475

> <i_i_glide_rotatable_bonds>
8

> <r_i_docking_score>
-7.05178306188803

> <r_i_glide_ligand_efficiency>
-0.271222425457232

> <r_i_glide_ligand_efficiency_sa>
-0.803495368208339

> <r_i_glide_ligand_efficiency_ln>
-1.65608811329689

> <r_i_glide_gscore>
-7.05178306188803

> <r_i_glide_lipo>
-3.12083365251591

> <r_i_glide_hbond>
-0.32

> <r_i_glide_metal>
0

> <r_i_glide_rewards>
-2.08980322962674

> <r_i_glide_evdw>
-33.1257057189941

> <r_i_glide_ecoul>
-3.70862817764282

> <r_i_glide_erotb>
0.691433332850757

> <r_i_glide_esite>
0

> <r_i_glide_emodel>
-46.0345898181971

> <r_i_glide_energy>
-36.834333896637

> <r_i_glide_einternal>
5.76875257492065

> <i_i_glide_confnum>
109

> <i_i_glide_posenum>
67

> <r_i_glide_eff_state_penalty>
0

> <i_f3d_flags>
0

> <s_user_duplicate_titles>
550947

> <s_m_subgroup_title>
dock_pv

> <s_m_subgroupid>
dock_pv1

> <b_m_subgroup_collapsed>
0

$$$$
492809
                    3D
 Schrodinger Suite 2021-1.
 58 60  0  0  1  0            999 V2000
   34.7723    4.5976   -4.9461 C   0  0  0  0  0  0
   34.6798    5.0385   -3.4902 C   0  0  0  0  0  0
   33.5880    5.3781   -3.0316 O   0  0  0  0  0  0
   35.8402    5.0473   -2.8029 N   0  0  0  0  0  0
   36.0223    5.3721   -1.4445 C   0  0  0  0  0  0
   35.0706    4.9784   -0.4948 C   0  0  0  0  0  0
   35.2095    5.3322    0.8398 C   0  0  0  0  0  0
   36.2629    6.1531    1.2594 C   0  0  0  0  0  0
   37.2489    6.4872    0.3293 C   0  0  0  0  0  0
   37.1771    6.0675   -1.0101 C   0  0  0  0  0  0
   38.3330    6.4042   -1.9256 C   0  0  0  0  0  0
   39.0129    7.4197   -1.7820 O   0  0  0  0  0  0
   38.6054    5.4605   -2.8715 O   0  0  0  0  0  0
   36.4189    6.6224    2.5554 O   0  0  0  0  0  0
   35.4087    6.5765    3.4950 C   0  0  0  0  0  0
   35.7435    6.2495    4.8086 C   0  0  0  0  0  0
   34.7470    6.0970    5.7713 C   0  0  0  0  0  0
   33.4084    6.2782    5.4274 C   0  0  0  0  0  0
   33.0524    6.6632    4.1266 C   0  0  0  0  0  0
   34.0683    6.8461    3.1866 C   0  0  0  0  0  0
   31.6047    6.8300    3.6539 C   0  0  0  0  0  0
   30.5061    6.9367    4.7315 C   0  0  0  0  0  0
   29.2082    6.6505    4.1270 N   0  0  2  0  0  0
   28.1342    6.4774    5.1022 C   0  0  0  0  0  0
   26.7124    6.6060    4.4889 C   0  0  1  0  0  0
   26.3281    5.5739    3.4075 C   0  0  0  0  0  0
   25.2497    4.6911    3.5814 C   0  0  0  0  0  0
   24.8384    3.8474    2.5478 C   0  0  0  0  0  0
   25.5126    3.8507    1.3283 C   0  0  0  0  0  0
   26.5952    4.7097    1.1424 C   0  0  0  0  0  0
   26.9966    5.5631    2.1731 C   0  0  0  0  0  0
   27.4136    4.7515   -0.3773 Cl  0  0  0  0  0  0
   25.8150    6.6497    5.5877 O   0  0  0  0  0  0
   26.6084    7.5853    4.0211 H   0  0  0  0  0  0
   35.0053    5.4498   -5.5858 H   0  0  0  0  0  0
   33.8214    4.1736   -5.2718 H   0  0  0  0  0  0
   35.5464    3.8395   -5.0809 H   0  0  0  0  0  0
   36.6962    4.9812   -3.3412 H   0  0  0  0  0  0
   34.2182    4.3827   -0.7843 H   0  0  0  0  0  0
   34.4634    4.9762    1.5317 H   0  0  0  0  0  0
   38.0938    7.0670    0.6715 H   0  0  0  0  0  0
   39.3518    5.7397   -3.4034 H   0  0  0  0  0  0
   36.7785    6.0827    5.0750 H   0  0  0  0  0  0
   35.0114    5.8043    6.7781 H   0  0  0  0  0  0
   32.6650    6.0963    6.1846 H   0  0  0  0  0  0
   33.8068    7.1430    2.1813 H   0  0  0  0  0  0
   31.5400    7.7121    3.0085 H   0  0  0  0  0  0
   31.4075    5.9683    3.0121 H   0  0  0  0  0  0
   30.7037    6.2500    5.5450 H   0  0  0  0  0  0
   30.5158    7.9397    5.1621 H   0  0  0  0  0  0
   29.3016    5.8004    3.5839 H   0  0  0  0  0  0
   28.2258    5.5015    5.5825 H   0  0  0  0  0  0
   28.2507    7.2346    5.8798 H   0  0  0  0  0  0
   24.6919    4.6802    4.5072 H   0  0  0  0  0  0
   23.9912    3.1923    2.6907 H   0  0  0  0  0  0
   25.1885    3.2046    0.5246 H   0  0  0  0  0  0
   27.8049    6.2500    1.9837 H   0  0  0  0  0  0
   26.1138    7.3336    6.2017 H   0  0  0  0  0  0
  1  2  1  0  0  0
  1 35  1  0  0  0
  1 36  1  0  0  0
  1 37  1  0  0  0
  2  3  2  0  0  0
  2  4  1  0  0  0
  4  5  1  0  0  0
  4 38  1  0  0  0
  5 10  1  0  0  0
  5  6  2  0  0  0
  6  7  1  0  0  0
  6 39  1  0  0  0
  7  8  2  0  0  0
  7 40  1  0  0  0
  8  9  1  0  0  0
  8 14  1  0  0  0
  9 10  2  0  0  0
  9 41  1  0  0  0
 10 11  1  0  0  0
 11 12  2  0  0  0
 11 13  1  0  0  0
 13 42  1  0  0  0
 14 15  1  0  0  0
 15 20  1  0  0  0
 15 16  2  0  0  0
 16 17  1  0  0  0
 16 43  1  0  0  0
 17 18  2  0  0  0
 17 44  1  0  0  0
 18 19  1  0  0  0
 18 45  1  0  0  0
 19 20  2  0  0  0
 19 21  1  0  0  0
 20 46  1  0  0  0
 21 22  1  0  0  0
 21 47  1  0  0  0
 21 48  1  0  0  0
 22 23  1  0  0  0
 22 49  1  0  0  0
 22 50  1  0  0  0
 23 24  1  0  0  0
 23 51  1  0  0  0
 24 25  1  0  0  0
 24 52  1  0  0  0
 24 53  1  0  0  0
 25 34  1  0  0  0
 25 26  1  0  0  0
 25 33  1  0  0  0
 26 31  1  0  0  0
 26 27  2  0  0  0
 27 28  1  0  0  0
 27 54  1  0  0  0
 28 29  2  0  0  0
 28 55  1  0  0  0
 29 30  1  0  0  0
 29 56  1  0  0  0
 30 31  2  0  0  0
 30 32  1  0  0  0
 31 57  1  0  0  0
 33 58  1  0  0  0
M  END
> <s_m_entry_id>
4636

> <s_m_entry_name>
ligand_docking-pose.143

> <s_m_Source_Path>
/home/csk/Desktop/cluster/DUD-E-result/adrb1

> <s_m_Source_File>
ligand_docking-pose.sdf

> <i_m_Source_File_Index>
143

> <i_lp_mmshare_version>
53161

> <r_lp_tautomer_probability>
1

> <s_lp_Force_Field>
OPLS_2005

> <r_lp_Energy>
33.322831

> <b_lp_Chiralities_Consistent>
1

> <s_lp_Variant>
492809-1

> <s_i_glide_gridfile>
glide-grid_2vt4

> <i_i_glide_lignum>
750

> <i_i_glide_rotatable_bonds>
13

> <r_i_docking_score>
-7.00078215000464

> <r_i_glide_ligand_efficiency>
-0.212144913636504

> <r_i_glide_ligand_efficiency_sa>
-0.680462092630006

> <r_i_glide_ligand_efficiency_ln>
-1.55693770205102

> <r_i_glide_gscore>
-7.00078215000464

> <r_i_glide_lipo>
-2.99088674796447

> <r_i_glide_hbond>
-0.32

> <r_i_glide_metal>
0

> <r_i_glide_rewards>
-0.73678811468546

> <r_i_glide_evdw>
-54.2511138916016

> <r_i_glide_ecoul>
-6.85432720184326

> <r_i_glide_erotb>
0.826500768220812

> <r_i_glide_esite>
-0.038903280718953

> <r_i_glide_emodel>
-82.561196433188

> <r_i_glide_energy>
-61.1054410934448

> <r_i_glide_einternal>
10.2619590759277

> <i_i_glide_confnum>
22

> <i_i_glide_posenum>
43

> <r_i_glide_eff_state_penalty>
0

> <i_f3d_flags>
0

> <s_user_duplicate_titles>
492809

> <s_m_subgroup_title>
dock_pv

> <s_m_subgroupid>
dock_pv1

> <b_m_subgroup_collapsed>
0

$$$$
62607
                    3D
 Schrodinger Suite 2021-1.
 26 26  0  0  1  0            999 V2000
   28.9564    7.6091    5.0712 C   0  0  0  0  0  0
   28.2078    6.6490    5.8689 N   0  0  2  0  0  0
   27.5736    5.6007    5.0540 C   0  0  0  0  0  0
   26.3134    6.0584    4.2646 C   0  0  1  0  0  0
   25.8921    5.0777    3.1518 C   0  0  0  0  0  0
   24.7625    4.2538    3.2731 C   0  0  0  0  0  0
   24.3420    3.4499    2.2137 C   0  0  0  0  0  0
   25.0422    3.4513    1.0100 C   0  0  0  0  0  0
   26.1843    4.2502    0.8729 C   0  0  0  0  0  0
   26.6077    5.0499    1.9438 C   0  0  0  0  0  0
   27.7100    5.8219    1.8058 F   0  0  0  0  0  0
   26.8774    4.2680   -0.3137 O   0  0  0  0  0  0
   24.6080    2.6451   -0.0150 O   0  0  0  0  0  0
   25.2737    6.3488    5.1862 O   0  0  0  0  0  0
   26.5261    6.9960    3.7488 H   0  0  0  0  0  0
   29.4104    8.3563    5.7205 H   0  0  0  0  0  0
   28.3098    8.1473    4.3852 H   0  0  0  0  0  0
   29.7548    7.1249    4.5075 H   0  0  0  0  0  0
   27.5376    7.1510    6.4458 H   0  0  0  0  0  0
   28.3229    5.1922    4.3740 H   0  0  0  0  0  0
   27.2975    4.7705    5.7068 H   0  0  0  0  0  0
   24.1875    4.2534    4.1873 H   0  0  0  0  0  0
   23.4657    2.8271    2.3262 H   0  0  0  0  0  0
   26.4251    3.7784   -1.0075 H   0  0  0  0  0  0
   23.9806    3.0493   -0.6372 H   0  0  0  0  0  0
   25.5881    7.0059    5.8124 H   0  0  0  0  0  0
  1  2  1  0  0  0
  1 16  1  0  0  0
  1 17  1  0  0  0
  1 18  1  0  0  0
  2  3  1  0  0  0
  2 19  1  0  0  0
  3  4  1  0  0  0
  3 20  1  0  0  0
  3 21  1  0  0  0
  4 15  1  0  0  0
  4  5  1  0  0  0
  4 14  1  0  0  0
  5 10  1  0  0  0
  5  6  2  0  0  0
  6  7  1  0  0  0
  6 22  1  0  0  0
  7  8  2  0  0  0
  7 23  1  0  0  0
  8  9  1  0  0  0
  8 13  1  0  0  0
  9 10  2  0  0  0
  9 12  1  0  0  0
 10 11  1  0  0  0
 12 24  1  0  0  0
 13 25  1  0  0  0
 14 26  1  0  0  0
M  END
> <s_m_entry_id>
4639

> <s_m_entry_name>
ligand_docking-pose.146

> <s_m_Source_Path>
/home/csk/Desktop/cluster/DUD-E-result/adrb1

> <s_m_Source_File>
ligand_docking-pose.sdf

> <i_m_Source_File_Index>
146

> <i_lp_mmshare_version>
53161

> <r_lp_tautomer_probability>
0.999999999999776

> <s_lp_Force_Field>
OPLS_2005

> <r_lp_Energy>
14.984236

> <b_lp_Chiralities_Consistent>
1

> <s_lp_Variant>
62607-1

> <s_i_glide_gridfile>
glide-grid_2vt4

> <i_i_glide_lignum>
818

> <i_i_glide_rotatable_bonds>
6

> <r_i_docking_score>
-6.98359454381484

> <r_i_glide_ligand_efficiency>
-0.49882818170106

> <r_i_glide_ligand_efficiency_sa>
-1.20224688222181

> <r_i_glide_ligand_efficiency_ln>
-1.91906692070531

> <r_i_glide_gscore>
-6.98359454381484

> <r_i_glide_lipo>
-2.26771745162231

> <r_i_glide_hbond>
-0.400110388676598

> <r_i_glide_metal>
0

> <r_i_glide_rewards>
-2.59748615218123

> <r_i_glide_evdw>
-23.6238899230957

> <r_i_glide_ecoul>
-8.97121334075928

> <r_i_glide_erotb>
0.808595945933971

> <r_i_glide_esite>
0

> <r_i_glide_emodel>
-43.5637565074155

> <r_i_glide_energy>
-32.595103263855

> <r_i_glide_einternal>
7.68902158737183

> <i_i_glide_confnum>
5

> <i_i_glide_posenum>
355

> <r_i_glide_eff_state_penalty>
0

> <i_f3d_flags>
0

> <s_user_duplicate_titles>
62607,62605

> <s_m_subgroup_title>
dock_pv

> <s_m_subgroupid>
dock_pv1

> <b_m_subgroup_collapsed>
0

$$$$
62620
                    3D
 Schrodinger Suite 2021-1.
 23 23  0  0  1  0            999 V2000
   27.5574    5.0501    2.5914 C   0  0  0  0  0  0
   28.1535    5.8313    3.5744 C   0  0  0  0  0  0
   27.4184    6.2595    4.6712 C   0  0  0  0  0  0
   26.0802    5.8668    4.8066 C   0  0  0  0  0  0
   25.4862    5.0625    3.8189 C   0  0  0  0  0  0
   26.2072    4.6706    2.6717 C   0  0  0  0  0  0
   25.5880    3.7969    1.5496 C   0  0  2  0  0  0
   26.1342    4.1027    0.1296 C   0  0  0  0  0  0
   25.8080    3.0502   -0.8150 N   0  0  0  0  0  0
   24.1772    3.8501    1.4508 O   0  0  0  0  0  0
   24.2105    4.6500    4.0056 F   0  0  0  0  0  0
   25.3473    6.2500    5.9084 O   0  0  0  0  0  0
   28.0562    7.0499    5.5941 O   0  0  0  0  0  0
   25.8080    2.7610    1.7934 H   0  0  0  0  0  0
   28.1885    4.7416    1.7749 H   0  0  0  0  0  0
   29.1940    6.1087    3.4792 H   0  0  0  0  0  0
   27.2198    4.1520    0.1172 H   0  0  0  0  0  0
   25.7841    5.0720   -0.2310 H   0  0  0  0  0  0
   25.1438    3.4273   -1.4958 H   0  0  0  0  0  0
   26.6414    2.8537   -1.3619 H   0  0  0  0  0  0
   23.9456    3.4792    0.5914 H   0  0  0  0  0  0
   25.8022    6.8570    6.4974 H   0  0  0  0  0  0
   27.4925    7.6555    6.0934 H   0  0  0  0  0  0
  1  6  1  0  0  0
  1  2  2  0  0  0
  1 15  1  0  0  0
  2  3  1  0  0  0
  2 16  1  0  0  0
  3  4  2  0  0  0
  3 13  1  0  0  0
  4  5  1  0  0  0
  4 12  1  0  0  0
  5  6  2  0  0  0
  5 11  1  0  0  0
  6  7  1  0  0  0
  7 14  1  0  0  0
  7  8  1  0  0  0
  7 10  1  0  0  0
  8  9  1  0  0  0
  8 17  1  0  0  0
  8 18  1  0  0  0
  9 19  1  0  0  0
  9 20  1  0  0  0
 10 21  1  0  0  0
 12 22  1  0  0  0
 13 23  1  0  0  0
M  END
> <s_m_entry_id>
4648

> <s_m_entry_name>
ligand_docking-pose.155

> <s_m_Source_Path>
/home/csk/Desktop/cluster/DUD-E-result/adrb1

> <s_m_Source_File>
ligand_docking-pose.sdf

> <i_m_Source_File_Index>
155

> <i_lp_mmshare_version>
53161

> <r_lp_tautomer_probability>
0.999999999999776

> <s_lp_Force_Field>
OPLS_2005

> <r_lp_Energy>
8.550176

> <b_lp_Chiralities_Consistent>
1

> <s_lp_Variant>
62620-1

> <s_i_glide_gridfile>
glide-grid_2vt4

> <i_i_glide_lignum>
525

> <i_i_glide_rotatable_bonds>
5

> <r_i_docking_score>
-6.95756750902305

> <r_i_glide_ligand_efficiency>
-0.535197500694081

> <r_i_glide_ligand_efficiency_sa>
-1.25842844708751

> <r_i_glide_ligand_efficiency_ln>
-1.95165956410031

> <r_i_glide_gscore>
-6.95756750902305

> <r_i_glide_lipo>
-1.48870345282729

> <r_i_glide_hbond>
-0.636733547456424

> <r_i_glide_metal>
0

> <r_i_glide_rewards>
-2.68132947749336

> <r_i_glide_evdw>
-18.6563739776611

> <r_i_glide_ecoul>
-11.158709526062

> <r_i_glide_erotb>
0.455824096546382

> <r_i_glide_esite>
0

> <r_i_glide_emodel>
-38.1951106098264

> <r_i_glide_energy>
-29.8150835037231

> <r_i_glide_einternal>
10.0098428726196

> <i_i_glide_confnum>
3

> <i_i_glide_posenum>
191

> <r_i_glide_eff_state_penalty>
0

> <i_f3d_flags>
0

> <s_user_duplicate_titles>
62620,41969

> <s_m_subgroup_title>
dock_pv

> <s_m_subgroupid>
dock_pv1

> <b_m_subgroup_collapsed>
0

$$$$
262683
                    3D
 Schrodinger Suite 2021-1.
 62 63  0  0  1  0            999 V2000
   31.3559    7.0563    4.9048 C   0  0  0  0  0  0
   30.6371    6.5762    3.6311 C   0  0  1  0  0  0
   31.5354    5.6478    2.7677 C   0  0  0  0  0  0
   32.4294    6.4048    1.7890 C   0  0  0  0  0  0
   33.2243    5.4875    0.8409 C   0  0  0  0  0  0
   34.1907    6.1687   -0.1461 C   0  0  0  0  0  0
   34.9825    5.1540   -1.0077 C   0  0  0  0  0  0
   34.1415    4.2412   -1.7917 N   0  0  0  0  0  0
   33.3350    4.6863   -2.8232 C   0  0  0  0  0  0
   33.2494    5.8500   -3.1993 O   0  0  0  0  0  0
   32.6444    3.6592   -3.3634 O   0  0  0  0  0  0
   31.8173    3.8575   -4.5178 C   0  0  0  0  0  0
   30.5124    4.5821   -4.1901 C   0  0  0  0  0  0
   29.4080    3.8500   -3.7564 C   0  0  0  0  0  0
   28.2109    4.4984   -3.4610 C   0  0  0  0  0  0
   28.1259    5.8829   -3.5811 C   0  0  0  0  0  0
   29.2234    6.6219   -4.0152 C   0  0  0  0  0  0
   30.4109    5.9690   -4.3382 C   0  0  0  0  0  0
   29.4080    5.8500    3.9411 N   0  0  2  0  0  0
   28.3250    6.5985    4.5704 C   0  0  0  0  0  0
   26.9797    5.8171    4.6388 C   0  0  2  0  0  0
   26.4098    5.2145    3.3337 C   0  0  0  0  0  0
   25.2214    4.4715    3.3925 C   0  0  0  0  0  0
   24.7313    3.7974    2.2711 C   0  0  0  0  0  0
   25.4306    3.8537    1.0657 C   0  0  0  0  0  0
   26.5769    4.6510    0.9689 C   0  0  0  0  0  0
   27.0488    5.3337    2.0891 C   0  0  0  0  0  0
   27.2544    4.7587   -0.2183 O   0  0  0  0  0  0
   25.0081    3.1225   -0.0149 O   0  0  0  0  0  0
   26.0319    6.6497    5.2895 O   0  0  0  0  0  0
   32.3410    7.4501    4.6601 H   0  0  0  0  0  0
   30.8025    7.8505    5.4054 H   0  0  0  0  0  0
   31.5145    6.2500    5.6180 H   0  0  0  0  0  0
   30.3673    7.4493    3.0350 H   0  0  0  0  0  0
   32.2084    5.0501    3.3825 H   0  0  0  0  0  0
   30.9286    4.9398    2.1977 H   0  0  0  0  0  0
   31.7779    7.0499    1.1987 H   0  0  0  0  0  0
   33.1122    7.0485    2.3471 H   0  0  0  0  0  0
   33.8108    4.7847    1.4286 H   0  0  0  0  0  0
   32.4979    4.9302    0.2558 H   0  0  0  0  0  0
   33.6433    6.8349   -0.8139 H   0  0  0  0  0  0
   34.8900    6.8020    0.4011 H   0  0  0  0  0  0
   35.6888    5.6717   -1.6607 H   0  0  0  0  0  0
   35.5774    4.5179   -0.3504 H   0  0  0  0  0  0
   34.1298    3.2601   -1.5599 H   0  0  0  0  0  0
   32.3580    4.3997   -5.2959 H   0  0  0  0  0  0
   31.5780    2.8834   -4.9458 H   0  0  0  0  0  0
   29.4723    2.7773   -3.6472 H   0  0  0  0  0  0
   27.3534    3.9265   -3.1360 H   0  0  0  0  0  0
   27.1961    6.3823   -3.3482 H   0  0  0  0  0  0
   29.1485    7.6944   -4.1239 H   0  0  0  0  0  0
   31.2513    6.5462   -4.6970 H   0  0  0  0  0  0
   29.6398    4.9653    4.3850 H   0  0  0  0  0  0
   28.1683    7.4910    3.9852 H   0  0  0  0  0  0
   28.6281    6.9072    5.5715 H   0  0  0  0  0  0
   27.1459    4.9666    5.3018 H   0  0  0  0  0  0
   24.6862    4.3888    4.3271 H   0  0  0  0  0  0
   23.8334    3.2026    2.3520 H   0  0  0  0  0  0
   27.9390    5.9282    1.9696 H   0  0  0  0  0  0
   26.8096    4.2613   -0.9128 H   0  0  0  0  0  0
   24.0539    3.0538   -0.1311 H   0  0  0  0  0  0
   26.4761    7.2135    5.9331 H   0  0  0  0  0  0
  1  2  1  0  0  0
  1 31  1  0  0  0
  1 32  1  0  0  0
  1 33  1  0  0  0
  2  3  1  0  0  0
  2 19  1  0  0  0
  2 34  1  0  0  0
  3  4  1  0  0  0
  3 35  1  0  0  0
  3 36  1  0  0  0
  4  5  1  0  0  0
  4 37  1  0  0  0
  4 38  1  0  0  0
  5  6  1  0  0  0
  5 39  1  0  0  0
  5 40  1  0  0  0
  6  7  1  0  0  0
  6 41  1  0  0  0
  6 42  1  0  0  0
  7  8  1  0  0  0
  7 43  1  0  0  0
  7 44  1  0  0  0
  8  9  1  0  0  0
  8 45  1  0  0  0
  9 10  2  0  0  0
  9 11  1  0  0  0
 11 12  1  0  0  0
 12 13  1  0  0  0
 12 46  1  0  0  0
 12 47  1  0  0  0
 13 18  1  0  0  0
 13 14  2  0  0  0
 14 15  1  0  0  0
 14 48  1  0  0  0
 15 16  2  0  0  0
 15 49  1  0  0  0
 16 17  1  0  0  0
 16 50  1  0  0  0
 17 18  2  0  0  0
 17 51  1  0  0  0
 18 52  1  0  0  0
 19 20  1  0  0  0
 19 53  1  0  0  0
 20 21  1  0  0  0
 20 54  1  0  0  0
 20 55  1  0  0  0
 21 22  1  0  0  0
 21 30  1  0  0  0
 21 56  1  0  0  0
 22 27  1  0  0  0
 22 23  2  0  0  0
 23 24  1  0  0  0
 23 57  1  0  0  0
 24 25  2  0  0  0
 24 58  1  0  0  0
 25 26  1  0  0  0
 25 29  1  0  0  0
 26 27  2  0  0  0
 26 28  1  0  0  0
 27 59  1  0  0  0
 28 60  1  0  0  0
 29 61  1  0  0  0
 30 62  1  0  0  0
M  END
> <s_m_entry_id>
4653

> <s_m_entry_name>
ligand_docking-pose.160

> <s_m_Source_Path>
/home/csk/Desktop/cluster/DUD-E-result/adrb1

> <s_m_Source_File>
ligand_docking-pose.sdf

> <i_m_Source_File_Index>
160

> <i_lp_mmshare_version>
53161

> <r_lp_tautomer_probability>
0.999999999999776

> <s_lp_Force_Field>
OPLS_2005

> <r_lp_Energy>
21.59683

> <b_lp_Chiralities_Consistent>
1

> <s_lp_Variant>
262683-2

> <s_i_glide_gridfile>
glide-grid_2vt4

> <i_i_glide_lignum>
202

> <i_i_glide_rotatable_bonds>
17

> <r_i_docking_score>
-6.92710736976531

> <r_i_glide_ligand_efficiency>
-0.230903578992177

> <r_i_glide_ligand_efficiency_sa>
-0.717471105572157

> <r_i_glide_ligand_efficiency_ln>
-1.5739142712907

> <r_i_glide_gscore>
-6.92710736976531

> <r_i_glide_lipo>
-2.88955854426239

> <r_i_glide_hbond>
-0.728805995909832

> <r_i_glide_metal>
0

> <r_i_glide_rewards>
-1.31857967633483

> <r_i_glide_evdw>
-35.7895431518555

> <r_i_glide_ecoul>
-11.2078104019165

> <r_i_glide_erotb>
1.48048556462199

> <r_i_glide_esite>
0

> <r_i_glide_emodel>
-61.5663924929777

> <r_i_glide_energy>
-46.997353553772

> <r_i_glide_einternal>
9.32870674133301

> <i_i_glide_confnum>
23

> <i_i_glide_posenum>
322

> <r_i_glide_eff_state_penalty>
0

> <i_f3d_flags>
0

> <s_user_duplicate_titles>
262683

> <s_m_subgroup_title>
dock_pv

> <s_m_subgroupid>
dock_pv1

> <b_m_subgroup_collapsed>
0

$$$$
11423
                    3D
 Schrodinger Suite 2021-1.
 57 59  0  0  1  0            999 V2000
   27.4912    5.9637   -2.0818 C   0  0  0  0  0  0
   28.4445    6.2504   -3.0634 C   0  0  0  0  0  0
   29.6946    5.6216   -3.0413 C   0  0  0  0  0  0
   29.9740    4.6977   -2.0347 C   0  0  0  0  0  0
   29.0074    4.3724   -1.1006 C   0  0  0  0  0  0
   27.7730    5.0194   -1.0900 C   0  0  0  0  0  0
   26.7608    4.6883    0.0070 C   0  0  0  0  0  0
   26.7545    5.7373    1.1395 C   0  0  0  0  0  0
   26.2081    5.2119    2.3975 N   0  0  1  0  0  0
   25.9938    6.2997    3.3636 C   0  0  0  0  0  0
   25.9568    5.8566    4.8321 C   0  0  1  0  0  0
   27.3205    5.4364    5.4232 C   0  0  0  0  0  0
   28.3047    6.4745    5.2891 O   0  0  0  0  0  0
   29.2903    6.3914    4.3194 C   0  0  0  0  0  0
   30.3430    7.3038    4.4075 C   0  0  0  0  0  0
   31.4049    7.2454    3.5055 C   0  0  0  0  0  0
   31.4086    6.2887    2.4967 C   0  0  0  0  0  0
   30.3626    5.3878    2.3847 C   0  0  0  0  0  0
   29.3068    5.4447    3.2841 C   0  0  0  0  0  0
   32.4243    6.2500    1.5849 O   0  0  0  0  0  0
   25.4197    6.9167    5.6035 O   0  0  0  0  0  0
   30.6309    5.9183   -4.0442 N   0  0  0  0  0  0
   31.7646    4.7236   -4.7383 S   0  0  0  0  0  0
   32.5381    5.4481   -5.7513 O   0  0  0  0  0  0
   32.4542    4.0238   -3.6506 O   0  0  0  0  0  0
   30.7802    3.5110   -5.6164 C   0  0  0  0  0  0
   31.2389    3.0527   -6.8517 C   0  0  0  0  0  0
   30.4199    2.2497   -7.6347 C   0  0  0  0  0  0
   29.1577    1.8899   -7.1697 C   0  0  0  0  0  0
   28.7446    2.2465   -5.8898 C   0  0  0  0  0  0
   29.5624    3.0503   -5.1045 C   0  0  0  0  0  0
   28.0743    1.0500   -8.2075 Cl  0  0  0  0  0  0
   25.2339    5.0501    4.9235 H   0  0  0  0  0  0
   26.5320    6.4597   -2.1046 H   0  0  0  0  0  0
   28.2047    6.9668   -3.8367 H   0  0  0  0  0  0
   30.9163    4.1854   -1.9628 H   0  0  0  0  0  0
   29.2389    3.5829   -0.4150 H   0  0  0  0  0  0
   27.0027    3.7024    0.4075 H   0  0  0  0  0  0
   25.7650    4.5821   -0.4274 H   0  0  0  0  0  0
   26.2080    6.6155    0.7956 H   0  0  0  0  0  0
   27.7719    6.0855    1.3056 H   0  0  0  0  0  0
   25.3332    4.7433    2.2002 H   0  0  0  0  0  0
   25.0384    6.7892    3.1850 H   0  0  0  0  0  0
   26.7671    7.0499    3.2594 H   0  0  0  0  0  0
   27.6409    4.4703    5.0354 H   0  0  0  0  0  0
   27.1943    5.2621    6.4912 H   0  0  0  0  0  0
   30.3506    8.0501    5.1874 H   0  0  0  0  0  0
   32.2244    7.9407    3.5853 H   0  0  0  0  0  0
   30.3705    4.6438    1.6032 H   0  0  0  0  0  0
   28.5364    4.7024    3.1731 H   0  0  0  0  0  0
   32.6796    7.1443    1.2970 H   0  0  0  0  0  0
   26.1362    7.5009    5.8853 H   0  0  0  0  0  0
   30.4001    6.6744   -4.6729 H   0  0  0  0  0  0
   32.1935    3.3786   -7.2406 H   0  0  0  0  0  0
   30.7484    1.9603   -8.6207 H   0  0  0  0  0  0
   27.7769    1.9421   -5.5182 H   0  0  0  0  0  0
   29.2031    3.3395   -4.1311 H   0  0  0  0  0  0
  1  6  1  0  0  0
  1  2  2  0  0  0
  1 34  1  0  0  0
  2  3  1  0  0  0
  2 35  1  0  0  0
  3  4  2  0  0  0
  3 22  1  0  0  0
  4  5  1  0  0  0
  4 36  1  0  0  0
  5  6  2  0  0  0
  5 37  1  0  0  0
  6  7  1  0  0  0
  7  8  1  0  0  0
  7 38  1  0  0  0
  7 39  1  0  0  0
  8  9  1  0  0  0
  8 40  1  0  0  0
  8 41  1  0  0  0
  9 10  1  0  0  0
  9 42  1  0  0  0
 10 11  1  0  0  0
 10 43  1  0  0  0
 10 44  1  0  0  0
 11 33  1  0  0  0
 11 12  1  0  0  0
 11 21  1  0  0  0
 12 13  1  0  0  0
 12 45  1  0  0  0
 12 46  1  0  0  0
 13 14  1  0  0  0
 14 19  1  0  0  0
 14 15  2  0  0  0
 15 16  1  0  0  0
 15 47  1  0  0  0
 16 17  2  0  0  0
 16 48  1  0  0  0
 17 18  1  0  0  0
 17 20  1  0  0  0
 18 19  2  0  0  0
 18 49  1  0  0  0
 19 50  1  0  0  0
 20 51  1  0  0  0
 21 52  1  0  0  0
 22 23  1  0  0  0
 22 53  1  0  0  0
 23 24  2  0  0  0
 23 25  2  0  0  0
 23 26  1  0  0  0
 26 31  1  0  0  0
 26 27  2  0  0  0
 27 28  1  0  0  0
 27 54  1  0  0  0
 28 29  2  0  0  0
 28 55  1  0  0  0
 29 30  1  0  0  0
 29 32  1  0  0  0
 30 31  2  0  0  0
 30 56  1  0  0  0
 31 57  1  0  0  0
M  END
> <s_m_entry_id>
4658

> <s_m_entry_name>
ligand_docking-pose.165

> <s_m_Source_Path>
/home/csk/Desktop/cluster/DUD-E-result/adrb1

> <s_m_Source_File>
ligand_docking-pose.sdf

> <i_m_Source_File_Index>
165

> <i_lp_mmshare_version>
53161

> <r_lp_tautomer_probability>
1

> <s_lp_Force_Field>
OPLS_2005

> <r_lp_Energy>
21.091242

> <b_lp_Chiralities_Consistent>
1

> <s_lp_Variant>
11423-1

> <s_i_glide_gridfile>
glide-grid_2vt4

> <i_i_glide_lignum>
774

> <i_i_glide_rotatable_bonds>
13

> <r_i_docking_score>
-6.89441140739254

> <r_i_glide_ligand_efficiency>
-0.215450356481017

> <r_i_glide_ligand_efficiency_sa>
-0.684012244259578

> <r_i_glide_ligand_efficiency_ln>
-1.54384664867221

> <r_i_glide_gscore>
-6.89441140739254

> <r_i_glide_lipo>
-3.02786322631233

> <r_i_glide_hbond>
-0.382772688816147

> <r_i_glide_metal>
0

> <r_i_glide_rewards>
-0.372132699108379

> <r_i_glide_evdw>
-47.8513145446777

> <r_i_glide_ecoul>
-11.3224020004272

> <r_i_glide_erotb>
0.979283234142284

> <r_i_glide_esite>
0

> <r_i_glide_emodel>
-74.7937535986903

> <r_i_glide_energy>
-59.173716545105

> <r_i_glide_einternal>
14.9224376678467

> <i_i_glide_confnum>
84

> <i_i_glide_posenum>
103

> <r_i_glide_eff_state_penalty>
0

> <i_f3d_flags>
0

> <s_user_duplicate_titles>
11423

> <s_m_subgroup_title>
dock_pv

> <s_m_subgroupid>
dock_pv1

> <b_m_subgroup_collapsed>
0

$$$$
545132
                    3D
 Schrodinger Suite 2021-1.
 56 58  0  0  1  0            999 V2000
   35.6588    5.7153    1.0979 C   0  0  0  0  0  0
   35.7342    6.6754   -0.1038 C   0  0  0  0  0  0
   35.5388    5.9955   -1.3397 O   0  0  0  0  0  0
   34.3040    5.6305   -1.7497 C   0  0  0  0  0  0
   33.2544    5.8498   -1.1410 O   0  0  0  0  0  0
   34.3384    4.8797   -3.0884 C   0  0  0  0  0  0
   33.1638    3.9041   -3.3626 C   0  0  0  0  0  0
   31.7819    4.5491   -3.4036 C   0  0  0  0  0  0
   31.4546    5.4497   -4.4144 C   0  0  0  0  0  0
   30.2018    6.0526   -4.4244 C   0  0  0  0  0  0
   29.2478    5.7760   -3.4418 C   0  0  0  0  0  0
   29.5857    4.8920   -2.3942 C   0  0  0  0  0  0
   30.8400    4.2705   -2.4111 C   0  0  0  0  0  0
   28.6354    4.6634   -1.2155 C   0  0  0  0  0  0
   27.1594    4.9734   -1.5598 C   0  0  2  0  0  0
   27.0970    6.3628   -2.2150 C   0  0  0  0  0  0
   27.8474    6.3770   -3.5532 C   0  0  0  0  0  0
   26.2549    4.9321   -0.4150 N   0  0  2  0  0  0
   26.0540    3.5997    0.1457 C   0  0  0  0  0  0
   25.2756    3.6487    1.4876 C   0  0  1  0  0  0
   25.8352    4.5996    2.5753 C   0  0  0  0  0  0
   27.1692    5.0461    2.5521 C   0  0  0  0  0  0
   27.6803    5.8497    3.5708 C   0  0  0  0  0  0
   26.8611    6.2414    4.6259 C   0  0  0  0  0  0
   25.5380    5.8075    4.6663 C   0  0  0  0  0  0
   25.0325    4.9843    3.6575 C   0  0  0  0  0  0
   24.5354    6.2645    5.9850 Cl  0  0  0  0  0  0
   23.8994    3.8502    1.1929 O   0  0  0  0  0  0
   26.8308    4.2219   -2.2799 H   0  0  0  0  0  0
   25.3251    2.6482    1.9211 H   0  0  0  0  0  0
   35.8880    6.2388    2.0262 H   0  0  0  0  0  0
   36.3710    4.8940    0.9883 H   0  0  0  0  0  0
   34.6634    5.2836    1.1980 H   0  0  0  0  0  0
   35.0122    7.4873    0.0059 H   0  0  0  0  0  0
   36.7213    7.1384   -0.1325 H   0  0  0  0  0  0
   34.4141    5.6096   -3.8943 H   0  0  0  0  0  0
   35.2703    4.3155   -3.1226 H   0  0  0  0  0  0
   33.3276    3.4127   -4.3237 H   0  0  0  0  0  0
   33.1790    3.0922   -2.6331 H   0  0  0  0  0  0
   32.1669    5.6879   -5.1920 H   0  0  0  0  0  0
   29.9566    6.7394   -5.2190 H   0  0  0  0  0  0
   31.1030    3.5921   -1.6144 H   0  0  0  0  0  0
   28.7510    3.6585   -0.8148 H   0  0  0  0  0  0
   28.9558    5.3452   -0.4276 H   0  0  0  0  0  0
   27.4966    7.1136   -1.5323 H   0  0  0  0  0  0
   26.0594    6.6496   -2.3957 H   0  0  0  0  0  0
   27.8910    7.3927   -3.9495 H   0  0  0  0  0  0
   27.2805    5.7874   -4.2742 H   0  0  0  0  0  0
   25.3599    5.2949   -0.7161 H   0  0  0  0  0  0
   25.5352    2.9662   -0.5778 H   0  0  0  0  0  0
   27.0079    3.1157    0.3333 H   0  0  0  0  0  0
   27.8330    4.7605    1.7513 H   0  0  0  0  0  0
   28.7104    6.1730    3.5345 H   0  0  0  0  0  0
   27.2476    6.8731    5.4139 H   0  0  0  0  0  0
   24.0083    4.6454    3.7149 H   0  0  0  0  0  0
   23.7233    3.5611    0.2885 H   0  0  0  0  0  0
  1  2  1  0  0  0
  1 31  1  0  0  0
  1 32  1  0  0  0
  1 33  1  0  0  0
  2  3  1  0  0  0
  2 34  1  0  0  0
  2 35  1  0  0  0
  3  4  1  0  0  0
  4  5  2  0  0  0
  4  6  1  0  0  0
  6  7  1  0  0  0
  6 36  1  0  0  0
  6 37  1  0  0  0
  7  8  1  0  0  0
  7 38  1  0  0  0
  7 39  1  0  0  0
  8 13  1  0  0  0
  8  9  2  0  0  0
  9 10  1  0  0  0
  9 40  1  0  0  0
 10 11  2  0  0  0
 10 41  1  0  0  0
 11 17  1  0  0  0
 11 12  1  0  0  0
 12 13  2  0  0  0
 12 14  1  0  0  0
 13 42  1  0  0  0
 14 15  1  0  0  0
 14 43  1  0  0  0
 14 44  1  0  0  0
 15 29  1  0  0  0
 15 16  1  0  0  0
 15 18  1  0  0  0
 16 17  1  0  0  0
 16 45  1  0  0  0
 16 46  1  0  0  0
 17 47  1  0  0  0
 17 48  1  0  0  0
 18 19  1  0  0  0
 18 49  1  0  0  0
 19 20  1  0  0  0
 19 50  1  0  0  0
 19 51  1  0  0  0
 20 30  1  0  0  0
 20 21  1  0  0  0
 20 28  1  0  0  0
 21 26  1  0  0  0
 21 22  2  0  0  0
 22 23  1  0  0  0
 22 52  1  0  0  0
 23 24  2  0  0  0
 23 53  1  0  0  0
 24 25  1  0  0  0
 24 54  1  0  0  0
 25 26  2  0  0  0
 25 27  1  0  0  0
 26 55  1  0  0  0
 28 56  1  0  0  0
M  END
> <s_m_entry_id>
4661

> <s_m_entry_name>
ligand_docking-pose.168

> <s_m_Source_Path>
/home/csk/Desktop/cluster/DUD-E-result/adrb1

> <s_m_Source_File>
ligand_docking-pose.sdf

> <i_m_Source_File_Index>
168

> <i_lp_mmshare_version>
53161

> <r_lp_tautomer_probability>
1

> <s_lp_Force_Field>
OPLS_2005

> <r_lp_Energy>
25.785843

> <b_lp_Chiralities_Consistent>
1

> <s_lp_Variant>
545132-1

> <s_i_glide_gridfile>
glide-grid_2vt4

> <i_i_glide_lignum>
42

> <i_i_glide_rotatable_bonds>
10

> <r_i_docking_score>
-6.88304408944267

> <r_i_glide_ligand_efficiency>
-0.245823003194381

> <r_i_glide_ligand_efficiency_sa>
-0.74646341970429

> <r_i_glide_ligand_efficiency_ln>
-1.58880867079941

> <r_i_glide_gscore>
-6.88304408944267

> <r_i_glide_lipo>
-3.36951471023398

> <r_i_glide_hbond>
0

> <r_i_glide_metal>
0

> <r_i_glide_rewards>
-1.53101517003875

> <r_i_glide_evdw>
-47.5201721191406

> <r_i_glide_ecoul>
-3.04414534568787

> <r_i_glide_erotb>
0.850116198640279

> <r_i_glide_esite>
0

> <r_i_glide_emodel>
-71.3130395885845

> <r_i_glide_energy>
-50.5643174648285

> <r_i_glide_einternal>
4.54011726379395

> <i_i_glide_confnum>
63

> <i_i_glide_posenum>
262

> <r_i_glide_eff_state_penalty>
0

> <i_f3d_flags>
0

> <s_user_duplicate_titles>
545132

> <s_m_subgroup_title>
dock_pv

> <s_m_subgroupid>
dock_pv1

> <b_m_subgroup_collapsed>
0

$$$$
263702
                    3D
 Schrodinger Suite 2021-1.
 41 43  0  0  1  0            999 V2000
   25.4976    6.2603    6.2112 C   0  0  0  0  0  0
   26.7038    5.8508    5.5823 O   0  0  0  0  0  0
   26.6381    5.4118    4.2765 C   0  0  0  0  0  0
   25.4977    4.8009    3.7400 C   0  0  0  0  0  0
   25.4702    4.3210    2.4328 C   0  0  0  0  0  0
   26.5893    4.5177    1.5996 C   0  0  0  0  0  0
   27.7339    5.1147    2.1443 C   0  0  0  0  0  0
   27.7732    5.5390    3.4710 C   0  0  0  0  0  0
   28.9244    6.1019    3.9627 O   0  0  0  0  0  0
   26.5168    4.1727    0.1032 C   0  0  1  0  0  0
   25.4082    3.2799   -0.2426 N   0  0  1  0  0  0
   24.1480    3.6655    0.3850 C   0  0  0  0  0  0
   24.2522    3.5752    1.9109 C   0  0  0  0  0  0
   26.6127    5.4533   -0.7811 C   0  0  0  0  0  0
   27.7803    5.5616   -1.7694 C   0  0  0  0  0  0
   27.6490    6.4525   -2.8385 C   0  0  0  0  0  0
   28.7027    6.6571   -3.7261 C   0  0  0  0  0  0
   29.9074    5.9721   -3.5674 C   0  0  0  0  0  0
   30.0411    5.0514   -2.5176 C   0  0  0  0  0  0
   28.9852    4.8569   -1.6214 C   0  0  0  0  0  0
   31.2075    4.3530   -2.3305 O   0  0  0  0  0  0
   30.9533    6.2444   -4.4151 O   0  0  0  0  0  0
   25.7577    6.6500    7.1850 H   0  0  0  0  0  0
   25.0028    7.0565    5.6531 H   0  0  0  0  0  0
   24.7960    5.4472    6.3781 H   0  0  0  0  0  0
   24.6213    4.6502    4.3489 H   0  0  0  0  0  0
   28.5985    5.2610    1.5164 H   0  0  0  0  0  0
   29.6801    6.0091    3.3779 H   0  0  0  0  0  0
   27.3607    3.5167   -0.0857 H   0  0  0  0  0  0
   25.2634    3.3438   -1.2491 H   0  0  0  0  0  0
   23.8322    4.6604    0.0658 H   0  0  0  0  0  0
   23.3760    2.9812    0.0345 H   0  0  0  0  0  0
   23.3360    3.9498    2.3685 H   0  0  0  0  0  0
   24.3302    2.5247    2.1987 H   0  0  0  0  0  0
   26.6595    6.3471   -0.1567 H   0  0  0  0  0  0
   25.6826    5.5725   -1.3367 H   0  0  0  0  0  0
   26.7318    7.0081   -2.9738 H   0  0  0  0  0  0
   28.5853    7.3829   -4.5148 H   0  0  0  0  0  0
   29.1334    4.1718   -0.8050 H   0  0  0  0  0  0
   31.1300    3.6553   -1.6790 H   0  0  0  0  0  0
   30.7824    6.9306   -5.0713 H   0  0  0  0  0  0
  1  2  1  0  0  0
  1 23  1  0  0  0
  1 24  1  0  0  0
  1 25  1  0  0  0
  2  3  1  0  0  0
  3  8  1  0  0  0
  3  4  2  0  0  0
  4  5  1  0  0  0
  4 26  1  0  0  0
  5 13  1  0  0  0
  5  6  2  0  0  0
  6  7  1  0  0  0
  6 10  1  0  0  0
  7  8  2  0  0  0
  7 27  1  0  0  0
  8  9  1  0  0  0
  9 28  1  0  0  0
 10 11  1  0  0  0
 10 14  1  0  0  0
 10 29  1  0  0  0
 11 12  1  0  0  0
 11 30  1  0  0  0
 12 13  1  0  0  0
 12 31  1  0  0  0
 12 32  1  0  0  0
 13 33  1  0  0  0
 13 34  1  0  0  0
 14 15  1  0  0  0
 14 35  1  0  0  0
 14 36  1  0  0  0
 15 20  1  0  0  0
 15 16  2  0  0  0
 16 17  1  0  0  0
 16 37  1  0  0  0
 17 18  2  0  0  0
 17 38  1  0  0  0
 18 19  1  0  0  0
 18 22  1  0  0  0
 19 20  2  0  0  0
 19 21  1  0  0  0
 20 39  1  0  0  0
 21 40  1  0  0  0
 22 41  1  0  0  0
M  END
> <s_m_entry_id>
4664

> <s_m_entry_name>
ligand_docking-pose.171

> <s_m_Source_Path>
/home/csk/Desktop/cluster/DUD-E-result/adrb1

> <s_m_Source_File>
ligand_docking-pose.sdf

> <i_m_Source_File_Index>
171

> <i_lp_mmshare_version>
53161

> <r_lp_tautomer_probability>
0.999999999999776

> <s_lp_Force_Field>
OPLS_2005

> <r_lp_Energy>
23.926771

> <b_lp_Chiralities_Consistent>
1

> <s_lp_Variant>
263702-1

> <s_i_glide_gridfile>
glide-grid_2vt4

> <i_i_glide_lignum>
622

> <i_i_glide_rotatable_bonds>
6

> <r_i_docking_score>
-6.86221235036289

> <r_i_glide_ligand_efficiency>
-0.311918743198313

> <r_i_glide_ligand_efficiency_sa>
-0.874008585509738

> <r_i_glide_ligand_efficiency_ln>
-1.6773750037059

> <r_i_glide_gscore>
-6.86221235036289

> <r_i_glide_lipo>
-2.33820550099049

> <r_i_glide_hbond>
-0.0751510363509946

> <r_i_glide_metal>
0

> <r_i_glide_rewards>
-1.93712787473719

> <r_i_glide_evdw>
-35.8893508911133

> <r_i_glide_ecoul>
-7.48285055160522

> <r_i_glide_erotb>
0.405167189012234

> <r_i_glide_esite>
0

> <r_i_glide_emodel>
-58.1483703408414

> <r_i_glide_energy>
-43.3722014427185

> <r_i_glide_einternal>
6.70003080368042

> <i_i_glide_confnum>
7

> <i_i_glide_posenum>
132

> <r_i_glide_eff_state_penalty>
0

> <i_f3d_flags>
0

> <s_user_duplicate_titles>
263702

> <s_m_subgroup_title>
dock_pv

> <s_m_subgroupid>
dock_pv1

> <b_m_subgroup_collapsed>
0

$$$$
630772
                    3D
 Schrodinger Suite 2021-1.
 65 70  0  0  1  0            999 V2000
   24.5639    5.8738    6.0724 C   0  0  0  0  0  0
   25.8034    6.4263    6.3090 C   0  0  0  0  0  0
   26.8614    6.2708    5.3996 C   0  0  0  0  0  0
   28.1554    6.8228    5.5760 C   0  0  0  0  0  0
   29.1299    6.6484    4.5976 C   0  0  0  0  0  0
   28.8419    5.9294    3.4406 C   0  0  0  0  0  0
   27.5582    5.4118    3.2227 C   0  0  0  0  0  0
   26.5783    5.5561    4.2173 C   0  0  0  0  0  0
   25.2948    4.9895    3.9847 C   0  0  0  0  0  0
   24.2996    5.1225    4.9433 C   0  0  0  0  0  0
   24.9494    4.2496    2.7328 C   0  0  0  0  0  0
   23.8450    3.7089    2.5826 O   0  0  0  0  0  0
   25.9562    4.2542    1.8061 N   0  0  0  0  0  0
   27.2357    4.7616    1.9114 C   0  0  0  0  0  0
   28.0674    4.7194    1.0073 O   0  0  0  0  0  0
   25.6045    3.5770    0.5536 C   0  0  0  0  0  0
   25.9427    4.3166   -0.7498 C   0  0  0  0  0  0
   26.0113    5.8620   -0.9084 C   0  0  0  0  0  0
   26.8712    6.3870   -2.0963 C   0  0  0  0  0  0
   28.0513    5.5660   -2.4087 N   0  0  1  0  0  0
   27.6041    4.2197   -2.7392 C   0  0  0  0  0  0
   26.9186    3.5142   -1.5687 C   0  0  0  0  0  0
   28.8519    6.1630   -3.4931 C   0  0  0  0  0  0
   30.1399    5.3986   -3.9502 C   0  0  1  0  0  0
   31.0589    4.8429   -2.8291 C   0  0  0  0  0  0
   31.9866    5.8416   -2.4235 O   0  0  0  0  0  0
   33.1528    5.3995   -1.8416 C   0  0  0  0  0  0
   33.4129    5.6585   -0.4991 C   0  0  0  0  0  0
   34.6182    5.2771    0.0868 C   0  0  0  0  0  0
   35.6145    4.6176   -0.6345 C   0  0  0  0  0  0
   35.3574    4.3680   -1.9866 C   0  0  0  0  0  0
   34.1349    4.7537   -2.6214 C   0  0  0  0  0  0
   34.2433    4.3593   -3.9985 C   0  0  0  0  0  0
   35.4769    3.7595   -4.1560 C   0  0  0  0  0  0
   36.1364    3.7634   -2.9514 N   0  0  0  0  0  0
   29.8093    4.3508   -4.8460 O   0  0  0  0  0  0
   37.0696    3.3920   -2.8338 H   0  0  0  0  0  0
   23.8080    6.0778    6.7854 H   0  0  0  0  0  0
   25.9087    7.0474    7.1822 H   0  0  0  0  0  0
   28.3816    7.3858    6.4674 H   0  0  0  0  0  0
   30.1144    7.0711    4.7344 H   0  0  0  0  0  0
   29.6206    5.8132    2.6992 H   0  0  0  0  0  0
   23.3080    4.7135    4.8060 H   0  0  0  0  0  0
   24.5510    3.2880    0.5009 H   0  0  0  0  0  0
   26.1161    2.6125    0.5806 H   0  0  0  0  0  0
   25.0082    4.1077   -1.2150 H   0  0  0  0  0  0
   26.4745    6.3324   -0.0454 H   0  0  0  0  0  0
   25.0002    6.2504   -0.9249 H   0  0  0  0  0  0
   27.2700    7.3621   -1.8131 H   0  0  0  0  0  0
   26.2551    6.5742   -2.9783 H   0  0  0  0  0  0
   27.0075    4.2061   -3.6511 H   0  0  0  0  0  0
   28.4843    3.6189   -2.9521 H   0  0  0  0  0  0
   26.3750    2.6549   -1.9357 H   0  0  0  0  0  0
   27.6927    3.1672   -0.8693 H   0  0  0  0  0  0
   29.1138    7.1785   -3.2179 H   0  0  0  0  0  0
   28.2075    6.2917   -4.3667 H   0  0  0  0  0  0
   30.7297    6.0917   -4.5534 H   0  0  0  0  0  0
   31.5859    3.9582   -3.1957 H   0  0  0  0  0  0
   30.4848    4.4942   -1.9700 H   0  0  0  0  0  0
   32.6719    6.1764    0.0932 H   0  0  0  0  0  0
   34.7826    5.4994    1.1313 H   0  0  0  0  0  0
   36.5441    4.3220   -0.1680 H   0  0  0  0  0  0
   33.5128    4.5031   -4.7828 H   0  0  0  0  0  0
   35.9548    3.3395   -5.0312 H   0  0  0  0  0  0
   29.2279    3.7366   -4.3924 H   0  0  0  0  0  0
  1 10  1  0  0  0
  1  2  2  0  0  0
  1 38  1  0  0  0
  2  3  1  0  0  0
  2 39  1  0  0  0
  3  8  2  0  0  0
  3  4  1  0  0  0
  4  5  2  0  0  0
  4 40  1  0  0  0
  5  6  1  0  0  0
  5 41  1  0  0  0
  6  7  2  0  0  0
  6 42  1  0  0  0
  7 14  1  0  0  0
  7  8  1  0  0  0
  8  9  1  0  0  0
  9 10  2  0  0  0
  9 11  1  0  0  0
 10 43  1  0  0  0
 11 12  2  0  0  0
 11 13  1  0  0  0
 13 14  1  0  0  0
 13 16  1  0  0  0
 14 15  2  0  0  0
 16 17  1  0  0  0
 16 44  1  0  0  0
 16 45  1  0  0  0
 17 22  1  0  0  0
 17 18  1  0  0  0
 17 46  1  0  0  0
 18 19  1  0  0  0
 18 47  1  0  0  0
 18 48  1  0  0  0
 19 20  1  0  0  0
 19 49  1  0  0  0
 19 50  1  0  0  0
 20 21  1  0  0  0
 20 23  1  0  0  0
 21 22  1  0  0  0
 21 51  1  0  0  0
 21 52  1  0  0  0
 22 53  1  0  0  0
 22 54  1  0  0  0
 23 24  1  0  0  0
 23 55  1  0  0  0
 23 56  1  0  0  0
 24 25  1  0  0  0
 24 36  1  0  0  0
 24 57  1  0  0  0
 25 26  1  0  0  0
 25 58  1  0  0  0
 25 59  1  0  0  0
 26 27  1  0  0  0
 27 32  1  0  0  0
 27 28  2  0  0  0
 28 29  1  0  0  0
 28 60  1  0  0  0
 29 30  2  0  0  0
 29 61  1  0  0  0
 30 31  1  0  0  0
 30 62  1  0  0  0
 31 35  1  0  0  0
 31 32  2  0  0  0
 32 33  1  0  0  0
 33 34  2  0  0  0
 33 63  1  0  0  0
 34 35  1  0  0  0
 34 64  1  0  0  0
 35 37  1  0  0  0
 36 65  1  0  0  0
M  END
> <s_m_entry_id>
4675

> <s_m_entry_name>
ligand_docking-pose.182

> <s_m_Source_Path>
/home/csk/Desktop/cluster/DUD-E-result/adrb1

> <s_m_Source_File>
ligand_docking-pose.sdf

> <i_m_Source_File_Index>
182

> <i_lp_mmshare_version>
53161

> <r_lp_tautomer_probability>
1

> <s_lp_Force_Field>
OPLS_2005

> <r_lp_Energy>
71.034691

> <b_lp_Chiralities_Consistent>
1

> <s_lp_Variant>
630772-2

> <s_i_glide_gridfile>
glide-grid_2vt4

> <i_i_glide_lignum>
321

> <i_i_glide_rotatable_bonds>
8

> <r_i_docking_score>
-6.81582171287415

> <r_i_glide_ligand_efficiency>
-0.189328380913171

> <r_i_glide_ligand_efficiency_sa>
-0.625148539179557

> <r_i_glide_ligand_efficiency_ln>
-1.48702815552671

> <r_i_glide_gscore>
-6.81582171287415

> <r_i_glide_lipo>
-3.13646317876667

> <r_i_glide_hbond>
-0.32

> <r_i_glide_metal>
0

> <r_i_glide_rewards>
-1.75557505324678

> <r_i_glide_evdw>
-22.5152111053467

> <r_i_glide_ecoul>
-6.65972566604614

> <r_i_glide_erotb>
0.520935924313551

> <r_i_glide_esite>
0

> <r_i_glide_emodel>
-37.5592921325751

> <r_i_glide_energy>
-29.1749367713928

> <r_i_glide_einternal>
24.0803394317627

> <i_i_glide_confnum>
2

> <i_i_glide_posenum>
218

> <r_i_glide_eff_state_penalty>
0

> <i_f3d_flags>
0

> <s_user_duplicate_titles>
630772

> <s_m_subgroup_title>
dock_pv

> <s_m_subgroupid>
dock_pv1

> <b_m_subgroup_collapsed>
0

$$$$
552177
                    3D
 Schrodinger Suite 2021-1.
 34 36  0  0  1  0            999 V2000
   30.2454    7.4199    4.9867 C   0  0  0  0  0  0
   29.4976    6.5022    4.0407 C   0  0  0  0  0  0
   29.8934    5.8030    2.9051 C   0  0  0  0  0  0
   28.9249    5.1220    2.3312 N   0  0  0  0  0  0
   27.8181    5.3958    3.0736 C   0  0  0  0  0  0
   28.1694    6.1773    4.1895 N   0  0  0  0  0  0
   27.2624    6.4907    5.1615 C   0  0  0  0  0  0
   25.9585    6.0397    5.0194 C   0  0  0  0  0  0
   25.5632    5.3147    3.9530 N   0  0  0  0  0  0
   26.4527    5.0149    2.9630 C   0  0  0  0  0  0
   25.9649    4.2670    1.8898 N   0  0  0  0  0  0
   24.6552    3.5969    1.9013 C   0  0  0  0  0  0
   24.7278    2.2627    1.1467 C   0  0  0  0  0  0
   25.0089    2.5052   -0.2567 N   0  0  0  0  0  0
   26.2932    3.1785   -0.4033 C   0  0  0  0  0  0
   26.4235    4.4362    0.4934 C   0  0  0  0  0  0
   24.8914    6.3313    6.0536 C   0  0  0  0  0  0
   31.2804    7.5624    4.6733 H   0  0  0  0  0  0
   29.7931    8.4108    5.0308 H   0  0  0  0  0  0
   30.2753    7.0370    6.0044 H   0  0  0  0  0  0
   30.8953    5.7932    2.4986 H   0  0  0  0  0  0
   27.6338    7.0502    5.9943 H   0  0  0  0  0  0
   24.3187    3.4035    2.9196 H   0  0  0  0  0  0
   23.9044    4.2521    1.4556 H   0  0  0  0  0  0
   23.8083    1.7111    1.2612 H   0  0  0  0  0  0
   25.5109    1.6448    1.5815 H   0  0  0  0  0  0
   24.2506    2.9612   -0.7689 H   0  0  0  0  0  0
   26.4324    3.4549   -1.4499 H   0  0  0  0  0  0
   27.0847    2.4770   -0.1415 H   0  0  0  0  0  0
   25.8106    5.2204    0.0462 H   0  0  0  0  0  0
   27.4427    4.8060    0.4310 H   0  0  0  0  0  0
   25.2488    7.0503    6.7849 H   0  0  0  0  0  0
   23.9973    6.7487    5.5879 H   0  0  0  0  0  0
   24.6073    5.4229    6.5848 H   0  0  0  0  0  0
  1  2  1  0  0  0
  1 18  1  0  0  0
  1 19  1  0  0  0
  1 20  1  0  0  0
  2  6  1  0  0  0
  2  3  2  0  0  0
  3  4  1  0  0  0
  3 21  1  0  0  0
  4  5  2  0  0  0
  5 10  1  0  0  0
  5  6  1  0  0  0
  6  7  1  0  0  0
  7  8  2  0  0  0
  7 22  1  0  0  0
  8  9  1  0  0  0
  8 17  1  0  0  0
  9 10  2  0  0  0
 10 11  1  0  0  0
 11 16  1  0  0  0
 11 12  1  0  0  0
 12 13  1  0  0  0
 12 23  1  0  0  0
 12 24  1  0  0  0
 13 14  1  0  0  0
 13 25  1  0  0  0
 13 26  1  0  0  0
 14 15  1  0  0  0
 14 27  1  0  0  0
 15 16  1  0  0  0
 15 28  1  0  0  0
 15 29  1  0  0  0
 16 30  1  0  0  0
 16 31  1  0  0  0
 17 32  1  0  0  0
 17 33  1  0  0  0
 17 34  1  0  0  0
M  END
> <s_m_entry_id>
4678

> <s_m_entry_name>
ligand_docking-pose.185

> <s_m_Source_Path>
/home/csk/Desktop/cluster/DUD-E-result/adrb1

> <s_m_Source_File>
ligand_docking-pose.sdf

> <i_m_Source_File_Index>
185

> <i_lp_mmshare_version>
53161

> <r_lp_tautomer_probability>
1

> <s_lp_Force_Field>
OPLS_2005

> <r_lp_Energy>
32.235702

> <b_lp_Chiralities_Consistent>
1

> <s_lp_Variant>
552177-1

> <s_i_glide_gridfile>
glide-grid_2vt4

> <i_i_glide_lignum>
546

> <i_i_glide_rotatable_bonds>
1

> <r_i_docking_score>
-6.80068375983429

> <r_i_glide_ligand_efficiency>
-0.400040221166723

> <r_i_glide_ligand_efficiency_sa>
-1.02861605523741

> <r_i_glide_ligand_efficiency_ln>
-1.77414694915936

> <r_i_glide_gscore>
-6.80068375983429

> <r_i_glide_lipo>
-2.07425510013451

> <r_i_glide_hbond>
-0.278896807077367

> <r_i_glide_metal>
0

> <r_i_glide_rewards>
-2.75435211599932

> <r_i_glide_evdw>
-26.4282779693604

> <r_i_glide_ecoul>
-4.60995054244995

> <r_i_glide_erotb>
0.319726743212412

> <r_i_glide_esite>
0

> <r_i_glide_emodel>
-39.4120976842728

> <r_i_glide_energy>
-31.0382285118103

> <r_i_glide_einternal>
1.89825344085693

> <i_i_glide_confnum>
15

> <i_i_glide_posenum>
388

> <r_i_glide_eff_state_penalty>
0

> <i_f3d_flags>
0

> <s_user_duplicate_titles>
552177

> <s_m_subgroup_title>
dock_pv

> <s_m_subgroupid>
dock_pv1

> <b_m_subgroup_collapsed>
0

$$$$
