CHEMBL3717_lig3678
                    3D
 Schrodinger Suite 2021-1.
 42 45  0  0  1  0            999 V2000
   -4.9929    5.1603   30.8460 N   0  0  0  0  0  0
   -5.3366    3.8457   30.5306 C   0  0  0  0  0  0
   -4.4071    2.7906   30.3811 C   0  0  0  0  0  0
   -3.0371    2.9786   30.6081 N   0  0  0  0  0  0
   -2.1386    4.0465   30.6570 C   0  0  0  0  0  0
   -2.5162    5.4020   30.6085 C   0  0  0  0  0  0
   -3.9252    5.9482   30.6693 C   0  0  0  0  0  0
   -4.8967    1.5175   30.0232 C   0  0  0  0  0  0
   -6.2548    1.2893   29.8199 C   0  0  0  0  0  0
   -7.1599    2.3286   29.9748 C   0  0  0  0  0  0
   -6.6978    3.5927   30.3199 C   0  0  0  0  0  0
   -1.5133    6.3888   30.4989 C   0  0  0  0  0  0
   -0.1676    6.0612   30.4693 C   0  0  0  0  0  0
    0.2117    4.7322   30.5449 C   0  0  0  0  0  0
   -0.7727    3.7628   30.6567 C   0  0  0  0  0  0
   -4.0954    7.1569   30.6080 O   0  0  0  0  0  0
    1.6219    4.3537   30.3804 C   0  0  0  0  0  0
    2.0539    3.8570   29.1529 C   0  0  0  0  0  0
    3.4179    3.6460   28.8992 C   0  0  0  0  0  0
    4.3462    3.9773   29.8888 C   0  0  0  0  0  0
    3.9025    4.3573   31.1455 C   0  0  0  0  0  0
    2.5472    4.5430   31.4010 C   0  0  0  0  0  0
    3.8895    3.1560   27.7046 O   0  0  0  0  0  0
    2.9971    2.3563   26.9420 C   0  0  0  0  0  0
    5.6951    3.9528   29.6489 O   0  0  0  0  0  0
   -4.0386    0.4590   29.8489 O   0  0  0  0  0  0
   -5.8020    5.7522   30.9460 H   0  0  0  0  0  0
   -2.5622    2.0871   30.5809 H   0  0  0  0  0  0
   -6.6129    0.3084   29.5422 H   0  0  0  0  0  0
   -8.2150    2.1587   29.8160 H   0  0  0  0  0  0
   -7.4193    4.3920   30.4186 H   0  0  0  0  0  0
   -1.7451    7.4439   30.4358 H   0  0  0  0  0  0
    0.5745    6.8407   30.3611 H   0  0  0  0  0  0
   -0.4369    2.7551   30.6788 H   0  0  0  0  0  0
    1.3117    3.6862   28.3881 H   0  0  0  0  0  0
    4.6271    4.5911   31.9054 H   0  0  0  0  0  0
    2.2237    4.8976   32.3680 H   0  0  0  0  0  0
    3.5055    1.9107   26.0888 H   0  0  0  0  0  0
    2.6198    1.5570   27.5669 H   0  0  0  0  0  0
    2.1451    2.9243   26.5712 H   0  0  0  0  0  0
    5.9058    3.3977   28.8865 H   0  0  0  0  0  0
   -4.4719   -0.3311   29.5143 H   0  0  0  0  0  0
  1  2  1  0  0  0
  1  7  1  0  0  0
  1 27  1  0  0  0
  2  3  1  0  0  0
  2 11  2  0  0  0
  3  4  1  0  0  0
  3  8  2  0  0  0
  4  5  1  0  0  0
  4 28  1  0  0  0
  5  6  1  0  0  0
  5 15  2  0  0  0
  6  7  1  0  0  0
  6 12  2  0  0  0
  7 16  2  0  0  0
  8  9  1  0  0  0
  8 26  1  0  0  0
  9 10  2  0  0  0
  9 29  1  0  0  0
 10 11  1  0  0  0
 10 30  1  0  0  0
 11 31  1  0  0  0
 12 13  1  0  0  0
 12 32  1  0  0  0
 13 14  2  0  0  0
 13 33  1  0  0  0
 14 15  1  0  0  0
 14 17  1  0  0  0
 15 34  1  0  0  0
 17 18  1  0  0  0
 17 22  2  0  0  0
 18 19  2  0  0  0
 18 35  1  0  0  0
 19 20  1  0  0  0
 19 23  1  0  0  0
 20 21  2  0  0  0
 20 25  1  0  0  0
 21 22  1  0  0  0
 21 36  1  0  0  0
 22 37  1  0  0  0
 23 24  1  0  0  0
 24 38  1  0  0  0
 24 39  1  0  0  0
 24 40  1  0  0  0
 25 41  1  0  0  0
 26 42  1  0  0  0
M  END
> <s_m_entry_id>
9933

> <s_m_entry_name>
dock_pv.2

> <s_m_Source_Path>
/home/csk/Desktop/cluster/DUD-E-result/met

> <s_m_Source_File>
dock_pv.maegz

> <i_m_Source_File_Index>
2

> <chembl_id>
CHEMBL550418

> <chembl_pref_name>
None

> <i_lp_mmshare_version>
53161

> <i_f3d_flags>
0

> <r_lp_tautomer_probability>
1

> <s_lp_Force_Field>
OPLS_2005

> <r_lp_Energy>
42.685997

> <b_lp_Chiralities_Consistent>
1

> <s_lp_Variant>
CHEMBL3717_lig3678-1

> <s_i_glide_gridfile>
glide-grid_3lq8

> <i_i_glide_lignum>
4621

> <i_i_glide_rotatable_bonds>
4

> <r_i_docking_score>
-10.5687018070329

> <r_i_glide_ligand_efficiency>
-0.406488531039725

> <r_i_glide_ligand_efficiency_sa>
-1.20422067375005

> <r_i_glide_ligand_efficiency_ln>
-2.48202494064251

> <r_i_glide_gscore>
-10.5687018070329

> <r_i_glide_lipo>
-4.40185584817683

> <r_i_glide_hbond>
-0.304

> <r_i_glide_metal>
0

> <r_i_glide_rewards>
-2.87451242796402

> <r_i_glide_evdw>
-41.0674171447754

> <r_i_glide_ecoul>
-7.27885723114014

> <r_i_glide_erotb>
0.156865911017793

> <r_i_glide_esite>
0

> <r_i_glide_emodel>
-65.6062192565795

> <r_i_glide_energy>
-48.3462743759155

> <r_i_glide_einternal>
5.57832384109497

> <i_i_glide_confnum>
3

> <i_i_glide_posenum>
141

> <r_i_glide_eff_state_penalty>
0

> <s_user_duplicate_titles>
CHEMBL3717_lig3678

> <s_m_subgroup_title>
dock_pv

> <s_m_subgroupid>
dock_pv

> <b_m_subgroup_collapsed>
1

$$$$
CHEMBL3717_lig422
                    3D
 Schrodinger Suite 2021-1.
 28 30  0  0  1  0            999 V2000
   -3.6296    4.9227   30.8984 C   0  0  0  0  0  0
   -3.9331    6.2294   30.5416 C   0  0  0  0  0  0
   -3.0024    7.1570   30.2080 N   0  0  0  0  0  0
   -2.2928    4.5410   31.0080 C   0  0  0  0  0  0
   -1.3016    5.4871   30.6844 C   0  0  0  0  0  0
   -1.7345    6.7570   30.2293 C   0  0  0  0  0  0
   -0.6189    7.4911   29.8798 N   0  0  0  0  0  0
    0.5030    6.7486   30.1694 C   0  0  0  0  0  0
    0.1249    5.5393   30.7249 C   0  0  0  0  0  0
    1.1753    4.2514   31.3901 S   0  0  0  0  0  0
    2.4154    4.0067   30.1618 C   0  0  0  0  0  0
    1.8063    4.7570   32.6113 O   0  0  0  0  0  0
    0.3414    3.0565   31.4080 O   0  0  0  0  0  0
    2.0370    3.4645   28.9347 C   0  0  0  0  0  0
    2.9960    3.2931   27.9500 C   0  0  0  0  0  0
    4.3060    3.6847   28.2080 C   0  0  0  0  0  0
    4.6916    4.2072   29.4369 C   0  0  0  0  0  0
    3.7373    4.3570   30.4306 C   0  0  0  0  0  0
   -4.4239    4.2236   31.1172 H   0  0  0  0  0  0
   -4.9636    6.5519   30.4832 H   0  0  0  0  0  0
   -2.0363    3.5462   31.3400 H   0  0  0  0  0  0
   -0.5828    8.4436   29.5299 H   0  0  0  0  0  0
    1.4884    7.1570   29.9983 H   0  0  0  0  0  0
    1.0113    3.1767   28.7475 H   0  0  0  0  0  0
    2.7254    2.8655   26.9963 H   0  0  0  0  0  0
    5.0548    3.5570   27.4420 H   0  0  0  0  0  0
    5.7204    4.4857   29.6137 H   0  0  0  0  0  0
    4.0204    4.7570   31.3929 H   0  0  0  0  0  0
  1  4  1  0  0  0
  1  2  2  0  0  0
  1 19  1  0  0  0
  2  3  1  0  0  0
  2 20  1  0  0  0
  3  6  2  0  0  0
  4  5  2  0  0  0
  4 21  1  0  0  0
  5  9  1  0  0  0
  5  6  1  0  0  0
  6  7  1  0  0  0
  7  8  1  0  0  0
  7 22  1  0  0  0
  8  9  2  0  0  0
  8 23  1  0  0  0
  9 10  1  0  0  0
 10 11  1  0  0  0
 10 12  2  0  0  0
 10 13  2  0  0  0
 11 14  2  0  0  0
 11 18  1  0  0  0
 14 15  1  0  0  0
 14 24  1  0  0  0
 15 16  2  0  0  0
 15 25  1  0  0  0
 16 17  1  0  0  0
 16 26  1  0  0  0
 17 18  2  0  0  0
 17 27  1  0  0  0
 18 28  1  0  0  0
M  END
> <s_m_entry_id>
9934

> <s_m_entry_name>
dock_pv.3

> <s_m_Source_Path>
/home/csk/Desktop/cluster/DUD-E-result/met

> <s_m_Source_File>
dock_pv.maegz

> <i_m_Source_File_Index>
3

> <chembl_id>
CHEMBL538932

> <chembl_pref_name>
None

> <i_lp_mmshare_version>
53161

> <i_f3d_flags>
0

> <r_lp_tautomer_probability>
0.999998432528457

> <s_lp_Force_Field>
OPLS_2005

> <r_lp_Energy>
6.760061

> <b_lp_Chiralities_Consistent>
1

> <s_lp_Variant>
CHEMBL3717_lig422-1

> <s_i_glide_gridfile>
glide-grid_3lq8

> <i_i_glide_lignum>
446

> <i_i_glide_rotatable_bonds>
2

> <r_i_docking_score>
-10.1374401777835

> <r_i_glide_ligand_efficiency>
-0.56319112098797

> <r_i_glide_ligand_efficiency_sa>
-1.47597828220204

> <r_i_glide_ligand_efficiency_ln>
-2.60577672486127

> <r_i_glide_gscore>
-10.1374401777835

> <r_i_glide_lipo>
-3.5154991430583

> <r_i_glide_hbond>
-0.608

> <r_i_glide_metal>
0

> <r_i_glide_rewards>
-4.19135076537817

> <r_i_glide_evdw>
-29.5088367462158

> <r_i_glide_ecoul>
-4.78514337539673

> <r_i_glide_erotb>
0.370623074273316

> <r_i_glide_esite>
0

> <r_i_glide_emodel>
-49.4693089594584

> <r_i_glide_energy>
-34.2939801216125

> <r_i_glide_einternal>
1.92560315132141

> <i_i_glide_confnum>
2

> <i_i_glide_posenum>
61

> <r_i_glide_eff_state_penalty>
0

> <s_user_duplicate_titles>
CHEMBL3717_lig422

> <s_m_subgroup_title>
dock_pv

> <s_m_subgroupid>
dock_pv

> <b_m_subgroup_collapsed>
1

$$$$
CHEMBL3717_lig953
                    3D
 Schrodinger Suite 2021-1.
 44 46  0  0  1  0            999 V2000
   -5.0424    1.5048   30.5317 C   0  0  0  0  0  0
   -6.2814    2.1535   30.5174 C   0  0  0  0  0  0
   -6.3440    3.5490   30.5512 C   0  0  0  0  0  0
   -5.1523    4.2720   30.5957 C   0  0  0  0  0  0
   -3.9219    3.6456   30.6080 C   0  0  0  0  0  0
   -3.8593    2.2483   30.5812 C   0  0  0  0  0  0
   -2.9064    4.6818   30.6413 C   0  0  0  0  0  0
   -3.6622    5.9570   30.6186 C   0  0  0  0  0  0
   -4.9600    5.6288   30.6080 N   0  0  0  0  0  0
   -3.2105    7.1032   30.6080 O   0  0  0  0  0  0
   -1.6337    4.4932   30.6709 N   0  0  0  0  0  0
   -0.8299    5.5782   30.6080 N   0  0  0  0  0  0
    0.4993    5.5237   30.4073 C   0  0  0  0  0  0
    1.2681    4.1647   30.4688 C   0  0  1  0  0  0
    2.5713    4.1962   29.6634 C   0  0  0  0  0  0
    2.7025    3.4457   28.4983 C   0  0  0  0  0  0
    3.9060    3.4779   27.8084 C   0  0  0  0  0  0
    4.9632    4.2876   28.2512 C   0  0  0  0  0  0
    4.8491    4.9992   29.4253 C   0  0  0  0  0  0
    3.6609    4.9299   30.1265 C   0  0  0  0  0  0
    6.1507    4.3570   27.5760 O   0  0  0  0  0  0
    1.4956    3.6520   31.9310 C   0  0  0  0  0  0
    1.9060    4.7144   32.9841 C   0  0  0  0  0  0
    2.4767    2.4492   32.0025 C   0  0  0  0  0  0
    1.1060    6.5738   30.2080 O   0  0  0  0  0  0
   -4.9996    0.4254   30.5048 H   0  0  0  0  0  0
   -7.1921    1.5735   30.4791 H   0  0  0  0  0  0
   -7.3035    4.0451   30.5326 H   0  0  0  0  0  0
   -2.9093    1.7338   30.5928 H   0  0  0  0  0  0
   -5.6940    6.3162   30.5123 H   0  0  0  0  0  0
   -1.3141    6.4672   30.5811 H   0  0  0  0  0  0
    0.6276    3.4275   29.9801 H   0  0  0  0  0  0
    1.8911    2.8301   28.1356 H   0  0  0  0  0  0
    4.0060    2.8594   26.9315 H   0  0  0  0  0  0
    5.6649    5.6108   29.7823 H   0  0  0  0  0  0
    3.5719    5.5323   31.0080 H   0  0  0  0  0  0
    6.5967    3.5014   27.6753 H   0  0  0  0  0  0
    0.5042    3.3027   32.2080 H   0  0  0  0  0  0
    2.9308    5.0188   32.8388 H   0  0  0  0  0  0
    1.2635    5.5926   32.9766 H   0  0  0  0  0  0
    1.9060    4.3570   34.0060 H   0  0  0  0  0  0
    3.4731    2.7009   31.6422 H   0  0  0  0  0  0
    2.6286    2.0741   33.0080 H   0  0  0  0  0  0
    2.1249    1.6152   31.4080 H   0  0  0  0  0  0
  1  2  1  0  0  0
  1  6  2  0  0  0
  1 26  1  0  0  0
  2  3  2  0  0  0
  2 27  1  0  0  0
  3  4  1  0  0  0
  3 28  1  0  0  0
  4  5  2  0  0  0
  4  9  1  0  0  0
  5  6  1  0  0  0
  5  7  1  0  0  0
  6 29  1  0  0  0
  7  8  1  0  0  0
  7 11  2  0  0  0
  8  9  1  0  0  0
  8 10  2  0  0  0
  9 30  1  0  0  0
 11 12  1  0  0  0
 12 13  1  0  0  0
 12 31  1  0  0  0
 13 14  1  0  0  0
 13 25  2  0  0  0
 14 15  1  0  0  0
 14 22  1  0  0  0
 14 32  1  0  0  0
 15 16  2  0  0  0
 15 20  1  0  0  0
 16 17  1  0  0  0
 16 33  1  0  0  0
 17 18  2  0  0  0
 17 34  1  0  0  0
 18 19  1  0  0  0
 18 21  1  0  0  0
 19 20  2  0  0  0
 19 35  1  0  0  0
 20 36  1  0  0  0
 21 37  1  0  0  0
 22 23  1  0  0  0
 22 24  1  0  0  0
 22 38  1  0  0  0
 23 39  1  0  0  0
 23 40  1  0  0  0
 23 41  1  0  0  0
 24 42  1  0  0  0
 24 43  1  0  0  0
 24 44  1  0  0  0
M  END
> <s_m_entry_id>
9935

> <s_m_entry_name>
dock_pv.4

> <s_m_Source_Path>
/home/csk/Desktop/cluster/DUD-E-result/met

> <s_m_Source_File>
dock_pv.maegz

> <i_m_Source_File_Index>
4

> <chembl_id>
CHEMBL1822765

> <chembl_pref_name>
None

> <i_lp_mmshare_version>
53161

> <i_f3d_flags>
0

> <r_lp_tautomer_probability>
0.999999999997365

> <s_lp_Force_Field>
OPLS_2005

> <r_lp_Energy>
40.657059

> <b_lp_Chiralities_Consistent>
1

> <s_lp_Variant>
CHEMBL3717_lig953-2

> <s_i_glide_gridfile>
glide-grid_3lq8

> <i_i_glide_lignum>
1042

> <i_i_glide_rotatable_bonds>
6

> <r_i_docking_score>
-10.0275818339476

> <r_i_glide_ligand_efficiency>
-0.401103273357906

> <r_i_glide_ligand_efficiency_sa>
-1.17283308489536

> <r_i_glide_ligand_efficiency_ln>
-2.3768373970241

> <r_i_glide_gscore>
-10.0275818339476

> <r_i_glide_lipo>
-3.45335409585339

> <r_i_glide_hbond>
-0.843121338535131

> <r_i_glide_metal>
0

> <r_i_glide_rewards>
-3.61885400795568

> <r_i_glide_evdw>
-28.3068695068359

> <r_i_glide_ecoul>
-9.07371425628662

> <r_i_glide_erotb>
0.664148222181345

> <r_i_glide_esite>
0

> <r_i_glide_emodel>
-53.9553485704575

> <r_i_glide_energy>
-37.3805837631226

> <r_i_glide_einternal>
10.5437440872192

> <i_i_glide_confnum>
9

> <i_i_glide_posenum>
379

> <r_i_glide_eff_state_penalty>
0

> <s_user_duplicate_titles>
CHEMBL3717_lig953

> <s_m_subgroup_title>
dock_pv

> <s_m_subgroupid>
dock_pv

> <b_m_subgroup_collapsed>
1

$$$$
CHEMBL3717_lig2014
                    3D
 Schrodinger Suite 2021-1.
 44 47  0  0  1  0            999 V2000
    4.0188    4.1797   30.2649 C   0  0  0  0  0  0
    4.1509    3.3821   29.1438 C   0  0  0  0  0  0
    3.0810    3.1877   28.2694 C   0  0  0  0  0  0
    1.8791    3.8410   28.5082 C   0  0  0  0  0  0
    1.7426    4.6588   29.6329 C   0  0  0  0  0  0
    2.8014    4.7869   30.5279 C   0  0  0  0  0  0
    0.4806    5.3033   29.9134 C   0  0  0  0  0  0
   -0.5165    4.6610   30.4036 N   0  0  0  0  0  0
   -1.7384    5.2931   30.6345 N   0  0  0  0  0  0
   -2.0560    6.6000   30.3191 C   0  0  0  0  0  0
   -0.8986    7.3081   29.8057 C   0  0  0  0  0  0
    0.2985    6.7057   29.6164 C   0  0  0  0  0  0
   -3.1412    7.1568   30.4956 O   0  0  0  0  0  0
   -2.7000    4.5137   31.4039 C   0  0  0  0  0  0
   -3.5456    3.4971   30.6277 C   0  0  0  0  0  0
   -3.1417    2.1606   30.6080 C   0  0  0  0  0  0
   -3.9983    1.1568   30.1451 C   0  0  0  0  0  0
   -5.2899    1.4930   29.7386 C   0  0  0  0  0  0
   -5.7196    2.8163   29.8081 C   0  0  0  0  0  0
   -4.8429    3.8247   30.2152 C   0  0  0  0  0  0
    5.0723    4.3571   31.0876 F   0  0  0  0  0  0
    3.1858    2.3631   27.2032 F   0  0  0  0  0  0
   -3.5312   -0.2541   30.0976 C   0  0  0  0  0  0
   -2.8362   -0.8554   31.0387 N   0  0  0  0  0  0
   -2.5455   -2.0477   30.5400 C   0  0  0  0  0  0
   -3.0512   -2.2359   29.2618 C   0  0  0  0  0  0
   -3.6983   -1.0646   29.0080 N   0  0  0  0  0  0
   -3.0056   -3.3485   28.2413 C   0  0  0  0  0  0
    5.0993    2.9063   29.0082 H   0  0  0  0  0  0
    1.0594    3.6845   27.8232 H   0  0  0  0  0  0
    2.6977    5.3962   31.4082 H   0  0  0  0  0  0
   -1.0166    8.3560   29.5698 H   0  0  0  0  0  0
    1.1050    7.3006   29.2192 H   0  0  0  0  0  0
   -3.3713    5.1579   31.9667 H   0  0  0  0  0  0
   -2.1165    3.9922   32.1691 H   0  0  0  0  0  0
   -2.1604    1.8977   30.9781 H   0  0  0  0  0  0
   -5.9691    0.7269   29.3928 H   0  0  0  0  0  0
   -6.7292    3.0668   29.5181 H   0  0  0  0  0  0
   -5.1982    4.8452   30.2732 H   0  0  0  0  0  0
   -1.9685   -2.7734   31.0945 H   0  0  0  0  0  0
   -4.1574   -0.8435   28.1254 H   0  0  0  0  0  0
   -2.4971   -4.2383   28.6071 H   0  0  0  0  0  0
   -2.4967   -3.0332   27.3286 H   0  0  0  0  0  0
   -4.0099   -3.6576   27.9509 H   0  0  0  0  0  0
  1  2  2  0  0  0
  1  6  1  0  0  0
  1 21  1  0  0  0
  2  3  1  0  0  0
  2 29  1  0  0  0
  3  4  2  0  0  0
  3 22  1  0  0  0
  4  5  1  0  0  0
  4 30  1  0  0  0
  5  6  2  0  0  0
  5  7  1  0  0  0
  6 31  1  0  0  0
  7  8  2  0  0  0
  7 12  1  0  0  0
  8  9  1  0  0  0
  9 10  1  0  0  0
  9 14  1  0  0  0
 10 11  1  0  0  0
 10 13  2  0  0  0
 11 12  2  0  0  0
 11 32  1  0  0  0
 12 33  1  0  0  0
 14 15  1  0  0  0
 14 34  1  0  0  0
 14 35  1  0  0  0
 15 16  2  0  0  0
 15 20  1  0  0  0
 16 17  1  0  0  0
 16 36  1  0  0  0
 17 18  2  0  0  0
 17 23  1  0  0  0
 18 19  1  0  0  0
 18 37  1  0  0  0
 19 20  2  0  0  0
 19 38  1  0  0  0
 20 39  1  0  0  0
 23 24  2  0  0  0
 23 27  1  0  0  0
 24 25  1  0  0  0
 25 26  2  0  0  0
 25 40  1  0  0  0
 26 27  1  0  0  0
 26 28  1  0  0  0
 27 41  1  0  0  0
 28 42  1  0  0  0
 28 43  1  0  0  0
 28 44  1  0  0  0
M  END
> <s_m_entry_id>
9936

> <s_m_entry_name>
dock_pv.5

> <s_m_Source_Path>
/home/csk/Desktop/cluster/DUD-E-result/met

> <s_m_Source_File>
dock_pv.maegz

> <i_m_Source_File_Index>
5

> <chembl_id>
CHEMBL3402748

> <chembl_pref_name>
None

> <i_lp_mmshare_version>
53161

> <i_f3d_flags>
0

> <r_lp_tautomer_probability>
0.499999999999999

> <s_lp_Force_Field>
OPLS_2005

> <r_lp_Energy>
35.143888

> <b_lp_Chiralities_Consistent>
1

> <s_lp_Variant>
CHEMBL3717_lig2014-1

> <s_i_glide_gridfile>
glide-grid_3lq8

> <i_i_glide_lignum>
2309

> <i_i_glide_rotatable_bonds>
4

> <r_i_docking_score>
-9.97403612326079

> <r_i_glide_ligand_efficiency>
-0.356215575830742

> <r_i_glide_ligand_efficiency_sa>
-1.08168028797651

> <r_i_glide_ligand_efficiency_ln>
-2.30230038767432

> <r_i_glide_gscore>
-9.97403612326079

> <r_i_glide_lipo>
-4.16574273224476

> <r_i_glide_hbond>
-0.456

> <r_i_glide_metal>
0

> <r_i_glide_rewards>
-2.95066262181493

> <r_i_glide_evdw>
-35.1273307800293

> <r_i_glide_ecoul>
-7.39219999313354

> <r_i_glide_erotb>
0.541421737983779

> <r_i_glide_esite>
-0.0778559692133755

> <r_i_glide_emodel>
-62.2044178867632

> <r_i_glide_energy>
-42.5195307731628

> <r_i_glide_einternal>
7.03833103179932

> <i_i_glide_confnum>
9

> <i_i_glide_posenum>
149

> <r_i_glide_eff_state_penalty>
0

> <s_user_duplicate_titles>
CHEMBL3717_lig2014

> <s_m_subgroup_title>
dock_pv

> <s_m_subgroupid>
dock_pv

> <b_m_subgroup_collapsed>
1

$$$$
CHEMBL3717_lig448
                    3D
 Schrodinger Suite 2021-1.
 51 56  0  0  1  0            999 V2000
   -3.9852    4.4164   30.6080 C   0  0  0  0  0  0
   -4.2540    5.7882   30.5705 C   0  0  0  0  0  0
   -3.3040    6.7552   30.4836 N   0  0  0  0  0  0
   -2.6531    3.9896   30.6914 C   0  0  0  0  0  0
   -1.6687    4.9806   30.6080 C   0  0  0  0  0  0
   -2.0342    6.3462   30.4372 C   0  0  0  0  0  0
   -0.8364    7.0845   30.2080 C   0  0  0  0  0  0
    0.2049    6.1995   30.3891 C   0  0  0  0  0  0
   -0.2836    4.9320   30.6329 N   0  0  0  0  0  0
    0.5316    3.7592   30.9285 C   0  0  0  0  0  0
    1.7468    3.6408   30.0250 C   0  0  0  0  0  0
    1.5737    3.2183   28.7082 C   0  0  0  0  0  0
    2.6235    3.1598   27.8030 C   0  0  0  0  0  0
    3.9048    3.5553   28.1747 C   0  0  0  0  0  0
    3.0545    3.9578   30.4188 C   0  0  0  0  0  0
    4.1276    3.9028   29.4988 C   0  0  0  0  0  0
    5.3018    4.2083   30.0929 N   0  0  0  0  0  0
    4.8975    4.4000   31.4079 O   0  0  0  0  0  0
    3.5136    4.3532   31.6259 N   0  0  0  0  0  0
   -5.0867    3.4083   30.6061 C   0  0  0  0  0  0
   -6.4775    3.6040   30.6014 C   0  0  0  0  0  0
   -7.1612    2.4862   30.6973 N   0  0  0  0  0  0
   -6.2366    1.5182   30.8126 N   0  0  0  0  0  0
   -4.9754    2.0250   30.6081 C   0  0  0  0  0  0
   -6.6514    0.1060   30.9743 C   0  0  0  0  0  0
   -5.4492   -0.7579   31.4523 C   0  0  0  0  0  0
   -5.8656   -2.1593   31.9427 C   0  0  0  0  0  0
   -6.8584   -2.0286   33.0067 N   0  0  2  0  0  0
   -8.0829   -1.4353   32.4759 C   0  0  0  0  0  0
   -7.8002    0.0106   32.0188 C   0  0  0  0  0  0
   -5.2723    6.1478   30.5919 H   0  0  0  0  0  0
   -2.3983    2.9450   30.7795 H   0  0  0  0  0  0
   -0.7384    8.1384   30.0159 H   0  0  0  0  0  0
    1.2730    6.3641   30.3647 H   0  0  0  0  0  0
   -0.0795    2.8642   30.8207 H   0  0  0  0  0  0
    0.8268    3.8116   31.9774 H   0  0  0  0  0  0
    0.5973    2.9329   28.3755 H   0  0  0  0  0  0
    2.4221    2.8069   26.8020 H   0  0  0  0  0  0
    4.7248    3.5564   27.4804 H   0  0  0  0  0  0
   -6.9836    4.5571   30.5522 H   0  0  0  0  0  0
   -4.1112    1.3789   30.5964 H   0  0  0  0  0  0
   -6.9931   -0.2206   29.9906 H   0  0  0  0  0  0
   -4.7940   -0.9242   30.5957 H   0  0  0  0  0  0
   -4.8169   -0.2532   32.1848 H   0  0  0  0  0  0
   -6.2633   -2.7620   31.1237 H   0  0  0  0  0  0
   -5.0012   -2.6927   32.3402 H   0  0  0  0  0  0
   -6.4950   -1.3632   33.6827 H   0  0  0  0  0  0
   -8.4737   -2.0398   31.6554 H   0  0  0  0  0  0
   -8.8356   -1.4392   33.2653 H   0  0  0  0  0  0
   -7.6736    0.6909   32.8635 H   0  0  0  0  0  0
   -8.7165    0.3562   31.5398 H   0  0  0  0  0  0
  1  2  2  0  0  0
  1 20  1  0  0  0
  1  4  1  0  0  0
  2  3  1  0  0  0
  2 31  1  0  0  0
  3  6  2  0  0  0
  4  5  2  0  0  0
  4 32  1  0  0  0
  5  9  1  0  0  0
  5  6  1  0  0  0
  6  7  1  0  0  0
  7  8  2  0  0  0
  7 33  1  0  0  0
  8  9  1  0  0  0
  8 34  1  0  0  0
  9 10  1  0  0  0
 10 11  1  0  0  0
 10 35  1  0  0  0
 10 36  1  0  0  0
 11 15  1  0  0  0
 11 12  2  0  0  0
 12 13  1  0  0  0
 12 37  1  0  0  0
 13 14  2  0  0  0
 13 38  1  0  0  0
 14 16  1  0  0  0
 14 39  1  0  0  0
 15 16  1  0  0  0
 15 19  2  0  0  0
 16 17  2  0  0  0
 17 18  1  0  0  0
 18 19  1  0  0  0
 20 21  1  0  0  0
 20 24  2  0  0  0
 21 22  2  0  0  0
 21 40  1  0  0  0
 22 23  1  0  0  0
 23 24  1  0  0  0
 23 25  1  0  0  0
 24 41  1  0  0  0
 25 26  1  0  0  0
 25 30  1  0  0  0
 25 42  1  0  0  0
 26 27  1  0  0  0
 26 43  1  0  0  0
 26 44  1  0  0  0
 27 28  1  0  0  0
 27 45  1  0  0  0
 27 46  1  0  0  0
 28 29  1  0  0  0
 28 47  1  0  0  0
 29 30  1  0  0  0
 29 48  1  0  0  0
 29 49  1  0  0  0
 30 50  1  0  0  0
 30 51  1  0  0  0
M  END
> <s_m_entry_id>
9937

> <s_m_entry_name>
dock_pv.6

> <s_m_Source_Path>
/home/csk/Desktop/cluster/DUD-E-result/met

> <s_m_Source_File>
dock_pv.maegz

> <i_m_Source_File_Index>
6

> <chembl_id>
CHEMBL550160

> <chembl_pref_name>
None

> <i_lp_mmshare_version>
53161

> <i_f3d_flags>
0

> <r_lp_tautomer_probability>
1

> <s_lp_Force_Field>
OPLS_2005

> <r_lp_Energy>
29.534573

> <b_lp_Chiralities_Consistent>
1

> <s_lp_Variant>
CHEMBL3717_lig448-1

> <s_i_glide_gridfile>
glide-grid_3lq8

> <i_i_glide_lignum>
472

> <i_i_glide_rotatable_bonds>
4

> <r_i_docking_score>
-9.96936947309293

> <r_i_glide_ligand_efficiency>
-0.332312315769764

> <r_i_glide_ligand_efficiency_sa>
-1.03257162851795

> <r_i_glide_ligand_efficiency_ln>
-2.2651493692673

> <r_i_glide_gscore>
-9.96936947309293

> <r_i_glide_lipo>
-4.40649760169538

> <r_i_glide_hbond>
-0.514577944263646

> <r_i_glide_metal>
0

> <r_i_glide_rewards>
-2.78368322663845

> <r_i_glide_evdw>
-37.8456649780273

> <r_i_glide_ecoul>
-5.7569727897644

> <r_i_glide_erotb>
0.491218466870579

> <r_i_glide_esite>
0

> <r_i_glide_emodel>
-65.316647971466

> <r_i_glide_energy>
-43.6026377677917

> <r_i_glide_einternal>
3.71675300598145

> <i_i_glide_confnum>
9

> <i_i_glide_posenum>
90

> <r_i_glide_eff_state_penalty>
0

> <s_user_duplicate_titles>
CHEMBL3717_lig448,565619

> <s_m_subgroup_title>
dock_pv

> <s_m_subgroupid>
dock_pv

> <b_m_subgroup_collapsed>
1

$$$$
CHEMBL3717_lig3494
                    3D
 Schrodinger Suite 2021-1.
 38 41  0  0  1  0            999 V2000
   -3.0975    7.1570   30.6078 O   0  0  0  0  0  0
    3.1057    3.7148   28.2058 O   0  0  0  0  0  0
   -4.1820    5.1974   30.0871 N   0  0  0  0  0  0
    0.1116    4.1228   31.4080 N   0  0  0  0  0  0
   -2.7550   -1.1783   31.8125 N   0  0  0  0  0  0
   -2.1904    4.9430   31.2563 C   0  0  1  0  0  0
   -2.8452    3.6137   30.9841 C   0  0  0  0  0  0
   -0.7126    5.0381   30.8298 C   0  0  0  0  0  0
   -4.0214    3.8355   30.2900 C   0  0  0  0  0  0
   -3.1848    5.9320   30.6109 C   0  0  0  0  0  0
    1.4232    4.0653   31.0589 C   0  0  0  0  0  0
    1.9408    4.8480   30.0106 C   0  0  0  0  0  0
   -2.4941    2.3125   31.3526 C   0  0  0  0  0  0
   -0.2281    5.9468   29.8863 C   0  0  0  0  0  0
   -4.8624    2.7808   29.9332 C   0  0  0  0  0  0
   -3.3309    1.2407   31.0081 C   0  0  0  0  0  0
    1.0768    5.7881   29.4437 C   0  0  0  0  0  0
    3.2861    4.5101   29.3600 C   0  0  1  0  0  0
   -4.5067    1.4775   30.2851 C   0  0  0  0  0  0
    2.3351    3.1209   31.8394 C   0  0  0  0  0  0
    4.2304    3.7865   30.3363 C   0  0  0  0  0  0
    3.5053    2.6123   31.0070 C   0  0  0  0  0  0
   -3.0111   -0.1088   31.4536 C   0  0  0  0  0  0
    2.5260    2.9832   28.4326 H   0  0  0  0  0  0
   -4.9734    5.6202   29.6205 H   0  0  0  0  0  0
   -2.2068    5.1565   32.3245 H   0  0  0  0  0  0
   -1.6063    2.1419   31.9439 H   0  0  0  0  0  0
   -0.8645    6.6751   29.4063 H   0  0  0  0  0  0
   -5.7898    2.9528   29.4087 H   0  0  0  0  0  0
    1.3785    6.3571   28.5939 H   0  0  0  0  0  0
    3.7743    5.4208   29.0156 H   0  0  0  0  0  0
   -5.1664    0.6618   30.0188 H   0  0  0  0  0  0
    2.7124    3.6520   32.7141 H   0  0  0  0  0  0
    1.8076    2.2483   32.2080 H   0  0  0  0  0  0
    4.5983    4.4912   31.0834 H   0  0  0  0  0  0
    5.1249    3.4471   29.8104 H   0  0  0  0  0  0
    4.1817    1.9946   31.5978 H   0  0  0  0  0  0
    3.0963    1.9573   30.2406 H   0  0  0  0  0  0
  1 10  2  0  0  0
  2 18  1  0  0  0
  2 24  1  0  0  0
  3  9  1  0  0  0
  3 10  1  0  0  0
  3 25  1  0  0  0
  4  8  1  0  0  0
  4 11  2  0  0  0
  5 23  3  0  0  0
  6  7  1  0  0  0
  6  8  1  0  0  0
  6 10  1  0  0  0
  6 26  1  0  0  0
  7  9  1  0  0  0
  7 13  2  0  0  0
  8 14  2  0  0  0
  9 15  2  0  0  0
 11 12  1  0  0  0
 11 20  1  0  0  0
 12 17  2  0  0  0
 12 18  1  0  0  0
 13 16  1  0  0  0
 13 27  1  0  0  0
 14 17  1  0  0  0
 14 28  1  0  0  0
 15 19  1  0  0  0
 15 29  1  0  0  0
 16 19  2  0  0  0
 16 23  1  0  0  0
 17 30  1  0  0  0
 18 21  1  0  0  0
 18 31  1  0  0  0
 19 32  1  0  0  0
 20 22  1  0  0  0
 20 33  1  0  0  0
 20 34  1  0  0  0
 21 22  1  0  0  0
 21 35  1  0  0  0
 21 36  1  0  0  0
 22 37  1  0  0  0
 22 38  1  0  0  0
M  END
> <s_m_entry_id>
9938

> <s_m_entry_name>
dock_pv.7

> <s_m_Source_Path>
/home/csk/Desktop/cluster/DUD-E-result/met

> <s_m_Source_File>
dock_pv.maegz

> <i_m_Source_File_Index>
7

> <chembl_id>
CHEMBL1985681

> <chembl_pref_name>
None

> <i_lp_mmshare_version>
53161

> <i_f3d_flags>
0

> <r_lp_tautomer_probability>
1

> <s_lp_Force_Field>
OPLS_2005

> <r_lp_Energy>
33.891137

> <b_lp_Chiralities_Consistent>
1

> <s_lp_Variant>
CHEMBL3717_lig3494-4

> <s_i_glide_gridfile>
glide-grid_3lq8

> <i_i_glide_lignum>
4317

> <i_i_glide_rotatable_bonds>
2

> <r_i_docking_score>
-9.96131768722856

> <r_i_glide_ligand_efficiency>
-0.433100769009938

> <r_i_glide_ligand_efficiency_sa>
-1.23168097464837

> <r_i_glide_ligand_efficiency_ln>
-2.40873694100682

> <r_i_glide_gscore>
-9.96131768722856

> <r_i_glide_lipo>
-3.99829693469492

> <r_i_glide_hbond>
-0.452388417456008

> <r_i_glide_metal>
0

> <r_i_glide_rewards>
-3.39892100631032

> <r_i_glide_evdw>
-34.8872108459473

> <r_i_glide_ecoul>
-3.37283754348755

> <r_i_glide_erotb>
0.138574845053179

> <r_i_glide_esite>
0

> <r_i_glide_emodel>
-54.0374878621864

> <r_i_glide_energy>
-38.2600483894348

> <r_i_glide_einternal>
3.69075989723206

> <i_i_glide_confnum>
4

> <i_i_glide_posenum>
49

> <r_i_glide_eff_state_penalty>
0

> <s_user_duplicate_titles>
CHEMBL3717_lig3494

> <s_m_subgroup_title>
dock_pv

> <s_m_subgroupid>
dock_pv

> <b_m_subgroup_collapsed>
1

$$$$
CHEMBL3717_lig1319
                    3D
 Schrodinger Suite 2021-1.
 36 39  0  0  1  0            999 V2000
    4.8346    3.9557   29.7086 C   0  0  0  0  0  0
    3.9061    3.5111   28.7700 C   0  0  0  0  0  0
    2.5625    3.4225   29.1160 C   0  0  0  0  0  0
    2.1574    3.7887   30.4009 C   0  0  0  0  0  0
    3.0871    4.2608   31.3292 C   0  0  0  0  0  0
    4.4277    4.3564   30.9738 C   0  0  0  0  0  0
    6.1669    3.9570   29.4081 O   0  0  0  0  0  0
    0.6826    3.7435   30.7717 C   0  0  0  0  0  0
   -1.5369    6.5890   30.2865 C   0  0  0  0  0  0
   -1.3963    5.2223   30.6081 C   0  0  0  0  0  0
   -2.7353    7.1570   30.2082 N   0  0  0  0  0  0
   -2.4211    4.3774   30.7863 N   0  0  0  0  0  0
   -3.6576    4.9437   30.6080 C   0  0  0  0  0  0
   -3.7953    6.3208   30.3695 C   0  0  0  0  0  0
   -0.0333    5.0007   30.5918 N   0  0  0  0  0  0
    0.6113    6.1572   30.2963 N   0  0  0  0  0  0
   -0.3162    7.1547   30.0951 N   0  0  0  0  0  0
   -4.8386    4.0226   30.5714 C   0  0  0  0  0  0
   -4.6899    2.6732   30.2087 C   0  0  0  0  0  0
   -5.7918    1.8255   30.1378 C   0  0  0  0  0  0
   -7.0615    2.3200   30.4161 C   0  0  0  0  0  0
   -7.2355    3.6538   30.7692 C   0  0  0  0  0  0
   -6.1308    4.4976   30.8489 C   0  0  0  0  0  0
   -8.1338    1.5011   30.3384 F   0  0  0  0  0  0
    4.2257    3.2044   27.7857 H   0  0  0  0  0  0
    1.8432    3.0695   28.3897 H   0  0  0  0  0  0
    2.7705    4.5693   32.3150 H   0  0  0  0  0  0
    5.1581    4.7237   31.6790 H   0  0  0  0  0  0
    6.3681    3.3195   28.7078 H   0  0  0  0  0  0
    0.1727    2.9906   30.1708 H   0  0  0  0  0  0
    0.5656    3.4382   31.8093 H   0  0  0  0  0  0
   -4.7628    6.7722   30.2096 H   0  0  0  0  0  0
   -3.7160    2.2695   29.9721 H   0  0  0  0  0  0
   -5.6658    0.7892   29.8592 H   0  0  0  0  0  0
   -8.2260    4.0301   30.9785 H   0  0  0  0  0  0
   -6.2954    5.5267   31.1294 H   0  0  0  0  0  0
  1  2  1  0  0  0
  1  6  2  0  0  0
  1  7  1  0  0  0
  2  3  2  0  0  0
  2 25  1  0  0  0
  3  4  1  0  0  0
  3 26  1  0  0  0
  4  5  2  0  0  0
  4  8  1  0  0  0
  5  6  1  0  0  0
  5 27  1  0  0  0
  6 28  1  0  0  0
  7 29  1  0  0  0
  8 15  1  0  0  0
  8 30  1  0  0  0
  8 31  1  0  0  0
  9 10  1  0  0  0
  9 11  2  0  0  0
  9 17  1  0  0  0
 10 12  2  0  0  0
 10 15  1  0  0  0
 11 14  1  0  0  0
 12 13  1  0  0  0
 13 14  2  0  0  0
 13 18  1  0  0  0
 14 32  1  0  0  0
 15 16  1  0  0  0
 16 17  2  0  0  0
 18 19  1  0  0  0
 18 23  2  0  0  0
 19 20  2  0  0  0
 19 33  1  0  0  0
 20 21  1  0  0  0
 20 34  1  0  0  0
 21 22  2  0  0  0
 21 24  1  0  0  0
 22 23  1  0  0  0
 22 35  1  0  0  0
 23 36  1  0  0  0
M  END
> <s_m_entry_id>
9939

> <s_m_entry_name>
dock_pv.8

> <s_m_Source_Path>
/home/csk/Desktop/cluster/DUD-E-result/met

> <s_m_Source_File>
dock_pv.maegz

> <i_m_Source_File_Index>
8

> <chembl_id>
CHEMBL2170810

> <chembl_pref_name>
None

> <i_lp_mmshare_version>
53161

> <i_f3d_flags>
0

> <r_lp_tautomer_probability>
0.999999999997365

> <s_lp_Force_Field>
OPLS_2005

> <r_lp_Energy>
24.261444

> <b_lp_Chiralities_Consistent>
1

> <s_lp_Variant>
CHEMBL3717_lig1319-1

> <s_i_glide_gridfile>
glide-grid_3lq8

> <i_i_glide_lignum>
1505

> <i_i_glide_rotatable_bonds>
4

> <r_i_docking_score>
-9.86043724839432

> <r_i_glide_ligand_efficiency>
-0.41085155201643

> <r_i_glide_ligand_efficiency_sa>
-1.18510094745622

> <r_i_glide_ligand_efficiency_ln>
-2.36005509952301

> <r_i_glide_gscore>
-9.86043724839432

> <r_i_glide_lipo>
-3.2712860721795

> <r_i_glide_hbond>
-0.608

> <r_i_glide_metal>
0

> <r_i_glide_rewards>
-3.82341225991335

> <r_i_glide_evdw>
-37.9868659973145

> <r_i_glide_ecoul>
-5.34234666824341

> <r_i_glide_erotb>
0.542956383800766

> <r_i_glide_esite>
0

> <r_i_glide_emodel>
-66.7099895263254

> <r_i_glide_energy>
-43.3292126655579

> <r_i_glide_einternal>
2.30103063583374

> <i_i_glide_confnum>
12

> <i_i_glide_posenum>
185

> <r_i_glide_eff_state_penalty>
0

> <s_user_duplicate_titles>
CHEMBL3717_lig1319

> <s_m_subgroup_title>
dock_pv

> <s_m_subgroupid>
dock_pv

> <b_m_subgroup_collapsed>
1

$$$$
CHEMBL3717_lig449
                    3D
 Schrodinger Suite 2021-1.
 43 47  0  0  1  0            999 V2000
   -4.0793    4.5353   30.6055 C   0  0  0  0  0  0
   -4.2928    5.9231   30.6070 C   0  0  0  0  0  0
   -3.3201    6.8656   30.5547 N   0  0  0  0  0  0
   -2.7432    4.0905   30.6827 C   0  0  0  0  0  0
   -1.7326    5.0596   30.6080 C   0  0  0  0  0  0
   -2.0659    6.4320   30.4666 C   0  0  0  0  0  0
   -0.8640    7.1549   30.2079 C   0  0  0  0  0  0
    0.1634    6.2495   30.3682 C   0  0  0  0  0  0
   -0.3458    4.9916   30.6259 N   0  0  0  0  0  0
    0.4574    3.8084   30.9136 C   0  0  0  0  0  0
    1.6075    3.6177   29.9387 C   0  0  0  0  0  0
    1.3239    3.1909   28.6405 C   0  0  0  0  0  0
    2.3063    3.0232   27.6757 C   0  0  0  0  0  0
    3.6368    3.2823   27.9749 C   0  0  0  0  0  0
    2.9550    3.8722   30.2445 C   0  0  0  0  0  0
    3.9625    3.7056   29.2651 C   0  0  0  0  0  0
    5.1805    4.0066   29.7778 N   0  0  0  0  0  0
    4.8736    4.3573   31.0925 O   0  0  0  0  0  0
    3.5109    4.2933   31.4078 N   0  0  0  0  0  0
   -4.9462    2.1723   30.4350 C   0  0  0  0  0  0
   -6.0546    1.3339   29.7616 C   0  0  0  0  0  0
   -7.3752    1.6908   30.2517 N   0  0  0  0  0  0
   -7.6291    3.1113   30.0738 C   0  0  0  0  0  0
   -6.5427    3.9959   30.7281 C   0  0  0  0  0  0
   -5.1407    3.6378   30.4161 N   0  0  0  0  0  0
   -5.2815    6.3511   30.5667 H   0  0  0  0  0  0
   -2.4907    3.0442   30.7367 H   0  0  0  0  0  0
   -0.7540    8.2129   30.0122 H   0  0  0  0  0  0
    1.2344    6.3959   30.3256 H   0  0  0  0  0  0
   -0.1842    2.9281   30.8850 H   0  0  0  0  0  0
    0.8226    3.8910   31.9384 H   0  0  0  0  0  0
    0.3056    2.9799   28.3673 H   0  0  0  0  0  0
    2.0276    2.6870   26.6863 H   0  0  0  0  0  0
    4.4060    3.1560   27.2338 H   0  0  0  0  0  0
   -4.0188    1.9061   29.9307 H   0  0  0  0  0  0
   -4.8696    1.8400   31.4688 H   0  0  0  0  0  0
   -5.8790    0.2767   29.9656 H   0  0  0  0  0  0
   -6.0084    1.4616   28.6804 H   0  0  0  0  0  0
   -7.5505    1.3646   31.1919 H   0  0  0  0  0  0
   -8.5975    3.3485   30.5159 H   0  0  0  0  0  0
   -7.6951    3.3406   29.0098 H   0  0  0  0  0  0
   -6.6846    3.9513   31.8072 H   0  0  0  0  0  0
   -6.7696    5.0113   30.4141 H   0  0  0  0  0  0
  1  2  2  0  0  0
  1 25  1  0  0  0
  1  4  1  0  0  0
  2  3  1  0  0  0
  2 26  1  0  0  0
  3  6  2  0  0  0
  4  5  2  0  0  0
  4 27  1  0  0  0
  5  9  1  0  0  0
  5  6  1  0  0  0
  6  7  1  0  0  0
  7  8  2  0  0  0
  7 28  1  0  0  0
  8  9  1  0  0  0
  8 29  1  0  0  0
  9 10  1  0  0  0
 10 11  1  0  0  0
 10 30  1  0  0  0
 10 31  1  0  0  0
 11 12  2  0  0  0
 11 15  1  0  0  0
 12 13  1  0  0  0
 12 32  1  0  0  0
 13 14  2  0  0  0
 13 33  1  0  0  0
 14 16  1  0  0  0
 14 34  1  0  0  0
 15 16  1  0  0  0
 15 19  2  0  0  0
 16 17  2  0  0  0
 17 18  1  0  0  0
 18 19  1  0  0  0
 20 25  1  0  0  0
 20 21  1  0  0  0
 20 35  1  0  0  0
 20 36  1  0  0  0
 21 22  1  0  0  0
 21 37  1  0  0  0
 21 38  1  0  0  0
 22 23  1  0  0  0
 22 39  1  0  0  0
 23 24  1  0  0  0
 23 40  1  0  0  0
 23 41  1  0  0  0
 24 25  1  0  0  0
 24 42  1  0  0  0
 24 43  1  0  0  0
M  END
> <s_m_entry_id>
9940

> <s_m_entry_name>
dock_pv.9

> <s_m_Source_Path>
/home/csk/Desktop/cluster/DUD-E-result/met

> <s_m_Source_File>
dock_pv.maegz

> <i_m_Source_File_Index>
9

> <chembl_id>
CHEMBL563731

> <chembl_pref_name>
None

> <i_lp_mmshare_version>
53161

> <i_f3d_flags>
0

> <r_lp_tautomer_probability>
1

> <s_lp_Force_Field>
OPLS_2005

> <r_lp_Energy>
40.719871

> <b_lp_Chiralities_Consistent>
1

> <s_lp_Variant>
CHEMBL3717_lig449-1

> <s_i_glide_gridfile>
glide-grid_3lq8

> <i_i_glide_lignum>
473

> <i_i_glide_rotatable_bonds>
3

> <r_i_docking_score>
-9.73551127091917

> <r_i_glide_ligand_efficiency>
-0.389420450836767

> <r_i_glide_ligand_efficiency_sa>
-1.13867230464781

> <r_i_glide_ligand_efficiency_ln>
-2.30760792093787

> <r_i_glide_gscore>
-9.73551127091917

> <r_i_glide_lipo>
-4.40164749788455

> <r_i_glide_hbond>
-0.309381626777094

> <r_i_glide_metal>
0

> <r_i_glide_rewards>
-3.18272772530249

> <r_i_glide_evdw>
-37.3880577087402

> <r_i_glide_ecoul>
-3.1893048286438

> <r_i_glide_erotb>
0.506044188778553

> <r_i_glide_esite>
0

> <r_i_glide_emodel>
-61.1809612428995

> <r_i_glide_energy>
-40.577362537384

> <r_i_glide_einternal>
2.2056839466095

> <i_i_glide_confnum>
57

> <i_i_glide_posenum>
31

> <r_i_glide_eff_state_penalty>
0

> <s_user_duplicate_titles>
CHEMBL3717_lig449

> <s_m_subgroup_title>
dock_pv

> <s_m_subgroupid>
dock_pv

> <b_m_subgroup_collapsed>
1

$$$$
CHEMBL3717_lig891
                    3D
 Schrodinger Suite 2021-1.
 38 40  0  0  1  0            999 V2000
   -5.6583    1.5703   30.0193 C   0  0  0  0  0  0
   -6.8845    2.2509   30.1238 C   0  0  0  0  0  0
   -6.9185    3.6292   30.3439 C   0  0  0  0  0  0
   -5.7147    4.3156   30.4747 C   0  0  0  0  0  0
   -4.5021    3.6669   30.4247 C   0  0  0  0  0  0
   -4.4646    2.2875   30.2084 C   0  0  0  0  0  0
   -3.4681    4.6656   30.6070 C   0  0  0  0  0  0
   -4.1818    5.9556   30.6447 C   0  0  0  0  0  0
   -5.4878    5.6589   30.6086 N   0  0  0  0  0  0
   -3.6933    7.0857   30.6851 O   0  0  0  0  0  0
   -2.2078    4.4378   30.6684 N   0  0  0  0  0  0
   -1.3600    5.4893   30.7366 N   0  0  0  0  0  0
   -0.0290    5.3573   30.6084 C   0  0  0  0  0  0
    0.5837    3.9395   30.4882 C   0  0  0  0  0  0
    2.0774    3.9332   30.1916 C   0  0  0  0  0  0
    2.9819    4.3296   31.1801 C   0  0  0  0  0  0
    4.3426    4.3563   30.9010 C   0  0  0  0  0  0
    4.7984    3.9634   29.6515 C   0  0  0  0  0  0
    3.9051    3.5573   28.6624 C   0  0  0  0  0  0
    2.5394    3.5473   28.9302 C   0  0  0  0  0  0
    6.1423    3.9570   29.4077 O   0  0  0  0  0  0
    0.6865    6.3575   30.6000 O   0  0  0  0  0  0
   -5.6356    0.1021   29.6744 C   0  0  0  0  0  0
   -4.4005   -0.4055   29.4080 O   0  0  0  0  0  0
   -6.6580   -0.5738   29.5914 O   0  0  0  0  0  0
   -7.8197    1.7230   29.9954 H   0  0  0  0  0  0
   -7.8671    4.1449   30.3783 H   0  0  0  0  0  0
   -3.5073    1.7873   30.1514 H   0  0  0  0  0  0
   -6.1973    6.3719   30.5230 H   0  0  0  0  0  0
   -1.7962    6.4015   30.7964 H   0  0  0  0  0  0
    0.0549    3.3766   29.7159 H   0  0  0  0  0  0
    0.4141    3.4161   31.4296 H   0  0  0  0  0  0
    2.6276    4.6386   32.1524 H   0  0  0  0  0  0
    5.0490    4.6821   31.6492 H   0  0  0  0  0  0
    4.2633    3.2411   27.6950 H   0  0  0  0  0  0
    1.8479    3.2335   28.1611 H   0  0  0  0  0  0
    6.3574    3.3252   28.7065 H   0  0  0  0  0  0
   -4.4938   -1.2981   29.0673 H   0  0  0  0  0  0
  1  2  1  0  0  0
  1  6  2  0  0  0
  1 23  1  0  0  0
  2  3  2  0  0  0
  2 26  1  0  0  0
  3  4  1  0  0  0
  3 27  1  0  0  0
  4  5  2  0  0  0
  4  9  1  0  0  0
  5  6  1  0  0  0
  5  7  1  0  0  0
  6 28  1  0  0  0
  7  8  1  0  0  0
  7 11  2  0  0  0
  8  9  1  0  0  0
  8 10  2  0  0  0
  9 29  1  0  0  0
 11 12  1  0  0  0
 12 13  1  0  0  0
 12 30  1  0  0  0
 13 14  1  0  0  0
 13 22  2  0  0  0
 14 15  1  0  0  0
 14 31  1  0  0  0
 14 32  1  0  0  0
 15 16  1  0  0  0
 15 20  2  0  0  0
 16 17  2  0  0  0
 16 33  1  0  0  0
 17 18  1  0  0  0
 17 34  1  0  0  0
 18 19  2  0  0  0
 18 21  1  0  0  0
 19 20  1  0  0  0
 19 35  1  0  0  0
 20 36  1  0  0  0
 21 37  1  0  0  0
 23 24  1  0  0  0
 23 25  2  0  0  0
 24 38  1  0  0  0
M  END
> <s_m_entry_id>
9941

> <s_m_entry_name>
dock_pv.10

> <s_m_Source_Path>
/home/csk/Desktop/cluster/DUD-E-result/met

> <s_m_Source_File>
dock_pv.maegz

> <i_m_Source_File_Index>
10

> <chembl_id>
CHEMBL1822383

> <chembl_pref_name>
None

> <i_lp_mmshare_version>
53161

> <i_f3d_flags>
0

> <r_lp_tautomer_probability>
0.999999999997365

> <s_lp_Force_Field>
OPLS_2005

> <r_lp_Energy>
37.562636

> <b_lp_Chiralities_Consistent>
1

> <s_lp_Variant>
CHEMBL3717_lig891-1

> <s_i_glide_gridfile>
glide-grid_3lq8

> <i_i_glide_lignum>
962

> <i_i_glide_rotatable_bonds>
7

> <r_i_docking_score>
-9.69946276227415

> <r_i_glide_ligand_efficiency>
-0.387978510490966

> <r_i_glide_ligand_efficiency_sa>
-1.13445604550377

> <r_i_glide_ligand_efficiency_ln>
-2.29906334410237

> <r_i_glide_gscore>
-9.69946276227415

> <r_i_glide_lipo>
-2.891063434938

> <r_i_glide_hbond>
-0.619041110175998

> <r_i_glide_metal>
0

> <r_i_glide_rewards>
-3.35901730406987

> <r_i_glide_evdw>
-42.8473663330078

> <r_i_glide_ecoul>
-9.96927261352539

> <r_i_glide_erotb>
0.821837567296961

> <r_i_glide_esite>
-0.0144192717080487

> <r_i_glide_emodel>
-81.1203189476425

> <r_i_glide_energy>
-52.8166389465332

> <r_i_glide_einternal>
3.60926723480225

> <i_i_glide_confnum>
4

> <i_i_glide_posenum>
81

> <r_i_glide_eff_state_penalty>
0

> <s_user_duplicate_titles>
CHEMBL3717_lig891

> <s_m_subgroup_title>
dock_pv

> <s_m_subgroupid>
dock_pv

> <b_m_subgroup_collapsed>
1

$$$$
CHEMBL3717_lig3527
                    3D
 Schrodinger Suite 2021-1.
 37 41  0  0  1  0            999 V2000
   -6.6832    3.5383   30.5052 S   0  0  0  0  0  0
   -3.2951    7.3009   30.6088 O   0  0  0  0  0  0
   -2.5555    5.1152   30.7003 N   0  0  0  0  0  0
   -1.5440    3.1590   30.6703 N   0  0  0  0  0  0
   -4.8364    5.5716   30.6079 N   0  0  0  0  0  0
   -1.2442    5.3905   30.7548 N   0  0  0  0  0  0
   -4.0870    3.2319   30.5977 C   0  0  0  0  0  0
   -2.7105    3.7497   30.6657 C   0  0  0  0  0  0
   -5.0928    4.2041   30.5827 C   0  0  0  0  0  0
   -4.6072    1.9283   30.5174 C   0  0  0  0  0  0
   -6.0156    1.9327   30.4614 C   0  0  0  0  0  0
   -3.5883    6.1077   30.6431 C   0  0  0  0  0  0
   -0.7048    4.1891   30.7056 C   0  0  0  0  0  0
   -3.7959    0.6332   30.5560 C   0  0  0  0  0  0
    0.7675    4.0140   30.6382 C   0  0  0  0  0  0
   -6.8894    0.6867   30.4367 C   0  0  0  0  0  0
   -4.7098   -0.5582   30.9200 C   0  0  0  0  0  0
   -6.0202   -0.5499   30.1134 C   0  0  0  0  0  0
    1.3534    3.5529   29.4555 C   0  0  0  0  0  0
    1.5649    4.3201   31.7432 C   0  0  0  0  0  0
    2.7312    3.3759   29.3847 C   0  0  0  0  0  0
    2.9409    4.1322   31.6752 C   0  0  0  0  0  0
    3.5194    3.6626   30.4970 C   0  0  0  0  0  0
   -5.5837    6.2414   30.5037 H   0  0  0  0  0  0
   -2.9675    0.7006   31.2649 H   0  0  0  0  0  0
   -3.3413    0.4611   29.5806 H   0  0  0  0  0  0
   -7.6996    0.7765   29.7111 H   0  0  0  0  0  0
   -7.3480    0.5520   31.4185 H   0  0  0  0  0  0
   -4.1727   -1.4928   30.7499 H   0  0  0  0  0  0
   -4.9407   -0.5361   31.9863 H   0  0  0  0  0  0
   -5.7871   -0.5792   29.0451 H   0  0  0  0  0  0
   -6.5884   -1.4569   30.3175 H   0  0  0  0  0  0
    0.7365    3.3185   28.6003 H   0  0  0  0  0  0
    1.1154    4.6858   32.6541 H   0  0  0  0  0  0
    3.1890    3.0085   28.4763 H   0  0  0  0  0  0
    3.5571    4.3591   32.5321 H   0  0  0  0  0  0
    4.5889    3.5215   30.4395 H   0  0  0  0  0  0
  1  9  1  0  0  0
  1 11  1  0  0  0
  2 12  2  0  0  0
  3  6  1  0  0  0
  3  8  1  0  0  0
  3 12  1  0  0  0
  4  8  2  0  0  0
  4 13  1  0  0  0
  5  9  1  0  0  0
  5 12  1  0  0  0
  5 24  1  0  0  0
  6 13  2  0  0  0
  7  8  1  0  0  0
  7  9  2  0  0  0
  7 10  1  0  0  0
 10 11  2  0  0  0
 10 14  1  0  0  0
 11 16  1  0  0  0
 13 15  1  0  0  0
 14 17  1  0  0  0
 14 25  1  0  0  0
 14 26  1  0  0  0
 15 19  2  0  0  0
 15 20  1  0  0  0
 16 18  1  0  0  0
 16 27  1  0  0  0
 16 28  1  0  0  0
 17 18  1  0  0  0
 17 29  1  0  0  0
 17 30  1  0  0  0
 18 31  1  0  0  0
 18 32  1  0  0  0
 19 21  1  0  0  0
 19 33  1  0  0  0
 20 22  2  0  0  0
 20 34  1  0  0  0
 21 23  2  0  0  0
 21 35  1  0  0  0
 22 23  1  0  0  0
 22 36  1  0  0  0
 23 37  1  0  0  0
M  END
> <s_m_entry_id>
9942

> <s_m_entry_name>
dock_pv.11

> <s_m_Source_Path>
/home/csk/Desktop/cluster/DUD-E-result/met

> <s_m_Source_File>
dock_pv.maegz

> <i_m_Source_File_Index>
11

> <chembl_id>
CHEMBL2007592

> <chembl_pref_name>
None

> <i_lp_mmshare_version>
53161

> <i_f3d_flags>
0

> <r_lp_tautomer_probability>
1

> <s_lp_Force_Field>
OPLS_2005

> <r_lp_Energy>
31.242866

> <b_lp_Chiralities_Consistent>
1

> <s_lp_Variant>
CHEMBL3717_lig3527-1

> <s_i_glide_gridfile>
glide-grid_3lq8

> <i_i_glide_lignum>
4360

> <i_i_glide_rotatable_bonds>
1

> <r_i_docking_score>
-9.60883777134951

> <r_i_glide_ligand_efficiency>
-0.417775555276066

> <r_i_glide_ligand_efficiency_sa>
-1.188098105397

> <r_i_glide_ligand_efficiency_ln>
-2.32350410123609

> <r_i_glide_gscore>
-9.60883777134951

> <r_i_glide_lipo>
-2.68262367766801

> <r_i_glide_hbond>
-0.335645274234013

> <r_i_glide_metal>
0

> <r_i_glide_rewards>
-4.01672750658591

> <r_i_glide_evdw>
-39.3600616455078

> <r_i_glide_ecoul>
-5.23839569091797

> <r_i_glide_erotb>
0.179921123051502

> <r_i_glide_esite>
0

> <r_i_glide_emodel>
-67.5889632264476

> <r_i_glide_energy>
-44.5984573364258

> <r_i_glide_einternal>
4.59903287887573

> <i_i_glide_confnum>
4

> <i_i_glide_posenum>
36

> <r_i_glide_eff_state_penalty>
0

> <s_user_duplicate_titles>
CHEMBL3717_lig3527

> <s_m_subgroup_title>
dock_pv

> <s_m_subgroupid>
dock_pv

> <b_m_subgroup_collapsed>
1

$$$$
CHEMBL3717_lig4208
                    3D
 Schrodinger Suite 2021-1.
 36 38  0  0  1  0            999 V2000
   -1.5179   -0.8673   33.4080 O   0  0  0  0  0  0
   -0.7986    7.5902   29.8080 N   0  0  0  0  0  0
   -3.0665    7.0858   30.4455 N   0  0  0  0  0  0
   -3.4262    4.7571   31.0080 N   0  0  0  0  0  0
   -1.6529    3.1577   30.9287 N   0  0  0  0  0  0
   -1.1915    5.4939   30.5074 C   0  0  0  0  0  0
    0.2244    5.6276   30.2402 C   0  0  0  0  0  0
   -1.7850    6.7603   30.2625 C   0  0  0  0  0  0
   -2.1008    4.4817   30.8659 C   0  0  0  0  0  0
    1.3195    4.6389   30.3951 C   0  0  0  0  0  0
    0.3898    6.9159   29.7690 C   0  0  0  0  0  0
   -3.8319    6.0320   30.8141 C   0  0  0  0  0  0
    1.5137    4.0077   31.6241 C   0  0  0  0  0  0
    2.1956    4.3962   29.3339 C   0  0  0  0  0  0
   -2.4940    2.0378   31.3301 C   0  0  0  0  0  0
    2.6127    3.1743   31.8085 C   0  0  0  0  0  0
    3.2941    3.5621   29.5167 C   0  0  0  0  0  0
    3.5061    2.9729   30.7600 C   0  0  0  0  0  0
   -1.9699    1.3690   32.6079 C   0  0  0  0  0  0
   -2.5136   -0.0529   32.8190 C   0  0  0  0  0  0
   -0.8779   -1.1199   32.7363 H   0  0  0  0  0  0
   -0.8895    8.5665   29.5455 H   0  0  0  0  0  0
   -0.6724    2.9858   30.7523 H   0  0  0  0  0  0
    1.2781    7.4323   29.4377 H   0  0  0  0  0  0
   -4.8882    6.2264   30.9413 H   0  0  0  0  0  0
    0.8403    4.1978   32.4465 H   0  0  0  0  0  0
    2.0386    4.8720   28.3773 H   0  0  0  0  0  0
   -2.4902    1.3087   30.5229 H   0  0  0  0  0  0
   -3.5523    2.2887   31.4082 H   0  0  0  0  0  0
    2.7813    2.7038   32.7657 H   0  0  0  0  0  0
    3.9871    3.3859   28.7062 H   0  0  0  0  0  0
    4.3765    2.3544   30.9103 H   0  0  0  0  0  0
   -2.0965    2.0418   33.4358 H   0  0  0  0  0  0
   -0.8940    1.3230   32.6080 H   0  0  0  0  0  0
   -2.7482   -0.5271   31.8649 H   0  0  0  0  0  0
   -3.4303   -0.0428   33.4079 H   0  0  0  0  0  0
  1 20  1  0  0  0
  1 21  1  0  0  0
  2  8  1  0  0  0
  2 11  1  0  0  0
  2 22  1  0  0  0
  3  8  1  0  0  0
  3 12  2  0  0  0
  4  9  2  0  0  0
  4 12  1  0  0  0
  5  9  1  0  0  0
  5 15  1  0  0  0
  5 23  1  0  0  0
  6  7  1  0  0  0
  6  8  2  0  0  0
  6  9  1  0  0  0
  7 10  1  0  0  0
  7 11  2  0  0  0
 10 13  2  0  0  0
 10 14  1  0  0  0
 11 24  1  0  0  0
 12 25  1  0  0  0
 13 16  1  0  0  0
 13 26  1  0  0  0
 14 17  2  0  0  0
 14 27  1  0  0  0
 15 19  1  0  0  0
 15 28  1  0  0  0
 15 29  1  0  0  0
 16 18  2  0  0  0
 16 30  1  0  0  0
 17 18  1  0  0  0
 17 31  1  0  0  0
 18 32  1  0  0  0
 19 20  1  0  0  0
 19 33  1  0  0  0
 19 34  1  0  0  0
 20 35  1  0  0  0
 20 36  1  0  0  0
M  END
> <s_m_entry_id>
9943

> <s_m_entry_name>
dock_pv.12

> <s_m_Source_Path>
/home/csk/Desktop/cluster/DUD-E-result/met

> <s_m_Source_File>
dock_pv.maegz

> <i_m_Source_File_Index>
12

> <chembl_id>
CHEMBL2000071

> <chembl_pref_name>
None

> <i_lp_mmshare_version>
53161

> <i_f3d_flags>
0

> <r_lp_tautomer_probability>
1

> <s_lp_Force_Field>
OPLS_2005

> <r_lp_Energy>
7.716651

> <b_lp_Chiralities_Consistent>
1

> <s_lp_Variant>
CHEMBL3717_lig4208-1

> <s_i_glide_gridfile>
glide-grid_3lq8

> <i_i_glide_lignum>
5405

> <i_i_glide_rotatable_bonds>
6

> <r_i_docking_score>
-9.59629148675444

> <r_i_glide_ligand_efficiency>
-0.479814574337722

> <r_i_glide_ligand_efficiency_sa>
-1.30241713198073

> <r_i_glide_ligand_efficiency_ln>
-2.40163525225854

> <r_i_glide_gscore>
-9.59629148675444

> <r_i_glide_lipo>
-3.62325402757893

> <r_i_glide_hbond>
-0.608

> <r_i_glide_metal>
0

> <r_i_glide_rewards>
-3.78598166551856

> <r_i_glide_evdw>
-31.7669200897217

> <r_i_glide_ecoul>
-5.72278118133545

> <r_i_glide_erotb>
0.867707388029461

> <r_i_glide_esite>
0

> <r_i_glide_emodel>
-53.0462598876344

> <r_i_glide_energy>
-37.4897012710571

> <r_i_glide_einternal>
6.68407964706421

> <i_i_glide_confnum>
256

> <i_i_glide_posenum>
256

> <r_i_glide_eff_state_penalty>
0

> <s_user_duplicate_titles>
CHEMBL3717_lig4208

> <s_m_subgroup_title>
dock_pv

> <s_m_subgroupid>
dock_pv

> <b_m_subgroup_collapsed>
1

$$$$
CHEMBL3717_lig4227
                    3D
 Schrodinger Suite 2021-1.
 34 36  0  0  1  0            999 V2000
    4.0168    3.6340   29.2286 C   0  0  0  0  0  0
    3.9055    3.8548   30.5997 C   0  0  0  0  0  0
    2.6445    3.9653   31.1804 C   0  0  0  0  0  0
    1.5059    3.8808   30.3787 C   0  0  0  0  0  0
    1.6210    3.6409   29.0077 C   0  0  0  0  0  0
    2.8810    3.5125   28.4311 C   0  0  0  0  0  0
    0.2458    4.0767   30.9527 N   0  0  0  0  0  0
   -2.8417    5.8574   30.5736 C   0  0  0  0  0  0
   -1.9613    4.8546   30.8438 N   0  0  0  0  0  0
   -0.6410    5.1171   30.6455 C   0  0  0  0  0  0
   -0.2005    6.3795   30.2082 C   0  0  0  0  0  0
   -1.1735    7.3555   30.0134 C   0  0  0  0  0  0
   -2.4939    7.1157   30.2080 N   0  0  0  0  0  0
   -4.2230    5.6278   30.5841 N   0  0  0  0  0  0
   -5.0126    4.4709   30.4867 C   0  0  0  0  0  0
   -6.3940    4.6397   30.6081 C   0  0  0  0  0  0
   -7.2502    3.5482   30.4891 C   0  0  0  0  0  0
   -6.7230    2.2832   30.2406 C   0  0  0  0  0  0
   -5.3491    2.1027   30.1028 C   0  0  0  0  0  0
   -4.4945    3.1967   30.2162 C   0  0  0  0  0  0
    1.1058    6.6783   30.0153 F   0  0  0  0  0  0
    4.9962    3.5571   28.7787 H   0  0  0  0  0  0
    4.7943    3.9573   31.2026 H   0  0  0  0  0  0
    2.5522    4.1568   32.2394 H   0  0  0  0  0  0
    0.7373    3.5655   28.3904 H   0  0  0  0  0  0
    2.9760    3.3313   27.3712 H   0  0  0  0  0  0
   -0.2032    3.2389   31.2902 H   0  0  0  0  0  0
   -0.8969    8.3566   29.7151 H   0  0  0  0  0  0
   -4.7515    6.4636   30.3825 H   0  0  0  0  0  0
   -6.8126    5.6203   30.7848 H   0  0  0  0  0  0
   -8.3178    3.6831   30.5835 H   0  0  0  0  0  0
   -7.3862    1.4351   30.1471 H   0  0  0  0  0  0
   -4.9490    1.1193   29.9013 H   0  0  0  0  0  0
   -3.4379    3.0281   30.0927 H   0  0  0  0  0  0
  1  2  1  0  0  0
  1  6  2  0  0  0
  1 22  1  0  0  0
  2  3  2  0  0  0
  2 23  1  0  0  0
  3  4  1  0  0  0
  3 24  1  0  0  0
  4  5  2  0  0  0
  4  7  1  0  0  0
  5  6  1  0  0  0
  5 25  1  0  0  0
  6 26  1  0  0  0
  7 10  1  0  0  0
  7 27  1  0  0  0
  8  9  1  0  0  0
  8 13  2  0  0  0
  8 14  1  0  0  0
  9 10  2  0  0  0
 10 11  1  0  0  0
 11 12  2  0  0  0
 11 21  1  0  0  0
 12 13  1  0  0  0
 12 28  1  0  0  0
 14 15  1  0  0  0
 14 29  1  0  0  0
 15 16  1  0  0  0
 15 20  2  0  0  0
 16 17  2  0  0  0
 16 30  1  0  0  0
 17 18  1  0  0  0
 17 31  1  0  0  0
 18 19  2  0  0  0
 18 32  1  0  0  0
 19 20  1  0  0  0
 19 33  1  0  0  0
 20 34  1  0  0  0
M  END
> <s_m_entry_id>
9944

> <s_m_entry_name>
dock_pv.13

> <s_m_Source_Path>
/home/csk/Desktop/cluster/DUD-E-result/met

> <s_m_Source_File>
dock_pv.maegz

> <i_m_Source_File_Index>
13

> <chembl_id>
CHEMBL491758

> <chembl_pref_name>
None

> <i_lp_mmshare_version>
53161

> <i_f3d_flags>
0

> <r_lp_tautomer_probability>
0.999999624730965

> <s_lp_Force_Field>
OPLS_2005

> <r_lp_Energy>
12.367817

> <b_lp_Chiralities_Consistent>
1

> <s_lp_Variant>
CHEMBL3717_lig4227-1

> <s_i_glide_gridfile>
glide-grid_3lq8

> <i_i_glide_lignum>
5426

> <i_i_glide_rotatable_bonds>
4

> <r_i_docking_score>
-9.56928478749285

> <r_i_glide_ligand_efficiency>
-0.45568022797585

> <r_i_glide_ligand_efficiency_sa>
-1.25718719638559

> <r_i_glide_ligand_efficiency_ln>
-2.36598632714699

> <r_i_glide_gscore>
-9.56928478749285

> <r_i_glide_lipo>
-3.84146342483739

> <r_i_glide_hbond>
-0.288715782464779

> <r_i_glide_metal>
0

> <r_i_glide_rewards>
-3.81891769029193

> <r_i_glide_evdw>
-40.514591217041

> <r_i_glide_ecoul>
-3.42534351348877

> <r_i_glide_erotb>
0.919343197976617

> <r_i_glide_esite>
0

> <r_i_glide_emodel>
-62.891629271969

> <r_i_glide_energy>
-43.9399347305298

> <r_i_glide_einternal>
9.86225605010986

> <i_i_glide_confnum>
38

> <i_i_glide_posenum>
18

> <r_i_glide_eff_state_penalty>
0

> <s_user_duplicate_titles>
CHEMBL3717_lig4227

> <s_m_subgroup_title>
dock_pv

> <s_m_subgroupid>
dock_pv

> <b_m_subgroup_collapsed>
1

$$$$
CHEMBL3717_lig413
                    3D
 Schrodinger Suite 2021-1.
 28 30  0  0  1  0            999 V2000
   -3.7910    4.9725   30.9438 C   0  0  0  0  0  0
   -4.0505    6.2868   30.5887 C   0  0  0  0  0  0
   -3.0857    7.1570   30.2080 N   0  0  0  0  0  0
   -2.4734    4.5165   31.0080 C   0  0  0  0  0  0
   -1.4723    5.4420   30.6678 C   0  0  0  0  0  0
   -1.8243    6.7350   30.2080 C   0  0  0  0  0  0
   -0.6283    7.3950   29.8080 C   0  0  0  0  0  0
    0.4134    6.5957   30.1949 C   0  0  0  0  0  0
   -0.0856    5.4136   30.6800 N   0  0  0  0  0  0
    0.9186    4.1950   31.2916 S   0  0  0  0  0  0
    2.0151    3.8481   29.9444 C   0  0  0  0  0  0
    1.6218    4.7570   32.4468 O   0  0  0  0  0  0
    0.0415    3.0397   31.4080 O   0  0  0  0  0  0
    1.3838    3.4474   28.7665 C   0  0  0  0  0  0
    2.1268    3.0690   27.6629 C   0  0  0  0  0  0
    3.5060    3.1103   27.7369 C   0  0  0  0  0  0
    4.1538    3.5570   28.8823 C   0  0  0  0  0  0
    3.4151    3.9095   30.0032 C   0  0  0  0  0  0
    4.2981    4.3570   31.4080 Cl  0  0  0  0  0  0
   -4.6102    4.3156   31.1990 H   0  0  0  0  0  0
   -5.0660    6.6585   30.5660 H   0  0  0  0  0  0
   -2.2634    3.5098   31.3334 H   0  0  0  0  0  0
   -0.5216    8.3570   29.3571 H   0  0  0  0  0  0
    1.4831    6.7527   30.1406 H   0  0  0  0  0  0
    0.3060    3.3850   28.7143 H   0  0  0  0  0  0
    1.6347    2.7167   26.7676 H   0  0  0  0  0  0
    4.0791    2.7570   26.8957 H   0  0  0  0  0  0
    5.2336    3.5705   28.9162 H   0  0  0  0  0  0
  1  4  1  0  0  0
  1  2  2  0  0  0
  1 20  1  0  0  0
  2  3  1  0  0  0
  2 21  1  0  0  0
  3  6  2  0  0  0
  4  5  2  0  0  0
  4 22  1  0  0  0
  5  9  1  0  0  0
  5  6  1  0  0  0
  6  7  1  0  0  0
  7  8  2  0  0  0
  7 23  1  0  0  0
  8  9  1  0  0  0
  8 24  1  0  0  0
  9 10  1  0  0  0
 10 11  1  0  0  0
 10 12  2  0  0  0
 10 13  2  0  0  0
 11 14  2  0  0  0
 11 18  1  0  0  0
 14 15  1  0  0  0
 14 25  1  0  0  0
 15 16  2  0  0  0
 15 26  1  0  0  0
 16 17  1  0  0  0
 16 27  1  0  0  0
 17 18  2  0  0  0
 17 28  1  0  0  0
 18 19  1  0  0  0
M  END
> <s_m_entry_id>
9945

> <s_m_entry_name>
dock_pv.14

> <s_m_Source_Path>
/home/csk/Desktop/cluster/DUD-E-result/met

> <s_m_Source_File>
dock_pv.maegz

> <i_m_Source_File_Index>
14

> <chembl_id>
CHEMBL554510

> <chembl_pref_name>
None

> <i_lp_mmshare_version>
53161

> <i_f3d_flags>
0

> <r_lp_tautomer_probability>
1

> <s_lp_Force_Field>
OPLS_2005

> <r_lp_Energy>
6.213067

> <b_lp_Chiralities_Consistent>
1

> <s_lp_Variant>
CHEMBL3717_lig413-1

> <s_i_glide_gridfile>
glide-grid_3lq8

> <i_i_glide_lignum>
437

> <i_i_glide_rotatable_bonds>
2

> <r_i_docking_score>
-9.52278915730564

> <r_i_glide_ligand_efficiency>
-0.501199429331876

> <r_i_glide_ligand_efficiency_sa>
-1.33740138225504

> <r_i_glide_ligand_efficiency_ln>
-2.41423158213441

> <r_i_glide_gscore>
-9.52278915730564

> <r_i_glide_lipo>
-3.78831330880768

> <r_i_glide_hbond>
-0.32

> <r_i_glide_metal>
0

> <r_i_glide_rewards>
-3.68508985146457

> <r_i_glide_evdw>
-26.5214080810547

> <r_i_glide_ecoul>
-5.53004932403564

> <r_i_glide_erotb>
0.426191805624683

> <r_i_glide_esite>
0

> <r_i_glide_emodel>
-46.5197694448818

> <r_i_glide_energy>
-32.0514574050903

> <r_i_glide_einternal>
4.36256408691406

> <i_i_glide_confnum>
6

> <i_i_glide_posenum>
2

> <r_i_glide_eff_state_penalty>
0

> <s_user_duplicate_titles>
CHEMBL3717_lig413,563862

> <s_m_subgroup_title>
dock_pv

> <s_m_subgroupid>
dock_pv

> <b_m_subgroup_collapsed>
1

$$$$
CHEMBL3717_lig420
                    3D
 Schrodinger Suite 2021-1.
 30 32  0  0  1  0            999 V2000
   -3.6051    4.9972   31.0080 C   0  0  0  0  0  0
   -3.8613    6.2996   30.6080 C   0  0  0  0  0  0
   -2.8940    7.1570   30.2080 N   0  0  0  0  0  0
   -2.2904    4.5336   31.0826 C   0  0  0  0  0  0
   -1.2881    5.4334   30.6894 C   0  0  0  0  0  0
   -1.6342    6.7246   30.2080 C   0  0  0  0  0  0
   -0.4338    7.3787   29.8080 C   0  0  0  0  0  0
    0.5981    6.5495   30.1719 C   0  0  0  0  0  0
    0.0959    5.3686   30.6634 N   0  0  0  0  0  0
    1.0802    4.1705   31.3656 S   0  0  0  0  0  0
    2.3578    3.8978   30.1683 C   0  0  0  0  0  0
    1.6533    4.7570   32.5813 O   0  0  0  0  0  0
    0.2436    2.9789   31.4080 O   0  0  0  0  0  0
    2.0458    3.2807   28.9548 C   0  0  0  0  0  0
    3.0254    3.1570   27.9743 C   0  0  0  0  0  0
    4.3060    3.6563   28.2118 C   0  0  0  0  0  0
    4.6247    4.2485   29.4329 C   0  0  0  0  0  0
    3.6499    4.3574   30.4176 C   0  0  0  0  0  0
    5.9060    4.7382   29.6687 N   0  0  0  0  0  0
   -4.4293    4.3555   31.2843 H   0  0  0  0  0  0
   -4.8763    6.6724   30.5700 H   0  0  0  0  0  0
   -2.0791    3.5350   31.4327 H   0  0  0  0  0  0
   -0.3234    8.3570   29.3782 H   0  0  0  0  0  0
    1.6668    6.6962   30.1134 H   0  0  0  0  0  0
    1.0457    2.9157   28.7649 H   0  0  0  0  0  0
    2.7910    2.6829   27.0320 H   0  0  0  0  0  0
    5.0628    3.5570   27.4497 H   0  0  0  0  0  0
    3.8868    4.8166   31.3649 H   0  0  0  0  0  0
    6.6121    4.6376   28.9525 H   0  0  0  0  0  0
    6.0789    5.3224   30.4732 H   0  0  0  0  0  0
  1  4  1  0  0  0
  1  2  2  0  0  0
  1 20  1  0  0  0
  2  3  1  0  0  0
  2 21  1  0  0  0
  3  6  2  0  0  0
  4  5  2  0  0  0
  4 22  1  0  0  0
  5  9  1  0  0  0
  5  6  1  0  0  0
  6  7  1  0  0  0
  7  8  2  0  0  0
  7 23  1  0  0  0
  8  9  1  0  0  0
  8 24  1  0  0  0
  9 10  1  0  0  0
 10 11  1  0  0  0
 10 12  2  0  0  0
 10 13  2  0  0  0
 11 14  2  0  0  0
 11 18  1  0  0  0
 14 15  1  0  0  0
 14 25  1  0  0  0
 15 16  2  0  0  0
 15 26  1  0  0  0
 16 17  1  0  0  0
 16 27  1  0  0  0
 17 18  2  0  0  0
 17 19  1  0  0  0
 18 28  1  0  0  0
 19 29  1  0  0  0
 19 30  1  0  0  0
M  END
> <s_m_entry_id>
9946

> <s_m_entry_name>
dock_pv.15

> <s_m_Source_Path>
/home/csk/Desktop/cluster/DUD-E-result/met

> <s_m_Source_File>
dock_pv.maegz

> <i_m_Source_File_Index>
15

> <chembl_id>
CHEMBL561180

> <chembl_pref_name>
None

> <i_lp_mmshare_version>
53161

> <i_f3d_flags>
0

> <r_lp_tautomer_probability>
1

> <s_lp_Force_Field>
OPLS_2005

> <r_lp_Energy>
5.44219

> <b_lp_Chiralities_Consistent>
1

> <s_lp_Variant>
CHEMBL3717_lig420-1

> <s_i_glide_gridfile>
glide-grid_3lq8

> <i_i_glide_lignum>
444

> <i_i_glide_rotatable_bonds>
2

> <r_i_docking_score>
-9.51373354739023

> <r_i_glide_ligand_efficiency>
-0.500722818283696

> <r_i_glide_ligand_efficiency_sa>
-1.33612959254953

> <r_i_glide_ligand_efficiency_ln>
-2.41193579052419

> <r_i_glide_gscore>
-9.51373354739023

> <r_i_glide_lipo>
-3.74439509954806

> <r_i_glide_hbond>
-0.32

> <r_i_glide_metal>
0

> <r_i_glide_rewards>
-3.72261165465534

> <r_i_glide_evdw>
-30.7885150909424

> <r_i_glide_ecoul>
-4.45033931732178

> <r_i_glide_erotb>
0.480249858958564

> <r_i_glide_esite>
0

> <r_i_glide_emodel>
-52.2839947020653

> <r_i_glide_energy>
-35.2388544082642

> <r_i_glide_einternal>
3.34708547592163

> <i_i_glide_confnum>
2

> <i_i_glide_posenum>
162

> <r_i_glide_eff_state_penalty>
0

> <s_user_duplicate_titles>
CHEMBL3717_lig420

> <s_m_subgroup_title>
dock_pv

> <s_m_subgroupid>
dock_pv

> <b_m_subgroup_collapsed>
1

$$$$
CHEMBL3717_lig3781
                    3D
 Schrodinger Suite 2021-1.
 34 37  0  0  1  0            999 V2000
   -5.3861    2.6600   30.2080 S   0  0  0  0  0  0
   -3.2744    4.4631   30.6080 N   0  0  0  0  0  0
   -3.2940    6.7374   30.5266 N   0  0  0  0  0  0
   -3.0165    2.1459   31.0080 N   0  0  0  0  0  0
   -5.3658    5.7159   30.6540 N   0  0  0  0  0  0
    2.7827    3.8100   30.5256 N   0  0  0  0  0  0
   -1.9446    4.8856   30.6080 C   0  0  0  0  0  0
   -3.7576    3.1496   30.6080 C   0  0  0  0  0  0
   -2.0112    6.2917   30.4402 C   0  0  0  0  0  0
   -4.0085    5.6496   30.6079 C   0  0  0  0  0  0
   -0.7099    4.2139   30.6419 C   0  0  0  0  0  0
   -3.6385    0.9815   31.0080 C   0  0  0  0  0  0
   -0.8447    7.0313   30.2080 C   0  0  0  0  0  0
    0.4460    4.9815   30.4526 C   0  0  0  0  0  0
   -4.9551    1.0224   30.5638 C   0  0  0  0  0  0
   -2.8940   -0.2245   31.4364 C   0  0  0  0  0  0
    0.3763    6.3570   30.2155 C   0  0  0  0  0  0
    1.7482    4.3284   30.4916 C   0  0  0  0  0  0
   -2.8940   -1.3361   30.5955 C   0  0  0  0  0  0
   -2.1249   -0.2238   32.6080 C   0  0  0  0  0  0
   -2.0754   -2.4169   30.8902 C   0  0  0  0  0  0
   -1.3239   -1.3208   32.9141 C   0  0  0  0  0  0
   -1.2940   -2.4073   32.0437 C   0  0  0  0  0  0
   -5.9316    4.8857   30.7413 H   0  0  0  0  0  0
   -5.8325    6.5440   30.3051 H   0  0  0  0  0  0
   -0.6435    3.1436   30.7693 H   0  0  0  0  0  0
   -0.8873    8.1002   30.0520 H   0  0  0  0  0  0
   -5.6631    0.2124   30.4620 H   0  0  0  0  0  0
    1.2823    6.9257   30.0543 H   0  0  0  0  0  0
   -3.4727   -1.3401   29.6821 H   0  0  0  0  0  0
   -2.1227    0.6370   33.2610 H   0  0  0  0  0  0
   -2.0394   -3.2430   30.2015 H   0  0  0  0  0  0
   -0.7087   -1.3197   33.8019 H   0  0  0  0  0  0
   -0.6446   -3.2430   32.2580 H   0  0  0  0  0  0
  1  8  1  0  0  0
  1 15  1  0  0  0
  2  7  1  0  0  0
  2  8  1  0  0  0
  2 10  1  0  0  0
  3  9  1  0  0  0
  3 10  2  0  0  0
  4  8  2  0  0  0
  4 12  1  0  0  0
  5 10  1  0  0  0
  5 24  1  0  0  0
  5 25  1  0  0  0
  6 18  3  0  0  0
  7  9  1  0  0  0
  7 11  2  0  0  0
  9 13  2  0  0  0
 11 14  1  0  0  0
 11 26  1  0  0  0
 12 15  2  0  0  0
 12 16  1  0  0  0
 13 17  1  0  0  0
 13 27  1  0  0  0
 14 17  2  0  0  0
 14 18  1  0  0  0
 15 28  1  0  0  0
 16 19  2  0  0  0
 16 20  1  0  0  0
 17 29  1  0  0  0
 19 21  1  0  0  0
 19 30  1  0  0  0
 20 22  2  0  0  0
 20 31  1  0  0  0
 21 23  2  0  0  0
 21 32  1  0  0  0
 22 23  1  0  0  0
 22 33  1  0  0  0
 23 34  1  0  0  0
M  END
> <s_m_entry_id>
9947

> <s_m_entry_name>
dock_pv.16

> <s_m_Source_Path>
/home/csk/Desktop/cluster/DUD-E-result/met

> <s_m_Source_File>
dock_pv.maegz

> <i_m_Source_File_Index>
16

> <chembl_id>
CHEMBL1996066

> <chembl_pref_name>
None

> <i_lp_mmshare_version>
53161

> <i_f3d_flags>
0

> <r_lp_tautomer_probability>
1

> <s_lp_Force_Field>
OPLS_2005

> <r_lp_Energy>
15.377287

> <b_lp_Chiralities_Consistent>
1

> <s_lp_Variant>
CHEMBL3717_lig3781-1

> <s_i_glide_gridfile>
glide-grid_3lq8

> <i_i_glide_lignum>
4786

> <i_i_glide_rotatable_bonds>
2

> <r_i_docking_score>
-9.47280639854246

> <r_i_glide_ligand_efficiency>
-0.411861147762716

> <r_i_glide_ligand_efficiency_sa>
-1.17127831718198

> <r_i_glide_ligand_efficiency_ln>
-2.29061048182705

> <r_i_glide_gscore>
-9.47280639854246

> <r_i_glide_lipo>
-3.11964469293875

> <r_i_glide_hbond>
-0.406234771771402

> <r_i_glide_metal>
0

> <r_i_glide_rewards>
-3.57655079104109

> <r_i_glide_evdw>
-40.3105888366699

> <r_i_glide_ecoul>
-4.09195470809937

> <r_i_glide_erotb>
0.258946505257186

> <r_i_glide_esite>
0

> <r_i_glide_emodel>
-63.7236847503453

> <r_i_glide_energy>
-44.4025435447693

> <r_i_glide_einternal>
5.07835149765015

> <i_i_glide_confnum>
4

> <i_i_glide_posenum>
146

> <r_i_glide_eff_state_penalty>
0

> <s_user_duplicate_titles>
CHEMBL3717_lig3781

> <s_m_subgroup_title>
dock_pv

> <s_m_subgroupid>
dock_pv

> <b_m_subgroup_collapsed>
1

$$$$
CHEMBL3717_lig2341
                    3D
 Schrodinger Suite 2021-1.
 44 47  0  0  1  0            999 V2000
    0.0752    5.6957   30.4860 C   0  0  0  0  0  0
   -0.9908    7.5335   30.2080 N   0  0  0  0  0  0
    0.2278    6.9671   30.2065 N   0  0  0  0  0  0
   -1.9823    6.6087   30.4759 C   0  0  0  0  0  0
   -1.3147    5.3684   30.6064 C   0  0  0  0  0  0
   -2.0735    4.1922   30.7144 C   0  0  0  0  0  0
   -3.4775    4.2726   30.6080 C   0  0  0  0  0  0
   -4.0910    5.5334   30.6100 C   0  0  0  0  0  0
   -3.3668    6.7222   30.6071 C   0  0  0  0  0  0
    1.2481    4.7893   30.5714 C   0  0  0  0  0  0
    1.5104    4.0840   31.7495 C   0  0  0  0  0  0
    2.6433    3.2707   31.8067 C   0  0  0  0  0  0
    3.5034    3.1303   30.7665 N   0  0  0  0  0  0
    3.2284    3.8048   29.6221 C   0  0  0  0  0  0
    2.1174    4.6393   29.4849 C   0  0  0  0  0  0
   -4.3517    3.0355   30.5314 C   0  0  0  0  0  0
   -5.5750    3.1336   30.4221 O   0  0  0  0  0  0
   -3.7261    1.8479   30.6077 N   0  0  0  0  0  0
   -4.3576    0.5285   30.6773 C   0  0  2  0  0  0
   -3.2937   -0.5129   31.0423 C   0  0  0  0  0  0
   -2.9134   -1.5429   30.1686 C   0  0  0  0  0  0
   -1.9134   -2.4429   30.5313 C   0  0  0  0  0  0
   -1.2883   -2.3377   31.7731 C   0  0  0  0  0  0
   -1.6636   -1.3279   32.6556 C   0  0  0  0  0  0
   -2.6616   -0.4243   32.2908 C   0  0  0  0  0  0
   -0.8919   -1.1897   34.1948 Cl  0  0  0  0  0  0
   -5.1749    0.2007   29.4077 C   0  0  0  0  0  0
   -1.0822    8.5247   30.0157 H   0  0  0  0  0  0
   -1.5572    3.2456   30.7569 H   0  0  0  0  0  0
   -5.1707    5.6088   30.5966 H   0  0  0  0  0  0
   -3.8819    7.6673   30.6076 H   0  0  0  0  0  0
    0.8645    4.1815   32.6080 H   0  0  0  0  0  0
    2.8777    2.7158   32.7030 H   0  0  0  0  0  0
    3.9225    3.6654   28.8048 H   0  0  0  0  0  0
    1.9324    5.1558   28.5556 H   0  0  0  0  0  0
   -2.7353    1.8524   30.7832 H   0  0  0  0  0  0
   -5.0621    0.5300   31.5138 H   0  0  0  0  0  0
   -3.3687   -1.6531   29.1949 H   0  0  0  0  0  0
   -1.6330   -3.2321   29.8486 H   0  0  0  0  0  0
   -0.5082   -3.0340   32.0471 H   0  0  0  0  0  0
   -2.9397    0.3571   32.9827 H   0  0  0  0  0  0
   -5.5892   -0.8074   29.4437 H   0  0  0  0  0  0
   -6.0172    0.8799   29.2785 H   0  0  0  0  0  0
   -4.5587    0.2826   28.5130 H   0  0  0  0  0  0
  1  5  1  0  0  0
  1  3  2  0  0  0
  1 10  1  0  0  0
  2  4  1  0  0  0
  2  3  1  0  0  0
  2 28  1  0  0  0
  4  5  2  0  0  0
  4  9  1  0  0  0
  5  6  1  0  0  0
  6  7  2  0  0  0
  6 29  1  0  0  0
  7  8  1  0  0  0
  7 16  1  0  0  0
  8  9  2  0  0  0
  8 30  1  0  0  0
  9 31  1  0  0  0
 10 11  2  0  0  0
 10 15  1  0  0  0
 11 12  1  0  0  0
 11 32  1  0  0  0
 12 13  2  0  0  0
 12 33  1  0  0  0
 13 14  1  0  0  0
 14 15  2  0  0  0
 14 34  1  0  0  0
 15 35  1  0  0  0
 16 17  2  0  0  0
 16 18  1  0  0  0
 18 19  1  0  0  0
 18 36  1  0  0  0
 19 20  1  0  0  0
 19 27  1  0  0  0
 19 37  1  0  0  0
 20 21  2  0  0  0
 20 25  1  0  0  0
 21 22  1  0  0  0
 21 38  1  0  0  0
 22 23  2  0  0  0
 22 39  1  0  0  0
 23 24  1  0  0  0
 23 40  1  0  0  0
 24 25  2  0  0  0
 24 26  1  0  0  0
 25 41  1  0  0  0
 27 42  1  0  0  0
 27 43  1  0  0  0
 27 44  1  0  0  0
M  END
> <s_m_entry_id>
9948

> <s_m_entry_name>
dock_pv.17

> <s_m_Source_Path>
/home/csk/Desktop/cluster/DUD-E-result/met

> <s_m_Source_File>
dock_pv.maegz

> <i_m_Source_File_Index>
17

> <chembl_id>
CHEMBL3798631

> <chembl_pref_name>
None

> <i_lp_mmshare_version>
53161

> <i_f3d_flags>
0

> <r_lp_tautomer_probability>
0.980392156862745

> <s_lp_Force_Field>
OPLS_2005

> <r_lp_Energy>
17.062161

> <b_lp_Chiralities_Consistent>
1

> <s_lp_Variant>
CHEMBL3717_lig2341-1

> <s_i_glide_gridfile>
glide-grid_3lq8

> <i_i_glide_lignum>
2659

> <i_i_glide_rotatable_bonds>
5

> <r_i_docking_score>
-9.38685081932642

> <r_i_glide_ligand_efficiency>
-0.347661141456534

> <r_i_glide_ligand_efficiency_sa>
-1.04298342322377

> <r_i_glide_ligand_efficiency_ln>
-2.18510411640873

> <r_i_glide_gscore>
-9.38685081932642

> <r_i_glide_lipo>
-4.42095980437652

> <r_i_glide_hbond>
-0.32

> <r_i_glide_metal>
0

> <r_i_glide_rewards>
-2.55301857792899

> <r_i_glide_evdw>
-48.0837631225586

> <r_i_glide_ecoul>
-1.56042957305908

> <r_i_glide_erotb>
0.54538015506588

> <r_i_glide_esite>
0

> <r_i_glide_emodel>
-70.9314444511852

> <r_i_glide_energy>
-49.6441926956177

> <r_i_glide_einternal>
8.49535274505615

> <i_i_glide_confnum>
3

> <i_i_glide_posenum>
345

> <r_i_glide_eff_state_penalty>
0

> <s_user_duplicate_titles>
CHEMBL3717_lig2341,CHEMBL3717_lig2341

> <s_m_subgroup_title>
dock_pv

> <s_m_subgroupid>
dock_pv

> <b_m_subgroup_collapsed>
1

$$$$
CHEMBL3717_lig1343
                    3D
 Schrodinger Suite 2021-1.
 61 65  0  0  1  0            999 V2000
   -2.1737    3.1345   31.2759 C   0  0  0  0  0  0
   -3.2521    5.9590   30.7233 C   0  0  0  0  0  0
   -4.3677    5.1999   30.6639 C   0  0  0  0  0  0
   -3.4899    2.7999   30.6564 C   0  0  0  0  0  0
   -4.5330    3.7337   30.4983 C   0  0  0  0  0  0
   -5.8101    3.2375   30.2070 C   0  0  0  0  0  0
   -6.0281    1.8752   29.9744 C   0  0  0  0  0  0
   -4.9698    0.9700   30.0574 C   0  0  0  0  0  0
   -3.7126    1.4315   30.4371 C   0  0  0  0  0  0
   -1.8291    5.5714   30.6080 C   0  0  0  0  0  0
   -1.3537    4.2660   30.8002 C   0  0  0  0  0  0
   -0.0070    3.9808   30.5527 C   0  0  0  0  0  0
    0.8280    4.9840   30.0712 C   0  0  0  0  0  0
    0.3059    6.2738   29.9421 C   0  0  0  0  0  0
   -0.9966    6.5719   30.2068 N   0  0  0  0  0  0
   -1.6939    2.3571   32.1025 O   0  0  0  0  0  0
   -5.1706   -0.5123   29.7804 C   0  0  0  0  0  0
   -5.4605   -1.5116   31.3578 S   0  0  0  0  0  0
   -5.5055   -3.1741   30.7952 N   0  0  3  0  0  0
   -6.7960   -1.1828   31.8667 O   0  0  0  0  0  0
   -4.2720   -1.3790   32.2068 O   0  0  0  0  0  0
    2.2018    4.6069   29.6764 C   0  0  0  0  0  0
    2.6081    3.9525   28.5036 C   0  0  0  0  0  0
    3.9043    3.7519   28.4443 N   0  0  0  0  0  0
    4.3693    4.2479   29.5943 N   0  0  0  0  0  0
    3.3745    4.7549   30.3870 C   0  0  0  0  0  0
    5.7965    4.2081   29.8602 C   0  0  0  0  0  0
   -6.6635   -3.6805   30.0339 C   0  0  0  0  0  0
   -6.4503   -5.1152   29.5030 C   0  0  2  0  0  0
   -5.2941   -5.2816   28.6079 N   0  0  2  0  0  0
   -5.1453   -6.5947   27.9866 C   0  0  0  0  0  0
   -6.4349   -7.0640   27.2945 C   0  0  0  0  0  0
   -7.6089   -7.0763   28.2768 C   0  0  0  0  0  0
   -7.7713   -5.6987   28.9400 C   0  0  0  0  0  0
   -3.4092    7.0170   30.8720 H   0  0  0  0  0  0
   -5.2991    5.7391   30.7681 H   0  0  0  0  0  0
   -6.6467    3.9149   30.1114 H   0  0  0  0  0  0
   -7.0200    1.5290   29.7209 H   0  0  0  0  0  0
   -2.9195    0.7066   30.5765 H   0  0  0  0  0  0
    0.3880    2.9798   30.6710 H   0  0  0  0  0  0
    0.9227    7.0869   29.5852 H   0  0  0  0  0  0
   -4.2952   -0.9341   29.2855 H   0  0  0  0  0  0
   -6.0240   -0.6814   29.1235 H   0  0  0  0  0  0
   -4.6250   -3.7010   30.7403 H   0  0  0  0  0  0
    1.9546    3.6379   27.7008 H   0  0  0  0  0  0
    3.5814    5.1568   31.3631 H   0  0  0  0  0  0
    6.0063    4.6194   30.8467 H   0  0  0  0  0  0
    6.1439    3.1760   29.8145 H   0  0  0  0  0  0
    6.3219    4.7965   29.1063 H   0  0  0  0  0  0
   -6.8688   -2.9929   29.2127 H   0  0  0  0  0  0
   -7.5324   -3.6462   30.6913 H   0  0  0  0  0  0
   -6.1700   -5.7411   30.3525 H   0  0  0  0  0  0
   -4.4596   -5.1557   29.1872 H   0  0  0  0  0  0
   -4.3272   -6.5462   27.2663 H   0  0  0  0  0  0
   -4.8526   -7.3093   28.7574 H   0  0  0  0  0  0
   -6.6462   -6.4433   26.4238 H   0  0  0  0  0  0
   -6.2816   -8.0680   26.9016 H   0  0  0  0  0  0
   -8.5289   -7.3607   27.7640 H   0  0  0  0  0  0
   -7.4335   -7.8328   29.0429 H   0  0  0  0  0  0
   -8.1849   -5.0062   28.2081 H   0  0  0  0  0  0
   -8.5013   -5.8014   29.7433 H   0  0  0  0  0  0
  1 11  1  0  0  0
  1  4  1  0  0  0
  1 16  2  0  0  0
  2 10  1  0  0  0
  2  3  2  0  0  0
  2 35  1  0  0  0
  3  5  1  0  0  0
  3 36  1  0  0  0
  4  5  2  0  0  0
  4  9  1  0  0  0
  5  6  1  0  0  0
  6  7  2  0  0  0
  6 37  1  0  0  0
  7  8  1  0  0  0
  7 38  1  0  0  0
  8  9  2  0  0  0
  8 17  1  0  0  0
  9 39  1  0  0  0
 10 11  2  0  0  0
 10 15  1  0  0  0
 11 12  1  0  0  0
 12 13  2  0  0  0
 12 40  1  0  0  0
 13 14  1  0  0  0
 13 22  1  0  0  0
 14 15  2  0  0  0
 14 41  1  0  0  0
 17 18  1  0  0  0
 17 42  1  0  0  0
 17 43  1  0  0  0
 18 19  1  0  0  0
 18 20  2  0  0  0
 18 21  2  0  0  0
 19 28  1  0  0  0
 19 44  1  0  0  0
 22 23  1  0  0  0
 22 26  2  0  0  0
 23 24  2  0  0  0
 23 45  1  0  0  0
 24 25  1  0  0  0
 25 26  1  0  0  0
 25 27  1  0  0  0
 26 46  1  0  0  0
 27 47  1  0  0  0
 27 48  1  0  0  0
 27 49  1  0  0  0
 28 29  1  0  0  0
 28 50  1  0  0  0
 28 51  1  0  0  0
 29 30  1  0  0  0
 29 34  1  0  0  0
 29 52  1  0  0  0
 30 31  1  0  0  0
 30 53  1  0  0  0
 31 32  1  0  0  0
 31 54  1  0  0  0
 31 55  1  0  0  0
 32 33  1  0  0  0
 32 56  1  0  0  0
 32 57  1  0  0  0
 33 34  1  0  0  0
 33 58  1  0  0  0
 33 59  1  0  0  0
 34 60  1  0  0  0
 34 61  1  0  0  0
M  END
> <s_m_entry_id>
9949

> <s_m_entry_name>
dock_pv.18

> <s_m_Source_Path>
/home/csk/Desktop/cluster/DUD-E-result/met

> <s_m_Source_File>
dock_pv.maegz

> <i_m_Source_File_Index>
18

> <chembl_id>
CHEMBL2323778

> <chembl_pref_name>
None

> <i_lp_mmshare_version>
53161

> <i_f3d_flags>
0

> <r_lp_tautomer_probability>
1

> <s_lp_Force_Field>
OPLS_2005

> <r_lp_Energy>
35.960364

> <b_lp_Chiralities_Consistent>
1

> <s_lp_Variant>
CHEMBL3717_lig1343-1

> <s_i_glide_gridfile>
glide-grid_3lq8

> <i_i_glide_lignum>
1529

> <i_i_glide_rotatable_bonds>
6

> <r_i_docking_score>
-9.35162095417903

> <r_i_glide_ligand_efficiency>
-0.275047675122913

> <r_i_glide_ligand_efficiency_sa>
-0.891047693194738

> <r_i_glide_ligand_efficiency_ln>
-2.06603537286108

> <r_i_glide_gscore>
-9.35162095417903

> <r_i_glide_lipo>
-4.32225859670335

> <r_i_glide_hbond>
-0.526605529415516

> <r_i_glide_metal>
0

> <r_i_glide_rewards>
-1.28573144867296

> <r_i_glide_evdw>
-46.8400802612305

> <r_i_glide_ecoul>
-8.48247051239014

> <r_i_glide_erotb>
0.44409768454078

> <r_i_glide_esite>
-0.0467484740079441

> <r_i_glide_emodel>
-78.2142494374488

> <r_i_glide_energy>
-55.3225507736206

> <r_i_glide_einternal>
7.31715154647827

> <i_i_glide_confnum>
4

> <i_i_glide_posenum>
110

> <r_i_glide_eff_state_penalty>
0

> <s_user_duplicate_titles>
CHEMBL3717_lig1343

> <s_m_subgroup_title>
dock_pv

> <s_m_subgroupid>
dock_pv

> <b_m_subgroup_collapsed>
1

$$$$
CHEMBL3717_lig3736
                    3D
 Schrodinger Suite 2021-1.
 49 52  0  0  1  0            999 V2000
   -4.5999    3.3625   30.4910 O   0  0  0  0  0  0
    4.2653    3.5423   30.5480 N   0  0  0  0  0  0
    4.3059    3.1573   29.2642 N   0  0  0  0  0  0
   -2.9280    6.6067   30.6077 N   0  0  0  0  0  0
   -6.3023    1.1573   31.4981 N   0  0  0  0  0  0
    2.1886    3.6783   29.5233 C   0  0  0  0  0  0
    2.9527    3.8713   30.7118 C   0  0  0  0  0  0
    0.2317    4.5327   30.6445 C   0  0  0  0  0  0
    0.8240    3.9784   29.5073 C   0  0  0  0  0  0
    3.1158    3.1826   28.5810 C   0  0  0  0  0  0
   -1.2037    4.8988   30.6283 C   0  0  0  0  0  0
    2.3367    4.3576   31.8671 C   0  0  0  0  0  0
    0.9960    4.7260   31.7964 C   0  0  0  0  0  0
   -2.1930    3.9125   30.6081 C   0  0  0  0  0  0
   -3.5551    4.2648   30.5767 C   0  0  0  0  0  0
   -1.6228    6.2326   30.6080 C   0  0  0  0  0  0
   -3.8656    5.6265   30.5924 C   0  0  0  0  0  0
    2.9632    2.7300   27.1543 C   0  0  0  0  0  0
   -4.2825    1.9801   30.3307 C   0  0  0  0  0  0
   -5.5506    1.0988   30.2548 C   0  0  1  0  0  0
   -4.0183   -1.0503   30.4262 C   0  0  0  0  0  0
   -5.2777   -0.3793   29.8602 C   0  0  0  0  0  0
   -3.2475   -1.8458   29.5719 C   0  0  0  0  0  0
   -3.6214   -0.8906   31.7607 C   0  0  0  0  0  0
   -2.0782   -2.4427   30.0305 C   0  0  0  0  0  0
   -2.4354   -1.4680   32.2112 C   0  0  0  0  0  0
   -1.6686   -2.2401   31.3451 C   0  0  0  0  0  0
    5.1696    2.8181   28.8502 H   0  0  0  0  0  0
   -5.8075    0.7082   32.2567 H   0  0  0  0  0  0
   -6.4176    2.1245   31.7648 H   0  0  0  0  0  0
    0.2563    3.8079   28.6080 H   0  0  0  0  0  0
    2.8972    4.5062   32.7749 H   0  0  0  0  0  0
    0.5330    5.1571   32.6664 H   0  0  0  0  0  0
   -1.8805    2.8800   30.6018 H   0  0  0  0  0  0
   -0.9011    7.0369   30.6063 H   0  0  0  0  0  0
   -4.8963    5.9513   30.5584 H   0  0  0  0  0  0
    2.3058    3.4022   26.6082 H   0  0  0  0  0  0
    3.9047    2.6910   26.6108 H   0  0  0  0  0  0
    2.5226    1.7362   27.0948 H   0  0  0  0  0  0
   -3.6579    1.6638   31.1651 H   0  0  0  0  0  0
   -3.7029    1.8485   29.4144 H   0  0  0  0  0  0
   -6.2072    1.5252   29.4945 H   0  0  0  0  0  0
   -5.1895   -0.3903   28.7727 H   0  0  0  0  0  0
   -6.1436   -1.0076   30.0747 H   0  0  0  0  0  0
   -3.5517   -2.0034   28.5476 H   0  0  0  0  0  0
   -4.2088   -0.3056   32.4511 H   0  0  0  0  0  0
   -1.4959   -3.0650   29.3704 H   0  0  0  0  0  0
   -2.1041   -1.3229   33.2292 H   0  0  0  0  0  0
   -0.7537   -2.6954   31.6974 H   0  0  0  0  0  0
  1 15  1  0  0  0
  1 19  1  0  0  0
  2  3  1  0  0  0
  2  7  2  0  0  0
  3 28  1  0  0  0
  3 10  1  0  0  0
  4 16  1  0  0  0
  4 17  2  0  0  0
  5 20  1  0  0  0
  5 29  1  0  0  0
  5 30  1  0  0  0
  6  9  1  0  0  0
  6  7  1  0  0  0
  6 10  2  0  0  0
  7 12  1  0  0  0
  8 13  1  0  0  0
  8 11  1  0  0  0
  8  9  2  0  0  0
  9 31  1  0  0  0
 10 18  1  0  0  0
 11 14  1  0  0  0
 11 16  2  0  0  0
 12 32  1  0  0  0
 12 13  2  0  0  0
 13 33  1  0  0  0
 14 15  2  0  0  0
 14 34  1  0  0  0
 15 17  1  0  0  0
 16 35  1  0  0  0
 17 36  1  0  0  0
 18 37  1  0  0  0
 18 38  1  0  0  0
 18 39  1  0  0  0
 19 20  1  0  0  0
 19 40  1  0  0  0
 19 41  1  0  0  0
 20 22  1  0  0  0
 20 42  1  0  0  0
 21 22  1  0  0  0
 21 23  2  0  0  0
 21 24  1  0  0  0
 22 43  1  0  0  0
 22 44  1  0  0  0
 23 25  1  0  0  0
 23 45  1  0  0  0
 24 26  2  0  0  0
 24 46  1  0  0  0
 25 27  2  0  0  0
 25 47  1  0  0  0
 26 27  1  0  0  0
 26 48  1  0  0  0
 27 49  1  0  0  0
M  END
> <s_m_entry_id>
9950

> <s_m_entry_name>
dock_pv.19

> <s_m_Source_Path>
/home/csk/Desktop/cluster/DUD-E-result/met

> <s_m_Source_File>
dock_pv.maegz

> <i_m_Source_File_Index>
19

> <chembl_id>
CHEMBL2002726

> <chembl_pref_name>
None

> <i_lp_mmshare_version>
53161

> <i_f3d_flags>
0

> <r_lp_tautomer_probability>
0.0196078431372549

> <s_lp_Force_Field>
OPLS_2005

> <r_lp_Energy>
40.37

> <b_lp_Chiralities_Consistent>
1

> <s_lp_Variant>
CHEMBL3717_lig3736-4

> <s_i_glide_gridfile>
glide-grid_3lq8

> <i_i_glide_lignum>
4718

> <i_i_glide_rotatable_bonds>
6

> <r_i_docking_score>
-9.32188052422484

> <r_i_glide_ligand_efficiency>
-0.34525483423055

> <r_i_glide_ligand_efficiency_sa>
-1.03576450155375

> <r_i_glide_ligand_efficiency_ln>
-2.16998010282811

> <r_i_glide_gscore>
-9.32188052422484

> <r_i_glide_lipo>
-4.28323320816604

> <r_i_glide_hbond>
-0.346343904114638

> <r_i_glide_metal>
0

> <r_i_glide_rewards>
-2.58165390505444

> <r_i_glide_evdw>
-43.056697845459

> <r_i_glide_ecoul>
-4.6887354850769

> <r_i_glide_erotb>
0.745495708144768

> <r_i_glide_esite>
0

> <r_i_glide_emodel>
-70.9917570931426

> <r_i_glide_energy>
-47.7454333305359

> <r_i_glide_einternal>
7.62026071548462

> <i_i_glide_confnum>
14

> <i_i_glide_posenum>
280

> <r_i_glide_eff_state_penalty>
0

> <s_user_duplicate_titles>
CHEMBL3717_lig3736

> <s_m_subgroup_title>
dock_pv

> <s_m_subgroupid>
dock_pv

> <b_m_subgroup_collapsed>
1

$$$$
CHEMBL3717_lig907
                    3D
 Schrodinger Suite 2021-1.
 40 42  0  0  1  0            999 V2000
   -6.1395    1.7464   30.0202 C   0  0  0  0  0  0
   -7.2737    2.5712   30.0172 C   0  0  0  0  0  0
   -7.1526    3.9443   30.2080 C   0  0  0  0  0  0
   -5.8847    4.4828   30.3906 C   0  0  0  0  0  0
   -4.7407    3.7122   30.3710 C   0  0  0  0  0  0
   -4.8592    2.3208   30.1941 C   0  0  0  0  0  0
   -3.4300    1.3356   30.2080 Cl  0  0  0  0  0  0
   -3.6178    4.6269   30.6080 C   0  0  0  0  0  0
   -4.2318    5.9570   30.7715 C   0  0  0  0  0  0
   -5.5438    5.7841   30.6080 N   0  0  0  0  0  0
   -3.6940    7.0358   31.0080 O   0  0  0  0  0  0
   -2.3752    4.2904   30.6987 N   0  0  0  0  0  0
   -1.3541    5.1521   31.0080 N   0  0  0  0  0  0
   -0.8583    6.1268   30.2081 C   0  0  0  0  0  0
    0.6264    6.4622   30.3161 C   0  0  0  0  0  0
    1.5082    5.2420   30.5084 C   0  0  0  0  0  0
    2.2614    4.7570   29.5010 C   0  0  0  0  0  0
    3.2208    3.7840   29.6043 N   0  0  0  0  0  0
    3.4845    3.1784   30.8140 C   0  0  0  0  0  0
    2.6490    3.6235   31.9253 C   0  0  0  0  0  0
    1.7326    4.6093   31.8034 C   0  0  0  0  0  0
    4.3780    2.3570   31.0080 O   0  0  0  0  0  0
    4.0650    3.4262   28.4668 C   0  0  0  0  0  0
   -1.5205    6.7689   29.4080 O   0  0  0  0  0  0
   -6.3351    0.2783   29.7720 C   0  0  0  0  0  0
   -5.8928   -0.5127   30.7884 O   0  0  0  0  0  0
   -6.8940   -0.1408   28.7617 O   0  0  0  0  0  0
   -8.2603    2.1535   29.8640 H   0  0  0  0  0  0
   -8.0352    4.5680   30.2073 H   0  0  0  0  0  0
   -6.1864    6.5613   30.5606 H   0  0  0  0  0  0
   -0.6400    4.6882   31.5477 H   0  0  0  0  0  0
    0.7736    7.1545   31.1324 H   0  0  0  0  0  0
    0.9339    7.0088   29.4220 H   0  0  0  0  0  0
    2.2108    5.1570   28.4995 H   0  0  0  0  0  0
    2.8004    3.1488   32.8826 H   0  0  0  0  0  0
    1.1561    4.9157   32.6649 H   0  0  0  0  0  0
    3.6306    2.6032   27.8981 H   0  0  0  0  0  0
    5.0709    3.1570   28.7877 H   0  0  0  0  0  0
    4.1840    4.2840   27.8080 H   0  0  0  0  0  0
   -5.5231    0.0111   31.5003 H   0  0  0  0  0  0
  1  2  1  0  0  0
  1  6  2  0  0  0
  1 25  1  0  0  0
  2  3  2  0  0  0
  2 28  1  0  0  0
  3  4  1  0  0  0
  3 29  1  0  0  0
  4  5  2  0  0  0
  4 10  1  0  0  0
  5  6  1  0  0  0
  5  8  1  0  0  0
  6  7  1  0  0  0
  8  9  1  0  0  0
  8 12  2  0  0  0
  9 10  1  0  0  0
  9 11  2  0  0  0
 10 30  1  0  0  0
 12 13  1  0  0  0
 13 14  1  0  0  0
 13 31  1  0  0  0
 14 15  1  0  0  0
 14 24  2  0  0  0
 15 16  1  0  0  0
 15 32  1  0  0  0
 15 33  1  0  0  0
 16 17  2  0  0  0
 16 21  1  0  0  0
 17 18  1  0  0  0
 17 34  1  0  0  0
 18 19  1  0  0  0
 18 23  1  0  0  0
 19 20  1  0  0  0
 19 22  2  0  0  0
 20 21  2  0  0  0
 20 35  1  0  0  0
 21 36  1  0  0  0
 23 37  1  0  0  0
 23 38  1  0  0  0
 23 39  1  0  0  0
 25 26  1  0  0  0
 25 27  2  0  0  0
 26 40  1  0  0  0
M  END
> <s_m_entry_id>
9951

> <s_m_entry_name>
dock_pv.20

> <s_m_Source_Path>
/home/csk/Desktop/cluster/DUD-E-result/met

> <s_m_Source_File>
dock_pv.maegz

> <i_m_Source_File_Index>
20

> <chembl_id>
CHEMBL1822557

> <chembl_pref_name>
None

> <i_lp_mmshare_version>
53161

> <i_f3d_flags>
0

> <r_lp_tautomer_probability>
1

> <s_lp_Force_Field>
OPLS_2005

> <r_lp_Energy>
44.243418

> <b_lp_Chiralities_Consistent>
1

> <s_lp_Variant>
CHEMBL3717_lig907-1

> <s_i_glide_gridfile>
glide-grid_3lq8

> <i_i_glide_lignum>
981

> <i_i_glide_rotatable_bonds>
6

> <r_i_docking_score>
-9.27146306014629

> <r_i_glide_ligand_efficiency>
-0.343387520746159

> <r_i_glide_ligand_efficiency_sa>
-1.03016256110673

> <r_i_glide_ligand_efficiency_ln>
-2.15824374838748

> <r_i_glide_gscore>
-9.27146306014629

> <r_i_glide_lipo>
-3.37547419318016

> <r_i_glide_hbond>
-0.244815745507313

> <r_i_glide_metal>
0

> <r_i_glide_rewards>
-3.32741408077362

> <r_i_glide_evdw>
-41.2540550231934

> <r_i_glide_ecoul>
-6.03835487365723

> <r_i_glide_erotb>
0.644696941523052

> <r_i_glide_esite>
0

> <r_i_glide_emodel>
-64.7636420537191

> <r_i_glide_energy>
-47.2924098968506

> <r_i_glide_einternal>
10.2519540786743

> <i_i_glide_confnum>
21

> <i_i_glide_posenum>
70

> <r_i_glide_eff_state_penalty>
0

> <s_user_duplicate_titles>
CHEMBL3717_lig907

> <s_m_subgroup_title>
dock_pv

> <s_m_subgroupid>
dock_pv

> <b_m_subgroup_collapsed>
1

$$$$
CHEMBL3717_lig763
                    3D
 Schrodinger Suite 2021-1.
 44 47  0  0  1  0            999 V2000
   -4.6746   -2.1141   30.1873 S   0  0  0  0  0  0
   -5.5497   -3.2437   29.8610 O   0  0  0  0  0  0
   -4.3815   -1.7503   31.5777 O   0  0  0  0  0  0
   -2.5049    2.7969   31.2266 C   0  0  0  0  0  0
   -4.7677    4.8161   30.6080 C   0  0  0  0  0  0
   -3.6894    5.6125   30.7158 C   0  0  0  0  0  0
   -2.2425    5.2851   30.6117 C   0  0  0  0  0  0
   -1.7167    3.9914   30.8050 C   0  0  0  0  0  0
   -0.3501    3.7639   30.6240 C   0  0  0  0  0  0
    0.4884    4.7933   30.2118 C   0  0  0  0  0  0
   -0.0488    6.0719   30.0637 C   0  0  0  0  0  0
   -1.3706    6.2807   30.2614 N   0  3  0  0  0  0
   -3.8194    2.4433   30.6011 C   0  0  0  0  0  0
   -4.8690    3.3577   30.3828 C   0  0  0  0  0  0
   -6.1000    2.8596   29.9381 C   0  0  0  0  0  0
   -6.2706    1.5111   29.6377 C   0  0  0  0  0  0
   -5.2198    0.6158   29.8033 C   0  0  0  0  0  0
   -4.0075    1.0767   30.3189 C   0  0  0  0  0  0
   -2.0321    1.9984   32.0398 O   0  0  0  0  0  0
   -5.4211   -0.7130   29.4090 N   0  0  0  0  0  0
   -3.0607   -2.3125   29.2414 C   0  0  0  0  0  0
    1.8945    4.4861   29.9027 C   0  0  0  0  0  0
    2.2230    3.9006   28.6769 C   0  0  0  0  0  0
    3.5412    3.5620   28.3957 C   0  0  0  0  0  0
    4.5303    3.8044   29.3470 C   0  0  0  0  0  0
    4.2082    4.3595   30.5812 C   0  0  0  0  0  0
    2.8901    4.7088   30.8541 C   0  0  0  0  0  0
   -1.7865    7.4593   30.0863 O   0  5  0  0  0  0
   -5.7241    5.3124   30.7155 H   0  0  0  0  0  0
   -3.9063    6.6561   30.8907 H   0  0  0  0  0  0
    0.0766    2.7767   30.7563 H   0  0  0  0  0  0
    0.5260    6.9348   29.7562 H   0  0  0  0  0  0
   -6.9348    3.5276   29.7811 H   0  0  0  0  0  0
   -7.2240    1.1688   29.2577 H   0  0  0  0  0  0
   -3.2088    0.3694   30.4868 H   0  0  0  0  0  0
   -6.2172   -0.9209   28.8244 H   0  0  0  0  0  0
   -2.4962   -3.1266   29.6904 H   0  0  0  0  0  0
   -2.4951   -1.3870   29.2880 H   0  0  0  0  0  0
   -3.2938   -2.5546   28.2081 H   0  0  0  0  0  0
    1.4547    3.7007   27.9425 H   0  0  0  0  0  0
    3.7968    3.1112   27.4497 H   0  0  0  0  0  0
    5.5582    3.5569   29.1233 H   0  0  0  0  0  0
    4.9819    4.5404   31.3118 H   0  0  0  0  0  0
    2.6381    5.1559   31.8069 H   0  0  0  0  0  0
  1  2  2  0  0  0
  1  3  2  0  0  0
  1 20  1  0  0  0
  1 21  1  0  0  0
  4 19  2  0  0  0
  4  8  1  0  0  0
  4 13  1  0  0  0
  5 14  1  0  0  0
  5  6  2  0  0  0
  5 29  1  0  0  0
  6  7  1  0  0  0
  6 30  1  0  0  0
  7  8  2  0  0  0
  7 12  1  0  0  0
  8  9  1  0  0  0
  9 10  2  0  0  0
  9 31  1  0  0  0
 10 11  1  0  0  0
 10 22  1  0  0  0
 11 12  2  0  0  0
 11 32  1  0  0  0
 12 28  1  0  0  0
 13 14  2  0  0  0
 13 18  1  0  0  0
 14 15  1  0  0  0
 15 16  2  0  0  0
 15 33  1  0  0  0
 16 17  1  0  0  0
 16 34  1  0  0  0
 17 18  2  0  0  0
 17 20  1  0  0  0
 18 35  1  0  0  0
 20 36  1  0  0  0
 21 37  1  0  0  0
 21 38  1  0  0  0
 21 39  1  0  0  0
 22 23  2  0  0  0
 22 27  1  0  0  0
 23 24  1  0  0  0
 23 40  1  0  0  0
 24 25  2  0  0  0
 24 41  1  0  0  0
 25 26  1  0  0  0
 25 42  1  0  0  0
 26 27  2  0  0  0
 26 43  1  0  0  0
 27 44  1  0  0  0
M  CHG  2  12   1  28  -1
M  END
> <s_m_entry_id>
9952

> <s_m_entry_name>
dock_pv.21

> <s_m_Source_Path>
/home/csk/Desktop/cluster/DUD-E-result/met

> <s_m_Source_File>
dock_pv.maegz

> <i_m_Source_File_Index>
21

> <chembl_id>
CHEMBL1803015

> <chembl_pref_name>
None

> <i_lp_mmshare_version>
53161

> <i_f3d_flags>
0

> <r_lp_tautomer_probability>
1

> <s_lp_Force_Field>
OPLS_2005

> <r_lp_Energy>
31.764405

> <b_lp_Chiralities_Consistent>
1

> <s_lp_Variant>
CHEMBL3717_lig763-1

> <s_i_glide_gridfile>
glide-grid_3lq8

> <i_i_glide_lignum>
824

> <i_i_glide_rotatable_bonds>
3

> <r_i_docking_score>
-9.23561959170349

> <r_i_glide_ligand_efficiency>
-0.329843556846553

> <r_i_glide_ligand_efficiency_sa>
-1.00159930605198

> <r_i_glide_ligand_efficiency_ln>
-2.13185217133943

> <r_i_glide_gscore>
-9.23561959170349

> <r_i_glide_lipo>
-4.75087193279223

> <r_i_glide_hbond>
-0.0257589764984598

> <r_i_glide_metal>
0

> <r_i_glide_rewards>
-2.02295810262231

> <r_i_glide_evdw>
-38.1290016174316

> <r_i_glide_ecoul>
-4.46948337554932

> <r_i_glide_erotb>
0.253566503459095

> <r_i_glide_esite>
-0.112724496045609

> <r_i_glide_emodel>
-61.6602260144722

> <r_i_glide_energy>
-42.598484992981

> <r_i_glide_einternal>
5.48644399642944

> <i_i_glide_confnum>
4

> <i_i_glide_posenum>
76

> <r_i_glide_eff_state_penalty>
0

> <s_user_duplicate_titles>
CHEMBL3717_lig763

> <s_m_subgroup_title>
dock_pv

> <s_m_subgroupid>
dock_pv

> <b_m_subgroup_collapsed>
1

$$$$
CHEMBL3717_lig3630
                    3D
 Schrodinger Suite 2021-1.
 25 27  0  0  1  0            999 V2000
   -4.1655    2.8026   30.6080 Br  0  0  0  0  0  0
   -0.6743    7.5471   29.8407 N   0  0  0  0  0  0
   -2.9309    6.7573   30.2177 N   0  0  0  0  0  0
   -0.9051    5.3852   30.4654 C   0  0  0  0  0  0
    0.4964    5.6530   30.2952 C   0  0  0  0  0  0
   -1.6053    6.5998   30.2048 C   0  0  0  0  0  0
    1.6205    4.6987   30.4830 C   0  0  0  0  0  0
    0.5704    6.9672   29.8606 C   0  0  0  0  0  0
   -1.6834    4.2426   30.7283 C   0  0  0  0  0  0
   -3.0706    4.3590   30.6082 C   0  0  0  0  0  0
   -3.6419    5.6141   30.4003 C   0  0  0  0  0  0
    1.6633    3.9004   31.6272 C   0  0  0  0  0  0
    2.6145    4.5717   29.5098 C   0  0  0  0  0  0
    2.7039    2.9951   31.8081 C   0  0  0  0  0  0
    3.6611    3.6717   29.6913 C   0  0  0  0  0  0
    3.7015    2.8924   30.8443 C   0  0  0  0  0  0
   -0.8317    8.5147   29.5766 H   0  0  0  0  0  0
    1.4311    7.5556   29.5857 H   0  0  0  0  0  0
   -1.2211    3.2771   30.8755 H   0  0  0  0  0  0
   -4.7150    5.7128   30.3174 H   0  0  0  0  0  0
    0.8938    3.9832   32.3803 H   0  0  0  0  0  0
    2.5704    5.1575   28.6070 H   0  0  0  0  0  0
    2.7361    2.3755   32.6913 H   0  0  0  0  0  0
    4.4334    3.5715   28.9422 H   0  0  0  0  0  0
    4.5107    2.1929   30.9912 H   0  0  0  0  0  0
  1 10  1  0  0  0
  2  6  1  0  0  0
  2  8  1  0  0  0
  2 17  1  0  0  0
  3  6  2  0  0  0
  3 11  1  0  0  0
  4  5  1  0  0  0
  4  6  1  0  0  0
  4  9  2  0  0  0
  5  7  1  0  0  0
  5  8  2  0  0  0
  7 12  2  0  0  0
  7 13  1  0  0  0
  8 18  1  0  0  0
  9 10  1  0  0  0
  9 19  1  0  0  0
 10 11  2  0  0  0
 11 20  1  0  0  0
 12 14  1  0  0  0
 12 21  1  0  0  0
 13 15  2  0  0  0
 13 22  1  0  0  0
 14 16  2  0  0  0
 14 23  1  0  0  0
 15 16  1  0  0  0
 15 24  1  0  0  0
 16 25  1  0  0  0
M  END
> <s_m_entry_id>
9953

> <s_m_entry_name>
dock_pv.22

> <s_m_Source_Path>
/home/csk/Desktop/cluster/DUD-E-result/met

> <s_m_Source_File>
dock_pv.maegz

> <i_m_Source_File_Index>
22

> <chembl_id>
CHEMBL1992634

> <chembl_pref_name>
None

> <i_lp_mmshare_version>
53161

> <i_f3d_flags>
0

> <r_lp_tautomer_probability>
0.999998432528457

> <s_lp_Force_Field>
OPLS_2005

> <r_lp_Energy>
9.652335

> <b_lp_Chiralities_Consistent>
1

> <s_lp_Variant>
CHEMBL3717_lig3630-1

> <s_i_glide_gridfile>
glide-grid_3lq8

> <i_i_glide_lignum>
4532

> <i_i_glide_rotatable_bonds>
1

> <r_i_docking_score>
-9.21920572682705

> <r_i_glide_ligand_efficiency>
-0.57620035792669

> <r_i_glide_ligand_efficiency_sa>
-1.45193391847572

> <r_i_glide_ligand_efficiency_ln>
-2.4437346357102

> <r_i_glide_gscore>
-9.21920572682705

> <r_i_glide_lipo>
-3.58583973318547

> <r_i_glide_hbond>
-0.549369269008714

> <r_i_glide_metal>
0

> <r_i_glide_rewards>
-3.32715885275158

> <r_i_glide_evdw>
-29.4552879333496

> <r_i_glide_ecoul>
-3.01570963859558

> <r_i_glide_erotb>
0.168282970575531

> <r_i_glide_esite>
0

> <r_i_glide_emodel>
-46.8574159501737

> <r_i_glide_energy>
-32.4709975719452

> <r_i_glide_einternal>
1.74382793903351

> <i_i_glide_confnum>
3

> <i_i_glide_posenum>
93

> <r_i_glide_eff_state_penalty>
0

> <s_user_duplicate_titles>
CHEMBL3717_lig3630

> <s_m_subgroup_title>
dock_pv

> <s_m_subgroupid>
dock_pv

> <b_m_subgroup_collapsed>
1

$$$$
CHEMBL3717_lig3549
                    3D
 Schrodinger Suite 2021-1.
 33 36  0  0  1  0            999 V2000
    0.2786    4.4369   30.6335 C   0  0  0  0  0  0
    1.0903    4.6806   31.7428 C   0  0  0  0  0  0
    2.4451    4.3570   31.7386 C   0  0  0  0  0  0
    0.8167    3.8942   29.4657 C   0  0  0  0  0  0
    2.1881    3.6348   29.4086 C   0  0  0  0  0  0
    3.0073    3.8628   30.5572 C   0  0  0  0  0  0
    4.3060    3.1612   29.0519 N   0  0  0  0  0  0
    3.0867    3.1570   28.4288 C   0  0  0  0  0  0
   -1.1629    4.7838   30.6542 C   0  0  0  0  0  0
   -2.0751    3.8264   30.6611 N   0  0  0  0  0  0
   -1.6768    6.0749   30.6080 C   0  0  0  0  0  0
   -3.4093    6.0140   30.6080 S   0  0  0  0  0  0
   -3.3050    4.2778   30.6080 C   0  0  0  0  0  0
   -5.7674    3.5428   30.3922 C   0  0  0  0  0  0
   -6.4974    2.3501   30.3948 C   0  0  0  0  0  0
   -7.8812    2.3613   30.2395 C   0  0  0  0  0  0
   -8.5448    3.5729   30.0750 C   0  0  0  0  0  0
   -7.8354    4.7694   30.0714 C   0  0  0  0  0  0
   -6.4524    4.7567   30.2332 C   0  0  0  0  0  0
   -4.3717    3.4045   30.5305 N   0  0  0  0  0  0
    4.3170    3.5572   30.3323 N   0  0  0  0  0  0
    0.6665    5.1259   32.6277 H   0  0  0  0  0  0
    3.0572    4.5396   32.6080 H   0  0  0  0  0  0
    0.1960    3.6955   28.6081 H   0  0  0  0  0  0
    2.9856    2.8259   27.4052 H   0  0  0  0  0  0
   -1.1429    7.0132   30.5793 H   0  0  0  0  0  0
   -5.9969    1.3992   30.5139 H   0  0  0  0  0  0
   -8.4346    1.4332   30.2424 H   0  0  0  0  0  0
   -9.6175    3.5875   29.9468 H   0  0  0  0  0  0
   -8.3544    5.7075   29.9303 H   0  0  0  0  0  0
   -5.9560    5.7085   30.2080 H   0  0  0  0  0  0
   -4.1325    2.4258   30.5834 H   0  0  0  0  0  0
    5.1627    2.8370   28.6079 H   0  0  0  0  0  0
  1  2  1  0  0  0
  1  9  1  0  0  0
  1  4  2  0  0  0
  2  3  2  0  0  0
  2 22  1  0  0  0
  3  6  1  0  0  0
  3 23  1  0  0  0
  4 24  1  0  0  0
  4  5  1  0  0  0
  5  6  1  0  0  0
  5  8  2  0  0  0
  6 21  2  0  0  0
  7 33  1  0  0  0
  7 21  1  0  0  0
  7  8  1  0  0  0
  8 25  1  0  0  0
  9 10  1  0  0  0
  9 11  2  0  0  0
 10 13  2  0  0  0
 11 12  1  0  0  0
 11 26  1  0  0  0
 12 13  1  0  0  0
 13 20  1  0  0  0
 14 15  2  0  0  0
 14 19  1  0  0  0
 14 20  1  0  0  0
 15 16  1  0  0  0
 15 27  1  0  0  0
 16 17  2  0  0  0
 16 28  1  0  0  0
 17 18  1  0  0  0
 17 29  1  0  0  0
 18 19  2  0  0  0
 18 30  1  0  0  0
 19 31  1  0  0  0
 20 32  1  0  0  0
M  END
> <s_m_entry_id>
9954

> <s_m_entry_name>
dock_pv.23

> <s_m_Source_Path>
/home/csk/Desktop/cluster/DUD-E-result/met

> <s_m_Source_File>
dock_pv.maegz

> <i_m_Source_File_Index>
23

> <chembl_id>
CHEMBL1682545

> <chembl_pref_name>
None

> <i_lp_mmshare_version>
53161

> <i_f3d_flags>
0

> <r_lp_tautomer_probability>
0.0196078431372549

> <s_lp_Force_Field>
OPLS_2005

> <r_lp_Energy>
27.557258

> <b_lp_Chiralities_Consistent>
1

> <s_lp_Variant>
CHEMBL3717_lig3549-2

> <s_i_glide_gridfile>
glide-grid_3lq8

> <i_i_glide_lignum>
4388

> <i_i_glide_rotatable_bonds>
3

> <r_i_docking_score>
-9.20026097811853

> <r_i_glide_ligand_efficiency>
-0.438107665624692

> <r_i_glide_ligand_efficiency_sa>
-1.20870582932321

> <r_i_glide_ligand_efficiency_ln>
-2.27474593596201

> <r_i_glide_gscore>
-9.20026097811853

> <r_i_glide_lipo>
-3.88894508362455

> <r_i_glide_hbond>
-0.32

> <r_i_glide_metal>
0

> <r_i_glide_rewards>
-3.02406551515151

> <r_i_glide_evdw>
-36.2016906738281

> <r_i_glide_ecoul>
-5.31941843032837

> <r_i_glide_erotb>
0.640746918898199

> <r_i_glide_esite>
0

> <r_i_glide_emodel>
-61.5168526078162

> <r_i_glide_energy>
-41.5211091041565

> <r_i_glide_einternal>
4.65706253051758

> <i_i_glide_confnum>
6

> <i_i_glide_posenum>
40

> <r_i_glide_eff_state_penalty>
0

> <s_user_duplicate_titles>
CHEMBL3717_lig3549

> <s_m_subgroup_title>
dock_pv

> <s_m_subgroupid>
dock_pv

> <b_m_subgroup_collapsed>
1

$$$$
CHEMBL3717_lig959
                    3D
 Schrodinger Suite 2021-1.
 44 46  0  0  1  0            999 V2000
   -6.1628    1.9489   30.2308 C   0  0  0  0  0  0
   -7.2478    2.8250   30.1967 C   0  0  0  0  0  0
   -7.0491    4.2028   30.3151 C   0  0  0  0  0  0
   -5.7398    4.6690   30.4766 C   0  0  0  0  0  0
   -4.6480    3.8213   30.4787 C   0  0  0  0  0  0
   -4.8578    2.4344   30.3735 C   0  0  0  0  0  0
   -3.7172    1.4361   30.3892 C   0  0  0  0  0  0
   -3.4581    4.6658   30.6092 C   0  0  0  0  0  0
   -3.9624    6.0500   30.6090 C   0  0  0  0  0  0
   -5.2935    5.9568   30.6080 N   0  0  0  0  0  0
   -3.3077    7.0953   30.6085 O   0  0  0  0  0  0
   -2.2373    4.2722   30.6985 N   0  0  0  0  0  0
   -1.2559    5.2028   30.8274 N   0  0  0  0  0  0
    0.0385    4.8882   31.0072 C   0  0  0  0  0  0
    0.4422    3.4009   31.0826 C   0  0  0  0  0  0
    1.9041    3.1034   31.4920 C   0  0  0  0  0  0
    2.9640    3.5556   30.4956 C   0  0  0  0  0  0
    2.8958    3.1564   29.1596 C   0  0  0  0  0  0
    3.8808    3.5611   28.2654 C   0  0  0  0  0  0
    4.9377    4.3566   28.7036 C   0  0  0  0  0  0
    5.0116    4.7564   30.0348 C   0  0  0  0  0  0
    4.0215    4.3562   30.9280 C   0  0  0  0  0  0
    5.9065    4.7560   27.8209 O   0  0  0  0  0  0
    0.8818    5.7752   31.1212 O   0  0  0  0  0  0
   -8.2475    5.1305   30.2063 C   0  0  0  0  0  0
   -6.3410    0.8867   30.1399 H   0  0  0  0  0  0
   -8.2447    2.4289   30.0686 H   0  0  0  0  0  0
   -3.9932    0.4823   29.9350 H   0  0  0  0  0  0
   -2.8941    1.8379   29.8081 H   0  0  0  0  0  0
   -3.3632    1.2660   31.4060 H   0  0  0  0  0  0
   -5.8868    6.7691   30.5201 H   0  0  0  0  0  0
   -1.5634    6.1673   30.7950 H   0  0  0  0  0  0
    0.2363    2.9692   30.1041 H   0  0  0  0  0  0
   -0.2235    2.8981   31.7841 H   0  0  0  0  0  0
    2.0266    2.0276   31.6247 H   0  0  0  0  0  0
    2.0966    3.5374   32.4751 H   0  0  0  0  0  0
    2.0967    2.5167   28.8131 H   0  0  0  0  0  0
    3.8370    3.2051   27.2479 H   0  0  0  0  0  0
    5.8228    5.3823   30.3767 H   0  0  0  0  0  0
    4.0708    4.6749   31.9575 H   0  0  0  0  0  0
    6.6031    5.2703   28.2374 H   0  0  0  0  0  0
   -8.9217    4.7838   29.4211 H   0  0  0  0  0  0
   -8.8048    5.1598   31.1397 H   0  0  0  0  0  0
   -7.9556    6.1438   29.9289 H   0  0  0  0  0  0
  1  2  1  0  0  0
  1  6  2  0  0  0
  1 26  1  0  0  0
  2  3  2  0  0  0
  2 27  1  0  0  0
  3  4  1  0  0  0
  3 25  1  0  0  0
  4  5  2  0  0  0
  4 10  1  0  0  0
  5  6  1  0  0  0
  5  8  1  0  0  0
  6  7  1  0  0  0
  7 28  1  0  0  0
  7 29  1  0  0  0
  7 30  1  0  0  0
  8  9  1  0  0  0
  8 12  2  0  0  0
  9 10  1  0  0  0
  9 11  2  0  0  0
 10 31  1  0  0  0
 12 13  1  0  0  0
 13 14  1  0  0  0
 13 32  1  0  0  0
 14 15  1  0  0  0
 14 24  2  0  0  0
 15 16  1  0  0  0
 15 33  1  0  0  0
 15 34  1  0  0  0
 16 17  1  0  0  0
 16 35  1  0  0  0
 16 36  1  0  0  0
 17 18  2  0  0  0
 17 22  1  0  0  0
 18 19  1  0  0  0
 18 37  1  0  0  0
 19 20  2  0  0  0
 19 38  1  0  0  0
 20 21  1  0  0  0
 20 23  1  0  0  0
 21 22  2  0  0  0
 21 39  1  0  0  0
 22 40  1  0  0  0
 23 41  1  0  0  0
 25 42  1  0  0  0
 25 43  1  0  0  0
 25 44  1  0  0  0
M  END
> <s_m_entry_id>
9955

> <s_m_entry_name>
dock_pv.24

> <s_m_Source_Path>
/home/csk/Desktop/cluster/DUD-E-result/met

> <s_m_Source_File>
dock_pv.maegz

> <i_m_Source_File_Index>
24

> <chembl_id>
CHEMBL1822771

> <chembl_pref_name>
None

> <i_lp_mmshare_version>
53161

> <i_f3d_flags>
0

> <r_lp_tautomer_probability>
0.999999999997365

> <s_lp_Force_Field>
OPLS_2005

> <r_lp_Energy>
38.947277

> <b_lp_Chiralities_Consistent>
1

> <s_lp_Variant>
CHEMBL3717_lig959-1

> <s_i_glide_gridfile>
glide-grid_3lq8

> <i_i_glide_lignum>
1051

> <i_i_glide_rotatable_bonds>
6

> <r_i_docking_score>
-9.19504883457747

> <r_i_glide_ligand_efficiency>
-0.367801953383099

> <r_i_glide_ligand_efficiency_sa>
-1.0754594346876

> <r_i_glide_ligand_efficiency_ln>
-2.17950212717264

> <r_i_glide_gscore>
-9.19504883457747

> <r_i_glide_lipo>
-3.20284086888831

> <r_i_glide_hbond>
-0.345284264742074

> <r_i_glide_metal>
0

> <r_i_glide_rewards>
-3.19194886629279

> <r_i_glide_evdw>
-43.6948204040527

> <r_i_glide_ecoul>
-7.33612728118896

> <r_i_glide_erotb>
0.830185277726681

> <r_i_glide_esite>
0

> <r_i_glide_emodel>
-75.1094996468867

> <r_i_glide_energy>
-51.0309476852417

> <r_i_glide_einternal>
2.97078824043274

> <i_i_glide_confnum>
20

> <i_i_glide_posenum>
177

> <r_i_glide_eff_state_penalty>
0

> <s_user_duplicate_titles>
CHEMBL3717_lig959

> <s_m_subgroup_title>
dock_pv

> <s_m_subgroupid>
dock_pv

> <b_m_subgroup_collapsed>
1

$$$$
CHEMBL3717_lig3976
                    3D
 Schrodinger Suite 2021-1.
 28 31  0  0  1  0            999 V2000
   -2.9024    6.4743   30.6079 N   0  0  0  0  0  0
    3.0567    3.4905   28.2905 N   0  0  0  0  0  0
   -5.1444    5.5570   30.6082 N   0  0  0  0  0  0
    4.3058    3.5570   28.7755 N   0  0  0  0  0  0
    0.3145    4.4892   30.5866 C   0  0  0  0  0  0
   -1.1360    4.7742   30.6172 C   0  0  0  0  0  0
    2.3001    3.8631   29.3648 C   0  0  0  0  0  0
   -3.4418    4.0764   30.6080 C   0  0  0  0  0  0
    3.0906    4.1298   30.5240 C   0  0  0  0  0  0
   -3.7710    5.4610   30.6083 C   0  0  0  0  0  0
    0.9076    4.0103   29.4145 C   0  0  0  0  0  0
   -2.0779    3.7383   30.6193 C   0  0  0  0  0  0
    1.0988    4.7387   31.7131 C   0  0  0  0  0  0
   -1.5966    6.0962   30.6079 C   0  0  0  0  0  0
    2.4728    4.5230   31.7143 C   0  0  0  0  0  0
   -4.6818    3.3562   30.5860 C   0  0  0  0  0  0
    4.4199    3.9115   30.0939 C   0  0  0  0  0  0
   -5.6955    4.2982   30.5995 C   0  0  0  0  0  0
    5.1009    3.2943   28.2071 H   0  0  0  0  0  0
   -5.6985    6.4013   30.5625 H   0  0  0  0  0  0
    0.3060    3.8087   28.5429 H   0  0  0  0  0  0
   -1.7646    2.7052   30.6143 H   0  0  0  0  0  0
    0.6371    5.1226   32.6079 H   0  0  0  0  0  0
   -0.8857    6.9109   30.5940 H   0  0  0  0  0  0
    3.0566    4.7444   32.5954 H   0  0  0  0  0  0
   -4.8230    2.2846   30.5718 H   0  0  0  0  0  0
    5.3889    3.9746   30.5646 H   0  0  0  0  0  0
   -6.7708    4.1806   30.5805 H   0  0  0  0  0  0
  1 10  2  0  0  0
  1 14  1  0  0  0
  2  4  1  0  0  0
  2  7  2  0  0  0
  3 10  1  0  0  0
  3 18  1  0  0  0
  3 20  1  0  0  0
  4 19  1  0  0  0
  4 17  1  0  0  0
  5 11  2  0  0  0
  5  6  1  0  0  0
  5 13  1  0  0  0
  6 12  1  0  0  0
  6 14  2  0  0  0
  7 11  1  0  0  0
  7  9  1  0  0  0
  8 10  1  0  0  0
  8 12  2  0  0  0
  8 16  1  0  0  0
  9 15  1  0  0  0
  9 17  2  0  0  0
 11 21  1  0  0  0
 12 22  1  0  0  0
 13 23  1  0  0  0
 13 15  2  0  0  0
 14 24  1  0  0  0
 15 25  1  0  0  0
 16 18  2  0  0  0
 16 26  1  0  0  0
 17 27  1  0  0  0
 18 28  1  0  0  0
M  END
> <s_m_entry_id>
9956

> <s_m_entry_name>
dock_pv.25

> <s_m_Source_Path>
/home/csk/Desktop/cluster/DUD-E-result/met

> <s_m_Source_File>
dock_pv.maegz

> <i_m_Source_File_Index>
25

> <chembl_id>
CHEMBL1976134

> <chembl_pref_name>
None

> <i_lp_mmshare_version>
53161

> <i_f3d_flags>
0

> <r_lp_tautomer_probability>
0.0196078130051597

> <s_lp_Force_Field>
OPLS_2005

> <r_lp_Energy>
26.236096

> <b_lp_Chiralities_Consistent>
1

> <s_lp_Variant>
CHEMBL3717_lig3976-2

> <s_i_glide_gridfile>
glide-grid_3lq8

> <i_i_glide_lignum>
5061

> <i_i_glide_rotatable_bonds>
1

> <r_i_docking_score>
-9.1535895389652

> <r_i_glide_ligand_efficiency>
-0.508532752164733

> <r_i_glide_ligand_efficiency_sa>
-1.33273283262506

> <r_i_glide_ligand_efficiency_ln>
-2.3528829912942

> <r_i_glide_gscore>
-9.1535895389652

> <r_i_glide_lipo>
-3.11310035201204

> <r_i_glide_hbond>
-0.264965711955351

> <r_i_glide_metal>
0

> <r_i_glide_rewards>
-3.91189090909091

> <r_i_glide_evdw>
-32.9493370056152

> <r_i_glide_ecoul>
-3.52705955505371

> <r_i_glide_erotb>
0.312893217631924

> <r_i_glide_esite>
0

> <r_i_glide_emodel>
-53.8688937596964

> <r_i_glide_energy>
-36.4763965606689

> <r_i_glide_einternal>
2.81089544296265

> <i_i_glide_confnum>
4

> <i_i_glide_posenum>
342

> <r_i_glide_eff_state_penalty>
0

> <s_user_duplicate_titles>
CHEMBL3717_lig3976,CHEMBL3717_lig3976

> <s_m_subgroup_title>
dock_pv

> <s_m_subgroupid>
dock_pv

> <b_m_subgroup_collapsed>
1

$$$$
CHEMBL3717_lig3563
                    3D
 Schrodinger Suite 2021-1.
 36 37  0  0  1  0            999 V2000
   -1.8504    4.5297   31.0111 S   0  0  0  0  0  0
    1.2308    4.9446   32.3266 O   0  0  0  0  0  0
   -2.0003    6.8725   29.9579 N   0  0  0  0  0  0
   -4.1123    5.8620   30.2562 N   0  0  0  0  0  0
    0.1820    7.5568   29.7036 N   0  0  0  0  0  0
   -0.3808    5.4228   30.7363 C   0  0  0  0  0  0
   -0.7180    6.6269   30.1244 C   0  0  0  0  0  0
    0.9068    4.8766   31.1427 C   0  0  0  0  0  0
   -2.7441    5.8769   30.3668 C   0  0  0  0  0  0
    1.8264    4.3194   30.1050 C   0  0  0  0  0  0
    3.1783    4.1052   30.4094 C   0  0  0  0  0  0
    1.3459    3.9594   28.8410 C   0  0  0  0  0  0
    4.0312    3.5574   29.4570 C   0  0  0  0  0  0
    2.1938    3.4000   27.8938 C   0  0  0  0  0  0
   -5.0409    4.8413   30.7195 C   0  0  0  0  0  0
    3.5292    3.2039   28.2085 C   0  0  0  0  0  0
   -6.4855    5.1393   30.2874 C   0  0  0  0  0  0
   -7.5057    4.1245   30.8238 C   0  0  0  0  0  0
   -8.9294    4.4020   30.3215 C   0  0  0  0  0  0
   -4.5969    6.6034   29.7669 H   0  0  0  0  0  0
    1.1747    7.3939   29.7808 H   0  0  0  0  0  0
   -0.1057    8.4849   29.4096 H   0  0  0  0  0  0
    3.5756    4.3652   31.3811 H   0  0  0  0  0  0
    0.3060    4.0874   28.5896 H   0  0  0  0  0  0
    5.0752    3.3960   29.6837 H   0  0  0  0  0  0
    1.8131    3.1097   26.9251 H   0  0  0  0  0  0
   -5.0035    4.7702   31.8065 H   0  0  0  0  0  0
   -4.7459    3.8577   30.3504 H   0  0  0  0  0  0
    4.1846    2.7614   27.4752 H   0  0  0  0  0  0
   -6.5385    5.1567   29.1985 H   0  0  0  0  0  0
   -6.7676    6.1433   30.6088 H   0  0  0  0  0  0
   -7.4982    4.1336   31.9141 H   0  0  0  0  0  0
   -7.2150    3.1161   30.5251 H   0  0  0  0  0  0
   -9.6352    3.6740   30.7197 H   0  0  0  0  0  0
   -8.9820    4.3533   29.2331 H   0  0  0  0  0  0
   -9.2739    5.3918   30.6209 H   0  0  0  0  0  0
  1  6  1  0  0  0
  1  9  1  0  0  0
  2  8  2  0  0  0
  3  7  1  0  0  0
  3  9  2  0  0  0
  4  9  1  0  0  0
  4 15  1  0  0  0
  4 20  1  0  0  0
  5  7  1  0  0  0
  5 21  1  0  0  0
  5 22  1  0  0  0
  6  7  2  0  0  0
  6  8  1  0  0  0
  8 10  1  0  0  0
 10 11  2  0  0  0
 10 12  1  0  0  0
 11 13  1  0  0  0
 11 23  1  0  0  0
 12 14  2  0  0  0
 12 24  1  0  0  0
 13 16  2  0  0  0
 13 25  1  0  0  0
 14 16  1  0  0  0
 14 26  1  0  0  0
 15 17  1  0  0  0
 15 27  1  0  0  0
 15 28  1  0  0  0
 16 29  1  0  0  0
 17 18  1  0  0  0
 17 30  1  0  0  0
 17 31  1  0  0  0
 18 19  1  0  0  0
 18 32  1  0  0  0
 18 33  1  0  0  0
 19 34  1  0  0  0
 19 35  1  0  0  0
 19 36  1  0  0  0
M  END
> <s_m_entry_id>
9957

> <s_m_entry_name>
dock_pv.26

> <s_m_Source_Path>
/home/csk/Desktop/cluster/DUD-E-result/met

> <s_m_Source_File>
dock_pv.maegz

> <i_m_Source_File_Index>
26

> <chembl_id>
CHEMBL2007479

> <chembl_pref_name>
None

> <i_lp_mmshare_version>
53161

> <i_f3d_flags>
0

> <r_lp_tautomer_probability>
1

> <s_lp_Force_Field>
OPLS_2005

> <r_lp_Energy>
9.818528

> <b_lp_Chiralities_Consistent>
1

> <s_lp_Variant>
CHEMBL3717_lig3563-1

> <s_i_glide_gridfile>
glide-grid_3lq8

> <i_i_glide_lignum>
4412

> <i_i_glide_rotatable_bonds>
6

> <r_i_docking_score>
-9.1524693468297

> <r_i_glide_ligand_efficiency>
-0.481708912991037

> <r_i_glide_ligand_efficiency_sa>
-1.28539285636775

> <r_i_glide_ligand_efficiency_ln>
-2.32034755643852

> <r_i_glide_gscore>
-9.1524693468297

> <r_i_glide_lipo>
-3.6764391265306

> <r_i_glide_hbond>
-0.571721127525415

> <r_i_glide_metal>
0

> <r_i_glide_rewards>
-3.55823293939394

> <r_i_glide_evdw>
-38.7434349060059

> <r_i_glide_ecoul>
-3.9601047039032

> <r_i_glide_erotb>
1.18511129750603

> <r_i_glide_esite>
0

> <r_i_glide_emodel>
-62.452461997133

> <r_i_glide_energy>
-42.7035396099091

> <r_i_glide_einternal>
5.97522354125977

> <i_i_glide_confnum>
32

> <i_i_glide_posenum>
326

> <r_i_glide_eff_state_penalty>
0

> <s_user_duplicate_titles>
CHEMBL3717_lig3563

> <s_m_subgroup_title>
dock_pv

> <s_m_subgroupid>
dock_pv

> <b_m_subgroup_collapsed>
1

$$$$
CHEMBL3717_lig3823
                    3D
 Schrodinger Suite 2021-1.
 37 39  0  0  1  0            999 V2000
   -6.9871    0.6134   30.2103 O   0  0  0  0  0  0
   -1.6152    4.8110   30.8275 N   0  0  0  0  0  0
   -3.9794    5.2903   30.6081 N   0  0  0  0  0  0
   -2.4893    6.9726   30.2082 N   0  0  0  0  0  0
   -0.1097    6.5970   30.1848 N   0  0  0  0  0  0
   -3.6938   -0.2285   29.4055 N   0  0  0  0  0  0
   -0.3753    5.3376   30.6059 C   0  0  0  0  0  0
   -2.6388    5.6810   30.5872 C   0  0  0  0  0  0
   -4.6624    4.0679   30.5311 C   0  0  0  0  0  0
    0.8154    4.4718   30.7115 C   0  0  0  0  0  0
   -4.8144    1.6363   30.5269 C   0  0  0  0  0  0
   -4.0493    2.8091   30.6071 C   0  0  0  0  0  0
   -6.2000    1.7296   30.3238 C   0  0  0  0  0  0
   -6.0459    4.1395   30.3477 C   0  0  0  0  0  0
   -6.8078    2.9793   30.2326 C   0  0  0  0  0  0
   -1.2080    7.3592   30.0093 C   0  0  0  0  0  0
    1.4672    4.3112   31.9360 C   0  0  0  0  0  0
    1.3556    3.8905   29.5599 C   0  0  0  0  0  0
   -4.1327    0.2839   30.6882 C   0  0  0  0  0  0
    2.6276    3.5509   32.0185 C   0  0  0  0  0  0
    2.5308    3.1497   29.6354 C   0  0  0  0  0  0
    3.1560    2.9738   30.8676 C   0  0  0  0  0  0
   -6.4857   -0.2037   30.2488 H   0  0  0  0  0  0
   -4.5739    6.0778   30.4001 H   0  0  0  0  0  0
   -3.1773   -1.0893   29.5243 H   0  0  0  0  0  0
   -4.4653   -0.4608   28.7908 H   0  0  0  0  0  0
   -2.9837    2.7240   30.7508 H   0  0  0  0  0  0
   -6.5414    5.0974   30.2715 H   0  0  0  0  0  0
   -7.8744    3.0501   30.0764 H   0  0  0  0  0  0
   -1.0429    8.3569   29.6539 H   0  0  0  0  0  0
    1.0846    4.7852   32.8273 H   0  0  0  0  0  0
    0.8707    4.0245   28.6033 H   0  0  0  0  0  0
   -4.7945   -0.4337   31.1751 H   0  0  0  0  0  0
   -3.2647    0.3894   31.3413 H   0  0  0  0  0  0
    3.1060    3.4148   32.9754 H   0  0  0  0  0  0
    2.9469    2.7016   28.7446 H   0  0  0  0  0  0
    4.0598    2.3857   30.9294 H   0  0  0  0  0  0
  1 13  1  0  0  0
  1 23  1  0  0  0
  2  7  2  0  0  0
  2  8  1  0  0  0
  3  8  1  0  0  0
  3  9  1  0  0  0
  3 24  1  0  0  0
  4  8  2  0  0  0
  4 16  1  0  0  0
  5  7  1  0  0  0
  5 16  2  0  0  0
  6 19  1  0  0  0
  6 25  1  0  0  0
  6 26  1  0  0  0
  7 10  1  0  0  0
  9 12  1  0  0  0
  9 14  2  0  0  0
 10 17  2  0  0  0
 10 18  1  0  0  0
 11 12  2  0  0  0
 11 13  1  0  0  0
 11 19  1  0  0  0
 12 27  1  0  0  0
 13 15  2  0  0  0
 14 15  1  0  0  0
 14 28  1  0  0  0
 15 29  1  0  0  0
 16 30  1  0  0  0
 17 20  1  0  0  0
 17 31  1  0  0  0
 18 21  2  0  0  0
 18 32  1  0  0  0
 19 33  1  0  0  0
 19 34  1  0  0  0
 20 22  2  0  0  0
 20 35  1  0  0  0
 21 22  1  0  0  0
 21 36  1  0  0  0
 22 37  1  0  0  0
M  END
> <s_m_entry_id>
9958

> <s_m_entry_name>
dock_pv.27

> <s_m_Source_Path>
/home/csk/Desktop/cluster/DUD-E-result/met

> <s_m_Source_File>
dock_pv.maegz

> <i_m_Source_File_Index>
27

> <chembl_id>
CHEMBL1980246

> <chembl_pref_name>
None

> <i_lp_mmshare_version>
53161

> <i_f3d_flags>
0

> <r_lp_tautomer_probability>
1

> <s_lp_Force_Field>
OPLS_2005

> <r_lp_Energy>
6.848779

> <b_lp_Chiralities_Consistent>
1

> <s_lp_Variant>
CHEMBL3717_lig3823-1

> <s_i_glide_gridfile>
glide-grid_3lq8

> <i_i_glide_lignum>
4846

> <i_i_glide_rotatable_bonds>
5

> <r_i_docking_score>
-9.14810410719508

> <r_i_glide_ligand_efficiency>
-0.415822913963413

> <r_i_glide_ligand_efficiency_sa>
-1.1651521583127

> <r_i_glide_ligand_efficiency_ln>
-2.23613032900342

> <r_i_glide_gscore>
-9.14810410719508

> <r_i_glide_lipo>
-2.88207116994198

> <r_i_glide_hbond>
-0.209381548547251

> <r_i_glide_metal>
0

> <r_i_glide_rewards>
-4.02140221056572

> <r_i_glide_evdw>
-38.0954208374023

> <r_i_glide_ecoul>
-5.11702871322632

> <r_i_glide_erotb>
0.637076170713939

> <r_i_glide_esite>
0

> <r_i_glide_emodel>
-60.006393332795

> <r_i_glide_energy>
-43.2124495506287

> <r_i_glide_einternal>
11.1579999923706

> <i_i_glide_confnum>
3

> <i_i_glide_posenum>
311

> <r_i_glide_eff_state_penalty>
0

> <s_user_duplicate_titles>
CHEMBL3717_lig3823

> <s_m_subgroup_title>
dock_pv

> <s_m_subgroupid>
dock_pv

> <b_m_subgroup_collapsed>
1

$$$$
CHEMBL3717_lig4250
                    3D
 Schrodinger Suite 2021-1.
 36 38  0  0  1  0            999 V2000
   -4.6753    3.2632   30.6036 O   0  0  0  0  0  0
    4.2546    3.5929   30.5224 N   0  0  0  0  0  0
    4.3040    3.1579   29.2550 N   0  0  0  0  0  0
   -2.9847    6.4882   30.6080 N   0  0  0  0  0  0
   -4.0991   -0.0429   29.0085 N   0  0  0  0  0  0
    2.1671    3.6429   29.5000 C   0  0  0  0  0  0
    2.9330    3.8965   30.6768 C   0  0  0  0  0  0
    0.1852    4.4486   30.6203 C   0  0  0  0  0  0
    0.7878    3.8889   29.4911 C   0  0  0  0  0  0
    3.1119    3.1510   28.5697 C   0  0  0  0  0  0
   -1.2580    4.7831   30.6158 C   0  0  0  0  0  0
    2.3093    4.4033   31.8185 C   0  0  0  0  0  0
    0.9538    4.7114   31.7536 C   0  0  0  0  0  0
   -2.2466    3.7895   30.6099 C   0  0  0  0  0  0
   -3.6094    4.1441   30.6079 C   0  0  0  0  0  0
   -1.6813    6.1149   30.6080 C   0  0  0  0  0  0
   -3.9185    5.5060   30.6073 C   0  0  0  0  0  0
    2.9764    2.6180   27.1668 C   0  0  0  0  0  0
   -4.4583    1.8526   30.5503 C   0  0  0  0  0  0
   -4.4268    1.3704   29.0876 C   0  0  0  0  0  0
    5.1744    2.8233   28.8530 H   0  0  0  0  0  0
   -4.7658   -0.5900   29.5350 H   0  0  0  0  0  0
   -4.1780   -0.3897   28.0473 H   0  0  0  0  0  0
    0.2106    3.6689   28.6080 H   0  0  0  0  0  0
    2.8748    4.6048   32.7129 H   0  0  0  0  0  0
    0.4821    5.1570   32.6114 H   0  0  0  0  0  0
   -1.9340    2.7576   30.5994 H   0  0  0  0  0  0
   -0.9612    6.9206   30.6058 H   0  0  0  0  0  0
   -4.9496    5.8294   30.5981 H   0  0  0  0  0  0
    2.1937    3.1329   26.6086 H   0  0  0  0  0  0
    3.9047    2.7181   26.6088 H   0  0  0  0  0  0
    2.7168    1.5592   27.1661 H   0  0  0  0  0  0
   -5.2989    1.3782   31.0583 H   0  0  0  0  0  0
   -3.5819    1.5321   31.1145 H   0  0  0  0  0  0
   -3.6943    1.9380   28.5186 H   0  0  0  0  0  0
   -5.3923    1.5533   28.6142 H   0  0  0  0  0  0
  1 15  1  0  0  0
  1 19  1  0  0  0
  2  3  1  0  0  0
  2  7  2  0  0  0
  3 21  1  0  0  0
  3 10  1  0  0  0
  4 16  1  0  0  0
  4 17  2  0  0  0
  5 20  1  0  0  0
  5 22  1  0  0  0
  5 23  1  0  0  0
  6  9  1  0  0  0
  6  7  1  0  0  0
  6 10  2  0  0  0
  7 12  1  0  0  0
  8 13  1  0  0  0
  8 11  1  0  0  0
  8  9  2  0  0  0
  9 24  1  0  0  0
 10 18  1  0  0  0
 11 14  1  0  0  0
 11 16  2  0  0  0
 12 25  1  0  0  0
 12 13  2  0  0  0
 13 26  1  0  0  0
 14 15  2  0  0  0
 14 27  1  0  0  0
 15 17  1  0  0  0
 16 28  1  0  0  0
 17 29  1  0  0  0
 18 30  1  0  0  0
 18 31  1  0  0  0
 18 32  1  0  0  0
 19 20  1  0  0  0
 19 33  1  0  0  0
 19 34  1  0  0  0
 20 35  1  0  0  0
 20 36  1  0  0  0
M  END
> <s_m_entry_id>
9959

> <s_m_entry_name>
dock_pv.28

> <s_m_Source_Path>
/home/csk/Desktop/cluster/DUD-E-result/met

> <s_m_Source_File>
dock_pv.maegz

> <i_m_Source_File_Index>
28

> <chembl_id>
CHEMBL1967887

> <chembl_pref_name>
None

> <i_lp_mmshare_version>
53161

> <i_f3d_flags>
0

> <r_lp_tautomer_probability>
0.0196078431372549

> <s_lp_Force_Field>
OPLS_2005

> <r_lp_Energy>
34.252731

> <b_lp_Chiralities_Consistent>
1

> <s_lp_Variant>
CHEMBL3717_lig4250-2

> <s_i_glide_gridfile>
glide-grid_3lq8

> <i_i_glide_lignum>
5459

> <i_i_glide_rotatable_bonds>
4

> <r_i_docking_score>
-9.14505218164744

> <r_i_glide_ligand_efficiency>
-0.457252609082372

> <r_i_glide_ligand_efficiency_sa>
-1.24117453608777

> <r_i_glide_ligand_efficiency_ln>
-2.28870493705861

> <r_i_glide_gscore>
-9.14505218164744

> <r_i_glide_lipo>
-3.71830376429894

> <r_i_glide_hbond>
-0.456

> <r_i_glide_metal>
0

> <r_i_glide_rewards>
-3.17967223439212

> <r_i_glide_evdw>
-32.8192596435547

> <r_i_glide_ecoul>
-5.95908260345459

> <r_i_glide_erotb>
0.743749189739538

> <r_i_glide_esite>
0

> <r_i_glide_emodel>
-59.3666523632402

> <r_i_glide_energy>
-38.7783422470093

> <r_i_glide_einternal>
4.07194995880127

> <i_i_glide_confnum>
4

> <i_i_glide_posenum>
178

> <r_i_glide_eff_state_penalty>
0

> <s_user_duplicate_titles>
CHEMBL3717_lig4250

> <s_m_subgroup_title>
dock_pv

> <s_m_subgroupid>
dock_pv

> <b_m_subgroup_collapsed>
1

$$$$
CHEMBL3717_lig2411
                    3D
 Schrodinger Suite 2021-1.
 45 46  0  0  1  0            999 V2000
   -3.4736    6.0490   30.6014 C   0  0  0  0  0  0
   -4.2079    4.7957   30.6065 C   0  0  0  0  0  0
   -5.5378    4.7465   30.3784 C   0  0  0  0  0  0
   -4.0060    7.1570   30.6080 O   0  0  0  0  0  0
   -2.1556    5.8533   30.4885 O   0  0  0  0  0  0
   -6.3567    3.5244   30.2519 C   0  0  0  0  0  0
   -5.7889    2.2566   30.0563 C   0  0  0  0  0  0
   -6.5924    1.1184   29.8665 C   0  0  0  0  0  0
   -7.9877    1.2678   29.9113 C   0  0  0  0  0  0
   -8.5586    2.5221   30.1226 C   0  0  0  0  0  0
   -7.7483    3.6428   30.2854 C   0  0  0  0  0  0
   -6.0847   -0.1478   29.6212 O   0  0  0  0  0  0
   -4.6840   -0.3234   29.4316 C   0  0  0  0  0  0
   -8.8282    0.1679   29.7303 N   0  0  0  0  0  0
   -1.2955    6.9056   30.0611 C   0  0  0  0  0  0
    0.1589    6.4628   30.2448 C   0  0  0  0  0  0
    0.4885    5.1524   29.4924 C   0  0  0  0  0  0
    1.9042    4.6335   29.6811 C   0  0  0  0  0  0
    2.5325    4.7242   30.9237 C   0  0  0  0  0  0
    3.8273    4.2545   31.0808 C   0  0  0  0  0  0
    4.4895    3.6585   30.0165 C   0  0  0  0  0  0
    3.8660    3.5570   28.7735 C   0  0  0  0  0  0
    2.5683    4.0325   28.6080 C   0  0  0  0  0  0
    5.7495    3.1570   30.2080 O   0  0  0  0  0  0
   -3.6265    3.9007   30.7677 H   0  0  0  0  0  0
   -6.0757    5.6753   30.2281 H   0  0  0  0  0  0
   -4.7161    2.1620   30.0167 H   0  0  0  0  0  0
   -9.6323    2.6369   30.1480 H   0  0  0  0  0  0
   -8.2139    4.6085   30.4252 H   0  0  0  0  0  0
   -4.4828   -1.3656   29.1832 H   0  0  0  0  0  0
   -4.3095    0.2868   28.6080 H   0  0  0  0  0  0
   -4.1255   -0.0859   30.3380 H   0  0  0  0  0  0
   -8.3988   -0.7321   29.5645 H   0  0  0  0  0  0
   -9.8301    0.2801   29.7563 H   0  0  0  0  0  0
   -1.4862    7.1216   29.0091 H   0  0  0  0  0  0
   -1.4828    7.8299   30.6080 H   0  0  0  0  0  0
    0.8214    7.2588   29.9030 H   0  0  0  0  0  0
    0.3328    6.3554   31.3141 H   0  0  0  0  0  0
   -0.1825    4.3518   29.8079 H   0  0  0  0  0  0
    0.3100    5.3182   28.4300 H   0  0  0  0  0  0
    2.0365    5.1569   31.7778 H   0  0  0  0  0  0
    4.3060    4.3570   32.0396 H   0  0  0  0  0  0
    4.3687    3.1045   27.9345 H   0  0  0  0  0  0
    2.0860    3.9398   27.6453 H   0  0  0  0  0  0
    6.0745    2.7323   29.3974 H   0  0  0  0  0  0
  1  2  1  0  0  0
  1  4  2  0  0  0
  1  5  1  0  0  0
  2  3  2  0  0  0
  2 25  1  0  0  0
  3  6  1  0  0  0
  3 26  1  0  0  0
  5 15  1  0  0  0
  6  7  1  0  0  0
  6 11  2  0  0  0
  7  8  2  0  0  0
  7 27  1  0  0  0
  8  9  1  0  0  0
  8 12  1  0  0  0
  9 10  2  0  0  0
  9 14  1  0  0  0
 10 11  1  0  0  0
 10 28  1  0  0  0
 11 29  1  0  0  0
 12 13  1  0  0  0
 13 30  1  0  0  0
 13 31  1  0  0  0
 13 32  1  0  0  0
 14 33  1  0  0  0
 14 34  1  0  0  0
 15 16  1  0  0  0
 15 35  1  0  0  0
 15 36  1  0  0  0
 16 17  1  0  0  0
 16 37  1  0  0  0
 16 38  1  0  0  0
 17 18  1  0  0  0
 17 39  1  0  0  0
 17 40  1  0  0  0
 18 19  1  0  0  0
 18 23  2  0  0  0
 19 20  2  0  0  0
 19 41  1  0  0  0
 20 21  1  0  0  0
 20 42  1  0  0  0
 21 22  2  0  0  0
 21 24  1  0  0  0
 22 23  1  0  0  0
 22 43  1  0  0  0
 23 44  1  0  0  0
 24 45  1  0  0  0
M  END
> <s_m_entry_id>
9960

> <s_m_entry_name>
dock_pv.29

> <s_m_Source_Path>
/home/csk/Desktop/cluster/DUD-E-result/met

> <s_m_Source_File>
dock_pv.maegz

> <i_m_Source_File_Index>
29

> <chembl_id>
CHEMBL3822574

> <chembl_pref_name>
None

> <i_lp_mmshare_version>
53161

> <i_f3d_flags>
0

> <r_lp_tautomer_probability>
0.999999999997365

> <s_lp_Force_Field>
OPLS_2005

> <r_lp_Energy>
20.305255

> <b_lp_Chiralities_Consistent>
1

> <s_lp_Variant>
CHEMBL3717_lig2411-1

> <s_i_glide_gridfile>
glide-grid_3lq8

> <i_i_glide_lignum>
2737

> <i_i_glide_rotatable_bonds>
9

> <r_i_docking_score>
-9.14416852336762

> <r_i_glide_ligand_efficiency>
-0.381007021806984

> <r_i_glide_ligand_efficiency_sa>
-1.09901442580621

> <r_i_glide_ligand_efficiency_ln>
-2.188619126194

> <r_i_glide_gscore>
-9.14416852336762

> <r_i_glide_lipo>
-3.89076980632361

> <r_i_glide_hbond>
-0.608

> <r_i_glide_metal>
0

> <r_i_glide_rewards>
-2.80107693427634

> <r_i_glide_evdw>
-36.7195205688477

> <r_i_glide_ecoul>
-8.22747707366943

> <r_i_glide_erotb>
1.22577580672513

> <r_i_glide_esite>
0

> <r_i_glide_emodel>
-66.9929981319769

> <r_i_glide_energy>
-44.9469976425171

> <r_i_glide_einternal>
4.92613077163696

> <i_i_glide_confnum>
6

> <i_i_glide_posenum>
202

> <r_i_glide_eff_state_penalty>
0

> <s_user_duplicate_titles>
CHEMBL3717_lig2411

> <s_m_subgroup_title>
dock_pv

> <s_m_subgroupid>
dock_pv

> <b_m_subgroup_collapsed>
1

$$$$
CHEMBL3717_lig4134
                    3D
 Schrodinger Suite 2021-1.
 53 56  0  0  1  0            999 V2000
   -0.8940   -2.5972   33.8231 F   0  0  0  0  0  0
   -1.1201   -2.4422   31.6781 F   0  0  0  0  0  0
   -1.8083   -0.8393   33.0076 F   0  0  0  0  0  0
   -4.5361    3.2981   30.5124 O   0  0  0  0  0  0
   -2.9329   -2.8428   33.0096 O   0  0  0  0  0  0
    4.3094    3.5414   30.4798 N   0  0  0  0  0  0
    4.3063    3.1591   29.1957 N   0  0  0  0  0  0
   -2.8946    6.5497   30.6055 N   0  0  0  0  0  0
   -6.6713    1.4154   30.3954 N   0  0  0  0  0  0
    2.2010    3.6667   29.5224 C   0  0  0  0  0  0
    3.0015    3.8644   30.6837 C   0  0  0  0  0  0
    0.2788    4.5120   30.6943 C   0  0  0  0  0  0
    3.0961    3.1782   28.5548 C   0  0  0  0  0  0
    0.8370    3.9587   29.5437 C   0  0  0  0  0  0
   -1.1569    4.8617   30.6917 C   0  0  0  0  0  0
    2.4233    4.3576   31.8524 C   0  0  0  0  0  0
    1.0798    4.7199   31.8219 C   0  0  0  0  0  0
   -2.1350    3.8609   30.7014 C   0  0  0  0  0  0
   -3.4958    4.2001   30.6079 C   0  0  0  0  0  0
   -1.5862    6.1884   30.6081 C   0  0  0  0  0  0
    2.8891    2.7521   27.1344 C   0  0  0  0  0  0
   -3.8205    5.5583   30.5902 C   0  0  0  0  0  0
   -4.0459   -2.4420   32.2976 C   0  0  0  0  0  0
   -5.2165   -1.2188   30.5464 C   0  0  0  0  0  0
   -4.0273   -1.5669   31.1978 C   0  0  0  0  0  0
   -1.6903   -2.1602   32.8505 C   0  0  0  0  0  0
   -5.4343    1.2217   29.6564 C   0  0  2  0  0  0
   -5.1996   -0.2758   29.3443 C   0  0  0  0  0  0
   -4.2629    1.8968   30.3997 C   0  0  0  0  0  0
   -5.2676   -2.9674   32.7215 C   0  0  0  0  0  0
   -6.4284   -1.7555   30.9911 C   0  0  0  0  0  0
   -6.4549   -2.6267   32.0767 C   0  0  0  0  0  0
    5.1604    2.8284   28.7537 H   0  0  0  0  0  0
   -6.6271    0.8899   31.2574 H   0  0  0  0  0  0
   -6.7271    2.3901   30.6623 H   0  0  0  0  0  0
    0.2449    3.7861   28.6591 H   0  0  0  0  0  0
    3.0161    4.5174   32.7369 H   0  0  0  0  0  0
    0.6589    5.1576   32.7093 H   0  0  0  0  0  0
   -1.8145    2.8308   30.7514 H   0  0  0  0  0  0
   -0.8713    6.9977   30.5813 H   0  0  0  0  0  0
    2.3062    3.5026   26.6081 H   0  0  0  0  0  0
    3.8281    2.6065   26.6079 H   0  0  0  0  0  0
    2.3327    1.8186   27.0675 H   0  0  0  0  0  0
   -4.8544    5.8685   30.5301 H   0  0  0  0  0  0
   -3.0968   -1.1557   30.8371 H   0  0  0  0  0  0
   -5.5506    1.7353   28.7013 H   0  0  0  0  0  0
   -4.2564   -0.3998   28.8092 H   0  0  0  0  0  0
   -5.9541   -0.6179   28.6328 H   0  0  0  0  0  0
   -4.1124    1.4696   31.3939 H   0  0  0  0  0  0
   -3.3622    1.7047   29.8152 H   0  0  0  0  0  0
   -5.2935   -3.6487   33.5586 H   0  0  0  0  0  0
   -7.3517   -1.4995   30.4910 H   0  0  0  0  0  0
   -7.3930   -3.0397   32.4172 H   0  0  0  0  0  0
  1 26  1  0  0  0
  2 26  1  0  0  0
  3 26  1  0  0  0
  4 19  1  0  0  0
  4 29  1  0  0  0
  5 23  1  0  0  0
  5 26  1  0  0  0
  6  7  1  0  0  0
  6 11  2  0  0  0
  7 33  1  0  0  0
  7 13  1  0  0  0
  8 20  1  0  0  0
  8 22  2  0  0  0
  9 27  1  0  0  0
  9 34  1  0  0  0
  9 35  1  0  0  0
 10 14  1  0  0  0
 10 11  1  0  0  0
 10 13  2  0  0  0
 11 16  1  0  0  0
 12 17  1  0  0  0
 12 15  1  0  0  0
 12 14  2  0  0  0
 13 21  1  0  0  0
 14 36  1  0  0  0
 15 18  1  0  0  0
 15 20  2  0  0  0
 16 37  1  0  0  0
 16 17  2  0  0  0
 17 38  1  0  0  0
 18 19  2  0  0  0
 18 39  1  0  0  0
 19 22  1  0  0  0
 20 40  1  0  0  0
 21 41  1  0  0  0
 21 42  1  0  0  0
 21 43  1  0  0  0
 22 44  1  0  0  0
 23 25  2  0  0  0
 23 30  1  0  0  0
 24 25  1  0  0  0
 24 28  1  0  0  0
 24 31  2  0  0  0
 25 45  1  0  0  0
 27 28  1  0  0  0
 27 29  1  0  0  0
 27 46  1  0  0  0
 28 47  1  0  0  0
 28 48  1  0  0  0
 29 49  1  0  0  0
 29 50  1  0  0  0
 30 32  2  0  0  0
 30 51  1  0  0  0
 31 32  1  0  0  0
 31 52  1  0  0  0
 32 53  1  0  0  0
M  END
> <s_m_entry_id>
9961

> <s_m_entry_name>
dock_pv.30

> <s_m_Source_Path>
/home/csk/Desktop/cluster/DUD-E-result/met

> <s_m_Source_File>
dock_pv.maegz

> <i_m_Source_File_Index>
30

> <chembl_id>
CHEMBL1965836

> <chembl_pref_name>
None

> <i_lp_mmshare_version>
53161

> <i_f3d_flags>
0

> <r_lp_tautomer_probability>
0.0196078431372549

> <s_lp_Force_Field>
OPLS_2005

> <r_lp_Energy>
40.91069

> <b_lp_Chiralities_Consistent>
1

> <s_lp_Variant>
CHEMBL3717_lig4134-3

> <s_i_glide_gridfile>
glide-grid_3lq8

> <i_i_glide_lignum>
5290

> <i_i_glide_rotatable_bonds>
8

> <r_i_docking_score>
-9.14301101225464

> <r_i_glide_ligand_efficiency>
-0.285719094132958

> <r_i_glide_ligand_efficiency_sa>
-0.907101580140191

> <r_i_glide_ligand_efficiency_ln>
-2.04736939471109

> <r_i_glide_gscore>
-9.14301101225464

> <r_i_glide_lipo>
-4.08044899064853

> <r_i_glide_hbond>
-0.32

> <r_i_glide_metal>
0

> <r_i_glide_rewards>
-2.46688202581752

> <r_i_glide_evdw>
-45.7778625488281

> <r_i_glide_ecoul>
-4.50219011306763

> <r_i_glide_erotb>
0.714610432946625

> <r_i_glide_esite>
-0.026068784333665

> <r_i_glide_emodel>
-72.5368667836716

> <r_i_glide_energy>
-50.2800526618958

> <r_i_glide_einternal>
9.97636032104492

> <i_i_glide_confnum>
18

> <i_i_glide_posenum>
242

> <r_i_glide_eff_state_penalty>
0

> <s_user_duplicate_titles>
CHEMBL3717_lig4134,CHEMBL3717_lig4134

> <s_m_subgroup_title>
dock_pv

> <s_m_subgroupid>
dock_pv

> <b_m_subgroup_collapsed>
1

$$$$
CHEMBL3717_lig3363 
                    3D
 Schrodinger Suite 2021-1.
 48 52  0  0  1  0            999 V2000
   -4.2662    5.6771   30.3548 C   0  0  0  0  0  0
   -3.7660    4.3888   30.5465 C   0  0  0  0  0  0
   -2.4393    4.1595   30.7623 N   0  0  0  0  0  0
   -3.4547    6.7568   30.2221 N   0  0  0  0  0  0
   -2.1401    6.5211   30.2749 C   0  0  0  0  0  0
   -1.6522    5.2373   30.6098 C   0  0  0  0  0  0
   -0.2749    5.3956   30.7120 N   0  0  0  0  0  0
   -0.0422    6.6851   30.2668 C   0  0  0  0  0  0
   -1.1187    7.3937   30.0310 N   0  0  0  0  0  0
   -4.6343    3.1913   30.3555 C   0  0  0  0  0  0
   -4.2542    1.8633   30.2227 C   0  0  0  0  0  0
   -5.3973    1.1477   29.9928 N   0  0  0  0  0  0
   -6.4923    1.9160   30.0227 N   0  0  0  0  0  0
   -6.0333    3.1320   30.2158 C   0  0  0  0  0  0
    0.7496    4.4661   31.2360 C   0  0  1  0  0  0
    0.1937    3.0601   31.4078 C   0  0  0  0  0  0
    2.0184    4.3561   30.3892 C   0  0  0  0  0  0
    1.9222    4.1374   29.0210 C   0  0  0  0  0  0
    3.0537    4.0405   28.2299 C   0  0  0  0  0  0
    3.2765    4.3569   30.9913 C   0  0  0  0  0  0
    4.4561    4.3435   30.2068 C   0  0  0  0  0  0
    4.3379    4.2534   28.7908 C   0  0  0  0  0  0
    5.4280    4.3570   27.9782 N   0  0  0  0  0  0
    6.6576    4.3566   28.5421 C   0  0  0  0  0  0
    6.8704    4.3569   29.9140 C   0  0  0  0  0  0
    5.7639    4.4145   30.7510 C   0  0  0  0  0  0
    3.3628    4.3568   32.3329 F   0  0  0  0  0  0
    0.7085    4.0033   28.4586 F   0  0  0  0  0  0
   -5.5233   -0.2991   29.8649 C   0  0  0  0  0  0
   -6.0010   -0.9516   31.1766 C   0  0  0  0  0  0
   -5.0612   -0.7132   32.2077 O   0  0  0  0  0  0
   -5.3191    5.8584   30.2096 H   0  0  0  0  0  0
    0.9700    7.0520   30.2081 H   0  0  0  0  0  0
   -3.2947    1.3726   30.2653 H   0  0  0  0  0  0
   -6.7082    3.9739   30.2553 H   0  0  0  0  0  0
    1.0080    4.8502   32.2241 H   0  0  0  0  0  0
    0.9837    2.3566   31.6719 H   0  0  0  0  0  0
   -0.5815    2.9983   32.1709 H   0  0  0  0  0  0
   -0.2402    2.7570   30.4578 H   0  0  0  0  0  0
    2.9140    3.8469   27.1832 H   0  0  0  0  0  0
    7.4941    4.3569   27.8568 H   0  0  0  0  0  0
    7.8741    4.3859   30.3115 H   0  0  0  0  0  0
    5.9031    4.5348   31.8075 H   0  0  0  0  0  0
   -6.2574   -0.4916   29.0795 H   0  0  0  0  0  0
   -4.6014   -0.7487   29.4917 H   0  0  0  0  0  0
   -6.9348   -0.4882   31.5007 H   0  0  0  0  0  0
   -6.1896   -2.0185   31.0553 H   0  0  0  0  0  0
   -5.5317   -0.6151   33.0472 H   0  0  0  0  0  0
  1  2  2  0  0  0
  1  4  1  0  0  0
  1 32  1  0  0  0
  2  3  1  0  0  0
  2 10  1  0  0  0
  3  6  2  0  0  0
  4  5  2  0  0  0
  5  6  1  0  0  0
  5  9  1  0  0  0
  6  7  1  0  0  0
  7  8  1  0  0  0
  7 15  1  0  0  0
  8  9  2  0  0  0
  8 33  1  0  0  0
 10 11  2  0  0  0
 10 14  1  0  0  0
 11 12  1  0  0  0
 11 34  1  0  0  0
 12 13  1  0  0  0
 12 29  1  0  0  0
 13 14  2  0  0  0
 14 35  1  0  0  0
 15 16  1  0  0  0
 15 17  1  0  0  0
 15 36  1  0  0  0
 16 37  1  0  0  0
 16 38  1  0  0  0
 16 39  1  0  0  0
 17 18  2  0  0  0
 17 20  1  0  0  0
 18 19  1  0  0  0
 18 28  1  0  0  0
 19 22  2  0  0  0
 19 40  1  0  0  0
 20 21  2  0  0  0
 20 27  1  0  0  0
 21 22  1  0  0  0
 21 26  1  0  0  0
 22 23  1  0  0  0
 23 24  2  0  0  0
 24 25  1  0  0  0
 24 41  1  0  0  0
 25 26  2  0  0  0
 25 42  1  0  0  0
 26 43  1  0  0  0
 29 30  1  0  0  0
 29 44  1  0  0  0
 29 45  1  0  0  0
 30 31  1  0  0  0
 30 46  1  0  0  0
 30 47  1  0  0  0
 31 48  1  0  0  0
M  END
> <s_m_entry_id>
9962

> <s_m_entry_name>
dock_pv.31

> <s_m_Source_Path>
/home/csk/Desktop/cluster/DUD-E-result/met

> <s_m_Source_File>
dock_pv.maegz

> <i_m_Source_File_Index>
31

> <chembl_id>
CHEMBL4483314

> <chembl_pref_name>
None

> <i_lp_mmshare_version>
53161

> <i_f3d_flags>
0

> <r_lp_tautomer_probability>
1

> <s_lp_Force_Field>
OPLS_2005

> <r_lp_Energy>
26.223607

> <b_lp_Chiralities_Consistent>
1

> <s_lp_Variant>
CHEMBL3717_lig3363 -2

> <s_i_glide_gridfile>
glide-grid_3lq8

> <i_i_glide_lignum>
4115

> <i_i_glide_rotatable_bonds>
6

> <r_i_docking_score>
-9.13368602696646

> <r_i_glide_ligand_efficiency>
-0.29463503312795

> <r_i_glide_ligand_efficiency_sa>
-0.925560791525386

> <r_i_glide_ligand_efficiency_ln>
-2.05992611294128

> <r_i_glide_gscore>
-9.13368602696646

> <r_i_glide_lipo>
-3.15566637908083

> <r_i_glide_hbond>
-0.587644412543596

> <r_i_glide_metal>
0

> <r_i_glide_rewards>
-3.56425974186174

> <r_i_glide_evdw>
-33.2908477783203

> <r_i_glide_ecoul>
-4.79399585723877

> <r_i_glide_erotb>
0.557526274021542

> <r_i_glide_esite>
0

> <r_i_glide_emodel>
-54.8311311314377

> <r_i_glide_energy>
-38.0848436355591

> <r_i_glide_einternal>
6.44105958938599

> <i_i_glide_confnum>
19

> <i_i_glide_posenum>
41

> <r_i_glide_eff_state_penalty>
0

> <s_user_duplicate_titles>
CHEMBL3717_lig3363 

> <s_m_subgroup_title>
dock_pv

> <s_m_subgroupid>
dock_pv

> <b_m_subgroup_collapsed>
1

$$$$
CHEMBL3717_lig4317
                    3D
 Schrodinger Suite 2021-1.
 52 56  0  0  1  0            999 V2000
    6.3767    4.4044   30.4613 C   0  0  0  0  0  0
    5.3701    3.5570   29.8333 N   0  0  0  0  0  0
    4.0036    3.8061   30.0266 C   0  0  0  0  0  0
    3.5232    4.3570   31.2153 C   0  0  0  0  0  0
    2.1822    4.6881   31.3460 C   0  0  0  0  0  0
    1.3053    4.4703   30.2885 C   0  0  0  0  0  0
    1.7616    3.8385   29.1274 C   0  0  0  0  0  0
    3.1089    3.5026   28.9993 C   0  0  0  0  0  0
   -0.0703    4.9904   30.3804 C   0  0  0  0  0  0
   -0.2961    6.3568   30.1885 C   0  0  0  0  0  0
   -1.5821    6.8958   30.2081 C   0  0  0  0  0  0
   -2.6641    6.0360   30.4609 C   0  0  0  0  0  0
   -3.9893    6.2696   30.5634 N   0  0  0  0  0  0
   -4.6003    5.0283   30.6198 N   0  0  0  0  0  0
   -3.6778    4.0849   30.6057 C   0  0  0  0  0  0
   -3.9357    2.5908   30.4680 C   0  0  0  0  0  0
   -4.8908    2.3572   29.4353 O   0  0  0  0  0  0
   -6.1121    1.8865   29.8573 C   0  0  0  0  0  0
   -7.1293    2.7931   30.1559 C   0  0  0  0  0  0
   -8.3695    2.3141   30.5616 C   0  0  0  0  0  0
   -8.6566    0.9968   30.6827 N   0  0  0  0  0  0
   -7.6811    0.0927   30.3897 C   0  0  0  0  0  0
   -7.9838   -1.2837   30.4999 C   0  0  0  0  0  0
   -7.0279   -2.2552   30.2134 C   0  0  0  0  0  0
   -7.4359   -3.5675   30.3472 O   0  0  0  0  0  0
   -6.4758   -4.6088   30.2133 C   0  0  0  0  0  0
   -5.7460   -1.8577   29.8084 C   0  0  0  0  0  0
   -5.4162   -0.5097   29.6814 C   0  0  0  0  0  0
   -6.3756    0.4921   29.9700 C   0  0  0  0  0  0
   -2.4232    4.6576   30.6079 N   0  0  0  0  0  0
   -1.1518    4.1393   30.6081 C   0  0  0  0  0  0
    7.3736    4.0846   30.1559 H   0  0  0  0  0  0
    6.2515    5.4442   30.1546 H   0  0  0  0  0  0
    6.3302    4.3561   31.5487 H   0  0  0  0  0  0
    5.6583    3.0242   29.0128 H   0  0  0  0  0  0
    4.1865    4.5687   32.0359 H   0  0  0  0  0  0
    1.8334    5.1559   32.2553 H   0  0  0  0  0  0
    1.0853    3.6508   28.3055 H   0  0  0  0  0  0
    3.4592    3.0499   28.0832 H   0  0  0  0  0  0
    0.5436    7.0128   30.0013 H   0  0  0  0  0  0
   -1.7316    7.9548   30.0565 H   0  0  0  0  0  0
   -4.2635    2.1633   31.4082 H   0  0  0  0  0  0
   -3.0396    2.0280   30.2081 H   0  0  0  0  0  0
   -6.9619    3.8554   30.0617 H   0  0  0  0  0  0
   -9.1720    2.9997   30.7934 H   0  0  0  0  0  0
   -8.9737   -1.5826   30.8120 H   0  0  0  0  0  0
   -6.9629   -5.5715   30.3654 H   0  0  0  0  0  0
   -5.6941   -4.5135   30.9664 H   0  0  0  0  0  0
   -6.0225   -4.6226   29.2214 H   0  0  0  0  0  0
   -4.9881   -2.5891   29.5716 H   0  0  0  0  0  0
   -4.4298   -0.2244   29.3442 H   0  0  0  0  0  0
   -1.0460    3.0704   30.7129 H   0  0  0  0  0  0
  1  2  1  0  0  0
  1 32  1  0  0  0
  1 33  1  0  0  0
  1 34  1  0  0  0
  2  3  1  0  0  0
  2 35  1  0  0  0
  3  4  2  0  0  0
  3  8  1  0  0  0
  4  5  1  0  0  0
  4 36  1  0  0  0
  5  6  2  0  0  0
  5 37  1  0  0  0
  6  7  1  0  0  0
  6  9  1  0  0  0
  7  8  2  0  0  0
  7 38  1  0  0  0
  8 39  1  0  0  0
  9 10  1  0  0  0
  9 31  2  0  0  0
 10 11  2  0  0  0
 10 40  1  0  0  0
 11 12  1  0  0  0
 11 41  1  0  0  0
 12 13  2  0  0  0
 12 30  1  0  0  0
 13 14  1  0  0  0
 14 15  2  0  0  0
 15 16  1  0  0  0
 15 30  1  0  0  0
 16 17  1  0  0  0
 16 42  1  0  0  0
 16 43  1  0  0  0
 17 18  1  0  0  0
 18 19  2  0  0  0
 18 29  1  0  0  0
 19 20  1  0  0  0
 19 44  1  0  0  0
 20 21  2  0  0  0
 20 45  1  0  0  0
 21 22  1  0  0  0
 22 23  2  0  0  0
 22 29  1  0  0  0
 23 24  1  0  0  0
 23 46  1  0  0  0
 24 25  1  0  0  0
 24 27  2  0  0  0
 25 26  1  0  0  0
 26 47  1  0  0  0
 26 48  1  0  0  0
 26 49  1  0  0  0
 27 28  1  0  0  0
 27 50  1  0  0  0
 28 29  2  0  0  0
 28 51  1  0  0  0
 30 31  1  0  0  0
 31 52  1  0  0  0
M  END
> <s_m_entry_id>
9963

> <s_m_entry_name>
dock_pv.32

> <s_m_Source_Path>
/home/csk/Desktop/cluster/DUD-E-result/met

> <s_m_Source_File>
dock_pv.maegz

> <i_m_Source_File_Index>
32

> <chembl_id>
CHEMBL3668141

> <chembl_pref_name>
None

> <i_lp_mmshare_version>
53161

> <i_f3d_flags>
0

> <r_lp_tautomer_probability>
1

> <s_lp_Force_Field>
OPLS_2005

> <r_lp_Energy>
24.947797

> <b_lp_Chiralities_Consistent>
1

> <s_lp_Variant>
CHEMBL3717_lig4317-1

> <s_i_glide_gridfile>
glide-grid_3lq8

> <i_i_glide_lignum>
5540

> <i_i_glide_rotatable_bonds>
6

> <r_i_docking_score>
-9.1320612917271

> <r_i_glide_ligand_efficiency>
-0.294582622313777

> <r_i_glide_ligand_efficiency_sa>
-0.925396149207955

> <r_i_glide_ligand_efficiency_ln>
-2.05955968535265

> <r_i_glide_gscore>
-9.1320612917271

> <r_i_glide_lipo>
-3.44928475712168

> <r_i_glide_hbond>
-0.32

> <r_i_glide_metal>
0

> <r_i_glide_rewards>
-2.95020755855275

> <r_i_glide_evdw>
-45.0257034301758

> <r_i_glide_ecoul>
-4.1798095703125

> <r_i_glide_erotb>
0.465687631002992

> <r_i_glide_esite>
0

> <r_i_glide_emodel>
-62.6187167965387

> <r_i_glide_energy>
-49.2055130004883

> <r_i_glide_einternal>
19.7767009735107

> <i_i_glide_confnum>
3

> <i_i_glide_posenum>
11

> <r_i_glide_eff_state_penalty>
0

> <s_user_duplicate_titles>
CHEMBL3717_lig4317

> <s_m_subgroup_title>
dock_pv

> <s_m_subgroupid>
dock_pv

> <b_m_subgroup_collapsed>
1

$$$$
CHEMBL3717_lig3567
                    3D
 Schrodinger Suite 2021-1.
 30 32  0  0  1  0            999 V2000
    0.4970    5.0003   30.6097 C   0  0  0  0  0  0
    1.1650    4.7570   31.8080 C   0  0  0  0  0  0
    2.4299    4.1758   31.8270 C   0  0  0  0  0  0
    1.0727    4.6759   29.3836 C   0  0  0  0  0  0
    2.3339    4.0788   29.3755 C   0  0  0  0  0  0
    3.0243    3.8396   30.6050 C   0  0  0  0  0  0
    4.2519    3.2797   30.4111 N   0  0  0  0  0  0
    4.3060    3.1570   29.0765 N   0  0  0  0  0  0
    3.2055    3.5820   28.3837 C   0  0  0  0  0  0
   -0.8597    5.5700   30.6155 C   0  0  0  0  0  0
   -2.0877    5.0942   31.0080 C   0  0  0  0  0  0
   -2.9890    6.1016   30.6781 C   0  0  0  0  0  0
   -2.3625    7.1570   30.2080 N   0  0  0  0  0  0
   -1.0129    6.8221   30.1240 O   0  0  0  0  0  0
   -4.4955    6.1161   30.7975 C   0  0  0  0  0  0
   -5.1427    4.7761   30.4095 C   0  0  0  0  0  0
   -6.6758    4.8013   30.4741 C   0  0  0  0  0  0
    0.7060    5.0354   32.7427 H   0  0  0  0  0  0
    2.9381    3.9928   32.7610 H   0  0  0  0  0  0
    0.5500    4.8596   28.4574 H   0  0  0  0  0  0
    5.1246    2.7443   28.6327 H   0  0  0  0  0  0
    3.1553    3.4983   27.3094 H   0  0  0  0  0  0
   -2.3073    4.1240   31.4259 H   0  0  0  0  0  0
   -4.9200    6.9247   30.2080 H   0  0  0  0  0  0
   -4.7834    6.3570   31.8080 H   0  0  0  0  0  0
   -4.7769    3.9788   31.0558 H   0  0  0  0  0  0
   -4.8200    4.5093   29.4080 H   0  0  0  0  0  0
   -7.0939    3.8385   30.1788 H   0  0  0  0  0  0
   -7.0923    5.5570   29.8080 H   0  0  0  0  0  0
   -7.0250    5.0180   31.4839 H   0  0  0  0  0  0
  1  2  1  0  0  0
  1 10  1  0  0  0
  1  4  2  0  0  0
  2  3  2  0  0  0
  2 18  1  0  0  0
  3  6  1  0  0  0
  3 19  1  0  0  0
  4 20  1  0  0  0
  4  5  1  0  0  0
  5  6  1  0  0  0
  5  9  2  0  0  0
  6  7  2  0  0  0
  7  8  1  0  0  0
  8 21  1  0  0  0
  8  9  1  0  0  0
  9 22  1  0  0  0
 10 14  1  0  0  0
 10 11  2  0  0  0
 11 12  1  0  0  0
 11 23  1  0  0  0
 12 13  2  0  0  0
 12 15  1  0  0  0
 13 14  1  0  0  0
 15 16  1  0  0  0
 15 24  1  0  0  0
 15 25  1  0  0  0
 16 17  1  0  0  0
 16 26  1  0  0  0
 16 27  1  0  0  0
 17 28  1  0  0  0
 17 29  1  0  0  0
 17 30  1  0  0  0
M  END
> <s_m_entry_id>
9964

> <s_m_entry_name>
dock_pv.33

> <s_m_Source_Path>
/home/csk/Desktop/cluster/DUD-E-result/met

> <s_m_Source_File>
dock_pv.maegz

> <i_m_Source_File_Index>
33

> <chembl_id>
CHEMBL1682359

> <chembl_pref_name>
None

> <i_lp_mmshare_version>
53161

> <i_f3d_flags>
0

> <r_lp_tautomer_probability>
0.0196078431372549

> <s_lp_Force_Field>
OPLS_2005

> <r_lp_Energy>
16.60487

> <b_lp_Chiralities_Consistent>
1

> <s_lp_Variant>
CHEMBL3717_lig3567-2

> <s_i_glide_gridfile>
glide-grid_3lq8

> <i_i_glide_lignum>
4422

> <i_i_glide_rotatable_bonds>
3

> <r_i_docking_score>
-9.13065679702628

> <r_i_glide_ligand_efficiency>
-0.537097458648605

> <r_i_glide_ligand_efficiency_sa>
-1.38102880650823

> <r_i_glide_ligand_efficiency_ln>
-2.38198502861425

> <r_i_glide_gscore>
-9.13065679702628

> <r_i_glide_lipo>
-3.83507254926365

> <r_i_glide_hbond>
-0.32

> <r_i_glide_metal>
0

> <r_i_glide_rewards>
-3.5095785

> <r_i_glide_evdw>
-31.7666549682617

> <r_i_glide_ecoul>
-3.57669568061829

> <r_i_glide_erotb>
0.658831352743197

> <r_i_glide_esite>
0

> <r_i_glide_emodel>
-51.4421013473886

> <r_i_glide_energy>
-35.34335064888

> <r_i_glide_einternal>
5.00649213790894

> <i_i_glide_confnum>
5

> <i_i_glide_posenum>
150

> <r_i_glide_eff_state_penalty>
0

> <s_user_duplicate_titles>
CHEMBL3717_lig3567,CHEMBL3717_lig3567

> <s_m_subgroup_title>
dock_pv

> <s_m_subgroupid>
dock_pv

> <b_m_subgroup_collapsed>
1

$$$$
CHEMBL3717_lig4131
                    3D
 Schrodinger Suite 2021-1.
 24 26  0  0  1  0            999 V2000
    1.5182    4.3569   29.2564 S   0  0  0  0  0  0
   -0.6419    5.3808   30.5630 N   0  0  0  0  0  0
   -2.1575    7.0232   30.2080 N   0  0  0  0  0  0
    1.1391    4.4575   31.8080 N   0  0  0  0  0  0
    0.0839    7.5570   29.8080 N   0  0  0  0  0  0
   -4.5003    0.7218   30.6080 N   0  0  0  0  0  0
   -1.8862    4.7835   30.6225 C   0  0  0  0  0  0
   -2.8057    5.8393   30.4138 C   0  0  0  0  0  0
   -0.8942    6.6946   30.1988 C   0  0  0  0  0  0
    0.5929    4.7841   30.6639 C   0  0  0  0  0  0
   -2.3011    3.4567   30.7669 C   0  0  0  0  0  0
   -4.1774    5.5669   30.3769 C   0  0  0  0  0  0
   -3.6678    3.1980   30.6080 C   0  0  0  0  0  0
   -4.5906    4.2366   30.4467 C   0  0  0  0  0  0
    2.7285    3.7048   30.3198 C   0  0  0  0  0  0
    2.3068    3.8698   31.6369 C   0  0  0  0  0  0
   -4.1324    1.8180   30.6080 C   0  0  0  0  0  0
    1.0536    7.2822   29.7707 H   0  0  0  0  0  0
   -0.1356    8.5215   29.5773 H   0  0  0  0  0  0
   -1.5850    2.6662   30.9087 H   0  0  0  0  0  0
   -4.8940    6.3570   30.2251 H   0  0  0  0  0  0
   -5.6463    4.0168   30.3551 H   0  0  0  0  0  0
    3.6328    3.2529   29.9374 H   0  0  0  0  0  0
    2.8544    3.5509   32.5108 H   0  0  0  0  0  0
  1 10  1  0  0  0
  1 15  1  0  0  0
  2  7  1  0  0  0
  2  9  1  0  0  0
  2 10  1  0  0  0
  3  8  1  0  0  0
  3  9  2  0  0  0
  4 10  2  0  0  0
  4 16  1  0  0  0
  5  9  1  0  0  0
  5 18  1  0  0  0
  5 19  1  0  0  0
  6 17  3  0  0  0
  7  8  1  0  0  0
  7 11  2  0  0  0
  8 12  2  0  0  0
 11 13  1  0  0  0
 11 20  1  0  0  0
 12 14  1  0  0  0
 12 21  1  0  0  0
 13 14  2  0  0  0
 13 17  1  0  0  0
 14 22  1  0  0  0
 15 16  2  0  0  0
 15 23  1  0  0  0
 16 24  1  0  0  0
M  END
> <s_m_entry_id>
9965

> <s_m_entry_name>
dock_pv.34

> <s_m_Source_Path>
/home/csk/Desktop/cluster/DUD-E-result/met

> <s_m_Source_File>
dock_pv.maegz

> <i_m_Source_File_Index>
34

> <chembl_id>
CHEMBL1988805

> <chembl_pref_name>
None

> <i_lp_mmshare_version>
53161

> <i_f3d_flags>
0

> <r_lp_tautomer_probability>
1

> <s_lp_Force_Field>
OPLS_2005

> <r_lp_Energy>
9.496343

> <b_lp_Chiralities_Consistent>
1

> <s_lp_Variant>
CHEMBL3717_lig4131-1

> <s_i_glide_gridfile>
glide-grid_3lq8

> <i_i_glide_lignum>
5285

> <i_i_glide_rotatable_bonds>
1

> <r_i_docking_score>
-9.1282414911746

> <r_i_glide_ligand_efficiency>
-0.5369553818338

> <r_i_glide_ligand_efficiency_sa>
-1.38066348701021

> <r_i_glide_ligand_efficiency_ln>
-2.38135492910377

> <r_i_glide_gscore>
-9.1282414911746

> <r_i_glide_lipo>
-2.28233129781336

> <r_i_glide_hbond>
-0.38708242265545

> <r_i_glide_metal>
0

> <r_i_glide_rewards>
-4.49936280743339

> <r_i_glide_evdw>
-34.5258483886719

> <r_i_glide_ecoul>
-2.94303798675537

> <r_i_glide_erotb>
0.2082831541745

> <r_i_glide_esite>
0

> <r_i_glide_emodel>
-54.1888940333685

> <r_i_glide_energy>
-37.4688863754272

> <r_i_glide_einternal>
1.2115581035614

> <i_i_glide_confnum>
1

> <i_i_glide_posenum>
60

> <r_i_glide_eff_state_penalty>
0

> <s_user_duplicate_titles>
CHEMBL3717_lig4131

> <s_m_subgroup_title>
dock_pv

> <s_m_subgroupid>
dock_pv

> <b_m_subgroup_collapsed>
1

$$$$
CHEMBL3717_lig3802
                    3D
 Schrodinger Suite 2021-1.
 45 47  0  0  1  0            999 V2000
   -2.0031    7.5158   30.2075 F   0  0  0  0  0  0
   -4.4943    6.6343   30.6080 O   0  0  0  0  0  0
   -7.2934    5.1568   32.5644 O   0  0  0  0  0  0
   -4.8468    4.3814   30.6079 N   0  0  0  0  0  0
    4.3701    3.5049   30.2788 N   0  0  0  0  0  0
   -2.5749    5.2245   30.7021 C   0  0  0  0  0  0
    0.2163    4.6566   30.7182 C   0  0  0  0  0  0
   -1.6272    6.2404   30.4626 C   0  0  0  0  0  0
   -4.0666    5.4856   30.6301 C   0  0  0  0  0  0
   -0.2577    5.9552   30.4756 C   0  0  0  0  0  0
    1.6647    4.2820   30.6242 C   0  0  0  0  0  0
   -2.0935    3.9449   31.0080 C   0  0  0  0  0  0
   -0.7350    3.6808   31.0080 C   0  0  0  0  0  0
   -6.3026    4.1936   30.4763 C   0  0  1  0  0  0
    2.1782    3.1160   31.2180 C   0  0  0  0  0  0
    2.5596    5.0488   29.8715 C   0  0  0  0  0  0
   -6.6810    2.7329   30.8826 C   0  0  0  0  0  0
   -7.3835    1.9359   29.7915 C   0  0  0  0  0  0
    3.5082    2.7572   31.0081 C   0  0  0  0  0  0
    3.8874    4.6411   29.7245 C   0  0  0  0  0  0
   -7.2210    5.2487   31.1480 C   0  0  0  0  0  0
   -8.6518    2.3239   29.3487 C   0  0  0  0  0  0
   -6.7573    0.8194   29.2256 C   0  0  0  0  0  0
   -9.2822    1.6115   28.3314 C   0  0  0  0  0  0
   -7.3883    0.1072   28.2094 C   0  0  0  0  0  0
   -8.6461    0.5083   27.7648 C   0  0  0  0  0  0
   -7.6567    4.2989   32.8004 H   0  0  0  0  0  0
   -4.3377    3.5131   30.5873 H   0  0  0  0  0  0
    0.4267    6.7652   30.2756 H   0  0  0  0  0  0
   -2.7526    3.1212   31.2403 H   0  0  0  0  0  0
   -0.4287    2.6859   31.2410 H   0  0  0  0  0  0
   -6.4872    4.3114   29.4081 H   0  0  0  0  0  0
    1.5626    2.4585   31.8080 H   0  0  0  0  0  0
    2.2280    5.9569   29.4081 H   0  0  0  0  0  0
   -7.3279    2.7115   31.7596 H   0  0  0  0  0  0
   -5.7995    2.1723   31.2003 H   0  0  0  0  0  0
    3.9051    1.8459   31.4298 H   0  0  0  0  0  0
    4.5873    5.2272   29.1470 H   0  0  0  0  0  0
   -6.8943    6.2511   30.8780 H   0  0  0  0  0  0
   -8.2281    5.1711   30.7369 H   0  0  0  0  0  0
   -9.1472    3.1805   29.7812 H   0  0  0  0  0  0
   -5.7789    0.5052   29.5596 H   0  0  0  0  0  0
  -10.2578    1.9154   27.9807 H   0  0  0  0  0  0
   -6.9003   -0.7495   27.7662 H   0  0  0  0  0  0
   -9.1326   -0.0418   26.9728 H   0  0  0  0  0  0
  1  8  1  0  0  0
  2  9  2  0  0  0
  3 21  1  0  0  0
  3 27  1  0  0  0
  4  9  1  0  0  0
  4 14  1  0  0  0
  4 28  1  0  0  0
  5 19  2  0  0  0
  5 20  1  0  0  0
  6  8  1  0  0  0
  6  9  1  0  0  0
  6 12  2  0  0  0
  7 10  1  0  0  0
  7 11  1  0  0  0
  7 13  2  0  0  0
  8 10  2  0  0  0
 10 29  1  0  0  0
 11 15  2  0  0  0
 11 16  1  0  0  0
 12 13  1  0  0  0
 12 30  1  0  0  0
 13 31  1  0  0  0
 14 17  1  0  0  0
 14 21  1  0  0  0
 14 32  1  0  0  0
 15 19  1  0  0  0
 15 33  1  0  0  0
 16 20  2  0  0  0
 16 34  1  0  0  0
 17 18  1  0  0  0
 17 35  1  0  0  0
 17 36  1  0  0  0
 18 22  2  0  0  0
 18 23  1  0  0  0
 19 37  1  0  0  0
 20 38  1  0  0  0
 21 39  1  0  0  0
 21 40  1  0  0  0
 22 24  1  0  0  0
 22 41  1  0  0  0
 23 25  2  0  0  0
 23 42  1  0  0  0
 24 26  2  0  0  0
 24 43  1  0  0  0
 25 26  1  0  0  0
 25 44  1  0  0  0
 26 45  1  0  0  0
M  END
> <s_m_entry_id>
9966

> <s_m_entry_name>
dock_pv.35

> <s_m_Source_Path>
/home/csk/Desktop/cluster/DUD-E-result/met

> <s_m_Source_File>
dock_pv.maegz

> <i_m_Source_File_Index>
35

> <chembl_id>
CHEMBL1969755

> <chembl_pref_name>
None

> <i_lp_mmshare_version>
53161

> <i_f3d_flags>
0

> <r_lp_tautomer_probability>
1

> <s_lp_Force_Field>
OPLS_2005

> <r_lp_Energy>
19.220758

> <b_lp_Chiralities_Consistent>
1

> <s_lp_Variant>
CHEMBL3717_lig3802-2

> <s_i_glide_gridfile>
glide-grid_3lq8

> <i_i_glide_lignum>
4816

> <i_i_glide_rotatable_bonds>
8

> <r_i_docking_score>
-9.12678347024877

> <r_i_glide_ligand_efficiency>
-0.351030133471107

> <r_i_glide_ligand_efficiency_sa>
-1.03992538917128

> <r_i_glide_ligand_efficiency_ln>
-2.14339515056874

> <r_i_glide_gscore>
-9.12678347024877

> <r_i_glide_lipo>
-4.33638992346

> <r_i_glide_hbond>
-0.403951972487368

> <r_i_glide_metal>
0

> <r_i_glide_rewards>
-2.5820628660036

> <r_i_glide_evdw>
-39.7841453552246

> <r_i_glide_ecoul>
-4.97784519195557

> <r_i_glide_erotb>
0.931505338256756

> <r_i_glide_esite>
0

> <r_i_glide_emodel>
-61.3458681993521

> <r_i_glide_energy>
-44.7619905471802

> <r_i_glide_einternal>
9.76810169219971

> <i_i_glide_confnum>
7

> <i_i_glide_posenum>
53

> <r_i_glide_eff_state_penalty>
0

> <s_user_duplicate_titles>
CHEMBL3717_lig3802

> <s_m_subgroup_title>
dock_pv

> <s_m_subgroupid>
dock_pv

> <b_m_subgroup_collapsed>
1

$$$$
CHEMBL3717_lig4116
                    3D
 Schrodinger Suite 2021-1.
 37 39  0  0  1  0            999 V2000
   -2.5874    3.3899   30.6197 S   0  0  0  0  0  0
   -3.2947    7.1566   30.6070 O   0  0  0  0  0  0
    2.7048    2.8154   28.6285 O   0  0  0  0  0  0
    3.9758    2.7573   31.0076 O   0  0  0  0  0  0
   -4.3586    5.1747   30.3826 N   0  0  0  0  0  0
   -5.2786    3.0069   30.2082 N   0  0  0  0  0  0
   -2.0999    5.0858   30.6342 C   0  0  0  0  0  0
   -3.2660    5.9278   30.5608 C   0  0  0  0  0  0
   -4.3144    3.8301   30.3584 C   0  0  0  0  0  0
    0.3885    4.8383   30.7463 C   0  0  0  0  0  0
   -0.8583    5.6107   30.6912 C   0  0  0  0  0  0
    2.1123    3.4738   29.6915 C   0  0  0  0  0  0
    0.8919    4.1688   29.6231 C   0  0  0  0  0  0
    2.7932    3.4353   30.9112 C   0  0  0  0  0  0
    1.1069    4.8069   31.9385 C   0  0  0  0  0  0
   -5.1073    1.6156   30.2725 C   0  0  0  0  0  0
    2.2949    4.0914   32.0281 C   0  0  0  0  0  0
   -4.3921    0.9080   29.2963 C   0  0  0  0  0  0
   -5.6547    0.9045   31.3457 C   0  0  0  0  0  0
   -4.2035   -0.4668   29.4083 C   0  0  0  0  0  0
   -5.4720   -0.4704   31.4618 C   0  0  0  0  0  0
   -4.7440   -1.1519   30.4921 C   0  0  0  0  0  0
    2.0768    2.8483   27.3557 C   0  0  0  0  0  0
    4.2284    2.4142   30.1466 H   0  0  0  0  0  0
   -5.2493    5.6377   30.2632 H   0  0  0  0  0  0
   -0.7266    6.6829   30.6875 H   0  0  0  0  0  0
    0.3308    4.2014   28.7026 H   0  0  0  0  0  0
    0.7407    5.3302   32.8101 H   0  0  0  0  0  0
    2.8293    4.0529   32.9640 H   0  0  0  0  0  0
   -3.9706    1.4295   28.4496 H   0  0  0  0  0  0
   -6.2182    1.4245   32.1051 H   0  0  0  0  0  0
   -3.6516   -1.0028   28.6490 H   0  0  0  0  0  0
   -5.8928   -1.0004   32.3054 H   0  0  0  0  0  0
   -4.5998   -2.2197   30.5753 H   0  0  0  0  0  0
    2.6918    2.3130   26.6313 H   0  0  0  0  0  0
    1.1066    2.3580   27.3945 H   0  0  0  0  0  0
    1.9529    3.8724   27.0022 H   0  0  0  0  0  0
  1  7  1  0  0  0
  1  9  1  0  0  0
  2  8  2  0  0  0
  3 12  1  0  0  0
  3 23  1  0  0  0
  4 14  1  0  0  0
  4 24  1  0  0  0
  5  8  1  0  0  0
  5  9  1  0  0  0
  5 25  1  0  0  0
  6  9  2  3  0  0
  6 16  1  0  0  0
  7  8  1  0  0  0
  7 11  2  3  0  0
 10 11  1  0  0  0
 10 13  1  0  0  0
 10 15  2  0  0  0
 11 26  1  0  0  0
 12 13  2  0  0  0
 12 14  1  0  0  0
 13 27  1  0  0  0
 14 17  2  0  0  0
 15 17  1  0  0  0
 15 28  1  0  0  0
 16 18  2  0  0  0
 16 19  1  0  0  0
 17 29  1  0  0  0
 18 20  1  0  0  0
 18 30  1  0  0  0
 19 21  2  0  0  0
 19 31  1  0  0  0
 20 22  2  0  0  0
 20 32  1  0  0  0
 21 22  1  0  0  0
 21 33  1  0  0  0
 22 34  1  0  0  0
 23 35  1  0  0  0
 23 36  1  0  0  0
 23 37  1  0  0  0
M  END
> <s_m_entry_id>
9967

> <s_m_entry_name>
dock_pv.36

> <s_m_Source_Path>
/home/csk/Desktop/cluster/DUD-E-result/met

> <s_m_Source_File>
dock_pv.maegz

> <i_m_Source_File_Index>
36

> <chembl_id>
CHEMBL1970522

> <chembl_pref_name>
None

> <i_lp_mmshare_version>
53161

> <i_f3d_flags>
0

> <r_lp_tautomer_probability>
1

> <s_lp_Force_Field>
OPLS_2005

> <r_lp_Energy>
21.527029

> <b_lp_Chiralities_Consistent>
1

> <s_lp_Variant>
CHEMBL3717_lig4116-3

> <s_i_glide_gridfile>
glide-grid_3lq8

> <i_i_glide_lignum>
5260

> <i_i_glide_rotatable_bonds>
4

> <r_i_docking_score>
-9.11575988207971

> <r_i_glide_ligand_efficiency>
-0.396337386177379

> <r_i_glide_ligand_efficiency_sa>
-1.12713080425249

> <r_i_glide_ligand_efficiency_ln>
-2.20427339662754

> <r_i_glide_gscore>
-9.11575988207971

> <r_i_glide_lipo>
-3.21198948312632

> <r_i_glide_hbond>
-0.32

> <r_i_glide_metal>
0

> <r_i_glide_rewards>
-2.95211670999636

> <r_i_glide_evdw>
-40.9110374450684

> <r_i_glide_ecoul>
-5.08109760284424

> <r_i_glide_erotb>
0.176062823723035

> <r_i_glide_esite>
0

> <r_i_glide_emodel>
-67.7388705719274

> <r_i_glide_energy>
-45.9921350479126

> <r_i_glide_einternal>
5.51671314239502

> <i_i_glide_confnum>
1

> <i_i_glide_posenum>
30

> <r_i_glide_eff_state_penalty>
0

> <s_user_duplicate_titles>
CHEMBL3717_lig4116

> <s_m_subgroup_title>
dock_pv

> <s_m_subgroupid>
dock_pv

> <b_m_subgroup_collapsed>
1

$$$$
CHEMBL3717_lig3625
                    3D
 Schrodinger Suite 2021-1.
 36 38  0  0  1  0            999 V2000
   -2.4428    3.3270   30.7110 S   0  0  0  0  0  0
   -3.2816    7.0688   30.6080 O   0  0  0  0  0  0
    2.7410    2.7574   28.6304 O   0  0  0  0  0  0
   -4.2612    5.0469   30.3957 N   0  0  0  0  0  0
   -5.0965    2.8476   30.2078 N   0  0  0  0  0  0
   -2.0052    5.0361   30.6954 C   0  0  0  0  0  0
   -4.1694    3.7063   30.3871 C   0  0  0  0  0  0
   -3.1995    5.8406   30.5868 C   0  0  0  0  0  0
   -0.7687    5.5802   30.7475 C   0  0  0  0  0  0
    0.4876    4.8085   30.7923 C   0  0  0  0  0  0
   -4.8643    1.4671   30.2845 C   0  0  0  0  0  0
    0.9685    4.1424   29.6573 C   0  0  0  0  0  0
    2.1771    3.4232   29.6997 C   0  0  0  0  0  0
    1.2321    4.7569   31.9720 C   0  0  0  0  0  0
   -4.1675    0.7797   29.2814 C   0  0  0  0  0  0
   -5.2950    0.7516   31.4075 C   0  0  0  0  0  0
    2.8808    3.3595   30.9018 C   0  0  0  0  0  0
    2.4104    4.0165   32.0347 C   0  0  0  0  0  0
   -3.8929   -0.5800   29.4080 C   0  0  0  0  0  0
   -5.0248   -0.6084   31.5395 C   0  0  0  0  0  0
   -4.3209   -1.2700   30.5378 C   0  0  0  0  0  0
    2.0967    2.8065   27.3664 C   0  0  0  0  0  0
   -5.1598    5.4787   30.2460 H   0  0  0  0  0  0
   -0.6485    6.6555   30.7365 H   0  0  0  0  0  0
    0.3952    4.1913   28.7449 H   0  0  0  0  0  0
    0.8904    5.2734   32.8562 H   0  0  0  0  0  0
   -3.8266    1.3057   28.4018 H   0  0  0  0  0  0
   -5.8407    1.2509   32.1935 H   0  0  0  0  0  0
    3.8031    2.7997   30.9493 H   0  0  0  0  0  0
    2.9623    3.9574   32.9601 H   0  0  0  0  0  0
   -3.3574   -1.0982   28.6257 H   0  0  0  0  0  0
   -5.3623   -1.1441   32.4143 H   0  0  0  0  0  0
   -4.1101   -2.3265   30.6327 H   0  0  0  0  0  0
    2.6817    2.2441   26.6386 H   0  0  0  0  0  0
    1.1060    2.3571   27.4112 H   0  0  0  0  0  0
    2.0084    3.8322   27.0065 H   0  0  0  0  0  0
  1  6  1  0  0  0
  1  7  1  0  0  0
  2  8  2  0  0  0
  3 13  1  0  0  0
  3 22  1  0  0  0
  4  7  1  0  0  0
  4  8  1  0  0  0
  4 23  1  0  0  0
  5  7  2  3  0  0
  5 11  1  0  0  0
  6  8  1  0  0  0
  6  9  2  3  0  0
  9 10  1  0  0  0
  9 24  1  0  0  0
 10 12  2  0  0  0
 10 14  1  0  0  0
 11 15  2  0  0  0
 11 16  1  0  0  0
 12 13  1  0  0  0
 12 25  1  0  0  0
 13 17  2  0  0  0
 14 18  2  0  0  0
 14 26  1  0  0  0
 15 19  1  0  0  0
 15 27  1  0  0  0
 16 20  2  0  0  0
 16 28  1  0  0  0
 17 18  1  0  0  0
 17 29  1  0  0  0
 18 30  1  0  0  0
 19 21  2  0  0  0
 19 31  1  0  0  0
 20 21  1  0  0  0
 20 32  1  0  0  0
 21 33  1  0  0  0
 22 34  1  0  0  0
 22 35  1  0  0  0
 22 36  1  0  0  0
M  END
> <s_m_entry_id>
9968

> <s_m_entry_name>
dock_pv.37

> <s_m_Source_Path>
/home/csk/Desktop/cluster/DUD-E-result/met

> <s_m_Source_File>
dock_pv.maegz

> <i_m_Source_File_Index>
37

> <chembl_id>
CHEMBL1972937

> <chembl_pref_name>
None

> <i_lp_mmshare_version>
53161

> <i_f3d_flags>
0

> <r_lp_tautomer_probability>
1

> <s_lp_Force_Field>
OPLS_2005

> <r_lp_Energy>
22.05978

> <b_lp_Chiralities_Consistent>
1

> <s_lp_Variant>
CHEMBL3717_lig3625-3

> <s_i_glide_gridfile>
glide-grid_3lq8

> <i_i_glide_lignum>
4524

> <i_i_glide_rotatable_bonds>
3

> <r_i_docking_score>
-9.11235588181308

> <r_i_glide_ligand_efficiency>
-0.414197994627867

> <r_i_glide_ligand_efficiency_sa>
-1.16059907043005

> <r_i_glide_ligand_efficiency_ln>
-2.22739215877185

> <r_i_glide_gscore>
-9.11235588181308

> <r_i_glide_lipo>
-3.2768257900338

> <r_i_glide_hbond>
-0.32

> <r_i_glide_metal>
0

> <r_i_glide_rewards>
-3.10438266142658

> <r_i_glide_evdw>
-40.5319976806641

> <r_i_glide_ecoul>
-3.84602928161621

> <r_i_glide_erotb>
0.19235684592293

> <r_i_glide_esite>
0

> <r_i_glide_emodel>
-65.7488988201677

> <r_i_glide_energy>
-44.3780269622803

> <r_i_glide_einternal>
4.26485776901245

> <i_i_glide_confnum>
3

> <i_i_glide_posenum>
102

> <r_i_glide_eff_state_penalty>
0

> <s_user_duplicate_titles>
CHEMBL3717_lig3625

> <s_m_subgroup_title>
dock_pv

> <s_m_subgroupid>
dock_pv

> <b_m_subgroup_collapsed>
1

$$$$
CHEMBL3717_lig3839
                    3D
 Schrodinger Suite 2021-1.
 40 43  0  0  1  0            999 V2000
    1.7221    4.6731   32.4799 O   0  0  0  0  0  0
    3.7768    3.4397   28.4532 O   0  0  0  0  0  0
    1.8941    3.5835   30.4856 N   0  0  0  0  0  0
   -4.9542    2.2922   30.3143 N   0  0  0  0  0  0
   -7.3638    2.5308   30.2915 N   0  0  0  0  0  0
   -3.7342    4.4089   30.6073 C   0  0  0  0  0  0
   -2.4125    5.1144   30.6296 C   0  0  0  0  0  0
   -6.1550    4.4152   30.5791 C   0  0  0  0  0  0
    0.0143    5.0982   30.9169 C   0  0  0  0  0  0
   -6.0762    3.0085   30.3921 C   0  0  0  0  0  0
   -4.9464    5.1170   30.7052 C   0  0  0  0  0  0
    1.2756    4.4159   31.3602 C   0  0  0  0  0  0
   -1.2294    4.4598   31.0113 C   0  0  0  0  0  0
   -3.8119    3.0175   30.4225 C   0  0  0  0  0  0
   -2.3103    6.4467   30.2069 C   0  0  0  0  0  0
   -7.5467    4.7575   30.5463 C   0  0  0  0  0  0
    0.0886    6.3993   30.4181 C   0  0  0  0  0  0
   -1.0751    7.0777   30.0746 C   0  0  0  0  0  0
   -8.2490    3.5784   30.3810 C   0  0  0  0  0  0
    1.4344    3.3284   29.1091 C   0  0  0  0  0  0
    3.2119    3.0136   30.8024 C   0  0  0  0  0  0
    2.4764    3.9522   28.1659 C   0  0  0  0  0  0
    4.2018    3.6563   29.8004 C   0  0  0  0  0  0
   -7.6520    1.5711   30.1576 H   0  0  0  0  0  0
   -4.9691    6.1872   30.8409 H   0  0  0  0  0  0
   -1.2707    3.4464   31.3816 H   0  0  0  0  0  0
   -2.9143    2.4271   30.3199 H   0  0  0  0  0  0
   -3.1879    6.9914   29.9006 H   0  0  0  0  0  0
   -7.9848    5.7432   30.6073 H   0  0  0  0  0  0
    1.0403    6.9029   30.3267 H   0  0  0  0  0  0
   -1.0191    8.0919   29.7103 H   0  0  0  0  0  0
   -9.3131    3.3980   30.3025 H   0  0  0  0  0  0
    0.3903    3.5552   28.8927 H   0  0  0  0  0  0
    1.5057    2.2452   29.0081 H   0  0  0  0  0  0
    3.1050    1.9527   30.5834 H   0  0  0  0  0  0
    3.5056    3.0795   31.8515 H   0  0  0  0  0  0
    2.2186    3.7298   27.1313 H   0  0  0  0  0  0
    2.4635    5.0370   28.2429 H   0  0  0  0  0  0
    5.1958    3.2315   29.9347 H   0  0  0  0  0  0
    4.3063    4.7260   29.9921 H   0  0  0  0  0  0
  1 12  2  0  0  0
  2 22  1  0  0  0
  2 23  1  0  0  0
  3 12  1  0  0  0
  3 20  1  0  0  0
  3 21  1  0  0  0
  4 10  2  0  0  0
  4 14  1  0  0  0
  5 10  1  0  0  0
  5 19  1  0  0  0
  5 24  1  0  0  0
  6  7  1  0  0  0
  6 11  1  0  0  0
  6 14  2  0  0  0
  7 13  2  0  0  0
  7 15  1  0  0  0
  8 10  1  0  0  0
  8 11  2  0  0  0
  8 16  1  0  0  0
  9 12  1  0  0  0
  9 13  1  0  0  0
  9 17  2  0  0  0
 11 25  1  0  0  0
 13 26  1  0  0  0
 14 27  1  0  0  0
 15 18  2  0  0  0
 15 28  1  0  0  0
 16 19  2  0  0  0
 16 29  1  0  0  0
 17 18  1  0  0  0
 17 30  1  0  0  0
 18 31  1  0  0  0
 19 32  1  0  0  0
 20 22  1  0  0  0
 20 33  1  0  0  0
 20 34  1  0  0  0
 21 23  1  0  0  0
 21 35  1  0  0  0
 21 36  1  0  0  0
 22 37  1  0  0  0
 22 38  1  0  0  0
 23 39  1  0  0  0
 23 40  1  0  0  0
M  END
> <s_m_entry_id>
9969

> <s_m_entry_name>
dock_pv.38

> <s_m_Source_Path>
/home/csk/Desktop/cluster/DUD-E-result/met

> <s_m_Source_File>
dock_pv.maegz

> <i_m_Source_File_Index>
38

> <chembl_id>
CHEMBL1997872

> <chembl_pref_name>
None

> <i_lp_mmshare_version>
53161

> <i_f3d_flags>
0

> <r_lp_tautomer_probability>
0.999998432528457

> <s_lp_Force_Field>
OPLS_2005

> <r_lp_Energy>
36.28553

> <b_lp_Chiralities_Consistent>
1

> <s_lp_Variant>
CHEMBL3717_lig3839-1

> <s_i_glide_gridfile>
glide-grid_3lq8

> <i_i_glide_lignum>
4865

> <i_i_glide_rotatable_bonds>
3

> <r_i_docking_score>
-9.10503237497419

> <r_i_glide_ligand_efficiency>
-0.395870972824965

> <r_i_glide_ligand_efficiency_sa>
-1.12580438672198

> <r_i_glide_ligand_efficiency_ln>
-2.20167938813777

> <r_i_glide_gscore>
-9.10503237497419

> <r_i_glide_lipo>
-4.13292812631059

> <r_i_glide_hbond>
0

> <r_i_glide_metal>
0

> <r_i_glide_rewards>
-3.22510710269853

> <r_i_glide_evdw>
-42.1931571960449

> <r_i_glide_ecoul>
-1.49610912799835

> <r_i_glide_erotb>
0.58707708303693

> <r_i_glide_esite>
0

> <r_i_glide_emodel>
-64.1206330575104

> <r_i_glide_energy>
-43.6892663240433

> <r_i_glide_einternal>
4.76213312149048

> <i_i_glide_confnum>
53

> <i_i_glide_posenum>
56

> <r_i_glide_eff_state_penalty>
0

> <s_user_duplicate_titles>
CHEMBL3717_lig3839

> <s_m_subgroup_title>
dock_pv

> <s_m_subgroupid>
dock_pv

> <b_m_subgroup_collapsed>
1

$$$$
CHEMBL3717_lig3518
                    3D
 Schrodinger Suite 2021-1.
 41 45  0  0  1  0            999 V2000
    2.0848    3.3505   31.4080 C   0  0  0  0  0  0
    3.3794    3.2143   30.6080 C   0  0  0  0  0  0
    2.9136    3.1571   29.1486 C   0  0  0  0  0  0
    1.6123    3.9725   29.0904 C   0  0  0  0  0  0
    1.2535    4.3190   30.5513 C   0  0  0  0  0  0
   -0.1934    4.3011   30.7920 N   0  0  0  0  0  0
   -0.8631    3.1570   31.0084 N   0  0  0  0  0  0
   -1.0811    5.3290   30.6080 C   0  0  0  0  0  0
   -0.7930    6.5781   30.2488 N   0  0  0  0  0  0
   -1.8915    7.3587   30.2080 C   0  0  0  0  0  0
   -3.1786    7.0287   30.4915 N   0  0  0  0  0  0
   -3.4264    5.7275   30.7657 C   0  0  0  0  0  0
   -4.7542    5.3802   30.9746 N   0  0  0  0  0  0
   -2.3764    4.7936   30.8194 C   0  0  0  0  0  0
   -2.1565    3.3828   30.9456 C   0  0  0  0  0  0
   -3.1215    2.2387   30.8304 C   0  0  0  0  0  0
   -2.8940    1.0262   31.4967 C   0  0  0  0  0  0
   -3.7330   -0.0648   31.2279 C   0  0  0  0  0  0
   -3.8021   -1.4358   31.6404 C   0  0  0  0  0  0
   -4.8657   -2.0041   30.9630 C   0  0  0  0  0  0
   -5.4684   -1.0487   30.1771 N   0  0  0  0  0  0
   -4.8059    0.1510   30.3211 C   0  0  0  0  0  0
   -5.0996    1.3054   29.7171 N   0  0  0  0  0  0
   -4.2439    2.3244   29.9944 C   0  0  0  0  0  0
    2.2533    3.7194   32.4206 H   0  0  0  0  0  0
    1.6147    2.3674   31.4726 H   0  0  0  0  0  0
    4.0098    4.0919   30.7649 H   0  0  0  0  0  0
    3.9617    2.3418   30.9020 H   0  0  0  0  0  0
    3.6733    3.5362   28.4634 H   0  0  0  0  0  0
    2.7060    2.1252   28.8594 H   0  0  0  0  0  0
    0.8380    3.3649   28.6160 H   0  0  0  0  0  0
    1.7347    4.8763   28.4922 H   0  0  0  0  0  0
    1.5913    5.3352   30.7681 H   0  0  0  0  0  0
   -1.6940    8.3570   29.8816 H   0  0  0  0  0  0
   -4.9921    4.4268   31.2039 H   0  0  0  0  0  0
   -5.4582    6.0966   30.8697 H   0  0  0  0  0  0
   -2.0940    0.9245   32.2080 H   0  0  0  0  0  0
   -3.1451   -1.9598   32.3187 H   0  0  0  0  0  0
   -5.2393   -3.0200   30.9661 H   0  0  0  0  0  0
   -6.2592   -1.2431   29.5808 H   0  0  0  0  0  0
   -4.4589    3.2331   29.4560 H   0  0  0  0  0  0
  1  2  1  0  0  0
  1  5  1  0  0  0
  1 25  1  0  0  0
  1 26  1  0  0  0
  2  3  1  0  0  0
  2 27  1  0  0  0
  2 28  1  0  0  0
  3  4  1  0  0  0
  3 29  1  0  0  0
  3 30  1  0  0  0
  4  5  1  0  0  0
  4 31  1  0  0  0
  4 32  1  0  0  0
  5  6  1  0  0  0
  5 33  1  0  0  0
  6  7  1  0  0  0
  6  8  1  0  0  0
  7 15  2  0  0  0
  8  9  2  0  0  0
  8 14  1  0  0  0
  9 10  1  0  0  0
 10 11  2  0  0  0
 10 34  1  0  0  0
 11 12  1  0  0  0
 12 13  1  0  0  0
 12 14  2  0  0  0
 13 35  1  0  0  0
 13 36  1  0  0  0
 14 15  1  0  0  0
 15 16  1  0  0  0
 16 17  2  0  0  0
 16 24  1  0  0  0
 17 18  1  0  0  0
 17 37  1  0  0  0
 18 19  1  0  0  0
 18 22  2  0  0  0
 19 20  2  0  0  0
 19 38  1  0  0  0
 20 21  1  0  0  0
 20 39  1  0  0  0
 21 22  1  0  0  0
 21 40  1  0  0  0
 22 23  1  0  0  0
 23 24  2  0  0  0
 24 41  1  0  0  0
M  END
> <s_m_entry_id>
9970

> <s_m_entry_name>
dock_pv.39

> <s_m_Source_Path>
/home/csk/Desktop/cluster/DUD-E-result/met

> <s_m_Source_File>
dock_pv.maegz

> <i_m_Source_File_Index>
39

> <chembl_id>
CHEMBL1081312

> <chembl_pref_name>
None

> <i_lp_mmshare_version>
53161

> <i_f3d_flags>
0

> <r_lp_tautomer_probability>
0.999998432528457

> <s_lp_Force_Field>
OPLS_2005

> <r_lp_Energy>
33.72648

> <b_lp_Chiralities_Consistent>
1

> <s_lp_Variant>
CHEMBL3717_lig3518-1

> <s_i_glide_gridfile>
glide-grid_3lq8

> <i_i_glide_lignum>
4348

> <i_i_glide_rotatable_bonds>
2

> <r_i_docking_score>
-9.09407893711829

> <r_i_glide_ligand_efficiency>
-0.378919955713262

> <r_i_glide_ligand_efficiency_sa>
-1.09299428545884

> <r_i_glide_ligand_efficiency_ln>
-2.17663038974319

> <r_i_glide_gscore>
-9.09407893711829

> <r_i_glide_lipo>
-3.2097654528526

> <r_i_glide_hbond>
-0.32

> <r_i_glide_metal>
0

> <r_i_glide_rewards>
-3.58898128251745

> <r_i_glide_evdw>
-38.3076972961426

> <r_i_glide_ecoul>
-2.78680515289307

> <r_i_glide_erotb>
0.365863851434588

> <r_i_glide_esite>
-0.00779041544174857

> <r_i_glide_emodel>
-59.0412134061299

> <r_i_glide_energy>
-41.0945024490356

> <r_i_glide_einternal>
1.21323013305664

> <i_i_glide_confnum>
10

> <i_i_glide_posenum>
95

> <r_i_glide_eff_state_penalty>
0

> <s_user_duplicate_titles>
CHEMBL3717_lig3518

> <s_m_subgroup_title>
dock_pv

> <s_m_subgroupid>
dock_pv

> <b_m_subgroup_collapsed>
1

$$$$
CHEMBL3717_lig2594
                    3D
 Schrodinger Suite 2021-1.
 53 57  0  0  1  0            999 V2000
   -6.2074    2.9704   30.6094 C   0  0  0  0  0  0
   -4.6921    2.6985   30.5914 C   0  0  0  0  0  0
   -4.1865    1.5253   30.5153 N   0  0  0  0  0  0
   -5.1614    0.4987   30.5121 O   0  0  0  0  0  0
   -4.5725   -0.8035   30.6187 C   0  0  1  0  0  0
   -3.7371   -1.2093   29.4089 C   0  0  0  0  0  0
   -2.7717   -2.2645   29.9452 C   0  0  0  0  0  0
   -2.5876   -1.8644   31.3519 N   0  0  0  0  0  0
   -3.6719   -1.0076   31.8467 C   0  0  0  0  0  0
   -1.4572   -2.0433   32.0774 C   0  0  0  0  0  0
   -1.2933   -1.5906   33.2088 O   0  0  0  0  0  0
   -0.4940   -2.7556   31.4922 N   0  0  0  0  0  0
   -3.8240    3.9087   30.6078 C   0  0  0  0  0  0
   -4.3114    5.1945   30.2946 C   0  0  0  0  0  0
   -3.5161    6.2939   30.2081 N   0  0  0  0  0  0
   -2.2145    6.0738   30.3936 C   0  0  0  0  0  0
   -1.1687    6.9256   30.2081 N   0  0  0  0  0  0
   -0.0319    6.2470   30.6067 N   0  0  0  0  0  0
   -0.3672    4.9796   30.9459 N   0  0  0  0  0  0
    0.6501    4.0295   31.3957 C   0  0  0  0  0  0
    1.9382    4.0543   30.5779 C   0  0  0  0  0  0
    3.1637    4.2952   31.2014 C   0  0  0  0  0  0
    4.3523    4.3596   30.4348 C   0  0  0  0  0  0
    5.6327    4.5574   31.0080 C   0  0  0  0  0  0
    6.7628    4.4925   30.2050 C   0  0  0  0  0  0
    6.5908    4.3627   28.8322 C   0  0  0  0  0  0
    5.3788    4.3569   28.2267 N   0  0  0  0  0  0
    4.2765    4.2362   29.0161 C   0  0  0  0  0  0
    3.0294    3.9566   28.4164 C   0  0  0  0  0  0
    1.8870    3.8511   29.1987 C   0  0  0  0  0  0
    0.7094    3.5652   28.6080 F   0  0  0  0  0  0
   -1.7304    4.8053   30.7835 C   0  0  0  0  0  0
   -2.4958    3.7137   30.9110 N   0  0  0  0  0  0
   -6.4674    3.7704   31.3024 H   0  0  0  0  0  0
   -6.5549    3.2567   29.6171 H   0  0  0  0  0  0
   -6.8016    2.1049   30.9003 H   0  0  0  0  0  0
   -5.4367   -1.4658   30.6889 H   0  0  0  0  0  0
   -3.1961   -0.3634   28.9869 H   0  0  0  0  0  0
   -4.3405   -1.6368   28.6082 H   0  0  0  0  0  0
   -1.8557   -2.2375   29.3526 H   0  0  0  0  0  0
   -3.2679   -3.2365   29.8979 H   0  0  0  0  0  0
   -4.2260   -1.3369   32.7256 H   0  0  0  0  0  0
   -3.1910   -0.0565   32.0756 H   0  0  0  0  0  0
    0.3995   -2.8422   31.9735 H   0  0  0  0  0  0
   -0.6678   -3.2096   30.6085 H   0  0  0  0  0  0
   -5.3477    5.3826   30.0552 H   0  0  0  0  0  0
    0.8600    4.2528   32.4417 H   0  0  0  0  0  0
    0.2237    3.0264   31.3637 H   0  0  0  0  0  0
    3.2217    4.4288   32.2718 H   0  0  0  0  0  0
    5.7286    4.7552   32.0656 H   0  0  0  0  0  0
    7.7532    4.5959   30.6240 H   0  0  0  0  0  0
    7.4490    4.3541   28.1763 H   0  0  0  0  0  0
    2.9626    3.8193   27.3494 H   0  0  0  0  0  0
  1  2  1  0  0  0
  1 34  1  0  0  0
  1 35  1  0  0  0
  1 36  1  0  0  0
  2  3  2  0  0  0
  2 13  1  0  0  0
  3  4  1  0  0  0
  4  5  1  0  0  0
  5  6  1  0  0  0
  5  9  1  0  0  0
  5 37  1  0  0  0
  6  7  1  0  0  0
  6 38  1  0  0  0
  6 39  1  0  0  0
  7  8  1  0  0  0
  7 40  1  0  0  0
  7 41  1  0  0  0
  8  9  1  0  0  0
  8 10  1  0  0  0
  9 42  1  0  0  0
  9 43  1  0  0  0
 10 11  2  0  0  0
 10 12  1  0  0  0
 12 44  1  0  0  0
 12 45  1  0  0  0
 13 14  2  0  0  0
 13 33  1  0  0  0
 14 15  1  0  0  0
 14 46  1  0  0  0
 15 16  2  0  0  0
 16 17  1  0  0  0
 16 32  1  0  0  0
 17 18  2  0  0  0
 18 19  1  0  0  0
 19 20  1  0  0  0
 19 32  1  0  0  0
 20 21  1  0  0  0
 20 47  1  0  0  0
 20 48  1  0  0  0
 21 22  2  0  0  0
 21 30  1  0  0  0
 22 23  1  0  0  0
 22 49  1  0  0  0
 23 24  2  0  0  0
 23 28  1  0  0  0
 24 25  1  0  0  0
 24 50  1  0  0  0
 25 26  2  0  0  0
 25 51  1  0  0  0
 26 27  1  0  0  0
 26 52  1  0  0  0
 27 28  2  0  0  0
 28 29  1  0  0  0
 29 30  2  0  0  0
 29 53  1  0  0  0
 30 31  1  0  0  0
 32 33  2  0  0  0
M  END
> <s_m_entry_id>
9971

> <s_m_entry_name>
dock_pv.40

> <s_m_Source_Path>
/home/csk/Desktop/cluster/DUD-E-result/met

> <s_m_Source_File>
dock_pv.maegz

> <i_m_Source_File_Index>
40

> <chembl_id>
CHEMBL3648240

> <chembl_pref_name>
None

> <i_lp_mmshare_version>
53161

> <i_f3d_flags>
0

> <r_lp_tautomer_probability>
1

> <s_lp_Force_Field>
OPLS_2005

> <r_lp_Energy>
52.850575

> <b_lp_Chiralities_Consistent>
1

> <s_lp_Variant>
CHEMBL3717_lig2594-1

> <s_i_glide_gridfile>
glide-grid_3lq8

> <i_i_glide_lignum>
2944

> <i_i_glide_rotatable_bonds>
6

> <r_i_docking_score>
-9.09229200561013

> <r_i_glide_ligand_efficiency>
-0.275524000170004

> <r_i_glide_ligand_efficiency_sa>
-0.883752688253047

> <r_i_glide_ligand_efficiency_ln>
-2.02207866467921

> <r_i_glide_gscore>
-9.09229200561013

> <r_i_glide_lipo>
-2.71875387066209

> <r_i_glide_hbond>
-0.353537734226843

> <r_i_glide_metal>
0

> <r_i_glide_rewards>
-3.26473465357422

> <r_i_glide_evdw>
-48.5080108642578

> <r_i_glide_ecoul>
-5.50622987747192

> <r_i_glide_erotb>
0.496069277686702

> <r_i_glide_esite>
0

> <r_i_glide_emodel>
-70.3530472947861

> <r_i_glide_energy>
-54.0142407417297

> <r_i_glide_einternal>
12.4079971313477

> <i_i_glide_confnum>
19

> <i_i_glide_posenum>
129

> <r_i_glide_eff_state_penalty>
0

> <s_user_duplicate_titles>
CHEMBL3717_lig2594

> <s_m_subgroup_title>
dock_pv

> <s_m_subgroupid>
dock_pv

> <b_m_subgroup_collapsed>
1

$$$$
CHEMBL3717_lig4152
                    3D
 Schrodinger Suite 2021-1.
 36 40  0  0  1  0            999 V2000
   -6.7629    3.5768   30.5800 S   0  0  0  0  0  0
   -3.3506    7.3034   30.6094 O   0  0  0  0  0  0
   -2.6185    5.1168   30.6576 N   0  0  0  0  0  0
   -1.6175    3.1573   30.6123 N   0  0  0  0  0  0
   -4.8959    5.5859   30.6079 N   0  0  0  0  0  0
   -1.3089    5.3863   30.7011 N   0  0  0  0  0  0
    3.4859    3.6579   30.4692 N   0  0  0  0  0  0
   -4.1668    3.2412   30.5954 C   0  0  0  0  0  0
   -2.7841    3.7499   30.6187 C   0  0  0  0  0  0
   -5.1663    4.2228   30.5965 C   0  0  0  0  0  0
   -4.7073    1.9409   30.6078 C   0  0  0  0  0  0
   -6.1141    1.9618   30.5687 C   0  0  0  0  0  0
   -3.6467    6.1133   30.6276 C   0  0  0  0  0  0
   -0.7741    4.1829   30.6463 C   0  0  0  0  0  0
   -3.9084    0.6392   30.6272 C   0  0  0  0  0  0
    0.7023    4.0093   30.5885 C   0  0  0  0  0  0
   -6.9981    0.7245   30.4825 C   0  0  0  0  0  0
   -4.7978   -0.5432   30.1823 C   0  0  0  0  0  0
   -6.1742   -0.5223   30.8717 C   0  0  0  0  0  0
    1.5073    4.3576   31.6772 C   0  0  0  0  0  0
    1.3084    3.5079   29.4313 C   0  0  0  0  0  0
    2.8840    4.1571   31.5793 C   0  0  0  0  0  0
    2.6943    3.3445   29.4125 C   0  0  0  0  0  0
   -5.6438    6.2642   30.5281 H   0  0  0  0  0  0
   -3.5422    0.4591   31.6386 H   0  0  0  0  0  0
   -3.0254    0.6927   29.9961 H   0  0  0  0  0  0
   -7.3630    0.6068   29.4595 H   0  0  0  0  0  0
   -7.8761    0.8098   31.1243 H   0  0  0  0  0  0
   -4.9322   -0.5183   29.0987 H   0  0  0  0  0  0
   -4.2890   -1.4844   30.3932 H   0  0  0  0  0  0
   -6.7315   -1.4243   30.6165 H   0  0  0  0  0  0
   -6.0390   -0.5524   31.9554 H   0  0  0  0  0  0
    1.0777    4.7569   32.5861 H   0  0  0  0  0  0
    0.7116    3.2303   28.5744 H   0  0  0  0  0  0
    3.5327    4.4068   32.4060 H   0  0  0  0  0  0
    3.1924    2.9473   28.5399 H   0  0  0  0  0  0
  1 10  1  0  0  0
  1 12  1  0  0  0
  2 13  2  0  0  0
  3  6  1  0  0  0
  3  9  1  0  0  0
  3 13  1  0  0  0
  4  9  2  0  0  0
  4 14  1  0  0  0
  5 10  1  0  0  0
  5 13  1  0  0  0
  5 24  1  0  0  0
  6 14  2  0  0  0
  7 22  2  0  0  0
  7 23  1  0  0  0
  8  9  1  0  0  0
  8 10  2  0  0  0
  8 11  1  0  0  0
 11 12  2  0  0  0
 11 15  1  0  0  0
 12 17  1  0  0  0
 14 16  1  0  0  0
 15 18  1  0  0  0
 15 25  1  0  0  0
 15 26  1  0  0  0
 16 20  2  0  0  0
 16 21  1  0  0  0
 17 19  1  0  0  0
 17 27  1  0  0  0
 17 28  1  0  0  0
 18 19  1  0  0  0
 18 29  1  0  0  0
 18 30  1  0  0  0
 19 31  1  0  0  0
 19 32  1  0  0  0
 20 22  1  0  0  0
 20 33  1  0  0  0
 21 23  2  0  0  0
 21 34  1  0  0  0
 22 35  1  0  0  0
 23 36  1  0  0  0
M  END
> <s_m_entry_id>
9972

> <s_m_entry_name>
dock_pv.41

> <s_m_Source_Path>
/home/csk/Desktop/cluster/DUD-E-result/met

> <s_m_Source_File>
dock_pv.maegz

> <i_m_Source_File_Index>
41

> <chembl_id>
CHEMBL1966808

> <chembl_pref_name>
None

> <i_lp_mmshare_version>
53161

> <i_f3d_flags>
0

> <r_lp_tautomer_probability>
1

> <s_lp_Force_Field>
OPLS_2005

> <r_lp_Energy>
26.549533

> <b_lp_Chiralities_Consistent>
1

> <s_lp_Variant>
CHEMBL3717_lig4152-1

> <s_i_glide_gridfile>
glide-grid_3lq8

> <i_i_glide_lignum>
5313

> <i_i_glide_rotatable_bonds>
1

> <r_i_docking_score>
-9.07180796266299

> <r_i_glide_ligand_efficiency>
-0.39442643315926

> <r_i_glide_ligand_efficiency_sa>
-1.12169630806989

> <r_i_glide_ligand_efficiency_ln>
-2.19364542397861

> <r_i_glide_gscore>
-9.07180796266299

> <r_i_glide_lipo>
-2.32860885092531

> <r_i_glide_hbond>
-0.332762411514721

> <r_i_glide_metal>
0

> <r_i_glide_rewards>
-3.84740926997641

> <r_i_glide_evdw>
-38.806827545166

> <r_i_glide_ecoul>
-5.3442587852478

> <r_i_glide_erotb>
0.178952764798918

> <r_i_glide_esite>
0

> <r_i_glide_emodel>
-65.7655077002588

> <r_i_glide_energy>
-44.1510863304138

> <r_i_glide_einternal>
4.64073991775513

> <i_i_glide_confnum>
1

> <i_i_glide_posenum>
196

> <r_i_glide_eff_state_penalty>
0

> <s_user_duplicate_titles>
CHEMBL3717_lig4152

> <s_m_subgroup_title>
dock_pv

> <s_m_subgroupid>
dock_pv

> <b_m_subgroup_collapsed>
1

$$$$
CHEMBL3717_lig3772
                    3D
 Schrodinger Suite 2021-1.
 36 39  0  0  1  0            999 V2000
    0.3155    4.5790   30.5875 C   0  0  0  0  0  0
    1.1062    4.7305   31.7280 C   0  0  0  0  0  0
    2.4488    4.3570   31.7372 C   0  0  0  0  0  0
    0.8667    4.0703   29.4083 C   0  0  0  0  0  0
    2.2166    3.7314   29.3805 C   0  0  0  0  0  0
    3.0162    3.8774   30.5529 C   0  0  0  0  0  0
    4.3060    3.1570   29.0515 N   0  0  0  0  0  0
    3.1051    3.2356   28.4031 C   0  0  0  0  0  0
   -1.1001    5.0245   30.6080 C   0  0  0  0  0  0
   -2.0939    4.1477   30.6177 N   0  0  0  0  0  0
   -1.5000    6.3568   30.5891 C   0  0  0  0  0  0
   -3.2291    6.4550   30.6080 S   0  0  0  0  0  0
   -3.2737    4.7225   30.6080 C   0  0  0  0  0  0
   -5.7981    4.6068   30.7567 C   0  0  0  0  0  0
   -6.9213    3.7304   30.2118 C   0  0  0  0  0  0
   -6.8409    2.3308   30.2078 C   0  0  0  0  0  0
   -7.9049    1.5722   29.7267 C   0  0  0  0  0  0
   -9.0551    2.2097   29.2662 C   0  0  0  0  0  0
   -9.1562    3.5984   29.2952 C   0  0  0  0  0  0
   -8.0937    4.3566   29.7784 C   0  0  0  0  0  0
    4.3138    3.5186   30.3428 N   0  0  0  0  0  0
   -4.4638    4.0388   30.5711 N   0  0  0  0  0  0
    0.6786    5.1557   32.6220 H   0  0  0  0  0  0
    3.0514    4.4821   32.6212 H   0  0  0  0  0  0
    0.3021    3.9677   28.5025 H   0  0  0  0  0  0
    3.0094    2.9463   27.3671 H   0  0  0  0  0  0
   -0.8854    7.2453   30.5662 H   0  0  0  0  0  0
   -5.8503    5.5855   30.2768 H   0  0  0  0  0  0
   -5.9691    4.7720   31.8208 H   0  0  0  0  0  0
   -5.9620    1.8208   30.5726 H   0  0  0  0  0  0
   -7.8393    0.4939   29.7123 H   0  0  0  0  0  0
   -9.8791    1.6213   28.8901 H   0  0  0  0  0  0
  -10.0524    4.0889   28.9426 H   0  0  0  0  0  0
   -8.1801    5.4345   29.7944 H   0  0  0  0  0  0
    5.1567    2.8111   28.6119 H   0  0  0  0  0  0
   -4.4461    3.0410   30.7203 H   0  0  0  0  0  0
  1  2  1  0  0  0
  1  9  1  0  0  0
  1  4  2  0  0  0
  2  3  2  0  0  0
  2 23  1  0  0  0
  3  6  1  0  0  0
  3 24  1  0  0  0
  4 25  1  0  0  0
  4  5  1  0  0  0
  5  6  1  0  0  0
  5  8  2  0  0  0
  6 21  2  0  0  0
  7 35  1  0  0  0
  7 21  1  0  0  0
  7  8  1  0  0  0
  8 26  1  0  0  0
  9 10  1  0  0  0
  9 11  2  0  0  0
 10 13  2  0  0  0
 11 12  1  0  0  0
 11 27  1  0  0  0
 12 13  1  0  0  0
 13 22  1  0  0  0
 14 15  1  0  0  0
 14 22  1  0  0  0
 14 28  1  0  0  0
 14 29  1  0  0  0
 15 16  2  0  0  0
 15 20  1  0  0  0
 16 17  1  0  0  0
 16 30  1  0  0  0
 17 18  2  0  0  0
 17 31  1  0  0  0
 18 19  1  0  0  0
 18 32  1  0  0  0
 19 20  2  0  0  0
 19 33  1  0  0  0
 20 34  1  0  0  0
 22 36  1  0  0  0
M  END
> <s_m_entry_id>
9973

> <s_m_entry_name>
dock_pv.42

> <s_m_Source_Path>
/home/csk/Desktop/cluster/DUD-E-result/met

> <s_m_Source_File>
dock_pv.maegz

> <i_m_Source_File_Index>
42

> <chembl_id>
CHEMBL1682546

> <chembl_pref_name>
None

> <i_lp_mmshare_version>
53161

> <i_f3d_flags>
0

> <r_lp_tautomer_probability>
0.0196078431372549

> <s_lp_Force_Field>
OPLS_2005

> <r_lp_Energy>
21.464582

> <b_lp_Chiralities_Consistent>
1

> <s_lp_Variant>
CHEMBL3717_lig3772-2

> <s_i_glide_gridfile>
glide-grid_3lq8

> <i_i_glide_lignum>
4776

> <i_i_glide_rotatable_bonds>
4

> <r_i_docking_score>
-9.06035819369201

> <r_i_glide_ligand_efficiency>
-0.411834463349637

> <r_i_glide_ligand_efficiency_sa>
-1.15397636283604

> <r_i_glide_ligand_efficiency_ln>
-2.21468202713331

> <r_i_glide_gscore>
-9.06035819369201

> <r_i_glide_lipo>
-3.99295484746544

> <r_i_glide_hbond>
-0.32

> <r_i_glide_metal>
0

> <r_i_glide_rewards>
-2.93676307575758

> <r_i_glide_evdw>
-36.8404312133789

> <r_i_glide_ecoul>
-5.0379900932312

> <r_i_glide_erotb>
0.787079804184623

> <r_i_glide_esite>
0

> <r_i_glide_emodel>
-59.1642230850732

> <r_i_glide_energy>
-41.8784213066101

> <r_i_glide_einternal>
8.51212501525879

> <i_i_glide_confnum>
9

> <i_i_glide_posenum>
223

> <r_i_glide_eff_state_penalty>
0

> <s_user_duplicate_titles>
CHEMBL3717_lig3772

> <s_m_subgroup_title>
dock_pv

> <s_m_subgroupid>
dock_pv

> <b_m_subgroup_collapsed>
1

$$$$
CHEMBL3717_lig3651
                    3D
 Schrodinger Suite 2021-1.
 40 43  0  0  1  0            999 V2000
   -3.2283    5.1211   30.6081 N   0  0  0  0  0  0
   -2.2291    4.2739   30.9619 C   0  0  0  0  0  0
   -2.3236    2.9210   31.0079 N   0  0  0  0  0  0
   -3.5140    2.3736   30.6506 C   0  0  0  0  0  0
   -4.5796    3.1615   30.2079 C   0  0  0  0  0  0
   -4.3946    4.5469   30.2142 C   0  0  0  0  0  0
   -3.6924    0.9888   30.7533 N   0  0  0  0  0  0
   -2.9234   -0.0157   31.3761 C   0  0  0  0  0  0
   -2.7446   -1.2877   30.7745 C   0  0  0  0  0  0
   -1.9151   -2.2218   31.4163 C   0  0  0  0  0  0
   -1.2945   -1.9307   32.6272 C   0  0  0  0  0  0
   -1.4815   -0.6892   33.2207 C   0  0  0  0  0  0
   -2.3041    0.2517   32.6080 C   0  0  0  0  0  0
   -3.2938   -1.6555   29.4088 C   0  0  0  0  0  0
   -4.3922   -0.9570   29.0081 O   0  0  0  0  0  0
   -2.7646   -2.5102   28.7015 O   0  0  0  0  0  0
   -1.0151    4.8602   31.3196 N   0  0  0  0  0  0
    0.2839    4.4281   31.0141 C   0  0  0  0  0  0
    0.5625    3.8032   29.7954 C   0  0  0  0  0  0
    2.6356    4.3577   31.6424 C   0  0  0  0  0  0
    1.3124    4.7001   31.9159 C   0  0  0  0  0  0
    2.9408    3.8479   30.3770 C   0  0  0  0  0  0
    1.8968    3.5717   29.4429 C   0  0  0  0  0  0
    2.5773    3.0965   28.2971 C   0  0  0  0  0  0
    3.9056    3.1570   28.6313 N   0  0  0  0  0  0
    4.1795    3.5719   29.8771 N   0  0  0  0  0  0
   -5.5231    2.7252   29.9166 H   0  0  0  0  0  0
   -5.1866    5.2182   29.9098 H   0  0  0  0  0  0
   -4.4056    0.6128   30.1431 H   0  0  0  0  0  0
   -1.7335   -3.1907   30.9699 H   0  0  0  0  0  0
   -0.6519   -2.6638   33.0941 H   0  0  0  0  0  0
   -0.9947   -0.4551   34.1562 H   0  0  0  0  0  0
   -2.4317    1.2097   33.0829 H   0  0  0  0  0  0
   -4.5488   -1.0985   28.0475 H   0  0  0  0  0  0
   -1.0883    5.8383   31.5498 H   0  0  0  0  0  0
   -0.2240    3.5574   29.0995 H   0  0  0  0  0  0
    3.4166    4.5655   32.3580 H   0  0  0  0  0  0
    1.0873    5.1733   32.8597 H   0  0  0  0  0  0
    2.2615    2.7433   27.3259 H   0  0  0  0  0  0
    4.6532    2.8520   28.0224 H   0  0  0  0  0  0
  1  2  2  0  0  0
  1  6  1  0  0  0
  2  3  1  0  0  0
  2 17  1  0  0  0
  3  4  2  0  0  0
  4  7  1  0  0  0
  4  5  1  0  0  0
  5  6  2  0  0  0
  5 27  1  0  0  0
  6 28  1  0  0  0
  7  8  1  0  0  0
  7 29  1  0  0  0
  8 13  1  0  0  0
  8  9  2  0  0  0
  9 14  1  0  0  0
  9 10  1  0  0  0
 10 11  2  0  0  0
 10 30  1  0  0  0
 11 12  1  0  0  0
 11 31  1  0  0  0
 12 13  2  0  0  0
 12 32  1  0  0  0
 13 33  1  0  0  0
 14 15  1  0  0  0
 14 16  2  0  0  0
 15 34  1  0  0  0
 17 18  1  0  0  0
 17 35  1  0  0  0
 18 19  2  0  0  0
 18 21  1  0  0  0
 19 36  1  0  0  0
 19 23  1  0  0  0
 20 22  1  0  0  0
 20 37  1  0  0  0
 20 21  2  0  0  0
 21 38  1  0  0  0
 22 26  2  0  0  0
 22 23  1  0  0  0
 23 24  2  0  0  0
 24 39  1  0  0  0
 24 25  1  0  0  0
 25 40  1  0  0  0
 25 26  1  0  0  0
M  END
> <s_m_entry_id>
9974

> <s_m_entry_name>
dock_pv.43

> <s_m_Source_Path>
/home/csk/Desktop/cluster/DUD-E-result/met

> <s_m_Source_File>
dock_pv.maegz

> <i_m_Source_File_Index>
43

> <chembl_id>
CHEMBL396523

> <chembl_pref_name>
None

> <i_lp_mmshare_version>
53161

> <i_f3d_flags>
0

> <r_lp_tautomer_probability>
0.01682948890584

> <s_lp_Force_Field>
OPLS_2005

> <r_lp_Energy>
31.740416

> <b_lp_Chiralities_Consistent>
1

> <s_lp_Variant>
CHEMBL3717_lig3651-2

> <s_i_glide_gridfile>
glide-grid_3lq8

> <i_i_glide_lignum>
4573

> <i_i_glide_rotatable_bonds>
6

> <r_i_docking_score>
-9.04889597404581

> <r_i_glide_ligand_efficiency>
-0.348034460540224

> <r_i_glide_ligand_efficiency_sa>
-1.03105071990094

> <r_i_glide_ligand_efficiency_ln>
-2.12510352765519

> <r_i_glide_gscore>
-9.04889597404581

> <r_i_glide_lipo>
-3.84964561562304

> <r_i_glide_hbond>
-0.26116121805558

> <r_i_glide_metal>
0

> <r_i_glide_rewards>
-2.62048843679586

> <r_i_glide_evdw>
-42.3268966674805

> <r_i_glide_ecoul>
-6.48448991775513

> <r_i_glide_erotb>
0.792431043310425

> <r_i_glide_esite>
-0.0210134258444684

> <r_i_glide_emodel>
-67.1578737727221

> <r_i_glide_energy>
-48.8113865852356

> <r_i_glide_einternal>
19.0848865509033

> <i_i_glide_confnum>
15

> <i_i_glide_posenum>
279

> <r_i_glide_eff_state_penalty>
0

> <s_user_duplicate_titles>
CHEMBL3717_lig3651,CHEMBL3717_lig3651

> <s_m_subgroup_title>
dock_pv

> <s_m_subgroupid>
dock_pv

> <b_m_subgroup_collapsed>
1

$$$$
CHEMBL3717_lig1444
                    3D
 Schrodinger Suite 2021-1.
 47 51  0  0  1  0            999 V2000
   -5.1876    5.0450   31.0082 C   0  0  0  0  0  0
   -8.3352    0.5994   29.2380 N   0  0  0  0  0  0
   -7.7753   -0.6291   29.1079 C   0  0  0  0  0  0
   -6.4370   -0.8968   29.3816 C   0  0  0  0  0  0
   -5.6139    0.1453   29.8012 C   0  0  0  0  0  0
   -6.1580    1.4459   29.9459 C   0  0  0  0  0  0
   -5.3845    2.5539   30.3658 C   0  0  0  0  0  0
   -5.9616    3.8240   30.4931 C   0  0  0  0  0  0
   -7.3198    3.9867   30.2058 C   0  0  0  0  0  0
   -8.1091    2.9154   29.7948 C   0  0  0  0  0  0
   -7.5436    1.6281   29.6545 C   0  0  0  0  0  0
   -2.8631    4.2559   31.0079 N   0  0  0  0  0  0
   -3.7618    5.2054   30.6878 N   0  0  0  0  0  0
   -3.1929    6.3575   30.2123 C   0  0  0  0  0  0
   -1.7898    6.1520   30.2081 C   0  0  0  0  0  0
   -0.6456    6.8828   29.8481 C   0  0  0  0  0  0
    0.6026    6.2651   29.9627 C   0  0  0  0  0  0
    0.7344    4.9471   30.4135 C   0  0  0  0  0  0
   -0.3989    4.2211   30.7967 C   0  0  0  0  0  0
   -1.6596    4.8205   30.6974 C   0  0  0  0  0  0
    2.0743    4.2875   30.4828 C   0  0  0  0  0  0
    4.2118    3.7391   30.2830 N   0  0  0  0  0  0
    3.2886    4.6916   29.9387 C   0  0  0  0  0  0
    2.4099    3.0831   31.1241 C   0  0  0  0  0  0
    3.6727    2.7570   31.0081 N   0  0  0  0  0  0
    5.6480    3.7265   30.0323 C   0  0  0  0  0  0
    6.3679    4.7620   30.9147 C   0  0  0  0  0  0
    7.7442    4.4539   31.0077 O   0  0  0  0  0  0
   -5.2943    5.0984   32.0912 H   0  0  0  0  0  0
   -5.6947    5.9387   30.6353 H   0  0  0  0  0  0
   -8.4294   -1.4191   28.7698 H   0  0  0  0  0  0
   -6.0372   -1.8926   29.2523 H   0  0  0  0  0  0
   -4.5679   -0.0291   30.0075 H   0  0  0  0  0  0
   -4.3494    2.3729   30.6022 H   0  0  0  0  0  0
   -7.7823    4.9589   30.3036 H   0  0  0  0  0  0
   -9.1565    3.0622   29.5747 H   0  0  0  0  0  0
   -3.8474    7.1577   29.9347 H   0  0  0  0  0  0
   -0.7240    7.8976   29.4841 H   0  0  0  0  0  0
    1.4868    6.8234   29.6918 H   0  0  0  0  0  0
   -0.3182    3.2027   31.1434 H   0  0  0  0  0  0
    3.5760    5.5566   29.3629 H   0  0  0  0  0  0
    1.7339    2.4455   31.6725 H   0  0  0  0  0  0
    5.7896    3.9585   28.9763 H   0  0  0  0  0  0
    6.0289    2.7181   30.2080 H   0  0  0  0  0  0
    5.9646    4.7522   31.9271 H   0  0  0  0  0  0
    6.1934    5.7755   30.5543 H   0  0  0  0  0  0
    8.1834    4.7552   30.2055 H   0  0  0  0  0  0
  1  8  1  0  0  0
  1 13  1  0  0  0
  1 29  1  0  0  0
  1 30  1  0  0  0
  2  3  2  0  0  0
  2 11  1  0  0  0
  3  4  1  0  0  0
  3 31  1  0  0  0
  4  5  2  0  0  0
  4 32  1  0  0  0
  5  6  1  0  0  0
  5 33  1  0  0  0
  6  7  2  0  0  0
  6 11  1  0  0  0
  7  8  1  0  0  0
  7 34  1  0  0  0
  8  9  2  0  0  0
  9 10  1  0  0  0
  9 35  1  0  0  0
 10 11  2  0  0  0
 10 36  1  0  0  0
 12 13  1  0  0  0
 12 20  2  0  0  0
 13 14  1  0  0  0
 14 15  2  0  0  0
 14 37  1  0  0  0
 15 16  1  0  0  0
 15 20  1  0  0  0
 16 17  2  0  0  0
 16 38  1  0  0  0
 17 18  1  0  0  0
 17 39  1  0  0  0
 18 19  2  0  0  0
 18 21  1  0  0  0
 19 20  1  0  0  0
 19 40  1  0  0  0
 21 23  2  0  0  0
 21 24  1  0  0  0
 22 23  1  0  0  0
 22 25  1  0  0  0
 22 26  1  0  0  0
 23 41  1  0  0  0
 24 25  2  0  0  0
 24 42  1  0  0  0
 26 27  1  0  0  0
 26 43  1  0  0  0
 26 44  1  0  0  0
 27 28  1  0  0  0
 27 45  1  0  0  0
 27 46  1  0  0  0
 28 47  1  0  0  0
M  END
> <s_m_entry_id>
9975

> <s_m_entry_name>
dock_pv.44

> <s_m_Source_Path>
/home/csk/Desktop/cluster/DUD-E-result/met

> <s_m_Source_File>
dock_pv.maegz

> <i_m_Source_File_Index>
44

> <chembl_id>
CHEMBL2402847

> <chembl_pref_name>
None

> <i_lp_mmshare_version>
53161

> <i_f3d_flags>
0

> <r_lp_tautomer_probability>
1

> <s_lp_Force_Field>
OPLS_2005

> <r_lp_Energy>
32.90879

> <b_lp_Chiralities_Consistent>
1

> <s_lp_Variant>
CHEMBL3717_lig1444-1

> <s_i_glide_gridfile>
glide-grid_3lq8

> <i_i_glide_lignum>
1656

> <i_i_glide_rotatable_bonds>
6

> <r_i_docking_score>
-9.01447617854446

> <r_i_glide_ligand_efficiency>
-0.321945577805159

> <r_i_glide_ligand_efficiency_sa>
-0.977616390021412

> <r_i_glide_ligand_efficiency_ln>
-2.08080577852958

> <r_i_glide_gscore>
-9.01447617854446

> <r_i_glide_lipo>
-4.48541506849192

> <r_i_glide_hbond>
0

> <r_i_glide_metal>
0

> <r_i_glide_rewards>
-2.47309571382726

> <r_i_glide_evdw>
-46.1883773803711

> <r_i_glide_ecoul>
-3.01969957351685

> <r_i_glide_erotb>
0.706408408820811

> <r_i_glide_esite>
0

> <r_i_glide_emodel>
-71.7488877569152

> <r_i_glide_energy>
-49.2080769538879

> <r_i_glide_einternal>
9.56027030944824

> <i_i_glide_confnum>
5

> <i_i_glide_posenum>
26

> <r_i_glide_eff_state_penalty>
0

> <s_user_duplicate_titles>
CHEMBL3717_lig1444

> <s_m_subgroup_title>
dock_pv

> <s_m_subgroupid>
dock_pv

> <b_m_subgroup_collapsed>
1

$$$$
CHEMBL3717_lig399
                    3D
 Schrodinger Suite 2021-1.
 40 41  0  0  1  0            999 V2000
   -4.0940    1.4026   30.4410 C   0  0  0  0  0  0
   -5.3994    1.8563   30.2262 C   0  0  0  0  0  0
   -5.6708    3.2268   30.2080 C   0  0  0  0  0  0
   -3.0554    2.3180   30.6367 C   0  0  0  0  0  0
   -3.3260    3.6854   30.6080 C   0  0  0  0  0  0
   -4.6164    4.1197   30.3951 C   0  0  0  0  0  0
   -4.6167    5.4923   30.3913 N   0  0  0  0  0  0
   -3.3951    6.0063   30.5942 C   0  0  0  0  0  0
   -2.4942    4.8790   30.7384 C   0  0  0  0  0  0
   -3.1323    7.2045   30.6080 O   0  0  0  0  0  0
   -1.1714    5.0693   30.9307 C   0  0  0  0  0  0
   -0.1749    4.1287   31.0501 N   0  0  0  0  0  0
    1.1529    4.4078   31.5833 C   0  0  0  0  0  0
    2.2312    4.6845   30.5191 C   0  0  0  0  0  0
    2.8061    3.4205   29.8485 C   0  0  0  0  0  0
    3.8625    3.7062   28.7517 C   0  0  0  0  0  0
    5.0770    4.5915   29.1450 C   0  0  2  0  0  0
    6.0207    4.7570   28.0252 N   0  0  0  0  0  0
    5.8775    4.0803   30.3677 C   0  0  0  0  0  0
    6.3939    2.8275   30.2080 O   0  0  0  0  0  0
    6.0229    4.7570   31.3797 O   0  0  0  0  0  0
   -3.8888    0.3419   30.4562 H   0  0  0  0  0  0
   -6.1985    1.1449   30.0765 H   0  0  0  0  0  0
   -6.6794    3.5745   30.0391 H   0  0  0  0  0  0
   -2.0572    1.9570   30.8071 H   0  0  0  0  0  0
   -5.4176    6.0675   30.1709 H   0  0  0  0  0  0
   -0.7689    6.0722   31.0080 H   0  0  0  0  0  0
   -0.3366    3.1704   30.7751 H   0  0  0  0  0  0
    1.4533    3.5570   32.1957 H   0  0  0  0  0  0
    1.1017    5.2438   32.2835 H   0  0  0  0  0  0
    3.0470    5.2150   31.0080 H   0  0  0  0  0  0
    1.8418    5.3696   29.7639 H   0  0  0  0  0  0
    1.9906    2.8461   29.4047 H   0  0  0  0  0  0
    3.2386    2.7679   30.6085 H   0  0  0  0  0  0
    3.3512    4.1857   27.9152 H   0  0  0  0  0  0
    4.2135    2.7570   28.3496 H   0  0  0  0  0  0
    4.6930    5.5769   29.4090 H   0  0  0  0  0  0
    6.7727    5.3943   28.2655 H   0  0  0  0  0  0
    6.4563    3.8727   27.7931 H   0  0  0  0  0  0
    6.3060    2.4657   29.3052 H   0  0  0  0  0  0
  1  4  1  0  0  0
  1  2  2  0  0  0
  1 22  1  0  0  0
  2  3  1  0  0  0
  2 23  1  0  0  0
  3  6  2  0  0  0
  3 24  1  0  0  0
  4  5  2  0  0  0
  4 25  1  0  0  0
  5  6  1  0  0  0
  5  9  1  0  0  0
  6  7  1  0  0  0
  7  8  1  0  0  0
  7 26  1  0  0  0
  8  9  1  0  0  0
  8 10  2  0  0  0
  9 11  2  0  0  0
 11 12  1  0  0  0
 11 27  1  0  0  0
 12 13  1  0  0  0
 12 28  1  0  0  0
 13 14  1  0  0  0
 13 29  1  0  0  0
 13 30  1  0  0  0
 14 15  1  0  0  0
 14 31  1  0  0  0
 14 32  1  0  0  0
 15 16  1  0  0  0
 15 33  1  0  0  0
 15 34  1  0  0  0
 16 17  1  0  0  0
 16 35  1  0  0  0
 16 36  1  0  0  0
 17 18  1  0  0  0
 17 19  1  0  0  0
 17 37  1  0  0  0
 18 38  1  0  0  0
 18 39  1  0  0  0
 19 20  1  0  0  0
 19 21  2  0  0  0
 20 40  1  0  0  0
M  END
> <s_m_entry_id>
9976

> <s_m_entry_name>
dock_pv.45

> <s_m_Source_Path>
/home/csk/Desktop/cluster/DUD-E-result/met

> <s_m_Source_File>
dock_pv.maegz

> <i_m_Source_File_Index>
45

> <chembl_id>
CHEMBL458440

> <chembl_pref_name>
None

> <i_lp_mmshare_version>
53161

> <i_f3d_flags>
0

> <r_lp_tautomer_probability>
0.499999999999422

> <s_lp_Force_Field>
OPLS_2005

> <r_lp_Energy>
26.365327

> <b_lp_Chiralities_Consistent>
1

> <s_lp_Variant>
CHEMBL3717_lig399-2

> <s_i_glide_gridfile>
glide-grid_3lq8

> <i_i_glide_lignum>
420

> <i_i_glide_rotatable_bonds>
8

> <r_i_docking_score>
-8.97594814289824

> <r_i_glide_ligand_efficiency>
-0.427426102042773

> <r_i_glide_ligand_efficiency_sa>
-1.17923620534541

> <r_i_glide_ligand_efficiency_ln>
-2.21928504072056

> <r_i_glide_gscore>
-8.97594814289824

> <r_i_glide_lipo>
-3.03577491146189

> <r_i_glide_hbond>
-0.619349538790715

> <r_i_glide_metal>
0

> <r_i_glide_rewards>
-3.15554820768345

> <r_i_glide_evdw>
-30.7556686401367

> <r_i_glide_ecoul>
-18.3931617736816

> <r_i_glide_erotb>
2.1314822130969

> <r_i_glide_esite>
0

> <r_i_glide_emodel>
-71.2248791518297

> <r_i_glide_energy>
-49.1488304138184

> <r_i_glide_einternal>
6.11284780502319

> <i_i_glide_confnum>
7

> <i_i_glide_posenum>
29

> <r_i_glide_eff_state_penalty>
0

> <s_user_duplicate_titles>
CHEMBL3717_lig399

> <s_m_subgroup_title>
dock_pv

> <s_m_subgroupid>
dock_pv

> <b_m_subgroup_collapsed>
1

$$$$
CHEMBL3717_lig3494
                    3D
 Schrodinger Suite 2021-1.
 38 41  0  0  1  0            999 V2000
   -3.7668    7.1568   30.6085 O   0  0  0  0  0  0
   -7.4421    0.8774   30.1154 O   0  0  0  0  0  0
   -1.5617    7.0174   30.0632 N   0  0  0  0  0  0
   -2.9558    2.7330   30.6864 N   0  0  0  0  0  0
    3.1061    2.3571   31.4081 N   0  0  0  0  0  0
   -2.4299    5.1161   31.0755 C   0  0  2  0  0  0
   -0.9549    4.9654   30.7852 C   0  0  0  0  0  0
   -3.4144    4.0132   30.6081 C   0  0  0  0  0  0
   -0.5166    6.1324   30.1897 C   0  0  0  0  0  0
   -2.7108    6.5402   30.5589 C   0  0  0  0  0  0
   -3.8268    1.6895   30.5668 C   0  0  0  0  0  0
   -5.1958    1.8815   30.2847 C   0  0  0  0  0  0
   -0.0340    3.9503   31.0561 C   0  0  0  0  0  0
   -4.7716    4.2711   30.3757 C   0  0  0  0  0  0
    0.8042    6.3142   29.8119 C   0  0  0  0  0  0
    1.3177    4.1359   30.7327 C   0  0  0  0  0  0
   -5.6451    3.2037   30.2077 C   0  0  0  0  0  0
   -6.0742    0.7192   29.7980 C   0  0  1  0  0  0
    1.7280    5.3062   30.0866 C   0  0  0  0  0  0
   -3.2974    0.2791   30.8312 C   0  0  0  0  0  0
   -5.5601   -0.6586   30.2558 C   0  0  0  0  0  0
   -4.0471   -0.7931   30.0280 C   0  0  0  0  0  0
    2.3123    3.1433   31.1058 C   0  0  0  0  0  0
   -7.5262    0.8997   31.0718 H   0  0  0  0  0  0
   -1.4676    7.9456   29.6789 H   0  0  0  0  0  0
   -2.5587    5.1628   32.1569 H   0  0  0  0  0  0
   -0.3565    3.0461   31.5552 H   0  0  0  0  0  0
   -5.1817    5.2686   30.3454 H   0  0  0  0  0  0
    1.1105    7.2339   29.3386 H   0  0  0  0  0  0
   -6.6797    3.4093   29.9716 H   0  0  0  0  0  0
   -6.0423    0.7407   28.7076 H   0  0  0  0  0  0
    2.7645    5.4594   29.8197 H   0  0  0  0  0  0
   -2.2334    0.2025   30.6365 H   0  0  0  0  0  0
   -3.4232    0.0717   31.8950 H   0  0  0  0  0  0
   -6.1147   -1.4510   29.7511 H   0  0  0  0  0  0
   -5.7905   -0.8058   31.3131 H   0  0  0  0  0  0
   -3.8169   -0.6948   28.9656 H   0  0  0  0  0  0
   -3.7095   -1.7876   30.3255 H   0  0  0  0  0  0
  1 10  2  0  0  0
  2 18  1  0  0  0
  2 24  1  0  0  0
  3  9  1  0  0  0
  3 10  1  0  0  0
  3 25  1  0  0  0
  4  8  1  0  0  0
  4 11  2  0  0  0
  5 23  3  0  0  0
  6  7  1  0  0  0
  6  8  1  0  0  0
  6 10  1  0  0  0
  6 26  1  0  0  0
  7  9  1  0  0  0
  7 13  2  0  0  0
  8 14  2  0  0  0
  9 15  2  0  0  0
 11 12  1  0  0  0
 11 20  1  0  0  0
 12 17  2  0  0  0
 12 18  1  0  0  0
 13 16  1  0  0  0
 13 27  1  0  0  0
 14 17  1  0  0  0
 14 28  1  0  0  0
 15 19  1  0  0  0
 15 29  1  0  0  0
 16 19  2  0  0  0
 16 23  1  0  0  0
 17 30  1  0  0  0
 18 21  1  0  0  0
 18 31  1  0  0  0
 19 32  1  0  0  0
 20 22  1  0  0  0
 20 33  1  0  0  0
 20 34  1  0  0  0
 21 22  1  0  0  0
 21 35  1  0  0  0
 21 36  1  0  0  0
 22 37  1  0  0  0
 22 38  1  0  0  0
M  END
> <s_m_entry_id>
9977

> <s_m_entry_name>
dock_pv.46

> <s_m_Source_Path>
/home/csk/Desktop/cluster/DUD-E-result/met

> <s_m_Source_File>
dock_pv.maegz

> <i_m_Source_File_Index>
46

> <chembl_id>
CHEMBL1985681

> <chembl_pref_name>
None

> <i_lp_mmshare_version>
53161

> <i_f3d_flags>
0

> <r_lp_tautomer_probability>
1

> <s_lp_Force_Field>
OPLS_2005

> <r_lp_Energy>
34.63805

> <b_lp_Chiralities_Consistent>
1

> <s_lp_Variant>
CHEMBL3717_lig3494-3

> <s_i_glide_gridfile>
glide-grid_3lq8

> <i_i_glide_lignum>
4316

> <i_i_glide_rotatable_bonds>
2

> <r_i_docking_score>
-8.96270842504086

> <r_i_glide_ligand_efficiency>
-0.389682975001776

> <r_i_glide_ligand_efficiency_sa>
-1.10820654405962

> <r_i_glide_ligand_efficiency_ln>
-2.16726416652167

> <r_i_glide_gscore>
-8.96270842504086

> <r_i_glide_lipo>
-3.1193702697731

> <r_i_glide_hbond>
-0.32

> <r_i_glide_metal>
0

> <r_i_glide_rewards>
-3.30252357363716

> <r_i_glide_evdw>
-38.2936706542969

> <r_i_glide_ecoul>
-3.36063408851624

> <r_i_glide_erotb>
0.197964064361684

> <r_i_glide_esite>
0

> <r_i_glide_emodel>
-56.8858586341857

> <r_i_glide_energy>
-41.6543047428131

> <r_i_glide_einternal>
4.68409395217896

> <i_i_glide_confnum>
2

> <i_i_glide_posenum>
271

> <r_i_glide_eff_state_penalty>
0

> <s_user_duplicate_titles>
CHEMBL3717_lig3494

> <s_m_subgroup_title>
dock_pv

> <s_m_subgroupid>
dock_pv

> <b_m_subgroup_collapsed>
1

$$$$
CHEMBL3717_lig889
                    3D
 Schrodinger Suite 2021-1.
 28 30  0  0  1  0            999 V2000
   -2.4852    3.1126   30.9717 C   0  0  0  0  0  0
   -2.0287    4.4272   30.8305 C   0  0  0  0  0  0
   -2.8923    5.4600   30.3664 C   0  0  0  0  0  0
   -4.1799    5.2436   30.0849 N   0  0  0  0  0  0
   -4.6192    3.9631   30.2080 C   0  0  0  0  0  0
   -3.8161    2.8932   30.6079 C   0  0  0  0  0  0
   -4.5463    1.1403   30.7095 Br  0  0  0  0  0  0
   -2.2179    6.6403   30.2093 N   0  0  0  0  0  0
   -1.0023    6.3574   30.6055 C   0  0  0  0  0  0
   -0.8209    5.0623   31.0369 N   0  0  0  0  0  0
    0.4149    4.4935   31.5672 C   0  0  0  0  0  0
    1.5278    4.2133   30.5664 C   0  0  0  0  0  0
    1.2901    4.1911   29.1882 C   0  0  0  0  0  0
    2.3348    3.9567   28.3063 C   0  0  0  0  0  0
    3.6135    3.7386   28.8027 C   0  0  0  0  0  0
    3.8603    3.7218   30.1717 C   0  0  0  0  0  0
    2.8128    3.9623   31.0558 C   0  0  0  0  0  0
    4.6310    3.5571   27.9173 O   0  0  0  0  0  0
   -1.8511    2.3100   31.3123 H   0  0  0  0  0  0
   -5.6574    3.7961   29.9594 H   0  0  0  0  0  0
   -0.1681    7.0453   30.6112 H   0  0  0  0  0  0
    0.1751    3.5568   32.0669 H   0  0  0  0  0  0
    0.7798    5.1730   32.3396 H   0  0  0  0  0  0
    0.3063    4.3615   28.7854 H   0  0  0  0  0  0
    2.1544    3.9531   27.2408 H   0  0  0  0  0  0
    4.8572    3.5475   30.5463 H   0  0  0  0  0  0
    3.0045    3.9669   32.1192 H   0  0  0  0  0  0
    5.3446    2.9666   28.2080 H   0  0  0  0  0  0
  1  2  2  0  0  0
  1  6  1  0  0  0
  1 19  1  0  0  0
  2  3  1  0  0  0
  2 10  1  0  0  0
  3  4  2  0  0  0
  3  8  1  0  0  0
  4  5  1  0  0  0
  5  6  2  0  0  0
  5 20  1  0  0  0
  6  7  1  0  0  0
  8  9  2  0  0  0
  9 10  1  0  0  0
  9 21  1  0  0  0
 10 11  1  0  0  0
 11 12  1  0  0  0
 11 22  1  0  0  0
 11 23  1  0  0  0
 12 13  2  0  0  0
 12 17  1  0  0  0
 13 14  1  0  0  0
 13 24  1  0  0  0
 14 15  2  0  0  0
 14 25  1  0  0  0
 15 16  1  0  0  0
 15 18  1  0  0  0
 16 17  2  0  0  0
 16 26  1  0  0  0
 17 27  1  0  0  0
 18 28  1  0  0  0
M  END
> <s_m_entry_id>
9978

> <s_m_entry_name>
dock_pv.47

> <s_m_Source_Path>
/home/csk/Desktop/cluster/DUD-E-result/met

> <s_m_Source_File>
dock_pv.maegz

> <i_m_Source_File_Index>
47

> <chembl_id>
CHEMBL1822381

> <chembl_pref_name>
None

> <i_lp_mmshare_version>
53161

> <i_f3d_flags>
0

> <r_lp_tautomer_probability>
0.999999999997365

> <s_lp_Force_Field>
OPLS_2005

> <r_lp_Energy>
19.560848

> <b_lp_Chiralities_Consistent>
1

> <s_lp_Variant>
CHEMBL3717_lig889-1

> <s_i_glide_gridfile>
glide-grid_3lq8

> <i_i_glide_lignum>
960

> <i_i_glide_rotatable_bonds>
3

> <r_i_docking_score>
-8.96122334587021

> <r_i_glide_ligand_efficiency>
-0.497845741437234

> <r_i_glide_ligand_efficiency_sa>
-1.30472494125813

> <r_i_glide_ligand_efficiency_ln>
-2.30343625327885

> <r_i_glide_gscore>
-8.96122334587021

> <r_i_glide_lipo>
-3.16502598806289

> <r_i_glide_hbond>
-0.380925316030579

> <r_i_glide_metal>
0

> <r_i_glide_rewards>
-3.61233403616337

> <r_i_glide_evdw>
-26.3306713104248

> <r_i_glide_ecoul>
-5.90032577514648

> <r_i_glide_erotb>
0.398644426179841

> <r_i_glide_esite>
0

> <r_i_glide_emodel>
-45.8993283763308

> <r_i_glide_energy>
-32.2309970855713

> <r_i_glide_einternal>
3.86693215370178

> <i_i_glide_confnum>
1

> <i_i_glide_posenum>
186

> <r_i_glide_eff_state_penalty>
0

> <s_user_duplicate_titles>
CHEMBL3717_lig889

> <s_m_subgroup_title>
dock_pv

> <s_m_subgroupid>
dock_pv

> <b_m_subgroup_collapsed>
1

$$$$
CHEMBL3717_lig3804
                    3D
 Schrodinger Suite 2021-1.
 30 32  0  0  1  0            999 V2000
   -2.4909    2.3573   31.3075 O   0  0  0  0  0  0
   -3.2941    6.7711   30.2440 O   0  0  0  0  0  0
   -6.8295    1.2842   29.7414 O   0  0  0  0  0  0
   -9.4115    2.1836   30.0906 O   0  0  0  0  0  0
   -9.6619    4.3569   29.4498 O   0  0  0  0  0  0
   -3.2971    4.4707   30.6976 N   0  0  0  0  0  0
   -2.3304    3.5407   31.0080 C   0  0  0  0  0  0
   -2.7328    5.7073   30.5006 C   0  0  0  0  0  0
   -1.0241    4.2333   30.9327 C   0  0  0  0  0  0
   -1.2669    5.5301   30.6081 C   0  0  0  0  0  0
   -4.7007    4.1723   30.5420 C   0  0  0  0  0  0
   -5.1467    2.8776   30.2081 C   0  0  0  0  0  0
    0.2791    3.7647   31.1073 C   0  0  0  0  0  0
   -0.2226    6.4254   30.3832 C   0  0  0  0  0  0
   -5.6941    5.1570   30.6966 C   0  0  0  0  0  0
   -6.4979    2.5791   30.0439 C   0  0  0  0  0  0
   -7.4684    3.5904   30.1459 C   0  0  0  0  0  0
   -7.0439    4.8788   30.4916 C   0  0  0  0  0  0
    1.3443    4.6454   30.9011 C   0  0  0  0  0  0
    1.0899    5.9686   30.5270 C   0  0  0  0  0  0
   -8.9330    3.3032   29.9155 C   0  0  0  0  0  0
   -7.7864    1.1754   29.7074 H   0  0  0  0  0  0
   -9.1291    5.1181   29.2113 H   0  0  0  0  0  0
   -4.4557    2.0650   30.0489 H   0  0  0  0  0  0
    0.4785    2.7428   31.3835 H   0  0  0  0  0  0
   -0.4112    7.4510   30.0980 H   0  0  0  0  0  0
   -5.4499    6.1694   30.9757 H   0  0  0  0  0  0
   -7.7480    5.6904   30.6081 H   0  0  0  0  0  0
    2.3619    4.3019   31.0176 H   0  0  0  0  0  0
    1.9059    6.6480   30.3506 H   0  0  0  0  0  0
  1  7  2  0  0  0
  2  8  2  0  0  0
  3 16  1  0  0  0
  3 22  1  0  0  0
  4 21  2  0  0  0
  5 21  1  0  0  0
  5 23  1  0  0  0
  6  7  1  0  0  0
  6  8  1  0  0  0
  6 11  1  0  0  0
  7  9  1  0  0  0
  8 10  1  0  0  0
  9 10  1  0  0  0
  9 13  2  0  0  0
 10 14  2  0  0  0
 11 12  1  0  0  0
 11 15  2  0  0  0
 12 16  2  0  0  0
 12 24  1  0  0  0
 13 19  1  0  0  0
 13 25  1  0  0  0
 14 20  1  0  0  0
 14 26  1  0  0  0
 15 18  1  0  0  0
 15 27  1  0  0  0
 16 17  1  0  0  0
 17 18  2  0  0  0
 17 21  1  0  0  0
 18 28  1  0  0  0
 19 20  2  0  0  0
 19 29  1  0  0  0
 20 30  1  0  0  0
M  END
> <s_m_entry_id>
9979

> <s_m_entry_name>
dock_pv.48

> <s_m_Source_Path>
/home/csk/Desktop/cluster/DUD-E-result/met

> <s_m_Source_File>
dock_pv.maegz

> <i_m_Source_File_Index>
48

> <chembl_id>
CHEMBL1972820

> <chembl_pref_name>
None

> <i_lp_mmshare_version>
53161

> <i_f3d_flags>
0

> <r_lp_tautomer_probability>
1

> <s_lp_Force_Field>
OPLS_2005

> <r_lp_Energy>
53.719421

> <b_lp_Chiralities_Consistent>
1

> <s_lp_Variant>
CHEMBL3717_lig3804-1

> <s_i_glide_gridfile>
glide-grid_3lq8

> <i_i_glide_lignum>
4818

> <i_i_glide_rotatable_bonds>
4

> <r_i_docking_score>
-8.95583008438589

> <r_i_glide_ligand_efficiency>
-0.426468099256471

> <r_i_glide_ligand_efficiency_sa>
-1.17659314829993

> <r_i_glide_ligand_efficiency_ln>
-2.21431089140574

> <r_i_glide_gscore>
-8.95583008438589

> <r_i_glide_lipo>
-2.93898860243896

> <r_i_glide_hbond>
-0.32

> <r_i_glide_metal>
0

> <r_i_glide_rewards>
-3.8943508866448

> <r_i_glide_evdw>
-31.8718128204346

> <r_i_glide_ecoul>
-4.4021430015564

> <r_i_glide_erotb>
0.451421495953057

> <r_i_glide_esite>
0

> <r_i_glide_emodel>
-52.7494052461829

> <r_i_glide_energy>
-36.273955821991

> <r_i_glide_einternal>
2.71701455116272

> <i_i_glide_confnum>
2

> <i_i_glide_posenum>
255

> <r_i_glide_eff_state_penalty>
0

> <s_user_duplicate_titles>
CHEMBL3717_lig3804

> <s_m_subgroup_title>
dock_pv

> <s_m_subgroupid>
dock_pv

> <b_m_subgroup_collapsed>
1

$$$$
CHEMBL3717_lig2117
                    3D
 Schrodinger Suite 2021-1.
 40 44  0  0  1  0            999 V2000
   -7.9584    0.3700   28.9322 N   0  0  0  0  0  0
   -9.1503    0.9666   29.1794 C   0  0  0  0  0  0
   -9.2835    2.1518   29.8986 C   0  0  0  0  0  0
   -8.1378    2.7692   30.3963 C   0  0  0  0  0  0
   -6.8709    2.1824   30.1520 C   0  0  0  0  0  0
   -5.6613    2.7562   30.6078 C   0  0  0  0  0  0
   -4.4270    2.1701   30.3084 C   0  0  0  0  0  0
   -4.4049    0.9682   29.5947 C   0  0  0  0  0  0
   -5.5786    0.3635   29.1530 C   0  0  0  0  0  0
   -6.8289    0.9654   29.4086 C   0  0  0  0  0  0
   -3.0981    2.7604   30.7989 C   0  0  0  0  0  0
   -1.8242    6.2091   30.4680 C   0  0  0  0  0  0
   -0.7036    7.0153   30.2080 C   0  0  0  0  0  0
    0.5481    6.4213   30.0686 C   0  0  0  0  0  0
    0.7116    5.0460   30.2111 C   0  0  0  0  0  0
   -0.3862    4.2477   30.5219 C   0  0  0  0  0  0
   -1.6336    4.8211   30.6080 N   0  0  0  0  0  0
   -3.1285    6.5474   30.6063 N   0  0  0  0  0  0
   -3.7466    5.3950   30.7042 C   0  0  0  0  0  0
   -2.8967    4.2776   30.7240 C   0  0  0  0  0  0
    3.0687    4.3570   30.8849 C   0  0  0  0  0  0
    2.0417    4.4572   29.9526 C   0  0  0  0  0  0
    2.4356    3.9568   28.7033 C   0  0  0  0  0  0
    3.7615    3.5567   28.6709 C   0  0  0  0  0  0
    4.5356    3.7298   30.2081 S   0  0  0  0  0  0
   -0.8268    8.3568   30.1560 F   0  0  0  0  0  0
  -10.0218    0.4658   28.7834 H   0  0  0  0  0  0
  -10.2582    2.5856   30.0673 H   0  0  0  0  0  0
   -8.2061    3.6917   30.9543 H   0  0  0  0  0  0
   -5.7273    3.6417   31.2136 H   0  0  0  0  0  0
   -3.4662    0.4782   29.3796 H   0  0  0  0  0  0
   -5.5364   -0.5688   28.6080 H   0  0  0  0  0  0
   -2.8975    2.3982   31.8070 H   0  0  0  0  0  0
   -2.3181    2.2884   30.2081 H   0  0  0  0  0  0
    1.4012    7.0454   29.8432 H   0  0  0  0  0  0
   -0.3192    3.1740   30.6116 H   0  0  0  0  0  0
   -4.8233    5.3992   30.7564 H   0  0  0  0  0  0
    3.0408    4.6624   31.9202 H   0  0  0  0  0  0
    1.7834    3.9233   27.8424 H   0  0  0  0  0  0
    4.3068    3.1543   27.8307 H   0  0  0  0  0  0
  1  2  2  0  0  0
  1 10  1  0  0  0
  2  3  1  0  0  0
  2 27  1  0  0  0
  3  4  2  0  0  0
  3 28  1  0  0  0
  4  5  1  0  0  0
  4 29  1  0  0  0
  5  6  2  0  0  0
  5 10  1  0  0  0
  6  7  1  0  0  0
  6 30  1  0  0  0
  7  8  2  0  0  0
  7 11  1  0  0  0
  8  9  1  0  0  0
  8 31  1  0  0  0
  9 10  2  0  0  0
  9 32  1  0  0  0
 11 20  1  0  0  0
 11 33  1  0  0  0
 11 34  1  0  0  0
 12 13  1  0  0  0
 12 17  1  0  0  0
 12 18  2  0  0  0
 13 14  2  0  0  0
 13 26  1  0  0  0
 14 15  1  0  0  0
 14 35  1  0  0  0
 15 16  2  0  0  0
 15 22  1  0  0  0
 16 17  1  0  0  0
 16 36  1  0  0  0
 17 20  1  0  0  0
 18 19  1  0  0  0
 19 20  2  0  0  0
 19 37  1  0  0  0
 21 22  2  0  0  0
 21 25  1  0  0  0
 21 38  1  0  0  0
 22 23  1  0  0  0
 23 24  2  0  0  0
 23 39  1  0  0  0
 24 25  1  0  0  0
 24 40  1  0  0  0
M  END
> <s_m_entry_id>
9980

> <s_m_entry_name>
dock_pv.49

> <s_m_Source_Path>
/home/csk/Desktop/cluster/DUD-E-result/met

> <s_m_Source_File>
dock_pv.maegz

> <i_m_Source_File_Index>
49

> <chembl_id>
CHEMBL3582282

> <chembl_pref_name>
None

> <i_lp_mmshare_version>
53161

> <i_f3d_flags>
0

> <r_lp_tautomer_probability>
1

> <s_lp_Force_Field>
OPLS_2005

> <r_lp_Energy>
13.961908

> <b_lp_Chiralities_Consistent>
1

> <s_lp_Variant>
CHEMBL3717_lig2117-1

> <s_i_glide_gridfile>
glide-grid_3lq8

> <i_i_glide_lignum>
2415

> <i_i_glide_rotatable_bonds>
3

> <r_i_docking_score>
-8.948373949593

> <r_i_glide_ligand_efficiency>
-0.3441682288305

> <r_i_glide_ligand_efficiency_sa>
-1.01959702367377

> <r_i_glide_ligand_efficiency_ln>
-2.10149626005211

> <r_i_glide_gscore>
-8.948373949593

> <r_i_glide_lipo>
-4.16003346263836

> <r_i_glide_hbond>
-0.0372315387514988

> <r_i_glide_metal>
0

> <r_i_glide_rewards>
-3.01370816648302

> <r_i_glide_evdw>
-41.114875793457

> <r_i_glide_ecoul>
-0.770434081554413

> <r_i_glide_erotb>
0.445117244673296

> <r_i_glide_esite>
-0.011209124487396

> <r_i_glide_emodel>
-59.7477600715689

> <r_i_glide_energy>
-41.8853098750114

> <r_i_glide_einternal>
5.90106296539307

> <i_i_glide_confnum>
27

> <i_i_glide_posenum>
168

> <r_i_glide_eff_state_penalty>
0

> <s_user_duplicate_titles>
CHEMBL3717_lig2117

> <s_m_subgroup_title>
dock_pv

> <s_m_subgroupid>
dock_pv

> <b_m_subgroup_collapsed>
1

$$$$
CHEMBL3717_lig4065
                    3D
 Schrodinger Suite 2021-1.
 38 40  0  0  1  0            999 V2000
    1.5060    4.7570   28.2080 F   0  0  0  0  0  0
    3.9570    3.5522   28.3653 F   0  0  0  0  0  0
   -6.7036    3.7611   30.4306 O   0  0  0  0  0  0
   -3.9295    6.8390   30.6031 N   0  0  0  0  0  0
   -4.6737    5.7265   30.6255 N   0  0  0  0  0  0
   -4.4831    3.2689   30.6074 N   0  0  0  0  0  0
   -2.5997    4.9390   30.6080 C   0  0  0  0  0  0
   -2.6596    6.3578   30.4675 C   0  0  0  0  0  0
   -0.1934    5.0535   30.4672 C   0  0  0  0  0  0
   -3.9643    4.5506   30.6080 C   0  0  0  0  0  0
    1.1248    4.3933   30.5244 C   0  0  0  0  0  0
   -1.3547    4.2955   30.6533 C   0  0  0  0  0  0
   -1.4950    7.0947   30.2079 C   0  0  0  0  0  0
    1.9348    4.2768   29.3904 C   0  0  0  0  0  0
   -0.2755    6.4233   30.2078 C   0  0  0  0  0  0
    3.1776    3.6496   29.4658 C   0  0  0  0  0  0
    1.5736    3.8629   31.7321 C   0  0  0  0  0  0
   -5.7873    2.9396   30.4886 C   0  0  0  0  0  0
    3.6100    3.1156   30.6773 C   0  0  0  0  0  0
    2.7976    3.2086   31.8078 C   0  0  0  0  0  0
   -6.1303    1.4419   30.4388 C   0  0  0  0  0  0
   -4.9937    0.4792   30.0078 C   0  0  0  0  0  0
   -4.4169    0.7569   28.6080 C   0  0  0  0  0  0
   -5.6847    5.7626   30.6363 H   0  0  0  0  0  0
   -3.8175    2.5127   30.6461 H   0  0  0  0  0  0
   -1.2931    3.2253   30.7873 H   0  0  0  0  0  0
   -1.5291    8.1637   30.0534 H   0  0  0  0  0  0
    0.6294    6.9899   30.0387 H   0  0  0  0  0  0
    0.9612    3.9569   32.6137 H   0  0  0  0  0  0
    4.5671    2.6183   30.7297 H   0  0  0  0  0  0
    3.1058    2.7829   32.7503 H   0  0  0  0  0  0
   -6.9782    1.3109   29.7646 H   0  0  0  0  0  0
   -6.4895    1.1571   31.4285 H   0  0  0  0  0  0
   -5.3851   -0.5395   30.0191 H   0  0  0  0  0  0
   -4.1918    0.4818   30.7479 H   0  0  0  0  0  0
   -3.6939   -0.0109   28.3295 H   0  0  0  0  0  0
   -3.9033    1.7135   28.5455 H   0  0  0  0  0  0
   -5.2063    0.7569   27.8563 H   0  0  0  0  0  0
  1 14  1  0  0  0
  2 16  1  0  0  0
  3 18  2  0  0  0
  4  5  1  0  0  0
  4  8  2  0  0  0
  5 24  1  0  0  0
  5 10  1  0  0  0
  6 18  1  0  0  0
  6 25  1  0  0  0
  6 10  1  0  0  0
  7 12  1  0  0  0
  7  8  1  0  0  0
  7 10  2  0  0  0
  8 13  1  0  0  0
  9 15  1  0  0  0
  9 11  1  0  0  0
  9 12  2  0  0  0
 11 14  1  0  0  0
 11 17  2  0  0  0
 12 26  1  0  0  0
 13 27  1  0  0  0
 13 15  2  0  0  0
 14 16  2  0  0  0
 15 28  1  0  0  0
 16 19  1  0  0  0
 17 20  1  0  0  0
 17 29  1  0  0  0
 18 21  1  0  0  0
 19 20  2  0  0  0
 19 30  1  0  0  0
 20 31  1  0  0  0
 21 22  1  0  0  0
 21 32  1  0  0  0
 21 33  1  0  0  0
 22 23  1  0  0  0
 22 34  1  0  0  0
 22 35  1  0  0  0
 23 36  1  0  0  0
 23 37  1  0  0  0
 23 38  1  0  0  0
M  END
> <s_m_entry_id>
9981

> <s_m_entry_name>
dock_pv.50

> <s_m_Source_Path>
/home/csk/Desktop/cluster/DUD-E-result/met

> <s_m_Source_File>
dock_pv.maegz

> <i_m_Source_File_Index>
50

> <chembl_id>
CHEMBL1985406

> <chembl_pref_name>
None

> <i_lp_mmshare_version>
53161

> <i_f3d_flags>
0

> <r_lp_tautomer_probability>
0.0196078431372549

> <s_lp_Force_Field>
OPLS_2005

> <r_lp_Energy>
37.583558

> <b_lp_Chiralities_Consistent>
1

> <s_lp_Variant>
CHEMBL3717_lig4065-2

> <s_i_glide_gridfile>
glide-grid_3lq8

> <i_i_glide_lignum>
5186

> <i_i_glide_rotatable_bonds>
5

> <r_i_docking_score>
-8.92879093828433

> <r_i_glide_ligand_efficiency>
-0.388208301664536

> <r_i_glide_ligand_efficiency_sa>
-1.10401276925415

> <r_i_glide_ligand_efficiency_ln>
-2.15906261067717

> <r_i_glide_gscore>
-8.92879093828433

> <r_i_glide_lipo>
-3.91979093778004

> <r_i_glide_hbond>
-0.310585261040537

> <r_i_glide_metal>
0

> <r_i_glide_rewards>
-3.28765882024231

> <r_i_glide_evdw>
-38.1619148254395

> <r_i_glide_ecoul>
-1.67332625389099

> <r_i_glide_erotb>
0.748338760134179

> <r_i_glide_esite>
0

> <r_i_glide_emodel>
-57.6494291583581

> <r_i_glide_energy>
-39.8352410793304

> <r_i_glide_einternal>
5.62168788909912

> <i_i_glide_confnum>
13

> <i_i_glide_posenum>
56

> <r_i_glide_eff_state_penalty>
0

> <s_user_duplicate_titles>
CHEMBL3717_lig4065,CHEMBL3717_lig4065

> <s_m_subgroup_title>
dock_pv

> <s_m_subgroupid>
dock_pv

> <b_m_subgroup_collapsed>
1

$$$$
CHEMBL3717_lig1600
                    3D
 Schrodinger Suite 2021-1.
 32 34  0  0  1  0            999 V2000
   -0.6590    6.7567   30.4233 O   0  0  0  0  0  0
   -1.3798    5.6110   30.6073 C   0  0  0  0  0  0
   -0.8239    4.3795   30.6141 C   0  0  0  0  0  0
   -1.5296    3.2232   30.6745 O   0  0  0  0  0  0
   -2.9052    3.2852   30.6081 C   0  0  0  0  0  0
   -3.5582    2.0594   30.5447 C   0  0  0  0  0  0
   -4.9429    2.0258   30.4734 C   0  0  0  0  0  0
   -5.5972    0.8324   30.3847 O   0  0  0  0  0  0
   -5.6659    3.2102   30.4992 C   0  0  0  0  0  0
   -5.0155    4.4385   30.5751 C   0  0  0  0  0  0
   -5.8008    5.5571   30.6082 O   0  0  0  0  0  0
   -3.6098    4.5017   30.6055 C   0  0  0  0  0  0
   -2.8455    5.7961   30.6222 C   0  0  0  0  0  0
   -3.4255    6.8869   30.6082 O   0  0  0  0  0  0
    0.6208    4.1041   30.5183 C   0  0  0  0  0  0
    1.4857    4.3759   31.5832 C   0  0  0  0  0  0
    2.8491    4.1001   31.4700 C   0  0  0  0  0  0
    3.3655    3.5570   30.2927 C   0  0  0  0  0  0
    4.7091    3.2886   30.2081 O   0  0  0  0  0  0
    2.5074    3.2875   29.2194 C   0  0  0  0  0  0
    2.9885    2.7570   28.0475 O   0  0  0  0  0  0
    1.1433    3.5570   29.3424 C   0  0  0  0  0  0
    0.2778    6.5554   30.3417 H   0  0  0  0  0  0
   -2.9807    1.1484   30.5472 H   0  0  0  0  0  0
   -5.0013    0.0822   30.3428 H   0  0  0  0  0  0
   -6.7448    3.1763   30.4606 H   0  0  0  0  0  0
   -5.2678    6.3584   30.5472 H   0  0  0  0  0  0
    1.1044    4.7964   32.5032 H   0  0  0  0  0  0
    3.5052    4.3149   32.2992 H   0  0  0  0  0  0
    4.9523    2.9403   29.3423 H   0  0  0  0  0  0
    2.2964    2.5030   27.4315 H   0  0  0  0  0  0
    0.4776    3.3347   28.5225 H   0  0  0  0  0  0
  1  2  1  0  0  0
  1 23  1  0  0  0
  2  3  2  0  0  0
  2 13  1  0  0  0
  3  4  1  0  0  0
  3 15  1  0  0  0
  4  5  1  0  0  0
  5  6  2  0  0  0
  5 12  1  0  0  0
  6  7  1  0  0  0
  6 24  1  0  0  0
  7  8  1  0  0  0
  7  9  2  0  0  0
  8 25  1  0  0  0
  9 10  1  0  0  0
  9 26  1  0  0  0
 10 11  1  0  0  0
 10 12  2  0  0  0
 11 27  1  0  0  0
 12 13  1  0  0  0
 13 14  2  0  0  0
 15 16  2  0  0  0
 15 22  1  0  0  0
 16 17  1  0  0  0
 16 28  1  0  0  0
 17 18  2  0  0  0
 17 29  1  0  0  0
 18 19  1  0  0  0
 18 20  1  0  0  0
 19 30  1  0  0  0
 20 21  1  0  0  0
 20 22  2  0  0  0
 21 31  1  0  0  0
 22 32  1  0  0  0
M  END
> <s_m_entry_id>
9982

> <s_m_entry_name>
dock_pv.51

> <s_m_Source_Path>
/home/csk/Desktop/cluster/DUD-E-result/met

> <s_m_Source_File>
dock_pv.maegz

> <i_m_Source_File_Index>
51

> <chembl_id>
CHEMBL50

> <chembl_pref_name>
QUERCETIN

> <i_lp_mmshare_version>
53161

> <i_f3d_flags>
0

> <r_lp_tautomer_probability>
0.999999999999776

> <s_lp_Force_Field>
OPLS_2005

> <r_lp_Energy>
20.019118

> <b_lp_Chiralities_Consistent>
1

> <s_lp_Variant>
CHEMBL3717_lig1600-1

> <s_i_glide_gridfile>
glide-grid_3lq8

> <i_i_glide_lignum>
1853

> <i_i_glide_rotatable_bonds>
6

> <r_i_docking_score>
-8.91464330302491

> <r_i_glide_ligand_efficiency>
-0.405211059228405

> <r_i_glide_ligand_efficiency_sa>
-1.13541732400465

> <r_i_glide_ligand_efficiency_ln>
-2.17906399277449

> <r_i_glide_gscore>
-8.91464330302491

> <r_i_glide_lipo>
-3.60394174836872

> <r_i_glide_hbond>
-0.31824251913656

> <r_i_glide_metal>
0

> <r_i_glide_rewards>
-2.43172628787879

> <r_i_glide_evdw>
-39.2798500061035

> <r_i_glide_ecoul>
-5.32180166244507

> <r_i_glide_erotb>
0.20153000203109

> <r_i_glide_esite>
0

> <r_i_glide_emodel>
-64.4129905598811

> <r_i_glide_energy>
-44.6016516685486

> <r_i_glide_einternal>
5.29839563369751

> <i_i_glide_confnum>
4

> <i_i_glide_posenum>
218

> <r_i_glide_eff_state_penalty>
0

> <s_user_duplicate_titles>
CHEMBL3717_lig1600

> <s_m_subgroup_title>
dock_pv

> <s_m_subgroupid>
dock_pv

> <b_m_subgroup_collapsed>
1

$$$$
CHEMBL3717_lig2406
                    3D
 Schrodinger Suite 2021-1.
 48 49  0  0  1  0            999 V2000
   -3.5167    5.9578   30.5767 C   0  0  0  0  0  0
   -4.3048    4.7294   30.6120 C   0  0  0  0  0  0
   -3.7899    3.4836   30.4723 C   0  0  0  0  0  0
   -4.0448    7.0675   30.6081 O   0  0  0  0  0  0
   -2.1935    5.7645   30.4350 O   0  0  0  0  0  0
   -4.5582    2.2207   30.4229 C   0  0  0  0  0  0
   -3.8885    1.0056   30.5911 C   0  0  0  0  0  0
   -4.5779   -0.2168   30.5405 C   0  0  0  0  0  0
   -5.9608   -0.2043   30.3159 C   0  0  0  0  0  0
   -6.6566    1.0006   30.1419 C   0  0  0  0  0  0
   -5.9407    2.2051   30.2065 C   0  0  0  0  0  0
   -8.0198    0.9310   29.9074 O   0  0  0  0  0  0
   -8.7617    2.1267   29.6891 C   0  0  0  0  0  0
   -3.9825   -1.4560   30.7062 O   0  0  0  0  0  0
   -2.5648   -1.5608   30.7848 C   0  0  0  0  0  0
   -6.6304   -1.4023   30.2572 O   0  0  0  0  0  0
   -1.3275    6.8290   30.0598 C   0  0  0  0  0  0
    0.1206    6.3827   30.2854 C   0  0  0  0  0  0
    0.4847    5.0994   29.5018 C   0  0  0  0  0  0
    1.9085    4.6021   29.6853 C   0  0  0  0  0  0
    2.5393    4.7078   30.9246 C   0  0  0  0  0  0
    3.8369    4.2476   31.0827 C   0  0  0  0  0  0
    4.5057    3.6557   30.0192 C   0  0  0  0  0  0
    3.8877    3.5597   28.7733 C   0  0  0  0  0  0
    2.5826    4.0149   28.6098 C   0  0  0  0  0  0
    5.7672    3.1574   30.2081 O   0  0  0  0  0  0
   -5.3642    4.8842   30.7434 H   0  0  0  0  0  0
   -2.7213    3.3659   30.3524 H   0  0  0  0  0  0
   -2.8235    1.0170   30.7646 H   0  0  0  0  0  0
   -6.4580    3.1385   30.0649 H   0  0  0  0  0  0
   -9.8087    1.8726   29.5245 H   0  0  0  0  0  0
   -8.7169    2.7908   30.5538 H   0  0  0  0  0  0
   -8.4111    2.6614   28.8043 H   0  0  0  0  0  0
   -2.2916   -2.6047   30.9435 H   0  0  0  0  0  0
   -2.1578   -0.9861   31.6177 H   0  0  0  0  0  0
   -2.0936   -1.2412   29.8551 H   0  0  0  0  0  0
   -6.0135   -2.1352   30.3476 H   0  0  0  0  0  0
   -1.4854    7.0629   29.0083 H   0  0  0  0  0  0
   -1.5359    7.7437   30.6142 H   0  0  0  0  0  0
    0.7942    7.1909   29.9968 H   0  0  0  0  0  0
    0.2529    6.2327   31.3569 H   0  0  0  0  0  0
   -0.1732    4.2799   29.7990 H   0  0  0  0  0  0
    0.3103    5.2866   28.4420 H   0  0  0  0  0  0
    2.0448    5.1476   31.7769 H   0  0  0  0  0  0
    4.3061    4.3593   32.0441 H   0  0  0  0  0  0
    4.4092    3.1441   27.9278 H   0  0  0  0  0  0
    2.1049    3.9268   27.6439 H   0  0  0  0  0  0
    6.0916    2.7379   29.3959 H   0  0  0  0  0  0
  1  2  1  0  0  0
  1  4  2  0  0  0
  1  5  1  0  0  0
  2  3  2  0  0  0
  2 27  1  0  0  0
  3  6  1  0  0  0
  3 28  1  0  0  0
  5 17  1  0  0  0
  6  7  1  0  0  0
  6 11  2  0  0  0
  7  8  2  0  0  0
  7 29  1  0  0  0
  8  9  1  0  0  0
  8 14  1  0  0  0
  9 10  2  0  0  0
  9 16  1  0  0  0
 10 11  1  0  0  0
 10 12  1  0  0  0
 11 30  1  0  0  0
 12 13  1  0  0  0
 13 31  1  0  0  0
 13 32  1  0  0  0
 13 33  1  0  0  0
 14 15  1  0  0  0
 15 34  1  0  0  0
 15 35  1  0  0  0
 15 36  1  0  0  0
 16 37  1  0  0  0
 17 18  1  0  0  0
 17 38  1  0  0  0
 17 39  1  0  0  0
 18 19  1  0  0  0
 18 40  1  0  0  0
 18 41  1  0  0  0
 19 20  1  0  0  0
 19 42  1  0  0  0
 19 43  1  0  0  0
 20 21  1  0  0  0
 20 25  2  0  0  0
 21 22  2  0  0  0
 21 44  1  0  0  0
 22 23  1  0  0  0
 22 45  1  0  0  0
 23 24  2  0  0  0
 23 26  1  0  0  0
 24 25  1  0  0  0
 24 46  1  0  0  0
 25 47  1  0  0  0
 26 48  1  0  0  0
M  END
> <s_m_entry_id>
9983

> <s_m_entry_name>
dock_pv.52

> <s_m_Source_Path>
/home/csk/Desktop/cluster/DUD-E-result/met

> <s_m_Source_File>
dock_pv.maegz

> <i_m_Source_File_Index>
52

> <chembl_id>
CHEMBL3823189

> <chembl_pref_name>
None

> <i_lp_mmshare_version>
53161

> <i_f3d_flags>
0

> <r_lp_tautomer_probability>
0.999999999997365

> <s_lp_Force_Field>
OPLS_2005

> <r_lp_Energy>
20.46542

> <b_lp_Chiralities_Consistent>
1

> <s_lp_Variant>
CHEMBL3717_lig2406-1

> <s_i_glide_gridfile>
glide-grid_3lq8

> <i_i_glide_lignum>
2732

> <i_i_glide_rotatable_bonds>
11

> <r_i_docking_score>
-8.87164476530565

> <r_i_glide_ligand_efficiency>
-0.34121710635791

> <r_i_glide_ligand_efficiency_sa>
-1.01085433496083

> <r_i_glide_ligand_efficiency_ln>
-2.08347666289122

> <r_i_glide_gscore>
-8.87164476530565

> <r_i_glide_lipo>
-3.71140257427945

> <r_i_glide_hbond>
-0.608

> <r_i_glide_metal>
0

> <r_i_glide_rewards>
-2.62990744969104

> <r_i_glide_evdw>
-38.8425064086914

> <r_i_glide_ecoul>
-6.82779407501221

> <r_i_glide_erotb>
1.04395969035124

> <r_i_glide_esite>
0

> <r_i_glide_emodel>
-67.0543971260949

> <r_i_glide_energy>
-45.6703004837036

> <r_i_glide_einternal>
5.3742995262146

> <i_i_glide_confnum>
5

> <i_i_glide_posenum>
76

> <r_i_glide_eff_state_penalty>
0

> <s_user_duplicate_titles>
CHEMBL3717_lig2406

> <s_m_subgroup_title>
dock_pv

> <s_m_subgroupid>
dock_pv

> <b_m_subgroup_collapsed>
1

$$$$
CHEMBL3717_lig1020
                    3D
 Schrodinger Suite 2021-1.
 34 37  0  0  1  0            999 V2000
   -2.5065    2.8474   30.9769 N   0  0  0  0  0  0
   -2.2706    4.1583   30.8244 C   0  0  0  0  0  0
   -3.2336    5.1095   30.3932 C   0  0  0  0  0  0
   -4.4899    4.7409   30.1213 N   0  0  0  0  0  0
   -4.7395    3.4037   30.2080 C   0  0  0  0  0  0
   -3.7695    2.4686   30.6079 C   0  0  0  0  0  0
   -4.0926    1.0045   30.6320 C   0  0  0  0  0  0
   -5.0552    0.3207   29.8879 C   0  0  0  0  0  0
   -5.0716   -1.0595   30.1136 C   0  0  0  0  0  0
   -4.1342   -1.4582   31.0511 C   0  0  0  0  0  0
   -3.2256   -0.1148   31.6596 S   0  0  0  0  0  0
   -2.6825    6.3554   30.2720 N   0  0  0  0  0  0
   -1.4288    6.1732   30.6079 C   0  0  0  0  0  0
   -1.1188    4.8914   31.0185 N   0  0  0  0  0  0
    0.1638    4.4285   31.5402 C   0  0  0  0  0  0
    1.2668    4.1841   30.5267 C   0  0  0  0  0  0
    0.9705    3.7535   29.2326 C   0  0  0  0  0  0
    1.9949    3.5523   28.3177 C   0  0  0  0  0  0
    3.3111    3.7518   28.7132 C   0  0  0  0  0  0
    3.6242    4.1407   30.0111 C   0  0  0  0  0  0
    2.5959    4.3579   30.9213 C   0  0  0  0  0  0
    4.3061    3.5570   27.8082 O   0  0  0  0  0  0
   -5.7422    3.0958   29.9518 H   0  0  0  0  0  0
   -5.7115    0.8010   29.1783 H   0  0  0  0  0  0
   -5.7369   -1.7407   29.6034 H   0  0  0  0  0  0
   -3.9345   -2.4629   31.3981 H   0  0  0  0  0  0
   -0.6648    6.9364   30.6193 H   0  0  0  0  0  0
   -0.0046    3.4921   32.0687 H   0  0  0  0  0  0
    0.4943    5.1588   32.2793 H   0  0  0  0  0  0
   -0.0503    3.5608   28.9365 H   0  0  0  0  0  0
    1.7683    3.2258   27.3127 H   0  0  0  0  0  0
    4.6512    4.2894   30.3089 H   0  0  0  0  0  0
    2.8357    4.6710   31.9275 H   0  0  0  0  0  0
    5.1557    3.3381   28.2081 H   0  0  0  0  0  0
  1  2  1  0  0  0
  1  6  2  0  0  0
  2  3  2  0  0  0
  2 14  1  0  0  0
  3  4  1  0  0  0
  3 12  1  0  0  0
  4  5  2  0  0  0
  5  6  1  0  0  0
  5 23  1  0  0  0
  6  7  1  0  0  0
  7  8  2  0  0  0
  7 11  1  0  0  0
  8  9  1  0  0  0
  8 24  1  0  0  0
  9 10  2  0  0  0
  9 25  1  0  0  0
 10 11  1  0  0  0
 10 26  1  0  0  0
 12 13  2  0  0  0
 13 14  1  0  0  0
 13 27  1  0  0  0
 14 15  1  0  0  0
 15 16  1  0  0  0
 15 28  1  0  0  0
 15 29  1  0  0  0
 16 17  2  0  0  0
 16 21  1  0  0  0
 17 18  1  0  0  0
 17 30  1  0  0  0
 18 19  2  0  0  0
 18 31  1  0  0  0
 19 20  1  0  0  0
 19 22  1  0  0  0
 20 21  2  0  0  0
 20 32  1  0  0  0
 21 33  1  0  0  0
 22 34  1  0  0  0
M  END
> <s_m_entry_id>
9984

> <s_m_entry_name>
dock_pv.53

> <s_m_Source_Path>
/home/csk/Desktop/cluster/DUD-E-result/met

> <s_m_Source_File>
dock_pv.maegz

> <i_m_Source_File_Index>
53

> <chembl_id>
CHEMBL1823253

> <chembl_pref_name>
None

> <i_lp_mmshare_version>
53161

> <i_f3d_flags>
0

> <r_lp_tautomer_probability>
0.999999999997365

> <s_lp_Force_Field>
OPLS_2005

> <r_lp_Energy>
15.232599

> <b_lp_Chiralities_Consistent>
1

> <s_lp_Variant>
CHEMBL3717_lig1020-1

> <s_i_glide_gridfile>
glide-grid_3lq8

> <i_i_glide_lignum>
1134

> <i_i_glide_rotatable_bonds>
4

> <r_i_docking_score>
-8.85439449429225

> <r_i_glide_ligand_efficiency>
-0.402472477013284

> <r_i_glide_ligand_efficiency_sa>
-1.12774370893555

> <r_i_glide_ligand_efficiency_ln>
-2.16433698629153

> <r_i_glide_gscore>
-8.85439449429225

> <r_i_glide_lipo>
-2.65253632923938

> <r_i_glide_hbond>
-0.201463888452056

> <r_i_glide_metal>
0

> <r_i_glide_rewards>
-4.26071141658138

> <r_i_glide_evdw>
-35.439323425293

> <r_i_glide_ecoul>
-3.67610836029053

> <r_i_glide_erotb>
0.583699565288799

> <r_i_glide_esite>
0

> <r_i_glide_emodel>
-56.9732787216091

> <r_i_glide_energy>
-39.1154317855835

> <r_i_glide_einternal>
3.02242255210876

> <i_i_glide_confnum>
7

> <i_i_glide_posenum>
361

> <r_i_glide_eff_state_penalty>
0

> <s_user_duplicate_titles>
CHEMBL3717_lig1020

> <s_m_subgroup_title>
dock_pv

> <s_m_subgroupid>
dock_pv

> <b_m_subgroup_collapsed>
1

$$$$
CHEMBL3717_lig3785
                    3D
 Schrodinger Suite 2021-1.
 36 40  0  0  1  0            999 V2000
   -6.8092    3.1834   30.5808 S   0  0  0  0  0  0
   -3.6919    7.1620   30.6080 O   0  0  0  0  0  0
   -2.7883    5.0392   30.6498 N   0  0  0  0  0  0
   -1.6597    3.1570   30.6081 N   0  0  0  0  0  0
   -5.1006    5.3359   30.6080 N   0  0  0  0  0  0
   -1.4951    5.3974   30.6868 N   0  0  0  0  0  0
    2.5187    3.3978   29.2257 N   0  0  0  0  0  0
   -4.1976    3.0542   30.5794 C   0  0  0  0  0  0
   -2.8603    3.6676   30.6117 C   0  0  0  0  0  0
   -5.2671    3.9552   30.5898 C   0  0  0  0  0  0
   -4.6300    1.7167   30.5363 C   0  0  0  0  0  0
   -6.0346    1.6237   30.5443 C   0  0  0  0  0  0
   -3.8924    5.9548   30.6243 C   0  0  0  0  0  0
   -0.8822    4.2307   30.6285 C   0  0  0  0  0  0
   -3.7263    0.4854   30.5534 C   0  0  0  0  0  0
    0.5968    4.1136   30.5273 C   0  0  0  0  0  0
   -6.8175    0.3187   30.5884 C   0  0  0  0  0  0
   -4.5329   -0.7729   30.9452 C   0  0  0  0  0  0
   -5.8822   -0.8494   30.2069 C   0  0  0  0  0  0
    1.1800    3.5570   29.3836 C   0  0  0  0  0  0
    1.4479    4.5306   31.5555 C   0  0  0  0  0  0
    2.8279    4.3572   31.4199 C   0  0  0  0  0  0
    3.3226    3.7943   30.2427 C   0  0  0  0  0  0
   -5.8936    5.9593   30.5398 H   0  0  0  0  0  0
   -2.8889    0.6188   31.2374 H   0  0  0  0  0  0
   -3.2941    0.3448   29.5622 H   0  0  0  0  0  0
   -7.6803    0.3441   29.9212 H   0  0  0  0  0  0
   -7.2016    0.1560   31.5971 H   0  0  0  0  0  0
   -3.9420   -1.6650   30.7314 H   0  0  0  0  0  0
   -4.7096   -0.7793   32.0222 H   0  0  0  0  0  0
   -5.7065   -0.8480   29.1285 H   0  0  0  0  0  0
   -6.3734   -1.7981   30.4265 H   0  0  0  0  0  0
    0.5658    3.2049   28.5682 H   0  0  0  0  0  0
    1.0434    4.9642   32.4591 H   0  0  0  0  0  0
    3.4998    4.6612   32.2077 H   0  0  0  0  0  0
    4.3835    3.6521   30.0959 H   0  0  0  0  0  0
  1 10  1  0  0  0
  1 12  1  0  0  0
  2 13  2  0  0  0
  3  6  1  0  0  0
  3  9  1  0  0  0
  3 13  1  0  0  0
  4  9  2  0  0  0
  4 14  1  0  0  0
  5 10  1  0  0  0
  5 13  1  0  0  0
  5 24  1  0  0  0
  6 14  2  0  0  0
  7 20  2  0  0  0
  7 23  1  0  0  0
  8  9  1  0  0  0
  8 10  2  0  0  0
  8 11  1  0  0  0
 11 12  2  0  0  0
 11 15  1  0  0  0
 12 17  1  0  0  0
 14 16  1  0  0  0
 15 18  1  0  0  0
 15 25  1  0  0  0
 15 26  1  0  0  0
 16 20  1  0  0  0
 16 21  2  0  0  0
 17 19  1  0  0  0
 17 27  1  0  0  0
 17 28  1  0  0  0
 18 19  1  0  0  0
 18 29  1  0  0  0
 18 30  1  0  0  0
 19 31  1  0  0  0
 19 32  1  0  0  0
 20 33  1  0  0  0
 21 22  1  0  0  0
 21 34  1  0  0  0
 22 23  2  0  0  0
 22 35  1  0  0  0
 23 36  1  0  0  0
M  END
> <s_m_entry_id>
9985

> <s_m_entry_name>
dock_pv.54

> <s_m_Source_Path>
/home/csk/Desktop/cluster/DUD-E-result/met

> <s_m_Source_File>
dock_pv.maegz

> <i_m_Source_File_Index>
54

> <chembl_id>
CHEMBL1970806

> <chembl_pref_name>
None

> <i_lp_mmshare_version>
53161

> <i_f3d_flags>
0

> <r_lp_tautomer_probability>
1

> <s_lp_Force_Field>
OPLS_2005

> <r_lp_Energy>
29.439017

> <b_lp_Chiralities_Consistent>
1

> <s_lp_Variant>
CHEMBL3717_lig3785-1

> <s_i_glide_gridfile>
glide-grid_3lq8

> <i_i_glide_lignum>
4792

> <i_i_glide_rotatable_bonds>
1

> <r_i_docking_score>
-8.84791161851749

> <r_i_glide_ligand_efficiency>
-0.38469180950076

> <r_i_glide_ligand_efficiency_sa>
-1.09401233331514

> <r_i_glide_ligand_efficiency_ln>
-2.13950525778442

> <r_i_glide_gscore>
-8.84791161851749

> <r_i_glide_lipo>
-2.23516235937787

> <r_i_glide_hbond>
-0.32

> <r_i_glide_metal>
0

> <r_i_glide_rewards>
-3.7726962294134

> <r_i_glide_evdw>
-40.0119209289551

> <r_i_glide_ecoul>
-4.65606498718262

> <r_i_glide_erotb>
0.178952764798918

> <r_i_glide_esite>
0

> <r_i_glide_emodel>
-66.0859574439237

> <r_i_glide_energy>
-44.6679859161377

> <r_i_glide_einternal>
4.14943647384644

> <i_i_glide_confnum>
4

> <i_i_glide_posenum>
122

> <r_i_glide_eff_state_penalty>
0

> <s_user_duplicate_titles>
CHEMBL3717_lig3785

> <s_m_subgroup_title>
dock_pv

> <s_m_subgroupid>
dock_pv

> <b_m_subgroup_collapsed>
1

$$$$
CHEMBL3717_lig3852
                    3D
 Schrodinger Suite 2021-1.
 43 46  0  0  1  0            999 V2000
   -2.9152    1.1432   31.0080 O   0  0  0  0  0  0
   -5.6934   -2.9574   29.4081 O   0  0  0  0  0  0
   -1.2890    7.3853   30.1635 N   0  0  0  0  0  0
   -3.5099    6.4451   30.3899 N   0  0  0  0  0  0
   -4.3481    2.8687   30.5347 N   0  0  0  0  0  0
   -1.4186    5.1793   30.6080 C   0  0  0  0  0  0
   -0.0340    5.5474   30.5226 C   0  0  0  0  0  0
   -2.1782    6.3605   30.4022 C   0  0  0  0  0  0
   -2.1264    3.9770   30.7596 C   0  0  0  0  0  0
   -3.5250    4.0094   30.6080 C   0  0  0  0  0  0
    1.1226    4.6398   30.6444 C   0  0  0  0  0  0
   -0.0085    6.8931   30.2073 C   0  0  0  0  0  0
   -4.1541    5.2511   30.4664 C   0  0  0  0  0  0
   -4.0295    1.5626   30.6884 C   0  0  0  0  0  0
   -5.1607    0.5891   30.4558 C   0  0  0  0  0  0
    1.7004    4.0822   29.5024 C   0  0  0  0  0  0
    1.6274    4.3553   31.9113 C   0  0  0  0  0  0
   -4.8773   -0.7083   30.0046 C   0  0  0  0  0  0
   -5.8978   -1.6551   29.8194 C   0  0  0  0  0  0
   -6.4988    0.9358   30.7127 C   0  0  0  0  0  0
    2.7813    3.2138   29.6333 C   0  0  0  0  0  0
    2.7059    3.4887   32.0407 C   0  0  0  0  0  0
   -7.2166   -1.2792   30.0761 C   0  0  0  0  0  0
   -7.5186    0.0078   30.5164 C   0  0  0  0  0  0
    3.2779    2.9230   30.9030 C   0  0  0  0  0  0
   -4.3755   -3.3771   29.0667 C   0  0  0  0  0  0
   -1.4877    8.3524   29.9503 H   0  0  0  0  0  0
   -5.3117    3.0522   30.3043 H   0  0  0  0  0  0
   -1.5729    3.0591   30.8702 H   0  0  0  0  0  0
    0.8267    7.5515   30.0137 H   0  0  0  0  0  0
   -5.2295    5.3158   30.3690 H   0  0  0  0  0  0
    1.3063    4.3085   28.5217 H   0  0  0  0  0  0
    1.1801    4.7972   32.7895 H   0  0  0  0  0  0
   -3.8501   -0.9766   29.8028 H   0  0  0  0  0  0
   -6.7658    1.9150   31.0860 H   0  0  0  0  0  0
    3.2307    2.7689   28.7558 H   0  0  0  0  0  0
    3.1045    3.2574   33.0175 H   0  0  0  0  0  0
   -8.0088   -1.9993   29.9351 H   0  0  0  0  0  0
   -8.5443    0.2812   30.7210 H   0  0  0  0  0  0
    4.1163    2.2491   31.0083 H   0  0  0  0  0  0
   -4.3913   -4.4354   28.8113 H   0  0  0  0  0  0
   -3.9918   -2.8418   28.2000 H   0  0  0  0  0  0
   -3.6797   -3.2429   29.8962 H   0  0  0  0  0  0
  1 14  2  0  0  0
  2 19  1  0  0  0
  2 26  1  0  0  0
  3  8  1  0  0  0
  3 12  1  0  0  0
  3 27  1  0  0  0
  4  8  2  0  0  0
  4 13  1  0  0  0
  5 10  1  0  0  0
  5 14  1  0  0  0
  5 28  1  0  0  0
  6  7  1  0  0  0
  6  8  1  0  0  0
  6  9  2  0  0  0
  7 11  1  0  0  0
  7 12  2  0  0  0
  9 10  1  0  0  0
  9 29  1  0  0  0
 10 13  2  0  0  0
 11 16  2  0  0  0
 11 17  1  0  0  0
 12 30  1  0  0  0
 13 31  1  0  0  0
 14 15  1  0  0  0
 15 18  2  0  0  0
 15 20  1  0  0  0
 16 21  1  0  0  0
 16 32  1  0  0  0
 17 22  2  0  0  0
 17 33  1  0  0  0
 18 19  1  0  0  0
 18 34  1  0  0  0
 19 23  2  0  0  0
 20 24  2  0  0  0
 20 35  1  0  0  0
 21 25  2  0  0  0
 21 36  1  0  0  0
 22 25  1  0  0  0
 22 37  1  0  0  0
 23 24  1  0  0  0
 23 38  1  0  0  0
 24 39  1  0  0  0
 25 40  1  0  0  0
 26 41  1  0  0  0
 26 42  1  0  0  0
 26 43  1  0  0  0
M  END
> <s_m_entry_id>
9986

> <s_m_entry_name>
dock_pv.55

> <s_m_Source_Path>
/home/csk/Desktop/cluster/DUD-E-result/met

> <s_m_Source_File>
dock_pv.maegz

> <i_m_Source_File_Index>
55

> <chembl_id>
CHEMBL1982924

> <chembl_pref_name>
None

> <i_lp_mmshare_version>
53161

> <i_f3d_flags>
0

> <r_lp_tautomer_probability>
0.999998432528457

> <s_lp_Force_Field>
OPLS_2005

> <r_lp_Energy>
27.783578

> <b_lp_Chiralities_Consistent>
1

> <s_lp_Variant>
CHEMBL3717_lig3852-1

> <s_i_glide_gridfile>
glide-grid_3lq8

> <i_i_glide_lignum>
4883

> <i_i_glide_rotatable_bonds>
5

> <r_i_docking_score>
-8.84366468535832

> <r_i_glide_ligand_efficiency>
-0.340140949436858

> <r_i_glide_ligand_efficiency_sa>
-1.00766622431669

> <r_i_glide_ligand_efficiency_ln>
-2.07690563292572

> <r_i_glide_gscore>
-8.84366468535832

> <r_i_glide_lipo>
-3.54374179182746

> <r_i_glide_hbond>
-0.210556924339257

> <r_i_glide_metal>
0

> <r_i_glide_rewards>
-3.27699256784184

> <r_i_glide_evdw>
-40.7319488525391

> <r_i_glide_ecoul>
-1.50906944274902

> <r_i_glide_erotb>
0.450584457689545

> <r_i_glide_esite>
0

> <r_i_glide_emodel>
-58.6601411069887

> <r_i_glide_energy>
-42.2410182952881

> <r_i_glide_einternal>
5.65006351470947

> <i_i_glide_confnum>
15

> <i_i_glide_posenum>
41

> <r_i_glide_eff_state_penalty>
0

> <s_user_duplicate_titles>
CHEMBL3717_lig3852

> <s_m_subgroup_title>
dock_pv

> <s_m_subgroupid>
dock_pv

> <b_m_subgroup_collapsed>
1

$$$$
CHEMBL3717_lig3733
                    3D
 Schrodinger Suite 2021-1.
 26 29  0  0  1  0            999 V2000
   -6.7115    3.1323   30.3674 S   0  0  0  0  0  0
   -3.6352    7.1577   30.6083 O   0  0  0  0  0  0
   -2.7175    5.0372   30.6759 N   0  0  0  0  0  0
   -1.5758    3.1575   30.6106 N   0  0  0  0  0  0
   -1.4254    5.3995   30.7452 N   0  0  0  0  0  0
   -5.0313    5.3186   30.5785 N   0  0  0  0  0  0
    3.4641    3.7985   30.4672 N   0  0  0  0  0  0
   -2.7770    3.6648   30.6081 C   0  0  0  0  0  0
   -4.0998    3.0498   30.4881 C   0  0  0  0  0  0
   -5.1817    3.9375   30.4969 C   0  0  0  0  0  0
   -0.8056    4.2352   30.6679 C   0  0  0  0  0  0
   -3.8277    5.9476   30.6218 C   0  0  0  0  0  0
   -4.5108    1.7162   30.3509 C   0  0  0  0  0  0
    0.6741    4.1220   30.5964 C   0  0  0  0  0  0
   -5.8960    1.5966   30.2739 C   0  0  0  0  0  0
    1.2773    3.5568   29.4664 C   0  0  0  0  0  0
    1.4879    4.5446   31.6513 C   0  0  0  0  0  0
    2.6654    3.4122   29.4411 C   0  0  0  0  0  0
    2.8673    4.3564   31.5489 C   0  0  0  0  0  0
   -5.8280    5.9367   30.4997 H   0  0  0  0  0  0
   -3.8320    0.8759   30.3088 H   0  0  0  0  0  0
   -6.4724    0.6868   30.1705 H   0  0  0  0  0  0
    0.6797    3.2171   28.6328 H   0  0  0  0  0  0
    1.0614    4.9894   32.5369 H   0  0  0  0  0  0
    3.1567    2.9639   28.5893 H   0  0  0  0  0  0
    3.5199    4.6555   32.3523 H   0  0  0  0  0  0
  1 10  1  0  0  0
  1 15  1  0  0  0
  2 12  2  0  0  0
  3  5  1  0  0  0
  3  8  1  0  0  0
  3 12  1  0  0  0
  4  8  2  0  0  0
  4 11  1  0  0  0
  5 11  2  0  0  0
  6 10  1  0  0  0
  6 12  1  0  0  0
  6 20  1  0  0  0
  7 18  2  0  0  0
  7 19  1  0  0  0
  8  9  1  0  0  0
  9 10  2  0  0  0
  9 13  1  0  0  0
 11 14  1  0  0  0
 13 15  2  0  0  0
 13 21  1  0  0  0
 14 16  2  0  0  0
 14 17  1  0  0  0
 15 22  1  0  0  0
 16 18  1  0  0  0
 16 23  1  0  0  0
 17 19  2  0  0  0
 17 24  1  0  0  0
 18 25  1  0  0  0
 19 26  1  0  0  0
M  END
> <s_m_entry_id>
9987

> <s_m_entry_name>
dock_pv.56

> <s_m_Source_Path>
/home/csk/Desktop/cluster/DUD-E-result/met

> <s_m_Source_File>
dock_pv.maegz

> <i_m_Source_File_Index>
56

> <chembl_id>
CHEMBL1968151

> <chembl_pref_name>
None

> <i_lp_mmshare_version>
53161

> <i_f3d_flags>
0

> <r_lp_tautomer_probability>
1

> <s_lp_Force_Field>
OPLS_2005

> <r_lp_Energy>
21.580623

> <b_lp_Chiralities_Consistent>
1

> <s_lp_Variant>
CHEMBL3717_lig3733-1

> <s_i_glide_gridfile>
glide-grid_3lq8

> <i_i_glide_lignum>
4712

> <i_i_glide_rotatable_bonds>
1

> <r_i_docking_score>
-8.84145059378562

> <r_i_glide_ligand_efficiency>
-0.465339504936085

> <r_i_glide_ligand_efficiency_sa>
-1.24171270096819

> <r_i_glide_ligand_efficiency_ln>
-2.24149762247153

> <r_i_glide_gscore>
-8.84145059378562

> <r_i_glide_lipo>
-2.10922186105122

> <r_i_glide_hbond>
-0.32

> <r_i_glide_metal>
0

> <r_i_glide_rewards>
-4.19016421075178

> <r_i_glide_evdw>
-35.3881301879883

> <r_i_glide_ecoul>
-4.6602258682251

> <r_i_glide_erotb>
0.246375867650558

> <r_i_glide_esite>
0

> <r_i_glide_emodel>
-58.6703423779769

> <r_i_glide_energy>
-40.0483560562134

> <r_i_glide_einternal>
4.70715761184692

> <i_i_glide_confnum>
1

> <i_i_glide_posenum>
1

> <r_i_glide_eff_state_penalty>
0

> <s_user_duplicate_titles>
CHEMBL3717_lig3733

> <s_m_subgroup_title>
dock_pv

> <s_m_subgroupid>
dock_pv

> <b_m_subgroup_collapsed>
1

$$$$
CHEMBL3717_lig328
                    3D
 Schrodinger Suite 2021-1.
 38 41  0  0  1  0            999 V2000
    5.1062    4.0772   28.3027 O   0  0  0  0  0  0
    3.9279    3.9887   28.9860 C   0  0  0  0  0  0
    3.8879    4.3560   30.3279 C   0  0  0  0  0  0
    2.6860    4.2854   31.0256 C   0  0  0  0  0  0
    1.5293    3.8548   30.3721 C   0  0  0  0  0  0
    0.2173    3.7526   31.1343 C   0  0  0  0  0  0
   -0.8023    4.8149   30.7578 C   0  0  0  0  0  0
   -0.5366    6.0852   30.5164 N   0  0  0  0  0  0
   -1.7148    6.7543   30.2239 N   0  0  0  0  0  0
   -2.7055    5.8430   30.3436 C   0  0  0  0  0  0
   -4.0928    5.9577   30.2088 C   0  0  0  0  0  0
   -4.8693    4.7997   30.2088 C   0  0  0  0  0  0
   -4.3039    3.5269   30.3555 C   0  0  0  0  0  0
   -2.9271    3.4418   30.6089 C   0  0  0  0  0  0
   -2.1554    4.5792   30.6080 N   0  0  0  0  0  0
   -5.1410    2.2982   30.2102 C   0  0  0  0  0  0
   -4.6053    1.1366   29.6359 C   0  0  0  0  0  0
   -5.3872   -0.0011   29.4634 C   0  0  0  0  0  0
   -6.7176    0.0092   29.8673 C   0  0  0  0  0  0
   -7.2707    1.1491   30.4417 C   0  0  0  0  0  0
   -6.4857    2.2874   30.6082 C   0  0  0  0  0  0
    1.5759    3.4974   29.0223 C   0  0  0  0  0  0
    2.7800    3.5560   28.3288 C   0  0  0  0  0  0
    5.5640    3.2289   28.2087 H   0  0  0  0  0  0
    4.7831    4.7020   30.8223 H   0  0  0  0  0  0
    2.6554    4.5699   32.0672 H   0  0  0  0  0  0
   -0.1775    2.7580   30.9424 H   0  0  0  0  0  0
    0.4073    3.7805   32.2067 H   0  0  0  0  0  0
   -4.5470    6.9204   30.0442 H   0  0  0  0  0  0
   -5.9294    4.9056   30.0245 H   0  0  0  0  0  0
   -2.4160    2.5048   30.7690 H   0  0  0  0  0  0
   -3.5829    1.1114   29.2937 H   0  0  0  0  0  0
   -4.9638   -0.8860   29.0092 H   0  0  0  0  0  0
   -7.3235   -0.8745   29.7313 H   0  0  0  0  0  0
   -8.3041    1.1512   30.7560 H   0  0  0  0  0  0
   -6.9331    3.1596   31.0611 H   0  0  0  0  0  0
    0.6832    3.1614   28.5157 H   0  0  0  0  0  0
    2.8175    3.2747   27.2868 H   0  0  0  0  0  0
  1  2  1  0  0  0
  1 24  1  0  0  0
  2  3  2  0  0  0
  2 23  1  0  0  0
  3  4  1  0  0  0
  3 25  1  0  0  0
  4  5  2  0  0  0
  4 26  1  0  0  0
  5  6  1  0  0  0
  5 22  1  0  0  0
  6  7  1  0  0  0
  6 27  1  0  0  0
  6 28  1  0  0  0
  7  8  2  0  0  0
  7 15  1  0  0  0
  8  9  1  0  0  0
  9 10  2  0  0  0
 10 11  1  0  0  0
 10 15  1  0  0  0
 11 12  2  0  0  0
 11 29  1  0  0  0
 12 13  1  0  0  0
 12 30  1  0  0  0
 13 14  2  0  0  0
 13 16  1  0  0  0
 14 15  1  0  0  0
 14 31  1  0  0  0
 16 17  2  0  0  0
 16 21  1  0  0  0
 17 18  1  0  0  0
 17 32  1  0  0  0
 18 19  2  0  0  0
 18 33  1  0  0  0
 19 20  1  0  0  0
 19 34  1  0  0  0
 20 21  2  0  0  0
 20 35  1  0  0  0
 21 36  1  0  0  0
 22 23  2  0  0  0
 22 37  1  0  0  0
 23 38  1  0  0  0
M  END
> <s_m_entry_id>
9988

> <s_m_entry_name>
dock_pv.57

> <s_m_Source_Path>
/home/csk/Desktop/cluster/DUD-E-result/met

> <s_m_Source_File>
dock_pv.maegz

> <i_m_Source_File_Index>
57

> <chembl_id>
CHEMBL496101

> <chembl_pref_name>
None

> <i_lp_mmshare_version>
53161

> <i_f3d_flags>
0

> <r_lp_tautomer_probability>
0.999999999997365

> <s_lp_Force_Field>
OPLS_2005

> <r_lp_Energy>
17.941514

> <b_lp_Chiralities_Consistent>
1

> <s_lp_Variant>
CHEMBL3717_lig328-1

> <s_i_glide_gridfile>
glide-grid_3lq8

> <i_i_glide_lignum>
344

> <i_i_glide_rotatable_bonds>
4

> <r_i_docking_score>
-8.82415608695355

> <r_i_glide_ligand_efficiency>
-0.383658960302328

> <r_i_glide_ligand_efficiency_sa>
-1.09107504758762

> <r_i_glide_ligand_efficiency_ln>
-2.13376095484901

> <r_i_glide_gscore>
-8.82415608695355

> <r_i_glide_lipo>
-3.201111139446

> <r_i_glide_hbond>
-0.32

> <r_i_glide_metal>
0

> <r_i_glide_rewards>
-3.14471528416393

> <r_i_glide_evdw>
-37.1201286315918

> <r_i_glide_ecoul>
-6.06704616546631

> <r_i_glide_erotb>
0.607733693055905

> <r_i_glide_esite>
0

> <r_i_glide_emodel>
-61.0382124109679

> <r_i_glide_energy>
-43.1871747970581

> <r_i_glide_einternal>
5.03317451477051

> <i_i_glide_confnum>
14

> <i_i_glide_posenum>
142

> <r_i_glide_eff_state_penalty>
0

> <s_user_duplicate_titles>
CHEMBL3717_lig328

> <s_m_subgroup_title>
dock_pv

> <s_m_subgroupid>
dock_pv

> <b_m_subgroup_collapsed>
1

$$$$
CHEMBL3717_lig1317
                    3D
 Schrodinger Suite 2021-1.
 35 38  0  0  1  0            999 V2000
    4.3973    4.0763   28.8615 C   0  0  0  0  0  0
    3.3171    3.4874   28.2081 C   0  0  0  0  0  0
    2.1175    3.3100   28.8857 C   0  0  0  0  0  0
    2.0121    3.7093   30.2199 C   0  0  0  0  0  0
    3.1194    4.2355   30.8906 C   0  0  0  0  0  0
    4.3159    4.4184   30.2057 C   0  0  0  0  0  0
    5.5281    4.3569   28.1766 F   0  0  0  0  0  0
    0.6597    3.6555   30.9154 C   0  0  0  0  0  0
   -1.8238    6.2934   30.3660 C   0  0  0  0  0  0
   -1.5599    4.9274   30.6099 C   0  0  0  0  0  0
   -3.0702    6.7549   30.2805 N   0  0  0  0  0  0
   -2.5059    3.9874   30.7198 N   0  0  0  0  0  0
   -3.7877    4.4403   30.5365 C   0  0  0  0  0  0
   -4.0489    5.8128   30.3598 C   0  0  0  0  0  0
   -0.1804    4.8287   30.6572 N   0  0  0  0  0  0
    0.3594    6.0525   30.4360 N   0  0  0  0  0  0
   -0.6521    6.9626   30.2069 N   0  0  0  0  0  0
   -4.8689    3.4025   30.4318 C   0  0  0  0  0  0
   -4.5646    2.0607   30.1419 C   0  0  0  0  0  0
   -5.5692    1.1033   30.0183 C   0  0  0  0  0  0
   -6.8963    1.4746   30.1936 C   0  0  0  0  0  0
   -7.2259    2.7922   30.4907 C   0  0  0  0  0  0
   -6.2184    3.7466   30.6078 C   0  0  0  0  0  0
   -7.8758    0.5503   30.0751 F   0  0  0  0  0  0
    3.4005    3.1921   27.1728 H   0  0  0  0  0  0
    1.2663    2.8921   28.3641 H   0  0  0  0  0  0
    3.0382    4.5473   31.9228 H   0  0  0  0  0  0
    5.1654    4.8639   30.7031 H   0  0  0  0  0  0
    0.1140    2.7648   30.5993 H   0  0  0  0  0  0
    0.7912    3.5665   31.9934 H   0  0  0  0  0  0
   -5.0481    6.1896   30.2084 H   0  0  0  0  0  0
   -3.5452    1.7458   29.9930 H   0  0  0  0  0  0
   -5.3228    0.0775   29.7871 H   0  0  0  0  0  0
   -8.2609    3.0684   30.6297 H   0  0  0  0  0  0
   -6.5104    4.7573   30.8433 H   0  0  0  0  0  0
  1  2  1  0  0  0
  1  6  2  0  0  0
  1  7  1  0  0  0
  2  3  2  0  0  0
  2 25  1  0  0  0
  3  4  1  0  0  0
  3 26  1  0  0  0
  4  5  2  0  0  0
  4  8  1  0  0  0
  5  6  1  0  0  0
  5 27  1  0  0  0
  6 28  1  0  0  0
  8 15  1  0  0  0
  8 29  1  0  0  0
  8 30  1  0  0  0
  9 10  1  0  0  0
  9 11  2  0  0  0
  9 17  1  0  0  0
 10 12  2  0  0  0
 10 15  1  0  0  0
 11 14  1  0  0  0
 12 13  1  0  0  0
 13 14  2  0  0  0
 13 18  1  0  0  0
 14 31  1  0  0  0
 15 16  1  0  0  0
 16 17  2  0  0  0
 18 19  1  0  0  0
 18 23  2  0  0  0
 19 20  2  0  0  0
 19 32  1  0  0  0
 20 21  1  0  0  0
 20 33  1  0  0  0
 21 22  2  0  0  0
 21 24  1  0  0  0
 22 23  1  0  0  0
 22 34  1  0  0  0
 23 35  1  0  0  0
M  END
> <s_m_entry_id>
9989

> <s_m_entry_name>
dock_pv.58

> <s_m_Source_Path>
/home/csk/Desktop/cluster/DUD-E-result/met

> <s_m_Source_File>
dock_pv.maegz

> <i_m_Source_File_Index>
58

> <chembl_id>
CHEMBL2170812

> <chembl_pref_name>
None

> <i_lp_mmshare_version>
53161

> <i_f3d_flags>
0

> <r_lp_tautomer_probability>
1

> <s_lp_Force_Field>
OPLS_2005

> <r_lp_Energy>
24.302469

> <b_lp_Chiralities_Consistent>
1

> <s_lp_Variant>
CHEMBL3717_lig1317-1

> <s_i_glide_gridfile>
glide-grid_3lq8

> <i_i_glide_lignum>
1503

> <i_i_glide_rotatable_bonds>
3

> <r_i_docking_score>
-8.81800018837549

> <r_i_glide_ligand_efficiency>
-0.367416674515645

> <r_i_glide_ligand_efficiency_sa>
-1.05981308076522

> <r_i_glide_ligand_efficiency_ln>
-2.11055207674075

> <r_i_glide_gscore>
-8.81800018837549

> <r_i_glide_lipo>
-3.27648242994846

> <r_i_glide_hbond>
-0.273358861887691

> <r_i_glide_metal>
0

> <r_i_glide_rewards>
-3.59343835662747

> <r_i_glide_evdw>
-39.7143516540527

> <r_i_glide_ecoul>
-1.33692741394043

> <r_i_glide_erotb>
0.537074387283236

> <r_i_glide_esite>
-0.0255382324014005

> <r_i_glide_emodel>
-61.663843170121

> <r_i_glide_energy>
-41.0512790679932

> <r_i_glide_einternal>
1.48255002498627

> <i_i_glide_confnum>
10

> <i_i_glide_posenum>
376

> <r_i_glide_eff_state_penalty>
0

> <s_user_duplicate_titles>
CHEMBL3717_lig1317

> <s_m_subgroup_title>
dock_pv

> <s_m_subgroupid>
dock_pv

> <b_m_subgroup_collapsed>
1

$$$$
CHEMBL3717_lig3719
                    3D
 Schrodinger Suite 2021-1.
 48 52  0  0  1  0            999 V2000
   -4.0008    0.4721   29.0771 O   0  0  0  0  0  0
   -4.1326    0.0437   30.2266 C   0  0  0  0  0  0
   -5.1750    0.3520   31.0191 N   0  0  0  0  0  0
   -5.9488    1.4634   30.7714 C   0  0  0  0  0  0
   -7.3179    1.5146   30.7462 N   0  0  0  0  0  0
   -7.8297    2.7549   30.6261 N   0  0  0  0  0  0
   -6.7147    3.5530   30.5970 C   0  0  0  0  0  0
   -6.6520    4.9518   30.5835 C   0  0  0  0  0  0
   -5.3958    5.5612   30.6085 C   0  0  0  0  0  0
   -4.2047    4.8296   30.5932 C   0  0  0  0  0  0
   -4.2583    3.4365   30.5681 C   0  0  0  0  0  0
   -5.5065    2.7982   30.6080 C   0  0  0  0  0  0
   -2.8628    5.4960   30.5896 C   0  0  0  0  0  0
   -1.6152    4.9659   30.9201 C   0  0  0  0  0  0
   -0.7143    5.9585   30.6310 N   0  0  0  0  0  0
    0.7254    5.9907   30.8825 C   0  0  0  0  0  0
    1.5644    4.9383   30.1614 C   0  0  0  0  0  0
    1.2318    4.5181   28.8716 C   0  0  0  0  0  0
    2.0516    3.6236   28.1905 C   0  0  0  0  0  0
    3.2133    3.1607   28.7949 C   0  0  0  0  0  0
    3.5470    3.5562   30.0885 C   0  0  0  0  0  0
    2.7189    4.4409   30.7740 C   0  0  0  0  0  0
   -1.3479    7.0547   30.2043 N   0  0  0  0  0  0
   -2.6967    6.7528   30.2081 N   0  0  0  0  0  0
   -3.1009   -0.8781   30.8194 C   0  0  0  0  0  0
   -2.7424   -0.7884   32.1755 C   0  0  0  0  0  0
   -1.6621   -1.5224   32.6661 C   0  0  0  0  0  0
   -0.9305   -2.3384   31.8067 C   0  0  0  0  0  0
   -1.3021   -2.4431   30.4704 C   0  0  0  0  0  0
   -2.3929   -1.7383   29.9782 C   0  0  0  0  0  0
   -5.3664   -0.2094   31.8370 H   0  0  0  0  0  0
   -7.9148    0.7050   30.8330 H   0  0  0  0  0  0
   -7.5517    5.5504   30.5702 H   0  0  0  0  0  0
   -5.3550    6.6407   30.6110 H   0  0  0  0  0  0
   -3.3515    2.8511   30.5770 H   0  0  0  0  0  0
   -1.2942    4.0049   31.2932 H   0  0  0  0  0  0
    1.1087    6.9672   30.5835 H   0  0  0  0  0  0
    0.8618    5.9232   31.9616 H   0  0  0  0  0  0
    0.3490    4.8996   28.3847 H   0  0  0  0  0  0
    1.7977    3.3045   27.1896 H   0  0  0  0  0  0
    3.8597    2.4895   28.2485 H   0  0  0  0  0  0
    4.4507    3.1874   30.5483 H   0  0  0  0  0  0
    2.9933    4.7574   31.7692 H   0  0  0  0  0  0
   -3.2592   -0.1163   32.8456 H   0  0  0  0  0  0
   -1.3740   -1.4402   33.7037 H   0  0  0  0  0  0
   -0.0956   -2.9146   32.1735 H   0  0  0  0  0  0
   -0.7586   -3.0967   29.8108 H   0  0  0  0  0  0
   -2.6470   -1.8243   28.9295 H   0  0  0  0  0  0
  1  2  2  0  0  0
  2  3  1  0  0  0
  2 25  1  0  0  0
  3 31  1  0  0  0
  3  4  1  0  0  0
  4 12  2  0  0  0
  4  5  1  0  0  0
  5 32  1  0  0  0
  5  6  1  0  0  0
  6  7  2  0  0  0
  7  8  1  0  0  0
  7 12  1  0  0  0
  8 33  1  0  0  0
  8  9  2  0  0  0
  9 34  1  0  0  0
  9 10  1  0  0  0
 10 13  1  0  0  0
 10 11  2  0  0  0
 11 35  1  0  0  0
 11 12  1  0  0  0
 13 14  2  0  0  0
 13 24  1  0  0  0
 14 15  1  0  0  0
 14 36  1  0  0  0
 15 16  1  0  0  0
 15 23  1  0  0  0
 16 17  1  0  0  0
 16 37  1  0  0  0
 16 38  1  0  0  0
 17 18  2  0  0  0
 17 22  1  0  0  0
 18 19  1  0  0  0
 18 39  1  0  0  0
 19 20  2  0  0  0
 19 40  1  0  0  0
 20 21  1  0  0  0
 20 41  1  0  0  0
 21 22  2  0  0  0
 21 42  1  0  0  0
 22 43  1  0  0  0
 23 24  2  0  0  0
 25 26  2  0  0  0
 25 30  1  0  0  0
 26 27  1  0  0  0
 26 44  1  0  0  0
 27 28  2  0  0  0
 27 45  1  0  0  0
 28 29  1  0  0  0
 28 46  1  0  0  0
 29 30  2  0  0  0
 29 47  1  0  0  0
 30 48  1  0  0  0
M  END
> <s_m_entry_id>
9990

> <s_m_entry_name>
dock_pv.59

> <s_m_Source_Path>
/home/csk/Desktop/cluster/DUD-E-result/met

> <s_m_Source_File>
dock_pv.maegz

> <i_m_Source_File_Index>
59

> <chembl_id>
CHEMBL1999931

> <chembl_pref_name>
None

> <i_lp_mmshare_version>
53161

> <i_f3d_flags>
0

> <r_lp_tautomer_probability>
0.0196078431372549

> <s_lp_Force_Field>
OPLS_2005

> <r_lp_Energy>
43.398719

> <b_lp_Chiralities_Consistent>
1

> <s_lp_Variant>
CHEMBL3717_lig3719-2

> <s_i_glide_gridfile>
glide-grid_3lq8

> <i_i_glide_lignum>
4688

> <i_i_glide_rotatable_bonds>
6

> <r_i_docking_score>
-8.81735942642302

> <r_i_glide_ligand_efficiency>
-0.293911980880767

> <r_i_glide_ligand_efficiency_sa>
-0.913252859846625

> <r_i_glide_ligand_efficiency_ln>
-2.00340013450909

> <r_i_glide_gscore>
-8.81735942642302

> <r_i_glide_lipo>
-4.73128348315751

> <r_i_glide_hbond>
0

> <r_i_glide_metal>
0

> <r_i_glide_rewards>
-1.89873750368112

> <r_i_glide_evdw>
-49.242431640625

> <r_i_glide_ecoul>
-3.19332051277161

> <r_i_glide_erotb>
0.753781219362608

> <r_i_glide_esite>
0

> <r_i_glide_emodel>
-74.3137138726782

> <r_i_glide_energy>
-52.4357521533966

> <r_i_glide_einternal>
7.54739952087402

> <i_i_glide_confnum>
9

> <i_i_glide_posenum>
161

> <r_i_glide_eff_state_penalty>
0

> <s_user_duplicate_titles>
CHEMBL3717_lig3719,CHEMBL3717_lig3719

> <s_m_subgroup_title>
dock_pv

> <s_m_subgroupid>
dock_pv

> <b_m_subgroup_collapsed>
1

$$$$
CHEMBL3717_lig3569
                    3D
 Schrodinger Suite 2021-1.
 53 57  0  0  1  0            999 V2000
   -4.3860    2.7327   30.5709 O   0  0  0  0  0  0
    4.2627    3.7004   30.4844 N   0  0  0  0  0  0
    4.3052    3.2326   29.2280 N   0  0  0  0  0  0
   -9.6932    4.9015   30.6697 N   0  0  0  0  0  0
   -3.1386    6.2306   30.6087 N   0  0  0  0  0  0
   -6.3610    0.7600   31.4953 N   0  0  0  0  0  0
    2.1641    3.6566   29.4927 C   0  0  0  0  0  0
    2.9357    3.9683   30.6508 C   0  0  0  0  0  0
    0.1747    4.4256   30.6184 C   0  0  0  0  0  0
    0.7822    3.8699   29.4902 C   0  0  0  0  0  0
    3.1054    3.1633   28.5638 C   0  0  0  0  0  0
   -1.2824    4.6679   30.6222 C   0  0  0  0  0  0
   -9.1303    3.0713   31.8560 C   0  0  0  0  0  0
   -8.7267    2.8659   30.4865 C   0  0  0  0  0  0
    2.3113    4.4909   31.7858 C   0  0  0  0  0  0
   -9.7258    4.3683   31.9398 C   0  0  0  0  0  0
    0.9429    4.7391   31.7402 C   0  0  0  0  0  0
   -2.1868    3.6026   30.6107 C   0  0  0  0  0  0
   -3.5621    3.8377   30.6053 C   0  0  0  0  0  0
   -9.1077    4.0116   29.8101 C   0  0  0  0  0  0
   -1.8083    5.9637   30.6088 C   0  0  0  0  0  0
   -7.9971    1.6681   29.8986 C   0  0  0  0  0  0
   -9.0440    2.3017   33.0300 C   0  0  0  0  0  0
  -10.2136    4.8961   33.1407 C   0  0  0  0  0  0
   -6.4996    1.5640   30.2920 C   0  0  1  0  0  0
   -3.9928    5.1763   30.6059 C   0  0  0  0  0  0
    2.9603    2.6181   27.1688 C   0  0  0  0  0  0
   -9.5297    2.8258   34.2274 C   0  0  0  0  0  0
   -5.7942    2.9271   30.4878 C   0  0  0  0  0  0
  -10.1030    4.0938   34.2768 C   0  0  0  0  0  0
    5.1787    2.9144   28.8221 H   0  0  0  0  0  0
  -10.0232    5.8094   30.3690 H   0  0  0  0  0  0
   -5.3830    0.6970   31.7390 H   0  0  0  0  0  0
   -6.8105    1.2211   32.2743 H   0  0  0  0  0  0
    0.2050    3.6140   28.6140 H   0  0  0  0  0  0
    2.8834    4.7408   32.6638 H   0  0  0  0  0  0
    0.4654    5.1633   32.6066 H   0  0  0  0  0  0
   -1.8244    2.5859   30.6047 H   0  0  0  0  0  0
   -8.9911    4.2820   28.7685 H   0  0  0  0  0  0
   -1.1531    6.8230   30.6044 H   0  0  0  0  0  0
   -8.5240    0.7391   30.1247 H   0  0  0  0  0  0
   -8.0464    1.7403   28.8104 H   0  0  0  0  0  0
   -8.6214    1.3077   33.0109 H   0  0  0  0  0  0
  -10.6621    5.8782   33.1927 H   0  0  0  0  0  0
   -5.9860    1.0176   29.4963 H   0  0  0  0  0  0
   -5.0415    5.4365   30.5946 H   0  0  0  0  0  0
    2.7249    1.5577   27.1746 H   0  0  0  0  0  0
    2.1677    3.1177   26.6109 H   0  0  0  0  0  0
    3.8805    2.7388   26.6076 H   0  0  0  0  0  0
   -9.4674    2.2328   35.1299 H   0  0  0  0  0  0
   -6.0304    3.5707   29.6388 H   0  0  0  0  0  0
   -6.1559    3.4266   31.3912 H   0  0  0  0  0  0
  -10.4865    4.4598   35.2189 H   0  0  0  0  0  0
  1 19  1  0  0  0
  1 29  1  0  0  0
  2  3  1  0  0  0
  2  8  2  0  0  0
  3 31  1  0  0  0
  3 11  1  0  0  0
  4 16  1  0  0  0
  4 20  1  0  0  0
  4 32  1  0  0  0
  5 21  1  0  0  0
  5 26  2  0  0  0
  6 25  1  0  0  0
  6 33  1  0  0  0
  6 34  1  0  0  0
  7 10  1  0  0  0
  7  8  1  0  0  0
  7 11  2  0  0  0
  8 15  1  0  0  0
  9 17  1  0  0  0
  9 12  1  0  0  0
  9 10  2  0  0  0
 10 35  1  0  0  0
 11 27  1  0  0  0
 12 18  1  0  0  0
 12 21  2  0  0  0
 13 14  1  0  0  0
 13 16  1  0  0  0
 13 23  2  0  0  0
 14 20  2  0  0  0
 14 22  1  0  0  0
 15 36  1  0  0  0
 15 17  2  0  0  0
 16 24  2  0  0  0
 17 37  1  0  0  0
 18 19  2  0  0  0
 18 38  1  0  0  0
 19 26  1  0  0  0
 20 39  1  0  0  0
 21 40  1  0  0  0
 22 25  1  0  0  0
 22 41  1  0  0  0
 22 42  1  0  0  0
 23 28  1  0  0  0
 23 43  1  0  0  0
 24 30  1  0  0  0
 24 44  1  0  0  0
 25 29  1  0  0  0
 25 45  1  0  0  0
 26 46  1  0  0  0
 27 47  1  0  0  0
 27 48  1  0  0  0
 27 49  1  0  0  0
 28 30  2  0  0  0
 28 50  1  0  0  0
 29 51  1  0  0  0
 29 52  1  0  0  0
 30 53  1  0  0  0
M  END
> <s_m_entry_id>
9991

> <s_m_entry_name>
dock_pv.60

> <s_m_Source_Path>
/home/csk/Desktop/cluster/DUD-E-result/met

> <s_m_Source_File>
dock_pv.maegz

> <i_m_Source_File_Index>
60

> <chembl_id>
CHEMBL1970903

> <chembl_pref_name>
None

> <i_lp_mmshare_version>
53161

> <i_f3d_flags>
0

> <r_lp_tautomer_probability>
0.0196078431372549

> <s_lp_Force_Field>
OPLS_2005

> <r_lp_Energy>
39.523246

> <b_lp_Chiralities_Consistent>
1

> <s_lp_Variant>
CHEMBL3717_lig3569-4

> <s_i_glide_gridfile>
glide-grid_3lq8

> <i_i_glide_lignum>
4427

> <i_i_glide_rotatable_bonds>
6

> <r_i_docking_score>
-8.80765386342126

> <r_i_glide_ligand_efficiency>
-0.293588462114042

> <r_i_glide_ligand_efficiency_sa>
-0.91224761181951

> <r_i_glide_ligand_efficiency_ln>
-2.00119492484451

> <r_i_glide_gscore>
-8.80765386342126

> <r_i_glide_lipo>
-3.76366089093946

> <r_i_glide_hbond>
-0.32

> <r_i_glide_metal>
0

> <r_i_glide_rewards>
-2.290702567976

> <r_i_glide_evdw>
-41.3352432250977

> <r_i_glide_ecoul>
-6.41758823394775

> <r_i_glide_erotb>
0.619527056367689

> <r_i_glide_esite>
-0.0234170645264486

> <r_i_glide_emodel>
-64.1487133033539

> <r_i_glide_energy>
-47.7528314590454

> <r_i_glide_einternal>
12.4779577255249

> <i_i_glide_confnum>
7

> <i_i_glide_posenum>
123

> <r_i_glide_eff_state_penalty>
0

> <s_user_duplicate_titles>
CHEMBL3717_lig3569

> <s_m_subgroup_title>
dock_pv

> <s_m_subgroupid>
dock_pv

> <b_m_subgroup_collapsed>
1

$$$$
CHEMBL3717_lig3662
                    3D
 Schrodinger Suite 2021-1.
 27 29  0  0  1  0            999 V2000
    3.1060    2.7570   28.0885 Cl  0  0  0  0  0  0
    4.4187    2.3570   31.0080 Cl  0  0  0  0  0  0
   -0.1411    7.0422   30.0671 N   0  0  0  0  0  0
   -1.3110    7.6582   29.9968 N   0  0  0  0  0  0
   -3.9327    4.3905   30.2080 N   0  0  0  0  0  0
   -4.1850    2.0165   30.5896 N   0  0  0  0  0  0
   -0.4352    5.7947   30.3555 C   0  0  0  0  0  0
   -1.8352    5.5702   30.4499 C   0  0  0  0  0  0
    0.6990    4.8595   30.4907 C   0  0  0  0  0  0
   -2.6285    4.3112   30.6080 C   0  0  0  0  0  0
   -2.3673    6.8255   30.2290 C   0  0  0  0  0  0
    1.2678    4.2462   29.3727 C   0  0  0  0  0  0
    1.2556    4.6579   31.7509 C   0  0  0  0  0  0
    2.4097    3.4566   29.5082 C   0  0  0  0  0  0
    2.9727    3.2674   30.7786 C   0  0  0  0  0  0
    2.3779    3.8506   31.8962 C   0  0  0  0  0  0
   -2.0703    3.1030   31.0357 C   0  0  0  0  0  0
   -4.6442    3.2345   30.2088 C   0  0  0  0  0  0
   -2.8940    1.9730   31.0080 C   0  0  0  0  0  0
   -1.3656    8.6490   29.7875 H   0  0  0  0  0  0
   -3.3934    7.1570   30.2080 H   0  0  0  0  0  0
    0.8462    4.4099   28.3930 H   0  0  0  0  0  0
    0.8351    5.1570   32.6080 H   0  0  0  0  0  0
    2.7957    3.6973   32.8778 H   0  0  0  0  0  0
   -1.0444    3.0347   31.3587 H   0  0  0  0  0  0
   -5.6764    3.2910   29.8967 H   0  0  0  0  0  0
   -2.5306    1.0079   31.3283 H   0  0  0  0  0  0
  1 14  1  0  0  0
  2 15  1  0  0  0
  3  4  1  0  0  0
  3  7  2  0  0  0
  4 11  1  0  0  0
  4 20  1  0  0  0
  5 10  1  0  0  0
  5 18  2  0  0  0
  6 18  1  0  0  0
  6 19  2  0  0  0
  7  8  1  0  0  0
  7  9  1  0  0  0
  8 10  1  0  0  0
  8 11  2  0  0  0
  9 12  1  0  0  0
  9 13  2  0  0  0
 10 17  2  0  0  0
 11 21  1  0  0  0
 12 14  2  0  0  0
 12 22  1  0  0  0
 13 16  1  0  0  0
 13 23  1  0  0  0
 14 15  1  0  0  0
 15 16  2  0  0  0
 16 24  1  0  0  0
 17 19  1  0  0  0
 17 25  1  0  0  0
 18 26  1  0  0  0
 19 27  1  0  0  0
M  END
> <s_m_entry_id>
9992

> <s_m_entry_name>
dock_pv.61

> <s_m_Source_Path>
/home/csk/Desktop/cluster/DUD-E-result/met

> <s_m_Source_File>
dock_pv.maegz

> <i_m_Source_File_Index>
61

> <chembl_id>
CHEMBL1984191

> <chembl_pref_name>
None

> <i_lp_mmshare_version>
53161

> <i_f3d_flags>
0

> <r_lp_tautomer_probability>
0.5

> <s_lp_Force_Field>
OPLS_2005

> <r_lp_Energy>
10.31713

> <b_lp_Chiralities_Consistent>
1

> <s_lp_Variant>
CHEMBL3717_lig3662-1

> <s_i_glide_gridfile>
glide-grid_3lq8

> <i_i_glide_lignum>
4597

> <i_i_glide_rotatable_bonds>
2

> <r_i_docking_score>
-8.80484277433818

> <r_i_glide_ligand_efficiency>
-0.463412777596746

> <r_i_glide_ligand_efficiency_sa>
-1.2365714185643

> <r_i_glide_ligand_efficiency_ln>
-2.23221675397774

> <r_i_glide_gscore>
-8.80484277433818

> <r_i_glide_lipo>
-3.86495813314052

> <r_i_glide_hbond>
-0.32

> <r_i_glide_metal>
0

> <r_i_glide_rewards>
-3.37728356007847

> <r_i_glide_evdw>
-33.6167678833008

> <r_i_glide_ecoul>
0.0528883151710033

> <r_i_glide_erotb>
0.430304065770198

> <r_i_glide_esite>
0

> <r_i_glide_emodel>
-48.4368640534681

> <r_i_glide_energy>
-33.5638795681298

> <r_i_glide_einternal>
4.376784324646

> <i_i_glide_confnum>
6

> <i_i_glide_posenum>
86

> <r_i_glide_eff_state_penalty>
0

> <s_user_duplicate_titles>
CHEMBL3717_lig3662

> <s_m_subgroup_title>
dock_pv

> <s_m_subgroupid>
dock_pv

> <b_m_subgroup_collapsed>
1

$$$$
CHEMBL3717_lig4054
                    3D
 Schrodinger Suite 2021-1.
 29 31  0  0  1  0            999 V2000
   -4.4872    2.8295   30.2711 S   0  0  0  0  0  0
    2.2168    3.9548   27.4079 F   0  0  0  0  0  0
   -0.0771    4.9936   31.5207 O   0  0  0  0  0  0
   -2.7033   -0.0441   32.2035 O   0  0  0  0  0  0
   -3.0900    6.6572   30.2515 N   0  0  0  0  0  0
   -4.0465   -0.2129   30.4199 N   0  0  0  0  0  0
   -2.2485    4.0699   30.9617 C   0  0  0  0  0  0
   -3.5680    4.3152   30.4805 C   0  0  0  0  0  0
   -1.3467    5.1568   31.0082 C   0  0  0  0  0  0
   -3.1767    1.9093   31.0077 C   0  0  0  0  0  0
   -2.0940    2.7152   31.3402 C   0  0  0  0  0  0
   -3.9658    5.6262   30.2000 C   0  0  0  0  0  0
   -1.8111    6.4063   30.6077 C   0  0  0  0  0  0
   -3.2941    0.4901   31.2680 C   0  0  0  0  0  0
    0.9375    4.4006   30.8016 C   0  0  0  0  0  0
    1.0431    4.4765   29.4073 C   0  0  0  0  0  0
    1.9405    3.7470   31.5225 C   0  0  0  0  0  0
    2.1195    3.8812   28.7504 C   0  0  0  0  0  0
    3.0175    3.1525   30.8646 C   0  0  0  0  0  0
    3.1047    3.2182   29.4766 C   0  0  0  0  0  0
   -4.4986    0.2269   29.6329 H   0  0  0  0  0  0
   -4.1232   -1.2107   30.5468 H   0  0  0  0  0  0
   -1.1915    2.3571   31.8085 H   0  0  0  0  0  0
   -4.9614    5.8545   29.8476 H   0  0  0  0  0  0
   -1.1488    7.2600   30.6082 H   0  0  0  0  0  0
    0.3060    5.0067   28.8290 H   0  0  0  0  0  0
    1.8778    3.7010   32.5997 H   0  0  0  0  0  0
    3.7827    2.6352   31.4222 H   0  0  0  0  0  0
    3.9354    2.7595   28.9597 H   0  0  0  0  0  0
  1  8  1  0  0  0
  1 10  1  0  0  0
  2 18  1  0  0  0
  3  9  1  0  0  0
  3 15  1  0  0  0
  4 14  2  0  0  0
  5 12  1  0  0  0
  5 13  2  0  0  0
  6 14  1  0  0  0
  6 21  1  0  0  0
  6 22  1  0  0  0
  7  8  1  0  0  0
  7  9  2  0  0  0
  7 11  1  0  0  0
  8 12  2  0  0  0
  9 13  1  0  0  0
 10 11  2  0  0  0
 10 14  1  0  0  0
 11 23  1  0  0  0
 12 24  1  0  0  0
 13 25  1  0  0  0
 15 16  1  0  0  0
 15 17  2  0  0  0
 16 18  2  0  0  0
 16 26  1  0  0  0
 17 19  1  0  0  0
 17 27  1  0  0  0
 18 20  1  0  0  0
 19 20  2  0  0  0
 19 28  1  0  0  0
 20 29  1  0  0  0
M  END
> <s_m_entry_id>
9993

> <s_m_entry_name>
dock_pv.62

> <s_m_Source_Path>
/home/csk/Desktop/cluster/DUD-E-result/met

> <s_m_Source_File>
dock_pv.maegz

> <i_m_Source_File_Index>
62

> <chembl_id>
CHEMBL1964777

> <chembl_pref_name>
None

> <i_lp_mmshare_version>
53161

> <i_f3d_flags>
0

> <r_lp_tautomer_probability>
1

> <s_lp_Force_Field>
OPLS_2005

> <r_lp_Energy>
8.385267

> <b_lp_Chiralities_Consistent>
1

> <s_lp_Variant>
CHEMBL3717_lig4054-1

> <s_i_glide_gridfile>
glide-grid_3lq8

> <i_i_glide_lignum>
5170

> <i_i_glide_rotatable_bonds>
3

> <r_i_docking_score>
-8.80433122128874

> <r_i_glide_ligand_efficiency>
-0.440216561064437

> <r_i_glide_ligand_efficiency_sa>
-1.1949315872769

> <r_i_glide_ligand_efficiency_ln>
-2.20343371841021

> <r_i_glide_gscore>
-8.80433122128874

> <r_i_glide_lipo>
-3.79253675161808

> <r_i_glide_hbond>
-0.218159837087807

> <r_i_glide_metal>
0

> <r_i_glide_rewards>
-3.32338782984865

> <r_i_glide_evdw>
-32.2443962097168

> <r_i_glide_ecoul>
-1.97160136699677

> <r_i_glide_erotb>
0.437713212801148

> <r_i_glide_esite>
0

> <r_i_glide_emodel>
-48.0727257808226

> <r_i_glide_energy>
-34.2159975767136

> <r_i_glide_einternal>
3.43365406990051

> <i_i_glide_confnum>
2

> <i_i_glide_posenum>
74

> <r_i_glide_eff_state_penalty>
0

> <s_user_duplicate_titles>
CHEMBL3717_lig4054

> <s_m_subgroup_title>
dock_pv

> <s_m_subgroupid>
dock_pv

> <b_m_subgroup_collapsed>
1

$$$$
CHEMBL3717_lig1570
                    3D
 Schrodinger Suite 2021-1.
 58 61  0  0  1  0            999 V2000
   -3.9149    4.5641   30.6069 C   0  0  0  0  0  0
   -4.7919    5.5855   30.9776 C   0  0  0  0  0  0
   -6.1404    5.4434   30.9912 N   0  0  0  0  0  0
   -6.6647    4.2558   30.6078 C   0  0  0  0  0  0
   -5.8590    3.1613   30.2541 C   0  0  0  0  0  0
   -4.4756    3.3330   30.2395 C   0  0  0  0  0  0
   -2.4377    4.7623   30.6183 C   0  0  0  0  0  0
   -8.0542    4.1870   30.5792 N   0  0  0  0  0  0
   -1.6990    5.9567   30.6081 C   0  0  0  0  0  0
   -0.3986    5.7727   30.5823 N   0  0  0  0  0  0
   -0.2415    4.4386   30.6024 N   0  0  0  0  0  0
   -1.4495    3.7900   30.6335 C   0  0  0  0  0  0
    1.0860    3.8152   30.4971 C   0  0  0  0  0  0
   -6.5264    1.5660   29.8710 S   0  0  0  0  0  0
   -5.9866    0.4789   31.2335 C   0  0  2  0  0  0
   -5.0984   -0.6745   30.7224 C   0  0  0  0  0  0
   -7.1368    0.0091   32.1453 C   0  0  0  0  0  0
   -5.6173   -1.6631   29.8530 C   0  0  0  0  0  0
   -4.8036   -2.6981   29.3992 C   0  0  0  0  0  0
   -3.4704   -2.7643   29.7673 C   0  0  0  0  0  0
   -2.9445   -1.8242   30.6423 C   0  0  0  0  0  0
   -3.7421   -0.7785   31.1188 C   0  0  0  0  0  0
   -2.9925    0.3543   32.1994 Cl  0  0  0  0  0  0
   -7.2576   -1.6734   29.2935 Cl  0  0  0  0  0  0
   -1.6553   -1.9457   31.0348 F   0  0  0  0  0  0
    1.6627    4.0671   29.0924 C   0  0  0  0  0  0
    3.0922    3.5001   28.9512 C   0  0  0  0  0  0
    3.9469    4.0469   30.0364 N   0  0  0  0  0  0
    3.4720    3.8346   31.4266 C   0  0  0  0  0  0
    2.0421    4.4042   31.5456 C   0  0  0  0  0  0
    5.1809    4.5389   29.7263 C   0  0  0  0  0  0
    5.5364    4.7178   28.5584 O   0  0  0  0  0  0
    6.2180    4.9005   30.8144 C   0  0  0  0  0  0
    7.3992    4.1424   30.6079 O   0  0  0  0  0  0
   -4.4244    6.5499   31.2894 H   0  0  0  0  0  0
   -3.8381    2.5058   29.9593 H   0  0  0  0  0  0
   -8.4806    3.3495   30.2114 H   0  0  0  0  0  0
   -8.5693    5.0554   30.6292 H   0  0  0  0  0  0
   -2.1089    6.9549   30.5972 H   0  0  0  0  0  0
   -1.4991    2.7121   30.6318 H   0  0  0  0  0  0
    0.9059    2.7574   30.6797 H   0  0  0  0  0  0
   -5.3929    1.1251   31.8722 H   0  0  0  0  0  0
   -6.7831   -0.6749   32.9163 H   0  0  0  0  0  0
   -7.6001    0.8583   32.6501 H   0  0  0  0  0  0
   -7.9282   -0.5002   31.5973 H   0  0  0  0  0  0
   -5.2018   -3.4506   28.7387 H   0  0  0  0  0  0
   -2.8556   -3.5781   29.4051 H   0  0  0  0  0  0
    1.6139    5.1196   28.8013 H   0  0  0  0  0  0
    1.0533    3.5352   28.3622 H   0  0  0  0  0  0
    3.4614    3.7266   27.9500 H   0  0  0  0  0  0
    3.0575    2.4144   29.0691 H   0  0  0  0  0  0
    3.4637    2.7630   31.6318 H   0  0  0  0  0  0
    4.0315    4.3616   32.1928 H   0  0  0  0  0  0
    1.6860    4.1335   32.5403 H   0  0  0  0  0  0
    2.0444    5.4944   31.5165 H   0  0  0  0  0  0
    5.9065    4.7568   31.8414 H   0  0  0  0  0  0
    6.4766    5.9566   30.7161 H   0  0  0  0  0  0
    7.6243    4.1998   29.6721 H   0  0  0  0  0  0
  1  2  2  0  0  0
  1  6  1  0  0  0
  1  7  1  0  0  0
  2  3  1  0  0  0
  2 35  1  0  0  0
  3  4  2  0  0  0
  4  5  1  0  0  0
  4  8  1  0  0  0
  5  6  2  0  0  0
  5 14  1  0  0  0
  6 36  1  0  0  0
  7  9  1  0  0  0
  7 12  2  0  0  0
  8 37  1  0  0  0
  8 38  1  0  0  0
  9 10  2  0  0  0
  9 39  1  0  0  0
 10 11  1  0  0  0
 11 12  1  0  0  0
 11 13  1  0  0  0
 12 40  1  0  0  0
 13 26  1  0  0  0
 13 30  1  0  0  0
 13 41  1  0  0  0
 14 15  1  0  0  0
 15 16  1  0  0  0
 15 17  1  0  0  0
 15 42  1  0  0  0
 16 18  2  0  0  0
 16 22  1  0  0  0
 17 43  1  0  0  0
 17 44  1  0  0  0
 17 45  1  0  0  0
 18 19  1  0  0  0
 18 24  1  0  0  0
 19 20  2  0  0  0
 19 46  1  0  0  0
 20 21  1  0  0  0
 20 47  1  0  0  0
 21 22  2  0  0  0
 21 25  1  0  0  0
 22 23  1  0  0  0
 26 27  1  0  0  0
 26 48  1  0  0  0
 26 49  1  0  0  0
 27 28  1  0  0  0
 27 50  1  0  0  0
 27 51  1  0  0  0
 28 29  1  0  0  0
 28 31  1  0  0  0
 29 30  1  0  0  0
 29 52  1  0  0  0
 29 53  1  0  0  0
 30 54  1  0  0  0
 30 55  1  0  0  0
 31 32  2  0  0  0
 31 33  1  0  0  0
 33 34  1  0  0  0
 33 56  1  0  0  0
 33 57  1  0  0  0
 34 58  1  0  0  0
M  END
> <s_m_entry_id>
9994

> <s_m_entry_name>
dock_pv.63

> <s_m_Source_Path>
/home/csk/Desktop/cluster/DUD-E-result/met

> <s_m_Source_File>
dock_pv.maegz

> <i_m_Source_File_Index>
63

> <chembl_id>
CHEMBL2442134

> <chembl_pref_name>
None

> <i_lp_mmshare_version>
53161

> <i_f3d_flags>
0

> <r_lp_tautomer_probability>
0.999999772200052

> <s_lp_Force_Field>
OPLS_2005

> <r_lp_Energy>
39.776658

> <b_lp_Chiralities_Consistent>
1

> <s_lp_Variant>
CHEMBL3717_lig1570-1

> <s_i_glide_gridfile>
glide-grid_3lq8

> <i_i_glide_lignum>
1814

> <i_i_glide_rotatable_bonds>
8

> <r_i_docking_score>
-8.8010135599971

> <r_i_glide_ligand_efficiency>
-0.258853339999915

> <r_i_glide_ligand_efficiency_sa>
-0.8385843340781

> <r_i_glide_ligand_efficiency_ln>
-1.94439075547201

> <r_i_glide_gscore>
-8.8010135599971

> <r_i_glide_lipo>
-4.05285479983109

> <r_i_glide_hbond>
0

> <r_i_glide_metal>
0

> <r_i_glide_rewards>
-2.15077928635918

> <r_i_glide_evdw>
-53.956298828125

> <r_i_glide_ecoul>
-2.82173871994019

> <r_i_glide_erotb>
0.523696275590443

> <r_i_glide_esite>
0

> <r_i_glide_emodel>
-79.6295032681657

> <r_i_glide_energy>
-56.7780375480652

> <r_i_glide_einternal>
11.6498289108276

> <i_i_glide_confnum>
14

> <i_i_glide_posenum>
89

> <r_i_glide_eff_state_penalty>
0

> <s_user_duplicate_titles>
CHEMBL3717_lig1570

> <s_m_subgroup_title>
dock_pv

> <s_m_subgroupid>
dock_pv

> <b_m_subgroup_collapsed>
1

$$$$
CHEMBL3717_lig3904
                    3D
 Schrodinger Suite 2021-1.
 41 44  0  0  1  0            999 V2000
   -1.7234   -0.9764   32.7862 O   0  0  0  0  0  0
   -4.2452    1.7804   30.0239 N   0  0  0  0  0  0
   -3.0828   -1.9304   31.2741 N   0  0  0  0  0  0
   -3.3392    6.8543   30.6045 N   0  0  0  0  0  0
   -2.9524    0.3932   31.2279 C   0  0  0  0  0  0
   -3.3296    2.5792   30.6675 C   0  0  0  0  0  0
   -4.0584    0.4748   30.3940 C   0  0  0  0  0  0
   -2.5243    1.7211   31.4088 C   0  0  0  0  0  0
   -3.3220    4.0628   30.6080 C   0  0  0  0  0  0
   -2.4942   -0.8431   31.8373 C   0  0  0  0  0  0
   -4.8038   -0.7426   29.8985 C   0  0  0  0  0  0
   -2.1188    4.7815   30.6080 C   0  0  0  0  0  0
   -4.5319    4.7617   30.6012 C   0  0  0  0  0  0
   -2.1620    6.1817   30.5225 C   0  0  0  0  0  0
   -3.8063   -1.9318   29.9802 C   0  0  0  0  0  0
   -4.4939    6.1498   30.6124 C   0  0  0  0  0  0
   -1.0012    7.0506   30.2123 C   0  0  0  0  0  0
    0.3127    6.7696   30.0919 C   0  0  0  0  0  0
    1.0032    5.4966   30.3086 C   0  0  0  0  0  0
    1.3572    5.1075   31.6026 C   0  0  0  0  0  0
    1.3795    4.7144   29.2147 C   0  0  0  0  0  0
    2.0793    3.9353   31.8057 C   0  0  0  0  0  0
    2.0951    3.5372   29.4167 C   0  0  0  0  0  0
    2.4451    3.1562   30.7103 C   0  0  0  0  0  0
   -4.9756    2.1106   29.4111 H   0  0  0  0  0  0
   -2.9283   -2.8171   31.7296 H   0  0  0  0  0  0
   -1.7168    2.0293   32.0583 H   0  0  0  0  0  0
   -5.1817   -0.6223   28.8835 H   0  0  0  0  0  0
   -5.6715   -0.9444   30.5270 H   0  0  0  0  0  0
   -1.1887    4.2377   30.5673 H   0  0  0  0  0  0
   -5.4808    4.2451   30.6126 H   0  0  0  0  0  0
   -4.3292   -2.8815   29.8576 H   0  0  0  0  0  0
   -3.0767   -1.8731   29.1706 H   0  0  0  0  0  0
   -5.4081    6.7279   30.6083 H   0  0  0  0  0  0
   -1.2577    8.0853   30.0235 H   0  0  0  0  0  0
    0.9670    7.5804   29.8090 H   0  0  0  0  0  0
    1.1022    5.7233   32.4529 H   0  0  0  0  0  0
    1.1206    5.0138   28.2088 H   0  0  0  0  0  0
    2.3576    3.6373   32.8054 H   0  0  0  0  0  0
    2.3800    2.9234   28.5750 H   0  0  0  0  0  0
    3.0014    2.2423   30.8631 H   0  0  0  0  0  0
  1 10  2  0  0  0
  2  6  1  0  0  0
  2  7  1  0  0  0
  2 25  1  0  0  0
  3 10  1  0  0  0
  3 15  1  0  0  0
  3 26  1  0  0  0
  4 14  1  0  0  0
  4 16  2  0  0  0
  5  7  2  0  0  0
  5  8  1  0  0  0
  5 10  1  0  0  0
  6  8  2  0  0  0
  6  9  1  0  0  0
  7 11  1  0  0  0
  8 27  1  0  0  0
  9 12  1  0  0  0
  9 13  2  0  0  0
 11 15  1  0  0  0
 11 28  1  0  0  0
 11 29  1  0  0  0
 12 14  2  0  0  0
 12 30  1  0  0  0
 13 16  1  0  0  0
 13 31  1  0  0  0
 14 17  1  0  0  0
 15 32  1  0  0  0
 15 33  1  0  0  0
 16 34  1  0  0  0
 17 18  2  3  0  0
 17 35  1  0  0  0
 18 19  1  0  0  0
 18 36  1  0  0  0
 19 20  2  0  0  0
 19 21  1  0  0  0
 20 22  1  0  0  0
 20 37  1  0  0  0
 21 23  2  0  0  0
 21 38  1  0  0  0
 22 24  2  0  0  0
 22 39  1  0  0  0
 23 24  1  0  0  0
 23 40  1  0  0  0
 24 41  1  0  0  0
M  END
> <s_m_entry_id>
9995

> <s_m_entry_name>
dock_pv.64

> <s_m_Source_Path>
/home/csk/Desktop/cluster/DUD-E-result/met

> <s_m_Source_File>
dock_pv.maegz

> <i_m_Source_File_Index>
64

> <chembl_id>
CHEMBL1997129

> <chembl_pref_name>
None

> <i_lp_mmshare_version>
53161

> <i_f3d_flags>
0

> <r_lp_tautomer_probability>
1

> <s_lp_Force_Field>
OPLS_2005

> <r_lp_Energy>
27.263764

> <b_lp_Chiralities_Consistent>
1

> <s_lp_Variant>
CHEMBL3717_lig3904-2

> <s_i_glide_gridfile>
glide-grid_3lq8

> <i_i_glide_lignum>
4956

> <i_i_glide_rotatable_bonds>
3

> <r_i_docking_score>
-8.79060186707534

> <r_i_glide_ligand_efficiency>
-0.366275077794806

> <r_i_glide_ligand_efficiency_sa>
-1.05652014600852

> <r_i_glide_ligand_efficiency_ln>
-2.10399440122658

> <r_i_glide_gscore>
-8.79060186707534

> <r_i_glide_lipo>
-4.03551764436136

> <r_i_glide_hbond>
-0.284795672942198

> <r_i_glide_metal>
0

> <r_i_glide_rewards>
-2.77439679389498

> <r_i_glide_evdw>
-38.981014251709

> <r_i_glide_ecoul>
-2.05289936065674

> <r_i_glide_erotb>
0.561093860807163

> <r_i_glide_esite>
0

> <r_i_glide_emodel>
-51.0728704459034

> <r_i_glide_energy>
-41.0339136123657

> <r_i_glide_einternal>
10.2101650238037

> <i_i_glide_confnum>
9

> <i_i_glide_posenum>
224

> <r_i_glide_eff_state_penalty>
0

> <s_user_duplicate_titles>
CHEMBL3717_lig3904

> <s_m_subgroup_title>
dock_pv

> <s_m_subgroupid>
dock_pv

> <b_m_subgroup_collapsed>
1

$$$$
CHEMBL3717_lig316
                    3D
 Schrodinger Suite 2021-1.
 34 37  0  0  1  0            999 V2000
   -3.8141    2.7740   30.6076 C   0  0  0  0  0  0
   -4.6654    3.8430   30.2821 C   0  0  0  0  0  0
   -4.1672    5.1468   30.2081 C   0  0  0  0  0  0
   -2.0382    4.2052   30.7756 N   0  0  0  0  0  0
   -2.7947    5.3339   30.4244 C   0  0  0  0  0  0
   -1.9797    6.4068   30.3256 N   0  0  0  0  0  0
   -0.6986    5.9550   30.6087 N   0  0  0  0  0  0
   -0.7466    4.6718   30.9176 C   0  0  0  0  0  0
    0.4277    3.8136   31.3743 C   0  0  0  0  0  0
    1.6682    3.9078   30.4999 C   0  0  0  0  0  0
    2.8781    4.3159   31.0678 C   0  0  0  0  0  0
    4.0331    4.3443   30.2955 C   0  0  0  0  0  0
    3.9710    3.9593   28.9610 C   0  0  0  0  0  0
    2.7709    3.5568   28.3828 C   0  0  0  0  0  0
    1.6119    3.5363   29.1534 C   0  0  0  0  0  0
    5.1061    3.9996   28.2068 O   0  0  0  0  0  0
   -4.3051    1.3513   30.6083 C   0  0  0  0  0  0
   -5.5992    0.9446   30.2595 C   0  0  0  0  0  0
   -5.8446   -0.7680   30.3342 S   0  0  0  0  0  0
   -4.2061   -0.9852   30.8436 C   0  0  0  0  0  0
   -3.5302    0.2214   30.9505 C   0  0  0  0  0  0
   -2.4926    2.9446   30.9023 N   0  0  0  0  0  0
   -5.7128    3.6783   30.0731 H   0  0  0  0  0  0
   -4.8081    5.9719   29.9302 H   0  0  0  0  0  0
    0.1503    2.7581   31.4080 H   0  0  0  0  0  0
    0.7059    4.0776   32.3961 H   0  0  0  0  0  0
    2.9304    4.6054   32.1082 H   0  0  0  0  0  0
    4.9693    4.6649   30.7280 H   0  0  0  0  0  0
    2.7357    3.2648   27.3449 H   0  0  0  0  0  0
    0.6801    3.2100   28.7092 H   0  0  0  0  0  0
    5.6075    3.1706   28.2094 H   0  0  0  0  0  0
   -6.4265    1.5651   29.9484 H   0  0  0  0  0  0
   -3.8261   -1.9803   31.0300 H   0  0  0  0  0  0
   -2.4965    0.2804   31.2554 H   0  0  0  0  0  0
  1  2  1  0  0  0
  1 17  1  0  0  0
  1 22  2  0  0  0
  2  3  2  0  0  0
  2 23  1  0  0  0
  3  5  1  0  0  0
  3 24  1  0  0  0
  4  5  1  0  0  0
  4 22  1  0  0  0
  4  8  1  0  0  0
  5  6  2  0  0  0
  6  7  1  0  0  0
  7  8  2  0  0  0
  8  9  1  0  0  0
  9 10  1  0  0  0
  9 25  1  0  0  0
  9 26  1  0  0  0
 10 11  2  0  0  0
 10 15  1  0  0  0
 11 12  1  0  0  0
 11 27  1  0  0  0
 12 13  2  0  0  0
 12 28  1  0  0  0
 13 14  1  0  0  0
 13 16  1  0  0  0
 14 15  2  0  0  0
 14 29  1  0  0  0
 15 30  1  0  0  0
 16 31  1  0  0  0
 17 18  2  0  0  0
 17 21  1  0  0  0
 18 19  1  0  0  0
 18 32  1  0  0  0
 19 20  1  0  0  0
 20 21  2  0  0  0
 20 33  1  0  0  0
 21 34  1  0  0  0
M  END
> <s_m_entry_id>
9996

> <s_m_entry_name>
dock_pv.65

> <s_m_Source_Path>
/home/csk/Desktop/cluster/DUD-E-result/met

> <s_m_Source_File>
dock_pv.maegz

> <i_m_Source_File_Index>
65

> <chembl_id>
CHEMBL497117

> <chembl_pref_name>
None

> <i_lp_mmshare_version>
53161

> <i_f3d_flags>
0

> <r_lp_tautomer_probability>
0.999999999997365

> <s_lp_Force_Field>
OPLS_2005

> <r_lp_Energy>
13.836227

> <b_lp_Chiralities_Consistent>
1

> <s_lp_Variant>
CHEMBL3717_lig316-1

> <s_i_glide_gridfile>
glide-grid_3lq8

> <i_i_glide_lignum>
332

> <i_i_glide_rotatable_bonds>
4

> <r_i_docking_score>
-8.78176841146102

> <r_i_glide_ligand_efficiency>
-0.399171291430046

> <r_i_glide_ligand_efficiency_sa>
-1.11849365710306

> <r_i_glide_ligand_efficiency_ln>
-2.14658452254684

> <r_i_glide_gscore>
-8.78176841146102

> <r_i_glide_lipo>
-2.97176984706699

> <r_i_glide_hbond>
-0.32

> <r_i_glide_metal>
0

> <r_i_glide_rewards>
-3.16313921454459

> <r_i_glide_evdw>
-37.3836364746094

> <r_i_glide_ecoul>
-6.94251394271851

> <r_i_glide_erotb>
0.583699565288799

> <r_i_glide_esite>
0

> <r_i_glide_emodel>
-63.6763740199833

> <r_i_glide_energy>
-44.3261504173279

> <r_i_glide_einternal>
4.46113920211792

> <i_i_glide_confnum>
6

> <i_i_glide_posenum>
13

> <r_i_glide_eff_state_penalty>
0

> <s_user_duplicate_titles>
CHEMBL3717_lig316,486795

> <s_m_subgroup_title>
dock_pv

> <s_m_subgroupid>
dock_pv

> <b_m_subgroup_collapsed>
1

$$$$
CHEMBL3717_lig3892
                    3D
 Schrodinger Suite 2021-1.
 29 31  0  0  1  0            999 V2000
   -3.2939    7.4356   30.6081 O   0  0  0  0  0  0
   -3.1720    0.2659   30.7732 O   0  0  0  0  0  0
   -4.5662    5.5699   30.3381 N   0  0  0  0  0  0
    1.1054    5.0216   31.8077 N   0  0  0  0  0  0
    1.7036    3.2729   30.5718 N   0  0  0  0  0  0
   -3.0987    3.9188   30.6080 C   0  0  0  0  0  0
   -2.3908    5.1971   30.7174 C   0  0  0  0  0  0
   -4.4220    4.2085   30.3643 C   0  0  0  0  0  0
   -3.4161    6.2151   30.5802 C   0  0  0  0  0  0
   -2.7094    2.5890   30.7485 C   0  0  0  0  0  0
   -1.0957    5.5572   30.8962 C   0  0  0  0  0  0
   -5.3798    3.2099   30.2080 C   0  0  0  0  0  0
   -3.6424    1.5531   30.6073 C   0  0  0  0  0  0
    0.1060    4.7451   30.9738 C   0  0  0  0  0  0
   -4.9820    1.8766   30.3201 C   0  0  0  0  0  0
    0.4577    3.6635   30.1700 C   0  0  0  0  0  0
    2.0412    4.1333   31.5762 C   0  0  0  0  0  0
   -4.0195   -0.8305   30.4433 C   0  0  0  0  0  0
   -5.4217    6.0569   30.1076 H   0  0  0  0  0  0
    2.2563    2.5136   30.1975 H   0  0  0  0  0  0
   -1.6893    2.3557   30.9944 H   0  0  0  0  0  0
   -0.8607    6.6097   30.9852 H   0  0  0  0  0  0
   -6.4153    3.4477   30.0129 H   0  0  0  0  0  0
   -5.7293    1.1064   30.2052 H   0  0  0  0  0  0
   -0.0499    3.1595   29.3585 H   0  0  0  0  0  0
    2.9970    4.0520   32.0721 H   0  0  0  0  0  0
   -3.4638   -1.7619   30.5541 H   0  0  0  0  0  0
   -4.8825   -0.8821   31.1087 H   0  0  0  0  0  0
   -4.3653   -0.7754   29.4095 H   0  0  0  0  0  0
  1  9  2  0  0  0
  2 13  1  0  0  0
  2 18  1  0  0  0
  3  8  1  0  0  0
  3  9  1  0  0  0
  3 19  1  0  0  0
  4 14  1  0  0  0
  4 17  2  0  0  0
  5 16  1  0  0  0
  5 17  1  0  0  0
  5 20  1  0  0  0
  6  7  1  0  0  0
  6  8  1  0  0  0
  6 10  2  0  0  0
  7  9  1  0  0  0
  7 11  2  3  0  0
  8 12  2  0  0  0
 10 13  1  0  0  0
 10 21  1  0  0  0
 11 14  1  0  0  0
 11 22  1  0  0  0
 12 15  1  0  0  0
 12 23  1  0  0  0
 13 15  2  0  0  0
 14 16  2  0  0  0
 15 24  1  0  0  0
 16 25  1  0  0  0
 17 26  1  0  0  0
 18 27  1  0  0  0
 18 28  1  0  0  0
 18 29  1  0  0  0
M  END
> <s_m_entry_id>
9997

> <s_m_entry_name>
dock_pv.66

> <s_m_Source_Path>
/home/csk/Desktop/cluster/DUD-E-result/met

> <s_m_Source_File>
dock_pv.maegz

> <i_m_Source_File_Index>
66

> <chembl_id>
CHEMBL2002649

> <chembl_pref_name>
None

> <i_lp_mmshare_version>
53161

> <i_f3d_flags>
0

> <r_lp_tautomer_probability>
1

> <s_lp_Force_Field>
OPLS_2005

> <r_lp_Energy>
35.508875

> <b_lp_Chiralities_Consistent>
1

> <s_lp_Variant>
CHEMBL3717_lig3892-2

> <s_i_glide_gridfile>
glide-grid_3lq8

> <i_i_glide_lignum>
4940

> <i_i_glide_rotatable_bonds>
2

> <r_i_docking_score>
-8.76294425483632

> <r_i_glide_ligand_efficiency>
-0.486830236379796

> <r_i_glide_ligand_efficiency_sa>
-1.2758561512038

> <r_i_glide_ligand_efficiency_ln>
-2.25246963533766

> <r_i_glide_gscore>
-8.76294425483632

> <r_i_glide_lipo>
-2.1885844334327

> <r_i_glide_hbond>
-0.456607396572998

> <r_i_glide_metal>
0

> <r_i_glide_rewards>
-3.65290328657074

> <r_i_glide_evdw>
-27.2144374847412

> <r_i_glide_ecoul>
-7.36084842681885

> <r_i_glide_erotb>
0

> <r_i_glide_esite>
0

> <r_i_glide_emodel>
-50.5441895603118

> <r_i_glide_energy>
-34.5752859115601

> <r_i_glide_einternal>
2.46950483322144

> <i_i_glide_confnum>
1

> <i_i_glide_posenum>
246

> <r_i_glide_eff_state_penalty>
0

> <s_user_duplicate_titles>
CHEMBL3717_lig3892

> <s_m_subgroup_title>
dock_pv

> <s_m_subgroupid>
dock_pv

> <b_m_subgroup_collapsed>
1

$$$$
CHEMBL3717_lig2282
                    3D
 Schrodinger Suite 2021-1.
 49 53  0  0  1  0            999 V2000
  -10.1440    0.3585   26.7763 N   0  0  0  0  0  0
   -9.9537    1.7044   26.7903 C   0  0  0  0  0  0
   -9.5792    2.4413   27.9160 C   0  0  0  0  0  0
   -9.3721    1.7763   29.1281 C   0  0  0  0  0  0
   -9.9432   -0.2489   27.9511 C   0  0  0  0  0  0
   -9.5610    0.3833   29.1694 C   0  0  0  0  0  0
   -9.4602   -0.6509   30.1597 C   0  0  0  0  0  0
   -9.7715   -1.8425   29.5298 C   0  0  0  0  0  0
  -10.0625   -1.5974   28.2080 N   0  0  0  0  0  0
   -8.9969    2.4129   30.2876 O   0  0  0  0  0  0
   -7.7616    3.0162   30.3180 C   0  0  0  0  0  0
   -6.6025    2.2448   30.2067 C   0  0  0  0  0  0
   -5.3506    2.8534   30.2227 C   0  0  0  0  0  0
   -5.2363    4.2388   30.3751 C   0  0  0  0  0  0
   -6.3974    5.0146   30.5071 C   0  0  0  0  0  0
   -7.6537    4.4024   30.4695 C   0  0  0  0  0  0
   -3.9267    4.7343   30.3690 N   0  0  0  0  0  0
   -3.4358    5.9850   30.4829 C   0  0  0  0  0  0
   -1.9996    6.0370   30.3431 C   0  0  0  0  0  0
   -4.0941    7.0129   30.6082 O   0  0  0  0  0  0
   -1.0869    5.0018   30.6080 C   0  0  0  0  0  0
    0.1290    5.5317   30.2354 N   0  0  0  0  0  0
    0.0039    6.7928   29.8154 N   0  0  0  0  0  0
   -1.3335    7.1099   29.9365 N   0  0  0  0  0  0
    1.3596    4.8681   30.1849 C   0  0  0  0  0  0
    1.9268    4.5533   28.9458 C   0  0  0  0  0  0
    3.1041    3.8069   28.8890 C   0  0  0  0  0  0
    3.6937    3.3487   30.0671 C   0  0  0  0  0  0
    3.1062    3.6439   31.2973 C   0  0  0  0  0  0
    1.9643    4.4301   31.3659 C   0  0  0  0  0  0
   -1.2555    3.5567   31.0559 C   0  0  0  0  0  0
   -8.7699    5.1569   30.5807 F   0  0  0  0  0  0
    1.4534    4.7457   32.5788 F   0  0  0  0  0  0
  -10.0997    2.2073   25.8439 H   0  0  0  0  0  0
   -9.4419    3.5111   27.8531 H   0  0  0  0  0  0
   -9.1891   -0.5405   31.2003 H   0  0  0  0  0  0
   -9.8096   -2.8536   29.9124 H   0  0  0  0  0  0
  -10.3151   -2.3250   27.5555 H   0  0  0  0  0  0
   -6.6783    1.1730   30.0944 H   0  0  0  0  0  0
   -4.4721    2.2319   30.1221 H   0  0  0  0  0  0
   -6.3504    6.0881   30.6118 H   0  0  0  0  0  0
   -3.2204    4.0238   30.2597 H   0  0  0  0  0  0
    1.4530    4.8700   28.0278 H   0  0  0  0  0  0
    3.5464    3.5643   27.9333 H   0  0  0  0  0  0
    4.5960    2.7571   30.0208 H   0  0  0  0  0  0
    3.5060    3.2600   32.2150 H   0  0  0  0  0  0
   -1.4245    2.8935   30.2071 H   0  0  0  0  0  0
   -0.3881    3.1666   31.5849 H   0  0  0  0  0  0
   -2.0882    3.4275   31.7464 H   0  0  0  0  0  0
  1  5  1  0  0  0
  1  2  2  0  0  0
  2  3  1  0  0  0
  2 34  1  0  0  0
  3  4  2  0  0  0
  3 35  1  0  0  0
  4  6  1  0  0  0
  4 10  1  0  0  0
  5  6  2  0  0  0
  5  9  1  0  0  0
  6  7  1  0  0  0
  7  8  2  0  0  0
  7 36  1  0  0  0
  8  9  1  0  0  0
  8 37  1  0  0  0
  9 38  1  0  0  0
 10 11  1  0  0  0
 11 12  2  0  0  0
 11 16  1  0  0  0
 12 13  1  0  0  0
 12 39  1  0  0  0
 13 14  2  0  0  0
 13 40  1  0  0  0
 14 15  1  0  0  0
 14 17  1  0  0  0
 15 16  2  0  0  0
 15 41  1  0  0  0
 16 32  1  0  0  0
 17 18  1  0  0  0
 17 42  1  0  0  0
 18 19  1  0  0  0
 18 20  2  0  0  0
 19 21  2  0  0  0
 19 24  1  0  0  0
 21 22  1  0  0  0
 21 31  1  0  0  0
 22 23  1  0  0  0
 22 25  1  0  0  0
 23 24  2  0  0  0
 25 26  2  0  0  0
 25 30  1  0  0  0
 26 27  1  0  0  0
 26 43  1  0  0  0
 27 28  2  0  0  0
 27 44  1  0  0  0
 28 29  1  0  0  0
 28 45  1  0  0  0
 29 30  2  0  0  0
 29 46  1  0  0  0
 30 33  1  0  0  0
 31 47  1  0  0  0
 31 48  1  0  0  0
 31 49  1  0  0  0
M  END
> <s_m_entry_id>
9998

> <s_m_entry_name>
dock_pv.67

> <s_m_Source_Path>
/home/csk/Desktop/cluster/DUD-E-result/met

> <s_m_Source_File>
dock_pv.maegz

> <i_m_Source_File_Index>
67

> <chembl_id>
CHEMBL3775013

> <chembl_pref_name>
None

> <i_lp_mmshare_version>
53161

> <i_f3d_flags>
0

> <r_lp_tautomer_probability>
1

> <s_lp_Force_Field>
OPLS_2005

> <r_lp_Energy>
31.726224

> <b_lp_Chiralities_Consistent>
1

> <s_lp_Variant>
CHEMBL3717_lig2282-1

> <s_i_glide_gridfile>
glide-grid_3lq8

> <i_i_glide_lignum>
2600

> <i_i_glide_rotatable_bonds>
6

> <r_i_docking_score>
-8.74760897480208

> <r_i_glide_ligand_efficiency>
-0.265079059842487

> <r_i_glide_ligand_efficiency_sa>
-0.850250183616827

> <r_i_glide_ligand_efficiency_ln>
-1.94542294330072

> <r_i_glide_gscore>
-8.74760897480208

> <r_i_glide_lipo>
-4.04234389317561

> <r_i_glide_hbond>
-0.32

> <r_i_glide_metal>
0

> <r_i_glide_rewards>
-2.08278803499219

> <r_i_glide_evdw>
-51.262638092041

> <r_i_glide_ecoul>
-2.07315611839294

> <r_i_glide_erotb>
0.602652058521187

> <r_i_glide_esite>
-0.0310237827944723

> <r_i_glide_emodel>
-70.5827179991696

> <r_i_glide_energy>
-53.335794210434

> <r_i_glide_einternal>
11.5577182769775

> <i_i_glide_confnum>
4

> <i_i_glide_posenum>
11

> <r_i_glide_eff_state_penalty>
0

> <s_user_duplicate_titles>
CHEMBL3717_lig2282

> <s_m_subgroup_title>
dock_pv

> <s_m_subgroupid>
dock_pv

> <b_m_subgroup_collapsed>
1

$$$$
CHEMBL3717_lig2120
                    3D
 Schrodinger Suite 2021-1.
 43 47  0  0  1  0            999 V2000
   -8.9625    1.0868   29.4815 N   0  0  0  0  0  0
   -9.1504   -0.1412   28.9389 C   0  0  0  0  0  0
   -8.1089   -1.0062   28.6181 C   0  0  0  0  0  0
   -6.7985   -0.5935   28.8460 C   0  0  0  0  0  0
   -6.5546    0.6866   29.3994 C   0  0  0  0  0  0
   -5.2494    1.1772   29.6557 C   0  0  0  0  0  0
   -5.0571    2.4277   30.2545 C   0  0  0  0  0  0
   -6.1810    3.1816   30.6080 C   0  0  0  0  0  0
   -7.4744    2.7505   30.3296 C   0  0  0  0  0  0
   -7.6848    1.4962   29.7208 C   0  0  0  0  0  0
   -3.6209    2.8706   30.5811 C   0  0  0  0  0  0
   -2.0304    6.2002   30.4203 C   0  0  0  0  0  0
   -0.8380    6.9064   30.2080 C   0  0  0  0  0  0
    0.3734    6.2266   30.2441 C   0  0  0  0  0  0
    0.4316    4.8556   30.4910 C   0  0  0  0  0  0
   -0.7603    4.1436   30.6631 C   0  0  0  0  0  0
   -1.9661    4.8066   30.6080 N   0  0  0  0  0  0
   -3.3038    6.6503   30.4604 N   0  0  0  0  0  0
   -4.0233    5.5569   30.5069 C   0  0  0  0  0  0
   -3.2800    4.3690   30.6079 C   0  0  0  0  0  0
    3.9115    3.7216   30.3165 N   0  0  0  0  0  0
    3.4274    2.7402   31.0808 N   0  0  0  0  0  0
    2.1529    3.0271   31.2188 C   0  0  0  0  0  0
    1.7675    4.2024   30.5551 C   0  0  0  0  0  0
    2.9557    4.6400   29.9872 C   0  0  0  0  0  0
    5.3279    3.7646   30.0112 C   0  0  0  0  0  0
   -0.8530    8.2424   30.0481 F   0  0  0  0  0  0
  -10.1758   -0.4336   28.7687 H   0  0  0  0  0  0
   -8.3112   -1.9829   28.2038 H   0  0  0  0  0  0
   -5.9662   -1.2407   28.6080 H   0  0  0  0  0  0
   -4.4037    0.5533   29.4017 H   0  0  0  0  0  0
   -6.0826    4.0924   31.1694 H   0  0  0  0  0  0
   -8.3252    3.3552   30.6106 H   0  0  0  0  0  0
   -3.3251    2.3925   31.5126 H   0  0  0  0  0  0
   -2.9834    2.3954   29.8332 H   0  0  0  0  0  0
    1.2818    6.7956   30.1121 H   0  0  0  0  0  0
   -0.7948    3.0756   30.8078 H   0  0  0  0  0  0
   -5.0926    5.6615   30.4160 H   0  0  0  0  0  0
    1.5067    2.3930   31.8072 H   0  0  0  0  0  0
    3.2043    5.5095   29.4004 H   0  0  0  0  0  0
    5.5001    4.3836   29.1297 H   0  0  0  0  0  0
    5.8667    4.1869   30.8594 H   0  0  0  0  0  0
    5.6893    2.7572   29.8082 H   0  0  0  0  0  0
  1  2  2  0  0  0
  1 10  1  0  0  0
  2  3  1  0  0  0
  2 28  1  0  0  0
  3  4  2  0  0  0
  3 29  1  0  0  0
  4  5  1  0  0  0
  4 30  1  0  0  0
  5  6  2  0  0  0
  5 10  1  0  0  0
  6  7  1  0  0  0
  6 31  1  0  0  0
  7  8  2  0  0  0
  7 11  1  0  0  0
  8  9  1  0  0  0
  8 32  1  0  0  0
  9 10  2  0  0  0
  9 33  1  0  0  0
 11 20  1  0  0  0
 11 34  1  0  0  0
 11 35  1  0  0  0
 12 13  1  0  0  0
 12 17  1  0  0  0
 12 18  2  0  0  0
 13 14  2  0  0  0
 13 27  1  0  0  0
 14 15  1  0  0  0
 14 36  1  0  0  0
 15 16  2  0  0  0
 15 24  1  0  0  0
 16 17  1  0  0  0
 16 37  1  0  0  0
 17 20  1  0  0  0
 18 19  1  0  0  0
 19 20  2  0  0  0
 19 38  1  0  0  0
 21 22  1  0  0  0
 21 25  1  0  0  0
 21 26  1  0  0  0
 22 23  2  0  0  0
 23 24  1  0  0  0
 23 39  1  0  0  0
 24 25  2  0  0  0
 25 40  1  0  0  0
 26 41  1  0  0  0
 26 42  1  0  0  0
 26 43  1  0  0  0
M  END
> <s_m_entry_id>
9999

> <s_m_entry_name>
dock_pv.68

> <s_m_Source_Path>
/home/csk/Desktop/cluster/DUD-E-result/met

> <s_m_Source_File>
dock_pv.maegz

> <i_m_Source_File_Index>
68

> <chembl_id>
CHEMBL3582279

> <chembl_pref_name>
None

> <i_lp_mmshare_version>
53161

> <i_f3d_flags>
0

> <r_lp_tautomer_probability>
1

> <s_lp_Force_Field>
OPLS_2005

> <r_lp_Energy>
15.211607

> <b_lp_Chiralities_Consistent>
1

> <s_lp_Variant>
CHEMBL3717_lig2120-1

> <s_i_glide_gridfile>
glide-grid_3lq8

> <i_i_glide_lignum>
2418

> <i_i_glide_rotatable_bonds>
3

> <r_i_docking_score>
-8.74750342267936

> <r_i_glide_ligand_efficiency>
-0.323981608247384

> <r_i_glide_ligand_efficiency_sa>
-0.971944823674361

> <r_i_glide_ligand_efficiency_ln>
-2.03627458293491

> <r_i_glide_gscore>
-8.74750342267936

> <r_i_glide_lipo>
-3.56441842264728

> <r_i_glide_hbond>
-0.194276624936261

> <r_i_glide_metal>
0

> <r_i_glide_rewards>
-3.1386707505

> <r_i_glide_evdw>
-40.6920700073242

> <r_i_glide_ecoul>
-1.68692445755005

> <r_i_glide_erotb>
0.449647350069879

> <r_i_glide_esite>
-0.0121428056669879

> <r_i_glide_emodel>
-60.2289416019521

> <r_i_glide_energy>
-42.3789944648743

> <r_i_glide_einternal>
3.36307692527771

> <i_i_glide_confnum>
7

> <i_i_glide_posenum>
87

> <r_i_glide_eff_state_penalty>
0

> <s_user_duplicate_titles>
CHEMBL3717_lig2120

> <s_m_subgroup_title>
dock_pv

> <s_m_subgroupid>
dock_pv

> <b_m_subgroup_collapsed>
1

$$$$
CHEMBL3717_lig755
                    3D
 Schrodinger Suite 2021-1.
 45 48  0  0  1  0            999 V2000
   -3.9406   -1.9734   30.2756 S   0  0  0  0  0  0
   -3.3932   -2.8430   29.2328 O   0  0  0  0  0  0
   -3.0814   -1.4087   31.3220 O   0  0  0  0  0  0
   -2.4470    3.2557   31.1355 C   0  0  0  0  0  0
   -5.0560    4.8870   30.6081 C   0  0  0  0  0  0
   -4.1171    5.8507   30.6509 C   0  0  0  0  0  0
   -2.6497    5.7603   30.5546 C   0  0  0  0  0  0
   -1.9025    4.5886   30.7546 C   0  0  0  0  0  0
   -0.5072    4.6541   30.6375 C   0  0  0  0  0  0
    0.1170    5.8458   30.2719 C   0  0  0  0  0  0
   -0.6990    6.9595   30.0596 C   0  0  0  0  0  0
   -2.0499    6.9318   30.2080 N   0  0  0  0  0  0
   -3.7318    2.7013   30.6072 C   0  0  0  0  0  0
   -4.9315    3.4226   30.4429 C   0  0  0  0  0  0
   -6.0842    2.7137   30.0755 C   0  0  0  0  0  0
   -6.0366    1.3496   29.7841 C   0  0  0  0  0  0
   -4.8313    0.6591   29.8700 C   0  0  0  0  0  0
   -3.6956    1.3303   30.3122 C   0  0  0  0  0  0
   -1.7248    2.5111   31.8081 O   0  0  0  0  0  0
   -4.7448   -0.6581   29.4080 N   0  0  0  0  0  0
   -5.3884   -2.8349   31.0968 C   0  0  0  0  0  0
    1.5060    5.9570   30.1099 N   0  0  0  0  0  0
    2.6618    4.1662   28.8069 C   0  0  0  0  0  0
    2.4171    4.8152   30.1784 C   0  0  0  0  0  0
    2.8163    2.6767   28.7037 C   0  0  0  0  0  0
    1.5933    3.3479   28.1228 C   0  0  0  0  0  0
   -6.0753    5.2351   30.7081 H   0  0  0  0  0  0
   -4.4943    6.8561   30.7803 H   0  0  0  0  0  0
    0.0837    3.7669   30.8013 H   0  0  0  0  0  0
   -0.2771    7.9145   29.7795 H   0  0  0  0  0  0
   -7.0259    3.2309   29.9581 H   0  0  0  0  0  0
   -6.9285    0.8427   29.4451 H   0  0  0  0  0  0
   -2.7712    0.7783   30.3856 H   0  0  0  0  0  0
   -4.8875   -0.8222   28.4154 H   0  0  0  0  0  0
   -4.9933   -3.6546   31.6942 H   0  0  0  0  0  0
   -5.9099   -2.1177   31.7289 H   0  0  0  0  0  0
   -6.0479   -3.2183   30.3205 H   0  0  0  0  0  0
    1.8465    6.7786   29.6327 H   0  0  0  0  0  0
    3.3183    4.7570   28.1753 H   0  0  0  0  0  0
    2.0708    4.0763   30.8985 H   0  0  0  0  0  0
    3.3652    5.1568   30.5937 H   0  0  0  0  0  0
    2.7061    2.0696   29.6024 H   0  0  0  0  0  0
    3.5686    2.2911   28.0181 H   0  0  0  0  0  0
    1.5060    3.4164   27.0386 H   0  0  0  0  0  0
    0.6314    3.1887   28.6077 H   0  0  0  0  0  0
  1  2  2  0  0  0
  1  3  2  0  0  0
  1 20  1  0  0  0
  1 21  1  0  0  0
  4 19  2  0  0  0
  4  8  1  0  0  0
  4 13  1  0  0  0
  5  6  2  0  0  0
  5 14  1  0  0  0
  5 27  1  0  0  0
  6  7  1  0  0  0
  6 28  1  0  0  0
  7  8  2  0  0  0
  7 12  1  0  0  0
  8  9  1  0  0  0
  9 10  2  0  0  0
  9 29  1  0  0  0
 10 22  1  0  0  0
 10 11  1  0  0  0
 11 12  2  0  0  0
 11 30  1  0  0  0
 13 14  2  0  0  0
 13 18  1  0  0  0
 14 15  1  0  0  0
 15 16  2  0  0  0
 15 31  1  0  0  0
 16 17  1  0  0  0
 16 32  1  0  0  0
 17 18  2  0  0  0
 17 20  1  0  0  0
 18 33  1  0  0  0
 20 34  1  0  0  0
 21 35  1  0  0  0
 21 36  1  0  0  0
 21 37  1  0  0  0
 22 24  1  0  0  0
 22 38  1  0  0  0
 23 24  1  0  0  0
 23 25  1  0  0  0
 23 26  1  0  0  0
 23 39  1  0  0  0
 24 40  1  0  0  0
 24 41  1  0  0  0
 25 26  1  0  0  0
 25 42  1  0  0  0
 25 43  1  0  0  0
 26 44  1  0  0  0
 26 45  1  0  0  0
M  END
> <s_m_entry_id>
10000

> <s_m_entry_name>
dock_pv.69

> <s_m_Source_Path>
/home/csk/Desktop/cluster/DUD-E-result/met

> <s_m_Source_File>
dock_pv.maegz

> <i_m_Source_File_Index>
69

> <chembl_id>
CHEMBL1802588

> <chembl_pref_name>
None

> <i_lp_mmshare_version>
53161

> <i_f3d_flags>
0

> <r_lp_tautomer_probability>
1

> <s_lp_Force_Field>
OPLS_2005

> <r_lp_Energy>
28.951034

> <b_lp_Chiralities_Consistent>
1

> <s_lp_Variant>
CHEMBL3717_lig755-1

> <s_i_glide_gridfile>
glide-grid_3lq8

> <i_i_glide_lignum>
816

> <i_i_glide_rotatable_bonds>
5

> <r_i_docking_score>
-8.74432777531884

> <r_i_glide_ligand_efficiency>
-0.336320299050725

> <r_i_glide_ligand_efficiency_sa>
-0.996347562581298

> <r_i_glide_ligand_efficiency_ln>
-2.05357668555394

> <r_i_glide_gscore>
-8.74432777531884

> <r_i_glide_lipo>
-4.39051158066843

> <r_i_glide_hbond>
-0.16

> <r_i_glide_metal>
0

> <r_i_glide_rewards>
-2.28226077281029

> <r_i_glide_evdw>
-39.2356109619141

> <r_i_glide_ecoul>
-2.52577614784241

> <r_i_glide_erotb>
0.5650739712051

> <r_i_glide_esite>
-0.135982422773157

> <r_i_glide_emodel>
-60.0869497016767

> <r_i_glide_energy>
-41.7613871097565

> <r_i_glide_einternal>
5.72703790664673

> <i_i_glide_confnum>
20

> <i_i_glide_posenum>
141

> <r_i_glide_eff_state_penalty>
0

> <s_user_duplicate_titles>
CHEMBL3717_lig755

> <s_m_subgroup_title>
dock_pv

> <s_m_subgroupid>
dock_pv

> <b_m_subgroup_collapsed>
1

$$$$
CHEMBL3717_lig4171
                    3D
 Schrodinger Suite 2021-1.
 36 39  0  0  1  0            999 V2000
   -3.2735    7.1570   30.2081 O   0  0  0  0  0  0
   -6.3038   -0.3444   29.3491 O   0  0  0  0  0  0
   -1.0299    6.8845   30.0523 N   0  0  0  0  0  0
   -6.7961    5.0107   30.5476 N   0  0  0  0  0  0
   -2.1713    5.0342   30.6000 C   0  0  0  0  0  0
   -0.7408    4.7718   30.6777 C   0  0  0  0  0  0
   -4.6498    4.2667   30.6078 C   0  0  0  0  0  0
   -5.5311    3.1808   30.2476 C   0  0  0  0  0  0
   -0.0895    5.9141   30.2849 C   0  0  0  0  0  0
   -2.2804    6.4461   30.2730 C   0  0  0  0  0  0
   -6.8677    3.6818   30.2087 C   0  0  0  0  0  0
   -3.1968    4.1612   30.7504 C   0  0  0  0  0  0
   -5.4959    5.3441   30.8191 C   0  0  0  0  0  0
   -5.3185    1.8243   29.9528 C   0  0  0  0  0  0
   -0.0085    3.6362   31.0084 C   0  0  0  0  0  0
   -6.4091    1.0012   29.6365 C   0  0  0  0  0  0
   -7.9612    2.8790   29.8758 C   0  0  0  0  0  0
    1.2966    5.9571   30.1767 C   0  0  0  0  0  0
   -7.6943    1.5387   29.5984 C   0  0  0  0  0  0
    1.3860    3.6562   30.9220 C   0  0  0  0  0  0
    2.0386    4.8159   30.4957 C   0  0  0  0  0  0
   -5.0271   -0.9738   29.4083 C   0  0  0  0  0  0
   -0.8212    7.8417   29.8094 H   0  0  0  0  0  0
   -7.5530    5.6792   30.5902 H   0  0  0  0  0  0
   -2.9075    3.1519   31.0047 H   0  0  0  0  0  0
   -5.2861    6.3574   31.1224 H   0  0  0  0  0  0
   -4.3164    1.4291   29.9814 H   0  0  0  0  0  0
   -0.5223    2.7570   31.3443 H   0  0  0  0  0  0
   -8.9689    3.2676   29.8406 H   0  0  0  0  0  0
    1.7962    6.8524   29.8444 H   0  0  0  0  0  0
   -8.5167    0.8853   29.3450 H   0  0  0  0  0  0
    1.9554    2.7739   31.1753 H   0  0  0  0  0  0
    3.1158    4.8330   30.4173 H   0  0  0  0  0  0
   -5.1231   -2.0146   29.0995 H   0  0  0  0  0  0
   -4.3071   -0.4988   28.7402 H   0  0  0  0  0  0
   -4.6282   -0.9635   30.4233 H   0  0  0  0  0  0
  1 10  2  0  0  0
  2 16  1  0  0  0
  2 22  1  0  0  0
  3  9  1  0  0  0
  3 10  1  0  0  0
  3 23  1  0  0  0
  4 11  1  0  0  0
  4 13  1  0  0  0
  4 24  1  0  0  0
  5  6  1  0  0  0
  5 10  1  0  0  0
  5 12  2  3  0  0
  6  9  1  0  0  0
  6 15  2  0  0  0
  7  8  1  0  0  0
  7 12  1  0  0  0
  7 13  2  0  0  0
  8 11  1  0  0  0
  8 14  2  0  0  0
  9 18  2  0  0  0
 11 17  2  0  0  0
 12 25  1  0  0  0
 13 26  1  0  0  0
 14 16  1  0  0  0
 14 27  1  0  0  0
 15 20  1  0  0  0
 15 28  1  0  0  0
 16 19  2  0  0  0
 17 19  1  0  0  0
 17 29  1  0  0  0
 18 21  1  0  0  0
 18 30  1  0  0  0
 19 31  1  0  0  0
 20 21  2  0  0  0
 20 32  1  0  0  0
 21 33  1  0  0  0
 22 34  1  0  0  0
 22 35  1  0  0  0
 22 36  1  0  0  0
M  END
> <s_m_entry_id>
10001

> <s_m_entry_name>
dock_pv.70

> <s_m_Source_Path>
/home/csk/Desktop/cluster/DUD-E-result/met

> <s_m_Source_File>
dock_pv.maegz

> <i_m_Source_File_Index>
70

> <chembl_id>
CHEMBL1997275

> <chembl_pref_name>
None

> <i_lp_mmshare_version>
53161

> <i_f3d_flags>
0

> <r_lp_tautomer_probability>
1

> <s_lp_Force_Field>
OPLS_2005

> <r_lp_Energy>
38.834641

> <b_lp_Chiralities_Consistent>
1

> <s_lp_Variant>
CHEMBL3717_lig4171-2

> <s_i_glide_gridfile>
glide-grid_3lq8

> <i_i_glide_lignum>
5344

> <i_i_glide_rotatable_bonds>
2

> <r_i_docking_score>
-8.71492691715588

> <r_i_glide_ligand_efficiency>
-0.396133041688904

> <r_i_glide_ligand_efficiency_sa>
-1.10998036184079

> <r_i_glide_ligand_efficiency_ln>
-2.13024602323592

> <r_i_glide_gscore>
-8.71492691715588

> <r_i_glide_lipo>
-3.2615155997578

> <r_i_glide_hbond>
-0.32

> <r_i_glide_metal>
0

> <r_i_glide_rewards>
-3.00825916146696

> <r_i_glide_evdw>
-31.1188144683838

> <r_i_glide_ecoul>
-5.23615312576294

> <r_i_glide_erotb>
0.216211536352508

> <r_i_glide_esite>
0

> <r_i_glide_emodel>
-53.7266123539175

> <r_i_glide_energy>
-36.3549675941467

> <r_i_glide_einternal>
0.0735229328274727

> <i_i_glide_confnum>
2

> <i_i_glide_posenum>
30

> <r_i_glide_eff_state_penalty>
0

> <s_user_duplicate_titles>
CHEMBL3717_lig4171

> <s_m_subgroup_title>
dock_pv

> <s_m_subgroupid>
dock_pv

> <b_m_subgroup_collapsed>
1

$$$$
CHEMBL3717_lig4128
                    3D
 Schrodinger Suite 2021-1.
 39 42  0  0  1  0            999 V2000
   -2.4788    6.0649   30.2096 O   0  0  0  0  0  0
    1.1062    5.1574   32.4404 O   0  0  0  0  0  0
    3.1067    2.3572   30.8832 O   0  0  0  0  0  0
    1.7086    4.8709   30.2597 N   0  0  0  0  0  0
   -1.1146    6.3198   30.3659 N   0  0  0  0  0  0
   -8.0223    2.8769   30.0509 N   0  0  0  0  0  0
   -8.6391    4.0707   30.0476 N   0  0  0  0  0  0
   -2.7373    4.7909   30.6081 C   0  0  0  0  0  0
   -0.5896    5.2289   30.8891 C   0  0  0  0  0  0
   -4.1283    4.2752   30.4752 C   0  0  0  0  0  0
    0.7978    5.0838   31.2503 C   0  0  0  0  0  0
   -1.5477    4.2216   31.0088 C   0  0  0  0  0  0
   -6.5095    4.6269   30.3150 C   0  0  0  0  0  0
   -6.7064    3.2133   30.2012 C   0  0  0  0  0  0
   -5.2162    5.1543   30.4661 C   0  0  0  0  0  0
   -4.3302    2.8957   30.3479 C   0  0  0  0  0  0
   -5.6042    2.3463   30.2204 C   0  0  0  0  0  0
   -7.8181    5.1571   30.2086 C   0  0  0  0  0  0
    3.1483    4.7564   30.6045 C   0  0  0  0  0  0
    1.3652    4.7496   28.8266 C   0  0  0  0  0  0
    3.6815    3.3983   30.1097 C   0  0  2  0  0  0
    1.9057    3.4078   28.2974 C   0  0  0  0  0  0
    3.3987    3.2450   28.6004 C   0  0  0  0  0  0
    2.2784    2.1074   30.4657 H   0  0  0  0  0  0
   -9.6381    4.1404   29.9220 H   0  0  0  0  0  0
   -1.3987    3.2156   31.3721 H   0  0  0  0  0  0
   -5.0674    6.2213   30.5459 H   0  0  0  0  0  0
   -3.4834    2.2255   30.3521 H   0  0  0  0  0  0
   -5.7371    1.2761   30.1253 H   0  0  0  0  0  0
   -8.2252    6.1592   30.1941 H   0  0  0  0  0  0
    3.3400    4.8317   31.6770 H   0  0  0  0  0  0
    3.7200    5.5541   30.1308 H   0  0  0  0  0  0
    1.8682    5.5563   28.3070 H   0  0  0  0  0  0
    0.3060    4.8412   28.6083 H   0  0  0  0  0  0
    4.7615    3.3470   30.2631 H   0  0  0  0  0  0
    1.7423    3.3497   27.2203 H   0  0  0  0  0  0
    1.3351    2.5799   28.7196 H   0  0  0  0  0  0
    3.9625    4.0035   28.0545 H   0  0  0  0  0  0
    3.7601    2.3012   28.2079 H   0  0  0  0  0  0
  1  5  1  0  0  0
  1  8  1  0  0  0
  2 11  2  0  0  0
  3 21  1  0  0  0
  3 24  1  0  0  0
  4 11  1  0  0  0
  4 19  1  0  0  0
  4 20  1  0  0  0
  5  9  2  0  0  0
  6  7  1  0  0  0
  6 14  2  0  0  0
  7 25  1  0  0  0
  7 18  1  0  0  0
  8 12  2  0  0  0
  8 10  1  0  0  0
  9 11  1  0  0  0
  9 12  1  0  0  0
 10 16  1  0  0  0
 10 15  2  0  0  0
 12 26  1  0  0  0
 13 15  1  0  0  0
 13 14  1  0  0  0
 13 18  2  0  0  0
 14 17  1  0  0  0
 15 27  1  0  0  0
 16 17  2  0  0  0
 16 28  1  0  0  0
 17 29  1  0  0  0
 18 30  1  0  0  0
 19 21  1  0  0  0
 19 31  1  0  0  0
 19 32  1  0  0  0
 20 22  1  0  0  0
 20 33  1  0  0  0
 20 34  1  0  0  0
 21 23  1  0  0  0
 21 35  1  0  0  0
 22 23  1  0  0  0
 22 36  1  0  0  0
 22 37  1  0  0  0
 23 38  1  0  0  0
 23 39  1  0  0  0
M  END
> <s_m_entry_id>
10002

> <s_m_entry_name>
dock_pv.71

> <s_m_Source_Path>
/home/csk/Desktop/cluster/DUD-E-result/met

> <s_m_Source_File>
dock_pv.maegz

> <i_m_Source_File_Index>
71

> <chembl_id>
CHEMBL1997340

> <chembl_pref_name>
None

> <i_lp_mmshare_version>
53161

> <i_f3d_flags>
0

> <r_lp_tautomer_probability>
0.0196078431372549

> <s_lp_Force_Field>
OPLS_2005

> <r_lp_Energy>
46.26802

> <b_lp_Chiralities_Consistent>
1

> <s_lp_Variant>
CHEMBL3717_lig4128-3

> <s_i_glide_gridfile>
glide-grid_3lq8

> <i_i_glide_lignum>
5281

> <i_i_glide_rotatable_bonds>
4

> <r_i_docking_score>
-8.71267936916177

> <r_i_glide_ligand_efficiency>
-0.378812146485295

> <r_i_glide_ligand_efficiency_sa>
-1.07729135383028

> <r_i_glide_ligand_efficiency_ln>
-2.10680487367197

> <r_i_glide_gscore>
-8.71267936916177

> <r_i_glide_lipo>
-3.54168856309946

> <r_i_glide_hbond>
0

> <r_i_glide_metal>
0

> <r_i_glide_rewards>
-3.06741521165011

> <r_i_glide_evdw>
-39.1080551147461

> <r_i_glide_ecoul>
-4.79281282424927

> <r_i_glide_erotb>
0.570749084962497

> <r_i_glide_esite>
0

> <r_i_glide_emodel>
-62.654082604044

> <r_i_glide_energy>
-43.9008679389954

> <r_i_glide_einternal>
6.10754060745239

> <i_i_glide_confnum>
18

> <i_i_glide_posenum>
198

> <r_i_glide_eff_state_penalty>
0

> <s_user_duplicate_titles>
CHEMBL3717_lig4128,CHEMBL3717_lig4128

> <s_m_subgroup_title>
dock_pv

> <s_m_subgroupid>
dock_pv

> <b_m_subgroup_collapsed>
1

$$$$
CHEMBL3717_lig2088
                    3D
 Schrodinger Suite 2021-1.
 42 46  0  0  1  0            999 V2000
    0.3354    5.1208   30.3022 C   0  0  0  0  0  0
    0.2166    6.5027   30.1304 C   0  0  0  0  0  0
   -1.0176    7.1476   30.2077 C   0  0  0  0  0  0
   -0.8029    4.3640   30.5896 C   0  0  0  0  0  0
   -2.0288    4.9822   30.6081 N   0  0  0  0  0  0
   -2.1603    6.3738   30.4686 C   0  0  0  0  0  0
   -3.4570    6.7188   30.6026 N   0  0  0  0  0  0
   -4.1630    5.5302   30.6550 N   0  0  0  0  0  0
   -3.3265    4.5086   30.6325 C   0  0  0  0  0  0
    1.6472    4.4825   30.0722 C   0  0  0  0  0  0
    2.6744    4.6480   31.0011 C   0  0  0  0  0  0
    3.9575    4.1972   30.7137 C   0  0  0  0  0  0
    4.2065    3.5549   29.5090 C   0  0  0  0  0  0
    3.1764    3.3296   28.5971 C   0  0  0  0  0  0
    1.8956    3.7927   28.8810 C   0  0  0  0  0  0
   -3.6494    3.0100   30.5989 C   0  0  0  0  0  0
   -5.0799    2.5198   30.3084 C   0  0  0  0  0  0
   -6.2286    3.2635   30.6064 C   0  0  0  0  0  0
   -7.5032    2.7646   30.3474 C   0  0  0  0  0  0
   -5.2232    1.2344   29.7772 C   0  0  0  0  0  0
   -6.5050    0.6897   29.5252 C   0  0  0  0  0  0
   -7.6654    1.4725   29.8018 C   0  0  0  0  0  0
   -8.9245    1.0080   29.5625 N   0  0  0  0  0  0
   -9.0622   -0.2426   29.0556 C   0  0  0  0  0  0
   -7.9859   -1.0781   28.7704 C   0  0  0  0  0  0
   -6.6923   -0.6155   29.0077 C   0  0  0  0  0  0
    1.0984    7.0856   29.9016 H   0  0  0  0  0  0
   -1.0921    8.2189   30.0714 H   0  0  0  0  0  0
   -0.7888    3.2859   30.6774 H   0  0  0  0  0  0
    2.4801    5.1537   31.9322 H   0  0  0  0  0  0
    4.7621    4.3569   31.4146 H   0  0  0  0  0  0
    5.2046    3.2079   29.2951 H   0  0  0  0  0  0
    3.3755    2.8072   27.6720 H   0  0  0  0  0  0
    1.1056    3.6468   28.1583 H   0  0  0  0  0  0
   -3.2999    2.5237   31.5073 H   0  0  0  0  0  0
   -3.0232    2.5655   29.8237 H   0  0  0  0  0  0
   -6.1718    4.2355   31.0663 H   0  0  0  0  0  0
   -8.3797    3.3563   30.5774 H   0  0  0  0  0  0
   -4.3552    0.6302   29.5581 H   0  0  0  0  0  0
  -10.0729   -0.5784   28.8786 H   0  0  0  0  0  0
   -8.1455   -2.0696   28.3681 H   0  0  0  0  0  0
   -5.8347   -1.2340   28.7799 H   0  0  0  0  0  0
  1  2  1  0  0  0
  1  4  2  0  0  0
  1 10  1  0  0  0
  2  3  2  0  0  0
  2 27  1  0  0  0
  3  6  1  0  0  0
  3 28  1  0  0  0
  4  5  1  0  0  0
  4 29  1  0  0  0
  5  6  1  0  0  0
  5  9  1  0  0  0
  6  7  2  0  0  0
  7  8  1  0  0  0
  8  9  2  0  0  0
  9 16  1  0  0  0
 10 11  2  0  0  0
 10 15  1  0  0  0
 11 12  1  0  0  0
 11 30  1  0  0  0
 12 13  2  0  0  0
 12 31  1  0  0  0
 13 14  1  0  0  0
 13 32  1  0  0  0
 14 15  2  0  0  0
 14 33  1  0  0  0
 15 34  1  0  0  0
 16 17  1  0  0  0
 16 35  1  0  0  0
 16 36  1  0  0  0
 17 18  2  0  0  0
 17 20  1  0  0  0
 18 19  1  0  0  0
 18 37  1  0  0  0
 19 22  2  0  0  0
 19 38  1  0  0  0
 20 21  2  0  0  0
 20 39  1  0  0  0
 21 22  1  0  0  0
 21 26  1  0  0  0
 22 23  1  0  0  0
 23 24  2  0  0  0
 24 25  1  0  0  0
 24 40  1  0  0  0
 25 26  2  0  0  0
 25 41  1  0  0  0
 26 42  1  0  0  0
M  END
> <s_m_entry_id>
10003

> <s_m_entry_name>
dock_pv.72

> <s_m_Source_Path>
/home/csk/Desktop/cluster/DUD-E-result/met

> <s_m_Source_File>
dock_pv.maegz

> <i_m_Source_File_Index>
72

> <chembl_id>
CHEMBL3414732

> <chembl_pref_name>
None

> <i_lp_mmshare_version>
53161

> <i_f3d_flags>
0

> <r_lp_tautomer_probability>
1

> <s_lp_Force_Field>
OPLS_2005

> <r_lp_Energy>
18.040871

> <b_lp_Chiralities_Consistent>
1

> <s_lp_Variant>
CHEMBL3717_lig2088-1

> <s_i_glide_gridfile>
glide-grid_3lq8

> <i_i_glide_lignum>
2384

> <i_i_glide_rotatable_bonds>
3

> <r_i_docking_score>
-8.68327741977403

> <r_i_glide_ligand_efficiency>
-0.333972208452847

> <r_i_glide_ligand_efficiency_sa>
-0.989391353424376

> <r_i_glide_ligand_efficiency_ln>
-2.03923920987679

> <r_i_glide_gscore>
-8.68327741977403

> <r_i_glide_lipo>
-3.72108867951582

> <r_i_glide_hbond>
0

> <r_i_glide_metal>
0

> <r_i_glide_rewards>
-2.95692113293282

> <r_i_glide_evdw>
-42.1110572814941

> <r_i_glide_ecoul>
-2.66938257217407

> <r_i_glide_erotb>
0.500692642575436

> <r_i_glide_esite>
0

> <r_i_glide_emodel>
-60.0446932383724

> <r_i_glide_energy>
-44.7804398536682

> <r_i_glide_einternal>
7.97522497177124

> <i_i_glide_confnum>
24

> <i_i_glide_posenum>
185

> <r_i_glide_eff_state_penalty>
0

> <s_user_duplicate_titles>
CHEMBL3717_lig2088

> <s_m_subgroup_title>
dock_pv

> <s_m_subgroupid>
dock_pv

> <b_m_subgroup_collapsed>
1

$$$$
CHEMBL3717_lig1099
                    3D
 Schrodinger Suite 2021-1.
 42 46  0  0  1  0            999 V2000
    0.0535    5.2672   30.2686 C   0  0  0  0  0  0
   -0.0569    6.6490   30.0812 C   0  0  0  0  0  0
   -1.2982    7.2727   30.2074 C   0  0  0  0  0  0
   -0.9901    4.4574   30.5945 N   0  0  0  0  0  0
   -2.1844    5.0804   30.6082 N   0  0  0  0  0  0
   -2.4096    6.4575   30.4714 C   0  0  0  0  0  0
   -3.7251    6.7115   30.6081 N   0  0  0  0  0  0
   -4.3447    5.4744   30.6873 N   0  0  0  0  0  0
   -3.4427    4.5118   30.6127 C   0  0  0  0  0  0
   -3.6337    2.9885   30.5826 C   0  0  0  0  0  0
   -4.9924    2.3097   30.3012 C   0  0  0  0  0  0
   -7.4421    1.0044   29.7647 C   0  0  0  0  0  0
   -7.4047    2.3826   29.9430 C   0  0  0  0  0  0
   -6.1977    3.0251   30.2082 C   0  0  0  0  0  0
   -6.2671    0.2564   29.8696 C   0  0  0  0  0  0
   -5.0408    0.9055   30.1473 C   0  0  0  0  0  0
   -3.8463    0.0364   30.2666 C   0  0  0  0  0  0
   -3.9868   -1.2877   30.0913 C   0  0  0  0  0  0
   -5.1668   -1.9095   29.8102 N   0  0  0  0  0  0
   -6.3517   -1.2598   29.6776 C   0  0  0  0  0  0
   -7.3763   -1.8925   29.4270 O   0  0  0  0  0  0
    1.3348    4.5876   29.9941 C   0  0  0  0  0  0
    2.2892    4.3805   30.9986 C   0  0  0  0  0  0
    3.5506    3.8798   30.6614 C   0  0  0  0  0  0
    3.8510    3.5461   29.3427 C   0  0  0  0  0  0
    2.8828    3.6852   28.3540 C   0  0  0  0  0  0
    1.6377    4.2167   28.6782 C   0  0  0  0  0  0
    1.9219    4.7532   32.6501 Cl  0  0  0  0  0  0
    0.8146    7.2329   29.8213 H   0  0  0  0  0  0
   -1.4003    8.3424   30.0726 H   0  0  0  0  0  0
   -3.2269    2.5476   31.4896 H   0  0  0  0  0  0
   -2.9692    2.6026   29.8087 H   0  0  0  0  0  0
   -8.3897    0.5262   29.5552 H   0  0  0  0  0  0
   -8.3148    2.9594   29.8676 H   0  0  0  0  0  0
   -6.2496    4.0913   30.3296 H   0  0  0  0  0  0
   -2.8732    0.4347   30.5003 H   0  0  0  0  0  0
   -3.1707   -1.9948   30.1603 H   0  0  0  0  0  0
   -5.2122   -2.9093   29.6846 H   0  0  0  0  0  0
    4.3113    3.7528   31.4084 H   0  0  0  0  0  0
    4.8268    3.1573   29.0896 H   0  0  0  0  0  0
    3.1033    3.4029   27.3353 H   0  0  0  0  0  0
    0.9086    4.3551   27.8953 H   0  0  0  0  0  0
  1  2  1  0  0  0
  1  4  2  0  0  0
  1 22  1  0  0  0
  2  3  2  0  0  0
  2 29  1  0  0  0
  3  6  1  0  0  0
  3 30  1  0  0  0
  4  5  1  0  0  0
  5  9  1  0  0  0
  5  6  1  0  0  0
  6  7  2  0  0  0
  7  8  1  0  0  0
  8  9  2  0  0  0
  9 10  1  0  0  0
 10 11  1  0  0  0
 10 31  1  0  0  0
 10 32  1  0  0  0
 11 14  1  0  0  0
 11 16  2  0  0  0
 12 13  1  0  0  0
 12 15  2  0  0  0
 12 33  1  0  0  0
 13 14  2  0  0  0
 13 34  1  0  0  0
 14 35  1  0  0  0
 15 16  1  0  0  0
 15 20  1  0  0  0
 16 17  1  0  0  0
 17 18  2  0  0  0
 17 36  1  0  0  0
 18 19  1  0  0  0
 18 37  1  0  0  0
 19 20  1  0  0  0
 19 38  1  0  0  0
 20 21  2  0  0  0
 22 23  2  0  0  0
 22 27  1  0  0  0
 23 24  1  0  0  0
 23 28  1  0  0  0
 24 25  2  0  0  0
 24 39  1  0  0  0
 25 26  1  0  0  0
 25 40  1  0  0  0
 26 27  2  0  0  0
 26 41  1  0  0  0
 27 42  1  0  0  0
M  END
> <s_m_entry_id>
10004

> <s_m_entry_name>
dock_pv.73

> <s_m_Source_Path>
/home/csk/Desktop/cluster/DUD-E-result/met

> <s_m_Source_File>
dock_pv.maegz

> <i_m_Source_File_Index>
73

> <chembl_id>
CHEMBL1922414

> <chembl_pref_name>
None

> <i_lp_mmshare_version>
53161

> <i_f3d_flags>
0

> <r_lp_tautomer_probability>
1

> <s_lp_Force_Field>
OPLS_2005

> <r_lp_Energy>
30.6529

> <b_lp_Chiralities_Consistent>
1

> <s_lp_Variant>
CHEMBL3717_lig1099-1

> <s_i_glide_gridfile>
glide-grid_3lq8

> <i_i_glide_lignum>
1253

> <i_i_glide_rotatable_bonds>
3

> <r_i_docking_score>
-8.68316604579904

> <r_i_glide_ligand_efficiency>
-0.310113073064251

> <r_i_glide_ligand_efficiency_sa>
-0.941685936655414

> <r_i_glide_ligand_efficiency_ln>
-2.00432967220374

> <r_i_glide_gscore>
-8.68316604579904

> <r_i_glide_lipo>
-3.73958257030486

> <r_i_glide_hbond>
0

> <r_i_glide_metal>
0

> <r_i_glide_rewards>
-2.64876649002602

> <r_i_glide_evdw>
-47.2563133239746

> <r_i_glide_ecoul>
-1.99842381477356

> <r_i_glide_erotb>
0.388503200103541

> <r_i_glide_esite>
-0.0207409471569376

> <r_i_glide_emodel>
-69.3822760848366

> <r_i_glide_energy>
-49.2547371387482

> <r_i_glide_einternal>
3.15806269645691

> <i_i_glide_confnum>
8

> <i_i_glide_posenum>
371

> <r_i_glide_eff_state_penalty>
0

> <s_user_duplicate_titles>
CHEMBL3717_lig1099

> <s_m_subgroup_title>
dock_pv

> <s_m_subgroupid>
dock_pv

> <b_m_subgroup_collapsed>
1

$$$$
CHEMBL3717_lig3809
                    3D
 Schrodinger Suite 2021-1.
 49 52  0  0  1  0            999 V2000
   -2.5682   -3.1447   28.1536 C   0  0  0  0  0  0
   -2.6740   -2.0963   29.1657 N   0  0  0  0  0  0
   -1.5208   -2.1582   30.0633 C   0  0  0  0  0  0
   -3.9468   -2.1462   29.8742 C   0  0  0  0  0  0
   -4.3827   -0.7290   30.2879 C   0  0  0  0  0  0
   -4.0262   -0.2600   31.3714 O   0  0  0  0  0  0
   -5.1892   -0.0999   29.4085 N   0  0  0  0  0  0
   -5.8862    1.0504   29.7110 C   0  0  0  0  0  0
   -7.2529    1.1159   29.7071 N   0  0  0  0  0  0
   -7.7731    2.3167   30.0105 N   0  0  0  0  0  0
   -6.6617    3.0923   30.2073 C   0  0  0  0  0  0
   -6.6309    4.4633   30.4923 C   0  0  0  0  0  0
   -5.3889    5.0898   30.6085 C   0  0  0  0  0  0
   -4.1917    4.3797   30.4831 C   0  0  0  0  0  0
   -4.2095    3.0058   30.2128 C   0  0  0  0  0  0
   -5.4411    2.3594   30.0493 C   0  0  0  0  0  0
   -2.8709    5.0670   30.5981 C   0  0  0  0  0  0
   -1.6615    4.5420   31.0387 C   0  0  0  0  0  0
   -0.7526    5.5523   30.8696 N   0  0  0  0  0  0
    0.6591    5.5698   31.2377 C   0  0  0  0  0  0
    1.5643    4.6988   30.3736 C   0  0  0  0  0  0
    2.5805    3.9489   30.9723 C   0  0  0  0  0  0
    3.4314    3.1774   30.1856 C   0  0  0  0  0  0
    3.2597    3.1583   28.8028 C   0  0  0  0  0  0
    2.2543    3.9023   28.1996 C   0  0  0  0  0  0
    1.4105    4.6802   28.9856 C   0  0  0  0  0  0
   -1.3363    6.6247   30.3234 N   0  0  0  0  0  0
   -2.6814    6.3210   30.2123 N   0  0  0  0  0  0
   -1.6940   -2.9896   27.5226 H   0  0  0  0  0  0
   -3.4307   -3.1387   27.4878 H   0  0  0  0  0  0
   -2.5025   -4.1350   28.6032 H   0  0  0  0  0  0
   -0.5860   -2.0405   29.5143 H   0  0  0  0  0  0
   -1.5696   -1.3626   30.8081 H   0  0  0  0  0  0
   -1.4842   -3.1086   30.5984 H   0  0  0  0  0  0
   -4.7451   -2.5919   29.2750 H   0  0  0  0  0  0
   -3.8857   -2.7708   30.7695 H   0  0  0  0  0  0
   -5.3603   -0.5530   28.5184 H   0  0  0  0  0  0
   -7.8472    0.3285   29.4981 H   0  0  0  0  0  0
   -7.5433    5.0340   30.5859 H   0  0  0  0  0  0
   -5.3648    6.1547   30.7935 H   0  0  0  0  0  0
   -3.2912    2.4500   30.0975 H   0  0  0  0  0  0
   -1.3791    3.5824   31.4358 H   0  0  0  0  0  0
    1.0267    6.5966   31.2017 H   0  0  0  0  0  0
    0.7139    5.2558   32.2807 H   0  0  0  0  0  0
    2.7181    3.9638   32.0431 H   0  0  0  0  0  0
    4.2218    2.6020   30.6406 H   0  0  0  0  0  0
    3.9114    2.5597   28.1884 H   0  0  0  0  0  0
    2.1357    3.8845   27.1267 H   0  0  0  0  0  0
    0.6436    5.2701   28.5099 H   0  0  0  0  0  0
  1  2  1  0  0  0
  1 29  1  0  0  0
  1 30  1  0  0  0
  1 31  1  0  0  0
  2  3  1  0  0  0
  2  4  1  0  0  0
  3 32  1  0  0  0
  3 33  1  0  0  0
  3 34  1  0  0  0
  4  5  1  0  0  0
  4 35  1  0  0  0
  4 36  1  0  0  0
  5  6  2  0  0  0
  5  7  1  0  0  0
  7 37  1  0  0  0
  7  8  1  0  0  0
  8 16  2  0  0  0
  8  9  1  0  0  0
  9 38  1  0  0  0
  9 10  1  0  0  0
 10 11  2  0  0  0
 11 12  1  0  0  0
 11 16  1  0  0  0
 12 39  1  0  0  0
 12 13  2  0  0  0
 13 40  1  0  0  0
 13 14  1  0  0  0
 14 17  1  0  0  0
 14 15  2  0  0  0
 15 41  1  0  0  0
 15 16  1  0  0  0
 17 18  2  0  0  0
 17 28  1  0  0  0
 18 19  1  0  0  0
 18 42  1  0  0  0
 19 20  1  0  0  0
 19 27  1  0  0  0
 20 21  1  0  0  0
 20 43  1  0  0  0
 20 44  1  0  0  0
 21 22  2  0  0  0
 21 26  1  0  0  0
 22 23  1  0  0  0
 22 45  1  0  0  0
 23 24  2  0  0  0
 23 46  1  0  0  0
 24 25  1  0  0  0
 24 47  1  0  0  0
 25 26  2  0  0  0
 25 48  1  0  0  0
 26 49  1  0  0  0
 27 28  2  0  0  0
M  END
> <s_m_entry_id>
10005

> <s_m_entry_name>
dock_pv.74

> <s_m_Source_Path>
/home/csk/Desktop/cluster/DUD-E-result/met

> <s_m_Source_File>
dock_pv.maegz

> <i_m_Source_File_Index>
74

> <chembl_id>
CHEMBL1965631

> <chembl_pref_name>
None

> <i_lp_mmshare_version>
53161

> <i_f3d_flags>
0

> <r_lp_tautomer_probability>
0.0196078431372549

> <s_lp_Force_Field>
OPLS_2005

> <r_lp_Energy>
38.997692

> <b_lp_Chiralities_Consistent>
1

> <s_lp_Variant>
CHEMBL3717_lig3809-2

> <s_i_glide_gridfile>
glide-grid_3lq8

> <i_i_glide_lignum>
4828

> <i_i_glide_rotatable_bonds>
7

> <r_i_docking_score>
-8.65612504438908

> <r_i_glide_ligand_efficiency>
-0.309147323013896

> <r_i_glide_ligand_efficiency_sa>
-0.938753350706173

> <r_i_glide_ligand_efficiency_ln>
-1.99808781512002

> <r_i_glide_gscore>
-8.65612504438908

> <r_i_glide_lipo>
-4.50147402958477

> <r_i_glide_hbond>
-0.0771206919273441

> <r_i_glide_metal>
0

> <r_i_glide_rewards>
-2.01181161861643

> <r_i_glide_evdw>
-49.612361907959

> <r_i_glide_ecoul>
-2.40033984184265

> <r_i_glide_erotb>
0.823584011171395

> <r_i_glide_esite>
-0.0486336437575861

> <r_i_glide_emodel>
-75.6222043124379

> <r_i_glide_energy>
-52.0127017498016

> <r_i_glide_einternal>
7.50374174118042

> <i_i_glide_confnum>
59

> <i_i_glide_posenum>
111

> <r_i_glide_eff_state_penalty>
0

> <s_user_duplicate_titles>
CHEMBL3717_lig3809,CHEMBL3717_lig3809

> <s_m_subgroup_title>
dock_pv

> <s_m_subgroupid>
dock_pv

> <b_m_subgroup_collapsed>
1

$$$$
CHEMBL3717_lig1098
                    3D
 Schrodinger Suite 2021-1.
 45 49  0  0  1  0            999 V2000
    0.0601    5.2573   30.2665 C   0  0  0  0  0  0
   -0.0290    6.6379   30.0729 C   0  0  0  0  0  0
   -1.2617    7.2774   30.2077 C   0  0  0  0  0  0
   -0.9978    4.4663   30.5982 N   0  0  0  0  0  0
   -2.1827    5.1039   30.6081 N   0  0  0  0  0  0
   -2.3871    6.4824   30.4711 C   0  0  0  0  0  0
   -3.6995    6.7555   30.6079 N   0  0  0  0  0  0
   -4.3381    5.5267   30.6866 N   0  0  0  0  0  0
   -3.4478    4.5531   30.6124 C   0  0  0  0  0  0
   -3.6513    3.0311   30.5817 C   0  0  0  0  0  0
   -5.0119    2.3605   30.2965 C   0  0  0  0  0  0
   -7.4703    1.0705   29.7684 C   0  0  0  0  0  0
   -7.4235    2.4484   29.9476 C   0  0  0  0  0  0
   -6.2122    3.0845   30.2080 C   0  0  0  0  0  0
   -6.2995    0.3151   29.8665 C   0  0  0  0  0  0
   -5.0672    0.9567   30.1377 C   0  0  0  0  0  0
   -3.8759    0.0816   30.2474 C   0  0  0  0  0  0
   -4.0274   -1.2420   30.0766 C   0  0  0  0  0  0
   -5.2129   -1.8569   29.8060 N   0  0  0  0  0  0
   -6.3938   -1.2002   29.6726 C   0  0  0  0  0  0
   -7.4218   -1.8259   29.4175 O   0  0  0  0  0  0
    1.3220    4.5383   29.9945 C   0  0  0  0  0  0
    2.1355    4.0414   31.0243 C   0  0  0  0  0  0
    3.3166    3.3729   30.7090 C   0  0  0  0  0  0
    3.7244    3.2380   29.3851 C   0  0  0  0  0  0
    2.9142    3.7069   28.3592 C   0  0  0  0  0  0
    1.7231    4.3568   28.6655 C   0  0  0  0  0  0
    1.7549    4.2045   32.4831 C   0  0  0  0  0  0
    0.8513    7.2070   29.8076 H   0  0  0  0  0  0
   -1.3483    8.3442   30.0685 H   0  0  0  0  0  0
   -3.2501    2.5861   31.4890 H   0  0  0  0  0  0
   -2.9888    2.6417   29.8082 H   0  0  0  0  0  0
   -8.4199    0.5979   29.5595 H   0  0  0  0  0  0
   -8.3308    3.0305   29.8783 H   0  0  0  0  0  0
   -6.2531    4.1516   30.3311 H   0  0  0  0  0  0
   -2.8951    0.4746   30.4641 H   0  0  0  0  0  0
   -3.2154   -1.9541   30.1334 H   0  0  0  0  0  0
   -5.2654   -2.8564   29.6757 H   0  0  0  0  0  0
    3.9066    2.9518   31.5003 H   0  0  0  0  0  0
    4.6615    2.7570   29.1515 H   0  0  0  0  0  0
    3.2063    3.5629   27.3308 H   0  0  0  0  0  0
    1.1066    4.7193   27.8584 H   0  0  0  0  0  0
    2.3396    3.5569   33.1327 H   0  0  0  0  0  0
    1.8793    5.2299   32.8117 H   0  0  0  0  0  0
    0.7062    3.9554   32.6078 H   0  0  0  0  0  0
  1  2  1  0  0  0
  1  4  2  0  0  0
  1 22  1  0  0  0
  2  3  2  0  0  0
  2 29  1  0  0  0
  3  6  1  0  0  0
  3 30  1  0  0  0
  4  5  1  0  0  0
  5  9  1  0  0  0
  5  6  1  0  0  0
  6  7  2  0  0  0
  7  8  1  0  0  0
  8  9  2  0  0  0
  9 10  1  0  0  0
 10 11  1  0  0  0
 10 31  1  0  0  0
 10 32  1  0  0  0
 11 14  1  0  0  0
 11 16  2  0  0  0
 12 13  1  0  0  0
 12 15  2  0  0  0
 12 33  1  0  0  0
 13 14  2  0  0  0
 13 34  1  0  0  0
 14 35  1  0  0  0
 15 16  1  0  0  0
 15 20  1  0  0  0
 16 17  1  0  0  0
 17 18  2  0  0  0
 17 36  1  0  0  0
 18 19  1  0  0  0
 18 37  1  0  0  0
 19 20  1  0  0  0
 19 38  1  0  0  0
 20 21  2  0  0  0
 22 23  2  0  0  0
 22 27  1  0  0  0
 23 24  1  0  0  0
 23 28  1  0  0  0
 24 25  2  0  0  0
 24 39  1  0  0  0
 25 26  1  0  0  0
 25 40  1  0  0  0
 26 27  2  0  0  0
 26 41  1  0  0  0
 27 42  1  0  0  0
 28 43  1  0  0  0
 28 44  1  0  0  0
 28 45  1  0  0  0
M  END
> <s_m_entry_id>
10006

> <s_m_entry_name>
dock_pv.75

> <s_m_Source_Path>
/home/csk/Desktop/cluster/DUD-E-result/met

> <s_m_Source_File>
dock_pv.maegz

> <i_m_Source_File_Index>
75

> <chembl_id>
CHEMBL1922413

> <chembl_pref_name>
None

> <i_lp_mmshare_version>
53161

> <i_f3d_flags>
0

> <r_lp_tautomer_probability>
1

> <s_lp_Force_Field>
OPLS_2005

> <r_lp_Energy>
30.422031

> <b_lp_Chiralities_Consistent>
1

> <s_lp_Variant>
CHEMBL3717_lig1098-1

> <s_i_glide_gridfile>
glide-grid_3lq8

> <i_i_glide_lignum>
1252

> <i_i_glide_rotatable_bonds>
3

> <r_i_docking_score>
-8.646279054304

> <r_i_glide_ligand_efficiency>
-0.308795680510857

> <r_i_glide_ligand_efficiency_sa>
-0.937685556960589

> <r_i_glide_ligand_efficiency_ln>
-1.99581507151755

> <r_i_glide_gscore>
-8.646279054304

> <r_i_glide_lipo>
-3.77463488601749

> <r_i_glide_hbond>
0

> <r_i_glide_metal>
0

> <r_i_glide_rewards>
-2.80373585897282

> <r_i_glide_evdw>
-45.0037040710449

> <r_i_glide_ecoul>
-1.49921309947968

> <r_i_glide_erotb>
0.428008657944099

> <r_i_glide_esite>
-0.0208497987835821

> <r_i_glide_emodel>
-64.8506650704132

> <r_i_glide_energy>
-46.5029171705246

> <r_i_glide_einternal>
3.0577986240387

> <i_i_glide_confnum>
10

> <i_i_glide_posenum>
258

> <r_i_glide_eff_state_penalty>
0

> <s_user_duplicate_titles>
CHEMBL3717_lig1098

> <s_m_subgroup_title>
dock_pv

> <s_m_subgroupid>
dock_pv

> <b_m_subgroup_collapsed>
1

$$$$
CHEMBL3717_lig885
                    3D
 Schrodinger Suite 2021-1.
 37 40  0  0  1  0            999 V2000
   -4.0094    2.5232   30.1980 N   0  0  0  0  0  0
   -5.1459    1.8390   30.0726 C   0  0  0  0  0  0
   -6.4363    2.4031   30.2069 C   0  0  0  0  0  0
   -6.5961    3.7069   30.4715 N   0  0  0  0  0  0
   -5.4435    4.4253   30.6057 C   0  0  0  0  0  0
   -4.1631    3.8516   30.4768 C   0  0  0  0  0  0
   -2.8932    4.6300   30.6077 C   0  0  0  0  0  0
   -2.8504    5.9786   30.2318 C   0  0  0  0  0  0
   -1.6420    6.6752   30.2108 C   0  0  0  0  0  0
   -0.4704    6.0310   30.6020 C   0  0  0  0  0  0
   -0.4968    4.7020   31.0080 C   0  0  0  0  0  0
   -1.7008    4.0077   31.0085 C   0  0  0  0  0  0
    0.7044    6.7011   30.5847 F   0  0  0  0  0  0
   -7.4024    1.4517   30.0333 N   0  0  0  0  0  0
   -6.7238    0.3461   29.8210 C   0  0  0  0  0  0
   -5.3505    0.4942   29.8339 N   0  0  0  0  0  0
   -4.3521   -0.5597   29.6284 C   0  0  0  0  0  0
   -3.3507   -0.8304   30.7624 C   0  0  0  0  0  0
   -3.3012   -0.0426   31.9183 C   0  0  0  0  0  0
   -2.3220   -0.2573   32.8788 C   0  0  0  0  0  0
   -1.4235   -1.3051   32.7260 C   0  0  0  0  0  0
   -1.4743   -2.1199   31.5962 C   0  0  0  0  0  0
   -2.4376   -1.8831   30.6160 C   0  0  0  0  0  0
   -0.4945   -1.5238   33.7048 O   0  0  0  0  0  0
   -5.5725    5.4753   30.8217 H   0  0  0  0  0  0
   -3.7468    6.4802   29.8959 H   0  0  0  0  0  0
   -1.6072    7.7070   29.8912 H   0  0  0  0  0  0
    0.4173    4.2102   31.3062 H   0  0  0  0  0  0
   -1.6942    2.9707   31.3059 H   0  0  0  0  0  0
   -7.1530   -0.6290   29.6466 H   0  0  0  0  0  0
   -3.7902   -0.2918   28.7300 H   0  0  0  0  0  0
   -4.8763   -1.4849   29.3897 H   0  0  0  0  0  0
   -4.0121    0.7468   32.0918 H   0  0  0  0  0  0
   -2.2863    0.3662   33.7597 H   0  0  0  0  0  0
   -0.7758   -2.9345   31.4736 H   0  0  0  0  0  0
   -2.4631   -2.5138   29.7384 H   0  0  0  0  0  0
    0.2366   -2.0800   33.4078 H   0  0  0  0  0  0
  1  2  2  0  0  0
  1  6  1  0  0  0
  2  3  1  0  0  0
  2 16  1  0  0  0
  3  4  2  0  0  0
  3 14  1  0  0  0
  4  5  1  0  0  0
  5  6  2  0  0  0
  5 25  1  0  0  0
  6  7  1  0  0  0
  7  8  2  0  0  0
  7 12  1  0  0  0
  8  9  1  0  0  0
  8 26  1  0  0  0
  9 10  2  0  0  0
  9 27  1  0  0  0
 10 11  1  0  0  0
 10 13  1  0  0  0
 11 12  2  0  0  0
 11 28  1  0  0  0
 12 29  1  0  0  0
 14 15  2  0  0  0
 15 16  1  0  0  0
 15 30  1  0  0  0
 16 17  1  0  0  0
 17 18  1  0  0  0
 17 31  1  0  0  0
 17 32  1  0  0  0
 18 19  2  0  0  0
 18 23  1  0  0  0
 19 20  1  0  0  0
 19 33  1  0  0  0
 20 21  2  0  0  0
 20 34  1  0  0  0
 21 22  1  0  0  0
 21 24  1  0  0  0
 22 23  2  0  0  0
 22 35  1  0  0  0
 23 36  1  0  0  0
 24 37  1  0  0  0
M  END
> <s_m_entry_id>
10007

> <s_m_entry_name>
dock_pv.76

> <s_m_Source_Path>
/home/csk/Desktop/cluster/DUD-E-result/met

> <s_m_Source_File>
dock_pv.maegz

> <i_m_Source_File_Index>
76

> <chembl_id>
CHEMBL1822377

> <chembl_pref_name>
None

> <i_lp_mmshare_version>
53161

> <i_f3d_flags>
0

> <r_lp_tautomer_probability>
0.999999999997365

> <s_lp_Force_Field>
OPLS_2005

> <r_lp_Energy>
22.419917

> <b_lp_Chiralities_Consistent>
1

> <s_lp_Variant>
CHEMBL3717_lig885-1

> <s_i_glide_gridfile>
glide-grid_3lq8

> <i_i_glide_lignum>
956

> <i_i_glide_rotatable_bonds>
4

> <r_i_docking_score>
-8.64257894151888

> <r_i_glide_ligand_efficiency>
-0.36010745589662

> <r_i_glide_ligand_efficiency_sa>
-1.03872964596241

> <r_i_glide_ligand_efficiency_ln>
-2.06856572281146

> <r_i_glide_gscore>
-8.64257894151888

> <r_i_glide_lipo>
-3.41364431597554

> <r_i_glide_hbond>
-0.32

> <r_i_glide_metal>
0

> <r_i_glide_rewards>
-2.70122604072105

> <r_i_glide_evdw>
-35.8462181091309

> <r_i_glide_ecoul>
-6.40872764587402

> <r_i_glide_erotb>
0.545911467515355

> <r_i_glide_esite>
0

> <r_i_glide_emodel>
-62.4930266893059

> <r_i_glide_energy>
-42.2549457550049

> <r_i_glide_einternal>
2.43764495849609

> <i_i_glide_confnum>
13

> <i_i_glide_posenum>
214

> <r_i_glide_eff_state_penalty>
0

> <s_user_duplicate_titles>
CHEMBL3717_lig885

> <s_m_subgroup_title>
dock_pv

> <s_m_subgroupid>
dock_pv

> <b_m_subgroup_collapsed>
1

$$$$
CHEMBL3717_lig4315
                    3D
 Schrodinger Suite 2021-1.
 36 39  0  0  1  0            999 V2000
    4.3061    3.5570   27.8112 O   0  0  0  0  0  0
    3.3277    3.7486   28.7335 C   0  0  0  0  0  0
    2.0051    3.5592   28.3564 C   0  0  0  0  0  0
    0.9975    3.7809   29.2837 C   0  0  0  0  0  0
    1.3154    4.2143   30.5721 C   0  0  0  0  0  0
    0.2188    4.4919   31.5838 C   0  0  0  0  0  0
   -1.0712    5.0631   31.0074 C   0  0  0  0  0  0
   -1.2516    6.3075   30.6080 N   0  0  0  0  0  0
   -2.5796    6.4864   30.2559 N   0  0  0  0  0  0
   -3.1725    5.2755   30.3654 C   0  0  0  0  0  0
   -4.4843    4.8481   30.1093 C   0  0  0  0  0  0
   -4.7773    3.4848   30.2119 C   0  0  0  0  0  0
   -3.8110    2.5533   30.6079 C   0  0  0  0  0  0
   -2.5257    3.0016   30.9298 C   0  0  0  0  0  0
   -2.2226    4.3330   30.7970 N   0  0  0  0  0  0
   -4.1838    1.1140   30.7397 C   0  0  0  0  0  0
   -5.4174    0.5219   31.0083 C   0  0  0  0  0  0
   -5.2597   -0.8672   31.0391 C   0  0  0  0  0  0
   -3.9277   -1.1321   30.7819 C   0  0  0  0  0  0
   -3.2942    0.0710   30.6076 N   0  0  0  0  0  0
    2.6516    4.3601   30.9527 C   0  0  0  0  0  0
    3.6642    4.1290   30.0288 C   0  0  0  0  0  0
    5.1578    3.3382   28.2076 H   0  0  0  0  0  0
    1.7614    3.2407   27.3533 H   0  0  0  0  0  0
   -0.0294    3.6157   28.9966 H   0  0  0  0  0  0
    0.0480    3.5570   32.1137 H   0  0  0  0  0  0
    0.6126    5.1780   32.3351 H   0  0  0  0  0  0
   -5.2401    5.5569   29.8012 H   0  0  0  0  0  0
   -5.7798    3.1483   29.9858 H   0  0  0  0  0  0
   -1.7347    2.3568   31.2745 H   0  0  0  0  0  0
   -6.3464    1.0462   31.1756 H   0  0  0  0  0  0
   -6.0351   -1.5970   31.2236 H   0  0  0  0  0  0
   -3.3832   -2.0631   30.7007 H   0  0  0  0  0  0
   -2.3142    0.1740   30.3893 H   0  0  0  0  0  0
    2.9070    4.6731   31.9546 H   0  0  0  0  0  0
    4.6970    4.2670   30.3127 H   0  0  0  0  0  0
  1  2  1  0  0  0
  1 23  1  0  0  0
  2  3  2  0  0  0
  2 22  1  0  0  0
  3  4  1  0  0  0
  3 24  1  0  0  0
  4  5  2  0  0  0
  4 25  1  0  0  0
  5  6  1  0  0  0
  5 21  1  0  0  0
  6  7  1  0  0  0
  6 26  1  0  0  0
  6 27  1  0  0  0
  7  8  2  0  0  0
  7 15  1  0  0  0
  8  9  1  0  0  0
  9 10  2  0  0  0
 10 11  1  0  0  0
 10 15  1  0  0  0
 11 12  2  0  0  0
 11 28  1  0  0  0
 12 13  1  0  0  0
 12 29  1  0  0  0
 13 14  2  0  0  0
 13 16  1  0  0  0
 14 15  1  0  0  0
 14 30  1  0  0  0
 16 17  2  0  0  0
 16 20  1  0  0  0
 17 18  1  0  0  0
 17 31  1  0  0  0
 18 19  2  0  0  0
 18 32  1  0  0  0
 19 20  1  0  0  0
 19 33  1  0  0  0
 20 34  1  0  0  0
 21 22  2  0  0  0
 21 35  1  0  0  0
 22 36  1  0  0  0
M  END
> <s_m_entry_id>
10009

> <s_m_entry_name>
dock_pv.78

> <s_m_Source_Path>
/home/csk/Desktop/cluster/DUD-E-result/met

> <s_m_Source_File>
dock_pv.maegz

> <i_m_Source_File_Index>
78

> <chembl_id>
CHEMBL3668139

> <chembl_pref_name>
None

> <i_lp_mmshare_version>
53161

> <i_f3d_flags>
0

> <r_lp_tautomer_probability>
0.999999999997365

> <s_lp_Force_Field>
OPLS_2005

> <r_lp_Energy>
10.991089

> <b_lp_Chiralities_Consistent>
1

> <s_lp_Variant>
CHEMBL3717_lig4315-1

> <s_i_glide_gridfile>
glide-grid_3lq8

> <i_i_glide_lignum>
5537

> <i_i_glide_rotatable_bonds>
4

> <r_i_docking_score>
-8.62712942908189

> <r_i_glide_ligand_efficiency>
-0.392142246776449

> <r_i_glide_ligand_efficiency_sa>
-1.09879799754704

> <r_i_glide_ligand_efficiency_ln>
-2.10878511465945

> <r_i_glide_gscore>
-8.62712942908189

> <r_i_glide_lipo>
-3.31382125077362

> <r_i_glide_hbond>
-0.20112593137445

> <r_i_glide_metal>
0

> <r_i_glide_rewards>
-3.34018439222678

> <r_i_glide_evdw>
-33.1707458496094

> <r_i_glide_ecoul>
-5.08054876327515

> <r_i_glide_erotb>
0.6486217522647

> <r_i_glide_esite>
0

> <r_i_glide_emodel>
-55.5778751015414

> <r_i_glide_energy>
-38.2512946128845

> <r_i_glide_einternal>
4.3072338104248

> <i_i_glide_confnum>
2

> <i_i_glide_posenum>
169

> <r_i_glide_eff_state_penalty>
0

> <s_user_duplicate_titles>
CHEMBL3717_lig4315

> <s_m_subgroup_title>
dock_pv

> <s_m_subgroupid>
dock_pv

> <b_m_subgroup_collapsed>
1

$$$$
CHEMBL3717_lig3736
                    3D
 Schrodinger Suite 2021-1.
 49 52  0  0  1  0            999 V2000
   -4.5989    2.8420   30.5176 O   0  0  0  0  0  0
    4.2114    3.6531   30.4381 N   0  0  0  0  0  0
    4.2139    3.2197   29.1654 N   0  0  0  0  0  0
   -3.1956    6.2180   30.6284 N   0  0  0  0  0  0
   -6.2928    0.8468   29.2679 N   0  0  0  0  0  0
    2.0840    3.6295   29.5217 C   0  0  0  0  0  0
    2.8900    3.9262   30.6557 C   0  0  0  0  0  0
    0.1236    4.4056   30.6878 C   0  0  0  0  0  0
    0.7057    3.8404   29.5542 C   0  0  0  0  0  0
    2.9861    3.1572   28.5531 C   0  0  0  0  0  0
   -1.3377    4.6568   30.6980 C   0  0  0  0  0  0
    2.2936    4.4465   31.8079 C   0  0  0  0  0  0
    0.9249    4.7148   31.7888 C   0  0  0  0  0  0
   -2.2450    3.5929   30.6638 C   0  0  0  0  0  0
   -3.6315    3.8295   30.6067 C   0  0  0  0  0  0
   -1.8647    5.9521   30.6657 C   0  0  0  0  0  0
   -4.0502    5.1630   30.6065 C   0  0  0  0  0  0
    2.7307    2.7306   27.1391 C   0  0  0  0  0  0
   -4.1671    1.4931   30.3201 C   0  0  0  0  0  0
   -5.3331    0.4752   30.2922 C   0  0  2  0  0  0
   -3.9213   -1.5478   31.0190 C   0  0  0  0  0  0
   -4.8759   -0.9732   29.9827 C   0  0  0  0  0  0
   -2.5601   -1.2428   30.9543 C   0  0  0  0  0  0
   -4.4038   -2.3700   32.0370 C   0  0  0  0  0  0
   -1.6943   -1.6713   31.9527 C   0  0  0  0  0  0
   -3.5285   -2.8430   33.0080 C   0  0  0  0  0  0
   -2.1906   -2.4430   32.9931 C   0  0  0  0  0  0
    5.0725    2.9195   28.7173 H   0  0  0  0  0  0
   -6.4376    1.8462   29.3053 H   0  0  0  0  0  0
   -5.9106    0.6316   28.3570 H   0  0  0  0  0  0
    0.1037    3.5770   28.6976 H   0  0  0  0  0  0
    2.8867    4.6849   32.6747 H   0  0  0  0  0  0
    0.4728    5.1573   32.6567 H   0  0  0  0  0  0
   -1.8498    2.5893   30.6602 H   0  0  0  0  0  0
   -1.2080    6.8108   30.6535 H   0  0  0  0  0  0
   -5.1023    5.4034   30.5557 H   0  0  0  0  0  0
    1.9706    1.9568   27.0915 H   0  0  0  0  0  0
    2.3060    3.5783   26.6080 H   0  0  0  0  0  0
    3.6104    2.3693   26.6094 H   0  0  0  0  0  0
   -3.5045    1.2260   31.1433 H   0  0  0  0  0  0
   -3.5993    1.4301   29.3897 H   0  0  0  0  0  0
   -5.8442    0.4993   31.2565 H   0  0  0  0  0  0
   -4.3878   -1.0221   29.0082 H   0  0  0  0  0  0
   -5.7409   -1.6344   29.8978 H   0  0  0  0  0  0
   -2.1778   -0.6427   30.1462 H   0  0  0  0  0  0
   -5.4485   -2.6412   32.0781 H   0  0  0  0  0  0
   -0.6453   -1.4139   31.9181 H   0  0  0  0  0  0
   -3.8943   -3.4845   33.7957 H   0  0  0  0  0  0
   -1.5195   -2.7875   33.7667 H   0  0  0  0  0  0
  1 15  1  0  0  0
  1 19  1  0  0  0
  2  3  1  0  0  0
  2  7  2  0  0  0
  3 28  1  0  0  0
  3 10  1  0  0  0
  4 16  1  0  0  0
  4 17  2  0  0  0
  5 20  1  0  0  0
  5 29  1  0  0  0
  5 30  1  0  0  0
  6  9  1  0  0  0
  6  7  1  0  0  0
  6 10  2  0  0  0
  7 12  1  0  0  0
  8 13  1  0  0  0
  8 11  1  0  0  0
  8  9  2  0  0  0
  9 31  1  0  0  0
 10 18  1  0  0  0
 11 14  1  0  0  0
 11 16  2  0  0  0
 12 32  1  0  0  0
 12 13  2  0  0  0
 13 33  1  0  0  0
 14 15  2  0  0  0
 14 34  1  0  0  0
 15 17  1  0  0  0
 16 35  1  0  0  0
 17 36  1  0  0  0
 18 37  1  0  0  0
 18 38  1  0  0  0
 18 39  1  0  0  0
 19 20  1  0  0  0
 19 40  1  0  0  0
 19 41  1  0  0  0
 20 22  1  0  0  0
 20 42  1  0  0  0
 21 22  1  0  0  0
 21 23  2  0  0  0
 21 24  1  0  0  0
 22 43  1  0  0  0
 22 44  1  0  0  0
 23 25  1  0  0  0
 23 45  1  0  0  0
 24 26  2  0  0  0
 24 46  1  0  0  0
 25 27  2  0  0  0
 25 47  1  0  0  0
 26 27  1  0  0  0
 26 48  1  0  0  0
 27 49  1  0  0  0
M  END
> <s_m_entry_id>
10010

> <s_m_entry_name>
dock_pv.79

> <s_m_Source_Path>
/home/csk/Desktop/cluster/DUD-E-result/met

> <s_m_Source_File>
dock_pv.maegz

> <i_m_Source_File_Index>
79

> <chembl_id>
CHEMBL2002726

> <chembl_pref_name>
None

> <i_lp_mmshare_version>
53161

> <i_f3d_flags>
0

> <r_lp_tautomer_probability>
0.0196078431372549

> <s_lp_Force_Field>
OPLS_2005

> <r_lp_Energy>
40.165623

> <b_lp_Chiralities_Consistent>
1

> <s_lp_Variant>
CHEMBL3717_lig3736-3

> <s_i_glide_gridfile>
glide-grid_3lq8

> <i_i_glide_lignum>
4717

> <i_i_glide_rotatable_bonds>
6

> <r_i_docking_score>
-8.61195570413732

> <r_i_glide_ligand_efficiency>
-0.318961322375456

> <r_i_glide_ligand_efficiency_sa>
-0.956883966075124

> <r_i_glide_ligand_efficiency_ln>
-2.00472130873711

> <r_i_glide_gscore>
-8.61195570413732

> <r_i_glide_lipo>
-4.0894928831224

> <r_i_glide_hbond>
-0.32

> <r_i_glide_metal>
0

> <r_i_glide_rewards>
-2.52263109700408

> <r_i_glide_evdw>
-40.4592628479004

> <r_i_glide_ecoul>
-2.68242859840393

> <r_i_glide_erotb>
0.745495708144768

> <r_i_glide_esite>
0

> <r_i_glide_emodel>
-64.6420515310285

> <r_i_glide_energy>
-43.1416914463043

> <r_i_glide_einternal>
4.15775108337402

> <i_i_glide_confnum>
21

> <i_i_glide_posenum>
61

> <r_i_glide_eff_state_penalty>
0

> <s_user_duplicate_titles>
CHEMBL3717_lig3736,CHEMBL3717_lig3736

> <s_m_subgroup_title>
dock_pv

> <s_m_subgroupid>
dock_pv

> <b_m_subgroup_collapsed>
1

$$$$
CHEMBL3717_lig4314
                    3D
 Schrodinger Suite 2021-1.
 36 39  0  0  1  0            999 V2000
    5.5045    4.3569   28.3898 O   0  0  0  0  0  0
    4.3125    4.1884   29.0429 C   0  0  0  0  0  0
    3.1903    3.7170   28.3622 C   0  0  0  0  0  0
    1.9772    3.5890   29.0355 C   0  0  0  0  0  0
    1.8921    3.9229   30.3903 C   0  0  0  0  0  0
    0.5735    3.7691   31.1345 C   0  0  0  0  0  0
   -0.5056    4.7755   30.7600 C   0  0  0  0  0  0
   -0.3242    6.0497   30.4716 N   0  0  0  0  0  0
   -1.5552    6.6400   30.2084 N   0  0  0  0  0  0
   -2.4866    5.6715   30.3651 C   0  0  0  0  0  0
   -3.8817    5.6756   30.2138 C   0  0  0  0  0  0
   -4.5700    4.4646   30.3070 C   0  0  0  0  0  0
   -3.9260    3.2517   30.5978 C   0  0  0  0  0  0
   -2.5439    3.2883   30.8349 C   0  0  0  0  0  0
   -1.8479    4.4632   30.6901 N   0  0  0  0  0  0
   -4.6790    1.9537   30.6058 C   0  0  0  0  0  0
   -6.0819    1.8709   30.6470 C   0  0  0  0  0  0
   -6.7394    0.6816   30.6254 N   0  0  0  0  0  0
   -5.9849   -0.4446   30.5588 C   0  0  0  0  0  0
   -4.5916   -0.3835   30.5227 C   0  0  0  0  0  0
   -3.9378    0.8068   30.5461 N   0  0  0  0  0  0
    3.0284    4.3572   31.0727 C   0  0  0  0  0  0
    4.2380    4.4921   30.3968 C   0  0  0  0  0  0
    5.9051    3.4929   28.2080 H   0  0  0  0  0  0
    3.2470    3.4577   27.3166 H   0  0  0  0  0  0
    1.1036    3.2340   28.5051 H   0  0  0  0  0  0
    0.2370    2.7572   30.9269 H   0  0  0  0  0  0
    0.7462    3.7982   32.2076 H   0  0  0  0  0  0
   -4.4085    6.5827   29.9601 H   0  0  0  0  0  0
   -5.6306    4.4897   30.1103 H   0  0  0  0  0  0
   -1.9646    2.4097   31.0760 H   0  0  0  0  0  0
   -6.7149    2.7447   30.7078 H   0  0  0  0  0  0
   -6.5101   -1.3892   30.5388 H   0  0  0  0  0  0
   -3.9894   -1.2803   30.4669 H   0  0  0  0  0  0
    2.9771    4.6073   32.1225 H   0  0  0  0  0  0
    5.1143    4.8497   30.9173 H   0  0  0  0  0  0
  1  2  1  0  0  0
  1 24  1  0  0  0
  2  3  2  0  0  0
  2 23  1  0  0  0
  3  4  1  0  0  0
  3 25  1  0  0  0
  4  5  2  0  0  0
  4 26  1  0  0  0
  5  6  1  0  0  0
  5 22  1  0  0  0
  6  7  1  0  0  0
  6 27  1  0  0  0
  6 28  1  0  0  0
  7  8  2  0  0  0
  7 15  1  0  0  0
  8  9  1  0  0  0
  9 10  2  0  0  0
 10 11  1  0  0  0
 10 15  1  0  0  0
 11 12  2  0  0  0
 11 29  1  0  0  0
 12 13  1  0  0  0
 12 30  1  0  0  0
 13 14  2  0  0  0
 13 16  1  0  0  0
 14 15  1  0  0  0
 14 31  1  0  0  0
 16 17  2  0  0  0
 16 21  1  0  0  0
 17 18  1  0  0  0
 17 32  1  0  0  0
 18 19  2  0  0  0
 19 20  1  0  0  0
 19 33  1  0  0  0
 20 21  2  0  0  0
 20 34  1  0  0  0
 22 23  2  0  0  0
 22 35  1  0  0  0
 23 36  1  0  0  0
M  END
> <s_m_entry_id>
10011

> <s_m_entry_name>
dock_pv.80

> <s_m_Source_Path>
/home/csk/Desktop/cluster/DUD-E-result/met

> <s_m_Source_File>
dock_pv.maegz

> <i_m_Source_File_Index>
80

> <chembl_id>
CHEMBL3668138

> <chembl_pref_name>
None

> <i_lp_mmshare_version>
53161

> <i_f3d_flags>
0

> <r_lp_tautomer_probability>
0.999999999997365

> <s_lp_Force_Field>
OPLS_2005

> <r_lp_Energy>
22.940571

> <b_lp_Chiralities_Consistent>
1

> <s_lp_Variant>
CHEMBL3717_lig4314-1

> <s_i_glide_gridfile>
glide-grid_3lq8

> <i_i_glide_lignum>
5536

> <i_i_glide_rotatable_bonds>
4

> <r_i_docking_score>
-8.60400937871974

> <r_i_glide_ligand_efficiency>
-0.374087364292163

> <r_i_glide_ligand_efficiency_sa>
-1.06385470177828

> <r_i_glide_ligand_efficiency_ln>
-2.08052748461809

> <r_i_glide_gscore>
-8.60400937871974

> <r_i_glide_lipo>
-3.13455731138458

> <r_i_glide_hbond>
-0.32

> <r_i_glide_metal>
0

> <r_i_glide_rewards>
-3.12719490955651

> <r_i_glide_evdw>
-38.1042823791504

> <r_i_glide_ecoul>
-4.78572702407837

> <r_i_glide_erotb>
0.600816014790621

> <r_i_glide_esite>
0

> <r_i_glide_emodel>
-61.1749540418319

> <r_i_glide_energy>
-42.8900094032288

> <r_i_glide_einternal>
5.07862710952759

> <i_i_glide_confnum>
14

> <i_i_glide_posenum>
303

> <r_i_glide_eff_state_penalty>
0

> <s_user_duplicate_titles>
CHEMBL3717_lig4314

> <s_m_subgroup_title>
dock_pv

> <s_m_subgroupid>
dock_pv

> <b_m_subgroup_collapsed>
1

$$$$
CHEMBL3717_lig2351
                    3D
 Schrodinger Suite 2021-1.
 53 58  0  0  1  0            999 V2000
   -5.3902    2.5892   30.0954 N   0  0  0  0  0  0
   -6.6740    2.2309   29.9207 N   0  0  0  0  0  0
   -7.7781    3.0773   30.0814 C   0  0  0  0  0  0
   -7.6088    4.3558   30.4365 N   0  0  0  0  0  0
   -6.3177    4.7561   30.6084 C   0  0  0  0  0  0
   -5.2156    3.9010   30.4390 C   0  0  0  0  0  0
   -8.5188    1.1031   29.4729 N   0  0  0  0  0  0
   -8.9120    2.3914   29.8168 N   0  0  0  0  0  0
   -7.2052    1.0160   29.5376 C   0  0  0  0  0  0
   -3.7975    4.3541   30.6071 C   0  0  0  0  0  0
   -3.4584    5.7081   30.4817 C   0  0  0  0  0  0
   -2.1370    6.1296   30.6078 C   0  0  0  0  0  0
   -1.1239    5.2158   30.8876 C   0  0  0  0  0  0
   -1.4456    3.8586   31.0085 C   0  0  0  0  0  0
   -2.7625    3.4375   30.8632 C   0  0  0  0  0  0
    0.1543    5.7306   31.0044 O   0  0  0  0  0  0
    1.2327    4.9056   31.4463 C   0  0  0  0  0  0
    2.0227    4.3182   30.2824 C   0  0  0  0  0  0
    1.3834    3.8908   29.1128 C   0  0  0  0  0  0
    2.1228    3.3277   28.0791 C   0  0  0  0  0  0
    3.5019    3.2022   28.2092 C   0  0  0  0  0  0
    4.1521    3.6378   29.3622 C   0  0  0  0  0  0
    3.4112    4.1904   30.4026 C   0  0  0  0  0  0
   -6.3770   -0.2218   29.2405 C   0  0  0  0  0  0
   -5.1285   -1.2426   32.6077 N   0  0  0  0  0  0
   -6.0890   -0.7392   31.7728 C   0  0  0  0  0  0
   -5.6327   -0.7077   30.4702 C   0  0  0  0  0  0
   -4.2978   -1.2589   30.5191 C   0  0  0  0  0  0
   -3.3102   -1.5132   29.5545 C   0  0  0  0  0  0
   -2.0867   -2.0431   29.9557 C   0  0  0  0  0  0
   -1.8169   -2.3120   31.2933 C   0  0  0  0  0  0
   -2.7669   -2.0890   32.2881 C   0  0  0  0  0  0
   -4.0021   -1.5657   31.8844 C   0  0  0  0  0  0
   -6.1975    5.7969   30.8768 H   0  0  0  0  0  0
   -4.2123    6.4485   30.2553 H   0  0  0  0  0  0
   -1.8918    7.1770   30.4977 H   0  0  0  0  0  0
   -0.6896    3.1116   31.1951 H   0  0  0  0  0  0
   -2.9763    2.3822   30.9576 H   0  0  0  0  0  0
    1.8985    5.5552   32.0083 H   0  0  0  0  0  0
    0.9346    4.1279   32.1506 H   0  0  0  0  0  0
    0.3141    3.9785   28.9934 H   0  0  0  0  0  0
    1.6257    2.9814   27.1811 H   0  0  0  0  0  0
    4.0700    2.7581   27.4074 H   0  0  0  0  0  0
    5.2261    3.5374   29.4458 H   0  0  0  0  0  0
    3.9159    4.5210   31.2993 H   0  0  0  0  0  0
   -5.6779   -0.0090   28.4334 H   0  0  0  0  0  0
   -7.0067   -1.0239   28.8543 H   0  0  0  0  0  0
   -5.2738   -1.3137   33.6031 H   0  0  0  0  0  0
   -7.0380   -0.4246   32.1838 H   0  0  0  0  0  0
   -3.4941   -1.3021   28.5140 H   0  0  0  0  0  0
   -1.3255   -2.2366   29.2144 H   0  0  0  0  0  0
   -0.8514   -2.7163   31.5624 H   0  0  0  0  0  0
   -2.5511   -2.3293   33.3187 H   0  0  0  0  0  0
  1  2  1  0  0  0
  1  6  2  0  0  0
  2  3  1  0  0  0
  2  9  1  0  0  0
  3  4  1  0  0  0
  3  8  2  0  0  0
  4  5  2  0  0  0
  5  6  1  0  0  0
  5 34  1  0  0  0
  6 10  1  0  0  0
  7  8  1  0  0  0
  7  9  2  0  0  0
  9 24  1  0  0  0
 10 11  1  0  0  0
 10 15  2  0  0  0
 11 12  2  0  0  0
 11 35  1  0  0  0
 12 13  1  0  0  0
 12 36  1  0  0  0
 13 14  2  0  0  0
 13 16  1  0  0  0
 14 15  1  0  0  0
 14 37  1  0  0  0
 15 38  1  0  0  0
 16 17  1  0  0  0
 17 18  1  0  0  0
 17 39  1  0  0  0
 17 40  1  0  0  0
 18 19  1  0  0  0
 18 23  2  0  0  0
 19 20  2  0  0  0
 19 41  1  0  0  0
 20 21  1  0  0  0
 20 42  1  0  0  0
 21 22  2  0  0  0
 21 43  1  0  0  0
 22 23  1  0  0  0
 22 44  1  0  0  0
 23 45  1  0  0  0
 24 27  1  0  0  0
 24 46  1  0  0  0
 24 47  1  0  0  0
 25 26  1  0  0  0
 25 33  1  0  0  0
 25 48  1  0  0  0
 26 27  2  0  0  0
 26 49  1  0  0  0
 27 28  1  0  0  0
 28 29  1  0  0  0
 28 33  2  0  0  0
 29 30  2  0  0  0
 29 50  1  0  0  0
 30 31  1  0  0  0
 30 51  1  0  0  0
 31 32  2  0  0  0
 31 52  1  0  0  0
 32 33  1  0  0  0
 32 53  1  0  0  0
M  END
> <s_m_entry_id>
10012

> <s_m_entry_name>
dock_pv.81

> <s_m_Source_Path>
/home/csk/Desktop/cluster/DUD-E-result/met

> <s_m_Source_File>
dock_pv.maegz

> <i_m_Source_File_Index>
81

> <chembl_id>
CHEMBL3798619

> <chembl_pref_name>
None

> <i_lp_mmshare_version>
53161

> <i_f3d_flags>
0

> <r_lp_tautomer_probability>
1

> <s_lp_Force_Field>
OPLS_2005

> <r_lp_Energy>
31.220856

> <b_lp_Chiralities_Consistent>
1

> <s_lp_Variant>
CHEMBL3717_lig2351-1

> <s_i_glide_gridfile>
glide-grid_3lq8

> <i_i_glide_lignum>
2675

> <i_i_glide_rotatable_bonds>
6

> <r_i_docking_score>
-8.6027031926565

> <r_i_glide_ligand_efficiency>
-0.260687975535045

> <r_i_glide_ligand_efficiency_sa>
-0.836165629971217

> <r_i_glide_ligand_efficiency_ln>
-1.91319664763353

> <r_i_glide_gscore>
-8.6027031926565

> <r_i_glide_lipo>
-4.66694497360546

> <r_i_glide_hbond>
-0.0968807097672003

> <r_i_glide_metal>
0

> <r_i_glide_rewards>
-1.73039263361135

> <r_i_glide_evdw>
-50.011402130127

> <r_i_glide_ecoul>
-1.6138231754303

> <r_i_glide_erotb>
0.638343136918097

> <r_i_glide_esite>
-0.00418442976969151

> <r_i_glide_emodel>
-76.6030115731762

> <r_i_glide_energy>
-51.6252253055573

> <r_i_glide_einternal>
2.84753227233887

> <i_i_glide_confnum>
2

> <i_i_glide_posenum>
101

> <r_i_glide_eff_state_penalty>
0

> <s_user_duplicate_titles>
CHEMBL3717_lig2351

> <s_m_subgroup_title>
dock_pv

> <s_m_subgroupid>
dock_pv

> <b_m_subgroup_collapsed>
1

$$$$
CHEMBL3717_lig3530
                    3D
 Schrodinger Suite 2021-1.
 34 36  0  0  1  0            999 V2000
    3.0510    2.7430   27.4080 Br  0  0  0  0  0  0
   -5.3897    1.9570   29.8080 S   0  0  0  0  0  0
   -3.1478    7.1017   30.6080 O   0  0  0  0  0  0
    1.1060    5.1570   32.6079 O   0  0  0  0  0  0
   -1.4096    5.6774   30.6187 N   0  0  0  0  0  0
   -6.1662    5.1570   30.8340 N   0  0  0  0  0  0
   -3.1221    3.4781   30.6080 C   0  0  0  0  0  0
   -0.8778    4.4141   30.6080 C   0  0  0  0  0  0
   -3.6233    4.7545   30.6080 C   0  0  0  0  0  0
    0.5874    4.2647   30.4323 C   0  0  0  0  0  0
   -3.8595    2.1966   30.6018 C   0  0  0  0  0  0
   -1.6743    3.3314   30.6080 C   0  0  0  0  0  0
   -2.7485    5.9381   30.6095 C   0  0  0  0  0  0
    1.5149    4.6061   31.4274 C   0  0  0  0  0  0
    1.0712    3.6969   29.2451 C   0  0  0  0  0  0
   -3.4462    0.9820   31.1534 C   0  0  0  0  0  0
   -5.0300    4.9820   30.6984 C   0  0  0  0  0  0
   -5.4426    0.2598   30.1770 C   0  0  0  0  0  0
    2.4335    3.4840   29.0461 C   0  0  0  0  0  0
   -4.3210   -0.0801   30.9196 C   0  0  0  0  0  0
    2.8774    4.3570   31.2444 C   0  0  0  0  0  0
    3.3398    3.8079   30.0506 C   0  0  0  0  0  0
   -6.5820   -0.6100   29.7046 C   0  0  0  0  0  0
    1.8299    5.3168   33.2165 H   0  0  0  0  0  0
   -0.8199    6.4942   30.5989 H   0  0  0  0  0  0
   -1.2362    2.3570   30.5386 H   0  0  0  0  0  0
    0.3804    3.4078   28.4680 H   0  0  0  0  0  0
   -2.5287    0.8597   31.7098 H   0  0  0  0  0  0
   -4.1358   -1.0841   31.2731 H   0  0  0  0  0  0
    3.5856    4.6058   32.0198 H   0  0  0  0  0  0
    4.3958    3.6334   29.9016 H   0  0  0  0  0  0
   -6.4854   -1.6366   30.0589 H   0  0  0  0  0  0
   -6.6250   -0.6537   28.6156 H   0  0  0  0  0  0
   -7.5457   -0.2392   30.0539 H   0  0  0  0  0  0
  1 19  1  0  0  0
  2 11  1  0  0  0
  2 18  1  0  0  0
  3 13  2  0  0  0
  4 14  1  0  0  0
  4 24  1  0  0  0
  5  8  1  0  0  0
  5 13  1  0  0  0
  5 25  1  0  0  0
  6 17  3  0  0  0
  7  9  2  0  0  0
  7 11  1  0  0  0
  7 12  1  0  0  0
  8 10  1  0  0  0
  8 12  2  0  0  0
  9 13  1  0  0  0
  9 17  1  0  0  0
 10 14  1  0  0  0
 10 15  2  0  0  0
 11 16  2  0  0  0
 12 26  1  0  0  0
 14 21  2  0  0  0
 15 19  1  0  0  0
 15 27  1  0  0  0
 16 20  1  0  0  0
 16 28  1  0  0  0
 18 20  2  0  0  0
 18 23  1  0  0  0
 19 22  2  0  0  0
 20 29  1  0  0  0
 21 22  1  0  0  0
 21 30  1  0  0  0
 22 31  1  0  0  0
 23 32  1  0  0  0
 23 33  1  0  0  0
 23 34  1  0  0  0
M  END
> <s_m_entry_id>
10013

> <s_m_entry_name>
dock_pv.82

> <s_m_Source_Path>
/home/csk/Desktop/cluster/DUD-E-result/met

> <s_m_Source_File>
dock_pv.maegz

> <i_m_Source_File_Index>
82

> <chembl_id>
CHEMBL1997193

> <chembl_pref_name>
None

> <i_lp_mmshare_version>
53161

> <i_f3d_flags>
0

> <r_lp_tautomer_probability>
0.999999999997365

> <s_lp_Force_Field>
OPLS_2005

> <r_lp_Energy>
25.171856

> <b_lp_Chiralities_Consistent>
1

> <s_lp_Variant>
CHEMBL3717_lig3530-1

> <s_i_glide_gridfile>
glide-grid_3lq8

> <i_i_glide_lignum>
4363

> <i_i_glide_rotatable_bonds>
3

> <r_i_docking_score>
-8.60213836844348

> <r_i_glide_ligand_efficiency>
-0.374006016019282

> <r_i_glide_ligand_efficiency_sa>
-1.06362335811141

> <r_i_glide_ligand_efficiency_ln>
-2.08007505736791

> <r_i_glide_gscore>
-8.60213836844348

> <r_i_glide_lipo>
-3.73732351355371

> <r_i_glide_hbond>
-0.32

> <r_i_glide_metal>
0

> <r_i_glide_rewards>
-2.36170402546298

> <r_i_glide_evdw>
-40.4481468200684

> <r_i_glide_ecoul>
-2.8026020526886

> <r_i_glide_erotb>
0.259686819479919

> <r_i_glide_esite>
0

> <r_i_glide_emodel>
-60.9324754930816

> <r_i_glide_energy>
-43.250748872757

> <r_i_glide_einternal>
3.79157185554504

> <i_i_glide_confnum>
2

> <i_i_glide_posenum>
65

> <r_i_glide_eff_state_penalty>
0

> <s_user_duplicate_titles>
CHEMBL3717_lig3530

> <s_m_subgroup_title>
dock_pv

> <s_m_subgroupid>
dock_pv

> <b_m_subgroup_collapsed>
1

$$$$
CHEMBL3717_lig3314 
                    3D
 Schrodinger Suite 2021-1.
 53 57  0  0  1  0            999 V2000
   -0.1197    4.7895   30.6846 C   0  0  0  0  0  0
   -0.9354    3.6638   30.7606 C   0  0  0  0  0  0
   -2.2948    3.6782   30.7322 N   0  0  0  0  0  0
   -0.7413    6.0287   30.6033 C   0  0  0  0  0  0
   -2.1127    6.0533   30.6081 N   0  0  0  0  0  0
   -2.8823    4.8774   30.6510 C   0  0  0  0  0  0
   -4.2324    5.3188   30.6111 C   0  0  0  0  0  0
   -4.1078    6.7075   30.6080 C   0  0  0  0  0  0
   -2.8791    7.1571   30.6051 N   0  0  0  0  0  0
   -5.4769    4.5678   30.6078 C   0  0  0  0  0  0
   -6.7385    5.1551   30.6051 C   0  0  0  0  0  0
   -8.0265    4.0024   30.5974 S   0  0  0  0  0  0
   -6.8839    2.6851   30.6071 C   0  0  0  0  0  0
   -5.5735    3.1685   30.6054 C   0  0  0  0  0  0
   -7.3475    1.3162   30.6279 C   0  0  0  0  0  0
   -8.5459    1.0324   30.6626 O   0  0  0  0  0  0
   -6.3716    0.3892   30.5917 N   0  0  0  0  0  0
   -6.5798   -1.0613   30.6558 C   0  0  2  0  0  0
   -6.9209   -1.5674   32.0839 C   0  0  0  0  0  0
   -7.1664   -3.0900   32.1518 C   0  0  0  0  0  0
   -6.0464   -3.9011   31.4768 C   0  0  0  0  0  0
   -5.7890   -3.3965   30.0450 C   0  0  0  0  0  0
   -5.4349   -1.8924   30.0041 C   0  0  2  0  0  0
   -4.1208   -1.6187   30.5716 N   0  0  0  0  0  0
    1.3449    4.5876   30.6674 C   0  0  0  0  0  0
    2.1726    4.1043   31.6925 C   0  0  0  0  0  0
    3.4272    3.9658   31.3249 N   0  0  0  0  0  0
    3.4428    4.3545   30.0440 N   0  0  0  0  0  0
    2.2093    4.7573   29.6034 C   0  0  0  0  0  0
    4.6897    4.3126   29.3020 C   0  0  0  0  0  0
   -0.4627    2.7133   30.8328 H   0  0  0  0  0  0
   -0.2178    6.9759   30.5512 H   0  0  0  0  0  0
   -4.9362    7.4027   30.6051 H   0  0  0  0  0  0
   -6.9721    6.2090   30.5748 H   0  0  0  0  0  0
   -4.7045    2.5305   30.6098 H   0  0  0  0  0  0
   -5.4183    0.6930   30.6975 H   0  0  0  0  0  0
   -7.4545   -1.2620   30.0292 H   0  0  0  0  0  0
   -7.7974   -1.0459   32.4723 H   0  0  0  0  0  0
   -6.0947   -1.3187   32.7523 H   0  0  0  0  0  0
   -7.2763   -3.4010   33.1900 H   0  0  0  0  0  0
   -8.1156   -3.3201   31.6674 H   0  0  0  0  0  0
   -5.1293   -3.8243   32.0624 H   0  0  0  0  0  0
   -6.3068   -4.9589   31.4566 H   0  0  0  0  0  0
   -4.9872   -3.9783   29.5864 H   0  0  0  0  0  0
   -6.6668   -3.5790   29.4243 H   0  0  0  0  0  0
   -5.3975   -1.6005   28.9531 H   0  0  0  0  0  0
   -3.4650   -2.3040   30.2223 H   0  0  0  0  0  0
   -3.7863   -0.7241   30.2488 H   0  0  0  0  0  0
    1.8522    3.8434   32.6905 H   0  0  0  0  0  0
    2.0515    5.0876   28.5873 H   0  0  0  0  0  0
    4.5048    4.5041   28.2458 H   0  0  0  0  0  0
    5.3706    5.0668   29.6950 H   0  0  0  0  0  0
    5.1374    3.3230   29.4083 H   0  0  0  0  0  0
  1  2  1  0  0  0
  1  4  2  0  0  0
  1 25  1  0  0  0
  2  3  2  0  0  0
  2 31  1  0  0  0
  3  6  1  0  0  0
  4  5  1  0  0  0
  4 32  1  0  0  0
  5  6  1  0  0  0
  5  9  1  0  0  0
  6  7  2  0  0  0
  7  8  1  0  0  0
  7 10  1  0  0  0
  8  9  2  0  0  0
  8 33  1  0  0  0
 10 11  2  0  0  0
 10 14  1  0  0  0
 11 12  1  0  0  0
 11 34  1  0  0  0
 12 13  1  0  0  0
 13 14  2  0  0  0
 13 15  1  0  0  0
 14 35  1  0  0  0
 15 16  2  0  0  0
 15 17  1  0  0  0
 17 18  1  0  0  0
 17 36  1  0  0  0
 18 19  1  0  0  0
 18 23  1  0  0  0
 18 37  1  0  0  0
 19 20  1  0  0  0
 19 38  1  0  0  0
 19 39  1  0  0  0
 20 21  1  0  0  0
 20 40  1  0  0  0
 20 41  1  0  0  0
 21 22  1  0  0  0
 21 42  1  0  0  0
 21 43  1  0  0  0
 22 23  1  0  0  0
 22 44  1  0  0  0
 22 45  1  0  0  0
 23 24  1  0  0  0
 23 46  1  0  0  0
 24 47  1  0  0  0
 24 48  1  0  0  0
 25 26  1  0  0  0
 25 29  2  0  0  0
 26 27  2  0  0  0
 26 49  1  0  0  0
 27 28  1  0  0  0
 28 29  1  0  0  0
 28 30  1  0  0  0
 29 50  1  0  0  0
 30 51  1  0  0  0
 30 52  1  0  0  0
 30 53  1  0  0  0
M  END
> <s_m_entry_id>
10014

> <s_m_entry_name>
dock_pv.83

> <s_m_Source_Path>
/home/csk/Desktop/cluster/DUD-E-result/met

> <s_m_Source_File>
dock_pv.maegz

> <i_m_Source_File_Index>
83

> <chembl_id>
CHEMBL4568087

> <chembl_pref_name>
None

> <i_lp_mmshare_version>
53161

> <i_f3d_flags>
0

> <r_lp_tautomer_probability>
1

> <s_lp_Force_Field>
OPLS_2005

> <r_lp_Energy>
23.368655

> <b_lp_Chiralities_Consistent>
1

> <s_lp_Variant>
CHEMBL3717_lig3314 -1

> <s_i_glide_gridfile>
glide-grid_3lq8

> <i_i_glide_lignum>
4037

> <i_i_glide_rotatable_bonds>
5

> <r_i_docking_score>
-8.59219650953136

> <r_i_glide_ligand_efficiency>
-0.286406550317712

> <r_i_glide_ligand_efficiency_sa>
-0.889931742056359

> <r_i_glide_ligand_efficiency_ln>
-1.95224066644483

> <r_i_glide_gscore>
-8.59219650953136

> <r_i_glide_lipo>
-3.11783939613406

> <r_i_glide_hbond>
-0.32

> <r_i_glide_metal>
0

> <r_i_glide_rewards>
-3.03400644361238

> <r_i_glide_evdw>
-44.4650001525879

> <r_i_glide_ecoul>
-3.02898359298706

> <r_i_glide_erotb>
0.557246876792537

> <r_i_glide_esite>
0

> <r_i_glide_emodel>
-68.1899735711743

> <r_i_glide_energy>
-47.493983745575

> <r_i_glide_einternal>
6.10045099258423

> <i_i_glide_confnum>
15

> <i_i_glide_posenum>
82

> <r_i_glide_eff_state_penalty>
0

> <s_user_duplicate_titles>
CHEMBL3717_lig3314 

> <s_m_subgroup_title>
dock_pv

> <s_m_subgroupid>
dock_pv

> <b_m_subgroup_collapsed>
1

$$$$
CHEMBL3717_lig334
                    3D
 Schrodinger Suite 2021-1.
 48 51  0  0  1  0            999 V2000
  -10.1379   -0.4229   27.4069 N   0  0  0  0  0  0
  -10.3102   -0.7889   28.7009 C   0  0  0  0  0  0
  -10.0013    0.0522   29.7678 C   0  0  0  0  0  0
   -9.4707    1.3128   29.4930 C   0  0  0  0  0  0
   -9.6397    0.8104   27.1490 C   0  0  0  0  0  0
   -9.2989    1.7079   28.1586 C   0  0  0  0  0  0
   -9.1215    2.1228   30.5480 O   0  0  0  0  0  0
   -7.8823    2.7232   30.5548 C   0  0  0  0  0  0
   -6.7306    2.0096   30.2069 C   0  0  0  0  0  0
   -5.4902    2.6355   30.2079 C   0  0  0  0  0  0
   -5.3719    3.9849   30.5833 C   0  0  0  0  0  0
   -6.5256    4.7012   30.9143 C   0  0  0  0  0  0
   -7.7714    4.0682   30.9156 C   0  0  0  0  0  0
   -8.8760    4.7598   31.2719 F   0  0  0  0  0  0
   -4.1461    4.6749   30.6020 N   0  0  0  0  0  0
   -2.9059    4.1480   30.7651 C   0  0  0  0  0  0
   -1.7636    5.0506   30.6082 C   0  0  0  0  0  0
   -2.7476    2.9485   31.0077 O   0  0  0  0  0  0
   -0.3811    4.5154   30.7255 C   0  0  0  0  0  0
    0.5961    5.2633   30.1049 N   0  0  0  0  0  0
    0.3704    6.5699   29.7394 C   0  0  0  0  0  0
   -0.8264    7.1721   29.8059 C   0  0  0  0  0  0
   -1.9467    6.3490   30.2089 C   0  0  0  0  0  0
   -0.0983    3.4944   31.3613 O   0  0  0  0  0  0
    1.9041    4.7670   29.9869 C   0  0  0  0  0  0
    2.3906    4.3466   28.7441 C   0  0  0  0  0  0
    3.7231    3.9534   28.6284 C   0  0  0  0  0  0
    4.5514    3.9927   29.7473 C   0  0  0  0  0  0
    4.0487    4.3572   30.9829 C   0  0  0  0  0  0
    2.7211    4.7353   31.1162 C   0  0  0  0  0  0
    5.8635    3.6988   29.6598 F   0  0  0  0  0  0
   -9.4644    1.1570   25.8142 N   0  0  0  0  0  0
  -10.6859   -1.7859   28.8737 H   0  0  0  0  0  0
  -10.1433   -0.2716   30.7881 H   0  0  0  0  0  0
   -8.8996    2.6817   27.9201 H   0  0  0  0  0  0
   -6.7977    0.9682   29.9256 H   0  0  0  0  0  0
   -4.6385    2.0483   29.9022 H   0  0  0  0  0  0
   -6.4678    5.7463   31.1780 H   0  0  0  0  0  0
   -4.2219    5.6777   30.5658 H   0  0  0  0  0  0
    1.2634    7.0877   29.4188 H   0  0  0  0  0  0
   -0.9524    8.2105   29.5341 H   0  0  0  0  0  0
   -2.9295    6.7701   30.0553 H   0  0  0  0  0  0
    1.7543    4.3482   27.8704 H   0  0  0  0  0  0
    4.1201    3.6300   27.6795 H   0  0  0  0  0  0
    4.7242    4.3853   31.8132 H   0  0  0  0  0  0
    2.3382    5.0380   32.0812 H   0  0  0  0  0  0
   -9.0189    2.0351   25.5625 H   0  0  0  0  0  0
   -9.6799    0.4664   25.1122 H   0  0  0  0  0  0
  1  2  2  0  0  0
  1  5  1  0  0  0
  2  3  1  0  0  0
  2 33  1  0  0  0
  3  4  2  0  0  0
  3 34  1  0  0  0
  4  6  1  0  0  0
  4  7  1  0  0  0
  5  6  2  0  0  0
  5 32  1  0  0  0
  6 35  1  0  0  0
  7  8  1  0  0  0
  8  9  2  0  0  0
  8 13  1  0  0  0
  9 10  1  0  0  0
  9 36  1  0  0  0
 10 11  2  0  0  0
 10 37  1  0  0  0
 11 12  1  0  0  0
 11 15  1  0  0  0
 12 13  2  0  0  0
 12 38  1  0  0  0
 13 14  1  0  0  0
 15 16  1  0  0  0
 15 39  1  0  0  0
 16 17  1  0  0  0
 16 18  2  0  0  0
 17 19  1  0  0  0
 17 23  2  0  0  0
 19 20  1  0  0  0
 19 24  2  0  0  0
 20 21  1  0  0  0
 20 25  1  0  0  0
 21 22  2  0  0  0
 21 40  1  0  0  0
 22 23  1  0  0  0
 22 41  1  0  0  0
 23 42  1  0  0  0
 25 26  2  0  0  0
 25 30  1  0  0  0
 26 27  1  0  0  0
 26 43  1  0  0  0
 27 28  2  0  0  0
 27 44  1  0  0  0
 28 29  1  0  0  0
 28 31  1  0  0  0
 29 30  2  0  0  0
 29 45  1  0  0  0
 30 46  1  0  0  0
 32 47  1  0  0  0
 32 48  1  0  0  0
M  END
> <s_m_entry_id>
10015

> <s_m_entry_name>
dock_pv.84

> <s_m_Source_Path>
/home/csk/Desktop/cluster/DUD-E-result/met

> <s_m_Source_File>
dock_pv.maegz

> <i_m_Source_File_Index>
84

> <chembl_id>
CHEMBL516790

> <chembl_pref_name>
None

> <i_lp_mmshare_version>
53161

> <i_f3d_flags>
0

> <r_lp_tautomer_probability>
0.999999586418856

> <s_lp_Force_Field>
OPLS_2005

> <r_lp_Energy>
55.410003

> <b_lp_Chiralities_Consistent>
1

> <s_lp_Variant>
CHEMBL3717_lig334-1

> <s_i_glide_gridfile>
glide-grid_3lq8

> <i_i_glide_lignum>
350

> <i_i_glide_rotatable_bonds>
6

> <r_i_docking_score>
-8.56229801368994

> <r_i_glide_ligand_efficiency>
-0.267571812927811

> <r_i_glide_ligand_efficiency_sa>
-0.849487553655923

> <r_i_glide_ligand_efficiency_ln>
-1.91733192469396

> <r_i_glide_gscore>
-8.56229801368994

> <r_i_glide_lipo>
-4.3593773620156

> <r_i_glide_hbond>
-0.32

> <r_i_glide_metal>
0

> <r_i_glide_rewards>
-2.03299079507963

> <r_i_glide_evdw>
-44.8250961303711

> <r_i_glide_ecoul>
-1.44486045837402

> <r_i_glide_erotb>
0.633242753701615

> <r_i_glide_esite>
-0.025188735021663

> <r_i_glide_emodel>
-60.4171124106343

> <r_i_glide_energy>
-46.2699565887451

> <r_i_glide_einternal>
6.9476900100708

> <i_i_glide_confnum>
8

> <i_i_glide_posenum>
137

> <r_i_glide_eff_state_penalty>
0

> <s_user_duplicate_titles>
CHEMBL3717_lig334,455434

> <s_m_subgroup_title>
dock_pv

> <s_m_subgroupid>
dock_pv

> <b_m_subgroup_collapsed>
1

$$$$
CHEMBL3717_lig4128
                    3D
 Schrodinger Suite 2021-1.
 39 42  0  0  1  0            999 V2000
   -2.3682    5.8897   30.3780 O   0  0  0  0  0  0
    1.2280    5.1570   32.4926 O   0  0  0  0  0  0
    1.9171    2.8811   27.0746 O   0  0  0  0  0  0
    1.6554    3.9957   30.5750 N   0  0  0  0  0  0
   -1.0036    6.0869   30.6073 N   0  0  0  0  0  0
   -8.0275    2.8865   30.0819 N   0  0  0  0  0  0
   -8.5957    4.1019   30.0734 N   0  0  0  0  0  0
   -2.6693    4.5865   30.6208 C   0  0  0  0  0  0
   -0.5197    4.9331   31.0145 C   0  0  0  0  0  0
   -4.0774    4.1306   30.4479 C   0  0  0  0  0  0
    0.8520    4.7161   31.4067 C   0  0  0  0  0  0
   -1.5100    3.9479   31.0055 C   0  0  0  0  0  0
   -6.4426    4.5769   30.3014 C   0  0  0  0  0  0
   -6.6958    3.1734   30.2058 C   0  0  0  0  0  0
   -5.1288    5.0519   30.4343 C   0  0  0  0  0  0
   -4.3337    2.7607   30.3218 C   0  0  0  0  0  0
   -5.6308    2.2640   30.2100 C   0  0  0  0  0  0
   -7.7300    5.1574   30.2068 C   0  0  0  0  0  0
    1.2006    3.4349   29.2854 C   0  0  0  0  0  0
    3.0222    3.6401   31.0067 C   0  0  0  0  0  0
    2.2094    3.7373   28.1593 C   0  0  1  0  0  0
    3.9974    4.1506   29.9348 C   0  0  0  0  0  0
    3.6863    3.5647   28.5533 C   0  0  0  0  0  0
    1.0086    3.0235   26.7903 H   0  0  0  0  0  0
   -9.5947    4.2096   29.9679 H   0  0  0  0  0  0
   -1.4018    2.9101   31.2820 H   0  0  0  0  0  0
   -4.9397    6.1120   30.5142 H   0  0  0  0  0  0
   -3.5149    2.0569   30.3285 H   0  0  0  0  0  0
   -5.8081    1.2021   30.1256 H   0  0  0  0  0  0
   -8.0974    6.1736   30.1940 H   0  0  0  0  0  0
    0.2366    3.8155   28.9526 H   0  0  0  0  0  0
    1.1086    2.3570   29.3892 H   0  0  0  0  0  0
    3.0793    2.5519   31.0660 H   0  0  0  0  0  0
    3.2873    4.0321   31.9904 H   0  0  0  0  0  0
    2.0404    4.7558   27.8087 H   0  0  0  0  0  0
    5.0191    3.8917   30.2169 H   0  0  0  0  0  0
    3.9700    5.2385   29.8954 H   0  0  0  0  0  0
    3.9413    2.5066   28.5432 H   0  0  0  0  0  0
    4.3301    4.0320   27.8082 H   0  0  0  0  0  0
  1  5  1  0  0  0
  1  8  1  0  0  0
  2 11  2  0  0  0
  3 21  1  0  0  0
  3 24  1  0  0  0
  4 11  1  0  0  0
  4 19  1  0  0  0
  4 20  1  0  0  0
  5  9  2  0  0  0
  6  7  1  0  0  0
  6 14  2  0  0  0
  7 25  1  0  0  0
  7 18  1  0  0  0
  8 12  2  0  0  0
  8 10  1  0  0  0
  9 11  1  0  0  0
  9 12  1  0  0  0
 10 16  1  0  0  0
 10 15  2  0  0  0
 12 26  1  0  0  0
 13 15  1  0  0  0
 13 14  1  0  0  0
 13 18  2  0  0  0
 14 17  1  0  0  0
 15 27  1  0  0  0
 16 17  2  0  0  0
 16 28  1  0  0  0
 17 29  1  0  0  0
 18 30  1  0  0  0
 19 21  1  0  0  0
 19 31  1  0  0  0
 19 32  1  0  0  0
 20 22  1  0  0  0
 20 33  1  0  0  0
 20 34  1  0  0  0
 21 23  1  0  0  0
 21 35  1  0  0  0
 22 23  1  0  0  0
 22 36  1  0  0  0
 22 37  1  0  0  0
 23 38  1  0  0  0
 23 39  1  0  0  0
M  END
> <s_m_entry_id>
10016

> <s_m_entry_name>
dock_pv.85

> <s_m_Source_Path>
/home/csk/Desktop/cluster/DUD-E-result/met

> <s_m_Source_File>
dock_pv.maegz

> <i_m_Source_File_Index>
85

> <chembl_id>
CHEMBL1997340

> <chembl_pref_name>
None

> <i_lp_mmshare_version>
53161

> <i_f3d_flags>
0

> <r_lp_tautomer_probability>
0.0196078431372549

> <s_lp_Force_Field>
OPLS_2005

> <r_lp_Energy>
46.268019

> <b_lp_Chiralities_Consistent>
1

> <s_lp_Variant>
CHEMBL3717_lig4128-4

> <s_i_glide_gridfile>
glide-grid_3lq8

> <i_i_glide_lignum>
5282

> <i_i_glide_rotatable_bonds>
4

> <r_i_docking_score>
-8.56187812489963

> <r_i_glide_ligand_efficiency>
-0.37225557064781

> <r_i_glide_ligand_efficiency_sa>
-1.05864532432465

> <r_i_glide_ligand_efficiency_ln>
-2.0703397654193

> <r_i_glide_gscore>
-8.56187812489963

> <r_i_glide_lipo>
-3.60851258550554

> <r_i_glide_hbond>
0

> <r_i_glide_metal>
0

> <r_i_glide_rewards>
-2.88039032587941

> <r_i_glide_evdw>
-39.5348777770996

> <r_i_glide_ecoul>
-4.44653606414795

> <r_i_glide_erotb>
0.570749084962497

> <r_i_glide_esite>
0

> <r_i_glide_emodel>
-62.910011361082

> <r_i_glide_energy>
-43.9814138412476

> <r_i_glide_einternal>
5.2657642364502

> <i_i_glide_confnum>
7

> <i_i_glide_posenum>
245

> <r_i_glide_eff_state_penalty>
0

> <s_user_duplicate_titles>
CHEMBL3717_lig4128,CHEMBL3717_lig4128

> <s_m_subgroup_title>
dock_pv

> <s_m_subgroupid>
dock_pv

> <b_m_subgroup_collapsed>
1

$$$$
CHEMBL3717_lig3956
                    3D
 Schrodinger Suite 2021-1.
 38 40  0  0  1  0            999 V2000
   -3.9839    4.9665   30.5038 C   0  0  0  0  0  0
   -3.7231    3.6358   30.5892 C   0  0  0  0  0  0
   -2.4189    3.2684   30.8842 N   0  0  0  0  0  0
   -1.4130    4.2150   31.0083 C   0  0  0  0  0  0
   -1.6666    5.4750   30.9584 N   0  0  0  0  0  0
   -2.9539    5.9772   30.7072 C   0  0  0  0  0  0
   -3.2947    7.1528   30.6095 O   0  0  0  0  0  0
   -0.0807    3.7368   31.1637 N   0  0  0  0  0  0
    1.0682    4.6465   31.1517 C   0  0  0  0  0  0
    2.3480    3.9851   31.7275 C   0  0  0  0  0  0
    2.9490    2.8921   30.8152 C   0  0  0  0  0  0
    3.1710    3.3937   29.3720 C   0  0  0  0  0  0
    1.9069    4.0495   28.7900 C   0  0  0  0  0  0
    1.3957    5.1620   29.7274 C   0  0  0  0  0  0
   -4.7294    2.5792   30.2646 C   0  0  0  0  0  0
   -6.1072    2.8614   30.2232 C   0  0  0  0  0  0
   -7.0080    1.8551   29.8726 C   0  0  0  0  0  0
   -6.6202    0.5981   29.5488 N   0  0  0  0  0  0
   -5.2942    0.3213   29.5854 C   0  0  0  0  0  0
   -4.3316    1.2688   29.9387 C   0  0  0  0  0  0
   -4.9562    5.3382   30.2249 H   0  0  0  0  0  0
   -2.1851    2.2941   30.9760 H   0  0  0  0  0  0
    0.1226    2.8068   30.8333 H   0  0  0  0  0  0
    0.8780    5.5288   31.7681 H   0  0  0  0  0  0
    3.0945    4.7556   31.9248 H   0  0  0  0  0  0
    2.1259    3.5580   32.7063 H   0  0  0  0  0  0
    3.8925    2.5343   31.2281 H   0  0  0  0  0  0
    2.2897    2.0255   30.8005 H   0  0  0  0  0  0
    3.9862    4.1180   29.3626 H   0  0  0  0  0  0
    3.4866    2.5767   28.7217 H   0  0  0  0  0  0
    2.1203    4.4542   27.8004 H   0  0  0  0  0  0
    1.1326    3.2963   28.6442 H   0  0  0  0  0  0
    0.5183    5.6371   29.2842 H   0  0  0  0  0  0
    2.1374    5.9558   29.8077 H   0  0  0  0  0  0
   -6.4905    3.8424   30.4611 H   0  0  0  0  0  0
   -8.0704    2.0513   29.8399 H   0  0  0  0  0  0
   -5.0068   -0.6836   29.3129 H   0  0  0  0  0  0
   -3.2943    0.9775   29.9427 H   0  0  0  0  0  0
  1  6  1  0  0  0
  1 21  1  0  0  0
  1  2  2  0  0  0
  2  3  1  0  0  0
  2 15  1  0  0  0
  3 22  1  0  0  0
  3  4  1  0  0  0
  4  8  1  0  0  0
  4  5  2  0  0  0
  5  6  1  0  0  0
  6  7  2  0  0  0
  8  9  1  0  0  0
  8 23  1  0  0  0
  9 14  1  0  0  0
  9 10  1  0  0  0
  9 24  1  0  0  0
 10 11  1  0  0  0
 10 25  1  0  0  0
 10 26  1  0  0  0
 11 12  1  0  0  0
 11 27  1  0  0  0
 11 28  1  0  0  0
 12 13  1  0  0  0
 12 29  1  0  0  0
 12 30  1  0  0  0
 13 14  1  0  0  0
 13 31  1  0  0  0
 13 32  1  0  0  0
 14 33  1  0  0  0
 14 34  1  0  0  0
 15 16  2  0  0  0
 15 20  1  0  0  0
 16 17  1  0  0  0
 16 35  1  0  0  0
 17 18  2  0  0  0
 17 36  1  0  0  0
 18 19  1  0  0  0
 19 20  2  0  0  0
 19 37  1  0  0  0
 20 38  1  0  0  0
M  END
> <s_m_entry_id>
10017

> <s_m_entry_name>
dock_pv.86

> <s_m_Source_Path>
/home/csk/Desktop/cluster/DUD-E-result/met

> <s_m_Source_File>
dock_pv.maegz

> <i_m_Source_File_Index>
86

> <chembl_id>
CHEMBL1958401

> <chembl_pref_name>
None

> <i_lp_mmshare_version>
53161

> <i_f3d_flags>
0

> <r_lp_tautomer_probability>
0.108277240005817

> <s_lp_Force_Field>
OPLS_2005

> <r_lp_Energy>
17.829433

> <b_lp_Chiralities_Consistent>
1

> <s_lp_Variant>
CHEMBL3717_lig3956-2

> <s_i_glide_gridfile>
glide-grid_3lq8

> <i_i_glide_lignum>
5028

> <i_i_glide_rotatable_bonds>
3

> <r_i_docking_score>
-8.54228389338205

> <r_i_glide_ligand_efficiency>
-0.427114194669102

> <r_i_glide_ligand_efficiency_sa>
-1.15936629314984

> <r_i_glide_ligand_efficiency_ln>
-2.13785191513448

> <r_i_glide_gscore>
-8.54228389338205

> <r_i_glide_lipo>
-3.24561336650255

> <r_i_glide_hbond>
-0.32

> <r_i_glide_metal>
0

> <r_i_glide_rewards>
-2.96593007935745

> <r_i_glide_evdw>
-39.7805061340332

> <r_i_glide_ecoul>
-5.03933143615723

> <r_i_glide_erotb>
0.734184574603199

> <r_i_glide_esite>
0

> <r_i_glide_emodel>
-66.446151381825

> <r_i_glide_energy>
-44.8198375701904

> <r_i_glide_einternal>
0.671363174915314

> <i_i_glide_confnum>
23

> <i_i_glide_posenum>
128

> <r_i_glide_eff_state_penalty>
0

> <s_user_duplicate_titles>
CHEMBL3717_lig3956,CHEMBL3717_lig3956,CHEMBL3717_lig3956

> <s_m_subgroup_title>
dock_pv

> <s_m_subgroupid>
dock_pv

> <b_m_subgroup_collapsed>
1

$$$$
CHEMBL3717_lig322
                    3D
 Schrodinger Suite 2021-1.
 46 50  0  0  1  0            999 V2000
   -5.7837    2.2567   29.9068 C   0  0  0  0  0  0
   -6.8005    3.1599   30.2147 C   0  0  0  0  0  0
   -8.0333    2.6759   30.6359 C   0  0  0  0  0  0
   -8.3138    1.3566   30.7576 N   0  0  0  0  0  0
   -6.0420    0.8625   30.0118 C   0  0  0  0  0  0
   -7.3396    0.4565   30.4467 C   0  0  0  0  0  0
   -7.6351   -0.9219   30.5518 C   0  0  0  0  0  0
   -6.6787   -1.8863   30.2436 C   0  0  0  0  0  0
   -5.4078   -1.4802   29.8134 C   0  0  0  0  0  0
   -5.0838   -0.1311   29.6947 C   0  0  0  0  0  0
   -7.0699   -3.2023   30.3855 O   0  0  0  0  0  0
   -6.0804   -4.2225   30.3124 C   0  0  0  0  0  0
    0.1924    5.1436   30.2312 C   0  0  0  0  0  0
    0.0895    6.5324   30.0914 C   0  0  0  0  0  0
   -1.1529    7.1567   30.2077 C   0  0  0  0  0  0
   -0.8595    4.3343   30.5362 N   0  0  0  0  0  0
   -2.0451    4.9705   30.6065 N   0  0  0  0  0  0
   -2.2674    6.3512   30.4796 C   0  0  0  0  0  0
   -3.5856    6.6121   30.6116 N   0  0  0  0  0  0
   -4.2143    5.3786   30.6753 N   0  0  0  0  0  0
   -3.3077    4.4207   30.6117 C   0  0  0  0  0  0
   -3.5856    2.9319   30.4723 C   0  0  0  0  0  0
   -4.5718    2.7299   29.4665 O   0  0  0  0  0  0
    1.4564    4.4665   29.8742 C   0  0  0  0  0  0
    1.5104    3.6193   28.7617 C   0  0  0  0  0  0
    2.7311    3.1487   28.2885 C   0  0  0  0  0  0
    3.9061    3.5011   28.9457 C   0  0  0  0  0  0
    3.8646    4.2863   30.0897 C   0  0  0  0  0  0
    2.6417    4.7648   30.5499 C   0  0  0  0  0  0
    5.0102    4.6026   30.7323 F   0  0  0  0  0  0
    2.7766    2.3662   27.1874 F   0  0  0  0  0  0
   -6.6370    4.2230   30.1186 H   0  0  0  0  0  0
   -8.8356    3.3583   30.8778 H   0  0  0  0  0  0
   -8.6173   -1.2280   30.8797 H   0  0  0  0  0  0
   -4.6533   -2.2063   29.5524 H   0  0  0  0  0  0
   -4.1047    0.1609   29.3432 H   0  0  0  0  0  0
   -6.5295   -5.1867   30.5462 H   0  0  0  0  0  0
   -5.6424   -4.2938   29.3148 H   0  0  0  0  0  0
   -5.2901   -4.0422   31.0414 H   0  0  0  0  0  0
    0.9594    7.1197   29.8308 H   0  0  0  0  0  0
   -1.2564    8.2248   30.0746 H   0  0  0  0  0  0
   -2.7038    2.3655   30.1715 H   0  0  0  0  0  0
   -3.8811    2.4921   31.4186 H   0  0  0  0  0  0
    0.6108    3.3657   28.2231 H   0  0  0  0  0  0
    4.8556    3.1581   28.5789 H   0  0  0  0  0  0
    2.6191    5.4154   31.4075 H   0  0  0  0  0  0
  1  5  1  0  0  0
  1 23  1  0  0  0
  1  2  2  0  0  0
  2  3  1  0  0  0
  2 32  1  0  0  0
  3  4  2  0  0  0
  3 33  1  0  0  0
  4  6  1  0  0  0
  5 10  1  0  0  0
  5  6  2  0  0  0
  6  7  1  0  0  0
  7  8  2  0  0  0
  7 34  1  0  0  0
  8  9  1  0  0  0
  8 11  1  0  0  0
  9 10  2  0  0  0
  9 35  1  0  0  0
 10 36  1  0  0  0
 11 12  1  0  0  0
 12 37  1  0  0  0
 12 38  1  0  0  0
 12 39  1  0  0  0
 13 16  2  0  0  0
 13 14  1  0  0  0
 13 24  1  0  0  0
 14 15  2  0  0  0
 14 40  1  0  0  0
 15 18  1  0  0  0
 15 41  1  0  0  0
 16 17  1  0  0  0
 17 18  1  0  0  0
 17 21  1  0  0  0
 18 19  2  0  0  0
 19 20  1  0  0  0
 20 21  2  0  0  0
 21 22  1  0  0  0
 22 23  1  0  0  0
 22 42  1  0  0  0
 22 43  1  0  0  0
 24 25  2  0  0  0
 24 29  1  0  0  0
 25 26  1  0  0  0
 25 44  1  0  0  0
 26 27  2  0  0  0
 26 31  1  0  0  0
 27 28  1  0  0  0
 27 45  1  0  0  0
 28 29  2  0  0  0
 28 30  1  0  0  0
 29 46  1  0  0  0
M  END
> <s_m_entry_id>
10018

> <s_m_entry_name>
dock_pv.87

> <s_m_Source_Path>
/home/csk/Desktop/cluster/DUD-E-result/met

> <s_m_Source_File>
dock_pv.maegz

> <i_m_Source_File_Index>
87

> <chembl_id>
CHEMBL494630

> <chembl_pref_name>
None

> <i_lp_mmshare_version>
53161

> <i_f3d_flags>
0

> <r_lp_tautomer_probability>
1

> <s_lp_Force_Field>
OPLS_2005

> <r_lp_Energy>
26.827898

> <b_lp_Chiralities_Consistent>
1

> <s_lp_Variant>
CHEMBL3717_lig322-1

> <s_i_glide_gridfile>
glide-grid_3lq8

> <i_i_glide_lignum>
338

> <i_i_glide_rotatable_bonds>
5

> <r_i_docking_score>
-8.53524698683406

> <r_i_glide_ligand_efficiency>
-0.275330547962389

> <r_i_glide_ligand_efficiency_sa>
-0.86491805539133

> <r_i_glide_ligand_efficiency_ln>
-1.92495976943739

> <r_i_glide_gscore>
-8.53524698683406

> <r_i_glide_lipo>
-3.32596325737533

> <r_i_glide_hbond>
0

> <r_i_glide_metal>
0

> <r_i_glide_rewards>
-2.9731003220165

> <r_i_glide_evdw>
-43.8057975769043

> <r_i_glide_ecoul>
-3.30536198616028

> <r_i_glide_erotb>
0.449910769327026

> <r_i_glide_esite>
0

> <r_i_glide_emodel>
-57.5805819712251

> <r_i_glide_energy>
-47.1111595630646

> <r_i_glide_einternal>
16.0002384185791

> <i_i_glide_confnum>
1

> <i_i_glide_posenum>
11

> <r_i_glide_eff_state_penalty>
0

> <s_user_duplicate_titles>
CHEMBL3717_lig322,486670

> <s_m_subgroup_title>
dock_pv

> <s_m_subgroupid>
dock_pv

> <b_m_subgroup_collapsed>
1

$$$$
CHEMBL3717_lig4111
                    3D
 Schrodinger Suite 2021-1.
 39 42  0  0  1  0            999 V2000
   -0.9751    3.4287   31.3398 C   0  0  0  0  0  0
   -1.3841    4.8172   30.8937 C   0  0  0  0  0  0
   -2.6223    5.3950   30.5880 C   0  0  0  0  0  0
   -2.4393    6.6516   30.2082 N   0  0  0  0  0  0
   -1.0904    6.9307   30.2079 N   0  0  0  0  0  0
   -0.4782    5.8232   30.6327 N   0  0  0  0  0  0
    0.9722    5.8311   30.8355 C   0  0  0  0  0  0
    1.7808    4.8537   29.9868 C   0  0  0  0  0  0
    1.3154    4.4287   28.7398 C   0  0  0  0  0  0
    2.0803    3.5705   27.9610 C   0  0  0  0  0  0
    3.3225    3.1572   28.4207 C   0  0  0  0  0  0
    3.8011    3.5670   29.6622 C   0  0  0  0  0  0
    3.0264    4.4163   30.4479 C   0  0  0  0  0  0
   -3.9845    4.7698   30.5557 C   0  0  0  0  0  0
   -5.1311    5.5567   30.7191 C   0  0  0  0  0  0
   -6.4230    5.0332   30.6388 C   0  0  0  0  0  0
   -6.5318    3.6662   30.3798 C   0  0  0  0  0  0
   -7.6214    2.8338   30.2195 N   0  0  0  0  0  0
   -7.2531    1.5651   29.9583 N   0  0  0  0  0  0
   -5.9459    1.5444   29.9415 C   0  0  0  0  0  0
   -5.2241    0.4181   29.6700 N   0  0  0  0  0  0
   -5.3979    2.8371   30.2079 C   0  0  0  0  0  0
   -4.1167    3.3991   30.2978 C   0  0  0  0  0  0
   -1.6874    2.9976   32.0439 H   0  0  0  0  0  0
   -0.9174    2.7575   30.4839 H   0  0  0  0  0  0
    0.0064    3.4055   31.8110 H   0  0  0  0  0  0
    1.3532    6.8289   30.6230 H   0  0  0  0  0  0
    1.1428    5.6445   31.8959 H   0  0  0  0  0  0
    0.3618    4.7661   28.3670 H   0  0  0  0  0  0
    1.7150    3.2319   27.0027 H   0  0  0  0  0  0
    3.9054    2.4894   27.8077 H   0  0  0  0  0  0
    4.7683    3.2296   30.0053 H   0  0  0  0  0  0
    3.4022    4.7475   31.4052 H   0  0  0  0  0  0
   -5.0251    6.6180   30.8891 H   0  0  0  0  0  0
   -7.2900    5.6693   30.7399 H   0  0  0  0  0  0
   -8.5991    3.0817   30.2690 H   0  0  0  0  0  0
   -4.4276    0.4694   29.0505 H   0  0  0  0  0  0
   -5.7129   -0.4647   29.6190 H   0  0  0  0  0  0
   -3.2525    2.7735   30.1466 H   0  0  0  0  0  0
  1  2  1  0  0  0
  1 24  1  0  0  0
  1 25  1  0  0  0
  1 26  1  0  0  0
  2  3  2  0  0  0
  2  6  1  0  0  0
  3  4  1  0  0  0
  3 14  1  0  0  0
  4  5  2  0  0  0
  5  6  1  0  0  0
  6  7  1  0  0  0
  7  8  1  0  0  0
  7 27  1  0  0  0
  7 28  1  0  0  0
  8  9  2  0  0  0
  8 13  1  0  0  0
  9 10  1  0  0  0
  9 29  1  0  0  0
 10 11  2  0  0  0
 10 30  1  0  0  0
 11 12  1  0  0  0
 11 31  1  0  0  0
 12 13  2  0  0  0
 12 32  1  0  0  0
 13 33  1  0  0  0
 14 15  2  0  0  0
 14 23  1  0  0  0
 15 16  1  0  0  0
 15 34  1  0  0  0
 16 17  2  0  0  0
 16 35  1  0  0  0
 17 18  1  0  0  0
 17 22  1  0  0  0
 18 19  1  0  0  0
 18 36  1  0  0  0
 19 20  2  0  0  0
 20 21  1  0  0  0
 20 22  1  0  0  0
 21 37  1  0  0  0
 21 38  1  0  0  0
 22 23  2  0  0  0
 23 39  1  0  0  0
M  END
> <s_m_entry_id>
10019

> <s_m_entry_name>
dock_pv.88

> <s_m_Source_Path>
/home/csk/Desktop/cluster/DUD-E-result/met

> <s_m_Source_File>
dock_pv.maegz

> <i_m_Source_File_Index>
88

> <chembl_id>
CHEMBL1989646

> <chembl_pref_name>
None

> <i_lp_mmshare_version>
53161

> <i_f3d_flags>
0

> <r_lp_tautomer_probability>
1

> <s_lp_Force_Field>
OPLS_2005

> <r_lp_Energy>
13.663844

> <b_lp_Chiralities_Consistent>
1

> <s_lp_Variant>
CHEMBL3717_lig4111-1

> <s_i_glide_gridfile>
glide-grid_3lq8

> <i_i_glide_lignum>
5252

> <i_i_glide_rotatable_bonds>
3

> <r_i_docking_score>
-8.53112782977753

> <r_i_glide_ligand_efficiency>
-0.370918601294675

> <r_i_glide_ligand_efficiency_sa>
-1.05484316133217

> <r_i_glide_ligand_efficiency_ln>
-2.06290406523052

> <r_i_glide_gscore>
-8.53112782977753

> <r_i_glide_lipo>
-4.29637468284534

> <r_i_glide_hbond>
0

> <r_i_glide_metal>
0

> <r_i_glide_rewards>
-2.56857617599535

> <r_i_glide_evdw>
-41.4619445800781

> <r_i_glide_ecoul>
-1.26449453830719

> <r_i_glide_erotb>
0.597253545325954

> <r_i_glide_esite>
-0.000659106512819025

> <r_i_glide_emodel>
-62.5744836928722

> <r_i_glide_energy>
-42.7264391183853

> <r_i_glide_einternal>
0.824064314365387

> <i_i_glide_confnum>
2

> <i_i_glide_posenum>
84

> <r_i_glide_eff_state_penalty>
0

> <s_user_duplicate_titles>
CHEMBL3717_lig4111

> <s_m_subgroup_title>
dock_pv

> <s_m_subgroupid>
dock_pv

> <b_m_subgroup_collapsed>
1

$$$$
CHEMBL3717_lig3972
                    3D
 Schrodinger Suite 2021-1.
 51 53  0  0  1  0            999 V2000
    1.6765    3.9573   27.8083 F   0  0  0  0  0  0
   -3.9598    6.7610   30.6084 O   0  0  0  0  0  0
   -5.0788   -0.6019   30.2458 O   0  0  0  0  0  0
   -4.2944    4.5125   30.5286 N   0  0  0  0  0  0
    4.8422    3.9519   29.5821 N   0  0  0  0  0  0
    0.7071    4.7887   30.3717 C   0  0  0  0  0  0
    2.1222    4.4455   30.1108 C   0  0  0  0  0  0
   -2.0297    5.3509   30.6301 C   0  0  0  0  0  0
   -3.5201    5.6123   30.6105 C   0  0  0  0  0  0
    2.5509    4.0753   28.8289 C   0  0  0  0  0  0
    0.2194    6.0628   30.0685 C   0  0  0  0  0  0
   -0.1593    3.8257   30.8826 C   0  0  0  0  0  0
   -6.2432    2.9563   30.2080 C   0  0  0  0  0  0
   -5.7511    4.4093   30.3583 C   0  0  1  0  0  0
   -1.1379    6.3487   30.2078 C   0  0  0  0  0  0
   -1.5165    4.0991   31.0080 C   0  0  0  0  0  0
    3.0707    4.4971   31.1354 C   0  0  0  0  0  0
   -5.3967    1.8446   30.3727 C   0  0  0  0  0  0
   -5.8533    0.5368   30.1328 C   0  0  0  0  0  0
    3.9059    3.8321   28.6103 C   0  0  0  0  0  0
   -7.5671    2.7295   29.8080 C   0  0  0  0  0  0
    4.4135    4.2728   30.8249 C   0  0  0  0  0  0
   -7.1793    0.3502   29.7452 C   0  0  0  0  0  0
   -8.0354    1.4367   29.5855 C   0  0  0  0  0  0
   -6.5487    5.1571   31.4372 C   0  0  0  0  0  0
   -3.6938   -0.4831   30.5573 C   0  0  0  0  0  0
   -3.0119   -1.8573   30.4472 C   0  0  0  0  0  0
   -2.9797   -2.4202   29.0166 C   0  0  0  0  0  0
   -3.7973    3.6548   30.3539 H   0  0  0  0  0  0
    0.8868    6.8234   29.6889 H   0  0  0  0  0  0
    0.2141    2.8448   31.1384 H   0  0  0  0  0  0
   -5.9750    4.8969   29.4081 H   0  0  0  0  0  0
   -1.4946    7.3293   29.9232 H   0  0  0  0  0  0
   -2.1595    3.3113   31.3734 H   0  0  0  0  0  0
    2.7782    4.7574   32.1423 H   0  0  0  0  0  0
   -4.3768    1.9927   30.6830 H   0  0  0  0  0  0
    4.2607    3.5320   27.6375 H   0  0  0  0  0  0
   -8.2390    3.5603   29.6461 H   0  0  0  0  0  0
    5.1813    4.3578   31.5776 H   0  0  0  0  0  0
   -7.5425   -0.6498   29.5590 H   0  0  0  0  0  0
   -9.0579    1.2764   29.2754 H   0  0  0  0  0  0
   -7.6249    5.0575   31.2980 H   0  0  0  0  0  0
   -6.3078    4.8108   32.4403 H   0  0  0  0  0  0
   -6.3338    6.2199   31.3821 H   0  0  0  0  0  0
   -3.5794   -0.0967   31.5719 H   0  0  0  0  0  0
   -3.2045    0.2168   29.8784 H   0  0  0  0  0  0
   -3.5158   -2.5693   31.1032 H   0  0  0  0  0  0
   -1.9889   -1.7794   30.8172 H   0  0  0  0  0  0
   -2.4949   -3.3969   28.9911 H   0  0  0  0  0  0
   -2.4379   -1.7595   28.3386 H   0  0  0  0  0  0
   -3.9876   -2.5464   28.6186 H   0  0  0  0  0  0
  1 10  1  0  0  0
  2  9  2  0  0  0
  3 19  1  0  0  0
  3 26  1  0  0  0
  4  9  1  0  0  0
  4 14  1  0  0  0
  4 29  1  0  0  0
  5 20  1  0  0  0
  5 22  2  0  0  0
  6  7  1  0  0  0
  6 11  2  0  0  0
  6 12  1  0  0  0
  7 10  1  0  0  0
  7 17  2  0  0  0
  8  9  1  0  0  0
  8 15  2  0  0  0
  8 16  1  0  0  0
 10 20  2  0  0  0
 11 15  1  0  0  0
 11 30  1  0  0  0
 12 16  2  0  0  0
 12 31  1  0  0  0
 13 14  1  0  0  0
 13 18  2  0  0  0
 13 21  1  0  0  0
 14 25  1  0  0  0
 14 32  1  0  0  0
 15 33  1  0  0  0
 16 34  1  0  0  0
 17 22  1  0  0  0
 17 35  1  0  0  0
 18 19  1  0  0  0
 18 36  1  0  0  0
 19 23  2  0  0  0
 20 37  1  0  0  0
 21 24  2  0  0  0
 21 38  1  0  0  0
 22 39  1  0  0  0
 23 24  1  0  0  0
 23 40  1  0  0  0
 24 41  1  0  0  0
 25 42  1  0  0  0
 25 43  1  0  0  0
 25 44  1  0  0  0
 26 27  1  0  0  0
 26 45  1  0  0  0
 26 46  1  0  0  0
 27 28  1  0  0  0
 27 47  1  0  0  0
 27 48  1  0  0  0
 28 49  1  0  0  0
 28 50  1  0  0  0
 28 51  1  0  0  0
M  END
> <s_m_entry_id>
10020

> <s_m_entry_name>
dock_pv.89

> <s_m_Source_Path>
/home/csk/Desktop/cluster/DUD-E-result/met

> <s_m_Source_File>
dock_pv.maegz

> <i_m_Source_File_Index>
89

> <chembl_id>
CHEMBL1971606

> <chembl_pref_name>
None

> <i_lp_mmshare_version>
53161

> <i_f3d_flags>
0

> <r_lp_tautomer_probability>
1

> <s_lp_Force_Field>
OPLS_2005

> <r_lp_Energy>
19.226383

> <b_lp_Chiralities_Consistent>
1

> <s_lp_Variant>
CHEMBL3717_lig3972-2

> <s_i_glide_gridfile>
glide-grid_3lq8

> <i_i_glide_lignum>
5054

> <i_i_glide_rotatable_bonds>
8

> <r_i_docking_score>
-8.52872437273823

> <r_i_glide_ligand_efficiency>
-0.304597299026365

> <r_i_glide_ligand_efficiency_sa>
-0.924936798059215

> <r_i_glide_ligand_efficiency_ln>
-1.96867999945675

> <r_i_glide_gscore>
-8.52872437273823

> <r_i_glide_lipo>
-4.25846463843663

> <r_i_glide_hbond>
-0.253540959310767

> <r_i_glide_metal>
0

> <r_i_glide_rewards>
-2.56448307145615

> <r_i_glide_evdw>
-47.3798637390137

> <r_i_glide_ecoul>
-0.202940091490746

> <r_i_glide_erotb>
0.947198497139605

> <r_i_glide_esite>
0

> <r_i_glide_emodel>
-63.0110889688745

> <r_i_glide_energy>
-47.5828038305044

> <r_i_glide_einternal>
10.977710723877

> <i_i_glide_confnum>
2

> <i_i_glide_posenum>
29

> <r_i_glide_eff_state_penalty>
0

> <s_user_duplicate_titles>
CHEMBL3717_lig3972

> <s_m_subgroup_title>
dock_pv

> <s_m_subgroupid>
dock_pv

> <b_m_subgroup_collapsed>
1

$$$$
CHEMBL3717_lig452
                    3D
 Schrodinger Suite 2021-1.
 43 46  0  0  1  0            999 V2000
   -5.9012   -0.8826   30.5218 C   0  0  0  0  0  0
   -6.3110    0.4279   30.7814 C   0  0  0  0  0  0
   -5.2406    1.2567   30.4713 C   0  0  0  0  0  0
   -4.2027    0.4872   30.0399 O   0  0  0  0  0  0
   -4.5922   -0.8135   30.0729 C   0  0  0  0  0  0
   -5.0194    2.7284   30.5309 C   0  0  0  0  0  0
   -6.1036    3.6125   30.5654 C   0  0  0  0  0  0
   -5.9172    4.9968   30.6043 C   0  0  0  0  0  0
   -3.7059    3.2143   30.5581 C   0  0  0  0  0  0
   -3.4728    4.5995   30.6065 C   0  0  0  0  0  0
   -4.5964    5.4574   30.6091 C   0  0  0  0  0  0
   -4.2099    6.7617   30.6081 O   0  0  0  0  0  0
   -2.8519    6.7512   30.6075 C   0  0  0  0  0  0
   -2.3196    5.4652   30.6303 C   0  0  0  0  0  0
   -3.5688   -1.8306   29.6367 C   0  0  0  0  0  0
   -0.8713    5.0956   30.6555 C   0  0  0  0  0  0
   -0.4527    3.8312   31.0817 C   0  0  0  0  0  0
    0.8930    3.4789   31.0479 C   0  0  0  0  0  0
    1.8272    4.3845   30.5689 C   0  0  0  0  0  0
    1.4298    5.6530   30.1613 C   0  0  0  0  0  0
    0.0849    6.0094   30.1983 C   0  0  0  0  0  0
    3.5861    3.9049   30.4707 S   0  0  1  0  0  0
    3.6816    2.4777   31.0120 O   0  0  0  0  0  0
    3.6849    3.7781   28.6177 C   0  0  0  0  0  0
    2.6797    2.7657   28.0462 C   0  0  0  0  0  0
   -6.4858   -1.7814   30.6495 H   0  0  0  0  0  0
   -7.2753    0.7371   31.1579 H   0  0  0  0  0  0
   -7.1122    3.2217   30.5413 H   0  0  0  0  0  0
   -6.7500    5.6851   30.5926 H   0  0  0  0  0  0
   -2.8825    2.5193   30.5104 H   0  0  0  0  0  0
   -2.3825    7.7248   30.6069 H   0  0  0  0  0  0
   -3.9229   -2.8529   29.7769 H   0  0  0  0  0  0
   -3.3212   -1.7158   28.5821 H   0  0  0  0  0  0
   -2.6396   -1.7304   30.1952 H   0  0  0  0  0  0
   -1.1544    3.1171   31.4753 H   0  0  0  0  0  0
    1.2056    2.4978   31.3831 H   0  0  0  0  0  0
    2.1595    6.3563   29.8082 H   0  0  0  0  0  0
   -0.2095    6.9876   29.8454 H   0  0  0  0  0  0
    4.7049    3.4768   28.3770 H   0  0  0  0  0  0
    3.5354    4.7569   28.1763 H   0  0  0  0  0  0
    2.9065    2.5281   27.0069 H   0  0  0  0  0  0
    1.6567    3.1366   28.0884 H   0  0  0  0  0  0
    2.7059    1.8329   28.6034 H   0  0  0  0  0  0
  1  5  2  0  0  0
  1  2  1  0  0  0
  1 26  1  0  0  0
  2  3  2  0  0  0
  2 27  1  0  0  0
  3  4  1  0  0  0
  3  6  1  0  0  0
  4  5  1  0  0  0
  5 15  1  0  0  0
  6  7  2  0  0  0
  6  9  1  0  0  0
  7  8  1  0  0  0
  7 28  1  0  0  0
  8 11  2  0  0  0
  8 29  1  0  0  0
  9 10  2  0  0  0
  9 30  1  0  0  0
 10 14  1  0  0  0
 10 11  1  0  0  0
 11 12  1  0  0  0
 12 13  1  0  0  0
 13 14  2  0  0  0
 13 31  1  0  0  0
 14 16  1  0  0  0
 15 32  1  0  0  0
 15 33  1  0  0  0
 15 34  1  0  0  0
 16 17  2  0  0  0
 16 21  1  0  0  0
 17 18  1  0  0  0
 17 35  1  0  0  0
 18 19  2  0  0  0
 18 36  1  0  0  0
 19 20  1  0  0  0
 19 22  1  0  0  0
 20 21  2  0  0  0
 20 37  1  0  0  0
 21 38  1  0  0  0
 22 23  2  0  0  0
 22 24  1  0  0  0
 24 25  1  0  0  0
 24 39  1  0  0  0
 24 40  1  0  0  0
 25 41  1  0  0  0
 25 42  1  0  0  0
 25 43  1  0  0  0
M  END
> <s_m_entry_id>
10021

> <s_m_entry_name>
dock_pv.90

> <s_m_Source_Path>
/home/csk/Desktop/cluster/DUD-E-result/met

> <s_m_Source_File>
dock_pv.maegz

> <i_m_Source_File_Index>
90

> <chembl_id>
CHEMBL574613

> <chembl_pref_name>
None

> <i_lp_mmshare_version>
53161

> <i_f3d_flags>
0

> <r_lp_tautomer_probability>
1

> <s_lp_Force_Field>
OPLS_2005

> <r_lp_Energy>
8.632811

> <b_lp_Chiralities_Consistent>
1

> <s_lp_Variant>
CHEMBL3717_lig452-1

> <s_i_glide_gridfile>
glide-grid_3lq8

> <i_i_glide_lignum>
476

> <i_i_glide_rotatable_bonds>
4

> <r_i_docking_score>
-8.52460436690217

> <r_i_glide_ligand_efficiency>
-0.340984174676087

> <r_i_glide_ligand_efficiency_sa>
-0.997043774132966

> <r_i_glide_ligand_efficiency_ln>
-2.02058669673419

> <r_i_glide_gscore>
-8.52460436690217

> <r_i_glide_lipo>
-4.061541680472

> <r_i_glide_hbond>
-0.227638551741534

> <r_i_glide_metal>
0

> <r_i_glide_rewards>
-2.42969285368229

> <r_i_glide_evdw>
-43.0303497314453

> <r_i_glide_ecoul>
-0.799057185649872

> <r_i_glide_erotb>
0.465644783413403

> <r_i_glide_esite>
0

> <r_i_glide_emodel>
-66.4631109063789

> <r_i_glide_energy>
-43.8294069170952

> <r_i_glide_einternal>
0.649285495281219

> <i_i_glide_confnum>
7

> <i_i_glide_posenum>
103

> <r_i_glide_eff_state_penalty>
0

> <s_user_duplicate_titles>
CHEMBL3717_lig452

> <s_m_subgroup_title>
dock_pv

> <s_m_subgroupid>
dock_pv

> <b_m_subgroup_collapsed>
1

$$$$
CHEMBL3717_lig4253
                    3D
 Schrodinger Suite 2021-1.
 46 48  0  0  1  0            999 V2000
   -1.6940    7.5570   29.4080 Cl  0  0  0  0  0  0
    1.9060    2.3570   31.5459 F   0  0  0  0  0  0
    2.3060    3.9570   32.9437 F   0  0  0  0  0  0
    3.4496    3.7821   31.1206 F   0  0  0  0  0  0
   -3.5679    6.7511   31.4080 O   0  0  0  0  0  0
   -7.3753    3.4896   30.1648 O   0  0  0  0  0  0
   -2.5074   -2.8430   29.9358 N   0  0  0  0  0  0
   -2.5056    4.8343   30.7528 N   0  0  0  0  0  0
   -5.2725    0.7525   30.2301 N   0  0  0  0  0  0
   -6.3765    1.4804   30.0032 N   0  0  0  0  0  0
    1.1813    4.5142   31.0114 C   0  0  0  0  0  0
   -1.1409    5.2082   30.7067 C   0  0  0  0  0  0
    2.2362    3.6292   31.6566 C   0  0  0  0  0  0
   -3.0748   -1.0202   31.1060 C   0  0  0  0  0  0
   -2.1193   -2.0712   31.0050 C   0  0  0  0  0  0
   -0.1945    4.2864   31.1817 C   0  0  0  0  0  0
   -4.0766   -1.2282   30.0777 C   0  0  0  0  0  0
   -0.6665    6.3570   30.0438 C   0  0  0  0  0  0
    1.6005    5.6047   30.2612 C   0  0  0  0  0  0
    0.6886    6.5398   29.8080 C   0  0  0  0  0  0
   -3.6759   -2.3665   29.4080 C   0  0  0  0  0  0
   -2.8940   -0.0614   32.1197 C   0  0  0  0  0  0
   -1.0449   -2.2024   31.8913 C   0  0  0  0  0  0
   -5.2562   -0.4280   29.7896 C   0  0  0  0  0  0
   -3.6039    5.5914   31.0080 C   0  0  0  0  0  0
   -1.8264   -0.1864   33.0080 C   0  0  0  0  0  0
   -0.9285   -1.2430   32.8987 C   0  0  0  0  0  0
   -4.9993    4.9679   30.8266 C   0  0  0  0  0  0
   -6.3499    2.8131   30.2080 C   0  0  0  0  0  0
   -4.9719    3.4814   30.4256 C   0  0  0  0  0  0
   -2.0940   -3.7213   29.6342 H   0  0  0  0  0  0
   -2.6696    3.8411   30.6978 H   0  0  0  0  0  0
   -7.2117    0.9844   29.7283 H   0  0  0  0  0  0
   -0.5231    3.3985   31.7042 H   0  0  0  0  0  0
    2.6482    5.7486   30.0553 H   0  0  0  0  0  0
    1.0328    7.4076   29.2640 H   0  0  0  0  0  0
   -4.1313   -2.8849   28.5748 H   0  0  0  0  0  0
   -3.5875    0.7570   32.2080 H   0  0  0  0  0  0
   -0.3310   -3.0083   31.8080 H   0  0  0  0  0  0
   -6.0282   -0.9079   29.1912 H   0  0  0  0  0  0
   -1.6963    0.5422   33.7949 H   0  0  0  0  0  0
   -0.1077   -1.3140   33.5985 H   0  0  0  0  0  0
   -5.5196    5.0984   31.7770 H   0  0  0  0  0  0
   -5.4925    5.5570   30.0522 H   0  0  0  0  0  0
   -4.4553    3.3597   29.4721 H   0  0  0  0  0  0
   -4.4609    2.9141   31.2031 H   0  0  0  0  0  0
  1 18  1  0  0  0
  2 13  1  0  0  0
  3 13  1  0  0  0
  4 13  1  0  0  0
  5 25  2  0  0  0
  6 29  2  0  0  0
  7 15  1  0  0  0
  7 21  1  0  0  0
  7 31  1  0  0  0
  8 12  1  0  0  0
  8 25  1  0  0  0
  8 32  1  0  0  0
  9 10  1  0  0  0
  9 24  2  3  0  0
 10 29  1  0  0  0
 10 33  1  0  0  0
 11 13  1  0  0  0
 11 16  1  0  0  0
 11 19  2  0  0  0
 12 16  2  0  0  0
 12 18  1  0  0  0
 14 15  1  0  0  0
 14 17  1  0  0  0
 14 22  2  0  0  0
 15 23  2  0  0  0
 16 34  1  0  0  0
 17 21  2  0  0  0
 17 24  1  0  0  0
 18 20  2  0  0  0
 19 20  1  0  0  0
 19 35  1  0  0  0
 20 36  1  0  0  0
 21 37  1  0  0  0
 22 26  1  0  0  0
 22 38  1  0  0  0
 23 27  1  0  0  0
 23 39  1  0  0  0
 24 40  1  0  0  0
 25 28  1  0  0  0
 26 27  2  0  0  0
 26 41  1  0  0  0
 27 42  1  0  0  0
 28 30  1  0  0  0
 28 43  1  0  0  0
 28 44  1  0  0  0
 29 30  1  0  0  0
 30 45  1  0  0  0
 30 46  1  0  0  0
M  END
> <s_m_entry_id>
10022

> <s_m_entry_name>
dock_pv.91

> <s_m_Source_Path>
/home/csk/Desktop/cluster/DUD-E-result/met

> <s_m_Source_File>
dock_pv.maegz

> <i_m_Source_File_Index>
91

> <chembl_id>
CHEMBL1994308

> <chembl_pref_name>
None

> <i_lp_mmshare_version>
53161

> <i_f3d_flags>
0

> <r_lp_tautomer_probability>
1

> <s_lp_Force_Field>
OPLS_2005

> <r_lp_Energy>
16.427662

> <b_lp_Chiralities_Consistent>
1

> <s_lp_Variant>
CHEMBL3717_lig4253-1

> <s_i_glide_gridfile>
glide-grid_3lq8

> <i_i_glide_lignum>
5462

> <i_i_glide_rotatable_bonds>
9

> <r_i_docking_score>
-8.51871531471671

> <r_i_glide_ligand_efficiency>
-0.283957177157224

> <r_i_glide_ligand_efficiency_sa>
-0.882320970161508

> <r_i_glide_ligand_efficiency_ln>
-1.9355449383412

> <r_i_glide_gscore>
-8.51871531471671

> <r_i_glide_lipo>
-3.90656583265716

> <r_i_glide_hbond>
-0.15610886033595

> <r_i_glide_metal>
0

> <r_i_glide_rewards>
-2.48964815078566

> <r_i_glide_evdw>
-40.1124038696289

> <r_i_glide_ecoul>
-4.07806825637817

> <r_i_glide_erotb>
0.731379446730611

> <r_i_glide_esite>
-0.0804414857303795

> <r_i_glide_emodel>
-56.1207785647788

> <r_i_glide_energy>
-44.1904721260071

> <r_i_glide_einternal>
16.4100608825684

> <i_i_glide_confnum>
1

> <i_i_glide_posenum>
35

> <r_i_glide_eff_state_penalty>
0

> <s_user_duplicate_titles>
CHEMBL3717_lig4253

> <s_m_subgroup_title>
dock_pv

> <s_m_subgroupid>
dock_pv

> <b_m_subgroup_collapsed>
1

$$$$
CHEMBL3717_lig3947
                    3D
 Schrodinger Suite 2021-1.
 36 39  0  0  1  0            999 V2000
   -3.2600    2.2163   30.6081 N   0  0  0  0  0  0
   -4.4944    1.6815   30.4872 C   0  0  0  0  0  0
   -5.1992    4.0831   30.3957 N   0  0  0  0  0  0
   -5.5102    2.7206   30.3811 C   0  0  0  0  0  0
   -6.8934    2.6107   30.2592 C   0  0  0  0  0  0
   -7.4381    3.8928   30.1975 C   0  0  0  0  0  0
   -6.3812    4.7808   30.2758 C   0  0  0  0  0  0
   -2.8901    3.5650   30.6240 C   0  0  0  0  0  0
   -3.8691    4.5640   30.5074 C   0  0  0  0  0  0
   -3.4819    5.9072   30.5105 C   0  0  0  0  0  0
   -2.1298    6.2416   30.6038 C   0  0  0  0  0  0
   -1.1518    5.2529   30.7472 C   0  0  0  0  0  0
   -1.5449    3.9079   30.7626 C   0  0  0  0  0  0
   -4.6432    0.4638   30.4914 O   0  0  0  0  0  0
    0.3209    5.6666   30.8142 C   0  0  0  0  0  0
    1.2816    4.6839   30.2990 N   0  0  0  0  0  0
    1.3436    4.3436   28.8815 C   0  0  0  0  0  0
    2.2537    3.1352   28.8122 C   0  0  0  0  0  0
    2.8603    3.0074   30.1979 C   0  0  0  0  0  0
    2.1123    3.9806   31.1037 C   0  0  0  0  0  0
    2.2544    4.0634   32.3225 O   0  0  0  0  0  0
   -2.5443    1.5146   30.7013 H   0  0  0  0  0  0
   -7.4497    1.6825   30.2206 H   0  0  0  0  0  0
   -8.4857    4.1415   30.0937 H   0  0  0  0  0  0
   -6.3751    5.8604   30.2432 H   0  0  0  0  0  0
   -4.2186    6.6916   30.4159 H   0  0  0  0  0  0
   -1.8393    7.2810   30.5796 H   0  0  0  0  0  0
   -0.8023    3.1304   30.8637 H   0  0  0  0  0  0
    0.5501    5.9130   31.8514 H   0  0  0  0  0  0
    0.4499    6.5897   30.2470 H   0  0  0  0  0  0
    0.3530    4.1120   28.4906 H   0  0  0  0  0  0
    1.7372    5.1688   28.2893 H   0  0  0  0  0  0
    3.0061    3.2297   28.0274 H   0  0  0  0  0  0
    1.6568    2.2518   28.5853 H   0  0  0  0  0  0
    3.9138    3.2899   30.1938 H   0  0  0  0  0  0
    2.7806    1.9924   30.5892 H   0  0  0  0  0  0
  1  8  1  0  0  0
  1  2  1  0  0  0
  1 22  1  0  0  0
  2  4  1  0  0  0
  2 14  2  0  0  0
  3  7  1  0  0  0
  3  4  1  0  0  0
  3  9  1  0  0  0
  4  5  2  0  0  0
  5  6  1  0  0  0
  5 23  1  0  0  0
  6  7  2  0  0  0
  6 24  1  0  0  0
  7 25  1  0  0  0
  8 13  1  0  0  0
  8  9  2  0  0  0
  9 10  1  0  0  0
 10 11  2  0  0  0
 10 26  1  0  0  0
 11 12  1  0  0  0
 11 27  1  0  0  0
 12 13  2  0  0  0
 12 15  1  0  0  0
 13 28  1  0  0  0
 15 16  1  0  0  0
 15 29  1  0  0  0
 15 30  1  0  0  0
 16 17  1  0  0  0
 16 20  1  0  0  0
 17 18  1  0  0  0
 17 31  1  0  0  0
 17 32  1  0  0  0
 18 19  1  0  0  0
 18 33  1  0  0  0
 18 34  1  0  0  0
 19 20  1  0  0  0
 19 35  1  0  0  0
 19 36  1  0  0  0
 20 21  2  0  0  0
M  END
> <s_m_entry_id>
10023

> <s_m_entry_name>
dock_pv.92

> <s_m_Source_Path>
/home/csk/Desktop/cluster/DUD-E-result/met

> <s_m_Source_File>
dock_pv.maegz

> <i_m_Source_File_Index>
92

> <chembl_id>
CHEMBL539474

> <chembl_pref_name>
None

> <i_lp_mmshare_version>
53161

> <i_f3d_flags>
0

> <r_lp_tautomer_probability>
1

> <s_lp_Force_Field>
OPLS_2005

> <r_lp_Energy>
28.641201

> <b_lp_Chiralities_Consistent>
1

> <s_lp_Variant>
CHEMBL3717_lig3947-1

> <s_i_glide_gridfile>
glide-grid_3lq8

> <i_i_glide_lignum>
5014

> <i_i_glide_rotatable_bonds>
2

> <r_i_docking_score>
-8.51527793522901

> <r_i_glide_ligand_efficiency>
-0.405489425487096

> <r_i_glide_ligand_efficiency_sa>
-1.11871457810792

> <r_i_glide_ligand_efficiency_ln>
-2.10538526274615

> <r_i_glide_gscore>
-8.51527793522901

> <r_i_glide_lipo>
-3.64491576567029

> <r_i_glide_hbond>
0

> <r_i_glide_metal>
0

> <r_i_glide_rewards>
-3.36091090236823

> <r_i_glide_evdw>
-36.5359802246094

> <r_i_glide_ecoul>
-0.92974317073822

> <r_i_glide_erotb>
0.456809219650713

> <r_i_glide_esite>
0

> <r_i_glide_emodel>
-55.8006135284458

> <r_i_glide_energy>
-37.4657233953476

> <r_i_glide_einternal>
0.890403091907501

> <i_i_glide_confnum>
3

> <i_i_glide_posenum>
275

> <r_i_glide_eff_state_penalty>
0

> <s_user_duplicate_titles>
CHEMBL3717_lig3947

> <s_m_subgroup_title>
dock_pv

> <s_m_subgroupid>
dock_pv

> <b_m_subgroup_collapsed>
1

$$$$
CHEMBL3717_lig3575
                    3D
 Schrodinger Suite 2021-1.
 34 37  0  0  1  0            999 V2000
   -4.6504    0.2023   30.4436 C   0  0  0  0  0  0
   -5.4704    2.9144   30.2129 C   0  0  0  0  0  0
   -4.1228    2.6132   30.4921 C   0  0  0  0  0  0
   -3.7554    1.2601   30.6081 C   0  0  0  0  0  0
   -3.0965    3.7046   30.6079 C   0  0  0  0  0  0
   -1.7571    3.4881   30.6280 C   0  0  0  0  0  0
   -0.8353    4.6061   30.6080 C   0  0  0  0  0  0
   -1.3260    5.8073   30.6138 N   0  0  0  0  0  0
   -2.7163    6.0731   30.6081 C   0  0  0  0  0  0
   -3.5548    5.0011   30.6079 N   0  0  0  0  0  0
   -3.2911    7.1570   30.6079 O   0  0  0  0  0  0
    0.5961    4.3003   30.5129 C   0  0  0  0  0  0
    1.0749    3.5571   29.4254 C   0  0  0  0  0  0
    2.4221    3.2177   29.3452 C   0  0  0  0  0  0
    3.2914    3.6146   30.3568 C   0  0  0  0  0  0
    2.8246    4.3570   31.4387 C   0  0  0  0  0  0
    1.4806    4.7193   31.5111 C   0  0  0  0  0  0
   -6.3994    1.8783   30.0489 C   0  0  0  0  0  0
   -5.9719    0.5383   30.1581 C   0  0  0  0  0  0
   -7.0981   -0.2249   29.9252 N   0  0  0  0  0  0
   -8.1830    0.5349   29.6905 N   0  0  0  0  0  0
   -7.7939    1.7813   29.7642 C   0  0  0  0  0  0
   -4.3274   -0.8254   30.5273 H   0  0  0  0  0  0
   -5.8111    3.9323   30.1051 H   0  0  0  0  0  0
   -2.7392    0.9824   30.8351 H   0  0  0  0  0  0
   -1.3592    2.4905   30.6016 H   0  0  0  0  0  0
   -4.5362    5.2248   30.5846 H   0  0  0  0  0  0
    0.4072    3.2258   28.6411 H   0  0  0  0  0  0
    2.7865    2.6382   28.5090 H   0  0  0  0  0  0
    4.3360    3.3458   30.2980 H   0  0  0  0  0  0
    3.5059    4.6645   32.2171 H   0  0  0  0  0  0
    1.1283    5.2981   32.3541 H   0  0  0  0  0  0
   -7.1678   -1.2320   29.9116 H   0  0  0  0  0  0
   -8.4946    2.5877   29.6060 H   0  0  0  0  0  0
  1 19  2  0  0  0
  1  4  1  0  0  0
  1 23  1  0  0  0
  2 18  2  0  0  0
  2  3  1  0  0  0
  2 24  1  0  0  0
  3  4  2  0  0  0
  3  5  1  0  0  0
  4 25  1  0  0  0
  5 10  1  0  0  0
  5  6  2  0  0  0
  6 26  1  0  0  0
  6  7  1  0  0  0
  7 12  1  0  0  0
  7  8  2  0  0  0
  8  9  1  0  0  0
  9 11  2  0  0  0
  9 10  1  0  0  0
 10 27  1  0  0  0
 12 13  2  0  0  0
 12 17  1  0  0  0
 13 14  1  0  0  0
 13 28  1  0  0  0
 14 15  2  0  0  0
 14 29  1  0  0  0
 15 16  1  0  0  0
 15 30  1  0  0  0
 16 17  2  0  0  0
 16 31  1  0  0  0
 17 32  1  0  0  0
 18 19  1  0  0  0
 18 22  1  0  0  0
 19 20  1  0  0  0
 20 21  1  0  0  0
 20 33  1  0  0  0
 21 22  2  0  0  0
 22 34  1  0  0  0
M  END
> <s_m_entry_id>
10024

> <s_m_entry_name>
dock_pv.93

> <s_m_Source_Path>
/home/csk/Desktop/cluster/DUD-E-result/met

> <s_m_Source_File>
dock_pv.maegz

> <i_m_Source_File_Index>
93

> <chembl_id>
CHEMBL526133

> <chembl_pref_name>
None

> <i_lp_mmshare_version>
53161

> <i_f3d_flags>
0

> <r_lp_tautomer_probability>
0.478063516132417

> <s_lp_Force_Field>
OPLS_2005

> <r_lp_Energy>
20.099217

> <b_lp_Chiralities_Consistent>
1

> <s_lp_Variant>
CHEMBL3717_lig3575-2

> <s_i_glide_gridfile>
glide-grid_3lq8

> <i_i_glide_lignum>
4438

> <i_i_glide_rotatable_bonds>
2

> <r_i_docking_score>
-8.51368435952006

> <r_i_glide_ligand_efficiency>
-0.386985652705457

> <r_i_glide_ligand_efficiency_sa>
-1.08434901816278

> <r_i_glide_ligand_efficiency_ln>
-2.08105500164908

> <r_i_glide_gscore>
-8.51368435952006

> <r_i_glide_lipo>
-2.99503531056782

> <r_i_glide_hbond>
-0.32

> <r_i_glide_metal>
0

> <r_i_glide_rewards>
-3.14338604545454

> <r_i_glide_evdw>
-35.7942848205566

> <r_i_glide_ecoul>
-4.68831586837769

> <r_i_glide_erotb>
0.437698617786782

> <r_i_glide_esite>
0

> <r_i_glide_emodel>
-57.4631201317032

> <r_i_glide_energy>
-40.4826006889343

> <r_i_glide_einternal>
5.38712882995605

> <i_i_glide_confnum>
1

> <i_i_glide_posenum>
56

> <r_i_glide_eff_state_penalty>
0

> <s_user_duplicate_titles>
CHEMBL3717_lig3575,CHEMBL3717_lig3575,CHEMBL3717_lig3575

> <s_m_subgroup_title>
dock_pv

> <s_m_subgroupid>
dock_pv

> <b_m_subgroup_collapsed>
1

$$$$
CHEMBL3717_lig2221
                    3D
 Schrodinger Suite 2021-1.
 55 58  0  0  1  0            999 V2000
   -2.0942    6.7449   30.3018 C   0  0  0  0  0  0
   -0.9020    7.3587   29.7689 C   0  0  0  0  0  0
    0.3073    6.7756   29.8258 C   0  0  0  0  0  0
    0.4275    5.4019   30.2082 C   0  0  0  0  0  0
   -0.6247    4.7817   30.6081 N   0  0  0  0  0  0
   -1.8703    5.4227   30.6318 N   0  0  0  0  0  0
   -3.0630    7.4370   30.6080 O   0  0  0  0  0  0
    3.0235    3.5536   28.6642 N   0  0  0  0  0  0
    3.3865    3.2921   29.9300 N   0  0  0  0  0  0
    2.4848    3.9133   30.6574 C   0  0  0  0  0  0
    1.5638    4.6087   29.8631 C   0  0  0  0  0  0
    1.9349    4.3549   28.5706 C   0  0  0  0  0  0
    3.7383    2.9869   27.5627 C   0  0  0  0  0  0
   -2.8891    4.7267   31.4081 C   0  0  0  0  0  0
   -4.2945    4.4942   30.8190 C   0  0  0  0  0  0
   -4.6754    3.1944   30.4622 C   0  0  0  0  0  0
   -6.0191    2.8805   30.2080 C   0  0  0  0  0  0
   -6.9737    3.8947   30.2289 C   0  0  0  0  0  0
   -6.6077    5.1890   30.5677 C   0  0  0  0  0  0
   -5.2857    5.4778   30.8925 C   0  0  0  0  0  0
   -6.5044    1.5811   30.0214 N   0  0  0  0  0  0
   -5.9006    0.3320   29.8726 C   0  0  0  0  0  0
   -4.5667    0.2349   29.6313 N   0  0  0  0  0  0
   -4.0835   -1.0129   29.4081 C   0  0  0  0  0  0
   -4.8946   -2.1493   29.4081 C   0  0  0  0  0  0
   -6.2460   -1.9462   29.7275 C   0  0  0  0  0  0
   -6.7624   -0.7124   29.9477 N   0  0  0  0  0  0
   -4.3317   -3.3388   29.0084 O   0  0  0  0  0  0
   -5.1214   -4.5252   29.0080 C   0  0  0  0  0  0
   -4.4010   -5.5993   28.1623 C   0  0  0  0  0  0
   -4.4942   -5.2430   26.7897 O   0  0  0  0  0  0
   -3.9569   -6.1631   25.8577 C   0  0  0  0  0  0
   -0.9917    8.3570   29.4080 H   0  0  0  0  0  0
    1.1618    7.3234   29.4615 H   0  0  0  0  0  0
    2.4945    3.8722   31.7371 H   0  0  0  0  0  0
    1.5203    4.6386   27.6164 H   0  0  0  0  0  0
    3.1243    3.0043   26.6619 H   0  0  0  0  0  0
    4.6812    3.5147   27.4156 H   0  0  0  0  0  0
    3.9060    1.9570   27.8073 H   0  0  0  0  0  0
   -2.9157    5.2698   32.3499 H   0  0  0  0  0  0
   -2.4939    3.7523   31.7105 H   0  0  0  0  0  0
   -3.9282    2.4196   30.4956 H   0  0  0  0  0  0
   -8.0128    3.6818   30.0218 H   0  0  0  0  0  0
   -7.3564    5.9654   30.6070 H   0  0  0  0  0  0
   -5.0638    6.4689   31.2437 H   0  0  0  0  0  0
   -7.5036    1.5038   30.1316 H   0  0  0  0  0  0
   -3.0382   -1.0916   29.1499 H   0  0  0  0  0  0
   -6.9598   -2.7536   29.7616 H   0  0  0  0  0  0
   -6.1201   -4.3724   28.6080 H   0  0  0  0  0  0
   -5.2940   -4.8435   30.0313 H   0  0  0  0  0  0
   -4.8588   -6.5735   28.3397 H   0  0  0  0  0  0
   -3.3470   -5.6683   28.4342 H   0  0  0  0  0  0
   -4.4289   -5.9969   24.8899 H   0  0  0  0  0  0
   -4.1239   -7.2042   26.1390 H   0  0  0  0  0  0
   -2.8940   -5.9895   25.7191 H   0  0  0  0  0  0
  1  2  1  0  0  0
  1  6  1  0  0  0
  1  7  2  0  0  0
  2  3  2  0  0  0
  2 33  1  0  0  0
  3  4  1  0  0  0
  3 34  1  0  0  0
  4  5  2  0  0  0
  4 11  1  0  0  0
  5  6  1  0  0  0
  6 14  1  0  0  0
  8  9  1  0  0  0
  8 12  1  0  0  0
  8 13  1  0  0  0
  9 10  2  0  0  0
 10 11  1  0  0  0
 10 35  1  0  0  0
 11 12  2  0  0  0
 12 36  1  0  0  0
 13 37  1  0  0  0
 13 38  1  0  0  0
 13 39  1  0  0  0
 14 15  1  0  0  0
 14 40  1  0  0  0
 14 41  1  0  0  0
 15 16  1  0  0  0
 15 20  2  0  0  0
 16 17  2  0  0  0
 16 42  1  0  0  0
 17 18  1  0  0  0
 17 21  1  0  0  0
 18 19  2  0  0  0
 18 43  1  0  0  0
 19 20  1  0  0  0
 19 44  1  0  0  0
 20 45  1  0  0  0
 21 22  1  0  0  0
 21 46  1  0  0  0
 22 23  2  0  0  0
 22 27  1  0  0  0
 23 24  1  0  0  0
 24 25  2  0  0  0
 24 47  1  0  0  0
 25 26  1  0  0  0
 25 28  1  0  0  0
 26 27  2  0  0  0
 26 48  1  0  0  0
 28 29  1  0  0  0
 29 30  1  0  0  0
 29 49  1  0  0  0
 29 50  1  0  0  0
 30 31  1  0  0  0
 30 51  1  0  0  0
 30 52  1  0  0  0
 31 32  1  0  0  0
 32 53  1  0  0  0
 32 54  1  0  0  0
 32 55  1  0  0  0
M  END
> <s_m_entry_id>
10025

> <s_m_entry_name>
dock_pv.94

> <s_m_Source_Path>
/home/csk/Desktop/cluster/DUD-E-result/met

> <s_m_Source_File>
dock_pv.maegz

> <i_m_Source_File_Index>
94

> <chembl_id>
CHEMBL3759320

> <chembl_pref_name>
None

> <i_lp_mmshare_version>
53161

> <i_f3d_flags>
0

> <r_lp_tautomer_probability>
0.999999999822644

> <s_lp_Force_Field>
OPLS_2005

> <r_lp_Energy>
29.844803

> <b_lp_Chiralities_Consistent>
1

> <s_lp_Variant>
CHEMBL3717_lig2221-1

> <s_i_glide_gridfile>
glide-grid_3lq8

> <i_i_glide_lignum>
2539

> <i_i_glide_rotatable_bonds>
9

> <r_i_docking_score>
-8.51301973390212

> <r_i_glide_ligand_efficiency>
-0.266031866684441

> <r_i_glide_ligand_efficiency_sa>
-0.844598529088173

> <r_i_glide_ligand_efficiency_ln>
-1.9062971745743

> <r_i_glide_gscore>
-8.51301973390212

> <r_i_glide_lipo>
-3.64273958914419

> <r_i_glide_hbond>
-0.493799767286436

> <r_i_glide_metal>
0

> <r_i_glide_rewards>
-2.47721478405946

> <r_i_glide_evdw>
-37.7927589416504

> <r_i_glide_ecoul>
-5.71496248245239

> <r_i_glide_erotb>
0.847616726038352

> <r_i_glide_esite>
0

> <r_i_glide_emodel>
-51.5639157005445

> <r_i_glide_energy>
-43.5077214241028

> <r_i_glide_einternal>
8.18908500671387

> <i_i_glide_confnum>
2

> <i_i_glide_posenum>
1

> <r_i_glide_eff_state_penalty>
0

> <s_user_duplicate_titles>
CHEMBL3717_lig2221

> <s_m_subgroup_title>
dock_pv

> <s_m_subgroupid>
dock_pv

> <b_m_subgroup_collapsed>
1

$$$$
CHEMBL3717_lig4236
                    3D
 Schrodinger Suite 2021-1.
 44 47  0  0  1  0            999 V2000
    1.9896    3.9051   30.6097 S   0  0  0  0  0  0
   -8.4741    2.5967   30.3936 O   0  0  0  0  0  0
    3.1699    4.6785   31.0072 O   0  0  0  0  0  0
    1.5524    2.7582   31.4075 O   0  0  0  0  0  0
   -5.2194    4.2372   30.5426 N   0  0  0  0  0  0
   -3.3821    2.7096   30.6016 N   0  0  0  0  0  0
   -5.4580    5.5570   30.6900 N   0  0  0  0  0  0
   -8.0432    4.7029   29.8100 N   0  0  0  0  0  0
   -3.8370    3.9668   30.6079 C   0  0  0  0  0  0
   -3.1964    5.2389   30.6762 C   0  0  0  0  0  0
   -6.1608    3.2401   30.3673 C   0  0  0  0  0  0
   -1.7453    5.5975   30.6078 C   0  0  0  0  0  0
   -4.2961    1.7036   30.5038 C   0  0  0  0  0  0
   -4.2780    6.1176   30.7754 C   0  0  0  0  0  0
   -5.6661    1.9305   30.3446 C   0  0  0  0  0  0
   -7.6518    3.4899   30.2089 C   0  0  0  0  0  0
   -0.7001    4.6735   30.7748 C   0  0  0  0  0  0
   -3.7537    0.3284   30.6306 C   0  0  0  0  0  0
    0.6214    5.0490   30.4898 C   0  0  0  0  0  0
   -1.4354    6.8891   30.1587 C   0  0  0  0  0  0
    0.8960    6.3397   30.0437 C   0  0  0  0  0  0
   -0.1274    7.2583   29.8718 C   0  0  0  0  0  0
   -4.1082   -0.6644   29.7110 C   0  0  0  0  0  0
   -2.8943    0.0033   31.6884 C   0  0  0  0  0  0
    2.2344    3.3513   28.8308 C   0  0  0  0  0  0
   -3.5794   -1.9466   29.8195 C   0  0  0  0  0  0
   -2.3731   -1.2803   31.8087 C   0  0  0  0  0  0
   -2.7105   -2.2438   30.8648 C   0  0  0  0  0  0
   -7.3662    5.4509   29.7261 H   0  0  0  0  0  0
   -9.0207    4.8919   29.6433 H   0  0  0  0  0  0
   -4.2127    7.1891   30.8827 H   0  0  0  0  0  0
   -6.3412    1.0890   30.2570 H   0  0  0  0  0  0
   -0.9135    3.6596   31.0807 H   0  0  0  0  0  0
   -2.2077    7.6182   29.9777 H   0  0  0  0  0  0
    1.9058    6.6301   29.8098 H   0  0  0  0  0  0
    0.0922    8.2533   29.5126 H   0  0  0  0  0  0
   -4.7735   -0.4411   28.8889 H   0  0  0  0  0  0
   -2.6180    0.7519   32.4166 H   0  0  0  0  0  0
    3.1429    2.7570   28.7771 H   0  0  0  0  0  0
    1.3749    2.7581   28.5233 H   0  0  0  0  0  0
    2.3330    4.2323   28.1993 H   0  0  0  0  0  0
   -3.8382   -2.7058   29.0951 H   0  0  0  0  0  0
   -1.7011   -1.5238   32.6181 H   0  0  0  0  0  0
   -2.2974   -3.2367   30.9432 H   0  0  0  0  0  0
  1  3  2  0  0  0
  1  4  2  0  0  0
  1 19  1  0  0  0
  1 25  1  0  0  0
  2 16  2  0  0  0
  5  7  1  0  0  0
  5  9  1  0  0  0
  5 11  1  0  0  0
  6  9  1  0  0  0
  6 13  2  0  0  0
  7 14  2  0  0  0
  8 16  1  0  0  0
  8 29  1  0  0  0
  8 30  1  0  0  0
  9 10  2  0  0  0
 10 12  1  0  0  0
 10 14  1  0  0  0
 11 15  2  0  0  0
 11 16  1  0  0  0
 12 17  2  0  0  0
 12 20  1  0  0  0
 13 15  1  0  0  0
 13 18  1  0  0  0
 14 31  1  0  0  0
 15 32  1  0  0  0
 17 19  1  0  0  0
 17 33  1  0  0  0
 18 23  2  0  0  0
 18 24  1  0  0  0
 19 21  2  0  0  0
 20 22  2  0  0  0
 20 34  1  0  0  0
 21 22  1  0  0  0
 21 35  1  0  0  0
 22 36  1  0  0  0
 23 26  1  0  0  0
 23 37  1  0  0  0
 24 27  2  0  0  0
 24 38  1  0  0  0
 25 39  1  0  0  0
 25 40  1  0  0  0
 25 41  1  0  0  0
 26 28  2  0  0  0
 26 42  1  0  0  0
 27 28  1  0  0  0
 27 43  1  0  0  0
 28 44  1  0  0  0
M  END
> <s_m_entry_id>
10027

> <s_m_entry_name>
dock_pv.96

> <s_m_Source_Path>
/home/csk/Desktop/cluster/DUD-E-result/met

> <s_m_Source_File>
dock_pv.maegz

> <i_m_Source_File_Index>
96

> <chembl_id>
CHEMBL1998477

> <chembl_pref_name>
None

> <i_lp_mmshare_version>
53161

> <i_f3d_flags>
0

> <r_lp_tautomer_probability>
1

> <s_lp_Force_Field>
OPLS_2005

> <r_lp_Energy>
17.238317

> <b_lp_Chiralities_Consistent>
1

> <s_lp_Variant>
CHEMBL3717_lig4236-1

> <s_i_glide_gridfile>
glide-grid_3lq8

> <i_i_glide_lignum>
5442

> <i_i_glide_rotatable_bonds>
4

> <r_i_docking_score>
-8.50374413790793

> <r_i_glide_ligand_efficiency>
-0.303705147782426

> <r_i_glide_ligand_efficiency_sa>
-0.922227701433633

> <r_i_glide_ligand_efficiency_ln>
-1.96291382780635

> <r_i_glide_gscore>
-8.50374413790793

> <r_i_glide_lipo>
-3.64514443066631

> <r_i_glide_hbond>
0

> <r_i_glide_metal>
0

> <r_i_glide_rewards>
-2.36668948905171

> <r_i_glide_evdw>
-49.370059967041

> <r_i_glide_ecoul>
-1.84646594524384

> <r_i_glide_erotb>
0.253562671948705

> <r_i_glide_esite>
0

> <r_i_glide_emodel>
-69.2400237665791

> <r_i_glide_energy>
-51.2165259122849

> <r_i_glide_einternal>
6.42278718948364

> <i_i_glide_confnum>
3

> <i_i_glide_posenum>
85

> <r_i_glide_eff_state_penalty>
0

> <s_user_duplicate_titles>
CHEMBL3717_lig4236

> <s_m_subgroup_title>
dock_pv

> <s_m_subgroupid>
dock_pv

> <b_m_subgroup_collapsed>
1

$$$$
CHEMBL3717_lig3494
                    3D
 Schrodinger Suite 2021-1.
 38 41  0  0  1  0            999 V2000
   -5.6428    1.1567   28.7392 O   0  0  0  0  0  0
   -2.3785    7.5311   30.6062 O   0  0  0  0  0  0
   -4.3758   -0.6436   29.4064 N   0  0  0  0  0  0
   -2.3500    2.6457   30.7039 N   0  0  0  0  0  0
   -0.1612   -1.3888   34.6089 N   0  0  0  0  0  0
   -4.3205    1.1725   30.8220 C   0  0  1  0  0  0
   -3.4192    0.0638   31.3163 C   0  0  0  0  0  0
   -3.6994    2.5677   30.6259 C   0  0  0  0  0  0
   -3.5072   -0.9833   30.4221 C   0  0  0  0  0  0
   -4.8834    0.5934   29.5215 C   0  0  0  0  0  0
   -1.7276    3.8481   30.6991 C   0  0  0  0  0  0
   -2.4488    5.0579   30.6078 C   0  0  0  0  0  0
   -2.5777   -0.0428   32.4274 C   0  0  0  0  0  0
   -4.4860    3.7188   30.5412 C   0  0  0  0  0  0
   -2.7610   -2.1463   30.5824 C   0  0  0  0  0  0
   -1.8101   -1.2009   32.6008 C   0  0  0  0  0  0
   -3.8492    4.9602   30.5257 C   0  0  0  0  0  0
   -1.7277    6.3486   30.2062 C   0  0  2  0  0  0
   -1.9019   -2.2481   31.6768 C   0  0  0  0  0  0
   -0.1992    3.8299   30.7598 C   0  0  0  0  0  0
   -0.2105    6.3102   30.4986 C   0  0  0  0  0  0
    0.4346    5.0103   30.0101 C   0  0  0  0  0  0
   -0.8939   -1.3054   33.7195 C   0  0  0  0  0  0
   -1.8466    8.2689   30.2928 H   0  0  0  0  0  0
   -4.5197   -1.1897   28.5617 H   0  0  0  0  0  0
   -5.1617    1.2867   31.5049 H   0  0  0  0  0  0
   -2.4935    0.7752   33.1281 H   0  0  0  0  0  0
   -5.5639    3.6542   30.4908 H   0  0  0  0  0  0
   -2.8273   -2.9620   29.8776 H   0  0  0  0  0  0
   -4.4445    5.8512   30.3892 H   0  0  0  0  0  0
   -1.8184    6.4087   29.1234 H   0  0  0  0  0  0
   -1.3115   -3.1467   31.7928 H   0  0  0  0  0  0
    0.1002    3.8693   31.8078 H   0  0  0  0  0  0
    0.1957    2.8900   30.3729 H   0  0  0  0  0  0
   -0.0331    6.3569   31.5660 H   0  0  0  0  0  0
    0.2866    7.1902   30.0863 H   0  0  0  0  0  0
    1.5112    5.0299   30.1891 H   0  0  0  0  0  0
    0.3066    4.8974   28.9336 H   0  0  0  0  0  0
  1 10  2  0  0  0
  2 18  1  0  0  0
  2 24  1  0  0  0
  3  9  1  0  0  0
  3 10  1  0  0  0
  3 25  1  0  0  0
  4  8  1  0  0  0
  4 11  2  0  0  0
  5 23  3  0  0  0
  6  7  1  0  0  0
  6  8  1  0  0  0
  6 10  1  0  0  0
  6 26  1  0  0  0
  7  9  1  0  0  0
  7 13  2  0  0  0
  8 14  2  0  0  0
  9 15  2  0  0  0
 11 12  1  0  0  0
 11 20  1  0  0  0
 12 17  2  0  0  0
 12 18  1  0  0  0
 13 16  1  0  0  0
 13 27  1  0  0  0
 14 17  1  0  0  0
 14 28  1  0  0  0
 15 19  1  0  0  0
 15 29  1  0  0  0
 16 19  2  0  0  0
 16 23  1  0  0  0
 17 30  1  0  0  0
 18 21  1  0  0  0
 18 31  1  0  0  0
 19 32  1  0  0  0
 20 22  1  0  0  0
 20 33  1  0  0  0
 20 34  1  0  0  0
 21 22  1  0  0  0
 21 35  1  0  0  0
 21 36  1  0  0  0
 22 37  1  0  0  0
 22 38  1  0  0  0
M  END
> <s_m_entry_id>
10028

> <s_m_entry_name>
dock_pv.97

> <s_m_Source_Path>
/home/csk/Desktop/cluster/DUD-E-result/met

> <s_m_Source_File>
dock_pv.maegz

> <i_m_Source_File_Index>
97

> <chembl_id>
CHEMBL1985681

> <chembl_pref_name>
None

> <i_lp_mmshare_version>
53161

> <i_f3d_flags>
0

> <r_lp_tautomer_probability>
1

> <s_lp_Force_Field>
OPLS_2005

> <r_lp_Energy>
34.63805

> <b_lp_Chiralities_Consistent>
1

> <s_lp_Variant>
CHEMBL3717_lig3494-2

> <s_i_glide_gridfile>
glide-grid_3lq8

> <i_i_glide_lignum>
4315

> <i_i_glide_rotatable_bonds>
2

> <r_i_docking_score>
-8.49971208369582

> <r_i_glide_ligand_efficiency>
-0.369552699291122

> <r_i_glide_ligand_efficiency_sa>
-1.05095871773061

> <r_i_glide_ligand_efficiency_ln>
-2.05530745296572

> <r_i_glide_gscore>
-8.49971208369582

> <r_i_glide_lipo>
-3.27955713290978

> <r_i_glide_hbond>
-0.431356097373002

> <r_i_glide_metal>
0

> <r_i_glide_rewards>
-2.57089477284852

> <r_i_glide_evdw>
-29.7530460357666

> <r_i_glide_ecoul>
-5.78752517700195

> <r_i_glide_erotb>
0.197964064361684

> <r_i_glide_esite>
-0.0600870665875682

> <r_i_glide_emodel>
-51.0832381452943

> <r_i_glide_energy>
-35.5405712127686

> <r_i_glide_einternal>
1.10515260696411

> <i_i_glide_confnum>
2

> <i_i_glide_posenum>
29

> <r_i_glide_eff_state_penalty>
0

> <s_user_duplicate_titles>
CHEMBL3717_lig3494

> <s_m_subgroup_title>
dock_pv

> <s_m_subgroupid>
dock_pv

> <b_m_subgroup_collapsed>
1

$$$$
CHEMBL3717_lig1361
                    3D
 Schrodinger Suite 2021-1.
 46 49  0  0  1  0            999 V2000
   -2.1339    3.2860   31.1211 C   0  0  0  0  0  0
   -4.0941    5.6647   30.7101 C   0  0  0  0  0  0
   -2.8938    6.2708   30.7512 C   0  0  0  0  0  0
   -1.1931    4.3612   30.6861 C   0  0  0  0  0  0
   -1.5292    5.7260   30.5816 C   0  0  0  0  0  0
   -0.5221    6.6253   30.2078 C   0  0  0  0  0  0
    0.7675    6.1868   29.9141 C   0  0  0  0  0  0
    1.0860    4.8294   29.9773 C   0  0  0  0  0  0
    0.1135    3.9283   30.3997 C   0  0  0  0  0  0
   -4.4385    4.2474   30.4964 C   0  0  0  0  0  0
   -3.5359    3.1756   30.6080 C   0  0  0  0  0  0
   -4.0176    1.8722   30.3992 C   0  0  0  0  0  0
   -5.3649    1.6551   30.1008 C   0  0  0  0  0  0
   -6.1982    2.7742   30.0365 C   0  0  0  0  0  0
   -5.7530    4.0448   30.2107 N   0  0  0  0  0  0
   -1.6953    2.3578   31.8081 O   0  0  0  0  0  0
    2.4485    4.3217   29.5205 C   0  0  0  0  0  0
    3.4836    3.5099   30.8814 S   0  0  0  0  0  0
    5.1120    3.5353   30.2079 N   0  0  2  0  0  0
    3.1048    2.1035   31.0082 O   0  0  0  0  0  0
    3.4602    4.3570   32.0702 O   0  0  0  0  0  0
   -5.8774    0.2729   29.8780 C   0  0  0  0  0  0
   -7.0778   -0.1389   29.2710 C   0  0  0  0  0  0
   -7.2200   -1.4446   29.2186 N   0  0  0  0  0  0
   -6.1191   -1.9244   29.8079 N   0  0  0  0  0  0
   -5.2678   -0.9310   30.2083 C   0  0  0  0  0  0
   -5.8992   -3.3584   29.8787 C   0  0  0  0  0  0
    5.7974    4.8265   29.9965 C   0  0  0  0  0  0
   -4.9496    6.3092   30.8658 H   0  0  0  0  0  0
   -2.9207    7.3330   30.9470 H   0  0  0  0  0  0
   -0.7393    7.6804   30.1104 H   0  0  0  0  0  0
    1.5057    6.9098   29.6057 H   0  0  0  0  0  0
    0.3824    2.8817   30.4570 H   0  0  0  0  0  0
   -3.3584    1.0191   30.4867 H   0  0  0  0  0  0
   -7.2518    2.6712   29.8224 H   0  0  0  0  0  0
    3.0421    5.1487   29.1343 H   0  0  0  0  0  0
    2.3407    3.5934   28.7169 H   0  0  0  0  0  0
    5.2951    2.8299   29.4851 H   0  0  0  0  0  0
   -7.8343    0.5123   28.8589 H   0  0  0  0  0  0
   -4.3250   -1.1694   30.6769 H   0  0  0  0  0  0
   -5.3338   -3.6000   30.7798 H   0  0  0  0  0  0
   -6.8515   -3.8896   29.9045 H   0  0  0  0  0  0
   -5.3268   -3.6760   29.0077 H   0  0  0  0  0  0
    5.5158    5.5489   30.7620 H   0  0  0  0  0  0
    5.5218    5.2280   29.0208 H   0  0  0  0  0  0
    6.8778    4.6759   29.9983 H   0  0  0  0  0  0
  1 11  1  0  0  0
  1  4  1  0  0  0
  1 16  2  0  0  0
  2 10  1  0  0  0
  2  3  2  0  0  0
  2 29  1  0  0  0
  3  5  1  0  0  0
  3 30  1  0  0  0
  4  5  2  0  0  0
  4  9  1  0  0  0
  5  6  1  0  0  0
  6  7  2  0  0  0
  6 31  1  0  0  0
  7  8  1  0  0  0
  7 32  1  0  0  0
  8  9  2  0  0  0
  8 17  1  0  0  0
  9 33  1  0  0  0
 10 11  2  0  0  0
 10 15  1  0  0  0
 11 12  1  0  0  0
 12 13  2  0  0  0
 12 34  1  0  0  0
 13 14  1  0  0  0
 13 22  1  0  0  0
 14 15  2  0  0  0
 14 35  1  0  0  0
 17 18  1  0  0  0
 17 36  1  0  0  0
 17 37  1  0  0  0
 18 19  1  0  0  0
 18 20  2  0  0  0
 18 21  2  0  0  0
 19 28  1  0  0  0
 19 38  1  0  0  0
 22 23  1  0  0  0
 22 26  2  0  0  0
 23 24  2  0  0  0
 23 39  1  0  0  0
 24 25  1  0  0  0
 25 26  1  0  0  0
 25 27  1  0  0  0
 26 40  1  0  0  0
 27 41  1  0  0  0
 27 42  1  0  0  0
 27 43  1  0  0  0
 28 44  1  0  0  0
 28 45  1  0  0  0
 28 46  1  0  0  0
M  END
> <s_m_entry_id>
10029

> <s_m_entry_name>
dock_pv.98

> <s_m_Source_Path>
/home/csk/Desktop/cluster/DUD-E-result/met

> <s_m_Source_File>
dock_pv.maegz

> <i_m_Source_File_Index>
98

> <chembl_id>
CHEMBL2324119

> <chembl_pref_name>
None

> <i_lp_mmshare_version>
53161

> <i_f3d_flags>
0

> <r_lp_tautomer_probability>
1

> <s_lp_Force_Field>
OPLS_2005

> <r_lp_Energy>
28.301483

> <b_lp_Chiralities_Consistent>
1

> <s_lp_Variant>
CHEMBL3717_lig1361-1

> <s_i_glide_gridfile>
glide-grid_3lq8

> <i_i_glide_lignum>
1550

> <i_i_glide_rotatable_bonds>
4

> <r_i_docking_score>
-8.49706061609747

> <r_i_glide_ligand_efficiency>
-0.30346645057491

> <r_i_glide_ligand_efficiency_sa>
-0.921502876126476

> <r_i_glide_ligand_efficiency_ln>
-1.96137107473576

> <r_i_glide_gscore>
-8.49706061609747

> <r_i_glide_lipo>
-4.08254358400461

> <r_i_glide_hbond>
-0.275352362466585

> <r_i_glide_metal>
0

> <r_i_glide_rewards>
-1.95300660606061

> <r_i_glide_evdw>
-41.521068572998

> <r_i_glide_ecoul>
-3.20713257789612

> <r_i_glide_erotb>
0.376857458130776

> <r_i_glide_esite>
-0.00589220636212457

> <r_i_glide_emodel>
-63.7980008152232

> <r_i_glide_energy>
-44.7282011508942

> <r_i_glide_einternal>
2.1844117641449

> <i_i_glide_confnum>
9

> <i_i_glide_posenum>
106

> <r_i_glide_eff_state_penalty>
0

> <s_user_duplicate_titles>
CHEMBL3717_lig1361

> <s_m_subgroup_title>
dock_pv

> <s_m_subgroupid>
dock_pv

> <b_m_subgroup_collapsed>
1

$$$$
CHEMBL3717_lig4313
                    3D
 Schrodinger Suite 2021-1.
 37 40  0  0  1  0            999 V2000
    5.5549    3.9571   29.4078 O   0  0  0  0  0  0
    4.2100    3.9136   29.6587 C   0  0  0  0  0  0
    3.7352    4.3569   30.8892 C   0  0  0  0  0  0
    2.3799    4.2582   31.1908 C   0  0  0  0  0  0
    1.4995    3.7165   30.2527 C   0  0  0  0  0  0
    0.0386    3.4909   30.6252 C   0  0  0  0  0  0
   -0.8701    4.7044   30.6081 C   0  0  0  0  0  0
   -0.5120    5.9692   30.5279 N   0  0  0  0  0  0
   -1.6525    6.7567   30.4831 N   0  0  0  0  0  0
   -2.7107    5.9233   30.5814 C   0  0  0  0  0  0
   -4.0937    6.1547   30.6076 C   0  0  0  0  0  0
   -4.9568    5.0597   30.5239 C   0  0  0  0  0  0
   -4.4825    3.7414   30.4707 C   0  0  0  0  0  0
   -3.1036    3.5317   30.6080 C   0  0  0  0  0  0
   -2.2466    4.6021   30.6158 N   0  0  0  0  0  0
   -5.4082    2.5975   30.2077 C   0  0  0  0  0  0
   -6.7497    2.5979   30.6167 C   0  0  0  0  0  0
   -7.5616    1.5097   30.2885 C   0  0  0  0  0  0
   -7.0270    0.4473   29.5582 C   0  0  0  0  0  0
   -5.6852    0.5071   29.1852 C   0  0  0  0  0  0
   -4.8829    1.5551   29.5004 N   0  0  0  0  0  0
    1.9739    3.3073   29.0011 C   0  0  0  0  0  0
    3.3320    3.4026   28.7055 C   0  0  0  0  0  0
    5.8383    3.3332   28.7250 H   0  0  0  0  0  0
    4.4244    4.7539   31.6169 H   0  0  0  0  0  0
    2.0194    4.5772   32.1581 H   0  0  0  0  0  0
   -0.3682    2.7571   29.9327 H   0  0  0  0  0  0
   -0.0010    3.0180   31.6067 H   0  0  0  0  0  0
   -4.4915    7.1573   30.5973 H   0  0  0  0  0  0
   -6.0157    5.2578   30.4342 H   0  0  0  0  0  0
   -2.6552    2.5492   30.5939 H   0  0  0  0  0  0
   -7.1626    3.4207   31.1805 H   0  0  0  0  0  0
   -8.5974    1.4914   30.5943 H   0  0  0  0  0  0
   -7.6371   -0.4024   29.2879 H   0  0  0  0  0  0
   -5.2338   -0.2921   28.6119 H   0  0  0  0  0  0
    1.2995    2.8817   28.2709 H   0  0  0  0  0  0
    3.6982    3.0568   27.7503 H   0  0  0  0  0  0
  1  2  1  0  0  0
  1 24  1  0  0  0
  2  3  2  0  0  0
  2 23  1  0  0  0
  3  4  1  0  0  0
  3 25  1  0  0  0
  4  5  2  0  0  0
  4 26  1  0  0  0
  5  6  1  0  0  0
  5 22  1  0  0  0
  6  7  1  0  0  0
  6 27  1  0  0  0
  6 28  1  0  0  0
  7  8  2  0  0  0
  7 15  1  0  0  0
  8  9  1  0  0  0
  9 10  2  0  0  0
 10 11  1  0  0  0
 10 15  1  0  0  0
 11 12  2  0  0  0
 11 29  1  0  0  0
 12 13  1  0  0  0
 12 30  1  0  0  0
 13 14  2  0  0  0
 13 16  1  0  0  0
 14 15  1  0  0  0
 14 31  1  0  0  0
 16 17  2  0  0  0
 16 21  1  0  0  0
 17 18  1  0  0  0
 17 32  1  0  0  0
 18 19  2  0  0  0
 18 33  1  0  0  0
 19 20  1  0  0  0
 19 34  1  0  0  0
 20 21  2  0  0  0
 20 35  1  0  0  0
 22 23  2  0  0  0
 22 36  1  0  0  0
 23 37  1  0  0  0
M  END
> <s_m_entry_id>
10031

> <s_m_entry_name>
dock_pv.100

> <s_m_Source_Path>
/home/csk/Desktop/cluster/DUD-E-result/met

> <s_m_Source_File>
dock_pv.maegz

> <i_m_Source_File_Index>
100

> <chembl_id>
CHEMBL3668137

> <chembl_pref_name>
None

> <i_lp_mmshare_version>
53161

> <i_f3d_flags>
0

> <r_lp_tautomer_probability>
0.999999999997365

> <s_lp_Force_Field>
OPLS_2005

> <r_lp_Energy>
15.657979

> <b_lp_Chiralities_Consistent>
1

> <s_lp_Variant>
CHEMBL3717_lig4313-1

> <s_i_glide_gridfile>
glide-grid_3lq8

> <i_i_glide_lignum>
5535

> <i_i_glide_rotatable_bonds>
4

> <r_i_docking_score>
-8.49433897163125

> <r_i_glide_ligand_efficiency>
-0.369319085723098

> <r_i_glide_ligand_efficiency_sa>
-1.05029435181916

> <r_i_glide_ligand_efficiency_ln>
-2.05400818574782

> <r_i_glide_gscore>
-8.49433897163125

> <r_i_glide_lipo>
-3.03231512938112

> <r_i_glide_hbond>
-0.32

> <r_i_glide_metal>
0

> <r_i_glide_rewards>
-3.05672481258011

> <r_i_glide_evdw>
-37.788501739502

> <r_i_glide_ecoul>
-5.33422565460205

> <r_i_glide_erotb>
0.604259905495387

> <r_i_glide_esite>
0

> <r_i_glide_emodel>
-63.4300635859639

> <r_i_glide_energy>
-43.122727394104

> <r_i_glide_einternal>
0.655570447444916

> <i_i_glide_confnum>
4

> <i_i_glide_posenum>
290

> <r_i_glide_eff_state_penalty>
0

> <s_user_duplicate_titles>
CHEMBL3717_lig4313

> <s_m_subgroup_title>
dock_pv

> <s_m_subgroupid>
dock_pv

> <b_m_subgroup_collapsed>
1

$$$$
CHEMBL3717_lig3604
                    3D
 Schrodinger Suite 2021-1.
 27 29  0  0  1  0            999 V2000
    2.6564    2.4654   31.5589 Br  0  0  0  0  0  0
   -2.5486    6.8533   30.2080 N   0  0  0  0  0  0
   -4.4455    5.5923   30.6081 N   0  0  0  0  0  0
   -4.8729    3.2480   30.3346 N   0  0  0  0  0  0
   -7.1502    2.4427   30.2199 N   0  0  0  0  0  0
   -0.8150    4.7300   30.8808 C   0  0  0  0  0  0
   -0.2864    5.9564   30.3789 C   0  0  0  0  0  0
   -3.0464    5.6647   30.6208 C   0  0  0  0  0  0
   -2.2215    4.5991   31.0079 C   0  0  0  0  0  0
   -1.2091    6.9791   30.0778 C   0  0  0  0  0  0
    0.0807    3.6859   31.2194 C   0  0  0  0  0  0
   -5.3379    4.5169   30.5048 C   0  0  0  0  0  0
    1.1063    6.0954   30.2065 C   0  0  0  0  0  0
    1.4548    3.8579   31.0613 C   0  0  0  0  0  0
    1.9585    5.0469   30.5461 C   0  0  0  0  0  0
   -6.7078    4.7971   30.5249 C   0  0  0  0  0  0
   -5.8041    2.2686   30.2077 C   0  0  0  0  0  0
   -7.5849    3.7203   30.3766 C   0  0  0  0  0  0
   -4.8922    6.4890   30.4913 H   0  0  0  0  0  0
   -2.6277    3.6689   31.3731 H   0  0  0  0  0  0
   -0.8550    7.9357   29.7168 H   0  0  0  0  0  0
   -0.3105    2.7576   31.6078 H   0  0  0  0  0  0
    1.5047    7.0185   29.8108 H   0  0  0  0  0  0
    3.0249    5.1577   30.4179 H   0  0  0  0  0  0
   -7.0796    5.8066   30.6184 H   0  0  0  0  0  0
   -5.4413    1.2585   30.0760 H   0  0  0  0  0  0
   -8.6550    3.8709   30.3729 H   0  0  0  0  0  0
  1 14  1  0  0  0
  2  8  1  0  0  0
  2 10  2  0  0  0
  3  8  1  0  0  0
  3 12  1  0  0  0
  3 19  1  0  0  0
  4 12  1  0  0  0
  4 17  2  0  0  0
  5 17  1  0  0  0
  5 18  2  0  0  0
  6  7  1  0  0  0
  6  9  1  0  0  0
  6 11  2  0  0  0
  7 10  1  0  0  0
  7 13  2  0  0  0
  8  9  2  0  0  0
  9 20  1  0  0  0
 10 21  1  0  0  0
 11 14  1  0  0  0
 11 22  1  0  0  0
 12 16  2  0  0  0
 13 15  1  0  0  0
 13 23  1  0  0  0
 14 15  2  0  0  0
 15 24  1  0  0  0
 16 18  1  0  0  0
 16 25  1  0  0  0
 17 26  1  0  0  0
 18 27  1  0  0  0
M  END
> <s_m_entry_id>
10032

> <s_m_entry_name>
dock_pv.101

> <s_m_Source_Path>
/home/csk/Desktop/cluster/DUD-E-result/met

> <s_m_Source_File>
dock_pv.maegz

> <i_m_Source_File_Index>
101

> <chembl_id>
CHEMBL1984686

> <chembl_pref_name>
None

> <i_lp_mmshare_version>
53161

> <i_f3d_flags>
0

> <r_lp_tautomer_probability>
0.999999583200174

> <s_lp_Force_Field>
OPLS_2005

> <r_lp_Energy>
7.602226

> <b_lp_Chiralities_Consistent>
1

> <s_lp_Variant>
CHEMBL3717_lig3604-1

> <s_i_glide_gridfile>
glide-grid_3lq8

> <i_i_glide_lignum>
4481

> <i_i_glide_rotatable_bonds>
2

> <r_i_docking_score>
-8.48648794940855

> <r_i_glide_ligand_efficiency>
-0.47147155274492

> <r_i_glide_ligand_efficiency_sa>
-1.2356050132801

> <r_i_glide_ligand_efficiency_ln>
-2.18140796755061

> <r_i_glide_gscore>
-8.48648794940855

> <r_i_glide_lipo>
-3.62288446392564

> <r_i_glide_hbond>
-0.169412483593637

> <r_i_glide_metal>
0

> <r_i_glide_rewards>
-2.92543513281957

> <r_i_glide_evdw>
-35.1666831970215

> <r_i_glide_ecoul>
-2.77366662025452

> <r_i_glide_erotb>
0.405628283819548

> <r_i_glide_esite>
0

> <r_i_glide_emodel>
-53.7498107396918

> <r_i_glide_energy>
-37.940349817276

> <r_i_glide_einternal>
5.98251056671143

> <i_i_glide_confnum>
9

> <i_i_glide_posenum>
295

> <r_i_glide_eff_state_penalty>
0

> <s_user_duplicate_titles>
CHEMBL3717_lig3604

> <s_m_subgroup_title>
dock_pv

> <s_m_subgroupid>
dock_pv

> <b_m_subgroup_collapsed>
1

$$$$
CHEMBL3717_lig3951
                    3D
 Schrodinger Suite 2021-1.
 27 29  0  0  1  0            999 V2000
   -5.7483    3.8596   30.6080 O   0  0  0  0  0  0
   -3.4839    6.7262   30.5378 N   0  0  0  0  0  0
    4.2327    3.1443   30.6080 N   0  0  0  0  0  0
   -2.1563    4.6833   30.6080 C   0  0  0  0  0  0
   -2.2774    6.0987   30.4732 C   0  0  0  0  0  0
    0.2814    4.8758   30.4213 C   0  0  0  0  0  0
   -0.8692    4.0977   30.6080 C   0  0  0  0  0  0
    1.6371    4.2508   30.4494 C   0  0  0  0  0  0
   -3.3476    3.9143   30.6080 C   0  0  0  0  0  0
   -1.1181    6.8636   30.2080 C   0  0  0  0  0  0
    0.1330    6.2524   30.2080 C   0  0  0  0  0  0
   -4.5774    4.5674   30.6079 C   0  0  0  0  0  0
   -4.5978    5.9570   30.6080 C   0  0  0  0  0  0
    1.9060    3.1420   31.2561 C   0  0  0  0  0  0
    2.6951    4.7498   29.6818 C   0  0  0  0  0  0
    3.1974    2.6224   31.3126 C   0  0  0  0  0  0
    3.9670    4.1874   29.7882 C   0  0  0  0  0  0
   -5.6213    2.9083   30.6080 H   0  0  0  0  0  0
   -0.7968    3.0250   30.7044 H   0  0  0  0  0  0
   -3.2884    2.8360   30.6315 H   0  0  0  0  0  0
   -1.2016    7.9320   30.0606 H   0  0  0  0  0  0
    1.0026    6.8753   30.0574 H   0  0  0  0  0  0
   -5.5409    6.4845   30.6080 H   0  0  0  0  0  0
    1.1141    2.6719   31.8080 H   0  0  0  0  0  0
    2.5266    5.5570   29.0032 H   0  0  0  0  0  0
    3.4178    1.7615   31.9241 H   0  0  0  0  0  0
    4.7945    4.5672   29.2062 H   0  0  0  0  0  0
  1 12  1  0  0  0
  1 18  1  0  0  0
  2  5  2  0  0  0
  2 13  1  0  0  0
  3 16  2  0  0  0
  3 17  1  0  0  0
  4  5  1  0  0  0
  4  7  1  0  0  0
  4  9  2  0  0  0
  5 10  1  0  0  0
  6  7  2  0  0  0
  6  8  1  0  0  0
  6 11  1  0  0  0
  7 19  1  0  0  0
  8 14  2  0  0  0
  8 15  1  0  0  0
  9 12  1  0  0  0
  9 20  1  0  0  0
 10 11  2  0  0  0
 10 21  1  0  0  0
 11 22  1  0  0  0
 12 13  2  0  0  0
 13 23  1  0  0  0
 14 16  1  0  0  0
 14 24  1  0  0  0
 15 17  2  0  0  0
 15 25  1  0  0  0
 16 26  1  0  0  0
 17 27  1  0  0  0
M  END
> <s_m_entry_id>
10033

> <s_m_entry_name>
dock_pv.102

> <s_m_Source_Path>
/home/csk/Desktop/cluster/DUD-E-result/met

> <s_m_Source_File>
dock_pv.maegz

> <i_m_Source_File_Index>
102

> <chembl_id>
CHEMBL1973868

> <chembl_pref_name>
None

> <i_lp_mmshare_version>
53161

> <i_f3d_flags>
0

> <r_lp_tautomer_probability>
1

> <s_lp_Force_Field>
OPLS_2005

> <r_lp_Energy>
14.981447

> <b_lp_Chiralities_Consistent>
1

> <s_lp_Variant>
CHEMBL3717_lig3951-1

> <s_i_glide_gridfile>
glide-grid_3lq8

> <i_i_glide_lignum>
5020

> <i_i_glide_rotatable_bonds>
2

> <r_i_docking_score>
-8.47776219663483

> <r_i_glide_ligand_efficiency>
-0.498691893919696

> <r_i_glide_ligand_efficiency_sa>
-1.28227728503521

> <r_i_glide_ligand_efficiency_ln>
-2.21165936662003

> <r_i_glide_gscore>
-8.47776219663483

> <r_i_glide_lipo>
-3.56933117087138

> <r_i_glide_hbond>
-0.244976181502818

> <r_i_glide_metal>
0

> <r_i_glide_rewards>
-3.29380454545455

> <r_i_glide_evdw>
-31.1380653381348

> <r_i_glide_ecoul>
-1.0323383808136

> <r_i_glide_erotb>
0.342103725222698

> <r_i_glide_esite>
0

> <r_i_glide_emodel>
-47.4697665250885

> <r_i_glide_energy>
-32.1704037189484

> <r_i_glide_einternal>
0.0411276109516621

> <i_i_glide_confnum>
3

> <i_i_glide_posenum>
203

> <r_i_glide_eff_state_penalty>
0

> <s_user_duplicate_titles>
CHEMBL3717_lig3951

> <s_m_subgroup_title>
dock_pv

> <s_m_subgroupid>
dock_pv

> <b_m_subgroup_collapsed>
1

$$$$
CHEMBL3717_lig1100
                    3D
 Schrodinger Suite 2021-1.
 42 46  0  0  1  0            999 V2000
    0.2667    5.1172   30.2138 C   0  0  0  0  0  0
    0.1141    6.5034   30.0773 C   0  0  0  0  0  0
   -1.1504    7.0848   30.2079 C   0  0  0  0  0  0
   -0.7504    4.2732   30.5325 N   0  0  0  0  0  0
   -1.9588    4.8618   30.6085 N   0  0  0  0  0  0
   -2.2352    6.2316   30.4714 C   0  0  0  0  0  0
   -3.5626    6.4344   30.6080 N   0  0  0  0  0  0
   -4.1282    5.1778   30.7625 N   0  0  0  0  0  0
   -3.1904    4.2498   30.7033 C   0  0  0  0  0  0
   -3.3170    2.7221   30.8195 C   0  0  0  0  0  0
   -4.6125    1.9594   30.4555 C   0  0  0  0  0  0
   -6.9444    0.5220   29.7453 C   0  0  0  0  0  0
   -6.9788    1.9077   29.8583 C   0  0  0  0  0  0
   -5.8296    2.6155   30.2076 C   0  0  0  0  0  0
   -5.7587   -0.1692   30.0046 C   0  0  0  0  0  0
   -4.5964    0.5465   30.3828 C   0  0  0  0  0  0
   -3.3952   -0.2643   30.6778 C   0  0  0  0  0  0
   -3.4562   -1.5983   30.5326 C   0  0  0  0  0  0
   -4.5668   -2.2861   30.1444 N   0  0  0  0  0  0
   -5.7654   -1.6978   29.8912 C   0  0  0  0  0  0
   -6.7453   -2.3887   29.6152 O   0  0  0  0  0  0
    1.5463    4.4678   29.8568 C   0  0  0  0  0  0
    2.7177    4.7653   30.5538 C   0  0  0  0  0  0
    3.9521    4.2932   30.1175 C   0  0  0  0  0  0
    4.0149    3.5150   28.9690 C   0  0  0  0  0  0
    2.8523    3.1533   28.2921 C   0  0  0  0  0  0
    1.6210    3.6210   28.7446 C   0  0  0  0  0  0
    5.3995    4.6833   30.9767 Cl  0  0  0  0  0  0
    0.9592    7.1233   29.8135 H   0  0  0  0  0  0
   -1.2913    8.1510   30.0814 H   0  0  0  0  0  0
   -2.9914    2.3930   31.8077 H   0  0  0  0  0  0
   -2.5545    2.3037   30.1632 H   0  0  0  0  0  0
   -7.8454   -0.0072   29.4632 H   0  0  0  0  0  0
   -7.8999    2.4395   29.6658 H   0  0  0  0  0  0
   -5.9284    3.6839   30.2638 H   0  0  0  0  0  0
   -2.4863    0.1903   31.0267 H   0  0  0  0  0  0
   -2.6318   -2.2668   30.7419 H   0  0  0  0  0  0
   -4.5628   -3.2959   30.0901 H   0  0  0  0  0  0
    2.6694    5.4147   31.4086 H   0  0  0  0  0  0
    4.9718    3.1739   28.6165 H   0  0  0  0  0  0
    2.9040    2.5229   27.4169 H   0  0  0  0  0  0
    0.7245    3.3578   28.2023 H   0  0  0  0  0  0
  1  2  1  0  0  0
  1  4  2  0  0  0
  1 22  1  0  0  0
  2  3  2  0  0  0
  2 29  1  0  0  0
  3  6  1  0  0  0
  3 30  1  0  0  0
  4  5  1  0  0  0
  5  9  1  0  0  0
  5  6  1  0  0  0
  6  7  2  0  0  0
  7  8  1  0  0  0
  8  9  2  0  0  0
  9 10  1  0  0  0
 10 11  1  0  0  0
 10 31  1  0  0  0
 10 32  1  0  0  0
 11 14  1  0  0  0
 11 16  2  0  0  0
 12 13  1  0  0  0
 12 15  2  0  0  0
 12 33  1  0  0  0
 13 14  2  0  0  0
 13 34  1  0  0  0
 14 35  1  0  0  0
 15 16  1  0  0  0
 15 20  1  0  0  0
 16 17  1  0  0  0
 17 18  2  0  0  0
 17 36  1  0  0  0
 18 19  1  0  0  0
 18 37  1  0  0  0
 19 20  1  0  0  0
 19 38  1  0  0  0
 20 21  2  0  0  0
 22 23  2  0  0  0
 22 27  1  0  0  0
 23 24  1  0  0  0
 23 39  1  0  0  0
 24 25  2  0  0  0
 24 28  1  0  0  0
 25 26  1  0  0  0
 25 40  1  0  0  0
 26 27  2  0  0  0
 26 41  1  0  0  0
 27 42  1  0  0  0
M  END
> <s_m_entry_id>
10034

> <s_m_entry_name>
dock_pv.103

> <s_m_Source_Path>
/home/csk/Desktop/cluster/DUD-E-result/met

> <s_m_Source_File>
dock_pv.maegz

> <i_m_Source_File_Index>
103

> <chembl_id>
CHEMBL1922415

> <chembl_pref_name>
None

> <i_lp_mmshare_version>
53161

> <i_f3d_flags>
0

> <r_lp_tautomer_probability>
1

> <s_lp_Force_Field>
OPLS_2005

> <r_lp_Energy>
29.31776

> <b_lp_Chiralities_Consistent>
1

> <s_lp_Variant>
CHEMBL3717_lig1100-1

> <s_i_glide_gridfile>
glide-grid_3lq8

> <i_i_glide_lignum>
1254

> <i_i_glide_rotatable_bonds>
3

> <r_i_docking_score>
-8.46778319559865

> <r_i_glide_ligand_efficiency>
-0.302420828414237

> <r_i_glide_ligand_efficiency_sa>
-0.918327751408157

> <r_i_glide_ligand_efficiency_ln>
-1.95461298646222

> <r_i_glide_gscore>
-8.46778319559865

> <r_i_glide_lipo>
-3.57263134915772

> <r_i_glide_hbond>
0

> <r_i_glide_metal>
0

> <r_i_glide_rewards>
-2.57734483906121

> <r_i_glide_evdw>
-44.6956939697266

> <r_i_glide_ecoul>
-2.93903923034668

> <r_i_glide_erotb>
0.388503200103541

> <r_i_glide_esite>
-0.0306696244449337

> <r_i_glide_emodel>
-66.7905841278635

> <r_i_glide_energy>
-47.6347332000732

> <r_i_glide_einternal>
4.99417924880981

> <i_i_glide_confnum>
7

> <i_i_glide_posenum>
37

> <r_i_glide_eff_state_penalty>
0

> <s_user_duplicate_titles>
CHEMBL3717_lig1100

> <s_m_subgroup_title>
dock_pv

> <s_m_subgroupid>
dock_pv

> <b_m_subgroup_collapsed>
1

$$$$
CHEMBL3717_lig3859
                    3D
 Schrodinger Suite 2021-1.
 50 52  0  0  1  0            999 V2000
   -4.9412    3.6143   30.5764 O   0  0  0  0  0  0
   -5.2257    1.3067   29.2614 O   0  0  0  0  0  0
   -3.5834    7.0560   30.6083 N   0  0  0  0  0  0
    4.5416    3.9177   29.4876 N   0  0  0  0  0  0
   -8.3978    2.4340   30.7435 N   0  0  0  0  0  0
   -1.7722    5.4494   30.6339 C   0  0  0  0  0  0
   -4.0799    4.6876   30.6031 C   0  0  0  0  0  0
   -2.7090    4.4078   30.6166 C   0  0  0  0  0  0
   -2.2654    6.7537   30.6079 C   0  0  0  0  0  0
   -4.4699    6.0336   30.6088 C   0  0  0  0  0  0
   -0.3140    5.2407   30.5913 C   0  0  0  0  0  0
    1.7621    4.0477   29.8751 C   0  0  0  0  0  0
    0.3061    4.2061   29.9892 C   0  0  0  0  0  0
   -6.3576    3.8068   30.6141 C   0  0  0  0  0  0
   -7.1127    2.5634   30.0689 C   0  0  1  0  0  0
   -3.6926   -0.3987   30.2071 C   0  0  0  0  0  0
    2.6423    4.4360   30.8923 C   0  0  0  0  0  0
    2.2917    3.5691   28.6718 C   0  0  0  0  0  0
   -6.3393    1.2262   30.1514 C   0  0  0  0  0  0
   -4.5119    0.0994   29.0153 C   0  0  0  0  0  0
    4.0164    4.3529   30.6587 C   0  0  0  0  0  0
    3.6774    3.5287   28.5175 C   0  0  0  0  0  0
   -3.2788   -1.7326   30.2211 C   0  0  0  0  0  0
   -3.3126    0.4534   31.2501 C   0  0  0  0  0  0
   -2.4963   -2.2109   31.2683 C   0  0  0  0  0  0
   -2.5432   -0.0308   32.3068 C   0  0  0  0  0  0
   -2.1311   -1.3599   32.3073 C   0  0  0  0  0  0
   -8.9690    3.2495   30.5690 H   0  0  0  0  0  0
   -8.9085    1.6415   30.3737 H   0  0  0  0  0  0
   -2.3795    3.3793   30.6004 H   0  0  0  0  0  0
   -1.5914    7.5995   30.5872 H   0  0  0  0  0  0
   -5.5050    6.3383   30.6068 H   0  0  0  0  0  0
    0.2865    6.0017   31.0705 H   0  0  0  0  0  0
   -0.2855    3.4266   29.5295 H   0  0  0  0  0  0
   -6.6341    4.0302   31.6470 H   0  0  0  0  0  0
   -6.6783    4.6618   30.0118 H   0  0  0  0  0  0
   -7.3248    2.7314   29.0128 H   0  0  0  0  0  0
    2.2731    4.8185   31.8305 H   0  0  0  0  0  0
    1.6429    3.2615   27.8622 H   0  0  0  0  0  0
   -6.0276    1.0230   31.1770 H   0  0  0  0  0  0
   -6.9908    0.4070   29.8441 H   0  0  0  0  0  0
   -5.1995   -0.6730   28.6673 H   0  0  0  0  0  0
   -3.8087    0.3105   28.2082 H   0  0  0  0  0  0
    4.7243    4.6655   31.4111 H   0  0  0  0  0  0
    4.1173    3.1638   27.6021 H   0  0  0  0  0  0
   -3.5552   -2.4032   29.4193 H   0  0  0  0  0  0
   -3.6121    1.4897   31.2452 H   0  0  0  0  0  0
   -2.1779   -3.2424   31.2698 H   0  0  0  0  0  0
   -2.2545    0.6260   33.1140 H   0  0  0  0  0  0
   -1.5244   -1.7357   33.1183 H   0  0  0  0  0  0
  1  7  1  0  0  0
  1 14  1  0  0  0
  2 19  1  0  0  0
  2 20  1  0  0  0
  3  9  2  0  0  0
  3 10  1  0  0  0
  4 21  2  0  0  0
  4 22  1  0  0  0
  5 15  1  0  0  0
  5 28  1  0  0  0
  5 29  1  0  0  0
  6  8  2  0  0  0
  6  9  1  0  0  0
  6 11  1  0  0  0
  7  8  1  0  0  0
  7 10  2  0  0  0
  8 30  1  0  0  0
  9 31  1  0  0  0
 10 32  1  0  0  0
 11 13  2  3  0  0
 11 33  1  0  0  0
 12 13  1  0  0  0
 12 17  2  0  0  0
 12 18  1  0  0  0
 13 34  1  0  0  0
 14 15  1  0  0  0
 14 35  1  0  0  0
 14 36  1  0  0  0
 15 19  1  0  0  0
 15 37  1  0  0  0
 16 20  1  0  0  0
 16 23  2  0  0  0
 16 24  1  0  0  0
 17 21  1  0  0  0
 17 38  1  0  0  0
 18 22  2  0  0  0
 18 39  1  0  0  0
 19 40  1  0  0  0
 19 41  1  0  0  0
 20 42  1  0  0  0
 20 43  1  0  0  0
 21 44  1  0  0  0
 22 45  1  0  0  0
 23 25  1  0  0  0
 23 46  1  0  0  0
 24 26  2  0  0  0
 24 47  1  0  0  0
 25 27  2  0  0  0
 25 48  1  0  0  0
 26 27  1  0  0  0
 26 49  1  0  0  0
 27 50  1  0  0  0
M  END
> <s_m_entry_id>
10035

> <s_m_entry_name>
dock_pv.104

> <s_m_Source_Path>
/home/csk/Desktop/cluster/DUD-E-result/met

> <s_m_Source_File>
dock_pv.maegz

> <i_m_Source_File_Index>
104

> <chembl_id>
CHEMBL1993781

> <chembl_pref_name>
None

> <i_lp_mmshare_version>
53161

> <i_f3d_flags>
0

> <r_lp_tautomer_probability>
1

> <s_lp_Force_Field>
OPLS_2005

> <r_lp_Energy>
27.9866

> <b_lp_Chiralities_Consistent>
1

> <s_lp_Variant>
CHEMBL3717_lig3859-3

> <s_i_glide_gridfile>
glide-grid_3lq8

> <i_i_glide_lignum>
4898

> <i_i_glide_rotatable_bonds>
9

> <r_i_docking_score>
-8.43717067850864

> <r_i_glide_ligand_efficiency>
-0.312487802907728

> <r_i_glide_ligand_efficiency_sa>
-0.937463407693274

> <r_i_glide_ligand_efficiency_ln>
-1.96403423632711

> <r_i_glide_gscore>
-8.43717067850864

> <r_i_glide_lipo>
-4.17165127156065

> <r_i_glide_hbond>
-0.32

> <r_i_glide_metal>
0

> <r_i_glide_rewards>
-2.59473747961233

> <r_i_glide_evdw>
-42.6443634033203

> <r_i_glide_ecoul>
-2.62508153915405

> <r_i_glide_erotb>
1.17519847370346

> <r_i_glide_esite>
0

> <r_i_glide_emodel>
-63.2175054837242

> <r_i_glide_energy>
-45.2694449424744

> <r_i_glide_einternal>
11.809718132019

> <i_i_glide_confnum>
5

> <i_i_glide_posenum>
201

> <r_i_glide_eff_state_penalty>
0

> <s_user_duplicate_titles>
CHEMBL3717_lig3859

> <s_m_subgroup_title>
dock_pv

> <s_m_subgroupid>
dock_pv

> <b_m_subgroup_collapsed>
1

$$$$
CHEMBL3717_lig853
                    3D
 Schrodinger Suite 2021-1.
 26 28  0  0  1  0            999 V2000
    5.4170    4.6367   30.6089 C   0  0  0  0  0  0
    5.8543    4.6062   29.2844 C   0  0  0  0  0  0
    5.0279    4.2906   28.2521 N   0  0  0  0  0  0
    3.7734    3.9572   28.5863 C   0  0  0  0  0  0
    3.3502    4.0253   29.9221 N   0  0  0  0  0  0
    4.1326    4.3568   30.9660 N   0  0  0  0  0  0
    2.0037    3.7309   29.8796 C   0  0  0  0  0  0
    1.6493    3.4306   28.6446 N   0  0  0  0  0  0
    2.7447    3.5579   27.8080 N   0  0  0  0  0  0
    1.0744    3.7734   31.0792 C   0  0  0  0  0  0
   -0.2039    4.5655   30.8168 C   0  0  0  0  0  0
   -0.1362    5.9025   30.4049 C   0  0  0  0  0  0
   -1.3085    6.6311   30.2079 C   0  0  0  0  0  0
   -2.5410    6.0289   30.4558 C   0  0  0  0  0  0
   -2.6157    4.6930   30.8379 C   0  0  0  0  0  0
   -1.4469    3.9577   31.0081 C   0  0  0  0  0  0
   -3.6901    6.7572   30.3225 O   0  0  0  0  0  0
    6.0942    4.9042   31.4070 H   0  0  0  0  0  0
    6.8833    4.8114   29.0278 H   0  0  0  0  0  0
    0.8363    2.7587   31.4009 H   0  0  0  0  0  0
    1.5642    4.2378   31.9349 H   0  0  0  0  0  0
    0.8210    6.3787   30.2482 H   0  0  0  0  0  0
   -1.2584    7.6665   29.9025 H   0  0  0  0  0  0
   -3.5726    4.2216   31.0079 H   0  0  0  0  0  0
   -1.5106    2.9234   31.3146 H   0  0  0  0  0  0
   -4.4901    6.2323   30.4091 H   0  0  0  0  0  0
  1  2  1  0  0  0
  1  6  2  0  0  0
  1 18  1  0  0  0
  2  3  2  0  0  0
  2 19  1  0  0  0
  3  4  1  0  0  0
  4  5  1  0  0  0
  4  9  2  0  0  0
  5  6  1  0  0  0
  5  7  1  0  0  0
  7  8  2  0  0  0
  7 10  1  0  0  0
  8  9  1  0  0  0
 10 11  1  0  0  0
 10 20  1  0  0  0
 10 21  1  0  0  0
 11 12  2  0  0  0
 11 16  1  0  0  0
 12 13  1  0  0  0
 12 22  1  0  0  0
 13 14  2  0  0  0
 13 23  1  0  0  0
 14 15  1  0  0  0
 14 17  1  0  0  0
 15 16  2  0  0  0
 15 24  1  0  0  0
 16 25  1  0  0  0
 17 26  1  0  0  0
M  END
> <s_m_entry_id>
10036

> <s_m_entry_name>
dock_pv.105

> <s_m_Source_Path>
/home/csk/Desktop/cluster/DUD-E-result/met

> <s_m_Source_File>
dock_pv.maegz

> <i_m_Source_File_Index>
105

> <chembl_id>
CHEMBL1822002

> <chembl_pref_name>
None

> <i_lp_mmshare_version>
53161

> <i_f3d_flags>
0

> <r_lp_tautomer_probability>
0.999999999997365

> <s_lp_Force_Field>
OPLS_2005

> <r_lp_Energy>
15.199796

> <b_lp_Chiralities_Consistent>
1

> <s_lp_Variant>
CHEMBL3717_lig853-1

> <s_i_glide_gridfile>
glide-grid_3lq8

> <i_i_glide_lignum>
921

> <i_i_glide_rotatable_bonds>
3

> <r_i_docking_score>
-8.43463711483856

> <r_i_glide_ligand_efficiency>
-0.496155124402268

> <r_i_glide_ligand_efficiency_sa>
-1.27575453628147

> <r_i_glide_ligand_efficiency_ln>
-2.20040899312774

> <r_i_glide_gscore>
-8.43463711483856

> <r_i_glide_lipo>
-2.51633852705502

> <r_i_glide_hbond>
-0.32

> <r_i_glide_metal>
0

> <r_i_glide_rewards>
-4.16373051432634

> <r_i_glide_evdw>
-33.5094337463379

> <r_i_glide_ecoul>
-2.78748726844788

> <r_i_glide_erotb>
0.659026704126881

> <r_i_glide_esite>
0

> <r_i_glide_emodel>
-53.2924343247625

> <r_i_glide_energy>
-36.2969210147858

> <r_i_glide_einternal>
0.639319717884064

> <i_i_glide_confnum>
1

> <i_i_glide_posenum>
271

> <r_i_glide_eff_state_penalty>
0

> <s_user_duplicate_titles>
CHEMBL3717_lig853

> <s_m_subgroup_title>
dock_pv

> <s_m_subgroupid>
dock_pv

> <b_m_subgroup_collapsed>
1

$$$$
CHEMBL3717_lig3847
                    3D
 Schrodinger Suite 2021-1.
 43 46  0  0  1  0            999 V2000
    4.0753    3.8666   29.8642 C   0  0  0  0  0  0
    3.9311    3.5570   28.5122 C   0  0  0  0  0  0
    2.6792    3.3816   27.9293 C   0  0  0  0  0  0
    1.5059    3.5727   28.6538 C   0  0  0  0  0  0
    2.9101    4.0518   30.6174 C   0  0  0  0  0  0
    1.6430    3.9369   29.9928 C   0  0  0  0  0  0
    0.7341    4.2756   30.9712 N   0  0  0  0  0  0
    1.4910    4.5230   32.0973 C   0  0  0  0  0  0
    2.7774    4.3570   31.9411 N   0  0  0  0  0  0
   -0.6276    4.4041   30.8697 C   0  0  0  0  0  0
   -1.5375    3.3616   30.9127 C   0  0  0  0  0  0
   -2.8692    3.7412   30.6905 C   0  0  0  0  0  0
   -2.9705    5.1327   30.6264 C   0  0  0  0  0  0
   -1.4057    5.9174   30.6080 S   0  0  0  0  0  0
   -4.1524    5.9405   30.6080 C   0  0  0  0  0  0
   -5.3176    5.2969   30.6080 N   0  0  0  0  0  0
   -4.0940    7.1570   30.6080 O   0  0  0  0  0  0
   -3.9703    2.9138   30.6080 O   0  0  0  0  0  0
   -3.7594    1.5740   30.1628 C   0  0  0  0  0  0
   -5.0830    0.8252   29.9738 C   0  0  0  0  0  0
   -6.2684    1.5570   29.8080 C   0  0  0  0  0  0
   -7.4840    0.9151   29.5883 C   0  0  0  0  0  0
   -7.5330   -0.4727   29.5276 C   0  0  0  0  0  0
   -6.3668   -1.2159   29.6882 C   0  0  0  0  0  0
   -5.1310   -0.5879   29.9109 C   0  0  0  0  0  0
   -3.8730   -1.4593   30.0645 C   0  0  0  0  0  0
   -2.9096   -1.0648   29.2332 F   0  0  0  0  0  0
   -3.4208   -1.3697   31.3160 F   0  0  0  0  0  0
   -4.1136   -2.7456   29.8080 F   0  0  0  0  0  0
    5.0530    3.9773   30.3081 H   0  0  0  0  0  0
    4.8104    3.4403   27.9003 H   0  0  0  0  0  0
    2.6127    3.1022   26.8887 H   0  0  0  0  0  0
    0.5338    3.4513   28.2080 H   0  0  0  0  0  0
    1.0129    4.8413   33.0080 H   0  0  0  0  0  0
   -1.2416    2.3570   31.0844 H   0  0  0  0  0  0
   -6.1722    5.8253   30.5125 H   0  0  0  0  0  0
   -5.3237    4.2870   30.6486 H   0  0  0  0  0  0
   -3.1345    1.0464   30.8832 H   0  0  0  0  0  0
   -3.2940    1.5802   29.1799 H   0  0  0  0  0  0
   -6.2590    2.6355   29.8319 H   0  0  0  0  0  0
   -8.3867    1.4940   29.4583 H   0  0  0  0  0  0
   -8.4732   -0.9749   29.3522 H   0  0  0  0  0  0
   -6.4354   -2.2928   29.6302 H   0  0  0  0  0  0
  1  5  1  0  0  0
  1  2  2  0  0  0
  1 30  1  0  0  0
  2  3  1  0  0  0
  2 31  1  0  0  0
  3  4  2  0  0  0
  3 32  1  0  0  0
  4  6  1  0  0  0
  4 33  1  0  0  0
  5  9  1  0  0  0
  5  6  2  0  0  0
  6  7  1  0  0  0
  7  8  1  0  0  0
  7 10  1  0  0  0
  8  9  2  0  0  0
  8 34  1  0  0  0
 10 14  1  0  0  0
 10 11  2  0  0  0
 11 12  1  0  0  0
 11 35  1  0  0  0
 12 18  1  0  0  0
 12 13  2  0  0  0
 13 14  1  0  0  0
 13 15  1  0  0  0
 15 16  1  0  0  0
 15 17  2  0  0  0
 16 36  1  0  0  0
 16 37  1  0  0  0
 18 19  1  0  0  0
 19 20  1  0  0  0
 19 38  1  0  0  0
 19 39  1  0  0  0
 20 21  2  0  0  0
 20 25  1  0  0  0
 21 22  1  0  0  0
 21 40  1  0  0  0
 22 23  2  0  0  0
 22 41  1  0  0  0
 23 24  1  0  0  0
 23 42  1  0  0  0
 24 25  2  0  0  0
 24 43  1  0  0  0
 25 26  1  0  0  0
 26 27  1  0  0  0
 26 28  1  0  0  0
 26 29  1  0  0  0
M  END
> <s_m_entry_id>
10037

> <s_m_entry_name>
dock_pv.106

> <s_m_Source_Path>
/home/csk/Desktop/cluster/DUD-E-result/met

> <s_m_Source_File>
dock_pv.maegz

> <i_m_Source_File_Index>
106

> <chembl_id>
CHEMBL481491

> <chembl_pref_name>
None

> <i_lp_mmshare_version>
53161

> <i_f3d_flags>
0

> <r_lp_tautomer_probability>
1

> <s_lp_Force_Field>
OPLS_2005

> <r_lp_Energy>
24.612256

> <b_lp_Chiralities_Consistent>
1

> <s_lp_Variant>
CHEMBL3717_lig3847-1

> <s_i_glide_gridfile>
glide-grid_3lq8

> <i_i_glide_lignum>
4874

> <i_i_glide_rotatable_bonds>
6

> <r_i_docking_score>
-8.43300185666924

> <r_i_glide_ligand_efficiency>
-0.290793167471353

> <r_i_glide_ligand_efficiency_sa>
-0.89340874021393

> <r_i_glide_ligand_efficiency_ln>
-1.930943582701

> <r_i_glide_gscore>
-8.43300185666924

> <r_i_glide_lipo>
-3.5956372299522

> <r_i_glide_hbond>
-0.32

> <r_i_glide_metal>
0

> <r_i_glide_rewards>
-2.2665064717273

> <r_i_glide_evdw>
-43.8956871032715

> <r_i_glide_ecoul>
-2.86283397674561

> <r_i_glide_erotb>
0.453771589847447

> <r_i_glide_esite>
-0.0804202931617691

> <r_i_glide_emodel>
-64.8780832847194

> <r_i_glide_energy>
-46.7585210800171

> <r_i_glide_einternal>
4.1690845489502

> <i_i_glide_confnum>
12

> <i_i_glide_posenum>
166

> <r_i_glide_eff_state_penalty>
0

> <s_user_duplicate_titles>
CHEMBL3717_lig3847

> <s_m_subgroup_title>
dock_pv

> <s_m_subgroupid>
dock_pv

> <b_m_subgroup_collapsed>
1

$$$$
CHEMBL3717_lig365
                    3D
 Schrodinger Suite 2021-1.
 35 37  0  0  1  0            999 V2000
   -5.4163    3.3309   30.5697 C   0  0  0  0  0  0
   -4.4062    2.3684   30.5624 C   0  0  0  0  0  0
   -3.0697    2.7570   30.6080 C   0  0  0  0  0  0
   -5.0893    4.6971   30.5931 C   0  0  0  0  0  0
   -3.7407    5.0868   30.5940 C   0  0  0  0  0  0
   -2.7384    4.1125   30.6424 C   0  0  0  0  0  0
   -1.3508    4.5414   30.6576 C   0  0  0  0  0  0
   -0.9997    5.8222   30.4407 C   0  0  0  0  0  0
   -2.1023    6.8407   30.1551 C   0  0  0  0  0  0
   -3.4249    6.4425   30.6080 O   0  0  0  0  0  0
    0.4389    6.3078   30.2967 C   0  0  0  0  0  0
    1.5060    5.2411   30.4757 C   0  0  0  0  0  0
    2.2061    4.7570   29.3695 C   0  0  0  0  0  0
    3.2078    3.8032   29.5273 C   0  0  0  0  0  0
    3.4804    3.2958   30.8051 C   0  0  0  0  0  0
    2.7534    3.7500   31.9059 C   0  0  0  0  0  0
    1.7801    4.7315   31.7465 C   0  0  0  0  0  0
    4.4555    2.3570   31.0080 O   0  0  0  0  0  0
   -6.7217    2.9081   30.5456 O   0  0  0  0  0  0
   -6.0886    5.6365   30.6080 O   0  0  0  0  0  0
    3.9060    3.3989   28.4166 O   0  0  0  0  0  0
   -4.6515    1.3164   30.5367 H   0  0  0  0  0  0
   -2.2977    2.0013   30.6153 H   0  0  0  0  0  0
   -0.5904    3.7884   30.8039 H   0  0  0  0  0  0
   -1.8516    7.7986   30.6080 H   0  0  0  0  0  0
   -2.0940    7.0265   29.0849 H   0  0  0  0  0  0
    0.6293    7.1073   31.0080 H   0  0  0  0  0  0
    0.5442    6.7703   29.3136 H   0  0  0  0  0  0
    1.9853    5.1336   28.3820 H   0  0  0  0  0  0
    2.9574    3.3544   32.8900 H   0  0  0  0  0  0
    1.2341    5.0891   32.6079 H   0  0  0  0  0  0
    4.7705    1.9570   30.1951 H   0  0  0  0  0  0
   -6.8085    1.9527   30.5597 H   0  0  0  0  0  0
   -5.8653    6.4255   30.1001 H   0  0  0  0  0  0
    4.8025    3.0955   28.5918 H   0  0  0  0  0  0
  1  2  2  0  0  0
  1  4  1  0  0  0
  1 19  1  0  0  0
  2  3  1  0  0  0
  2 22  1  0  0  0
  3  6  2  0  0  0
  3 23  1  0  0  0
  4  5  2  0  0  0
  4 20  1  0  0  0
  5  6  1  0  0  0
  5 10  1  0  0  0
  6  7  1  0  0  0
  7  8  2  0  0  0
  7 24  1  0  0  0
  8 11  1  0  0  0
  8  9  1  0  0  0
  9 10  1  0  0  0
  9 25  1  0  0  0
  9 26  1  0  0  0
 11 12  1  0  0  0
 11 27  1  0  0  0
 11 28  1  0  0  0
 12 13  2  0  0  0
 12 17  1  0  0  0
 13 14  1  0  0  0
 13 29  1  0  0  0
 14 15  2  0  0  0
 14 21  1  0  0  0
 15 16  1  0  0  0
 15 18  1  0  0  0
 16 17  2  0  0  0
 16 30  1  0  0  0
 17 31  1  0  0  0
 18 32  1  0  0  0
 19 33  1  0  0  0
 20 34  1  0  0  0
 21 35  1  0  0  0
M  END
> <s_m_entry_id>
10038

> <s_m_entry_name>
dock_pv.107

> <s_m_Source_Path>
/home/csk/Desktop/cluster/DUD-E-result/met

> <s_m_Source_File>
dock_pv.maegz

> <i_m_Source_File_Index>
107

> <chembl_id>
CHEMBL477560

> <chembl_pref_name>
HEMATOXYLENE

> <i_lp_mmshare_version>
53161

> <i_f3d_flags>
0

> <r_lp_tautomer_probability>
0.999999999999776

> <s_lp_Force_Field>
OPLS_2005

> <r_lp_Energy>
16.700786

> <b_lp_Chiralities_Consistent>
1

> <s_lp_Variant>
CHEMBL3717_lig365-1

> <s_i_glide_gridfile>
glide-grid_3lq8

> <i_i_glide_lignum>
384

> <i_i_glide_rotatable_bonds>
6

> <r_i_docking_score>
-8.42165128178135

> <r_i_glide_ligand_efficiency>
-0.401031013418159

> <r_i_glide_ligand_efficiency_sa>
-1.10641415727515

> <r_i_glide_ligand_efficiency_ln>
-2.08223626187168

> <r_i_glide_gscore>
-8.42165128178135

> <r_i_glide_lipo>
-4.24305321725043

> <r_i_glide_hbond>
-0.013306344221958

> <r_i_glide_metal>
0

> <r_i_glide_rewards>
-2.30712393806687

> <r_i_glide_evdw>
-30.6800899505615

> <r_i_glide_ecoul>
-5.11510753631592

> <r_i_glide_erotb>
0.443102845733379

> <r_i_glide_esite>
0

> <r_i_glide_emodel>
-50.6412947124259

> <r_i_glide_energy>
-35.7951974868774

> <r_i_glide_einternal>
4.65341234207153

> <i_i_glide_confnum>
1

> <i_i_glide_posenum>
177

> <r_i_glide_eff_state_penalty>
0

> <s_user_duplicate_titles>
CHEMBL3717_lig365,490108

> <s_m_subgroup_title>
dock_pv

> <s_m_subgroupid>
dock_pv

> <b_m_subgroup_collapsed>
1

$$$$
CHEMBL3717_lig2874
                    3D
 Schrodinger Suite 2021-1.
 53 58  0  0  1  0            999 V2000
   -3.9791   -2.2765   30.3972 C   0  0  0  0  0  0
   -3.8085   -1.1941   31.2753 C   0  0  0  0  0  0
   -4.6853   -0.1502   31.3116 N   0  0  0  0  0  0
   -5.0040   -2.3371   29.4989 N   0  0  0  0  0  0
   -5.8241   -1.2782   29.4871 C   0  0  0  0  0  0
   -5.6437   -0.1949   30.3786 C   0  0  0  0  0  0
   -6.6229    0.7301   30.0343 N   0  0  0  0  0  0
   -7.3741    0.2208   29.0295 N   0  0  0  0  0  0
   -6.8945   -1.0267   28.6854 N   0  0  0  0  0  0
   -6.9885    2.0325   30.6194 C   0  0  1  0  0  0
   -7.5002    1.8089   32.0571 C   0  0  0  0  0  0
   -5.9471    3.1648   30.5532 C   0  0  0  0  0  0
   -6.3989    4.4853   30.6061 C   0  0  0  0  0  0
   -5.5085    5.5569   30.6085 C   0  0  0  0  0  0
   -4.5681    2.9303   30.4923 C   0  0  0  0  0  0
   -3.6415    3.9910   30.5761 C   0  0  0  0  0  0
   -4.1144    5.3335   30.6024 C   0  0  0  0  0  0
   -3.2595    6.3958   30.6119 N   0  0  0  0  0  0
   -1.9251    6.1444   30.6078 C   0  0  0  0  0  0
   -1.3766    4.8627   30.6085 C   0  0  0  0  0  0
   -2.2454    3.7725   30.6081 C   0  0  0  0  0  0
    0.0873    4.6249   30.5623 C   0  0  0  0  0  0
    0.7698    3.7537   29.7285 C   0  0  0  0  0  0
    2.0935    3.8618   30.0542 N   0  0  0  0  0  0
    2.3056    4.7569   31.0250 N   0  0  0  0  0  0
    1.1074    5.2116   31.3233 C   0  0  0  0  0  0
    3.2204    3.1757   29.4482 C   0  0  0  0  0  0
   -2.6726   -1.0862   32.2317 C   0  0  0  0  0  0
   -1.8336   -2.0818   32.7076 C   0  0  0  0  0  0
   -1.0564   -1.5151   33.6865 N   0  0  0  0  0  0
   -1.2921   -0.2084   33.8079 N   0  0  0  0  0  0
   -2.1940    0.0558   32.8983 C   0  0  0  0  0  0
   -0.1286   -2.1603   34.6080 C   0  0  0  0  0  0
   -3.2928   -3.1122   30.3887 H   0  0  0  0  0  0
   -7.8450    2.3969   30.0438 H   0  0  0  0  0  0
   -7.9445    2.7157   32.4674 H   0  0  0  0  0  0
   -8.2610    1.0286   32.0962 H   0  0  0  0  0  0
   -6.6937    1.5115   32.7251 H   0  0  0  0  0  0
   -7.4592    4.6939   30.6313 H   0  0  0  0  0  0
   -5.8799    6.5723   30.6084 H   0  0  0  0  0  0
   -4.1543    1.9469   30.3944 H   0  0  0  0  0  0
   -1.2809    7.0124   30.5926 H   0  0  0  0  0  0
   -1.8650    2.7610   30.5923 H   0  0  0  0  0  0
    0.4429    3.0860   28.9445 H   0  0  0  0  0  0
    0.9735    5.9579   32.0922 H   0  0  0  0  0  0
    2.8600    2.3729   28.8037 H   0  0  0  0  0  0
    3.7993    3.8834   28.8527 H   0  0  0  0  0  0
    3.8539    2.7575   30.2310 H   0  0  0  0  0  0
   -1.7838   -3.1352   32.4854 H   0  0  0  0  0  0
   -2.5332    1.0687   32.7513 H   0  0  0  0  0  0
    0.0051   -3.2060   34.3312 H   0  0  0  0  0  0
   -0.4953   -2.1075   35.6284 H   0  0  0  0  0  0
    0.8268   -1.6417   34.6080 H   0  0  0  0  0  0
  1  2  2  0  0  0
  1  4  1  0  0  0
  1 34  1  0  0  0
  2  3  1  0  0  0
  2 28  1  0  0  0
  3  6  2  0  0  0
  4  5  2  0  0  0
  5  6  1  0  0  0
  5  9  1  0  0  0
  6  7  1  0  0  0
  7  8  1  0  0  0
  7 10  1  0  0  0
  8  9  2  0  0  0
 10 11  1  0  0  0
 10 12  1  0  0  0
 10 35  1  0  0  0
 11 36  1  0  0  0
 11 37  1  0  0  0
 11 38  1  0  0  0
 12 13  2  0  0  0
 12 15  1  0  0  0
 13 14  1  0  0  0
 13 39  1  0  0  0
 14 17  2  0  0  0
 14 40  1  0  0  0
 15 16  2  0  0  0
 15 41  1  0  0  0
 16 17  1  0  0  0
 16 21  1  0  0  0
 17 18  1  0  0  0
 18 19  2  0  0  0
 19 20  1  0  0  0
 19 42  1  0  0  0
 20 21  2  0  0  0
 20 22  1  0  0  0
 21 43  1  0  0  0
 22 23  2  0  0  0
 22 26  1  0  0  0
 23 24  1  0  0  0
 23 44  1  0  0  0
 24 25  1  0  0  0
 24 27  1  0  0  0
 25 26  2  0  0  0
 26 45  1  0  0  0
 27 46  1  0  0  0
 27 47  1  0  0  0
 27 48  1  0  0  0
 28 29  2  0  0  0
 28 32  1  0  0  0
 29 30  1  0  0  0
 29 49  1  0  0  0
 30 31  1  0  0  0
 30 33  1  0  0  0
 31 32  2  0  0  0
 32 50  1  0  0  0
 33 51  1  0  0  0
 33 52  1  0  0  0
 33 53  1  0  0  0
M  END
> <s_m_entry_id>
10039

> <s_m_entry_name>
dock_pv.108

> <s_m_Source_Path>
/home/csk/Desktop/cluster/DUD-E-result/met

> <s_m_Source_File>
dock_pv.maegz

> <i_m_Source_File_Index>
108

> <chembl_id>
CHEMBL4073110

> <chembl_pref_name>
None

> <i_lp_mmshare_version>
53161

> <i_f3d_flags>
0

> <r_lp_tautomer_probability>
1

> <s_lp_Force_Field>
OPLS_2005

> <r_lp_Energy>
28.7182

> <b_lp_Chiralities_Consistent>
1

> <s_lp_Variant>
CHEMBL3717_lig2874-2

> <s_i_glide_gridfile>
glide-grid_3lq8

> <i_i_glide_lignum>
3521

> <i_i_glide_rotatable_bonds>
4

> <r_i_docking_score>
-8.42000953292361

> <r_i_glide_ligand_efficiency>
-0.255151804027988

> <r_i_glide_ligand_efficiency_sa>
-0.818408169826283

> <r_i_glide_ligand_efficiency_ln>
-1.87256652364608

> <r_i_glide_gscore>
-8.42000953292361

> <r_i_glide_lipo>
-3.64203646111663

> <r_i_glide_hbond>
0

> <r_i_glide_metal>
0

> <r_i_glide_rewards>
-2.37045609411812

> <r_i_glide_evdw>
-48.8398590087891

> <r_i_glide_ecoul>
-2.17712569236755

> <r_i_glide_erotb>
0.418526351694319

> <r_i_glide_esite>
-0.0574815250885979

> <r_i_glide_emodel>
-67.611922036744

> <r_i_glide_energy>
-51.0169847011566

> <r_i_glide_einternal>
7.45059204101562

> <i_i_glide_confnum>
2

> <i_i_glide_posenum>
7

> <r_i_glide_eff_state_penalty>
0

> <s_user_duplicate_titles>
CHEMBL3717_lig2874

> <s_m_subgroup_title>
dock_pv

> <s_m_subgroupid>
dock_pv

> <b_m_subgroup_collapsed>
1

$$$$
CHEMBL3717_lig3982
                    3D
 Schrodinger Suite 2021-1.
 26 28  0  0  1  0            999 V2000
   -2.4940    2.1631   30.9527 Cl  0  0  0  0  0  0
   -4.4100    5.9570   30.6080 S   0  0  0  0  0  0
    5.7086    3.5570   29.8080 O   0  0  0  0  0  0
   -2.0940    7.3103   30.2080 N   0  0  0  0  0  0
    0.2286    3.8341   30.5559 N   0  0  0  0  0  0
    0.0429    6.1775   30.3092 N   0  0  0  0  0  0
   -1.9864    4.8948   30.6080 C   0  0  0  0  0  0
   -2.6762    6.1355   30.4551 C   0  0  0  0  0  0
   -0.5725    4.9843   30.5402 C   0  0  0  0  0  0
   -2.9168    3.8093   30.7184 C   0  0  0  0  0  0
   -4.2257    4.2284   30.6080 C   0  0  0  0  0  0
    1.6105    3.7757   30.3489 C   0  0  0  0  0  0
   -0.7435    7.2614   30.1378 C   0  0  0  0  0  0
    2.1149    3.1981   29.1821 C   0  0  0  0  0  0
    2.4732    4.3193   31.2984 C   0  0  0  0  0  0
    4.3521    3.6688   29.9421 C   0  0  0  0  0  0
    3.4921    3.1570   28.9720 C   0  0  0  0  0  0
    3.8449    4.2733   31.0832 C   0  0  0  0  0  0
    5.9650    2.9594   29.0877 H   0  0  0  0  0  0
   -0.2551    2.9491   30.6154 H   0  0  0  0  0  0
   -5.1076    3.6050   30.6486 H   0  0  0  0  0  0
   -0.2378    8.1974   29.9440 H   0  0  0  0  0  0
    1.4441    2.7845   28.4421 H   0  0  0  0  0  0
    2.0803    4.7750   32.1952 H   0  0  0  0  0  0
    3.8843    2.7011   28.0754 H   0  0  0  0  0  0
    4.5220    4.6856   31.8122 H   0  0  0  0  0  0
  1 10  1  0  0  0
  2  8  1  0  0  0
  2 11  1  0  0  0
  3 16  1  0  0  0
  3 19  1  0  0  0
  4  8  1  0  0  0
  4 13  2  0  0  0
  5  9  1  0  0  0
  5 12  1  0  0  0
  5 20  1  0  0  0
  6  9  2  0  0  0
  6 13  1  0  0  0
  7  8  2  0  0  0
  7  9  1  0  0  0
  7 10  1  0  0  0
 10 11  2  0  0  0
 11 21  1  0  0  0
 12 14  2  0  0  0
 12 15  1  0  0  0
 13 22  1  0  0  0
 14 17  1  0  0  0
 14 23  1  0  0  0
 15 18  2  0  0  0
 15 24  1  0  0  0
 16 17  2  0  0  0
 16 18  1  0  0  0
 17 25  1  0  0  0
 18 26  1  0  0  0
M  END
> <s_m_entry_id>
10040

> <s_m_entry_name>
dock_pv.109

> <s_m_Source_Path>
/home/csk/Desktop/cluster/DUD-E-result/met

> <s_m_Source_File>
dock_pv.maegz

> <i_m_Source_File_Index>
109

> <chembl_id>
CHEMBL2006580

> <chembl_pref_name>
None

> <i_lp_mmshare_version>
53161

> <i_f3d_flags>
0

> <r_lp_tautomer_probability>
1

> <s_lp_Force_Field>
OPLS_2005

> <r_lp_Energy>
13.245031

> <b_lp_Chiralities_Consistent>
1

> <s_lp_Variant>
CHEMBL3717_lig3982-1

> <s_i_glide_gridfile>
glide-grid_3lq8

> <i_i_glide_lignum>
5068

> <i_i_glide_rotatable_bonds>
3

> <r_i_docking_score>
-8.40899516922591

> <r_i_glide_ligand_efficiency>
-0.467166398290328

> <r_i_glide_ligand_efficiency_sa>
-1.22432231680336

> <r_i_glide_ligand_efficiency_ln>
-2.16148884798951

> <r_i_glide_gscore>
-8.40899516922591

> <r_i_glide_lipo>
-3.16417705962182

> <r_i_glide_hbond>
-0.467053288617249

> <r_i_glide_metal>
0

> <r_i_glide_rewards>
-2.59062715998776

> <r_i_glide_evdw>
-30.8396453857422

> <r_i_glide_ecoul>
-7.41490411758423

> <r_i_glide_erotb>
0.467080225925661

> <r_i_glide_esite>
0

> <r_i_glide_emodel>
-53.5272696009003

> <r_i_glide_energy>
-38.2545495033264

> <r_i_glide_einternal>
3.34173893928528

> <i_i_glide_confnum>
1

> <i_i_glide_posenum>
269

> <r_i_glide_eff_state_penalty>
0

> <s_user_duplicate_titles>
CHEMBL3717_lig3982

> <s_m_subgroup_title>
dock_pv

> <s_m_subgroupid>
dock_pv

> <b_m_subgroup_collapsed>
1

$$$$
CHEMBL3717_lig401
                    3D
 Schrodinger Suite 2021-1.
 37 38  0  0  1  0            999 V2000
    4.2132    4.2792   29.0106 C   0  0  2  0  0  0
    5.4606    4.3570   28.2159 N   0  0  0  0  0  0
    4.5411    3.8865   30.4686 C   0  0  0  0  0  0
    5.5060    2.9226   30.5731 O   0  0  0  0  0  0
    3.9060    4.3570   31.4080 O   0  0  0  0  0  0
   -4.1907    1.7765   30.5772 C   0  0  0  0  0  0
   -5.4873    2.3023   30.5544 C   0  0  0  0  0  0
   -5.6844    3.6866   30.5736 C   0  0  0  0  0  0
   -3.0851    2.6310   30.6080 C   0  0  0  0  0  0
   -3.2850    4.0132   30.6080 C   0  0  0  0  0  0
   -4.5668    4.5198   30.6025 C   0  0  0  0  0  0
   -4.4922    5.8911   30.6080 N   0  0  0  0  0  0
   -3.2261    6.3370   30.6166 C   0  0  0  0  0  0
   -2.3793    5.1596   30.5950 C   0  0  0  0  0  0
   -2.8940    7.5186   30.6080 O   0  0  0  0  0  0
   -1.0366    5.2690   30.4990 C   0  0  0  0  0  0
   -0.1236    4.2598   30.3006 N   0  0  0  0  0  0
    1.0413    4.4510   29.4479 C   0  0  0  0  0  0
    1.8355    3.1570   29.1943 C   0  0  0  0  0  0
    3.1427    3.3494   28.3818 C   0  0  0  0  0  0
   -3.9262   -0.1073   30.5714 Br  0  0  0  0  0  0
    3.7896    5.2820   29.0592 H   0  0  0  0  0  0
    6.1828    4.9169   28.6525 H   0  0  0  0  0  0
    5.8565    3.4460   27.9876 H   0  0  0  0  0  0
    5.8236    2.6612   29.7014 H   0  0  0  0  0  0
   -6.3373    1.6360   30.5303 H   0  0  0  0  0  0
   -6.6868    4.0888   30.5582 H   0  0  0  0  0  0
   -2.0940    2.2079   30.6219 H   0  0  0  0  0  0
   -5.2889    6.5074   30.5386 H   0  0  0  0  0  0
   -0.5521    6.2379   30.5286 H   0  0  0  0  0  0
   -0.5133    3.3357   30.1854 H   0  0  0  0  0  0
    1.6745    5.2242   29.8849 H   0  0  0  0  0  0
    0.7306    4.8564   28.4835 H   0  0  0  0  0  0
    1.1962    2.4603   28.6510 H   0  0  0  0  0  0
    2.0496    2.6585   30.1408 H   0  0  0  0  0  0
    2.8754    3.7421   27.4010 H   0  0  0  0  0  0
    3.5759    2.3675   28.1860 H   0  0  0  0  0  0
  1  2  1  0  0  0
  1  3  1  0  0  0
  1 20  1  0  0  0
  1 22  1  0  0  0
  2 23  1  0  0  0
  2 24  1  0  0  0
  3  4  1  0  0  0
  3  5  2  0  0  0
  4 25  1  0  0  0
  6  7  2  0  0  0
  6  9  1  0  0  0
  6 21  1  0  0  0
  7  8  1  0  0  0
  7 26  1  0  0  0
  8 11  2  0  0  0
  8 27  1  0  0  0
  9 10  2  0  0  0
  9 28  1  0  0  0
 10 14  1  0  0  0
 10 11  1  0  0  0
 11 12  1  0  0  0
 12 13  1  0  0  0
 12 29  1  0  0  0
 13 14  1  0  0  0
 13 15  2  0  0  0
 14 16  2  0  0  0
 16 17  1  0  0  0
 16 30  1  0  0  0
 17 18  1  0  0  0
 17 31  1  0  0  0
 18 19  1  0  0  0
 18 32  1  0  0  0
 18 33  1  0  0  0
 19 20  1  0  0  0
 19 34  1  0  0  0
 19 35  1  0  0  0
 20 36  1  0  0  0
 20 37  1  0  0  0
M  END
> <s_m_entry_id>
10041

> <s_m_entry_name>
dock_pv.110

> <s_m_Source_Path>
/home/csk/Desktop/cluster/DUD-E-result/met

> <s_m_Source_File>
dock_pv.maegz

> <i_m_Source_File_Index>
110

> <chembl_id>
CHEMBL503236

> <chembl_pref_name>
None

> <i_lp_mmshare_version>
53161

> <i_f3d_flags>
0

> <r_lp_tautomer_probability>
0.499999999999422

> <s_lp_Force_Field>
OPLS_2005

> <r_lp_Energy>
27.155329

> <b_lp_Chiralities_Consistent>
1

> <s_lp_Variant>
CHEMBL3717_lig401-2

> <s_i_glide_gridfile>
glide-grid_3lq8

> <i_i_glide_lignum>
424

> <i_i_glide_rotatable_bonds>
7

> <r_i_docking_score>
-8.40552156955483

> <r_i_glide_ligand_efficiency>
-0.400262931883563

> <r_i_glide_ligand_efficiency_sa>
-1.10429507856207

> <r_i_glide_ligand_efficiency_ln>
-2.07824822311682

> <r_i_glide_gscore>
-8.40552156955483

> <r_i_glide_lipo>
-2.60310308794178

> <r_i_glide_hbond>
-0.584671911861518

> <r_i_glide_metal>
0

> <r_i_glide_rewards>
-2.43862812028242

> <r_i_glide_evdw>
-34.1187934875488

> <r_i_glide_ecoul>
-13.2461376190186

> <r_i_glide_erotb>
0.913741867761115

> <r_i_glide_esite>
0

> <r_i_glide_emodel>
-67.4328330015311

> <r_i_glide_energy>
-47.3649311065674

> <r_i_glide_einternal>
8.12101173400879

> <i_i_glide_confnum>
97

> <i_i_glide_posenum>
312

> <r_i_glide_eff_state_penalty>
0

> <s_user_duplicate_titles>
CHEMBL3717_lig401,CHEMBL3717_lig401

> <s_m_subgroup_title>
dock_pv

> <s_m_subgroupid>
dock_pv

> <b_m_subgroup_collapsed>
1

$$$$
CHEMBL3717_lig1091
                    3D
 Schrodinger Suite 2021-1.
 46 50  0  0  1  0            999 V2000
    0.8155    4.9787   30.3285 C   0  0  0  0  0  0
    0.6743    6.3415   30.0396 C   0  0  0  0  0  0
   -0.5890    6.9412   30.0874 C   0  0  0  0  0  0
   -0.2356    4.1637   30.6063 N   0  0  0  0  0  0
   -1.4352    4.7690   30.6215 N   0  0  0  0  0  0
   -1.6862    6.1319   30.4236 C   0  0  0  0  0  0
   -3.0035    6.3733   30.6063 N   0  0  0  0  0  0
   -3.5864    5.1449   30.8868 N   0  0  0  0  0  0
   -2.6715    4.1896   30.8163 C   0  0  0  0  0  0
   -2.8230    2.6730   31.0208 C   0  0  0  0  0  0
   -4.0933    1.8984   30.6076 C   0  0  0  0  0  0
   -6.3765    0.4498   29.7897 C   0  0  0  0  0  0
   -6.3921    1.8411   29.8072 C   0  0  0  0  0  0
   -5.2627    2.5549   30.1981 C   0  0  0  0  0  0
   -5.2367   -0.2393   30.2059 C   0  0  0  0  0  0
   -4.1049    0.4841   30.6552 C   0  0  0  0  0  0
   -2.9658   -0.3250   31.1446 C   0  0  0  0  0  0
   -3.0343   -1.6658   31.0636 C   0  0  0  0  0  0
   -4.1022   -2.3613   30.5777 N   0  0  0  0  0  0
   -5.2570   -1.7726   30.1690 C   0  0  0  0  0  0
   -6.2117   -2.4649   29.8137 O   0  0  0  0  0  0
    2.1459    4.3075   30.4094 C   0  0  0  0  0  0
    2.4541    3.1010   31.0641 C   0  0  0  0  0  0
    3.7214    2.7767   31.0077 N   0  0  0  0  0  0
    4.2809    3.7429   30.2710 N   0  0  0  0  0  0
    3.3740    4.7003   29.8924 C   0  0  0  0  0  0
    5.7202    3.7227   30.0380 C   0  0  0  0  0  0
    6.4333    4.7629   30.9197 C   0  0  0  0  0  0
    7.8152    4.4727   31.0071 O   0  0  0  0  0  0
    1.5378    6.9447   29.8109 H   0  0  0  0  0  0
   -0.7150    7.9966   29.8933 H   0  0  0  0  0  0
   -2.0383    2.2020   30.4379 H   0  0  0  0  0  0
   -2.5559    2.4063   32.0444 H   0  0  0  0  0  0
   -7.2568   -0.0818   29.4545 H   0  0  0  0  0  0
   -7.2804    2.3717   29.4964 H   0  0  0  0  0  0
   -5.3326    3.6275   30.1645 H   0  0  0  0  0  0
   -2.0946    0.1308   31.5849 H   0  0  0  0  0  0
   -2.2535   -2.3291   31.4108 H   0  0  0  0  0  0
   -4.0986   -3.3737   30.5526 H   0  0  0  0  0  0
    1.7488    2.4795   31.5953 H   0  0  0  0  0  0
    3.6818    5.5573   29.3154 H   0  0  0  0  0  0
    5.8716    3.9553   28.9833 H   0  0  0  0  0  0
    6.0943    2.7117   30.2078 H   0  0  0  0  0  0
    6.0321    4.7532   31.9325 H   0  0  0  0  0  0
    6.2458    5.7723   30.5591 H   0  0  0  0  0  0
    8.2528    4.8088   30.2174 H   0  0  0  0  0  0
  1  2  1  0  0  0
  1  4  2  0  0  0
  1 22  1  0  0  0
  2  3  2  0  0  0
  2 30  1  0  0  0
  3  6  1  0  0  0
  3 31  1  0  0  0
  4  5  1  0  0  0
  5  9  1  0  0  0
  5  6  1  0  0  0
  6  7  2  0  0  0
  7  8  1  0  0  0
  8  9  2  0  0  0
  9 10  1  0  0  0
 10 11  1  0  0  0
 10 32  1  0  0  0
 10 33  1  0  0  0
 11 14  1  0  0  0
 11 16  2  0  0  0
 12 15  2  0  0  0
 12 13  1  0  0  0
 12 34  1  0  0  0
 13 14  2  0  0  0
 13 35  1  0  0  0
 14 36  1  0  0  0
 15 16  1  0  0  0
 15 20  1  0  0  0
 16 17  1  0  0  0
 17 18  2  0  0  0
 17 37  1  0  0  0
 18 19  1  0  0  0
 18 38  1  0  0  0
 19 20  1  0  0  0
 19 39  1  0  0  0
 20 21  2  0  0  0
 22 23  1  0  0  0
 22 26  2  0  0  0
 23 24  2  0  0  0
 23 40  1  0  0  0
 24 25  1  0  0  0
 25 26  1  0  0  0
 25 27  1  0  0  0
 26 41  1  0  0  0
 27 28  1  0  0  0
 27 42  1  0  0  0
 27 43  1  0  0  0
 28 29  1  0  0  0
 28 44  1  0  0  0
 28 45  1  0  0  0
 29 46  1  0  0  0
M  END
> <s_m_entry_id>
10042

> <s_m_entry_name>
dock_pv.111

> <s_m_Source_Path>
/home/csk/Desktop/cluster/DUD-E-result/met

> <s_m_Source_File>
dock_pv.maegz

> <i_m_Source_File_Index>
111

> <chembl_id>
CHEMBL1922406

> <chembl_pref_name>
None

> <i_lp_mmshare_version>
53161

> <i_f3d_flags>
0

> <r_lp_tautomer_probability>
1

> <s_lp_Force_Field>
OPLS_2005

> <r_lp_Energy>
26.704237

> <b_lp_Chiralities_Consistent>
1

> <s_lp_Variant>
CHEMBL3717_lig1091-1

> <s_i_glide_gridfile>
glide-grid_3lq8

> <i_i_glide_lignum>
1245

> <i_i_glide_rotatable_bonds>
6

> <r_i_docking_score>
-8.40073517987294

> <r_i_glide_ligand_efficiency>
-0.289680523443894

> <r_i_glide_ligand_efficiency_sa>
-0.889990345251206

> <r_i_glide_ligand_efficiency_ln>
-1.92355533192698

> <r_i_glide_gscore>
-8.40073517987294

> <r_i_glide_lipo>
-3.17991047481946

> <r_i_glide_hbond>
-0.0551192957957838

> <r_i_glide_metal>
0

> <r_i_glide_rewards>
-2.61993286480662

> <r_i_glide_evdw>
-48.6306381225586

> <r_i_glide_ecoul>
-4.78575658798218

> <r_i_glide_erotb>
0.648786272038994

> <r_i_glide_esite>
-0.0451634221648058

> <r_i_glide_emodel>
-73.9490951773096

> <r_i_glide_energy>
-53.4163947105408

> <r_i_glide_einternal>
9.51695919036865

> <i_i_glide_confnum>
4

> <i_i_glide_posenum>
91

> <r_i_glide_eff_state_penalty>
0

> <s_user_duplicate_titles>
CHEMBL3717_lig1091

> <s_m_subgroup_title>
dock_pv

> <s_m_subgroupid>
dock_pv

> <b_m_subgroup_collapsed>
1

$$$$
CHEMBL3717_lig2114
                    3D
 Schrodinger Suite 2021-1.
 44 48  0  0  1  0            999 V2000
    1.0463    3.9571   31.1569 C   0  0  0  0  0  0
   -0.0953    4.8043   30.8422 C   0  0  0  0  0  0
   -1.4026    4.3091   30.9365 C   0  0  0  0  0  0
   -2.5067    5.1152   30.6081 C   0  0  0  0  0  0
   -2.2639    6.4387   30.2148 C   0  0  0  0  0  0
   -0.9656    6.9382   30.1240 C   0  0  0  0  0  0
    0.1192    6.1205   30.4294 C   0  0  0  0  0  0
    1.9559    3.2864   31.4072 N   0  0  0  0  0  0
   -6.5215    3.5136   30.6077 C   0  0  0  0  0  0
   -6.2838    4.8209   31.0553 C   0  0  0  0  0  0
   -4.9886    5.3410   31.0093 C   0  0  0  0  0  0
   -3.8963    4.5679   30.6056 C   0  0  0  0  0  0
   -4.1473    3.2620   30.1757 C   0  0  0  0  0  0
   -5.4273    2.7620   30.1546 N   0  0  0  0  0  0
   -7.6750    2.8028   30.5353 N   0  0  0  0  0  0
   -7.3147    1.6524   30.0145 C   0  0  0  0  0  0
   -5.9529    1.5543   29.7350 C   0  0  0  0  0  0
   -5.1448    0.4468   29.0702 C   0  0  0  0  0  0
   -1.3361   -2.4430   32.1858 N   0  0  0  0  0  0
   -0.8940   -1.9155   33.3517 C   0  0  0  0  0  0
   -1.2492   -0.6530   33.8081 C   0  0  0  0  0  0
   -2.1529    0.0957   33.0695 C   0  0  0  0  0  0
   -2.7069   -0.4584   31.8974 C   0  0  0  0  0  0
   -3.6908    0.2111   31.1557 C   0  0  0  0  0  0
   -4.1625   -0.3171   29.9537 C   0  0  0  0  0  0
   -3.6904   -1.5584   29.5231 C   0  0  0  0  0  0
   -2.7518   -2.2733   30.2616 C   0  0  0  0  0  0
   -2.2442   -1.7339   31.4635 C   0  0  0  0  0  0
   -7.2946    5.5568   31.5570 F   0  0  0  0  0  0
   -1.5659    3.2855   31.2464 H   0  0  0  0  0  0
   -3.0862    7.0843   29.9494 H   0  0  0  0  0  0
   -0.7995    7.9579   29.8071 H   0  0  0  0  0  0
    1.1207    6.5221   30.3465 H   0  0  0  0  0  0
   -4.8341    6.3531   31.3536 H   0  0  0  0  0  0
   -3.3754    2.6024   29.8082 H   0  0  0  0  0  0
   -8.0470    0.8818   29.8165 H   0  0  0  0  0  0
   -5.8297   -0.2816   28.6315 H   0  0  0  0  0  0
   -4.5809    0.8428   28.2239 H   0  0  0  0  0  0
   -0.2056   -2.5273   33.9164 H   0  0  0  0  0  0
   -0.8847   -0.2768   34.7509 H   0  0  0  0  0  0
   -2.4888    1.0593   33.4216 H   0  0  0  0  0  0
   -4.0522    1.1417   31.5520 H   0  0  0  0  0  0
   -4.0643   -1.9873   28.6076 H   0  0  0  0  0  0
   -2.4144   -3.2429   29.9225 H   0  0  0  0  0  0
  1  2  1  0  0  0
  1  8  3  0  0  0
  2  3  1  0  0  0
  2  7  2  0  0  0
  3  4  2  0  0  0
  3 30  1  0  0  0
  4  5  1  0  0  0
  4 12  1  0  0  0
  5  6  2  0  0  0
  5 31  1  0  0  0
  6  7  1  0  0  0
  6 32  1  0  0  0
  7 33  1  0  0  0
  9 10  1  0  0  0
  9 14  1  0  0  0
  9 15  2  0  0  0
 10 11  2  0  0  0
 10 29  1  0  0  0
 11 12  1  0  0  0
 11 34  1  0  0  0
 12 13  2  0  0  0
 13 14  1  0  0  0
 13 35  1  0  0  0
 14 17  1  0  0  0
 15 16  1  0  0  0
 16 17  2  0  0  0
 16 36  1  0  0  0
 17 18  1  0  0  0
 18 25  1  0  0  0
 18 37  1  0  0  0
 18 38  1  0  0  0
 19 20  2  0  0  0
 19 28  1  0  0  0
 20 21  1  0  0  0
 20 39  1  0  0  0
 21 22  2  0  0  0
 21 40  1  0  0  0
 22 23  1  0  0  0
 22 41  1  0  0  0
 23 24  2  0  0  0
 23 28  1  0  0  0
 24 25  1  0  0  0
 24 42  1  0  0  0
 25 26  2  0  0  0
 26 27  1  0  0  0
 26 43  1  0  0  0
 27 28  2  0  0  0
 27 44  1  0  0  0
M  END
> <s_m_entry_id>
10043

> <s_m_entry_name>
dock_pv.112

> <s_m_Source_Path>
/home/csk/Desktop/cluster/DUD-E-result/met

> <s_m_Source_File>
dock_pv.maegz

> <i_m_Source_File_Index>
112

> <chembl_id>
CHEMBL3582285

> <chembl_pref_name>
None

> <i_lp_mmshare_version>
53161

> <i_f3d_flags>
0

> <r_lp_tautomer_probability>
1

> <s_lp_Force_Field>
OPLS_2005

> <r_lp_Energy>
19.199359

> <b_lp_Chiralities_Consistent>
1

> <s_lp_Variant>
CHEMBL3717_lig2114-1

> <s_i_glide_gridfile>
glide-grid_3lq8

> <i_i_glide_lignum>
2412

> <i_i_glide_rotatable_bonds>
3

> <r_i_docking_score>
-8.39890707342677

> <r_i_glide_ligand_efficiency>
-0.289617485290578

> <r_i_glide_ligand_efficiency_sa>
-0.88979667207233

> <r_i_glide_ligand_efficiency_ln>
-1.92313674190758

> <r_i_glide_gscore>
-8.39890707342677

> <r_i_glide_lipo>
-4.00828326666893

> <r_i_glide_hbond>
0

> <r_i_glide_metal>
0

> <r_i_glide_rewards>
-2.50179451262799

> <r_i_glide_evdw>
-44.6662178039551

> <r_i_glide_ecoul>
-0.405059576034546

> <r_i_glide_erotb>
0.406015649274086

> <r_i_glide_esite>
-0.000775116800999142

> <r_i_glide_emodel>
-62.9611666706333

> <r_i_glide_energy>
-45.0712773799896

> <r_i_glide_einternal>
4.803786277771

> <i_i_glide_confnum>
9

> <i_i_glide_posenum>
76

> <r_i_glide_eff_state_penalty>
0

> <s_user_duplicate_titles>
CHEMBL3717_lig2114

> <s_m_subgroup_title>
dock_pv

> <s_m_subgroupid>
dock_pv

> <b_m_subgroup_collapsed>
1

$$$$
CHEMBL3717_lig772
                    3D
 Schrodinger Suite 2021-1.
 44 47  0  0  1  0            999 V2000
   -4.9742   -1.8264   30.2374 S   0  0  0  0  0  0
   -4.5872   -1.4344   31.5969 O   0  0  0  0  0  0
   -5.9754   -2.8721   30.0097 O   0  0  0  0  0  0
   -2.3494    2.8739   31.2411 C   0  0  0  0  0  0
   -4.4877    5.0194   30.8551 C   0  0  0  0  0  0
   -3.3513    5.7404   30.8851 C   0  0  0  0  0  0
   -1.9645    5.3321   30.6089 C   0  0  0  0  0  0
   -1.5022    4.0056   30.6953 C   0  0  0  0  0  0
   -0.1686    3.7632   30.3693 C   0  0  0  0  0  0
    0.6746    4.7981   29.9881 C   0  0  0  0  0  0
    0.1414    6.0871   29.9257 C   0  0  0  0  0  0
   -1.1586    6.3563   30.2100 N   0  0  0  0  0  0
   -3.7054    2.5999   30.6075 C   0  0  0  0  0  0
   -4.7133    3.5871   30.5555 C   0  0  0  0  0  0
   -6.0108    3.2023   30.1962 C   0  0  0  0  0  0
   -6.2952    1.8916   29.8132 C   0  0  0  0  0  0
   -5.2905    0.9270   29.8097 C   0  0  0  0  0  0
   -4.0077    1.2922   30.2092 C   0  0  0  0  0  0
   -5.5971   -0.3816   29.4146 N   0  0  0  0  0  0
   -3.4257   -2.2704   29.2632 C   0  0  0  0  0  0
    2.0842    4.5031   29.6997 C   0  0  0  0  0  0
    2.4446    3.9090   28.4902 C   0  0  0  0  0  0
    3.7802    3.6242   28.2367 C   0  0  0  0  0  0
    4.7499    3.9542   29.1814 C   0  0  0  0  0  0
    4.3921    4.4936   30.4087 C   0  0  0  0  0  0
    3.0530    4.7564   30.6690 C   0  0  0  0  0  0
   -2.4912    3.0489   32.2958 H   0  0  0  0  0  0
   -1.7646    1.9586   31.2278 H   0  0  0  0  0  0
   -5.3874    5.5652   31.1039 H   0  0  0  0  0  0
   -3.4624    6.7822   31.1511 H   0  0  0  0  0  0
    0.2325    2.7622   30.4449 H   0  0  0  0  0  0
    0.7539    6.9284   29.6353 H   0  0  0  0  0  0
   -6.8073    3.9324   30.1632 H   0  0  0  0  0  0
   -7.3014    1.6308   29.5178 H   0  0  0  0  0  0
   -3.2385    0.5374   30.2555 H   0  0  0  0  0  0
   -6.4641   -0.5286   28.9210 H   0  0  0  0  0  0
   -3.0079   -3.1843   29.6864 H   0  0  0  0  0  0
   -3.7016   -2.4433   28.2226 H   0  0  0  0  0  0
   -2.7063   -1.4580   29.3309 H   0  0  0  0  0  0
    1.6925    3.6677   27.7517 H   0  0  0  0  0  0
    4.0667    3.1551   27.3088 H   0  0  0  0  0  0
    5.7911    3.7480   28.9815 H   0  0  0  0  0  0
    5.1472    4.7105   31.1492 H   0  0  0  0  0  0
    2.7622    5.1566   31.6274 H   0  0  0  0  0  0
  1  2  2  0  0  0
  1  3  2  0  0  0
  1 19  1  0  0  0
  1 20  1  0  0  0
  4  8  1  0  0  0
  4 13  1  0  0  0
  4 27  1  0  0  0
  4 28  1  0  0  0
  5  6  2  0  0  0
  5 14  1  0  0  0
  5 29  1  0  0  0
  6  7  1  0  0  0
  6 30  1  0  0  0
  7  8  2  0  0  0
  7 12  1  0  0  0
  8  9  1  0  0  0
  9 10  2  0  0  0
  9 31  1  0  0  0
 10 11  1  0  0  0
 10 21  1  0  0  0
 11 12  2  0  0  0
 11 32  1  0  0  0
 13 14  2  0  0  0
 13 18  1  0  0  0
 14 15  1  0  0  0
 15 16  2  0  0  0
 15 33  1  0  0  0
 16 17  1  0  0  0
 16 34  1  0  0  0
 17 18  2  0  0  0
 17 19  1  0  0  0
 18 35  1  0  0  0
 19 36  1  0  0  0
 20 37  1  0  0  0
 20 38  1  0  0  0
 20 39  1  0  0  0
 21 22  2  0  0  0
 21 26  1  0  0  0
 22 23  1  0  0  0
 22 40  1  0  0  0
 23 24  2  0  0  0
 23 41  1  0  0  0
 24 25  1  0  0  0
 24 42  1  0  0  0
 25 26  2  0  0  0
 25 43  1  0  0  0
 26 44  1  0  0  0
M  END
> <s_m_entry_id>
10044

> <s_m_entry_name>
dock_pv.113

> <s_m_Source_Path>
/home/csk/Desktop/cluster/DUD-E-result/met

> <s_m_Source_File>
dock_pv.maegz

> <i_m_Source_File_Index>
113

> <chembl_id>
CHEMBL1803007

> <chembl_pref_name>
None

> <i_lp_mmshare_version>
53161

> <i_f3d_flags>
0

> <r_lp_tautomer_probability>
1

> <s_lp_Force_Field>
OPLS_2005

> <r_lp_Energy>
18.973973

> <b_lp_Chiralities_Consistent>
1

> <s_lp_Variant>
CHEMBL3717_lig772-1

> <s_i_glide_gridfile>
glide-grid_3lq8

> <i_i_glide_lignum>
834

> <i_i_glide_rotatable_bonds>
3

> <r_i_docking_score>
-8.3970445129261

> <r_i_glide_ligand_efficiency>
-0.322963250497158

> <r_i_glide_ligand_efficiency_sa>
-0.956777358798803

> <r_i_glide_ligand_efficiency_ln>
-1.97201835091033

> <r_i_glide_gscore>
-8.3970445129261

> <r_i_glide_lipo>
-4.72306090782058

> <r_i_glide_hbond>
0

> <r_i_glide_metal>
0

> <r_i_glide_rewards>
-1.83786940909091

> <r_i_glide_evdw>
-37.7466506958008

> <r_i_glide_ecoul>
-1.16076624393463

> <r_i_glide_erotb>
0.29234261423704

> <r_i_glide_esite>
-0.0670093388714163

> <r_i_glide_emodel>
-49.0836154869979

> <r_i_glide_energy>
-38.9074169397354

> <r_i_glide_einternal>
8.25282001495361

> <i_i_glide_confnum>
1

> <i_i_glide_posenum>
140

> <r_i_glide_eff_state_penalty>
0

> <s_user_duplicate_titles>
CHEMBL3717_lig772

> <s_m_subgroup_title>
dock_pv

> <s_m_subgroupid>
dock_pv

> <b_m_subgroup_collapsed>
1

$$$$
CHEMBL3717_lig3764
                    3D
 Schrodinger Suite 2021-1.
 34 36  0  0  1  0            999 V2000
    1.7992    3.0107   31.4075 F   0  0  0  0  0  0
    1.9213    3.2959   29.2617 F   0  0  0  0  0  0
    2.7729    4.7570   30.6082 F   0  0  0  0  0  0
   -5.2009    1.9291   29.4861 O   0  0  0  0  0  0
   -3.2640    6.6540   30.5445 N   0  0  0  0  0  0
   -3.2940    2.4136   30.6275 N   0  0  0  0  0  0
   -4.0582    0.2486   30.4018 N   0  0  0  0  0  0
   -2.5374    0.1842   32.2960 N   0  0  0  0  0  0
   -1.8638   -2.4430   31.5739 N   0  0  0  0  0  0
   -2.0485    4.5335   30.6080 C   0  0  0  0  0  0
   -2.0953    5.9587   30.4919 C   0  0  0  0  0  0
    0.4027    4.6365   30.4261 C   0  0  0  0  0  0
   -3.2953    3.8254   30.6080 C   0  0  0  0  0  0
   -0.7724    3.9013   30.6086 C   0  0  0  0  0  0
    1.7531    3.9167   30.4290 C   0  0  0  0  0  0
   -0.8990    6.6782   30.2513 C   0  0  0  0  0  0
    0.3262    6.0176   30.2307 C   0  0  0  0  0  0
   -4.4834    4.5704   30.6080 C   0  0  0  0  0  0
   -4.4210    5.9570   30.6080 C   0  0  0  0  0  0
   -4.2368    1.5661   30.1562 C   0  0  0  0  0  0
   -3.1068   -0.4107   31.2052 C   0  0  0  0  0  0
   -2.7763   -1.7280   30.8644 C   0  0  0  0  0  0
   -1.6301   -0.5321   33.0080 C   0  0  0  0  0  0
   -1.2940   -1.8379   32.6472 C   0  0  0  0  0  0
   -2.4837    1.9821   31.0431 H   0  0  0  0  0  0
   -4.6634   -0.3637   29.8750 H   0  0  0  0  0  0
   -0.7133    2.8275   30.7039 H   0  0  0  0  0  0
   -0.9385    7.7510   30.1172 H   0  0  0  0  0  0
    1.2254    6.5954   30.0691 H   0  0  0  0  0  0
   -5.4510    4.0916   30.6356 H   0  0  0  0  0  0
   -5.3293    6.5436   30.6080 H   0  0  0  0  0  0
   -3.2194   -2.2304   30.0156 H   0  0  0  0  0  0
   -1.1791   -0.0475   33.8616 H   0  0  0  0  0  0
   -0.5602   -2.4085   33.1987 H   0  0  0  0  0  0
  1 15  1  0  0  0
  2 15  1  0  0  0
  3 15  1  0  0  0
  4 20  2  0  0  0
  5 11  1  0  0  0
  5 19  2  0  0  0
  6 13  1  0  0  0
  6 20  1  0  0  0
  6 25  1  0  0  0
  7 20  1  0  0  0
  7 21  1  0  0  0
  7 26  1  0  0  0
  8 21  1  0  0  0
  8 23  2  0  0  0
  9 22  1  0  0  0
  9 24  2  0  0  0
 10 11  1  0  0  0
 10 13  1  0  0  0
 10 14  2  0  0  0
 11 16  2  0  0  0
 12 14  1  0  0  0
 12 15  1  0  0  0
 12 17  2  0  0  0
 13 18  2  0  0  0
 14 27  1  0  0  0
 16 17  1  0  0  0
 16 28  1  0  0  0
 17 29  1  0  0  0
 18 19  1  0  0  0
 18 30  1  0  0  0
 19 31  1  0  0  0
 21 22  2  0  0  0
 22 32  1  0  0  0
 23 24  1  0  0  0
 23 33  1  0  0  0
 24 34  1  0  0  0
M  END
> <s_m_entry_id>
10045

> <s_m_entry_name>
dock_pv.114

> <s_m_Source_Path>
/home/csk/Desktop/cluster/DUD-E-result/met

> <s_m_Source_File>
dock_pv.maegz

> <i_m_Source_File_Index>
114

> <chembl_id>
CHEMBL1976455

> <chembl_pref_name>
None

> <i_lp_mmshare_version>
53161

> <i_f3d_flags>
0

> <r_lp_tautomer_probability>
1

> <s_lp_Force_Field>
OPLS_2005

> <r_lp_Energy>
29.371282

> <b_lp_Chiralities_Consistent>
1

> <s_lp_Variant>
CHEMBL3717_lig3764-1

> <s_i_glide_gridfile>
glide-grid_3lq8

> <i_i_glide_lignum>
4760

> <i_i_glide_rotatable_bonds>
5

> <r_i_docking_score>
-8.38342546924224

> <r_i_glide_ligand_efficiency>
-0.34930939455176

> <r_i_glide_ligand_efficiency_sa>
-1.00758264732585

> <r_i_glide_ligand_efficiency_ln>
-2.00653840511769

> <r_i_glide_gscore>
-8.38342546924224

> <r_i_glide_lipo>
-3.27300047783176

> <r_i_glide_hbond>
-0.159844600739075

> <r_i_glide_metal>
0

> <r_i_glide_rewards>
-2.94489960172485

> <r_i_glide_evdw>
-40.787670135498

> <r_i_glide_ecoul>
-3.16879940032959

> <r_i_glide_erotb>
0.509022627877781

> <r_i_glide_esite>
0

> <r_i_glide_emodel>
-59.9772474701893

> <r_i_glide_energy>
-43.9564695358276

> <r_i_glide_einternal>
4.05529928207397

> <i_i_glide_confnum>
2

> <i_i_glide_posenum>
224

> <r_i_glide_eff_state_penalty>
0

> <s_user_duplicate_titles>
CHEMBL3717_lig3764

> <s_m_subgroup_title>
dock_pv

> <s_m_subgroupid>
dock_pv

> <b_m_subgroup_collapsed>
1

$$$$
CHEMBL3717_lig3565
                    3D
 Schrodinger Suite 2021-1.
 49 52  0  0  1  0            999 V2000
   -4.9002   -3.1507   33.2726 Cl  0  0  0  0  0  0
   -4.6147    2.6925   30.5972 O   0  0  0  0  0  0
    4.1114    3.7008   30.4678 N   0  0  0  0  0  0
    4.1397    3.2545   29.1994 N   0  0  0  0  0  0
   -3.2973    6.1718   30.6044 N   0  0  0  0  0  0
   -7.1990    1.2782   31.8272 N   0  0  0  0  0  0
    1.9926    3.6077   29.5313 C   0  0  0  0  0  0
    2.7812    3.9455   30.6684 C   0  0  0  0  0  0
    0.0013    4.3448   30.6721 C   0  0  0  0  0  0
    0.6061    3.7786   29.5525 C   0  0  0  0  0  0
    2.9208    3.1575   28.5731 C   0  0  0  0  0  0
   -1.4619    4.5865   30.6782 C   0  0  0  0  0  0
    2.1626    4.4776   31.8049 C   0  0  0  0  0  0
    0.7879    4.7046   31.7652 C   0  0  0  0  0  0
   -2.3838    3.5302   30.6650 C   0  0  0  0  0  0
   -3.7597    3.7824   30.6079 C   0  0  0  0  0  0
   -1.9730    5.8887   30.6451 C   0  0  0  0  0  0
   -4.1647    5.1297   30.5751 C   0  0  0  0  0  0
    2.7050    2.7264   27.1519 C   0  0  0  0  0  0
   -6.0110    2.9116   30.3874 C   0  0  0  0  0  0
   -6.8633    1.6196   30.4555 C   0  0  1  0  0  0
   -5.2236   -0.4400   30.3204 C   0  0  0  0  0  0
   -6.3261    0.3954   29.6635 C   0  0  0  0  0  0
   -5.5188   -1.2921   31.3937 C   0  0  0  0  0  0
   -4.5244   -2.0906   31.9608 C   0  0  0  0  0  0
   -3.9217   -0.4180   29.8093 C   0  0  0  0  0  0
   -3.2281   -2.0508   31.4504 C   0  0  0  0  0  0
   -2.9308   -1.2285   30.3664 C   0  0  0  0  0  0
    5.0101    2.9769   28.7618 H   0  0  0  0  0  0
   -6.3701    0.9634   32.3168 H   0  0  0  0  0  0
   -7.5316    2.0874   32.3309 H   0  0  0  0  0  0
    0.0166    3.5010   28.6929 H   0  0  0  0  0  0
    2.7411    4.7538   32.6725 H   0  0  0  0  0  0
    0.3075    5.1571   32.6092 H   0  0  0  0  0  0
   -2.0375    2.5072   30.6872 H   0  0  0  0  0  0
   -1.3075    6.7391   30.6325 H   0  0  0  0  0  0
   -5.2047    5.4145   30.5230 H   0  0  0  0  0  0
    1.9418    1.9570   27.0797 H   0  0  0  0  0  0
    2.3060    3.5780   26.6080 H   0  0  0  0  0  0
    3.5964    2.3615   26.6448 H   0  0  0  0  0  0
   -6.1492    3.3634   29.4080 H   0  0  0  0  0  0
   -6.3951    3.6342   31.1109 H   0  0  0  0  0  0
   -7.8182    1.8796   29.9966 H   0  0  0  0  0  0
   -6.0068    0.7096   28.6685 H   0  0  0  0  0  0
   -7.1588   -0.2846   29.4747 H   0  0  0  0  0  0
   -6.5257   -1.3453   31.7813 H   0  0  0  0  0  0
   -3.6822    0.2022   28.9581 H   0  0  0  0  0  0
   -2.4606   -2.6867   31.8682 H   0  0  0  0  0  0
   -1.9353   -1.2388   29.9493 H   0  0  0  0  0  0
  1 25  1  0  0  0
  2 16  1  0  0  0
  2 20  1  0  0  0
  3  4  1  0  0  0
  3  8  2  0  0  0
  4 29  1  0  0  0
  4 11  1  0  0  0
  5 17  1  0  0  0
  5 18  2  0  0  0
  6 21  1  0  0  0
  6 30  1  0  0  0
  6 31  1  0  0  0
  7 10  1  0  0  0
  7  8  1  0  0  0
  7 11  2  0  0  0
  8 13  1  0  0  0
  9 14  1  0  0  0
  9 12  1  0  0  0
  9 10  2  0  0  0
 10 32  1  0  0  0
 11 19  1  0  0  0
 12 15  1  0  0  0
 12 17  2  0  0  0
 13 33  1  0  0  0
 13 14  2  0  0  0
 14 34  1  0  0  0
 15 16  2  0  0  0
 15 35  1  0  0  0
 16 18  1  0  0  0
 17 36  1  0  0  0
 18 37  1  0  0  0
 19 38  1  0  0  0
 19 39  1  0  0  0
 19 40  1  0  0  0
 20 21  1  0  0  0
 20 41  1  0  0  0
 20 42  1  0  0  0
 21 23  1  0  0  0
 21 43  1  0  0  0
 22 23  1  0  0  0
 22 24  1  0  0  0
 22 26  2  0  0  0
 23 44  1  0  0  0
 23 45  1  0  0  0
 24 25  2  0  0  0
 24 46  1  0  0  0
 25 27  1  0  0  0
 26 28  1  0  0  0
 26 47  1  0  0  0
 27 28  2  0  0  0
 27 48  1  0  0  0
 28 49  1  0  0  0
M  END
> <s_m_entry_id>
10046

> <s_m_entry_name>
dock_pv.115

> <s_m_Source_Path>
/home/csk/Desktop/cluster/DUD-E-result/met

> <s_m_Source_File>
dock_pv.maegz

> <i_m_Source_File_Index>
115

> <chembl_id>
CHEMBL1974870

> <chembl_pref_name>
None

> <i_lp_mmshare_version>
53161

> <i_f3d_flags>
0

> <r_lp_tautomer_probability>
0.0196078431372549

> <s_lp_Force_Field>
OPLS_2005

> <r_lp_Energy>
39.137534

> <b_lp_Chiralities_Consistent>
1

> <s_lp_Variant>
CHEMBL3717_lig3565-4

> <s_i_glide_gridfile>
glide-grid_3lq8

> <i_i_glide_lignum>
4418

> <i_i_glide_rotatable_bonds>
6

> <r_i_docking_score>
-8.38324196022097

> <r_i_glide_ligand_efficiency>
-0.299401498579321

> <r_i_glide_ligand_efficiency_sa>
-0.909159287739177

> <r_i_glide_ligand_efficiency_ln>
-1.93509838709852

> <r_i_glide_gscore>
-8.38324196022097

> <r_i_glide_lipo>
-3.80709661719057

> <r_i_glide_hbond>
-0.32

> <r_i_glide_metal>
0

> <r_i_glide_rewards>
-2.28815750209555

> <r_i_glide_evdw>
-42.7135162353516

> <r_i_glide_ecoul>
-3.099449634552

> <r_i_glide_erotb>
0.632605416015526

> <r_i_glide_esite>
0

> <r_i_glide_emodel>
-64.8484344107043

> <r_i_glide_energy>
-45.8129658699036

> <r_i_glide_einternal>
8.388258934021

> <i_i_glide_confnum>
1

> <i_i_glide_posenum>
96

> <r_i_glide_eff_state_penalty>
0

> <s_user_duplicate_titles>
CHEMBL3717_lig3565,CHEMBL3717_lig3565

> <s_m_subgroup_title>
dock_pv

> <s_m_subgroupid>
dock_pv

> <b_m_subgroup_collapsed>
1

$$$$
CHEMBL3717_lig3745
                    3D
 Schrodinger Suite 2021-1.
 47 50  0  0  1  0            999 V2000
   -0.4946   -1.3041   34.3563 C   0  0  0  0  0  0
   -1.1862   -2.4435   33.5832 C   0  0  0  0  0  0
   -1.5953   -2.1208   32.1215 C   0  0  0  0  0  0
   -2.6339   -0.9981   31.9502 C   0  0  0  0  0  0
   -2.5093    0.0379   32.6034 O   0  0  0  0  0  0
   -3.6372   -1.2293   31.0758 N   0  0  0  0  0  0
   -4.6394   -0.3264   30.7510 C   0  0  0  0  0  0
   -5.8673   -0.7221   30.5373 N   0  0  0  0  0  0
   -6.6110    0.3800   30.3201 N   0  0  0  0  0  0
   -5.8569    1.5331   30.3568 C   0  0  0  0  0  0
   -6.1881    2.8864   30.2081 C   0  0  0  0  0  0
   -5.1408    3.8082   30.3034 C   0  0  0  0  0  0
   -3.8140    3.4132   30.5166 C   0  0  0  0  0  0
   -3.5040    2.0556   30.6175 C   0  0  0  0  0  0
   -4.5297    1.1009   30.5882 C   0  0  0  0  0  0
   -2.6974    4.4037   30.6508 C   0  0  0  0  0  0
   -1.3716    4.1559   31.0067 C   0  0  0  0  0  0
   -0.7421    5.3673   30.9371 N   0  0  0  0  0  0
    0.6622    5.6728   31.1956 C   0  0  0  0  0  0
    1.6491    4.8579   30.3624 C   0  0  0  0  0  0
    2.8145    4.3562   30.9524 C   0  0  0  0  0  0
    3.7182    3.6161   30.1927 C   0  0  0  0  0  0
    3.4582    3.3831   28.8436 C   0  0  0  0  0  0
    2.3021    3.8784   28.2476 C   0  0  0  0  0  0
    1.4032    4.6207   29.0066 C   0  0  0  0  0  0
   -1.6112    6.3245   30.6016 N   0  0  0  0  0  0
   -2.8416    5.7067   30.4424 N   0  0  0  0  0  0
   -0.0627   -1.6702   35.2881 H   0  0  0  0  0  0
   -1.1925   -0.5115   34.6214 H   0  0  0  0  0  0
    0.3056   -0.8496   33.7717 H   0  0  0  0  0  0
   -0.4938   -3.2834   33.5530 H   0  0  0  0  0  0
   -2.0488   -2.8056   34.1428 H   0  0  0  0  0  0
   -0.7090   -1.8470   31.5485 H   0  0  0  0  0  0
   -1.9705   -3.0314   31.6522 H   0  0  0  0  0  0
   -3.7381   -2.1637   30.7088 H   0  0  0  0  0  0
   -7.6042    0.2978   30.1563 H   0  0  0  0  0  0
   -7.2032    3.2131   30.0343 H   0  0  0  0  0  0
   -5.3717    4.8611   30.2104 H   0  0  0  0  0  0
   -2.4891    1.7331   30.7798 H   0  0  0  0  0  0
   -0.8303    3.2570   31.2620 H   0  0  0  0  0  0
    0.8393    6.7339   31.0086 H   0  0  0  0  0  0
    0.8317    5.5074   32.2598 H   0  0  0  0  0  0
    3.0226    4.5388   31.9967 H   0  0  0  0  0  0
    4.6167    3.2242   30.6426 H   0  0  0  0  0  0
    4.1572    2.8066   28.2556 H   0  0  0  0  0  0
    2.1051    3.6897   27.2021 H   0  0  0  0  0  0
    0.5138    5.0124   28.5372 H   0  0  0  0  0  0
  1  2  1  0  0  0
  1 28  1  0  0  0
  1 29  1  0  0  0
  1 30  1  0  0  0
  2  3  1  0  0  0
  2 31  1  0  0  0
  2 32  1  0  0  0
  3  4  1  0  0  0
  3 33  1  0  0  0
  3 34  1  0  0  0
  4  5  2  0  0  0
  4  6  1  0  0  0
  6  7  1  0  0  0
  6 35  1  0  0  0
  7  8  2  0  0  0
  7 15  1  0  0  0
  8  9  1  0  0  0
  9 10  1  0  0  0
  9 36  1  0  0  0
 10 11  2  0  0  0
 10 15  1  0  0  0
 11 12  1  0  0  0
 11 37  1  0  0  0
 12 13  2  0  0  0
 12 38  1  0  0  0
 13 14  1  0  0  0
 13 16  1  0  0  0
 14 15  2  0  0  0
 14 39  1  0  0  0
 16 17  2  0  0  0
 16 27  1  0  0  0
 17 18  1  0  0  0
 17 40  1  0  0  0
 18 19  1  0  0  0
 18 26  1  0  0  0
 19 20  1  0  0  0
 19 41  1  0  0  0
 19 42  1  0  0  0
 20 21  2  0  0  0
 20 25  1  0  0  0
 21 22  1  0  0  0
 21 43  1  0  0  0
 22 23  2  0  0  0
 22 44  1  0  0  0
 23 24  1  0  0  0
 23 45  1  0  0  0
 24 25  2  0  0  0
 24 46  1  0  0  0
 25 47  1  0  0  0
 26 27  2  0  0  0
M  END
> <s_m_entry_id>
10047

> <s_m_entry_name>
dock_pv.116

> <s_m_Source_Path>
/home/csk/Desktop/cluster/DUD-E-result/met

> <s_m_Source_File>
dock_pv.maegz

> <i_m_Source_File_Index>
116

> <chembl_id>
CHEMBL1977223

> <chembl_pref_name>
None

> <i_lp_mmshare_version>
53161

> <i_f3d_flags>
0

> <r_lp_tautomer_probability>
0.980392156862745

> <s_lp_Force_Field>
OPLS_2005

> <r_lp_Energy>
14.906849

> <b_lp_Chiralities_Consistent>
1

> <s_lp_Variant>
CHEMBL3717_lig3745-1

> <s_i_glide_gridfile>
glide-grid_3lq8

> <i_i_glide_lignum>
4729

> <i_i_glide_rotatable_bonds>
7

> <r_i_docking_score>
-8.38269510722523

> <r_i_glide_ligand_efficiency>
-0.31047018915649

> <r_i_glide_ligand_efficiency_sa>
-0.931410566446211

> <r_i_glide_ligand_efficiency_ln>
-1.95135322143231

> <r_i_glide_gscore>
-8.38269510722523

> <r_i_glide_lipo>
-4.26785262284794

> <r_i_glide_hbond>
0

> <r_i_glide_metal>
0

> <r_i_glide_rewards>
-2.30789657683951

> <r_i_glide_evdw>
-48.3079795837402

> <r_i_glide_ecoul>
-1.84945440292358

> <r_i_glide_erotb>
0.885871232087777

> <r_i_glide_esite>
0

> <r_i_glide_emodel>
-73.7793801564348

> <r_i_glide_energy>
-50.1574339866638

> <r_i_glide_einternal>
4.1917200088501

> <i_i_glide_confnum>
22

> <i_i_glide_posenum>
362

> <r_i_glide_eff_state_penalty>
0

> <s_user_duplicate_titles>
CHEMBL3717_lig3745,CHEMBL3717_lig3745

> <s_m_subgroup_title>
dock_pv

> <s_m_subgroupid>
dock_pv

> <b_m_subgroup_collapsed>
1

$$$$
CHEMBL3717_lig3728
                    3D
 Schrodinger Suite 2021-1.
 49 52  0  0  1  0            999 V2000
   -1.4794   -2.4428   33.1216 Cl  0  0  0  0  0  0
   -3.6831   -4.2437   34.6094 Cl  0  0  0  0  0  0
   -4.5918    2.9650   30.5969 O   0  0  0  0  0  0
    4.2566    3.6171   30.5174 N   0  0  0  0  0  0
    4.3059    3.1650   29.2556 N   0  0  0  0  0  0
   -3.0960    6.2919   30.6079 N   0  0  0  0  0  0
   -6.4920    1.2690   29.4081 N   0  0  0  0  0  0
    2.1686    3.6395   29.4989 C   0  0  0  0  0  0
    2.9334    3.9154   30.6709 C   0  0  0  0  0  0
    0.1767    4.4151   30.6199 C   0  0  0  0  0  0
    0.7872    3.8637   29.4905 C   0  0  0  0  0  0
    3.1150    3.1527   28.5688 C   0  0  0  0  0  0
   -1.2793    4.6825   30.6192 C   0  0  0  0  0  0
    2.3064    4.4326   31.8073 C   0  0  0  0  0  0
    0.9439    4.7128   31.7477 C   0  0  0  0  0  0
   -2.2118    3.6381   30.6128 C   0  0  0  0  0  0
   -3.5903    3.9165   30.6079 C   0  0  0  0  0  0
   -1.7736    5.9904   30.6080 C   0  0  0  0  0  0
   -3.9757    5.2594   30.6082 C   0  0  0  0  0  0
    2.9776    2.6129   27.1685 C   0  0  0  0  0  0
   -4.8398   -1.6217   31.1066 C   0  0  0  0  0  0
   -3.1317   -2.4552   32.6079 C   0  0  0  0  0  0
   -4.0937   -3.2431   33.2617 C   0  0  0  0  0  0
   -3.5073   -1.6575   31.5264 C   0  0  0  0  0  0
   -5.5297    0.7206   30.3454 C   0  0  1  0  0  0
   -5.2611   -0.7471   29.9385 C   0  0  0  0  0  0
   -4.2524    1.5958   30.3652 C   0  0  0  0  0  0
   -5.7943   -2.3977   31.7700 C   0  0  0  0  0  0
   -5.4212   -3.2085   32.8388 C   0  0  0  0  0  0
    5.1777    2.8300   28.8565 H   0  0  0  0  0  0
   -6.5402    2.2697   29.5461 H   0  0  0  0  0  0
   -6.1656    1.1177   28.4652 H   0  0  0  0  0  0
    0.2123    3.6234   28.6096 H   0  0  0  0  0  0
    2.8724    4.6541   32.6968 H   0  0  0  0  0  0
    0.4699    5.1569   32.6081 H   0  0  0  0  0  0
   -1.8525    2.6209   30.6139 H   0  0  0  0  0  0
   -1.0967    6.8326   30.6031 H   0  0  0  0  0  0
   -5.0227    5.5269   30.5954 H   0  0  0  0  0  0
    2.7085    1.5575   27.1736 H   0  0  0  0  0  0
    2.1981    3.1318   26.6093 H   0  0  0  0  0  0
    3.9054    2.7034   26.6081 H   0  0  0  0  0  0
   -2.7618   -1.0655   31.0163 H   0  0  0  0  0  0
   -6.0020    0.7533   31.3299 H   0  0  0  0  0  0
   -4.5185   -0.8087   29.1399 H   0  0  0  0  0  0
   -6.1553   -1.2019   29.5048 H   0  0  0  0  0  0
   -3.5843    1.2405   31.1511 H   0  0  0  0  0  0
   -3.7249    1.5125   29.4123 H   0  0  0  0  0  0
   -6.8277   -2.3780   31.4550 H   0  0  0  0  0  0
   -6.1659   -3.8093   33.3396 H   0  0  0  0  0  0
  1 22  1  0  0  0
  2 23  1  0  0  0
  3 17  1  0  0  0
  3 27  1  0  0  0
  4  5  1  0  0  0
  4  9  2  0  0  0
  5 30  1  0  0  0
  5 12  1  0  0  0
  6 18  1  0  0  0
  6 19  2  0  0  0
  7 25  1  0  0  0
  7 31  1  0  0  0
  7 32  1  0  0  0
  8 11  1  0  0  0
  8  9  1  0  0  0
  8 12  2  0  0  0
  9 14  1  0  0  0
 10 15  1  0  0  0
 10 13  1  0  0  0
 10 11  2  0  0  0
 11 33  1  0  0  0
 12 20  1  0  0  0
 13 16  1  0  0  0
 13 18  2  0  0  0
 14 34  1  0  0  0
 14 15  2  0  0  0
 15 35  1  0  0  0
 16 17  2  0  0  0
 16 36  1  0  0  0
 17 19  1  0  0  0
 18 37  1  0  0  0
 19 38  1  0  0  0
 20 39  1  0  0  0
 20 40  1  0  0  0
 20 41  1  0  0  0
 21 24  1  0  0  0
 21 26  1  0  0  0
 21 28  2  0  0  0
 22 23  1  0  0  0
 22 24  2  0  0  0
 23 29  2  0  0  0
 24 42  1  0  0  0
 25 26  1  0  0  0
 25 27  1  0  0  0
 25 43  1  0  0  0
 26 44  1  0  0  0
 26 45  1  0  0  0
 27 46  1  0  0  0
 27 47  1  0  0  0
 28 29  1  0  0  0
 28 48  1  0  0  0
 29 49  1  0  0  0
M  END
> <s_m_entry_id>
10048

> <s_m_entry_name>
dock_pv.117

> <s_m_Source_Path>
/home/csk/Desktop/cluster/DUD-E-result/met

> <s_m_Source_File>
dock_pv.maegz

> <i_m_Source_File_Index>
117

> <chembl_id>
CHEMBL1991063

> <chembl_pref_name>
None

> <i_lp_mmshare_version>
53161

> <i_f3d_flags>
0

> <r_lp_tautomer_probability>
0.0196078431372549

> <s_lp_Force_Field>
OPLS_2005

> <r_lp_Energy>
41.056095

> <b_lp_Chiralities_Consistent>
1

> <s_lp_Variant>
CHEMBL3717_lig3728-4

> <s_i_glide_gridfile>
glide-grid_3lq8

> <i_i_glide_lignum>
4706

> <i_i_glide_rotatable_bonds>
6

> <r_i_docking_score>
-8.38180843215609

> <r_i_glide_ligand_efficiency>
-0.2890278769709

> <r_i_glide_ligand_efficiency_sa>
-0.887985208513251

> <r_i_glide_ligand_efficiency_ln>
-1.91922158664073

> <r_i_glide_gscore>
-8.38180843215609

> <r_i_glide_lipo>
-3.7811887368079

> <r_i_glide_hbond>
-0.32

> <r_i_glide_metal>
0

> <r_i_glide_rewards>
-2.08483461695554

> <r_i_glide_evdw>
-44.2973480224609

> <r_i_glide_ecoul>
-3.49693894386292

> <r_i_glide_erotb>
0.543623164309835

> <r_i_glide_esite>
0

> <r_i_glide_emodel>
-65.6755590572537

> <r_i_glide_energy>
-47.7942869663239

> <r_i_glide_einternal>
13.1300067901611

> <i_i_glide_confnum>
34

> <i_i_glide_posenum>
307

> <r_i_glide_eff_state_penalty>
0

> <s_user_duplicate_titles>
CHEMBL3717_lig3728,CHEMBL3717_lig3728

> <s_m_subgroup_title>
dock_pv

> <s_m_subgroupid>
dock_pv

> <b_m_subgroup_collapsed>
1

$$$$
CHEMBL3717_lig3858
                    3D
 Schrodinger Suite 2021-1.
 45 48  0  0  1  0            999 V2000
   -6.6729    3.6026   30.3124 O   0  0  0  0  0  0
   -0.4237    4.5597   31.0355 N   0  0  0  0  0  0
   -5.8154    1.5585   29.7293 N   0  0  0  0  0  0
   -8.2171    1.1618   29.6480 N   0  0  0  0  0  0
   -6.8954   -0.0857   28.3955 N   0  0  0  0  0  0
   -9.0093    0.2617   28.9348 N   0  0  0  0  0  0
   -1.6782    3.9718   31.0243 C   0  0  0  0  0  0
   -2.6056    4.9614   30.6075 C   0  0  0  0  0  0
   -1.8754    6.1852   30.4855 C   0  0  0  0  0  0
   -0.5353    5.8702   30.6115 C   0  0  0  0  0  0
   -3.9493    4.5976   30.4059 C   0  0  0  0  0  0
   -4.3240    3.2531   30.5417 C   0  0  0  0  0  0
   -2.0939    2.6795   31.3478 C   0  0  0  0  0  0
    0.8193    3.9059   31.4589 C   0  0  0  0  0  0
   -3.3899    2.3215   31.0079 C   0  0  0  0  0  0
   -5.7284    2.8179   30.2079 C   0  0  0  0  0  0
    1.9031    3.7912   30.3953 C   0  0  0  0  0  0
   -2.4460    7.5470   30.2348 C   0  0  0  0  0  0
    0.6795    6.7561   30.4350 C   0  0  0  0  0  0
   -6.9656    0.9213   29.3202 C   0  0  0  0  0  0
    1.5834    3.4097   29.0884 C   0  0  0  0  0  0
    3.2308    4.0528   30.7443 C   0  0  0  0  0  0
   -8.1980   -0.4619   28.2051 C   0  0  0  0  0  0
    2.5881    3.2889   28.1345 C   0  0  0  0  0  0
    4.2343    3.9434   29.7878 C   0  0  0  0  0  0
    3.9059    3.5598   28.4909 C   0  0  0  0  0  0
   -4.9493    1.0805   29.5379 H   0  0  0  0  0  0
   -6.0675   -0.4672   27.9490 H   0  0  0  0  0  0
   -4.6671    5.3376   30.0774 H   0  0  0  0  0  0
   -1.4411    1.9575   31.8079 H   0  0  0  0  0  0
    1.1868    4.4547   32.3274 H   0  0  0  0  0  0
    0.5960    2.9009   31.8076 H   0  0  0  0  0  0
   -3.6858    1.2978   31.1950 H   0  0  0  0  0  0
   -2.0922    7.9563   29.3008 H   0  0  0  0  0  0
   -3.5350    7.5542   30.2550 H   0  0  0  0  0  0
   -2.0920    8.2315   30.9998 H   0  0  0  0  0  0
    0.4063    7.7875   30.2100 H   0  0  0  0  0  0
    1.3036    6.7561   31.3271 H   0  0  0  0  0  0
    1.3019    6.4171   29.6082 H   0  0  0  0  0  0
    0.5614    3.1924   28.8125 H   0  0  0  0  0  0
    3.4873    4.3467   31.7520 H   0  0  0  0  0  0
   -8.4537   -1.2566   27.5220 H   0  0  0  0  0  0
    2.3452    2.9861   27.1261 H   0  0  0  0  0  0
    5.2624    4.1493   30.0464 H   0  0  0  0  0  0
    4.6900    3.4720   27.7557 H   0  0  0  0  0  0
  1 16  2  0  0  0
  2  7  1  0  0  0
  2 10  1  0  0  0
  2 14  1  0  0  0
  3 16  1  0  0  0
  3 27  1  0  0  0
  3 20  1  0  0  0
  4  6  1  0  0  0
  4 20  2  0  0  0
  5 28  1  0  0  0
  5 23  1  0  0  0
  5 20  1  0  0  0
  6 23  2  0  0  0
  7  8  1  0  0  0
  7 13  2  0  0  0
  8  9  1  0  0  0
  8 11  2  0  0  0
  9 10  2  0  0  0
  9 18  1  0  0  0
 10 19  1  0  0  0
 11 12  1  0  0  0
 11 29  1  0  0  0
 12 15  2  0  0  0
 12 16  1  0  0  0
 13 15  1  0  0  0
 13 30  1  0  0  0
 14 17  1  0  0  0
 14 31  1  0  0  0
 14 32  1  0  0  0
 15 33  1  0  0  0
 17 21  2  0  0  0
 17 22  1  0  0  0
 18 34  1  0  0  0
 18 35  1  0  0  0
 18 36  1  0  0  0
 19 37  1  0  0  0
 19 38  1  0  0  0
 19 39  1  0  0  0
 21 24  1  0  0  0
 21 40  1  0  0  0
 22 25  2  0  0  0
 22 41  1  0  0  0
 23 42  1  0  0  0
 24 26  2  0  0  0
 24 43  1  0  0  0
 25 26  1  0  0  0
 25 44  1  0  0  0
 26 45  1  0  0  0
M  END
> <s_m_entry_id>
10049

> <s_m_entry_name>
dock_pv.118

> <s_m_Source_Path>
/home/csk/Desktop/cluster/DUD-E-result/met

> <s_m_Source_File>
dock_pv.maegz

> <i_m_Source_File_Index>
118

> <chembl_id>
CHEMBL1979718

> <chembl_pref_name>
None

> <i_lp_mmshare_version>
53161

> <i_f3d_flags>
0

> <r_lp_tautomer_probability>
0.0517155146543963

> <s_lp_Force_Field>
OPLS_2005

> <r_lp_Energy>
20.47398

> <b_lp_Chiralities_Consistent>
1

> <s_lp_Variant>
CHEMBL3717_lig3858-2

> <s_i_glide_gridfile>
glide-grid_3lq8

> <i_i_glide_lignum>
4895

> <i_i_glide_rotatable_bonds>
5

> <r_i_docking_score>
-8.37305740553723

> <r_i_glide_ligand_efficiency>
-0.32204066944374

> <r_i_glide_ligand_efficiency_sa>
-0.954044216058233

> <r_i_glide_ligand_efficiency_ln>
-1.96638505744817

> <r_i_glide_gscore>
-8.37305740553723

> <r_i_glide_lipo>
-4.26554273411836

> <r_i_glide_hbond>
-0.12522142461851

> <r_i_glide_metal>
0

> <r_i_glide_rewards>
-2.88450499009796

> <r_i_glide_evdw>
-35.7189178466797

> <r_i_glide_ecoul>
-0.613052248954773

> <r_i_glide_erotb>
0.796285015849537

> <r_i_glide_esite>
-0.0161695428747291

> <r_i_glide_emodel>
-50.6379744524313

> <r_i_glide_energy>
-36.3319700956345

> <r_i_glide_einternal>
1.1591055393219

> <i_i_glide_confnum>
16

> <i_i_glide_posenum>
366

> <r_i_glide_eff_state_penalty>
0

> <s_user_duplicate_titles>
CHEMBL3717_lig3858

> <s_m_subgroup_title>
dock_pv

> <s_m_subgroupid>
dock_pv

> <b_m_subgroup_collapsed>
1

$$$$
CHEMBL3717_lig2019
                    3D
 Schrodinger Suite 2021-1.
 38 40  0  0  1  0            999 V2000
   -4.2162    4.2214   30.5751 N   0  0  0  0  0  0
   -2.9318    4.7388   30.6080 C   0  0  0  0  0  0
   -1.8744    4.0473   30.8741 N   0  0  0  0  0  0
   -0.5966    4.6392   30.8428 N   0  0  0  0  0  0
   -0.3464    5.9700   30.5478 C   0  0  0  0  0  0
   -1.5611    6.6949   30.2071 C   0  0  0  0  0  0
   -2.7869    6.1283   30.2795 C   0  0  0  0  0  0
    0.5188    3.7989   31.3401 C   0  0  0  0  0  0
    1.8530    3.8437   30.5869 C   0  0  0  0  0  0
    0.7351    6.5515   30.6053 O   0  0  0  0  0  0
   -4.7077    2.9286   30.3063 C   0  0  0  0  0  0
   -3.8963    1.7998   30.1249 C   0  0  0  0  0  0
   -4.4639    0.5665   29.8164 C   0  0  0  0  0  0
   -5.8459    0.4517   29.7071 C   0  0  0  0  0  0
   -6.6661    1.5578   29.9108 C   0  0  0  0  0  0
   -6.0954    2.7930   30.2091 C   0  0  0  0  0  0
    1.9261    3.5594   29.2193 C   0  0  0  0  0  0
    3.1413    3.6997   28.5474 C   0  0  0  0  0  0
    4.2702    4.1396   29.2399 C   0  0  0  0  0  0
    4.2113    4.3677   30.6083 C   0  0  0  0  0  0
    3.0057    4.2165   31.2824 C   0  0  0  0  0  0
    5.4749    4.3573   28.5765 N   0  0  0  0  0  0
   -4.9528    4.9081   30.5965 H   0  0  0  0  0  0
   -1.4582    7.7361   29.9332 H   0  0  0  0  0  0
   -3.6524    6.7300   30.0450 H   0  0  0  0  0  0
    0.2072    2.7569   31.3925 H   0  0  0  0  0  0
    0.7053    4.0868   32.3754 H   0  0  0  0  0  0
   -2.8242    1.8588   30.2097 H   0  0  0  0  0  0
   -3.8356   -0.2982   29.6559 H   0  0  0  0  0  0
   -6.2833   -0.5058   29.4638 H   0  0  0  0  0  0
   -7.7385    1.4604   29.8296 H   0  0  0  0  0  0
   -6.7424    3.6460   30.3533 H   0  0  0  0  0  0
    1.0434    3.2545   28.6745 H   0  0  0  0  0  0
    3.1922    3.5029   27.4869 H   0  0  0  0  0  0
    5.0877    4.6921   31.1485 H   0  0  0  0  0  0
    2.9651    4.4346   32.3391 H   0  0  0  0  0  0
    5.8463    3.4835   28.2061 H   0  0  0  0  0  0
    6.1465    4.9155   29.0838 H   0  0  0  0  0  0
  1  2  1  0  0  0
  1 11  1  0  0  0
  1 23  1  0  0  0
  2  3  2  0  0  0
  2  7  1  0  0  0
  3  4  1  0  0  0
  4  5  1  0  0  0
  4  8  1  0  0  0
  5  6  1  0  0  0
  5 10  2  0  0  0
  6  7  2  0  0  0
  6 24  1  0  0  0
  7 25  1  0  0  0
  8  9  1  0  0  0
  8 26  1  0  0  0
  8 27  1  0  0  0
  9 17  2  0  0  0
  9 21  1  0  0  0
 11 12  2  0  0  0
 11 16  1  0  0  0
 12 13  1  0  0  0
 12 28  1  0  0  0
 13 14  2  0  0  0
 13 29  1  0  0  0
 14 15  1  0  0  0
 14 30  1  0  0  0
 15 16  2  0  0  0
 15 31  1  0  0  0
 16 32  1  0  0  0
 17 18  1  0  0  0
 17 33  1  0  0  0
 18 19  2  0  0  0
 18 34  1  0  0  0
 19 20  1  0  0  0
 19 22  1  0  0  0
 20 21  2  0  0  0
 20 35  1  0  0  0
 21 36  1  0  0  0
 22 37  1  0  0  0
 22 38  1  0  0  0
M  END
> <s_m_entry_id>
10051

> <s_m_entry_name>
dock_pv.120

> <s_m_Source_Path>
/home/csk/Desktop/cluster/DUD-E-result/met

> <s_m_Source_File>
dock_pv.maegz

> <i_m_Source_File_Index>
120

> <chembl_id>
CHEMBL3417490

> <chembl_pref_name>
None

> <i_lp_mmshare_version>
53161

> <i_f3d_flags>
0

> <r_lp_tautomer_probability>
0.999999999999446

> <s_lp_Force_Field>
OPLS_2005

> <r_lp_Energy>
32.179275

> <b_lp_Chiralities_Consistent>
1

> <s_lp_Variant>
CHEMBL3717_lig2019-1

> <s_i_glide_gridfile>
glide-grid_3lq8

> <i_i_glide_lignum>
2315

> <i_i_glide_rotatable_bonds>
4

> <r_i_docking_score>
-8.3632479973601

> <r_i_glide_ligand_efficiency>
-0.380147636243641

> <r_i_glide_ligand_efficiency_sa>
-1.06518862711285

> <r_i_glide_ligand_efficiency_ln>
-2.04428286743755

> <r_i_glide_gscore>
-8.3632479973601

> <r_i_glide_lipo>
-3.82217805235225

> <r_i_glide_hbond>
-0.32

> <r_i_glide_metal>
0

> <r_i_glide_rewards>
-2.44538181012405

> <r_i_glide_evdw>
-40.6441688537598

> <r_i_glide_ecoul>
-3.96721982955933

> <r_i_glide_erotb>
0.854452343065723

> <r_i_glide_esite>
-0.00284906082763984

> <r_i_glide_emodel>
-61.3275509269735

> <r_i_glide_energy>
-44.6113886833191

> <r_i_glide_einternal>
4.7856502532959

> <i_i_glide_confnum>
7

> <i_i_glide_posenum>
249

> <r_i_glide_eff_state_penalty>
0

> <s_user_duplicate_titles>
CHEMBL3717_lig2019

> <s_m_subgroup_title>
dock_pv

> <s_m_subgroupid>
dock_pv

> <b_m_subgroup_collapsed>
1

$$$$
CHEMBL3717_lig2418
                    3D
 Schrodinger Suite 2021-1.
 41 42  0  0  1  0            999 V2000
   -2.5283    6.1686   30.5874 C   0  0  0  0  0  0
   -1.1166    5.8081   30.6874 C   0  0  0  0  0  0
   -0.6085    4.5995   30.3711 C   0  0  0  0  0  0
   -2.8940    7.3428   30.6079 O   0  0  0  0  0  0
   -3.3646    5.1255   30.4206 O   0  0  0  0  0  0
    0.8223    4.2649   30.4320 C   0  0  0  0  0  0
    1.4339    3.7194   29.3018 C   0  0  0  0  0  0
    2.8089    3.4213   29.2907 C   0  0  0  0  0  0
    3.5528    3.6455   30.4548 C   0  0  0  0  0  0
    2.9419    4.1781   31.5908 C   0  0  0  0  0  0
    1.5864    4.5025   31.5768 C   0  0  0  0  0  0
    3.4836    2.9199   28.1910 O   0  0  0  0  0  0
    2.7365    2.6482   27.0093 C   0  0  0  0  0  0
    4.8910    3.3428   30.4790 O   0  0  0  0  0  0
   -4.7552    5.3151   30.1748 C   0  0  0  0  0  0
   -5.5496    4.2977   31.0079 C   0  0  0  0  0  0
   -6.9632    2.3611   30.1949 C   0  0  0  0  0  0
   -6.7894    3.7453   30.3242 C   0  0  0  0  0  0
   -7.7835    4.5854   29.8110 C   0  0  0  0  0  0
   -8.8915    4.0248   29.1718 C   0  0  0  0  0  0
   -8.9685    2.6364   29.0575 C   0  0  0  0  0  0
   -8.0293    1.8057   29.5681 N   0  0  0  0  0  0
  -10.0289    2.0486   28.3812 N   0  0  0  0  0  0
   -0.4593    6.6010   31.0078 H   0  0  0  0  0  0
   -1.2583    3.7967   30.0479 H   0  0  0  0  0  0
    0.8278    3.5524   28.4241 H   0  0  0  0  0  0
    3.5220    4.3570   32.4832 H   0  0  0  0  0  0
    1.1311    4.9284   32.4596 H   0  0  0  0  0  0
    3.3875    2.2016   26.2582 H   0  0  0  0  0  0
    1.9201    1.9569   27.1960 H   0  0  0  0  0  0
    2.3055    3.5670   26.6084 H   0  0  0  0  0  0
    5.1766    3.0216   29.6146 H   0  0  0  0  0  0
   -5.1077    6.3260   30.3918 H   0  0  0  0  0  0
   -4.9117    5.1580   29.1108 H   0  0  0  0  0  0
   -4.8991    3.4556   31.2465 H   0  0  0  0  0  0
   -5.8313    4.7599   31.9550 H   0  0  0  0  0  0
   -6.2325    1.6641   30.5794 H   0  0  0  0  0  0
   -7.6956    5.6610   29.8866 H   0  0  0  0  0  0
   -9.6563    4.6647   28.7570 H   0  0  0  0  0  0
  -10.6880    2.6380   27.8977 H   0  0  0  0  0  0
  -10.0349    1.0453   28.2760 H   0  0  0  0  0  0
  1  2  1  0  0  0
  1  4  2  0  0  0
  1  5  1  0  0  0
  2  3  2  0  0  0
  2 24  1  0  0  0
  3  6  1  0  0  0
  3 25  1  0  0  0
  5 15  1  0  0  0
  6  7  1  0  0  0
  6 11  2  0  0  0
  7  8  2  0  0  0
  7 26  1  0  0  0
  8  9  1  0  0  0
  8 12  1  0  0  0
  9 10  2  0  0  0
  9 14  1  0  0  0
 10 11  1  0  0  0
 10 27  1  0  0  0
 11 28  1  0  0  0
 12 13  1  0  0  0
 13 29  1  0  0  0
 13 30  1  0  0  0
 13 31  1  0  0  0
 14 32  1  0  0  0
 15 16  1  0  0  0
 15 33  1  0  0  0
 15 34  1  0  0  0
 16 18  1  0  0  0
 16 35  1  0  0  0
 16 36  1  0  0  0
 17 18  1  0  0  0
 17 22  2  0  0  0
 17 37  1  0  0  0
 18 19  2  0  0  0
 19 20  1  0  0  0
 19 38  1  0  0  0
 20 21  2  0  0  0
 20 39  1  0  0  0
 21 22  1  0  0  0
 21 23  1  0  0  0
 23 40  1  0  0  0
 23 41  1  0  0  0
M  END
> <s_m_entry_id>
10052

> <s_m_entry_name>
dock_pv.121

> <s_m_Source_Path>
/home/csk/Desktop/cluster/DUD-E-result/met

> <s_m_Source_File>
dock_pv.maegz

> <i_m_Source_File_Index>
121

> <chembl_id>
CHEMBL3823321

> <chembl_pref_name>
None

> <i_lp_mmshare_version>
53161

> <i_f3d_flags>
0

> <r_lp_tautomer_probability>
0.999999772200052

> <s_lp_Force_Field>
OPLS_2005

> <r_lp_Energy>
12.695843

> <b_lp_Chiralities_Consistent>
1

> <s_lp_Variant>
CHEMBL3717_lig2418-1

> <s_i_glide_gridfile>
glide-grid_3lq8

> <i_i_glide_lignum>
2744

> <i_i_glide_rotatable_bonds>
8

> <r_i_docking_score>
-8.36300747296461

> <r_i_glide_ligand_efficiency>
-0.363609020563679

> <r_i_glide_ligand_efficiency_sa>
-1.03405568607646

> <r_i_glide_ligand_efficiency_ln>
-2.02225103852204

> <r_i_glide_gscore>
-8.36300747296461

> <r_i_glide_lipo>
-3.59193310591393

> <r_i_glide_hbond>
-0.32

> <r_i_glide_metal>
0

> <r_i_glide_rewards>
-2.77415085050649

> <r_i_glide_evdw>
-38.0873718261719

> <r_i_glide_ecoul>
-6.00823545455933

> <r_i_glide_erotb>
1.1286803929483

> <r_i_glide_esite>
0

> <r_i_glide_emodel>
-60.256346964728

> <r_i_glide_energy>
-44.0956072807312

> <r_i_glide_einternal>
11.9337730407715

> <i_i_glide_confnum>
27

> <i_i_glide_posenum>
8

> <r_i_glide_eff_state_penalty>
0

> <s_user_duplicate_titles>
CHEMBL3717_lig2418

> <s_m_subgroup_title>
dock_pv

> <s_m_subgroupid>
dock_pv

> <b_m_subgroup_collapsed>
1

$$$$
CHEMBL3717_lig3837
                    3D
 Schrodinger Suite 2021-1.
 39 42  0  0  1  0            999 V2000
    2.6076    4.3568   32.2551 F   0  0  0  0  0  0
    5.0580    4.2766   31.0076 F   0  0  0  0  0  0
   -0.2100    3.1571   31.4109 O   0  0  0  0  0  0
   -6.1121    5.5568   30.6082 N   0  0  0  0  0  0
   -3.9906    6.7267   30.6101 N   0  0  0  0  0  0
   -0.6309    5.2072   30.5226 N   0  0  0  0  0  0
   -4.2582    4.2832   30.5990 C   0  0  0  0  0  0
   -5.4049    3.4059   30.5825 C   0  0  0  0  0  0
   -4.7387    5.6178   30.6083 C   0  0  0  0  0  0
   -2.0393    5.2591   30.6119 C   0  0  0  0  0  0
   -2.8633    4.1171   30.6082 C   0  0  0  0  0  0
   -5.4199    1.9152   30.4965 C   0  0  0  0  0  0
   -6.5110    4.2436   30.6024 C   0  0  0  0  0  0
    1.5026    4.1274   30.1405 C   0  0  0  0  0  0
    0.1465    4.1347   30.7698 C   0  0  0  0  0  0
   -2.6488    6.5144   30.6070 C   0  0  0  0  0  0
    2.6716    4.2199   30.9097 C   0  0  0  0  0  0
    3.9219    4.1556   30.2849 C   0  0  0  0  0  0
    1.5999    3.9570   28.7566 C   0  0  0  0  0  0
   -6.4050    1.1896   31.1751 C   0  0  0  0  0  0
   -4.4355    1.2339   29.7735 C   0  0  0  0  0  0
    4.0076    3.9568   28.9090 C   0  0  0  0  0  0
    2.8454    3.8432   28.1486 C   0  0  0  0  0  0
   -6.4046   -0.2015   31.1357 C   0  0  0  0  0  0
   -4.4391   -0.1576   29.7271 C   0  0  0  0  0  0
   -5.4210   -0.8701   30.4106 C   0  0  0  0  0  0
   -6.7568    6.3337   30.5579 H   0  0  0  0  0  0
   -0.1803    6.0139   30.1169 H   0  0  0  0  0  0
   -2.4527    3.1212   30.5932 H   0  0  0  0  0  0
   -7.5648    4.0038   30.5697 H   0  0  0  0  0  0
   -2.0452    7.4113   30.5875 H   0  0  0  0  0  0
    0.7062    3.8541   28.1578 H   0  0  0  0  0  0
   -7.1614    1.7012   31.7517 H   0  0  0  0  0  0
   -3.6773    1.7722   29.2276 H   0  0  0  0  0  0
    4.9756    3.8793   28.4370 H   0  0  0  0  0  0
    2.8991    3.6633   27.0854 H   0  0  0  0  0  0
   -7.1620   -0.7596   31.6672 H   0  0  0  0  0  0
   -3.6911   -0.6858   29.1512 H   0  0  0  0  0  0
   -5.4200   -1.9499   30.3739 H   0  0  0  0  0  0
  1 17  1  0  0  0
  2 18  1  0  0  0
  3 15  2  0  0  0
  4  9  1  0  0  0
  4 13  1  0  0  0
  4 27  1  0  0  0
  5  9  2  0  0  0
  5 16  1  0  0  0
  6 10  1  0  0  0
  6 15  1  0  0  0
  6 28  1  0  0  0
  7  8  1  0  0  0
  7  9  1  0  0  0
  7 11  2  0  0  0
  8 12  1  0  0  0
  8 13  2  0  0  0
 10 11  1  0  0  0
 10 16  2  0  0  0
 11 29  1  0  0  0
 12 20  2  0  0  0
 12 21  1  0  0  0
 13 30  1  0  0  0
 14 15  1  0  0  0
 14 17  2  0  0  0
 14 19  1  0  0  0
 16 31  1  0  0  0
 17 18  1  0  0  0
 18 22  2  0  0  0
 19 23  2  0  0  0
 19 32  1  0  0  0
 20 24  1  0  0  0
 20 33  1  0  0  0
 21 25  2  0  0  0
 21 34  1  0  0  0
 22 23  1  0  0  0
 22 35  1  0  0  0
 23 36  1  0  0  0
 24 26  2  0  0  0
 24 37  1  0  0  0
 25 26  1  0  0  0
 25 38  1  0  0  0
 26 39  1  0  0  0
M  END
> <s_m_entry_id>
10053

> <s_m_entry_name>
dock_pv.122

> <s_m_Source_Path>
/home/csk/Desktop/cluster/DUD-E-result/met

> <s_m_Source_File>
dock_pv.maegz

> <i_m_Source_File_Index>
122

> <chembl_id>
CHEMBL1974416

> <chembl_pref_name>
None

> <i_lp_mmshare_version>
53161

> <i_f3d_flags>
0

> <r_lp_tautomer_probability>
0.999998432528457

> <s_lp_Force_Field>
OPLS_2005

> <r_lp_Energy>
24.916623

> <b_lp_Chiralities_Consistent>
1

> <s_lp_Variant>
CHEMBL3717_lig3837-1

> <s_i_glide_gridfile>
glide-grid_3lq8

> <i_i_glide_lignum>
4863

> <i_i_glide_rotatable_bonds>
4

> <r_i_docking_score>
-8.36279574882999

> <r_i_glide_ligand_efficiency>
-0.321645990339615

> <r_i_glide_ligand_efficiency_sa>
-0.952874980765252

> <r_i_glide_ligand_efficiency_ln>
-1.96397514104172

> <r_i_glide_gscore>
-8.36279574882999

> <r_i_glide_lipo>
-3.4071402906177

> <r_i_glide_hbond>
-0.227338289602463

> <r_i_glide_metal>
0

> <r_i_glide_rewards>
-2.83753707311515

> <r_i_glide_evdw>
-40.8846054077148

> <r_i_glide_ecoul>
-3.13922548294067

> <r_i_glide_erotb>
0.624333997332158

> <r_i_glide_esite>
0

> <r_i_glide_emodel>
-61.730546598116

> <r_i_glide_energy>
-44.0238308906555

> <r_i_glide_einternal>
6.65000438690186

> <i_i_glide_confnum>
94

> <i_i_glide_posenum>
359

> <r_i_glide_eff_state_penalty>
0

> <s_user_duplicate_titles>
CHEMBL3717_lig3837

> <s_m_subgroup_title>
dock_pv

> <s_m_subgroupid>
dock_pv

> <b_m_subgroup_collapsed>
1

$$$$
CHEMBL3717_lig3945
                    3D
 Schrodinger Suite 2021-1.
 51 54  0  0  1  0            999 V2000
   -1.6579   -0.0429   34.2078 F   0  0  0  0  0  0
   -0.8940   -2.0576   34.1085 F   0  0  0  0  0  0
    0.0540   -0.4431   33.0080 F   0  0  0  0  0  0
   -4.5792    2.7798   30.5577 O   0  0  0  0  0  0
    0.7905    4.6973   31.7545 N   0  0  0  0  0  0
    4.1701    3.7347   30.5608 N   0  0  0  0  0  0
    4.2620    3.2649   29.3034 N   0  0  0  0  0  0
   -3.2147    6.1757   30.6083 N   0  0  0  0  0  0
   -6.8390    1.2933   29.5129 N   0  0  0  0  0  0
    2.0963    3.6423   29.5155 C   0  0  0  0  0  0
    2.8307    3.9738   30.6925 C   0  0  0  0  0  0
    0.1018    4.3671   30.6302 C   0  0  0  0  0  0
    3.0769    3.1704   28.6070 C   0  0  0  0  0  0
    0.7069    3.8250   29.4925 C   0  0  0  0  0  0
   -1.3585    4.6090   30.6637 C   0  0  0  0  0  0
    2.1293    4.4802   31.7953 C   0  0  0  0  0  0
   -2.2671    3.5439   30.6472 C   0  0  0  0  0  0
   -3.6461    3.7910   30.5973 C   0  0  0  0  0  0
   -1.8838    5.9070   30.6279 C   0  0  0  0  0  0
   -2.0102   -1.2425   32.2082 C   0  0  0  0  0  0
   -1.1101   -0.9451   33.4049 C   0  0  0  0  0  0
   -4.0655   -0.8744   30.9607 C   0  0  0  0  0  0
    2.9749    2.6162   27.2057 C   0  0  0  0  0  0
   -3.2450   -0.6004   32.0575 C   0  0  0  0  0  0
   -4.0711    5.1224   30.5986 C   0  0  0  0  0  0
   -1.6040   -2.1683   31.2424 C   0  0  0  0  0  0
   -5.4054   -0.1641   30.8188 C   0  0  0  0  0  0
   -3.6441   -1.7996   30.0004 C   0  0  0  0  0  0
   -5.5034    0.7217   29.5596 C   0  0  2  0  0  0
   -4.4315    1.8371   29.4918 C   0  0  0  0  0  0
   -2.4154   -2.4429   30.1415 C   0  0  0  0  0  0
    5.1545    2.9549   28.9233 H   0  0  0  0  0  0
   -6.9395    1.9366   30.2865 H   0  0  0  0  0  0
   -6.9621    1.8413   28.6746 H   0  0  0  0  0  0
    0.1344    3.5564   28.6184 H   0  0  0  0  0  0
    2.6384    4.7459   32.7078 H   0  0  0  0  0  0
   -1.9002    2.5293   30.6666 H   0  0  0  0  0  0
   -1.2261    6.7639   30.6067 H   0  0  0  0  0  0
    2.7260    1.5570   27.2154 H   0  0  0  0  0  0
    2.1998    3.1106   26.6159 H   0  0  0  0  0  0
    3.9058    2.7230   26.6548 H   0  0  0  0  0  0
   -3.5760    0.1162   32.7942 H   0  0  0  0  0  0
   -5.1248    5.3608   30.5651 H   0  0  0  0  0  0
   -0.6560   -2.6760   31.3445 H   0  0  0  0  0  0
   -6.1827   -0.9297   30.7960 H   0  0  0  0  0  0
   -5.6051    0.4320   31.7119 H   0  0  0  0  0  0
   -4.2655   -2.0230   29.1448 H   0  0  0  0  0  0
   -5.3947    0.0871   28.6787 H   0  0  0  0  0  0
   -3.4444    1.3752   29.5109 H   0  0  0  0  0  0
   -4.4994    2.3564   28.5363 H   0  0  0  0  0  0
   -2.1031   -3.1719   29.4074 H   0  0  0  0  0  0
  1 21  1  0  0  0
  2 21  1  0  0  0
  3 21  1  0  0  0
  4 18  1  0  0  0
  4 30  1  0  0  0
  5 16  2  0  0  0
  5 12  1  0  0  0
  6  7  1  0  0  0
  6 11  2  0  0  0
  7 13  1  0  0  0
  7 32  1  0  0  0
  8 19  1  0  0  0
  8 25  2  0  0  0
  9 29  1  0  0  0
  9 33  1  0  0  0
  9 34  1  0  0  0
 10 14  1  0  0  0
 10 13  2  0  0  0
 10 11  1  0  0  0
 11 16  1  0  0  0
 12 15  1  0  0  0
 12 14  2  0  0  0
 13 23  1  0  0  0
 14 35  1  0  0  0
 15 17  1  0  0  0
 15 19  2  0  0  0
 16 36  1  0  0  0
 17 18  2  0  0  0
 17 37  1  0  0  0
 18 25  1  0  0  0
 19 38  1  0  0  0
 20 21  1  0  0  0
 20 24  2  0  0  0
 20 26  1  0  0  0
 22 24  1  0  0  0
 22 27  1  0  0  0
 22 28  2  0  0  0
 23 39  1  0  0  0
 23 40  1  0  0  0
 23 41  1  0  0  0
 24 42  1  0  0  0
 25 43  1  0  0  0
 26 31  2  0  0  0
 26 44  1  0  0  0
 27 29  1  0  0  0
 27 45  1  0  0  0
 27 46  1  0  0  0
 28 31  1  0  0  0
 28 47  1  0  0  0
 29 30  1  0  0  0
 29 48  1  0  0  0
 30 49  1  0  0  0
 30 50  1  0  0  0
 31 51  1  0  0  0
M  END
> <s_m_entry_id>
10054

> <s_m_entry_name>
dock_pv.123

> <s_m_Source_Path>
/home/csk/Desktop/cluster/DUD-E-result/met

> <s_m_Source_File>
dock_pv.maegz

> <i_m_Source_File_Index>
123

> <chembl_id>
CHEMBL1998159

> <chembl_pref_name>
None

> <i_lp_mmshare_version>
53161

> <i_f3d_flags>
0

> <r_lp_tautomer_probability>
0.0448800538560646

> <s_lp_Force_Field>
OPLS_2005

> <r_lp_Energy>
40.770312

> <b_lp_Chiralities_Consistent>
1

> <s_lp_Variant>
CHEMBL3717_lig3945-3

> <s_i_glide_gridfile>
glide-grid_3lq8

> <i_i_glide_lignum>
5011

> <i_i_glide_rotatable_bonds>
7

> <r_i_docking_score>
-8.35921983826327

> <r_i_glide_ligand_efficiency>
-0.269652252847202

> <r_i_glide_ligand_efficiency_sa>
-0.847080368998332

> <r_i_glide_ligand_efficiency_ln>
-1.88526025285044

> <r_i_glide_gscore>
-8.35921983826327

> <r_i_glide_lipo>
-4.28692503406952

> <r_i_glide_hbond>
-0.32

> <r_i_glide_metal>
0

> <r_i_glide_rewards>
-1.44161923859837

> <r_i_glide_evdw>
-46.3285598754883

> <r_i_glide_ecoul>
-4.21745109558105

> <r_i_glide_erotb>
0.652081160339691

> <r_i_glide_esite>
-0.0137110678234986

> <r_i_glide_emodel>
-66.4509608708008

> <r_i_glide_energy>
-50.5460109710693

> <r_i_glide_einternal>
12.2294015884399

> <i_i_glide_confnum>
3

> <i_i_glide_posenum>
118

> <r_i_glide_eff_state_penalty>
0

> <s_user_duplicate_titles>
CHEMBL3717_lig3945

> <s_m_subgroup_title>
dock_pv

> <s_m_subgroupid>
dock_pv

> <b_m_subgroup_collapsed>
1

$$$$
CHEMBL3717_lig4242
                    3D
 Schrodinger Suite 2021-1.
 27 29  0  0  1  0            999 V2000
    4.9242    3.9391   30.2085 Br  0  0  0  0  0  0
   -3.5892    6.7572   30.4944 N   0  0  0  0  0  0
   -2.4933    7.4904   30.2159 N   0  0  0  0  0  0
   -0.2137    7.1189   29.9068 N   0  0  0  0  0  0
   -1.8747    5.3462   30.5298 C   0  0  0  0  0  0
   -1.2447    4.0945   30.6710 C   0  0  0  0  0  0
   -3.2938    5.4224   30.5623 C   0  0  0  0  0  0
   -1.4731    6.6859   30.2088 C   0  0  0  0  0  0
    0.2412    3.9916   30.6128 C   0  0  0  0  0  0
   -2.0883    2.9713   30.7041 C   0  0  0  0  0  0
   -4.1175    4.2999   30.6073 C   0  0  0  0  0  0
   -3.4742    3.0674   30.6099 C   0  0  0  0  0  0
    0.8530    3.5570   29.4347 C   0  0  0  0  0  0
    1.0537    4.3990   31.6808 C   0  0  0  0  0  0
    3.0296    3.9343   30.3805 C   0  0  0  0  0  0
    2.2389    3.5244   29.3128 C   0  0  0  0  0  0
    2.4408    4.3569   31.5688 C   0  0  0  0  0  0
   -4.5121    7.1718   30.5085 H   0  0  0  0  0  0
    0.5903    6.5101   29.9762 H   0  0  0  0  0  0
   -0.0435    8.0892   29.6745 H   0  0  0  0  0  0
   -1.6941    1.9750   30.7598 H   0  0  0  0  0  0
   -5.1955    4.3737   30.5938 H   0  0  0  0  0  0
   -4.0648    2.1623   30.6165 H   0  0  0  0  0  0
    0.2432    3.2328   28.6080 H   0  0  0  0  0  0
    0.6303    4.7650   32.6046 H   0  0  0  0  0  0
    2.6934    3.1879   28.3925 H   0  0  0  0  0  0
    3.0596    4.6781   32.3930 H   0  0  0  0  0  0
  1 15  1  0  0  0
  2  3  1  0  0  0
  2  7  1  0  0  0
  2 18  1  0  0  0
  3  8  2  0  0  0
  4  8  1  0  0  0
  4 19  1  0  0  0
  4 20  1  0  0  0
  5  6  2  0  0  0
  5  7  1  0  0  0
  5  8  1  0  0  0
  6  9  1  0  0  0
  6 10  1  0  0  0
  7 11  2  0  0  0
  9 13  2  0  0  0
  9 14  1  0  0  0
 10 12  2  0  0  0
 10 21  1  0  0  0
 11 12  1  0  0  0
 11 22  1  0  0  0
 12 23  1  0  0  0
 13 16  1  0  0  0
 13 24  1  0  0  0
 14 17  2  0  0  0
 14 25  1  0  0  0
 15 16  2  0  0  0
 15 17  1  0  0  0
 16 26  1  0  0  0
 17 27  1  0  0  0
M  END
> <s_m_entry_id>
10055

> <s_m_entry_name>
dock_pv.124

> <s_m_Source_Path>
/home/csk/Desktop/cluster/DUD-E-result/met

> <s_m_Source_File>
dock_pv.maegz

> <i_m_Source_File_Index>
124

> <chembl_id>
CHEMBL1990346

> <chembl_pref_name>
None

> <i_lp_mmshare_version>
53161

> <i_f3d_flags>
0

> <r_lp_tautomer_probability>
1

> <s_lp_Force_Field>
OPLS_2005

> <r_lp_Energy>
14.233839

> <b_lp_Chiralities_Consistent>
1

> <s_lp_Variant>
CHEMBL3717_lig4242-1

> <s_i_glide_gridfile>
glide-grid_3lq8

> <i_i_glide_lignum>
5449

> <i_i_glide_rotatable_bonds>
1

> <r_i_docking_score>
-8.35788511552269

> <r_i_glide_ligand_efficiency>
-0.491640300913099

> <r_i_glide_ligand_efficiency_sa>
-1.26414565376966

> <r_i_glide_ligand_efficiency_ln>
-2.18038610568922

> <r_i_glide_gscore>
-8.35788511552269

> <r_i_glide_lipo>
-3.52454908533148

> <r_i_glide_hbond>
-0.312051676837184

> <r_i_glide_metal>
0

> <r_i_glide_rewards>
-2.88581500328709

> <r_i_glide_evdw>
-27.7202262878418

> <r_i_glide_ecoul>
-2.68534350395203

> <r_i_glide_erotb>
0.153343489917966

> <r_i_glide_esite>
0

> <r_i_glide_emodel>
-41.9569404486939

> <r_i_glide_energy>
-30.4055697917938

> <r_i_glide_einternal>
1.0567352771759

> <i_i_glide_confnum>
2

> <i_i_glide_posenum>
200

> <r_i_glide_eff_state_penalty>
0

> <s_user_duplicate_titles>
CHEMBL3717_lig4242

> <s_m_subgroup_title>
dock_pv

> <s_m_subgroupid>
dock_pv

> <b_m_subgroup_collapsed>
1

$$$$
CHEMBL3717_lig2109
                    3D
 Schrodinger Suite 2021-1.
 50 54  0  0  1  0            999 V2000
    1.1216    4.1009   30.6199 C   0  0  0  0  0  0
   -0.0997    4.9829   30.5310 C   0  0  0  0  0  0
   -1.3813    4.4408   30.7381 C   0  0  0  0  0  0
   -2.5424    5.2173   30.5752 C   0  0  0  0  0  0
   -2.3821    6.5717   30.2607 C   0  0  0  0  0  0
   -1.1218    7.1331   30.0769 C   0  0  0  0  0  0
    0.0150    6.3430   30.2077 C   0  0  0  0  0  0
    1.1616    3.1576   31.4070 O   0  0  0  0  0  0
    2.1176    4.3895   29.7636 N   0  0  0  0  0  0
    3.3634    3.6380   29.6486 C   0  0  0  0  0  0
   -6.5262    3.5213   30.6080 C   0  0  0  0  0  0
   -6.3093    4.8270   31.0698 C   0  0  0  0  0  0
   -5.0215    5.3607   31.0336 C   0  0  0  0  0  0
   -3.9147    4.6196   30.6080 C   0  0  0  0  0  0
   -4.1447    3.3092   30.1798 C   0  0  0  0  0  0
   -5.4175    2.7885   30.1576 N   0  0  0  0  0  0
   -7.6689    2.7946   30.5248 N   0  0  0  0  0  0
   -7.2884    1.6519   30.0025 C   0  0  0  0  0  0
   -5.9233    1.5753   29.7317 C   0  0  0  0  0  0
   -5.0969    0.4860   29.0629 C   0  0  0  0  0  0
   -1.3417   -2.4443   32.1942 N   0  0  0  0  0  0
   -0.8941   -1.9265   33.3604 C   0  0  0  0  0  0
   -1.2175   -0.6540   33.8078 C   0  0  0  0  0  0
   -2.1013    0.1136   33.0639 C   0  0  0  0  0  0
   -2.6713   -0.4369   31.8954 C   0  0  0  0  0  0
   -3.6398    0.2463   31.1456 C   0  0  0  0  0  0
   -4.1235   -0.2847   29.9491 C   0  0  0  0  0  0
   -3.6727   -1.5357   29.5241 C   0  0  0  0  0  0
   -2.7490   -2.2621   30.2689 C   0  0  0  0  0  0
   -2.2349   -1.7236   31.4687 C   0  0  0  0  0  0
   -7.3271    5.5555   31.5718 F   0  0  0  0  0  0
   -1.4770    3.3900   30.9749 H   0  0  0  0  0  0
   -3.2506    7.1920   30.1251 H   0  0  0  0  0  0
   -1.0261    8.1794   29.8255 H   0  0  0  0  0  0
    0.9820    6.8018   30.0556 H   0  0  0  0  0  0
    1.9715    5.1315   29.0972 H   0  0  0  0  0  0
    4.1997    4.3238   29.5101 H   0  0  0  0  0  0
    3.3207    2.9762   28.7830 H   0  0  0  0  0  0
    3.5716    3.0303   30.5307 H   0  0  0  0  0  0
   -4.8887    6.3655   31.4011 H   0  0  0  0  0  0
   -3.3635    2.6636   29.8097 H   0  0  0  0  0  0
   -8.0078    0.8718   29.7952 H   0  0  0  0  0  0
   -5.7726   -0.2405   28.6081 H   0  0  0  0  0  0
   -4.5249    0.8972   28.2301 H   0  0  0  0  0  0
   -0.2169   -2.5498   33.9264 H   0  0  0  0  0  0
   -0.8279   -0.2843   34.7429 H   0  0  0  0  0  0
   -2.3895    1.0977   33.3992 H   0  0  0  0  0  0
   -3.9813    1.1874   31.5328 H   0  0  0  0  0  0
   -4.0501   -1.9625   28.6081 H   0  0  0  0  0  0
   -2.4274   -3.2397   29.9362 H   0  0  0  0  0  0
  1  2  1  0  0  0
  1  8  2  0  0  0
  1  9  1  0  0  0
  2  3  1  0  0  0
  2  7  2  0  0  0
  3  4  2  0  0  0
  3 32  1  0  0  0
  4  5  1  0  0  0
  4 14  1  0  0  0
  5  6  2  0  0  0
  5 33  1  0  0  0
  6  7  1  0  0  0
  6 34  1  0  0  0
  7 35  1  0  0  0
  9 10  1  0  0  0
  9 36  1  0  0  0
 10 37  1  0  0  0
 10 38  1  0  0  0
 10 39  1  0  0  0
 11 12  1  0  0  0
 11 16  1  0  0  0
 11 17  2  0  0  0
 12 13  2  0  0  0
 12 31  1  0  0  0
 13 14  1  0  0  0
 13 40  1  0  0  0
 14 15  2  0  0  0
 15 16  1  0  0  0
 15 41  1  0  0  0
 16 19  1  0  0  0
 17 18  1  0  0  0
 18 19  2  0  0  0
 18 42  1  0  0  0
 19 20  1  0  0  0
 20 27  1  0  0  0
 20 43  1  0  0  0
 20 44  1  0  0  0
 21 22  2  0  0  0
 21 30  1  0  0  0
 22 23  1  0  0  0
 22 45  1  0  0  0
 23 24  2  0  0  0
 23 46  1  0  0  0
 24 25  1  0  0  0
 24 47  1  0  0  0
 25 26  2  0  0  0
 25 30  1  0  0  0
 26 27  1  0  0  0
 26 48  1  0  0  0
 27 28  2  0  0  0
 28 29  1  0  0  0
 28 49  1  0  0  0
 29 30  2  0  0  0
 29 50  1  0  0  0
M  END
> <s_m_entry_id>
10056

> <s_m_entry_name>
dock_pv.125

> <s_m_Source_Path>
/home/csk/Desktop/cluster/DUD-E-result/met

> <s_m_Source_File>
dock_pv.maegz

> <i_m_Source_File_Index>
125

> <chembl_id>
CHEMBL3582290

> <chembl_pref_name>
None

> <i_lp_mmshare_version>
53161

> <i_f3d_flags>
0

> <r_lp_tautomer_probability>
1

> <s_lp_Force_Field>
OPLS_2005

> <r_lp_Energy>
21.825378

> <b_lp_Chiralities_Consistent>
1

> <s_lp_Variant>
CHEMBL3717_lig2109-1

> <s_i_glide_gridfile>
glide-grid_3lq8

> <i_i_glide_lignum>
2407

> <i_i_glide_rotatable_bonds>
5

> <r_i_docking_score>
-8.35742231938821

> <r_i_glide_ligand_efficiency>
-0.269594268367362

> <r_i_glide_ligand_efficiency_sa>
-0.84689821767543

> <r_i_glide_ligand_efficiency_ln>
-1.88485485725677

> <r_i_glide_gscore>
-8.35742231938821

> <r_i_glide_lipo>
-4.22193309443426

> <r_i_glide_hbond>
0

> <r_i_glide_metal>
0

> <r_i_glide_rewards>
-2.13482424190179

> <r_i_glide_evdw>
-47.3828201293945

> <r_i_glide_ecoul>
-0.649642288684845

> <r_i_glide_erotb>
0.467763187829282

> <r_i_glide_esite>
-0.00184082110898734

> <r_i_glide_emodel>
-67.9301387312317

> <r_i_glide_energy>
-48.0324624180794

> <r_i_glide_einternal>
2.69204378128052

> <i_i_glide_confnum>
16

> <i_i_glide_posenum>
247

> <r_i_glide_eff_state_penalty>
0

> <s_user_duplicate_titles>
CHEMBL3717_lig2109

> <s_m_subgroup_title>
dock_pv

> <s_m_subgroupid>
dock_pv

> <b_m_subgroup_collapsed>
1

$$$$
CHEMBL3717_lig3758
                    3D
 Schrodinger Suite 2021-1.
 25 27  0  0  1  0            999 V2000
   -4.1246    1.5802   30.6080 Br  0  0  0  0  0  0
   -0.5607    6.7921   30.2080 N   0  0  0  0  0  0
   -1.8547    7.1570   30.2080 N   0  0  0  0  0  0
   -1.5978    4.8845   30.6080 C   0  0  0  0  0  0
   -0.3085    5.4722   30.5045 C   0  0  0  0  0  0
   -2.5047    5.9728   30.4092 C   0  0  0  0  0  0
    1.0389    4.8510   30.5581 C   0  0  0  0  0  0
   -2.0909    3.5803   30.7540 C   0  0  0  0  0  0
   -3.8893    5.7450   30.3810 C   0  0  0  0  0  0
   -3.4607    3.3640   30.6080 C   0  0  0  0  0  0
   -4.3460    4.4298   30.4540 C   0  0  0  0  0  0
    1.4118    4.0739   31.6556 C   0  0  0  0  0  0
    1.9060    4.9859   29.4735 C   0  0  0  0  0  0
    2.6551    3.4463   31.6775 C   0  0  0  0  0  0
    3.1489    4.3570   29.4902 C   0  0  0  0  0  0
    3.5184    3.5904   30.5932 C   0  0  0  0  0  0
    0.1680    7.4741   30.0544 H   0  0  0  0  0  0
   -1.4136    2.7491   30.8696 H   0  0  0  0  0  0
   -4.5871    6.5563   30.2305 H   0  0  0  0  0  0
   -5.4046    4.2318   30.3692 H   0  0  0  0  0  0
    0.7376    3.9570   32.4897 H   0  0  0  0  0  0
    1.6051    5.5570   28.6080 H   0  0  0  0  0  0
    2.9418    2.8442   32.5269 H   0  0  0  0  0  0
    3.8183    4.4537   28.6477 H   0  0  0  0  0  0
    4.4793    3.0970   30.6007 H   0  0  0  0  0  0
  1 10  1  0  0  0
  2 17  1  0  0  0
  2  3  1  0  0  0
  2  5  1  0  0  0
  3  6  2  0  0  0
  4  8  1  0  0  0
  4  6  1  0  0  0
  4  5  2  0  0  0
  5  7  1  0  0  0
  6  9  1  0  0  0
  7 12  2  0  0  0
  7 13  1  0  0  0
  8 10  2  0  0  0
  8 18  1  0  0  0
  9 19  1  0  0  0
  9 11  2  0  0  0
 10 11  1  0  0  0
 11 20  1  0  0  0
 12 14  1  0  0  0
 12 21  1  0  0  0
 13 15  2  0  0  0
 13 22  1  0  0  0
 14 16  2  0  0  0
 14 23  1  0  0  0
 15 16  1  0  0  0
 15 24  1  0  0  0
 16 25  1  0  0  0
M  END
> <s_m_entry_id>
10057

> <s_m_entry_name>
dock_pv.126

> <s_m_Source_Path>
/home/csk/Desktop/cluster/DUD-E-result/met

> <s_m_Source_File>
dock_pv.maegz

> <i_m_Source_File_Index>
126

> <chembl_id>
CHEMBL1994074

> <chembl_pref_name>
None

> <i_lp_mmshare_version>
53161

> <i_f3d_flags>
0

> <r_lp_tautomer_probability>
0.0196078431372549

> <s_lp_Force_Field>
OPLS_2005

> <r_lp_Energy>
25.621849

> <b_lp_Chiralities_Consistent>
1

> <s_lp_Variant>
CHEMBL3717_lig3758-2

> <s_i_glide_gridfile>
glide-grid_3lq8

> <i_i_glide_lignum>
4754

> <i_i_glide_rotatable_bonds>
1

> <r_i_docking_score>
-8.34785545254298

> <r_i_glide_ligand_efficiency>
-0.521740965783936

> <r_i_glide_ligand_efficiency_sa>
-1.31470484955228

> <r_i_glide_ligand_efficiency_ln>
-2.21276583989438

> <r_i_glide_gscore>
-8.34785545254298

> <r_i_glide_lipo>
-3.70248595668906

> <r_i_glide_hbond>
0

> <r_i_glide_metal>
0

> <r_i_glide_rewards>
-3.19685481818182

> <r_i_glide_evdw>
-31.3960952758789

> <r_i_glide_ecoul>
-0.794094383716583

> <r_i_glide_erotb>
0.24040424367933

> <r_i_glide_esite>
0

> <r_i_glide_emodel>
-45.6600265214341

> <r_i_glide_energy>
-32.1901896595955

> <r_i_glide_einternal>
2.26913380622864

> <i_i_glide_confnum>
3

> <i_i_glide_posenum>
53

> <r_i_glide_eff_state_penalty>
0

> <s_user_duplicate_titles>
CHEMBL3717_lig3758,CHEMBL3717_lig3758

> <s_m_subgroup_title>
dock_pv

> <s_m_subgroupid>
dock_pv

> <b_m_subgroup_collapsed>
1

$$$$
CHEMBL3717_lig3639
                    3D
 Schrodinger Suite 2021-1.
 32 34  0  0  1  0            999 V2000
   -3.0260    1.7557   31.0082 I   0  0  0  0  0  0
    1.8352    4.5292   29.2208 O   0  0  0  0  0  0
    2.7060    3.9584   32.6079 O   0  0  0  0  0  0
    4.8285    2.9930   30.4856 O   0  0  0  0  0  0
    2.2580    2.8589   27.0080 O   0  0  0  0  0  0
    0.2104    4.4756   30.8517 N   0  0  0  0  0  0
   -0.3433    3.2539   31.0079 N   0  0  0  0  0  0
   -0.6083    6.6811   30.2458 N   0  0  0  0  0  0
   -3.0400    6.8541   30.2878 N   0  0  0  0  0  0
   -4.4468    5.0216   30.6084 N   0  0  0  0  0  0
    1.6186    4.6592   30.5860 C   0  0  1  0  0  0
   -0.7750    5.4075   30.6081 C   0  0  0  0  0  0
   -2.0152    4.7439   30.7550 C   0  0  0  0  0  0
    2.5802    3.6731   31.2353 C   0  0  1  0  0  0
   -1.6451    3.3891   30.9760 C   0  0  0  0  0  0
    3.7922    3.9535   30.3498 C   0  0  2  0  0  0
    3.1493    4.0551   28.9512 C   0  0  1  0  0  0
   -3.1590    5.5387   30.5746 C   0  0  0  0  0  0
   -1.7819    7.3372   30.1248 C   0  0  0  0  0  0
    2.9485    2.7150   28.2210 C   0  0  0  0  0  0
    1.9166    3.6483   33.0600 H   0  0  0  0  0  0
    5.4132    3.0457   29.7211 H   0  0  0  0  0  0
    1.8354    2.0241   26.7874 H   0  0  0  0  0  0
   -4.5864    4.0391   30.7884 H   0  0  0  0  0  0
   -5.2183    5.6430   30.4081 H   0  0  0  0  0  0
    1.8504    5.6888   30.8737 H   0  0  0  0  0  0
    2.2239    2.6524   31.0792 H   0  0  0  0  0  0
    4.2019    4.9327   30.6111 H   0  0  0  0  0  0
    3.7010    4.7566   28.3252 H   0  0  0  0  0  0
   -1.6938    8.3569   29.8090 H   0  0  0  0  0  0
    2.4047    2.0082   28.8467 H   0  0  0  0  0  0
    3.9070    2.2822   27.9860 H   0  0  0  0  0  0
  1 15  1  0  0  0
  2 11  1  0  0  0
  2 17  1  0  0  0
  3 14  1  0  0  0
  3 21  1  0  0  0
  4 16  1  0  0  0
  4 22  1  0  0  0
  5 20  1  0  0  0
  5 23  1  0  0  0
  6  7  1  0  0  0
  6 11  1  0  0  0
  6 12  1  0  0  0
  7 15  2  0  0  0
  8 12  1  0  0  0
  8 19  2  0  0  0
  9 18  2  0  0  0
  9 19  1  0  0  0
 10 18  1  0  0  0
 10 24  1  0  0  0
 10 25  1  0  0  0
 11 14  1  0  0  0
 11 26  1  0  0  0
 12 13  2  0  0  0
 13 15  1  0  0  0
 13 18  1  0  0  0
 14 16  1  0  0  0
 14 27  1  0  0  0
 16 17  1  0  0  0
 16 28  1  0  0  0
 17 20  1  0  0  0
 17 29  1  0  0  0
 19 30  1  0  0  0
 20 31  1  0  0  0
 20 32  1  0  0  0
M  END
> <s_m_entry_id>
10058

> <s_m_entry_name>
dock_pv.127

> <s_m_Source_Path>
/home/csk/Desktop/cluster/DUD-E-result/met

> <s_m_Source_File>
dock_pv.maegz

> <i_m_Source_File_Index>
127

> <chembl_id>
CHEMBL2001288

> <chembl_pref_name>
None

> <i_lp_mmshare_version>
53161

> <i_f3d_flags>
0

> <r_lp_tautomer_probability>
1

> <s_lp_Force_Field>
OPLS_2005

> <r_lp_Energy>
34.066756

> <b_lp_Chiralities_Consistent>
1

> <s_lp_Variant>
CHEMBL3717_lig3639-12

> <s_i_glide_gridfile>
glide-grid_3lq8

> <i_i_glide_lignum>
4553

> <i_i_glide_rotatable_bonds>
5

> <r_i_docking_score>
-8.3409639155407

> <r_i_glide_ligand_efficiency>
-0.417048195777035

> <r_i_glide_ligand_efficiency_sa>
-1.13204296845587

> <r_i_glide_ligand_efficiency_ln>
-2.08746816465805

> <r_i_glide_gscore>
-8.3409639155407

> <r_i_glide_lipo>
-2.42800949605532

> <r_i_glide_hbond>
-0.32

> <r_i_glide_metal>
0

> <r_i_glide_rewards>
-3.26928632701269

> <r_i_glide_evdw>
-32.3758239746094

> <r_i_glide_ecoul>
-6.38414716720581

> <r_i_glide_erotb>
0.252745181338646

> <r_i_glide_esite>
0

> <r_i_glide_emodel>
-56.8287486662205

> <r_i_glide_energy>
-38.7599711418152

> <r_i_glide_einternal>
3.4888072013855

> <i_i_glide_confnum>
11

> <i_i_glide_posenum>
6

> <r_i_glide_eff_state_penalty>
0

> <s_user_duplicate_titles>
CHEMBL3717_lig3639

> <s_m_subgroup_title>
dock_pv

> <s_m_subgroupid>
dock_pv

> <b_m_subgroup_collapsed>
1

$$$$
CHEMBL3717_lig451
                    3D
 Schrodinger Suite 2021-1.
 40 43  0  0  1  0            999 V2000
   -5.9540   -0.8523   30.5244 C   0  0  0  0  0  0
   -6.3439    0.4720   30.7397 C   0  0  0  0  0  0
   -5.2328    1.2661   30.4880 C   0  0  0  0  0  0
   -4.1927    0.4643   30.1215 O   0  0  0  0  0  0
   -4.6203   -0.8241   30.1483 C   0  0  0  0  0  0
   -4.9790    2.7343   30.5412 C   0  0  0  0  0  0
   -6.0514    3.6348   30.5726 C   0  0  0  0  0  0
   -5.8446    5.0150   30.6041 C   0  0  0  0  0  0
   -3.6577    3.2008   30.5685 C   0  0  0  0  0  0
   -3.4058    4.5828   30.6078 C   0  0  0  0  0  0
   -4.5168    5.4581   30.6084 C   0  0  0  0  0  0
   -4.1138    6.7584   30.6093 O   0  0  0  0  0  0
   -2.7558    6.7248   30.6078 C   0  0  0  0  0  0
   -2.2415    5.4333   30.6322 C   0  0  0  0  0  0
   -3.6082   -1.8787   29.7763 C   0  0  0  0  0  0
   -0.7949    5.0555   30.6485 C   0  0  0  0  0  0
    0.1631    5.9619   30.1899 C   0  0  0  0  0  0
    1.5054    5.6019   30.1504 C   0  0  0  0  0  0
    1.8990    4.3309   30.5544 C   0  0  0  0  0  0
    0.9609    3.4287   31.0377 C   0  0  0  0  0  0
   -0.3822    3.7873   31.0706 C   0  0  0  0  0  0
    3.6532    3.8561   30.4559 S   0  0  1  0  0  0
    3.7584    2.4613   31.0796 O   0  0  0  0  0  0
    3.6562    3.5910   28.6239 C   0  0  0  0  0  0
   -6.5693   -1.7337   30.6321 H   0  0  0  0  0  0
   -7.3219    0.8103   31.0486 H   0  0  0  0  0  0
   -7.0654    3.2612   30.5490 H   0  0  0  0  0  0
   -6.6653    5.7166   30.5943 H   0  0  0  0  0  0
   -2.8484    2.4943   30.5240 H   0  0  0  0  0  0
   -2.2750    7.6934   30.6070 H   0  0  0  0  0  0
   -3.9892   -2.8874   29.9333 H   0  0  0  0  0  0
   -2.6932   -1.7858   30.3608 H   0  0  0  0  0  0
   -3.3285   -1.8018   28.7249 H   0  0  0  0  0  0
   -0.1224    6.9454   29.8479 H   0  0  0  0  0  0
    2.2401    6.3073   29.8081 H   0  0  0  0  0  0
    1.2664    2.4498   31.3786 H   0  0  0  0  0  0
   -1.0877    3.0763   31.4691 H   0  0  0  0  0  0
    3.2861    4.4706   28.1019 H   0  0  0  0  0  0
    4.6724    3.3890   28.2876 H   0  0  0  0  0  0
    3.0284    2.7358   28.3682 H   0  0  0  0  0  0
  1  2  1  0  0  0
  1  5  2  0  0  0
  1 25  1  0  0  0
  2  3  2  0  0  0
  2 26  1  0  0  0
  3  4  1  0  0  0
  3  6  1  0  0  0
  4  5  1  0  0  0
  5 15  1  0  0  0
  6  7  2  0  0  0
  6  9  1  0  0  0
  7  8  1  0  0  0
  7 27  1  0  0  0
  8 11  2  0  0  0
  8 28  1  0  0  0
  9 10  2  0  0  0
  9 29  1  0  0  0
 10 14  1  0  0  0
 10 11  1  0  0  0
 11 12  1  0  0  0
 12 13  1  0  0  0
 13 14  2  0  0  0
 13 30  1  0  0  0
 14 16  1  0  0  0
 15 31  1  0  0  0
 15 32  1  0  0  0
 15 33  1  0  0  0
 16 17  2  0  0  0
 16 21  1  0  0  0
 17 18  1  0  0  0
 17 34  1  0  0  0
 18 19  2  0  0  0
 18 35  1  0  0  0
 19 20  1  0  0  0
 19 22  1  0  0  0
 20 21  2  0  0  0
 20 36  1  0  0  0
 21 37  1  0  0  0
 22 23  2  0  0  0
 22 24  1  0  0  0
 24 38  1  0  0  0
 24 39  1  0  0  0
 24 40  1  0  0  0
M  END
> <s_m_entry_id>
10059

> <s_m_entry_name>
dock_pv.128

> <s_m_Source_Path>
/home/csk/Desktop/cluster/DUD-E-result/met

> <s_m_Source_File>
dock_pv.maegz

> <i_m_Source_File_Index>
128

> <chembl_id>
CHEMBL574588

> <chembl_pref_name>
None

> <i_lp_mmshare_version>
53161

> <i_f3d_flags>
0

> <r_lp_tautomer_probability>
1

> <s_lp_Force_Field>
OPLS_2005

> <r_lp_Energy>
9.111134

> <b_lp_Chiralities_Consistent>
1

> <s_lp_Variant>
CHEMBL3717_lig451-1

> <s_i_glide_gridfile>
glide-grid_3lq8

> <i_i_glide_lignum>
475

> <i_i_glide_rotatable_bonds>
3

> <r_i_docking_score>
-8.33432765379033

> <r_i_glide_ligand_efficiency>
-0.347263652241264

> <r_i_glide_ligand_efficiency_sa>
-1.00168170539556

> <r_i_glide_ligand_efficiency_ln>
-1.99478704492811

> <r_i_glide_gscore>
-8.33432765379033

> <r_i_glide_lipo>
-3.69918195929641

> <r_i_glide_hbond>
-0.23775050586819

> <r_i_glide_metal>
0

> <r_i_glide_rewards>
-2.50190750742371

> <r_i_glide_evdw>
-41.2865333557129

> <r_i_glide_ecoul>
-1.09951996803284

> <r_i_glide_erotb>
0.333766981788546

> <r_i_glide_esite>
0

> <r_i_glide_emodel>
-64.3751407324964

> <r_i_glide_energy>
-42.3860533237457

> <r_i_glide_einternal>
0.182008534669876

> <i_i_glide_confnum>
1

> <i_i_glide_posenum>
19

> <r_i_glide_eff_state_penalty>
0

> <s_user_duplicate_titles>
CHEMBL3717_lig451

> <s_m_subgroup_title>
dock_pv

> <s_m_subgroupid>
dock_pv

> <b_m_subgroup_collapsed>
1

$$$$
CHEMBL3717_lig1201
                    3D
 Schrodinger Suite 2021-1.
 58 63  0  0  1  0            999 V2000
   -4.2440    6.6775   30.6090 N   0  0  0  0  0  0
   -2.8922    6.6817   30.6080 C   0  0  0  0  0  0
   -2.1353    5.5153   30.6317 C   0  0  0  0  0  0
   -2.8180    4.2930   30.6080 C   0  0  0  0  0  0
   -4.2187    4.2525   30.5522 C   0  0  0  0  0  0
   -4.8915    5.4851   30.6057 C   0  0  0  0  0  0
   -0.6525    5.5541   30.6554 C   0  0  0  0  0  0
    0.1758    4.6396   31.2649 C   0  0  0  0  0  0
    1.4678    4.9768   30.9554 N   0  0  0  0  0  0
    1.5059    6.0839   30.2069 N   0  0  0  0  0  0
    0.2507    6.4534   30.0690 C   0  0  0  0  0  0
    2.6428    4.1066   31.1457 C   0  0  0  0  0  0
    2.3471    2.7325   30.5636 C   0  0  0  0  0  0
    2.3061    2.7570   29.0211 C   0  0  0  0  0  0
    3.6057    3.1571   28.5008 N   0  0  2  0  0  0
    4.0456    4.4486   29.0075 C   0  0  0  0  0  0
    3.9927    4.5530   30.5415 C   0  0  0  0  0  0
   -4.9016    2.9238   30.3867 C   0  0  0  0  0  0
   -4.1681    1.7961   30.6319 O   0  0  0  0  0  0
   -6.1377    2.7050   29.9780 N   0  0  0  0  0  0
   -6.2804    5.5568   30.6087 N   0  0  0  0  0  0
   -6.2269    1.3448   29.9034 C   0  0  0  0  0  0
   -5.0195    0.7769   30.3297 C   0  0  0  0  0  0
   -4.7813   -0.6025   30.3901 C   0  0  0  0  0  0
   -5.8411   -1.4196   29.9573 C   0  0  0  0  0  0
   -7.0514   -0.8718   29.5160 C   0  0  0  0  0  0
   -7.2724    0.5104   29.4865 C   0  0  0  0  0  0
   -5.7243   -2.7853   29.9765 O   0  0  0  0  0  0
   -3.4832   -1.1205   30.8825 C   0  0  0  0  0  0
   -2.7199   -1.9773   30.0863 C   0  0  0  0  0  0
   -1.4955   -2.4430   30.5464 C   0  0  0  0  0  0
   -1.0417   -2.0748   31.8078 C   0  0  0  0  0  0
   -1.7865   -1.2158   32.6078 C   0  0  0  0  0  0
   -3.0058   -0.7350   32.1410 C   0  0  0  0  0  0
   -2.4100    7.6477   30.6072 H   0  0  0  0  0  0
   -2.2515    3.3727   30.5835 H   0  0  0  0  0  0
   -0.0513    3.7366   31.8081 H   0  0  0  0  0  0
   -0.0115    7.3316   29.4965 H   0  0  0  0  0  0
    2.7506    4.0445   32.2298 H   0  0  0  0  0  0
    1.4138    2.3568   30.9699 H   0  0  0  0  0  0
    3.0552    1.9939   30.9424 H   0  0  0  0  0  0
    1.5497    3.4589   28.6640 H   0  0  0  0  0  0
    2.0461    1.7865   28.6104 H   0  0  0  0  0  0
    3.5955    3.1522   27.4905 H   0  0  0  0  0  0
    3.3532    5.1571   28.5755 H   0  0  0  0  0  0
    5.0449    4.6721   28.6317 H   0  0  0  0  0  0
    4.8078    3.9806   30.9854 H   0  0  0  0  0  0
    4.2403    5.5570   30.8530 H   0  0  0  0  0  0
   -6.7799    4.6984   30.4189 H   0  0  0  0  0  0
   -6.6703    6.4445   30.3212 H   0  0  0  0  0  0
   -7.8371   -1.5403   29.1940 H   0  0  0  0  0  0
   -8.2124    0.9199   29.1466 H   0  0  0  0  0  0
   -4.8686   -3.0821   30.2998 H   0  0  0  0  0  0
   -3.0681   -2.2717   29.1054 H   0  0  0  0  0  0
   -0.9086   -3.1080   29.9325 H   0  0  0  0  0  0
   -0.0962   -2.4566   32.1566 H   0  0  0  0  0  0
   -1.4201   -0.9252   33.5815 H   0  0  0  0  0  0
   -3.5870   -0.0664   32.7603 H   0  0  0  0  0  0
  1  6  1  0  0  0
  1  2  2  0  0  0
  2  3  1  0  0  0
  2 35  1  0  0  0
  3  7  1  0  0  0
  3  4  2  0  0  0
  4  5  1  0  0  0
  4 36  1  0  0  0
  5 18  1  0  0  0
  5  6  2  0  0  0
  6 21  1  0  0  0
  7 11  1  0  0  0
  7  8  2  0  0  0
  8  9  1  0  0  0
  8 37  1  0  0  0
  9 12  1  0  0  0
  9 10  1  0  0  0
 10 11  2  0  0  0
 11 38  1  0  0  0
 12 13  1  0  0  0
 12 17  1  0  0  0
 12 39  1  0  0  0
 13 14  1  0  0  0
 13 40  1  0  0  0
 13 41  1  0  0  0
 14 15  1  0  0  0
 14 42  1  0  0  0
 14 43  1  0  0  0
 15 16  1  0  0  0
 15 44  1  0  0  0
 16 17  1  0  0  0
 16 45  1  0  0  0
 16 46  1  0  0  0
 17 47  1  0  0  0
 17 48  1  0  0  0
 18 19  1  0  0  0
 18 20  2  0  0  0
 19 23  1  0  0  0
 20 22  1  0  0  0
 21 49  1  0  0  0
 21 50  1  0  0  0
 22 23  2  0  0  0
 22 27  1  0  0  0
 23 24  1  0  0  0
 24 25  2  0  0  0
 24 29  1  0  0  0
 25 26  1  0  0  0
 25 28  1  0  0  0
 26 27  2  0  0  0
 26 51  1  0  0  0
 27 52  1  0  0  0
 28 53  1  0  0  0
 29 30  2  0  0  0
 29 34  1  0  0  0
 30 31  1  0  0  0
 30 54  1  0  0  0
 31 32  2  0  0  0
 31 55  1  0  0  0
 32 33  1  0  0  0
 32 56  1  0  0  0
 33 34  2  0  0  0
 33 57  1  0  0  0
 34 58  1  0  0  0
M  END
> <s_m_entry_id>
10060

> <s_m_entry_name>
dock_pv.129

> <s_m_Source_Path>
/home/csk/Desktop/cluster/DUD-E-result/met

> <s_m_Source_File>
dock_pv.maegz

> <i_m_Source_File_Index>
129

> <chembl_id>
CHEMBL2032283

> <chembl_pref_name>
None

> <i_lp_mmshare_version>
53161

> <i_f3d_flags>
0

> <r_lp_tautomer_probability>
0.999999772200052

> <s_lp_Force_Field>
OPLS_2005

> <r_lp_Energy>
40.312213

> <b_lp_Chiralities_Consistent>
1

> <s_lp_Variant>
CHEMBL3717_lig1201-1

> <s_i_glide_gridfile>
glide-grid_3lq8

> <i_i_glide_lignum>
1377

> <i_i_glide_rotatable_bonds>
5

> <r_i_docking_score>
-8.33431181276952

> <r_i_glide_ligand_efficiency>
-0.245126818022633

> <r_i_glide_ligand_efficiency_sa>
-0.794115731542273

> <r_i_glide_ligand_efficiency_ln>
-1.84128324896883

> <r_i_glide_gscore>
-8.33431181276952

> <r_i_glide_lipo>
-4.44156677065954

> <r_i_glide_hbond>
-0.233251120891064

> <r_i_glide_metal>
0

> <r_i_glide_rewards>
-1.25020480638436

> <r_i_glide_evdw>
-48.2924308776855

> <r_i_glide_ecoul>
-2.57763695716858

> <r_i_glide_erotb>
0.391977972625016

> <r_i_glide_esite>
0

> <r_i_glide_emodel>
-67.4023961486174

> <r_i_glide_energy>
-50.8700678348541

> <r_i_glide_einternal>
4.17853116989136

> <i_i_glide_confnum>
2

> <i_i_glide_posenum>
12

> <r_i_glide_eff_state_penalty>
0

> <s_user_duplicate_titles>
CHEMBL3717_lig1201

> <s_m_subgroup_title>
dock_pv

> <s_m_subgroupid>
dock_pv

> <b_m_subgroup_collapsed>
1

$$$$
CHEMBL3717_lig1359
                    3D
 Schrodinger Suite 2021-1.
 52 55  0  0  1  0            999 V2000
   -2.0429    3.2166   31.3673 C   0  0  0  0  0  0
   -2.6962    6.1474   30.6269 C   0  0  0  0  0  0
   -3.9086    5.5583   30.6073 C   0  0  0  0  0  0
   -3.3699    3.0669   30.6945 C   0  0  0  0  0  0
   -4.2764    4.1286   30.5127 C   0  0  0  0  0  0
   -5.6056    3.8088   30.2080 C   0  0  0  0  0  0
   -5.9913    2.4922   29.9456 C   0  0  0  0  0  0
   -5.0522    1.4628   29.9941 C   0  0  0  0  0  0
   -3.7589    1.7480   30.4220 C   0  0  0  0  0  0
   -1.3407    5.5575   30.6080 C   0  0  0  0  0  0
   -1.0427    4.2231   30.9245 C   0  0  0  0  0  0
    0.2923    3.7938   30.8644 C   0  0  0  0  0  0
    1.2960    4.6699   30.4465 C   0  0  0  0  0  0
    0.9123    5.9771   30.1308 C   0  0  0  0  0  0
   -0.3689    6.4216   30.2079 N   0  0  0  0  0  0
   -1.6941    2.3568   32.1846 O   0  0  0  0  0  0
   -5.4266    0.0441   29.5914 C   0  0  0  0  0  0
   -6.1812   -0.9641   30.9937 S   0  0  0  0  0  0
   -4.9122   -1.0395   32.2083 N   0  0  3  0  0  0
   -6.4210   -2.3239   30.5011 O   0  0  0  0  0  0
   -7.2772   -0.1782   31.5676 O   0  0  0  0  0  0
    2.7086    4.1956   30.3375 C   0  0  0  0  0  0
    3.2959    3.0523   30.9083 C   0  0  0  0  0  0
    4.5670    2.9045   30.6080 N   0  0  0  0  0  0
    4.8591    3.9645   29.8578 N   0  0  0  0  0  0
    3.7672    4.7542   29.6362 C   0  0  0  0  0  0
    6.2039    4.1444   29.3456 C   0  0  0  0  0  0
   -3.8352   -2.0547   32.1766 C   0  0  0  0  0  0
   -2.4836   -1.4240   31.8045 C   0  0  0  0  0  0
   -1.2934   -2.3645   32.0285 C   0  0  0  0  0  0
   -2.7022    7.2259   30.6885 H   0  0  0  0  0  0
   -4.7554    6.2311   30.6444 H   0  0  0  0  0  0
   -6.3431    4.5923   30.1017 H   0  0  0  0  0  0
   -7.0129    2.2825   29.6616 H   0  0  0  0  0  0
   -3.0564    0.9381   30.5323 H   0  0  0  0  0  0
    0.5546    2.7731   31.1064 H   0  0  0  0  0  0
    1.6378    6.7063   29.8081 H   0  0  0  0  0  0
   -4.5616   -0.5099   29.2263 H   0  0  0  0  0  0
   -6.1577    0.0527   28.7838 H   0  0  0  0  0  0
   -5.0125   -0.4466   33.0387 H   0  0  0  0  0  0
    2.7927    2.3283   31.5318 H   0  0  0  0  0  0
    3.8548    5.6192   29.0081 H   0  0  0  0  0  0
    6.5372    5.1594   29.5525 H   0  0  0  0  0  0
    6.8959    3.4424   29.8119 H   0  0  0  0  0  0
    6.1999    3.9722   28.2695 H   0  0  0  0  0  0
   -4.1074   -2.8490   31.4789 H   0  0  0  0  0  0
   -3.7904   -2.5107   33.1655 H   0  0  0  0  0  0
   -2.3214   -0.5136   32.3847 H   0  0  0  0  0  0
   -2.4961   -1.1422   30.7520 H   0  0  0  0  0  0
   -0.3533   -1.8646   31.7931 H   0  0  0  0  0  0
   -1.3635   -3.2429   31.3885 H   0  0  0  0  0  0
   -1.2345   -2.7012   33.0642 H   0  0  0  0  0  0
  1 11  1  0  0  0
  1  4  1  0  0  0
  1 16  2  0  0  0
  2 10  1  0  0  0
  2  3  2  0  0  0
  2 31  1  0  0  0
  3  5  1  0  0  0
  3 32  1  0  0  0
  4  5  2  0  0  0
  4  9  1  0  0  0
  5  6  1  0  0  0
  6  7  2  0  0  0
  6 33  1  0  0  0
  7  8  1  0  0  0
  7 34  1  0  0  0
  8  9  2  0  0  0
  8 17  1  0  0  0
  9 35  1  0  0  0
 10 11  2  0  0  0
 10 15  1  0  0  0
 11 12  1  0  0  0
 12 13  2  0  0  0
 12 36  1  0  0  0
 13 14  1  0  0  0
 13 22  1  0  0  0
 14 15  2  0  0  0
 14 37  1  0  0  0
 17 18  1  0  0  0
 17 38  1  0  0  0
 17 39  1  0  0  0
 18 19  1  0  0  0
 18 20  2  0  0  0
 18 21  2  0  0  0
 19 28  1  0  0  0
 19 40  1  0  0  0
 22 23  1  0  0  0
 22 26  2  0  0  0
 23 24  2  0  0  0
 23 41  1  0  0  0
 24 25  1  0  0  0
 25 26  1  0  0  0
 25 27  1  0  0  0
 26 42  1  0  0  0
 27 43  1  0  0  0
 27 44  1  0  0  0
 27 45  1  0  0  0
 28 29  1  0  0  0
 28 46  1  0  0  0
 28 47  1  0  0  0
 29 30  1  0  0  0
 29 48  1  0  0  0
 29 49  1  0  0  0
 30 50  1  0  0  0
 30 51  1  0  0  0
 30 52  1  0  0  0
M  END
> <s_m_entry_id>
10061

> <s_m_entry_name>
dock_pv.130

> <s_m_Source_Path>
/home/csk/Desktop/cluster/DUD-E-result/met

> <s_m_Source_File>
dock_pv.maegz

> <i_m_Source_File_Index>
130

> <chembl_id>
CHEMBL2324121

> <chembl_pref_name>
None

> <i_lp_mmshare_version>
53161

> <i_f3d_flags>
0

> <r_lp_tautomer_probability>
1

> <s_lp_Force_Field>
OPLS_2005

> <r_lp_Energy>
24.321027

> <b_lp_Chiralities_Consistent>
1

> <s_lp_Variant>
CHEMBL3717_lig1359-1

> <s_i_glide_gridfile>
glide-grid_3lq8

> <i_i_glide_lignum>
1548

> <i_i_glide_rotatable_bonds>
6

> <r_i_docking_score>
-8.3336916662351

> <r_i_glide_ligand_efficiency>
-0.277789722207837

> <r_i_glide_ligand_efficiency_sa>
-0.863157253685494

> <r_i_glide_ligand_efficiency_ln>
-1.89350554941206

> <r_i_glide_gscore>
-8.3336916662351

> <r_i_glide_lipo>
-4.50984673196868

> <r_i_glide_hbond>
-0.181293604725658

> <r_i_glide_metal>
0

> <r_i_glide_rewards>
-1.70814698274186

> <r_i_glide_evdw>
-45.6989326477051

> <r_i_glide_ecoul>
-1.32160317897797

> <r_i_glide_erotb>
0.554908110914797

> <r_i_glide_esite>
-0.00612534848175759

> <r_i_glide_emodel>
-66.3936339720948

> <r_i_glide_energy>
-47.020535826683

> <r_i_glide_einternal>
0.839066743850708

> <i_i_glide_confnum>
14

> <i_i_glide_posenum>
118

> <r_i_glide_eff_state_penalty>
0

> <s_user_duplicate_titles>
CHEMBL3717_lig1359

> <s_m_subgroup_title>
dock_pv

> <s_m_subgroupid>
dock_pv

> <b_m_subgroup_collapsed>
1

$$$$
CHEMBL3717_lig1253
                    3D
 Schrodinger Suite 2021-1.
 40 42  0  0  1  0            999 V2000
   -3.8913    4.8232   30.4826 C   0  0  0  0  0  0
   -2.6188    4.2842   30.7870 C   0  0  0  0  0  0
   -2.5416    2.8800   30.8740 C   0  0  0  0  0  0
   -3.6573    2.0780   30.6068 C   0  0  0  0  0  0
   -4.8462    2.7130   30.2518 C   0  0  0  0  0  0
   -4.9752    4.0596   30.2087 N   0  0  0  0  0  0
   -1.3782    5.1534   30.9428 C   0  0  0  0  0  0
   -1.3878    6.3399   30.6078 O   0  0  0  0  0  0
   -0.2647    4.5533   31.4025 N   0  0  0  0  0  0
   -3.6740   -1.5550   30.1893 N   0  0  0  0  0  0
   -2.9716   -1.4951   31.3274 N   0  0  0  0  0  0
   -2.9082   -0.2111   31.6048 C   0  0  0  0  0  0
   -3.5640    0.5963   30.6589 C   0  0  0  0  0  0
   -4.0811   -0.3210   29.7577 C   0  0  0  0  0  0
   -3.9272   -2.8426   29.5695 C   0  0  0  0  0  0
    1.0563    5.1748   31.5160 C   0  0  0  0  0  0
    2.0724    4.5758   30.5521 C   0  0  0  0  0  0
    1.8223    4.5463   29.1724 C   0  0  0  0  0  0
    2.7474    3.9860   28.2968 C   0  0  0  0  0  0
    3.9661    3.5327   28.7814 C   0  0  0  0  0  0
    4.2356    3.5572   30.1472 C   0  0  0  0  0  0
    3.2850    4.0677   31.0328 C   0  0  0  0  0  0
    5.4201    3.0962   30.6082 F   0  0  0  0  0  0
    0.7062    5.1013   28.6591 F   0  0  0  0  0  0
   -4.1343    6.1897   30.4284 N   0  0  0  0  0  0
   -1.6135    2.3824   31.1057 H   0  0  0  0  0  0
   -5.7342    2.1388   30.0269 H   0  0  0  0  0  0
   -0.3227    3.5864   31.6793 H   0  0  0  0  0  0
   -2.3839    0.1452   32.4783 H   0  0  0  0  0  0
   -4.6468   -0.2127   28.8437 H   0  0  0  0  0  0
   -4.4233   -2.7051   28.6080 H   0  0  0  0  0  0
   -2.9845   -3.3680   29.4090 H   0  0  0  0  0  0
   -4.5663   -3.4368   30.2219 H   0  0  0  0  0  0
    1.3970    5.0782   32.5474 H   0  0  0  0  0  0
    1.0224    6.2497   31.3208 H   0  0  0  0  0  0
    2.5368    3.9624   27.2390 H   0  0  0  0  0  0
    4.7057    3.1568   28.0960 H   0  0  0  0  0  0
    3.5048    4.0851   32.0904 H   0  0  0  0  0  0
   -3.3087    6.7712   30.4989 H   0  0  0  0  0  0
   -4.9891    6.5007   29.9803 H   0  0  0  0  0  0
  1  2  1  0  0  0
  1  6  2  0  0  0
  1 25  1  0  0  0
  2  3  2  0  0  0
  2  7  1  0  0  0
  3  4  1  0  0  0
  3 26  1  0  0  0
  4  5  2  0  0  0
  4 13  1  0  0  0
  5  6  1  0  0  0
  5 27  1  0  0  0
  7  8  2  0  0  0
  7  9  1  0  0  0
  9 16  1  0  0  0
  9 28  1  0  0  0
 10 11  1  0  0  0
 10 14  1  0  0  0
 10 15  1  0  0  0
 11 12  2  0  0  0
 12 13  1  0  0  0
 12 29  1  0  0  0
 13 14  2  0  0  0
 14 30  1  0  0  0
 15 31  1  0  0  0
 15 32  1  0  0  0
 15 33  1  0  0  0
 16 17  1  0  0  0
 16 34  1  0  0  0
 16 35  1  0  0  0
 17 18  1  0  0  0
 17 22  2  0  0  0
 18 19  2  0  0  0
 18 24  1  0  0  0
 19 20  1  0  0  0
 19 36  1  0  0  0
 20 21  2  0  0  0
 20 37  1  0  0  0
 21 22  1  0  0  0
 21 23  1  0  0  0
 22 38  1  0  0  0
 25 39  1  0  0  0
 25 40  1  0  0  0
M  END
> <s_m_entry_id>
10062

> <s_m_entry_name>
dock_pv.131

> <s_m_Source_Path>
/home/csk/Desktop/cluster/DUD-E-result/met

> <s_m_Source_File>
dock_pv.maegz

> <i_m_Source_File_Index>
131

> <chembl_id>
CHEMBL2071387

> <chembl_pref_name>
None

> <i_lp_mmshare_version>
53161

> <i_f3d_flags>
0

> <r_lp_tautomer_probability>
0.999999772200052

> <s_lp_Force_Field>
OPLS_2005

> <r_lp_Energy>
14.669832

> <b_lp_Chiralities_Consistent>
1

> <s_lp_Variant>
CHEMBL3717_lig1253-1

> <s_i_glide_gridfile>
glide-grid_3lq8

> <i_i_glide_lignum>
1431

> <i_i_glide_rotatable_bonds>
5

> <r_i_docking_score>
-8.32756735370171

> <r_i_glide_ligand_efficiency>
-0.333102694148068

> <r_i_glide_ligand_efficiency_sa>
-0.973998185290387

> <r_i_glide_ligand_efficiency_ln>
-1.97388301988288

> <r_i_glide_gscore>
-8.32756735370171

> <r_i_glide_lipo>
-3.61949829986398

> <r_i_glide_hbond>
-0.31325333095927

> <r_i_glide_metal>
0

> <r_i_glide_rewards>
-2.49127096506574

> <r_i_glide_evdw>
-40.4137802124023

> <r_i_glide_ecoul>
-3.09263777732849

> <r_i_glide_erotb>
0.643851358912278

> <r_i_glide_esite>
-0.0628114395056047

> <r_i_glide_emodel>
-62.8220264418566

> <r_i_glide_energy>
-43.5064179897308

> <r_i_glide_einternal>
4.60935115814209

> <i_i_glide_confnum>
7

> <i_i_glide_posenum>
381

> <r_i_glide_eff_state_penalty>
0

> <s_user_duplicate_titles>
CHEMBL3717_lig1253

> <s_m_subgroup_title>
dock_pv

> <s_m_subgroupid>
dock_pv

> <b_m_subgroup_collapsed>
1

$$$$
CHEMBL3717_lig2522
                    3D
 Schrodinger Suite 2021-1.
 45 48  0  0  1  0            999 V2000
   -5.7503    1.5627   30.3921 C   0  0  0  0  0  0
   -4.2221    1.6461   30.6085 C   0  0  0  0  0  0
   -3.4634    0.6159   30.7822 N   0  0  0  0  0  0
   -3.9967   -0.6138   30.5499 N   0  0  0  0  0  0
   -3.3410   -1.7690   30.7783 C   0  0  0  0  0  0
   -2.2175   -1.8699   31.2687 O   0  0  0  0  0  0
   -4.0525   -2.8412   30.4218 N   0  0  0  0  0  0
   -3.6658    3.0424   30.6079 C   0  0  0  0  0  0
   -4.4599    4.1854   30.3833 C   0  0  0  0  0  0
   -3.8849    5.4567   30.2933 C   0  0  0  0  0  0
   -2.4903    5.5632   30.3867 C   0  0  0  0  0  0
   -1.6476    6.6135   30.2084 N   0  0  0  0  0  0
   -0.4485    6.1006   30.4092 C   0  0  0  0  0  0
   -0.4567    4.7415   30.7324 C   0  0  0  0  0  0
    0.6220    3.7323   31.0901 C   0  0  0  0  0  0
    1.9936    3.9182   30.4452 C   0  0  0  0  0  0
    2.1568    3.6825   29.0786 C   0  0  0  0  0  0
    1.1057    3.3066   28.3297 F   0  0  0  0  0  0
    3.3893    3.7941   28.4482 C   0  0  0  0  0  0
    4.4786    4.1790   29.2275 C   0  0  0  0  0  0
    4.3666    4.3570   30.6184 C   0  0  0  0  0  0
    5.7051    4.6449   31.0254 C   0  0  0  0  0  0
    6.5270    4.7189   30.0268 N   0  0  0  0  0  0
    5.8023    4.4602   28.9332 N   0  0  0  0  0  0
    6.4466    4.5577   27.6468 C   0  0  0  0  0  0
    3.1085    4.2186   31.2333 C   0  0  0  0  0  0
    2.9775    4.3568   32.5692 F   0  0  0  0  0  0
   -1.7877    4.3825   30.6673 N   0  0  0  0  0  0
   -2.3164    3.1495   30.8064 N   0  0  0  0  0  0
   -6.2846    2.1319   31.1524 H   0  0  0  0  0  0
   -6.0247    1.9385   29.4074 H   0  0  0  0  0  0
   -6.1585    0.5554   30.4520 H   0  0  0  0  0  0
   -4.9307   -0.6180   30.1725 H   0  0  0  0  0  0
   -3.6944   -3.7815   30.6053 H   0  0  0  0  0  0
   -4.9074   -2.7472   29.8973 H   0  0  0  0  0  0
   -5.5294    4.1135   30.2525 H   0  0  0  0  0  0
   -4.4940    6.3293   30.1109 H   0  0  0  0  0  0
    0.4367    6.7179   30.3422 H   0  0  0  0  0  0
    0.7094    3.6556   32.1731 H   0  0  0  0  0  0
    0.2887    2.7569   30.7716 H   0  0  0  0  0  0
    3.4774    3.5587   27.4080 H   0  0  0  0  0  0
    6.0764    4.8223   32.0180 H   0  0  0  0  0  0
    5.9740    3.8339   27.0079 H   0  0  0  0  0  0
    6.3055    5.5568   27.2383 H   0  0  0  0  0  0
    7.5117    4.3323   27.7252 H   0  0  0  0  0  0
  1  2  1  0  0  0
  1 30  1  0  0  0
  1 31  1  0  0  0
  1 32  1  0  0  0
  2  3  2  0  0  0
  2  8  1  0  0  0
  3  4  1  0  0  0
  4  5  1  0  0  0
  4 33  1  0  0  0
  5  6  2  0  0  0
  5  7  1  0  0  0
  7 34  1  0  0  0
  7 35  1  0  0  0
  8  9  1  0  0  0
  8 29  2  0  0  0
  9 10  2  0  0  0
  9 36  1  0  0  0
 10 11  1  0  0  0
 10 37  1  0  0  0
 11 12  2  0  0  0
 11 28  1  0  0  0
 12 13  1  0  0  0
 13 14  2  0  0  0
 13 38  1  0  0  0
 14 15  1  0  0  0
 14 28  1  0  0  0
 15 16  1  0  0  0
 15 39  1  0  0  0
 15 40  1  0  0  0
 16 17  2  0  0  0
 16 26  1  0  0  0
 17 18  1  0  0  0
 17 19  1  0  0  0
 19 20  2  0  0  0
 19 41  1  0  0  0
 20 21  1  0  0  0
 20 24  1  0  0  0
 21 22  1  0  0  0
 21 26  2  0  0  0
 22 23  2  0  0  0
 22 42  1  0  0  0
 23 24  1  0  0  0
 24 25  1  0  0  0
 25 43  1  0  0  0
 25 44  1  0  0  0
 25 45  1  0  0  0
 26 27  1  0  0  0
 28 29  1  0  0  0
M  END
> <s_m_entry_id>
10063

> <s_m_entry_name>
dock_pv.132

> <s_m_Source_Path>
/home/csk/Desktop/cluster/DUD-E-result/met

> <s_m_Source_File>
dock_pv.maegz

> <i_m_Source_File_Index>
132

> <chembl_id>
CHEMBL3674507

> <chembl_pref_name>
None

> <i_lp_mmshare_version>
53161

> <i_f3d_flags>
0

> <r_lp_tautomer_probability>
1

> <s_lp_Force_Field>
OPLS_2005

> <r_lp_Energy>
15.326485

> <b_lp_Chiralities_Consistent>
1

> <s_lp_Variant>
CHEMBL3717_lig2522-1

> <s_i_glide_gridfile>
glide-grid_3lq8

> <i_i_glide_lignum>
2865

> <i_i_glide_rotatable_bonds>
5

> <r_i_docking_score>
-8.32265723760225

> <r_i_glide_ligand_efficiency>
-0.286988180606974

> <r_i_glide_ligand_efficiency_sa>
-0.881718615062107

> <r_i_glide_ligand_efficiency_ln>
-1.90567746303278

> <r_i_glide_gscore>
-8.32265723760225

> <r_i_glide_lipo>
-3.30333898948665

> <r_i_glide_hbond>
-0.16

> <r_i_glide_metal>
0

> <r_i_glide_rewards>
-2.88155212952801

> <r_i_glide_evdw>
-41.6728363037109

> <r_i_glide_ecoul>
-2.01714873313904

> <r_i_glide_erotb>
0.493615337190176

> <r_i_glide_esite>
-0.0851673306213652

> <r_i_glide_emodel>
-57.7021905779134

> <r_i_glide_energy>
-43.68998503685

> <r_i_glide_einternal>
9.60744953155518

> <i_i_glide_confnum>
8

> <i_i_glide_posenum>
48

> <r_i_glide_eff_state_penalty>
0

> <s_user_duplicate_titles>
CHEMBL3717_lig2522

> <s_m_subgroup_title>
dock_pv

> <s_m_subgroupid>
dock_pv

> <b_m_subgroup_collapsed>
1

$$$$
CHEMBL3717_lig3867
                    3D
 Schrodinger Suite 2021-1.
 49 52  0  0  1  0            999 V2000
   -5.2496    3.2488   30.2452 O   0  0  0  0  0  0
   -5.9281    0.7570   28.5025 O   0  0  0  0  0  0
   -3.0368   -2.6297   29.6272 N   0  0  0  0  0  0
   -3.9649    6.6365   30.6080 N   0  0  0  0  0  0
    4.3101    3.7496   29.5147 N   0  0  0  0  0  0
   -3.4619   -1.1290   31.2414 C   0  0  0  0  0  0
   -4.6232   -1.2128   30.3934 C   0  0  0  0  0  0
   -2.4954   -2.0583   30.7562 C   0  0  0  0  0  0
   -4.2934   -2.1264   29.4086 C   0  0  0  0  0  0
   -3.1470   -0.3809   32.3857 C   0  0  0  0  0  0
   -5.9315   -0.4604   30.5722 C   0  0  0  0  0  0
   -1.2771   -2.2800   31.4082 C   0  0  0  0  0  0
   -5.9756    0.9310   29.9046 C   0  0  1  0  0  0
   -1.9160   -0.5622   33.0080 C   0  0  0  0  0  0
   -1.0198   -1.5151   32.5469 C   0  0  0  0  0  0
   -4.3167    4.2423   30.4698 C   0  0  0  0  0  0
   -2.0626    5.1397   30.6478 C   0  0  0  0  0  0
   -4.8501    1.8857   30.3570 C   0  0  0  0  0  0
   -2.9310    4.0409   30.6080 C   0  0  0  0  0  0
   -4.7797    5.5568   30.5182 C   0  0  0  0  0  0
   -2.6297    6.4143   30.6187 C   0  0  0  0  0  0
   -0.5979    5.0068   30.5950 C   0  0  0  0  0  0
    1.5273    3.8900   29.8747 C   0  0  0  0  0  0
    0.0660    4.0032   29.9867 C   0  0  0  0  0  0
    2.3989    4.4331   30.8280 C   0  0  0  0  0  0
    2.0708    3.2699   28.7440 C   0  0  0  0  0  0
    3.7745    4.3415   30.6101 C   0  0  0  0  0  0
    3.4570    3.2244   28.6006 C   0  0  0  0  0  0
   -5.3146    0.0394   28.2996 H   0  0  0  0  0  0
   -2.6371   -3.3690   29.0643 H   0  0  0  0  0  0
   -4.8765   -2.4945   28.5777 H   0  0  0  0  0  0
   -3.8618    0.3057   32.8066 H   0  0  0  0  0  0
   -6.1434   -0.3493   31.6370 H   0  0  0  0  0  0
   -6.7605   -1.0611   30.1935 H   0  0  0  0  0  0
   -0.5610   -3.0040   31.0492 H   0  0  0  0  0  0
   -6.9369    1.3891   30.1434 H   0  0  0  0  0  0
   -1.6724    0.0113   33.8912 H   0  0  0  0  0  0
   -0.0940   -1.6443   33.0823 H   0  0  0  0  0  0
   -3.9381    1.6603   29.8013 H   0  0  0  0  0  0
   -4.6371    1.7243   31.4080 H   0  0  0  0  0  0
   -2.5126    3.0474   30.6049 H   0  0  0  0  0  0
   -5.8356    5.7666   30.4253 H   0  0  0  0  0  0
   -2.0054    7.2963   30.6080 H   0  0  0  0  0  0
   -0.0363    5.7948   31.0766 H   0  0  0  0  0  0
   -0.4944    3.2052   29.5201 H   0  0  0  0  0  0
    2.0240    4.9229   31.7142 H   0  0  0  0  0  0
    1.4332    2.8419   27.9829 H   0  0  0  0  0  0
    4.4746    4.7561   31.3194 H   0  0  0  0  0  0
    3.9057    2.7570   27.7370 H   0  0  0  0  0  0
  1 16  1  0  0  0
  1 18  1  0  0  0
  2 13  1  0  0  0
  2 29  1  0  0  0
  3  8  1  0  0  0
  3  9  1  0  0  0
  3 30  1  0  0  0
  4 20  1  0  0  0
  4 21  2  0  0  0
  5 27  2  0  0  0
  5 28  1  0  0  0
  6  7  1  0  0  0
  6  8  1  0  0  0
  6 10  2  0  0  0
  7  9  2  0  0  0
  7 11  1  0  0  0
  8 12  2  0  0  0
  9 31  1  0  0  0
 10 14  1  0  0  0
 10 32  1  0  0  0
 11 13  1  0  0  0
 11 33  1  0  0  0
 11 34  1  0  0  0
 12 15  1  0  0  0
 12 35  1  0  0  0
 13 18  1  0  0  0
 13 36  1  0  0  0
 14 15  2  0  0  0
 14 37  1  0  0  0
 15 38  1  0  0  0
 16 19  1  0  0  0
 16 20  2  0  0  0
 17 19  2  0  0  0
 17 21  1  0  0  0
 17 22  1  0  0  0
 18 39  1  0  0  0
 18 40  1  0  0  0
 19 41  1  0  0  0
 20 42  1  0  0  0
 21 43  1  0  0  0
 22 24  2  3  0  0
 22 44  1  0  0  0
 23 24  1  0  0  0
 23 25  2  0  0  0
 23 26  1  0  0  0
 24 45  1  0  0  0
 25 27  1  0  0  0
 25 46  1  0  0  0
 26 28  2  0  0  0
 26 47  1  0  0  0
 27 48  1  0  0  0
 28 49  1  0  0  0
M  END
> <s_m_entry_id>
10064

> <s_m_entry_name>
dock_pv.133

> <s_m_Source_Path>
/home/csk/Desktop/cluster/DUD-E-result/met

> <s_m_Source_File>
dock_pv.maegz

> <i_m_Source_File_Index>
133

> <chembl_id>
CHEMBL1993584

> <chembl_pref_name>
None

> <i_lp_mmshare_version>
53161

> <i_f3d_flags>
0

> <r_lp_tautomer_probability>
1

> <s_lp_Force_Field>
OPLS_2005

> <r_lp_Energy>
19.545331

> <b_lp_Chiralities_Consistent>
1

> <s_lp_Variant>
CHEMBL3717_lig3867-3

> <s_i_glide_gridfile>
glide-grid_3lq8

> <i_i_glide_lignum>
4909

> <i_i_glide_rotatable_bonds>
8

> <r_i_docking_score>
-8.32244616411766

> <r_i_glide_ligand_efficiency>
-0.297230220147059

> <r_i_glide_ligand_efficiency_sa>
-0.902566007604224

> <r_i_glide_ligand_efficiency_ln>
-1.92106493231574

> <r_i_glide_gscore>
-8.32244616411766

> <r_i_glide_lipo>
-4.15248320997525

> <r_i_glide_hbond>
-0.167502977324701

> <r_i_glide_metal>
0

> <r_i_glide_rewards>
-1.82274740996852

> <r_i_glide_evdw>
-43.4971961975098

> <r_i_glide_ecoul>
-5.34647846221924

> <r_i_glide_erotb>
0.839497685459311

> <r_i_glide_esite>
-0.0423786731001243

> <r_i_glide_emodel>
-70.1917179412151

> <r_i_glide_energy>
-48.843674659729

> <r_i_glide_einternal>
6.44538354873657

> <i_i_glide_confnum>
4

> <i_i_glide_posenum>
156

> <r_i_glide_eff_state_penalty>
0

> <s_user_duplicate_titles>
CHEMBL3717_lig3867

> <s_m_subgroup_title>
dock_pv

> <s_m_subgroupid>
dock_pv

> <b_m_subgroup_collapsed>
1

$$$$
CHEMBL3717_lig2410
                    3D
 Schrodinger Suite 2021-1.
 46 47  0  0  1  0            999 V2000
   -3.2033    5.8938   30.4578 C   0  0  0  0  0  0
   -3.7533    4.5378   30.4584 C   0  0  0  0  0  0
   -3.0155    3.4238   30.6711 C   0  0  0  0  0  0
   -3.9055    6.8917   30.6081 O   0  0  0  0  0  0
   -1.8789    5.9361   30.2082 O   0  0  0  0  0  0
   -3.5024    2.0283   30.6076 C   0  0  0  0  0  0
   -2.8940    1.0511   31.4061 C   0  0  0  0  0  0
   -3.2922   -0.2988   31.3511 C   0  0  0  0  0  0
   -4.3158   -0.6547   30.4582 C   0  0  0  0  0  0
   -4.9390    0.3150   29.6710 C   0  0  0  0  0  0
   -4.5433    1.6508   29.7548 C   0  0  0  0  0  0
   -2.7191   -1.3049   32.1174 O   0  0  0  0  0  0
   -1.5883   -1.0262   32.9365 C   0  0  0  0  0  0
   -4.7095   -1.9867   30.3186 N   0  0  0  0  0  0
   -1.1761    7.1558   30.0174 C   0  0  0  0  0  0
    0.1765    6.8688   29.3312 C   0  0  0  0  0  0
    0.9545    5.6902   29.9211 C   0  0  0  0  0  0
    1.4933    4.7137   29.0762 C   0  0  0  0  0  0
    2.1585    3.5929   29.5970 C   0  0  0  0  0  0
    2.2824    3.4642   30.9867 C   0  0  0  0  0  0
    1.7623    4.4430   31.8322 C   0  0  0  0  0  0
    1.1062    5.5545   31.3009 C   0  0  0  0  0  0
    2.7060    2.5909   28.8183 O   0  0  0  0  0  0
    2.5564    2.6417   27.4080 C   0  0  0  0  0  0
    2.9127    2.3683   31.5241 O   0  0  0  0  0  0
   -4.8152    4.4685   30.2734 H   0  0  0  0  0  0
   -1.9572    3.5239   30.8764 H   0  0  0  0  0  0
   -2.0972    1.3577   32.0663 H   0  0  0  0  0  0
   -5.7176    0.0325   28.9771 H   0  0  0  0  0  0
   -5.0342    2.3773   29.1246 H   0  0  0  0  0  0
   -1.3769   -1.9029   33.5467 H   0  0  0  0  0  0
   -0.7024   -0.8377   32.3309 H   0  0  0  0  0  0
   -1.7543   -0.1919   33.6178 H   0  0  0  0  0  0
   -4.1225   -2.6902   30.7506 H   0  0  0  0  0  0
   -5.2863   -2.2380   29.5306 H   0  0  0  0  0  0
   -1.7505    7.8599   29.4144 H   0  0  0  0  0  0
   -1.0135    7.6241   30.9815 H   0  0  0  0  0  0
   -0.0262    6.6673   28.2785 H   0  0  0  0  0  0
    0.7977    7.7651   29.3502 H   0  0  0  0  0  0
    1.3739    4.8308   28.0087 H   0  0  0  0  0  0
    1.8664    4.3436   32.9042 H   0  0  0  0  0  0
    0.7069    6.3034   31.9642 H   0  0  0  0  0  0
    3.0776    1.7986   26.9555 H   0  0  0  0  0  0
    1.5064    2.5829   27.1153 H   0  0  0  0  0  0
    2.9933    3.5537   27.0080 H   0  0  0  0  0  0
    3.1586    1.7575   30.8225 H   0  0  0  0  0  0
  1  2  1  0  0  0
  1  4  2  0  0  0
  1  5  1  0  0  0
  2  3  2  0  0  0
  2 26  1  0  0  0
  3  6  1  0  0  0
  3 27  1  0  0  0
  5 15  1  0  0  0
  6  7  1  0  0  0
  6 11  2  0  0  0
  7  8  2  0  0  0
  7 28  1  0  0  0
  8  9  1  0  0  0
  8 12  1  0  0  0
  9 10  2  0  0  0
  9 14  1  0  0  0
 10 11  1  0  0  0
 10 29  1  0  0  0
 11 30  1  0  0  0
 12 13  1  0  0  0
 13 31  1  0  0  0
 13 32  1  0  0  0
 13 33  1  0  0  0
 14 34  1  0  0  0
 14 35  1  0  0  0
 15 16  1  0  0  0
 15 36  1  0  0  0
 15 37  1  0  0  0
 16 17  1  0  0  0
 16 38  1  0  0  0
 16 39  1  0  0  0
 17 18  1  0  0  0
 17 22  2  0  0  0
 18 19  2  0  0  0
 18 40  1  0  0  0
 19 20  1  0  0  0
 19 23  1  0  0  0
 20 21  2  0  0  0
 20 25  1  0  0  0
 21 22  1  0  0  0
 21 41  1  0  0  0
 22 42  1  0  0  0
 23 24  1  0  0  0
 24 43  1  0  0  0
 24 44  1  0  0  0
 24 45  1  0  0  0
 25 46  1  0  0  0
M  END
> <s_m_entry_id>
10065

> <s_m_entry_name>
dock_pv.134

> <s_m_Source_Path>
/home/csk/Desktop/cluster/DUD-E-result/met

> <s_m_Source_File>
dock_pv.maegz

> <i_m_Source_File_Index>
134

> <chembl_id>
CHEMBL3823650

> <chembl_pref_name>
None

> <i_lp_mmshare_version>
53161

> <i_f3d_flags>
0

> <r_lp_tautomer_probability>
1

> <s_lp_Force_Field>
OPLS_2005

> <r_lp_Energy>
20.988298

> <b_lp_Chiralities_Consistent>
1

> <s_lp_Variant>
CHEMBL3717_lig2410-1

> <s_i_glide_gridfile>
glide-grid_3lq8

> <i_i_glide_lignum>
2736

> <i_i_glide_rotatable_bonds>
9

> <r_i_docking_score>
-8.32207038642133

> <r_i_glide_ligand_efficiency>
-0.332882815456853

> <r_i_glide_ligand_efficiency_sa>
-0.973355256097708

> <r_i_glide_ligand_efficiency_ln>
-1.97258007390661

> <r_i_glide_gscore>
-8.32207038642133

> <r_i_glide_lipo>
-4.13867164605775

> <r_i_glide_hbond>
-0.32

> <r_i_glide_metal>
0

> <r_i_glide_rewards>
-2.34255522513915

> <r_i_glide_evdw>
-45.2529830932617

> <r_i_glide_ecoul>
-1.38848793506622

> <r_i_glide_erotb>
0.965562273544771

> <r_i_glide_esite>
-0.0154834438461803

> <r_i_glide_emodel>
-64.7992835843621

> <r_i_glide_energy>
-46.6414710283279

> <r_i_glide_einternal>
9.29584121704102

> <i_i_glide_confnum>
3

> <i_i_glide_posenum>
112

> <r_i_glide_eff_state_penalty>
0

> <s_user_duplicate_titles>
CHEMBL3717_lig2410

> <s_m_subgroup_title>
dock_pv

> <s_m_subgroupid>
dock_pv

> <b_m_subgroup_collapsed>
1

$$$$
CHEMBL3717_lig2118
                    3D
 Schrodinger Suite 2021-1.
 55 60  0  0  1  0            999 V2000
   -1.3709   -2.4427   32.1024 N   0  0  0  0  0  0
   -0.8940   -1.9174   33.2571 C   0  0  0  0  0  0
   -1.2431   -0.6587   33.7279 C   0  0  0  0  0  0
   -2.1676    0.0880   33.0087 C   0  0  0  0  0  0
   -2.7613   -0.4667   31.8568 C   0  0  0  0  0  0
   -3.7796    0.1971   31.1502 C   0  0  0  0  0  0
   -4.2948   -0.3371   29.9693 C   0  0  0  0  0  0
   -3.8197   -1.5704   29.5177 C   0  0  0  0  0  0
   -2.8466   -2.2765   30.2200 C   0  0  0  0  0  0
   -2.3043   -1.7379   31.4070 C   0  0  0  0  0  0
   -5.3262    0.4144   29.1257 C   0  0  0  0  0  0
   -6.7156    3.4904   30.6527 C   0  0  0  0  0  0
   -6.4832    4.8092   31.0847 C   0  0  0  0  0  0
   -5.1891    5.3329   31.0291 C   0  0  0  0  0  0
   -4.1132    4.5529   30.6074 C   0  0  0  0  0  0
   -4.3468    3.2485   30.1808 C   0  0  0  0  0  0
   -5.6190    2.7361   30.1995 N   0  0  0  0  0  0
   -7.8617    2.7659   30.6040 N   0  0  0  0  0  0
   -7.4965    1.6110   30.0946 C   0  0  0  0  0  0
   -6.1355    1.5172   29.8046 C   0  0  0  0  0  0
   -0.5207    5.3364   30.6769 N   0  0  0  0  0  0
   -0.9963    6.5004   30.2077 N   0  0  0  0  0  0
   -2.3005    6.3624   30.2216 C   0  0  0  0  0  0
   -2.7265    5.0847   30.6044 C   0  0  0  0  0  0
   -1.5364    4.4281   30.8860 C   0  0  0  0  0  0
    3.0790    3.1568   30.2411 N   0  0  2  0  0  0
    2.8448    3.6911   31.5822 C   0  0  0  0  0  0
    1.3670    4.0984   31.7374 C   0  0  0  0  0  0
    0.9377    5.1289   30.6637 C   0  0  0  0  0  0
    1.3408    4.6103   29.2622 C   0  0  0  0  0  0
    2.8178    4.1620   29.2109 C   0  0  0  0  0  0
   -7.4921    5.5540   31.5806 F   0  0  0  0  0  0
   -0.1943   -2.5320   33.8080 H   0  0  0  0  0  0
   -0.8430   -0.2808   34.6558 H   0  0  0  0  0  0
   -2.4787    1.0585   33.3613 H   0  0  0  0  0  0
   -4.1382    1.1246   31.5575 H   0  0  0  0  0  0
   -4.2123   -2.0003   28.6090 H   0  0  0  0  0  0
   -2.5125   -3.2420   29.8654 H   0  0  0  0  0  0
   -4.7966    0.8180   28.2623 H   0  0  0  0  0  0
   -6.0135   -0.3235   28.7072 H   0  0  0  0  0  0
   -5.0196    6.3463   31.3709 H   0  0  0  0  0  0
   -3.5684    2.6013   29.8080 H   0  0  0  0  0  0
   -8.2247    0.8328   29.9108 H   0  0  0  0  0  0
   -2.9480    7.1579   29.8963 H   0  0  0  0  0  0
   -1.3362    3.4082   31.1742 H   0  0  0  0  0  0
    2.4217    2.4014   30.0922 H   0  0  0  0  0  0
    3.5077    4.5383   31.7686 H   0  0  0  0  0  0
    3.0974    2.9165   32.3088 H   0  0  0  0  0  0
    1.2858    4.5812   32.7103 H   0  0  0  0  0  0
    0.7237    3.2223   31.8068 H   0  0  0  0  0  0
    1.3844    6.1075   30.8493 H   0  0  0  0  0  0
    0.6622    3.8558   28.8627 H   0  0  0  0  0  0
    1.2550    5.4404   28.5618 H   0  0  0  0  0  0
    3.4906    5.0132   29.3341 H   0  0  0  0  0  0
    3.0374    3.7174   28.2396 H   0  0  0  0  0  0
  1  2  2  0  0  0
  1 10  1  0  0  0
  2  3  1  0  0  0
  2 33  1  0  0  0
  3  4  2  0  0  0
  3 34  1  0  0  0
  4  5  1  0  0  0
  4 35  1  0  0  0
  5  6  2  0  0  0
  5 10  1  0  0  0
  6  7  1  0  0  0
  6 36  1  0  0  0
  7  8  2  0  0  0
  7 11  1  0  0  0
  8  9  1  0  0  0
  8 37  1  0  0  0
  9 10  2  0  0  0
  9 38  1  0  0  0
 11 20  1  0  0  0
 11 39  1  0  0  0
 11 40  1  0  0  0
 12 13  1  0  0  0
 12 17  1  0  0  0
 12 18  2  0  0  0
 13 14  2  0  0  0
 13 32  1  0  0  0
 14 15  1  0  0  0
 14 41  1  0  0  0
 15 16  2  0  0  0
 15 24  1  0  0  0
 16 17  1  0  0  0
 16 42  1  0  0  0
 17 20  1  0  0  0
 18 19  1  0  0  0
 19 20  2  0  0  0
 19 43  1  0  0  0
 21 22  1  0  0  0
 21 25  1  0  0  0
 21 29  1  0  0  0
 22 23  2  0  0  0
 23 24  1  0  0  0
 23 44  1  0  0  0
 24 25  2  0  0  0
 25 45  1  0  0  0
 26 27  1  0  0  0
 26 31  1  0  0  0
 26 46  1  0  0  0
 27 28  1  0  0  0
 27 47  1  0  0  0
 27 48  1  0  0  0
 28 29  1  0  0  0
 28 49  1  0  0  0
 28 50  1  0  0  0
 29 30  1  0  0  0
 29 51  1  0  0  0
 30 31  1  0  0  0
 30 52  1  0  0  0
 30 53  1  0  0  0
 31 54  1  0  0  0
 31 55  1  0  0  0
M  END
> <s_m_entry_id>
10066

> <s_m_entry_name>
dock_pv.135

> <s_m_Source_Path>
/home/csk/Desktop/cluster/DUD-E-result/met

> <s_m_Source_File>
dock_pv.maegz

> <i_m_Source_File_Index>
135

> <chembl_id>
CHEMBL3582281

> <chembl_pref_name>
None

> <i_lp_mmshare_version>
53161

> <i_f3d_flags>
0

> <r_lp_tautomer_probability>
1

> <s_lp_Force_Field>
OPLS_2005

> <r_lp_Energy>
31.201292

> <b_lp_Chiralities_Consistent>
1

> <s_lp_Variant>
CHEMBL3717_lig2118-1

> <s_i_glide_gridfile>
glide-grid_3lq8

> <i_i_glide_lignum>
2416

> <i_i_glide_rotatable_bonds>
4

> <r_i_docking_score>
-8.31929617963912

> <r_i_glide_ligand_efficiency>
-0.259978005613722

> <r_i_glide_ligand_efficiency_sa>
-0.82537871824612

> <r_i_glide_ligand_efficiency_ln>
-1.86291719007017

> <r_i_glide_gscore>
-8.31929617963912

> <r_i_glide_lipo>
-4.6608816950826

> <r_i_glide_hbond>
0

> <r_i_glide_metal>
0

> <r_i_glide_rewards>
-1.55169565500482

> <r_i_glide_evdw>
-48.8472061157227

> <r_i_glide_ecoul>
-0.633956849575043

> <r_i_glide_erotb>
0.43644492722668

> <r_i_glide_esite>
-0.00570992355598636

> <r_i_glide_emodel>
-69.9546705555243

> <r_i_glide_energy>
-49.4811629652977

> <r_i_glide_einternal>
3.85814523696899

> <i_i_glide_confnum>
8

> <i_i_glide_posenum>
133

> <r_i_glide_eff_state_penalty>
0

> <s_user_duplicate_titles>
CHEMBL3717_lig2118

> <s_m_subgroup_title>
dock_pv

> <s_m_subgroupid>
dock_pv

> <b_m_subgroup_collapsed>
1

$$$$
CHEMBL3717_lig3498
                    3D
 Schrodinger Suite 2021-1.
 41 44  0  0  1  0            999 V2000
   -0.2265    5.0390   30.7183 N   0  0  0  0  0  0
   -4.8055    5.5224   30.6248 N   0  0  0  0  0  0
   -0.5987    6.2901   30.4149 N   0  0  0  0  0  0
   -6.6374    3.9098   30.5512 N   0  0  0  0  0  0
   -5.9221    1.6009   30.4681 N   0  0  0  0  0  0
    3.5059    1.9954   31.5278 N   0  0  0  0  0  0
   -3.8822    4.5255   30.6059 C   0  0  0  0  0  0
   -4.2930    3.1687   30.5634 C   0  0  0  0  0  0
   -2.4536    4.9740   30.6116 C   0  0  0  0  0  0
   -5.7014    2.9572   30.5273 C   0  0  0  0  0  0
   -1.3169    4.2072   30.8117 C   0  0  0  0  0  0
    1.2070    4.7116   30.8320 C   0  0  2  0  0  0
   -1.9160    6.2560   30.3943 C   0  0  0  0  0  0
   -3.6902    1.8639   30.5572 C   0  0  0  0  0  0
    1.8403    4.5286   29.4208 C   0  0  0  0  0  0
   -6.1149    5.1607   30.6074 C   0  0  0  0  0  0
   -4.7162    0.9405   30.4815 C   0  0  0  0  0  0
    1.4187    3.5573   31.8517 C   0  0  0  0  0  0
    3.3847    4.6249   29.4073 C   0  0  0  0  0  0
    1.5239    3.1949   28.7202 C   0  0  0  0  0  0
    3.9018    3.5269   28.4802 C   0  0  0  0  0  0
    2.6757    2.9957   27.7393 C   0  0  0  0  0  0
    2.5939    2.6899   31.6763 C   0  0  0  0  0  0
   -6.8128    1.1269   30.4274 H   0  0  0  0  0  0
   -1.2064    3.1551   30.9988 H   0  0  0  0  0  0
    1.6877    5.5894   31.2659 H   0  0  0  0  0  0
   -2.4892    7.1508   30.2040 H   0  0  0  0  0  0
   -2.6473    1.6050   30.6080 H   0  0  0  0  0  0
    1.4701    5.3334   28.7815 H   0  0  0  0  0  0
   -6.8334    5.9646   30.6093 H   0  0  0  0  0  0
   -4.6971   -0.1412   30.4450 H   0  0  0  0  0  0
    1.4332    3.9552   32.8673 H   0  0  0  0  0  0
    0.6080    2.8390   31.8067 H   0  0  0  0  0  0
    3.8334    4.5542   30.3969 H   0  0  0  0  0  0
    3.7154    5.5722   29.0114 H   0  0  0  0  0  0
    0.5644    3.2242   28.2092 H   0  0  0  0  0  0
    1.4953    2.3562   29.4108 H   0  0  0  0  0  0
    4.3660    2.7566   29.0838 H   0  0  0  0  0  0
    4.6769    3.8883   27.8077 H   0  0  0  0  0  0
    2.7929    1.9589   27.4203 H   0  0  0  0  0  0
    2.4783    3.5953   26.8518 H   0  0  0  0  0  0
  1  3  1  0  0  0
  1 11  1  0  0  0
  1 12  1  0  0  0
  2  7  2  0  0  0
  2 16  1  0  0  0
  3 13  2  0  0  0
  4 10  1  0  0  0
  4 16  2  0  0  0
  5 10  1  0  0  0
  5 17  1  0  0  0
  5 24  1  0  0  0
  6 23  3  0  0  0
  7  8  1  0  0  0
  7  9  1  0  0  0
  8 10  2  0  0  0
  8 14  1  0  0  0
  9 11  2  0  0  0
  9 13  1  0  0  0
 11 25  1  0  0  0
 12 15  1  0  0  0
 12 18  1  0  0  0
 12 26  1  0  0  0
 13 27  1  0  0  0
 14 17  2  0  0  0
 14 28  1  0  0  0
 15 19  1  0  0  0
 15 20  1  0  0  0
 15 29  1  0  0  0
 16 30  1  0  0  0
 17 31  1  0  0  0
 18 23  1  0  0  0
 18 32  1  0  0  0
 18 33  1  0  0  0
 19 21  1  0  0  0
 19 34  1  0  0  0
 19 35  1  0  0  0
 20 22  1  0  0  0
 20 36  1  0  0  0
 20 37  1  0  0  0
 21 22  1  0  0  0
 21 38  1  0  0  0
 21 39  1  0  0  0
 22 40  1  0  0  0
 22 41  1  0  0  0
M  END
> <s_m_entry_id>
10067

> <s_m_entry_name>
dock_pv.136

> <s_m_Source_Path>
/home/csk/Desktop/cluster/DUD-E-result/met

> <s_m_Source_File>
dock_pv.maegz

> <i_m_Source_File_Index>
136

> <chembl_id>
CHEMBL2002099

> <chembl_pref_name>
None

> <i_lp_mmshare_version>
53161

> <i_f3d_flags>
0

> <r_lp_tautomer_probability>
0.999998369746258

> <s_lp_Force_Field>
OPLS_2005

> <r_lp_Energy>
26.449238

> <b_lp_Chiralities_Consistent>
1

> <s_lp_Variant>
CHEMBL3717_lig3498-1

> <s_i_glide_gridfile>
glide-grid_3lq8

> <i_i_glide_lignum>
4321

> <i_i_glide_rotatable_bonds>
4

> <r_i_docking_score>
-8.30629902679193

> <r_i_glide_ligand_efficiency>
-0.361143435947475

> <r_i_glide_ligand_efficiency_sa>
-1.02704389140773

> <r_i_glide_ligand_efficiency_ln>
-2.00853842203373

> <r_i_glide_gscore>
-8.30629902679193

> <r_i_glide_lipo>
-3.51007877402362

> <r_i_glide_hbond>
0

> <r_i_glide_metal>
0

> <r_i_glide_rewards>
-3.42422220128505

> <r_i_glide_evdw>
-35.980411529541

> <r_i_glide_ecoul>
-1.08905172348022

> <r_i_glide_erotb>
0.590380283515821

> <r_i_glide_esite>
0

> <r_i_glide_emodel>
-52.5491262847777

> <r_i_glide_energy>
-37.0694632530212

> <r_i_glide_einternal>
7.76040649414062

> <i_i_glide_confnum>
11

> <i_i_glide_posenum>
92

> <r_i_glide_eff_state_penalty>
0

> <s_user_duplicate_titles>
CHEMBL3717_lig3498

> <s_m_subgroup_title>
dock_pv

> <s_m_subgroupid>
dock_pv

> <b_m_subgroup_collapsed>
1

$$$$
CHEMBL3717_lig4141
                    3D
 Schrodinger Suite 2021-1.
 39 42  0  0  1  0            999 V2000
    4.2032    3.5571   28.1506 O   0  0  0  0  0  0
   -5.3068    5.1854   30.5886 N   0  0  0  0  0  0
   -3.1343    6.2444   30.6096 N   0  0  0  0  0  0
    2.3059    2.7569   27.2964 N   0  0  0  0  0  0
   -3.5169    3.8115   30.6035 C   0  0  0  0  0  0
   -4.7057    2.9972   30.5127 C   0  0  0  0  0  0
   -3.9325    5.1738   30.6058 C   0  0  0  0  0  0
   -1.2584    4.6695   30.6165 C   0  0  0  0  0  0
   -2.1296    3.5780   30.6189 C   0  0  0  0  0  0
   -4.7992    1.5058   30.4540 C   0  0  0  0  0  0
    0.2055    4.4561   30.6188 C   0  0  0  0  0  0
   -5.7682    3.8935   30.5553 C   0  0  0  0  0  0
   -1.8050    5.9574   30.6085 C   0  0  0  0  0  0
    0.8694    3.9588   29.4953 C   0  0  0  0  0  0
    2.2590    3.7664   29.5007 C   0  0  0  0  0  0
    0.9480    4.7466   31.7589 C   0  0  0  0  0  0
   -5.8765    0.9212   29.7765 C   0  0  0  0  0  0
   -3.8115    0.6819   31.0081 C   0  0  0  0  0  0
    2.9711    4.0252   30.6789 C   0  0  0  0  0  0
    2.3141    4.4997   31.8051 C   0  0  0  0  0  0
    3.0024    3.3443   28.2654 C   0  0  0  0  0  0
   -5.9643   -0.4623   29.6542 C   0  0  0  0  0  0
   -3.8960   -0.7016   30.8848 C   0  0  0  0  0  0
   -4.9728   -1.2701   30.2064 C   0  0  0  0  0  0
   -5.9152    5.9919   30.5597 H   0  0  0  0  0  0
    1.3414    2.4990   27.4331 H   0  0  0  0  0  0
    2.7826    2.4772   26.4547 H   0  0  0  0  0  0
   -1.7336    2.5757   30.5946 H   0  0  0  0  0  0
   -6.8348    3.7122   30.5270 H   0  0  0  0  0  0
   -1.1526    6.8187   30.6042 H   0  0  0  0  0  0
    0.2966    3.7568   28.6053 H   0  0  0  0  0  0
    0.4461    5.1576   32.6120 H   0  0  0  0  0  0
   -6.6423    1.5381   29.3303 H   0  0  0  0  0  0
   -2.9804    1.1050   31.5508 H   0  0  0  0  0  0
    4.0419    3.8883   30.7236 H   0  0  0  0  0  0
    2.8688    4.7332   32.6994 H   0  0  0  0  0  0
   -6.7896   -0.9094   29.1205 H   0  0  0  0  0  0
   -3.1319   -1.3351   31.3094 H   0  0  0  0  0  0
   -5.0346   -2.3428   30.1057 H   0  0  0  0  0  0
  1 21  2  0  0  0
  2  7  1  0  0  0
  2 12  1  0  0  0
  2 25  1  0  0  0
  3  7  2  0  0  0
  3 13  1  0  0  0
  4 21  1  0  0  0
  4 26  1  0  0  0
  4 27  1  0  0  0
  5  6  1  0  0  0
  5  7  1  0  0  0
  5  9  2  0  0  0
  6 10  1  0  0  0
  6 12  2  0  0  0
  8  9  1  0  0  0
  8 11  1  0  0  0
  8 13  2  0  0  0
  9 28  1  0  0  0
 10 17  2  0  0  0
 10 18  1  0  0  0
 11 14  2  0  0  0
 11 16  1  0  0  0
 12 29  1  0  0  0
 13 30  1  0  0  0
 14 15  1  0  0  0
 14 31  1  0  0  0
 15 19  2  0  0  0
 15 21  1  0  0  0
 16 20  2  0  0  0
 16 32  1  0  0  0
 17 22  1  0  0  0
 17 33  1  0  0  0
 18 23  2  0  0  0
 18 34  1  0  0  0
 19 20  1  0  0  0
 19 35  1  0  0  0
 20 36  1  0  0  0
 22 24  2  0  0  0
 22 37  1  0  0  0
 23 24  1  0  0  0
 23 38  1  0  0  0
 24 39  1  0  0  0
M  END
> <s_m_entry_id>
10068

> <s_m_entry_name>
dock_pv.137

> <s_m_Source_Path>
/home/csk/Desktop/cluster/DUD-E-result/met

> <s_m_Source_File>
dock_pv.maegz

> <i_m_Source_File_Index>
137

> <chembl_id>
CHEMBL1982957

> <chembl_pref_name>
None

> <i_lp_mmshare_version>
53161

> <i_f3d_flags>
0

> <r_lp_tautomer_probability>
0.999998432528457

> <s_lp_Force_Field>
OPLS_2005

> <r_lp_Energy>
18.17457

> <b_lp_Chiralities_Consistent>
1

> <s_lp_Variant>
CHEMBL3717_lig4141-1

> <s_i_glide_gridfile>
glide-grid_3lq8

> <i_i_glide_lignum>
5300

> <i_i_glide_rotatable_bonds>
3

> <r_i_docking_score>
-8.30330045847639

> <r_i_glide_ligand_efficiency>
-0.345970852436516

> <r_i_glide_ligand_efficiency_sa>
-0.997952625473725

> <r_i_glide_ligand_efficiency_ln>
-1.98736081334426

> <r_i_glide_gscore>
-8.30330045847639

> <r_i_glide_lipo>
-3.22212069138728

> <r_i_glide_hbond>
0

> <r_i_glide_metal>
0

> <r_i_glide_rewards>
-3.06426257575757

> <r_i_glide_evdw>
-40.8235740661621

> <r_i_glide_ecoul>
-2.36029005050659

> <r_i_glide_erotb>
0.378305019552556

> <r_i_glide_esite>
0

> <r_i_glide_emodel>
-62.2619164814261

> <r_i_glide_energy>
-43.1838641166687

> <r_i_glide_einternal>
2.29810571670532

> <i_i_glide_confnum>
3

> <i_i_glide_posenum>
61

> <r_i_glide_eff_state_penalty>
0

> <s_user_duplicate_titles>
CHEMBL3717_lig4141

> <s_m_subgroup_title>
dock_pv

> <s_m_subgroupid>
dock_pv

> <b_m_subgroup_collapsed>
1

$$$$
CHEMBL3717_lig4365
                    3D
 Schrodinger Suite 2021-1.
 42 46  0  0  1  0            999 V2000
   -4.5754    0.8659   31.1723 C   0  0  0  0  0  0
   -5.1803    1.5465   29.9338 C   0  0  0  0  0  0
   -5.5278    2.9928   30.2084 C   0  0  0  0  0  0
   -6.7435    3.5006   30.2286 N   0  0  0  0  0  0
   -6.6544    4.8693   30.4236 N   0  0  0  0  0  0
   -5.3349    5.1570   30.5100 C   0  0  0  0  0  0
   -4.6162    6.3545   30.6120 C   0  0  0  0  0  0
   -3.2255    6.2917   30.6726 C   0  0  0  0  0  0
   -2.5700    5.0527   30.6270 C   0  0  0  0  0  0
   -3.2516    3.8728   30.5410 N   0  0  0  0  0  0
   -4.5913    3.9798   30.4467 N   0  0  0  0  0  0
   -1.0721    4.9510   30.6269 C   0  0  0  0  0  0
   -0.2803    6.0328   30.2092 C   0  0  0  0  0  0
    1.1059    5.9386   30.1859 C   0  0  0  0  0  0
    1.7272    4.7581   30.5780 C   0  0  0  0  0  0
    0.9673    3.6699   30.9913 C   0  0  0  0  0  0
   -0.4213    3.7664   31.0079 C   0  0  0  0  0  0
   -3.6542   -0.3059   30.8946 C   0  0  0  0  0  0
   -3.7823   -1.0826   29.7342 C   0  0  0  0  0  0
   -2.8727   -2.1064   29.4809 C   0  0  0  0  0  0
   -1.8520   -2.4430   30.3089 N   0  0  0  0  0  0
   -1.7836   -1.7376   31.4358 C   0  0  0  0  0  0
   -0.8940   -1.9177   32.4681 N   0  0  0  0  0  0
   -1.0637   -0.9321   33.4083 C   0  0  0  0  0  0
   -2.0945   -0.1054   33.0080 C   0  0  0  0  0  0
   -2.6122   -0.6393   31.7804 C   0  0  0  0  0  0
   -5.3473    0.5664   31.8824 H   0  0  0  0  0  0
   -3.9394    1.5850   31.6793 H   0  0  0  0  0  0
   -4.4657    1.5183   29.1088 H   0  0  0  0  0  0
   -6.0543    0.9842   29.6012 H   0  0  0  0  0  0
   -5.1391    7.2985   30.6081 H   0  0  0  0  0  0
   -2.6691    7.2123   30.7517 H   0  0  0  0  0  0
   -0.7256    6.9572   29.8736 H   0  0  0  0  0  0
    1.6934    6.7792   29.8514 H   0  0  0  0  0  0
    2.8047    4.6829   30.5548 H   0  0  0  0  0  0
    1.4495    2.7499   31.2890 H   0  0  0  0  0  0
   -0.9917    2.9056   31.3266 H   0  0  0  0  0  0
   -4.5601   -0.8899   29.0085 H   0  0  0  0  0  0
   -2.9579   -2.6922   28.5760 H   0  0  0  0  0  0
   -0.1552   -2.6053   32.5292 H   0  0  0  0  0  0
   -0.4210   -0.8997   34.2773 H   0  0  0  0  0  0
   -2.4512    0.7550   33.5548 H   0  0  0  0  0  0
  1  2  1  0  0  0
  1 18  1  0  0  0
  1 27  1  0  0  0
  1 28  1  0  0  0
  2  3  1  0  0  0
  2 29  1  0  0  0
  2 30  1  0  0  0
  3  4  2  0  0  0
  3 11  1  0  0  0
  4  5  1  0  0  0
  5  6  2  0  0  0
  6  7  1  0  0  0
  6 11  1  0  0  0
  7  8  2  0  0  0
  7 31  1  0  0  0
  8  9  1  0  0  0
  8 32  1  0  0  0
  9 10  2  0  0  0
  9 12  1  0  0  0
 10 11  1  0  0  0
 12 13  2  0  0  0
 12 17  1  0  0  0
 13 14  1  0  0  0
 13 33  1  0  0  0
 14 15  2  0  0  0
 14 34  1  0  0  0
 15 16  1  0  0  0
 15 35  1  0  0  0
 16 17  2  0  0  0
 16 36  1  0  0  0
 17 37  1  0  0  0
 18 19  2  0  0  0
 18 26  1  0  0  0
 19 20  1  0  0  0
 19 38  1  0  0  0
 20 21  2  0  0  0
 20 39  1  0  0  0
 21 22  1  0  0  0
 22 23  1  0  0  0
 22 26  2  0  0  0
 23 24  1  0  0  0
 23 40  1  0  0  0
 24 25  2  0  0  0
 24 41  1  0  0  0
 25 26  1  0  0  0
 25 42  1  0  0  0
M  END
> <s_m_entry_id>
10069

> <s_m_entry_name>
dock_pv.138

> <s_m_Source_Path>
/home/csk/Desktop/cluster/DUD-E-result/met

> <s_m_Source_File>
dock_pv.maegz

> <i_m_Source_File_Index>
138

> <chembl_id>
CHEMBL3668189

> <chembl_pref_name>
None

> <i_lp_mmshare_version>
53161

> <i_f3d_flags>
0

> <r_lp_tautomer_probability>
0.999998432528457

> <s_lp_Force_Field>
OPLS_2005

> <r_lp_Energy>
17.944912

> <b_lp_Chiralities_Consistent>
1

> <s_lp_Variant>
CHEMBL3717_lig4365-1

> <s_i_glide_gridfile>
glide-grid_3lq8

> <i_i_glide_lignum>
5590

> <i_i_glide_rotatable_bonds>
4

> <r_i_docking_score>
-8.29998923460147

> <r_i_glide_ligand_efficiency>
-0.31923035517698

> <r_i_glide_ligand_efficiency_sa>
-0.945718671101009

> <r_i_glide_ligand_efficiency_ln>
-1.94922523726013

> <r_i_glide_gscore>
-8.29998923460147

> <r_i_glide_lipo>
-3.5207444914905

> <r_i_glide_hbond>
-0.24127019199177

> <r_i_glide_metal>
0

> <r_i_glide_rewards>
-2.94622919551612

> <r_i_glide_evdw>
-41.73828125

> <r_i_glide_ecoul>
-1.05740880966187

> <r_i_glide_erotb>
0.653780028346197

> <r_i_glide_esite>
0

> <r_i_glide_emodel>
-60.2133140022906

> <r_i_glide_energy>
-42.7956900596619

> <r_i_glide_einternal>
3.74844813346863

> <i_i_glide_confnum>
36

> <i_i_glide_posenum>
315

> <r_i_glide_eff_state_penalty>
0

> <s_user_duplicate_titles>
CHEMBL3717_lig4365

> <s_m_subgroup_title>
dock_pv

> <s_m_subgroupid>
dock_pv

> <b_m_subgroup_collapsed>
1

$$$$
CHEMBL3717_lig1647
                    3D
 Schrodinger Suite 2021-1.
 58 61  0  0  1  0            999 V2000
   -5.4977    2.9432   30.6050 C   0  0  0  0  0  0
   -5.9751    4.2510   30.6082 C   0  0  0  0  0  0
   -5.0721    5.3121   30.6080 C   0  0  0  0  0  0
   -4.1341    2.6297   30.5846 C   0  0  0  0  0  0
   -3.2014    3.7243   30.6080 C   0  0  0  0  0  0
   -3.6821    5.0712   30.6077 C   0  0  0  0  0  0
   -2.8445    6.1450   30.6081 N   0  0  0  0  0  0
   -1.5072    5.9232   30.6081 C   0  0  0  0  0  0
   -0.9191    4.6555   30.6387 C   0  0  0  0  0  0
   -1.7849    3.5570   30.6451 C   0  0  0  0  0  0
    0.4620    4.4717   30.6170 N   0  0  0  0  0  0
    1.4121    5.4436   30.0662 C   0  0  0  0  0  0
    2.5843    4.7953   29.2948 C   0  0  0  0  0  0
    3.2321    3.7658   30.1069 N   0  0  0  0  0  0
    2.3468    2.7506   30.6923 C   0  0  0  0  0  0
    1.1472    3.4296   31.3948 C   0  0  0  0  0  0
   -3.6372    1.3027   30.5638 N   0  0  0  0  0  0
   -7.4815    4.5117   30.5985 C   0  0  0  0  0  0
   -7.8842    4.7570   31.8462 F   0  0  0  0  0  0
   -7.7702    5.5601   29.8344 F   0  0  0  0  0  0
   -8.1724    3.4715   30.1263 F   0  0  0  0  0  0
   -4.2793   -0.0180   30.4288 C   0  0  0  0  0  0
   -5.7886   -0.1002   30.2597 C   0  0  0  0  0  0
   -6.5996   -0.3509   31.3699 C   0  0  0  0  0  0
   -7.9847   -0.3859   31.2278 C   0  0  0  0  0  0
   -8.5666   -0.1654   29.9797 C   0  0  0  0  0  0
   -7.7729    0.0949   28.8512 C   0  0  0  0  0  0
   -6.3768    0.1129   29.0073 C   0  0  0  0  0  0
   -8.3996    0.3562   27.5312 N   0  3  0  0  0  0
   -9.6072    0.1694   27.4098 O   0  0  0  0  0  0
   -7.6937    0.7569   26.6111 O   0  5  0  0  0  0
    4.5853    3.6048   30.1229 C   0  0  0  0  0  0
    5.5042    4.6764   29.4729 C   0  0  0  0  0  0
    5.1066    2.6126   30.6305 O   0  0  0  0  0  0
    6.9061    4.3569   29.6498 N   0  0  0  0  0  0
   -6.2476    2.1820   30.6473 H   0  0  0  0  0  0
   -5.4317    6.3327   30.6061 H   0  0  0  0  0  0
   -0.8970    6.8141   30.6061 H   0  0  0  0  0  0
   -1.3766    2.5615   30.6322 H   0  0  0  0  0  0
    0.9068    6.1624   29.4206 H   0  0  0  0  0  0
    1.8021    6.0027   30.9180 H   0  0  0  0  0  0
    3.2887    5.5573   29.0080 H   0  0  0  0  0  0
    2.1820    4.3354   28.3906 H   0  0  0  0  0  0
    1.9545    2.1418   29.8780 H   0  0  0  0  0  0
    2.8547    2.0999   31.4062 H   0  0  0  0  0  0
    0.4474    2.6831   31.7611 H   0  0  0  0  0  0
    1.5185    3.9428   32.2837 H   0  0  0  0  0  0
   -2.6327    1.2389   30.6283 H   0  0  0  0  0  0
   -3.8202   -0.5202   29.5753 H   0  0  0  0  0  0
   -3.9874   -0.6209   31.2904 H   0  0  0  0  0  0
   -6.1605   -0.5035   32.3463 H   0  0  0  0  0  0
   -8.6085   -0.5752   32.0894 H   0  0  0  0  0  0
   -9.6445   -0.1876   29.8989 H   0  0  0  0  0  0
   -5.7362    0.3063   28.1591 H   0  0  0  0  0  0
    5.3112    5.6521   29.9190 H   0  0  0  0  0  0
    5.2938    4.7345   28.4043 H   0  0  0  0  0  0
    7.1065    3.4849   29.1690 H   0  0  0  0  0  0
    7.4970    5.0587   29.2206 H   0  0  0  0  0  0
  1  2  2  0  0  0
  1  4  1  0  0  0
  1 36  1  0  0  0
  2  3  1  0  0  0
  2 18  1  0  0  0
  3  6  2  0  0  0
  3 37  1  0  0  0
  4  5  2  0  0  0
  4 17  1  0  0  0
  5  6  1  0  0  0
  5 10  1  0  0  0
  6  7  1  0  0  0
  7  8  2  0  0  0
  8  9  1  0  0  0
  8 38  1  0  0  0
  9 10  2  0  0  0
  9 11  1  0  0  0
 10 39  1  0  0  0
 11 12  1  0  0  0
 11 16  1  0  0  0
 12 13  1  0  0  0
 12 40  1  0  0  0
 12 41  1  0  0  0
 13 14  1  0  0  0
 13 42  1  0  0  0
 13 43  1  0  0  0
 14 15  1  0  0  0
 14 32  1  0  0  0
 15 16  1  0  0  0
 15 44  1  0  0  0
 15 45  1  0  0  0
 16 46  1  0  0  0
 16 47  1  0  0  0
 17 22  1  0  0  0
 17 48  1  0  0  0
 18 19  1  0  0  0
 18 20  1  0  0  0
 18 21  1  0  0  0
 22 23  1  0  0  0
 22 49  1  0  0  0
 22 50  1  0  0  0
 23 24  2  0  0  0
 23 28  1  0  0  0
 24 25  1  0  0  0
 24 51  1  0  0  0
 25 26  2  0  0  0
 25 52  1  0  0  0
 26 27  1  0  0  0
 26 53  1  0  0  0
 27 28  2  0  0  0
 27 29  1  0  0  0
 28 54  1  0  0  0
 29 30  2  0  0  0
 29 31  1  0  0  0
 32 33  1  0  0  0
 32 34  2  0  0  0
 33 35  1  0  0  0
 33 55  1  0  0  0
 33 56  1  0  0  0
 35 57  1  0  0  0
 35 58  1  0  0  0
M  CHG  2  29   1  31  -1
M  END
> <s_m_entry_id>
10070

> <s_m_entry_name>
dock_pv.139

> <s_m_Source_Path>
/home/csk/Desktop/cluster/DUD-E-result/met

> <s_m_Source_File>
dock_pv.maegz

> <i_m_Source_File_Index>
139

> <chembl_id>
CHEMBL3220877

> <chembl_pref_name>
None

> <i_lp_mmshare_version>
53161

> <i_f3d_flags>
0

> <r_lp_tautomer_probability>
1

> <s_lp_Force_Field>
OPLS_2005

> <r_lp_Energy>
51.745088

> <b_lp_Chiralities_Consistent>
1

> <s_lp_Variant>
CHEMBL3717_lig1647-1

> <s_i_glide_gridfile>
glide-grid_3lq8

> <i_i_glide_lignum>
1901

> <i_i_glide_rotatable_bonds>
8

> <r_i_docking_score>
-8.28913333023149

> <r_i_glide_ligand_efficiency>
-0.236832380863757

> <r_i_glide_ligand_efficiency_sa>
-0.774694421287085

> <r_i_glide_ligand_efficiency_ln>
-1.81964873338818

> <r_i_glide_gscore>
-8.28913333023149

> <r_i_glide_lipo>
-3.34847284585631

> <r_i_glide_hbond>
-0.222614621102741

> <r_i_glide_metal>
0

> <r_i_glide_rewards>
-2.06660483818641

> <r_i_glide_evdw>
-47.7264213562012

> <r_i_glide_ecoul>
-4.318922996521

> <r_i_glide_erotb>
0.426173407091298

> <r_i_glide_esite>
-0.0434549148891134

> <r_i_glide_emodel>
-76.361580165108

> <r_i_glide_energy>
-52.0453443527222

> <r_i_glide_einternal>
3.09373044967651

> <i_i_glide_confnum>
13

> <i_i_glide_posenum>
216

> <r_i_glide_eff_state_penalty>
0

> <s_user_duplicate_titles>
CHEMBL3717_lig1647

> <s_m_subgroup_title>
dock_pv

> <s_m_subgroupid>
dock_pv

> <b_m_subgroup_collapsed>
1

$$$$
CHEMBL3717_lig3980
                    3D
 Schrodinger Suite 2021-1.
 27 29  0  0  1  0            999 V2000
    1.1060    6.2077   30.2080 S   0  0  0  0  0  0
   -1.9023   -0.0919   33.1725 F   0  0  0  0  0  0
    3.7901    4.7570   30.2602 O   0  0  0  0  0  0
    2.9325    2.7570   30.9535 O   0  0  0  0  0  0
   -2.9440    6.4794   30.3578 N   0  0  0  0  0  0
   -0.9066    4.5640   30.6604 C   0  0  0  0  0  0
   -0.6140    5.9246   30.3617 C   0  0  0  0  0  0
   -2.2648    4.1726   30.7786 C   0  0  0  0  0  0
    1.4534    4.5273   30.5509 C   0  0  0  0  0  0
    0.2916    3.8039   30.7650 C   0  0  0  0  0  0
   -2.6822    2.7575   31.0080 C   0  0  0  0  0  0
   -1.6524    6.8466   30.2080 C   0  0  0  0  0  0
   -3.2249    5.1826   30.6214 C   0  0  0  0  0  0
    2.8242    4.0606   30.5644 C   0  0  0  0  0  0
   -2.0940    1.9707   32.0096 C   0  0  0  0  0  0
   -3.6940    2.1827   30.2231 C   0  0  0  0  0  0
   -2.4940    0.6467   32.2080 C   0  0  0  0  0  0
   -4.0928    0.8594   30.4160 C   0  0  0  0  0  0
   -3.4890    0.0892   31.4081 C   0  0  0  0  0  0
    2.0782    2.3519   31.0964 H   0  0  0  0  0  0
    0.2651    2.7570   30.9761 H   0  0  0  0  0  0
   -1.4560    7.8854   29.9778 H   0  0  0  0  0  0
   -4.2782    4.9533   30.7051 H   0  0  0  0  0  0
   -1.3245    2.3712   32.6474 H   0  0  0  0  0  0
   -4.1710    2.7595   29.4445 H   0  0  0  0  0  0
   -4.8640    0.4290   29.7931 H   0  0  0  0  0  0
   -3.7915   -0.9368   31.5589 H   0  0  0  0  0  0
  1  7  1  0  0  0
  1  9  1  0  0  0
  2 17  1  0  0  0
  3 14  2  0  0  0
  4 14  1  0  0  0
  4 20  1  0  0  0
  5 12  1  0  0  0
  5 13  2  0  0  0
  6  7  1  0  0  0
  6  8  2  0  0  0
  6 10  1  0  0  0
  7 12  2  0  0  0
  8 11  1  0  0  0
  8 13  1  0  0  0
  9 10  2  0  0  0
  9 14  1  0  0  0
 10 21  1  0  0  0
 11 15  1  0  0  0
 11 16  2  0  0  0
 12 22  1  0  0  0
 13 23  1  0  0  0
 15 17  2  0  0  0
 15 24  1  0  0  0
 16 18  1  0  0  0
 16 25  1  0  0  0
 17 19  1  0  0  0
 18 19  2  0  0  0
 18 26  1  0  0  0
 19 27  1  0  0  0
M  END
> <s_m_entry_id>
10071

> <s_m_entry_name>
dock_pv.140

> <s_m_Source_Path>
/home/csk/Desktop/cluster/DUD-E-result/met

> <s_m_Source_File>
dock_pv.maegz

> <i_m_Source_File_Index>
140

> <chembl_id>
CHEMBL1974457

> <chembl_pref_name>
None

> <i_lp_mmshare_version>
53161

> <i_f3d_flags>
0

> <r_lp_tautomer_probability>
1

> <s_lp_Force_Field>
OPLS_2005

> <r_lp_Energy>
11.723625

> <b_lp_Chiralities_Consistent>
1

> <s_lp_Variant>
CHEMBL3717_lig3980-1

> <s_i_glide_gridfile>
glide-grid_3lq8

> <i_i_glide_lignum>
5065

> <i_i_glide_rotatable_bonds>
3

> <r_i_docking_score>
-8.27162664567707

> <r_i_glide_ligand_efficiency>
-0.435348770825109

> <r_i_glide_ligand_efficiency_sa>
-1.16168537669862

> <r_i_glide_ligand_efficiency_ln>
-2.09703501292979

> <r_i_glide_gscore>
-8.27162664567707

> <r_i_glide_lipo>
-3.27428296085863

> <r_i_glide_hbond>
-0.0252618422159732

> <r_i_glide_metal>
0

> <r_i_glide_rewards>
-3.91058693541151

> <r_i_glide_evdw>
-27.0798797607422

> <r_i_glide_ecoul>
-1.25224244594574

> <r_i_glide_erotb>
0.480335447738021

> <r_i_glide_esite>
0

> <r_i_glide_emodel>
-44.316191950436

> <r_i_glide_energy>
-28.3321222066879

> <r_i_glide_einternal>
0.227152839303017

> <i_i_glide_confnum>
5

> <i_i_glide_posenum>
362

> <r_i_glide_eff_state_penalty>
0

> <s_user_duplicate_titles>
CHEMBL3717_lig3980

> <s_m_subgroup_title>
dock_pv

> <s_m_subgroupid>
dock_pv

> <b_m_subgroup_collapsed>
1

$$$$
CHEMBL3717_lig3415
                    3D
 Schrodinger Suite 2021-1.
 43 46  0  0  1  0            999 V2000
   -5.6793    1.8774   30.3622 C   0  0  0  0  0  0
   -4.2886    1.7108   30.3549 C   0  0  0  0  0  0
   -3.4076    2.7425   30.4614 N   0  0  0  0  0  0
   -6.2321    3.1530   30.4946 C   0  0  0  0  0  0
   -5.3478    4.2349   30.6081 C   0  0  0  0  0  0
   -3.9692    3.9624   30.5845 N   0  0  0  0  0  0
   -3.3572    5.2086   30.6672 C   0  0  0  0  0  0
   -4.2894    6.1363   30.7888 N   0  0  0  0  0  0
   -5.5453    5.5569   30.7661 N   0  0  0  0  0  0
   -1.8887    5.5234   30.6080 C   0  0  0  0  0  0
   -1.5010    6.7571   30.0626 C   0  0  0  0  0  0
   -0.1587    7.0738   29.8759 C   0  0  0  0  0  0
    0.8215    6.1759   30.2812 C   0  0  0  0  0  0
    0.4704    4.9580   30.8732 C   0  0  0  0  0  0
   -0.8878    4.6293   31.0080 C   0  0  0  0  0  0
    1.5709    4.0226   31.3709 C   0  0  0  0  0  0
    1.1666    2.7575   31.4064 F   0  0  0  0  0  0
    1.9078    4.3814   32.6082 F   0  0  0  0  0  0
    2.6565    4.0913   30.5975 F   0  0  0  0  0  0
   -3.6940    0.4600   30.1733 N   0  0  0  0  0  0
   -4.2623   -0.7661   30.7379 C   0  0  0  0  0  0
   -3.7158   -1.9852   29.9778 C   0  0  0  0  0  0
   -2.1911   -2.1628   30.1456 C   0  0  0  0  0  0
   -1.7574   -2.1435   31.5484 N   0  0  2  0  0  0
   -2.3078   -1.0710   32.3783 C   0  0  0  0  0  0
   -3.8366   -0.9089   32.2079 C   0  0  0  0  0  0
   -6.3403    1.0313   30.2452 H   0  0  0  0  0  0
   -7.3010    3.3085   30.5057 H   0  0  0  0  0  0
   -2.2418    7.4724   29.7423 H   0  0  0  0  0  0
    0.1192    8.0193   29.4301 H   0  0  0  0  0  0
    1.8621    6.4366   30.1569 H   0  0  0  0  0  0
   -1.1660    3.6797   31.4423 H   0  0  0  0  0  0
   -2.6874    0.4885   30.1759 H   0  0  0  0  0  0
   -5.3493   -0.7603   30.6725 H   0  0  0  0  0  0
   -4.2252   -2.9014   30.2803 H   0  0  0  0  0  0
   -3.9417   -1.8846   28.9147 H   0  0  0  0  0  0
   -1.8884   -3.1163   29.7097 H   0  0  0  0  0  0
   -1.6698   -1.3824   29.5955 H   0  0  0  0  0  0
   -0.7491   -2.1937   31.6221 H   0  0  0  0  0  0
   -2.0752   -1.3130   33.4129 H   0  0  0  0  0  0
   -1.7945   -0.1349   32.1595 H   0  0  0  0  0  0
   -4.1700   -0.0424   32.7789 H   0  0  0  0  0  0
   -4.3463   -1.7515   32.6781 H   0  0  0  0  0  0
  1  2  1  0  0  0
  1  4  2  0  0  0
  1 27  1  0  0  0
  2  3  2  0  0  0
  2 20  1  0  0  0
  3  6  1  0  0  0
  4  5  1  0  0  0
  4 28  1  0  0  0
  5  9  2  0  0  0
  5  6  1  0  0  0
  6  7  1  0  0  0
  7  8  2  0  0  0
  7 10  1  0  0  0
  8  9  1  0  0  0
 10 15  1  0  0  0
 10 11  2  0  0  0
 11 12  1  0  0  0
 11 29  1  0  0  0
 12 13  2  0  0  0
 12 30  1  0  0  0
 13 14  1  0  0  0
 13 31  1  0  0  0
 14 15  2  0  0  0
 14 16  1  0  0  0
 15 32  1  0  0  0
 16 17  1  0  0  0
 16 18  1  0  0  0
 16 19  1  0  0  0
 20 21  1  0  0  0
 20 33  1  0  0  0
 21 22  1  0  0  0
 21 26  1  0  0  0
 21 34  1  0  0  0
 22 23  1  0  0  0
 22 35  1  0  0  0
 22 36  1  0  0  0
 23 24  1  0  0  0
 23 37  1  0  0  0
 23 38  1  0  0  0
 24 25  1  0  0  0
 24 39  1  0  0  0
 25 26  1  0  0  0
 25 40  1  0  0  0
 25 41  1  0  0  0
 26 42  1  0  0  0
 26 43  1  0  0  0
M  END
> <s_m_entry_id>
10072

> <s_m_entry_name>
dock_pv.141

> <s_m_Source_Path>
/home/csk/Desktop/cluster/DUD-E-result/met

> <s_m_Source_File>
dock_pv.maegz

> <i_m_Source_File_Index>
141

> <chembl_id>
CHEMBL493169

> <chembl_pref_name>
None

> <i_lp_mmshare_version>
53161

> <i_f3d_flags>
0

> <r_lp_tautomer_probability>
1

> <s_lp_Force_Field>
OPLS_2005

> <r_lp_Energy>
26.869302

> <b_lp_Chiralities_Consistent>
1

> <s_lp_Variant>
CHEMBL3717_lig3415-1

> <s_i_glide_gridfile>
glide-grid_3lq8

> <i_i_glide_lignum>
4201

> <i_i_glide_rotatable_bonds>
4

> <r_i_docking_score>
-8.27074061793246

> <r_i_glide_ligand_efficiency>
-0.318105408382018

> <r_i_glide_ligand_efficiency_sa>
-0.942386020647387

> <r_i_glide_ligand_efficiency_ln>
-1.94235629560795

> <r_i_glide_gscore>
-8.27074061793246

> <r_i_glide_lipo>
-3.11242174163917

> <r_i_glide_hbond>
0

> <r_i_glide_metal>
0

> <r_i_glide_rewards>
-3.33437770264921

> <r_i_glide_evdw>
-42.6178131103516

> <r_i_glide_ecoul>
-0.878442406654358

> <r_i_glide_erotb>
0.438715842871654

> <r_i_glide_esite>
0

> <r_i_glide_emodel>
-60.7712348892904

> <r_i_glide_energy>
-43.4962555170059

> <r_i_glide_einternal>
7.98254489898682

> <i_i_glide_confnum>
43

> <i_i_glide_posenum>
323

> <r_i_glide_eff_state_penalty>
0

> <s_user_duplicate_titles>
CHEMBL3717_lig3415

> <s_m_subgroup_title>
dock_pv

> <s_m_subgroupid>
dock_pv

> <b_m_subgroup_collapsed>
1

$$$$
CHEMBL3717_lig4290
                    3D
 Schrodinger Suite 2021-1.
 38 42  0  0  1  0            999 V2000
   -3.0471    2.7739   30.8682 C   0  0  0  0  0  0
   -2.9401    4.2995   30.7921 C   0  0  0  0  0  0
   -3.8804    5.2103   30.9660 N   0  0  0  0  0  0
   -3.3540    6.4736   30.7413 N   0  0  0  0  0  0
   -2.0360    6.2934   30.5123 C   0  0  0  0  0  0
   -0.9810    7.1642   30.2017 C   0  0  0  0  0  0
    0.2867    6.6111   30.0122 C   0  0  0  0  0  0
    0.4719    5.2311   30.1418 C   0  0  0  0  0  0
   -0.5198    4.3613   30.4603 N   0  0  0  0  0  0
   -1.7291    4.9293   30.6081 N   0  0  0  0  0  0
    1.7838    4.6070   29.8940 C   0  0  0  0  0  0
    2.7822    4.6928   30.8627 C   0  0  0  0  0  0
    4.0502    4.1846   30.6119 C   0  0  0  0  0  0
    4.3056    3.5570   29.3998 C   0  0  0  0  0  0
    3.3084    3.4314   28.4351 C   0  0  0  0  0  0
    2.0447    3.9600   28.6821 C   0  0  0  0  0  0
   -4.3152    2.1229   30.5128 N   0  0  0  0  0  0
   -5.5465    2.6774   30.2073 C   0  0  0  0  0  0
   -6.4792    1.8112   29.9075 N   0  0  0  0  0  0
   -5.8513    0.6030   30.0176 C   0  0  0  0  0  0
   -6.3377   -0.6934   29.8077 C   0  0  0  0  0  0
   -5.5441   -1.7818   29.9702 N   0  0  0  0  0  0
   -4.2519   -1.6022   30.3469 C   0  0  0  0  0  0
   -3.6600   -0.3573   30.5870 C   0  0  0  0  0  0
   -4.4964    0.7540   30.4062 C   0  0  0  0  0  0
   -2.7694    2.4211   31.8570 H   0  0  0  0  0  0
   -2.2985    2.3425   30.2072 H   0  0  0  0  0  0
   -1.1423    8.2299   30.1048 H   0  0  0  0  0  0
    1.1172    7.2513   29.7529 H   0  0  0  0  0  0
    2.5743    5.1568   31.8126 H   0  0  0  0  0  0
    4.8286    4.2781   31.3546 H   0  0  0  0  0  0
    5.2891    3.1577   29.2182 H   0  0  0  0  0  0
    3.5150    2.9309   27.5005 H   0  0  0  0  0  0
    1.2739    3.8734   27.9287 H   0  0  0  0  0  0
   -5.6995    3.7444   30.2099 H   0  0  0  0  0  0
   -7.3591   -0.8721   29.5055 H   0  0  0  0  0  0
   -3.6721   -2.5086   30.4537 H   0  0  0  0  0  0
   -2.6247   -0.2702   30.8795 H   0  0  0  0  0  0
  1  2  1  0  0  0
  1 17  1  0  0  0
  1 26  1  0  0  0
  1 27  1  0  0  0
  2  3  2  0  0  0
  2 10  1  0  0  0
  3  4  1  0  0  0
  4  5  2  0  0  0
  5  6  1  0  0  0
  5 10  1  0  0  0
  6  7  2  0  0  0
  6 28  1  0  0  0
  7  8  1  0  0  0
  7 29  1  0  0  0
  8  9  2  0  0  0
  8 11  1  0  0  0
  9 10  1  0  0  0
 11 12  2  0  0  0
 11 16  1  0  0  0
 12 13  1  0  0  0
 12 30  1  0  0  0
 13 14  2  0  0  0
 13 31  1  0  0  0
 14 15  1  0  0  0
 14 32  1  0  0  0
 15 16  2  0  0  0
 15 33  1  0  0  0
 16 34  1  0  0  0
 17 18  1  0  0  0
 17 25  1  0  0  0
 18 19  2  0  0  0
 18 35  1  0  0  0
 19 20  1  0  0  0
 20 21  2  0  0  0
 20 25  1  0  0  0
 21 22  1  0  0  0
 21 36  1  0  0  0
 22 23  2  0  0  0
 23 24  1  0  0  0
 23 37  1  0  0  0
 24 25  2  0  0  0
 24 38  1  0  0  0
M  END
> <s_m_entry_id>
10073

> <s_m_entry_name>
dock_pv.142

> <s_m_Source_Path>
/home/csk/Desktop/cluster/DUD-E-result/met

> <s_m_Source_File>
dock_pv.maegz

> <i_m_Source_File_Index>
142

> <chembl_id>
CHEMBL3663580

> <chembl_pref_name>
None

> <i_lp_mmshare_version>
53161

> <i_f3d_flags>
0

> <r_lp_tautomer_probability>
1

> <s_lp_Force_Field>
OPLS_2005

> <r_lp_Energy>
20.14495

> <b_lp_Chiralities_Consistent>
1

> <s_lp_Variant>
CHEMBL3717_lig4290-1

> <s_i_glide_gridfile>
glide-grid_3lq8

> <i_i_glide_lignum>
5511

> <i_i_glide_rotatable_bonds>
3

> <r_i_docking_score>
-8.26506390084932

> <r_i_glide_ligand_efficiency>
-0.330602556033973

> <r_i_glide_ligand_efficiency_sa>
-0.966687737104634

> <r_i_glide_ligand_efficiency_ln>
-1.95906782847953

> <r_i_glide_gscore>
-8.26506390084932

> <r_i_glide_lipo>
-3.12665742834057

> <r_i_glide_hbond>
0

> <r_i_glide_metal>
0

> <r_i_glide_rewards>
-3.4450887608267

> <r_i_glide_evdw>
-41.454345703125

> <r_i_glide_ecoul>
-0.973483562469482

> <r_i_glide_erotb>
0.525422107844622

> <r_i_glide_esite>
0

> <r_i_glide_emodel>
-56.6870949513141

> <r_i_glide_energy>
-42.4278292655945

> <r_i_glide_einternal>
8.31078052520752

> <i_i_glide_confnum>
31

> <i_i_glide_posenum>
264

> <r_i_glide_eff_state_penalty>
0

> <s_user_duplicate_titles>
CHEMBL3717_lig4290

> <s_m_subgroup_title>
dock_pv

> <s_m_subgroupid>
dock_pv

> <b_m_subgroup_collapsed>
1

$$$$
CHEMBL3717_lig3906
                    3D
 Schrodinger Suite 2021-1.
 35 38  0  0  1  0            999 V2000
   -6.0491    3.4638   30.5466 C   0  0  0  0  0  0
   -4.8678    2.7156   30.5424 C   0  0  0  0  0  0
   -3.6310    3.2853   30.5836 N   0  0  0  0  0  0
   -5.9995    4.8604   30.5890 C   0  0  0  0  0  0
   -4.7358    5.4697   30.6081 C   0  0  0  0  0  0
   -3.6124    4.6322   30.6080 N   0  0  0  0  0  0
   -2.5237    5.4938   30.6119 C   0  0  0  0  0  0
   -2.9573    6.7405   30.6080 N   0  0  0  0  0  0
   -4.3345    6.7569   30.6080 N   0  0  0  0  0  0
   -1.0698    5.1302   30.6088 C   0  0  0  0  0  0
   -0.1318    6.0856   30.2043 C   0  0  0  0  0  0
    1.2180    5.7648   30.1476 C   0  0  0  0  0  0
    1.6594    4.4912   30.5146 C   0  0  0  0  0  0
    0.7309    3.5570   30.9685 C   0  0  0  0  0  0
   -0.6218    3.8682   31.0080 C   0  0  0  0  0  0
   -4.9810    1.3188   30.4694 N   0  0  0  0  0  0
   -3.8160    0.4632   30.6672 C   0  0  0  0  0  0
   -3.7178   -0.2799   31.9744 C   0  0  0  0  0  0
   -4.0516   -1.0248   30.6942 C   0  0  0  0  0  0
    3.1284    4.0939   30.3901 C   0  0  0  0  0  0
    3.7390    4.7571   29.4081 F   0  0  0  0  0  0
    3.2515    2.7899   30.1437 F   0  0  0  0  0  0
    3.7482    4.3570   31.5357 F   0  0  0  0  0  0
   -7.0074    2.9667   30.5056 H   0  0  0  0  0  0
   -6.8992    5.4592   30.5683 H   0  0  0  0  0  0
   -0.4449    7.0749   29.9018 H   0  0  0  0  0  0
    1.9060    6.5185   29.8080 H   0  0  0  0  0  0
    1.0545    2.5733   31.2767 H   0  0  0  0  0  0
   -1.3039    3.1135   31.3650 H   0  0  0  0  0  0
   -5.8708    0.9380   30.7530 H   0  0  0  0  0  0
   -2.8940    0.8211   30.2079 H   0  0  0  0  0  0
   -2.7318   -0.4045   32.4222 H   0  0  0  0  0  0
   -4.4961   -0.1329   32.7248 H   0  0  0  0  0  0
   -5.0629   -1.4038   30.5423 H   0  0  0  0  0  0
   -3.3006   -1.6739   30.2422 H   0  0  0  0  0  0
  1  2  1  0  0  0
  1  4  2  0  0  0
  1 24  1  0  0  0
  2  3  2  0  0  0
  2 16  1  0  0  0
  3  6  1  0  0  0
  4  5  1  0  0  0
  4 25  1  0  0  0
  5  9  2  0  0  0
  5  6  1  0  0  0
  6  7  1  0  0  0
  7  8  2  0  0  0
  7 10  1  0  0  0
  8  9  1  0  0  0
 10 11  2  0  0  0
 10 15  1  0  0  0
 11 12  1  0  0  0
 11 26  1  0  0  0
 12 13  2  0  0  0
 12 27  1  0  0  0
 13 14  1  0  0  0
 13 20  1  0  0  0
 14 15  2  0  0  0
 14 28  1  0  0  0
 15 29  1  0  0  0
 16 17  1  0  0  0
 16 30  1  0  0  0
 17 18  1  0  0  0
 17 19  1  0  0  0
 17 31  1  0  0  0
 18 19  1  0  0  0
 18 32  1  0  0  0
 18 33  1  0  0  0
 19 34  1  0  0  0
 19 35  1  0  0  0
 20 21  1  0  0  0
 20 22  1  0  0  0
 20 23  1  0  0  0
M  END
> <s_m_entry_id>
10074

> <s_m_entry_name>
dock_pv.143

> <s_m_Source_Path>
/home/csk/Desktop/cluster/DUD-E-result/met

> <s_m_Source_File>
dock_pv.maegz

> <i_m_Source_File_Index>
143

> <chembl_id>
CHEMBL451964

> <chembl_pref_name>
None

> <i_lp_mmshare_version>
53161

> <i_f3d_flags>
0

> <r_lp_tautomer_probability>
1

> <s_lp_Force_Field>
OPLS_2005

> <r_lp_Energy>
24.662397

> <b_lp_Chiralities_Consistent>
1

> <s_lp_Variant>
CHEMBL3717_lig3906-1

> <s_i_glide_gridfile>
glide-grid_3lq8

> <i_i_glide_lignum>
4959

> <i_i_glide_rotatable_bonds>
4

> <r_i_docking_score>
-8.25700369381548

> <r_i_glide_ligand_efficiency>
-0.359000160600673

> <r_i_glide_ligand_efficiency_sa>
-1.0209487014266

> <r_i_glide_ligand_efficiency_ln>
-1.99661836353465

> <r_i_glide_gscore>
-8.25700369381548

> <r_i_glide_lipo>
-2.87214483483402

> <r_i_glide_hbond>
0

> <r_i_glide_metal>
0

> <r_i_glide_rewards>
-3.74042226686725

> <r_i_glide_evdw>
-36.8205451965332

> <r_i_glide_ecoul>
-2.2971351146698

> <r_i_glide_erotb>
0.549035873593293

> <r_i_glide_esite>
-0.00787493868036751

> <r_i_glide_emodel>
-56.1321268068604

> <r_i_glide_energy>
-39.117680311203

> <r_i_glide_einternal>
4.12057638168335

> <i_i_glide_confnum>
9

> <i_i_glide_posenum>
307

> <r_i_glide_eff_state_penalty>
0

> <s_user_duplicate_titles>
CHEMBL3717_lig3906

> <s_m_subgroup_title>
dock_pv

> <s_m_subgroupid>
dock_pv

> <b_m_subgroup_collapsed>
1

$$$$
CHEMBL3717_lig2075
                    3D
 Schrodinger Suite 2021-1.
 41 45  0  0  1  0            999 V2000
   -4.5196    1.1563   28.2083 F   0  0  0  0  0  0
   -5.2274    0.5985   29.1897 C   0  0  0  0  0  0
   -6.0951   -0.2448   28.6260 F   0  0  0  0  0  0
   -3.9753    4.7570   30.6215 C   0  0  0  0  0  0
   -5.0587    5.4867   31.1220 C   0  0  0  0  0  0
   -6.3231    4.9107   31.2824 C   0  0  0  0  0  0
   -4.2089    3.4442   30.2063 C   0  0  0  0  0  0
   -5.4690    2.9061   30.2762 N   0  0  0  0  0  0
   -6.5460    3.6090   30.8240 C   0  0  0  0  0  0
   -7.6416    2.8163   30.8395 N   0  0  0  0  0  0
   -7.2638    1.6140   30.2721 N   0  0  0  0  0  0
   -5.9935    1.6808   29.9270 C   0  0  0  0  0  0
   -2.5978    5.3274   30.5781 C   0  0  0  0  0  0
   -2.4934    6.6346   30.2082 N   0  0  0  0  0  0
   -1.2543    7.1570   30.0202 C   0  0  0  0  0  0
   -0.0842    6.4218   30.2084 C   0  0  0  0  0  0
   -0.1949    5.0978   30.6342 C   0  0  0  0  0  0
   -1.4616    4.5423   30.8296 C   0  0  0  0  0  0
   -4.2116   -0.1991   30.0200 C   0  0  0  0  0  0
   -3.7612   -1.4337   29.5398 C   0  0  0  0  0  0
   -2.8202   -2.1840   30.2368 C   0  0  0  0  0  0
   -3.6877    0.2940   31.2214 C   0  0  0  0  0  0
   -2.7004   -0.4200   31.9293 C   0  0  0  0  0  0
   -2.2804   -1.6915   31.4440 C   0  0  0  0  0  0
   -1.3730   -2.4446   32.1169 N   0  0  0  0  0  0
   -0.8941   -1.9810   33.2930 C   0  0  0  0  0  0
   -1.1997   -0.7297   33.8073 C   0  0  0  0  0  0
   -2.0941    0.0763   33.1095 C   0  0  0  0  0  0
   -7.3053    5.5571   31.9358 F   0  0  0  0  0  0
   -4.8936    6.4934   31.4724 H   0  0  0  0  0  0
   -3.4360    2.8036   29.8092 H   0  0  0  0  0  0
   -1.2101    8.1940   29.7203 H   0  0  0  0  0  0
    0.8845    6.8728   30.0481 H   0  0  0  0  0  0
    0.6916    4.5035   30.8013 H   0  0  0  0  0  0
   -1.5525    3.5104   31.1351 H   0  0  0  0  0  0
   -4.1463   -1.8256   28.6085 H   0  0  0  0  0  0
   -2.5022   -3.1482   29.8613 H   0  0  0  0  0  0
   -4.0105    1.2320   31.6346 H   0  0  0  0  0  0
   -0.2073   -2.6334   33.8126 H   0  0  0  0  0  0
   -0.7738   -0.4128   34.7461 H   0  0  0  0  0  0
   -2.3708    1.0455   33.4947 H   0  0  0  0  0  0
  1  2  1  0  0  0
  2  3  1  0  0  0
  2 12  1  0  0  0
  2 19  1  0  0  0
  4  5  1  0  0  0
  4  7  2  0  0  0
  4 13  1  0  0  0
  5  6  2  0  0  0
  5 30  1  0  0  0
  6  9  1  0  0  0
  6 29  1  0  0  0
  7  8  1  0  0  0
  7 31  1  0  0  0
  8  9  1  0  0  0
  8 12  1  0  0  0
  9 10  2  0  0  0
 10 11  1  0  0  0
 11 12  2  0  0  0
 13 14  2  0  0  0
 13 18  1  0  0  0
 14 15  1  0  0  0
 15 16  2  0  0  0
 15 32  1  0  0  0
 16 17  1  0  0  0
 16 33  1  0  0  0
 17 18  2  0  0  0
 17 34  1  0  0  0
 18 35  1  0  0  0
 19 20  2  0  0  0
 19 22  1  0  0  0
 20 21  1  0  0  0
 20 36  1  0  0  0
 21 24  2  0  0  0
 21 37  1  0  0  0
 22 23  2  0  0  0
 22 38  1  0  0  0
 23 24  1  0  0  0
 23 28  1  0  0  0
 24 25  1  0  0  0
 25 26  2  0  0  0
 26 27  1  0  0  0
 26 39  1  0  0  0
 27 28  2  0  0  0
 27 40  1  0  0  0
 28 41  1  0  0  0
M  END
> <s_m_entry_id>
10075

> <s_m_entry_name>
dock_pv.144

> <s_m_Source_Path>
/home/csk/Desktop/cluster/DUD-E-result/met

> <s_m_Source_File>
dock_pv.maegz

> <i_m_Source_File_Index>
144

> <chembl_id>
CHEMBL3414735

> <chembl_pref_name>
None

> <i_lp_mmshare_version>
53161

> <i_f3d_flags>
0

> <r_lp_tautomer_probability>
1

> <s_lp_Force_Field>
OPLS_2005

> <r_lp_Energy>
21.832123

> <b_lp_Chiralities_Consistent>
1

> <s_lp_Variant>
CHEMBL3717_lig2075-1

> <s_i_glide_gridfile>
glide-grid_3lq8

> <i_i_glide_lignum>
2371

> <i_i_glide_rotatable_bonds>
3

> <r_i_docking_score>
-8.25394787851829

> <r_i_glide_ligand_efficiency>
-0.2846188923627

> <r_i_glide_ligand_efficiency_sa>
-0.874439410932493

> <r_i_glide_ligand_efficiency_ln>
-1.88994476212157

> <r_i_glide_gscore>
-8.25394787851829

> <r_i_glide_lipo>
-3.49376276801704

> <r_i_glide_hbond>
-0.0105702415126964

> <r_i_glide_metal>
0

> <r_i_glide_rewards>
-2.6469135891243

> <r_i_glide_evdw>
-37.9675712585449

> <r_i_glide_ecoul>
-3.23675894737244

> <r_i_glide_erotb>
0.382237818813718

> <r_i_glide_esite>
-0.101046693644862

> <r_i_glide_emodel>
-58.07964597343

> <r_i_glide_energy>
-41.2043302059174

> <r_i_glide_einternal>
2.00091624259949

> <i_i_glide_confnum>
14

> <i_i_glide_posenum>
249

> <r_i_glide_eff_state_penalty>
0

> <s_user_duplicate_titles>
CHEMBL3717_lig2075

> <s_m_subgroup_title>
dock_pv

> <s_m_subgroupid>
dock_pv

> <b_m_subgroup_collapsed>
1

$$$$
CHEMBL3717_lig2107
                    3D
 Schrodinger Suite 2021-1.
 50 54  0  0  1  0            999 V2000
    0.3523    4.0407   30.5535 C   0  0  0  0  0  0
   -0.8431    4.9664   30.5588 C   0  0  0  0  0  0
   -0.7654    6.3420   30.2568 C   0  0  0  0  0  0
   -1.9222    7.1125   30.2080 C   0  0  0  0  0  0
   -3.1699    6.5265   30.3871 C   0  0  0  0  0  0
   -3.2885    5.1531   30.6078 C   0  0  0  0  0  0
   -2.1113    4.4044   30.7663 C   0  0  0  0  0  0
    0.4713    3.1648   31.4080 O   0  0  0  0  0  0
    1.1918    4.1653   29.5127 N   0  0  0  0  0  0
    2.3158    3.2735   29.2556 C   0  0  0  0  0  0
   -7.1201    3.1702   30.7019 C   0  0  0  0  0  0
   -7.0124    4.5047   31.1353 C   0  0  0  0  0  0
   -5.7744    5.1480   31.0629 C   0  0  0  0  0  0
   -4.6246    4.4925   30.6082 C   0  0  0  0  0  0
   -4.7559    3.1788   30.1568 C   0  0  0  0  0  0
   -5.9662    2.5421   30.2056 N   0  0  0  0  0  0
   -8.1834    2.3266   30.6701 N   0  0  0  0  0  0
   -7.7084    1.2205   30.1384 C   0  0  0  0  0  0
   -6.3521    1.2785   29.8136 C   0  0  0  0  0  0
   -5.4265    0.2844   29.1189 C   0  0  0  0  0  0
   -1.3844   -2.4425   32.1142 N   0  0  0  0  0  0
   -0.9116   -1.9025   33.2643 C   0  0  0  0  0  0
   -1.2919   -0.6511   33.7344 C   0  0  0  0  0  0
   -2.2140    0.0893   33.0080 C   0  0  0  0  0  0
   -2.8045   -0.4772   31.8543 C   0  0  0  0  0  0
   -3.8318    0.1674   31.1320 C   0  0  0  0  0  0
   -4.3475   -0.3992   29.9622 C   0  0  0  0  0  0
   -3.8348   -1.6185   29.5149 C   0  0  0  0  0  0
   -2.8454   -2.2944   30.2216 C   0  0  0  0  0  0
   -2.3262   -1.7474   31.4157 C   0  0  0  0  0  0
   -8.0858    5.1566   31.6328 F   0  0  0  0  0  0
    0.7125    7.1581   29.9081 Cl  0  0  0  0  0  0
   -1.8431    8.1665   29.9795 H   0  0  0  0  0  0
   -4.0535    7.1385   30.2793 H   0  0  0  0  0  0
   -2.1850    3.3451   30.9691 H   0  0  0  0  0  0
    1.0347    4.9125   28.8539 H   0  0  0  0  0  0
    3.0338    3.7578   28.5908 H   0  0  0  0  0  0
    1.9659    2.3557   28.7743 H   0  0  0  0  0  0
    2.8360    3.0010   30.1759 H   0  0  0  0  0  0
   -5.7116    6.1663   31.4076 H   0  0  0  0  0  0
   -3.9378    2.6021   29.7520 H   0  0  0  0  0  0
   -8.3531    0.3694   29.9671 H   0  0  0  0  0  0
   -6.0362   -0.4990   28.6641 H   0  0  0  0  0  0
   -4.9257    0.7613   28.2752 H   0  0  0  0  0  0
   -0.1946   -2.4974   33.8087 H   0  0  0  0  0  0
   -0.8878   -0.2555   34.6544 H   0  0  0  0  0  0
   -2.4936    1.0739   33.3456 H   0  0  0  0  0  0
   -4.2050    1.0984   31.5225 H   0  0  0  0  0  0
   -4.2149   -2.0625   28.6076 H   0  0  0  0  0  0
   -2.4761   -3.2443   29.8633 H   0  0  0  0  0  0
  1  2  1  0  0  0
  1  8  2  0  0  0
  1  9  1  0  0  0
  2  3  1  0  0  0
  2  7  2  0  0  0
  3  4  2  0  0  0
  3 32  1  0  0  0
  4  5  1  0  0  0
  4 33  1  0  0  0
  5  6  2  0  0  0
  5 34  1  0  0  0
  6  7  1  0  0  0
  6 14  1  0  0  0
  7 35  1  0  0  0
  9 10  1  0  0  0
  9 36  1  0  0  0
 10 37  1  0  0  0
 10 38  1  0  0  0
 10 39  1  0  0  0
 11 12  1  0  0  0
 11 16  1  0  0  0
 11 17  2  0  0  0
 12 13  2  0  0  0
 12 31  1  0  0  0
 13 14  1  0  0  0
 13 40  1  0  0  0
 14 15  2  0  0  0
 15 16  1  0  0  0
 15 41  1  0  0  0
 16 19  1  0  0  0
 17 18  1  0  0  0
 18 19  2  0  0  0
 18 42  1  0  0  0
 19 20  1  0  0  0
 20 27  1  0  0  0
 20 43  1  0  0  0
 20 44  1  0  0  0
 21 22  2  0  0  0
 21 30  1  0  0  0
 22 23  1  0  0  0
 22 45  1  0  0  0
 23 24  2  0  0  0
 23 46  1  0  0  0
 24 25  1  0  0  0
 24 47  1  0  0  0
 25 26  2  0  0  0
 25 30  1  0  0  0
 26 27  1  0  0  0
 26 48  1  0  0  0
 27 28  2  0  0  0
 28 29  1  0  0  0
 28 49  1  0  0  0
 29 30  2  0  0  0
 29 50  1  0  0  0
M  END
> <s_m_entry_id>
10076

> <s_m_entry_name>
dock_pv.145

> <s_m_Source_Path>
/home/csk/Desktop/cluster/DUD-E-result/met

> <s_m_Source_File>
dock_pv.maegz

> <i_m_Source_File_Index>
145

> <chembl_id>
CHEMBL3582292

> <chembl_pref_name>
None

> <i_lp_mmshare_version>
53161

> <i_f3d_flags>
0

> <r_lp_tautomer_probability>
1

> <s_lp_Force_Field>
OPLS_2005

> <r_lp_Energy>
23.988857

> <b_lp_Chiralities_Consistent>
1

> <s_lp_Variant>
CHEMBL3717_lig2107-1

> <s_i_glide_gridfile>
glide-grid_3lq8

> <i_i_glide_lignum>
2405

> <i_i_glide_rotatable_bonds>
5

> <r_i_docking_score>
-8.25198962693988

> <r_i_glide_ligand_efficiency>
-0.257874675841871

> <r_i_glide_ligand_efficiency_sa>
-0.818701062468889

> <r_i_glide_ligand_efficiency_ln>
-1.84784541821347

> <r_i_glide_gscore>
-8.25198962693988

> <r_i_glide_lipo>
-4.3442307059539

> <r_i_glide_hbond>
0

> <r_i_glide_metal>
0

> <r_i_glide_rewards>
-1.78382376960158

> <r_i_glide_evdw>
-47.5456123352051

> <r_i_glide_ecoul>
-0.80350786447525

> <r_i_glide_erotb>
0.404267316466475

> <r_i_glide_esite>
-0.030395671419338

> <r_i_glide_emodel>
-67.8209747862112

> <r_i_glide_energy>
-48.3491201996803

> <r_i_glide_einternal>
3.43735671043396

> <i_i_glide_confnum>
9

> <i_i_glide_posenum>
297

> <r_i_glide_eff_state_penalty>
0

> <s_user_duplicate_titles>
CHEMBL3717_lig2107

> <s_m_subgroup_title>
dock_pv

> <s_m_subgroupid>
dock_pv

> <b_m_subgroup_collapsed>
1

$$$$
CHEMBL3717_lig1104
                    3D
 Schrodinger Suite 2021-1.
 43 47  0  0  1  0            999 V2000
    0.4543    5.0512   30.3955 C   0  0  0  0  0  0
    0.3975    6.4354   30.1764 C   0  0  0  0  0  0
   -0.8283    7.1078   30.2070 C   0  0  0  0  0  0
   -0.6616    4.2970   30.6092 N   0  0  0  0  0  0
   -1.8233    4.9713   30.6081 N   0  0  0  0  0  0
   -1.9850    6.3524   30.4516 C   0  0  0  0  0  0
   -3.2915    6.6670   30.5822 N   0  0  0  0  0  0
   -3.9606    5.4624   30.7310 N   0  0  0  0  0  0
   -3.1005    4.4598   30.6956 C   0  0  0  0  0  0
   -3.3526    2.9460   30.7950 C   0  0  0  0  0  0
   -4.7369    2.3176   30.5108 C   0  0  0  0  0  0
   -7.2468    1.1401   29.9494 C   0  0  0  0  0  0
   -7.1522    2.5013   30.2133 C   0  0  0  0  0  0
   -5.9175    3.0791   30.4963 C   0  0  0  0  0  0
   -6.1018    0.3414   29.9964 C   0  0  0  0  0  0
   -4.8454    0.9246   30.2920 C   0  0  0  0  0  0
   -3.6920   -0.0004   30.3626 C   0  0  0  0  0  0
   -3.8898   -1.3068   30.1197 C   0  0  0  0  0  0
   -5.0946   -1.8612   29.8094 N   0  0  0  0  0  0
   -6.2523   -1.1571   29.7231 C   0  0  0  0  0  0
   -7.3039   -1.7314   29.4434 O   0  0  0  0  0  0
    1.7520    4.3108   30.4511 C   0  0  0  0  0  0
    2.8623    4.7161   29.6966 C   0  0  0  0  0  0
    4.0680    4.0170   29.7519 C   0  0  0  0  0  0
    4.1981    2.9286   30.6080 C   0  0  0  0  0  0
    3.1068    2.4980   31.3570 C   0  0  0  0  0  0
    1.8957    3.1745   31.2597 C   0  0  0  0  0  0
    5.1125    4.3752   28.9442 O   0  0  0  0  0  0
    1.3024    7.0026   30.0171 H   0  0  0  0  0  0
   -0.8824    8.1783   30.0685 H   0  0  0  0  0  0
   -2.9859    2.5623   31.7489 H   0  0  0  0  0  0
   -2.6802    2.4844   30.0726 H   0  0  0  0  0  0
   -8.2139    0.7112   29.7241 H   0  0  0  0  0  0
   -8.0408    3.1150   30.1968 H   0  0  0  0  0  0
   -5.9253    4.1334   30.7013 H   0  0  0  0  0  0
   -2.7006    0.3396   30.6162 H   0  0  0  0  0  0
   -3.1075   -2.0531   30.1501 H   0  0  0  0  0  0
   -5.1817   -2.8496   29.6253 H   0  0  0  0  0  0
    2.7858    5.5562   29.0286 H   0  0  0  0  0  0
    5.1250    2.3774   30.6516 H   0  0  0  0  0  0
    3.1871    1.6231   31.9836 H   0  0  0  0  0  0
    1.0476    2.8016   31.8079 H   0  0  0  0  0  0
    5.8029    3.7053   28.9066 H   0  0  0  0  0  0
  1  2  1  0  0  0
  1  4  2  0  0  0
  1 22  1  0  0  0
  2  3  2  0  0  0
  2 29  1  0  0  0
  3  6  1  0  0  0
  3 30  1  0  0  0
  4  5  1  0  0  0
  5  9  1  0  0  0
  5  6  1  0  0  0
  6  7  2  0  0  0
  7  8  1  0  0  0
  8  9  2  0  0  0
  9 10  1  0  0  0
 10 11  1  0  0  0
 10 31  1  0  0  0
 10 32  1  0  0  0
 11 14  1  0  0  0
 11 16  2  0  0  0
 12 13  1  0  0  0
 12 15  2  0  0  0
 12 33  1  0  0  0
 13 14  2  0  0  0
 13 34  1  0  0  0
 14 35  1  0  0  0
 15 16  1  0  0  0
 15 20  1  0  0  0
 16 17  1  0  0  0
 17 18  2  0  0  0
 17 36  1  0  0  0
 18 19  1  0  0  0
 18 37  1  0  0  0
 19 20  1  0  0  0
 19 38  1  0  0  0
 20 21  2  0  0  0
 22 23  2  0  0  0
 22 27  1  0  0  0
 23 24  1  0  0  0
 23 39  1  0  0  0
 24 25  2  0  0  0
 24 28  1  0  0  0
 25 26  1  0  0  0
 25 40  1  0  0  0
 26 27  2  0  0  0
 26 41  1  0  0  0
 27 42  1  0  0  0
 28 43  1  0  0  0
M  END
> <s_m_entry_id>
10077

> <s_m_entry_name>
dock_pv.146

> <s_m_Source_Path>
/home/csk/Desktop/cluster/DUD-E-result/met

> <s_m_Source_File>
dock_pv.maegz

> <i_m_Source_File_Index>
146

> <chembl_id>
CHEMBL1922419

> <chembl_pref_name>
None

> <i_lp_mmshare_version>
53161

> <i_f3d_flags>
0

> <r_lp_tautomer_probability>
0.999999999997365

> <s_lp_Force_Field>
OPLS_2005

> <r_lp_Energy>
29.309979

> <b_lp_Chiralities_Consistent>
1

> <s_lp_Variant>
CHEMBL3717_lig1104-1

> <s_i_glide_gridfile>
glide-grid_3lq8

> <i_i_glide_lignum>
1258

> <i_i_glide_rotatable_bonds>
4

> <r_i_docking_score>
-8.24585987055005

> <r_i_glide_ligand_efficiency>
-0.294494995376788

> <r_i_glide_ligand_efficiency_sa>
-0.894260254240442

> <r_i_glide_ligand_efficiency_ln>
-1.90338656708904

> <r_i_glide_gscore>
-8.24585987055005

> <r_i_glide_lipo>
-3.23253488337255

> <r_i_glide_hbond>
-0.166503485964623

> <r_i_glide_metal>
0

> <r_i_glide_rewards>
-2.51301683618554

> <r_i_glide_evdw>
-43.8693618774414

> <r_i_glide_ecoul>
-3.61451053619385

> <r_i_glide_erotb>
0.423933342575486

> <r_i_glide_esite>
-0.022093333301678

> <r_i_glide_emodel>
-66.0967171042709

> <r_i_glide_energy>
-47.4838724136353

> <r_i_glide_einternal>
5.66106605529785

> <i_i_glide_confnum>
2

> <i_i_glide_posenum>
2

> <r_i_glide_eff_state_penalty>
0

> <s_user_duplicate_titles>
CHEMBL3717_lig1104

> <s_m_subgroup_title>
dock_pv

> <s_m_subgroupid>
dock_pv

> <b_m_subgroup_collapsed>
1

$$$$
CHEMBL3717_lig3324 
                    3D
 Schrodinger Suite 2021-1.
 45 49  0  0  1  0            999 V2000
   -4.5598    5.3097   30.2638 C   0  0  0  0  0  0
   -4.1330    3.9878   30.4452 C   0  0  0  0  0  0
   -2.8218    3.6642   30.6494 N   0  0  0  0  0  0
   -3.6960    6.3578   30.2116 N   0  0  0  0  0  0
   -2.4027    6.0503   30.3438 C   0  0  0  0  0  0
   -1.9952    4.7178   30.6080 C   0  0  0  0  0  0
   -0.6263    4.7934   30.7544 N   0  0  0  0  0  0
   -0.3068    6.1150   30.5001 C   0  0  0  0  0  0
   -1.3287    6.8843   30.2080 N   0  0  0  0  0  0
    0.2891    3.7212   31.1305 C   0  0  0  0  0  0
    1.6135    3.7855   30.3909 C   0  0  0  0  0  0
    1.6312    3.5912   29.0103 C   0  0  0  0  0  0
    2.8035    3.7630   28.2854 C   0  0  0  0  0  0
    2.7897    4.0931   31.0788 C   0  0  0  0  0  0
    4.0018    4.2623   30.3688 C   0  0  0  0  0  0
    3.9962    4.1282   28.9492 C   0  0  0  0  0  0
    5.1108    4.3570   28.2080 N   0  0  0  0  0  0
    6.2689    4.6324   28.8472 C   0  0  0  0  0  0
    6.3757    4.7570   30.2254 C   0  0  0  0  0  0
    5.2324    4.5865   30.9948 C   0  0  0  0  0  0
   -5.0919    2.8546   30.3619 C   0  0  0  0  0  0
   -4.8403    1.5281   30.0437 C   0  0  0  0  0  0
   -6.0540    0.8935   30.0572 N   0  0  0  0  0  0
   -7.0567    1.7141   30.3937 N   0  0  0  0  0  0
   -6.4822    2.8806   30.5656 C   0  0  0  0  0  0
   -6.3323   -0.4955   29.7052 C   0  0  0  0  0  0
   -7.3518   -0.6332   28.5544 C   0  0  0  0  0  0
   -6.8975    0.0569   27.4082 O   0  0  0  0  0  0
   -5.5996    5.5502   30.0979 H   0  0  0  0  0  0
    0.7244    6.4326   30.5426 H   0  0  0  0  0  0
    0.4409    3.7743   32.2079 H   0  0  0  0  0  0
   -0.1921    2.7657   30.9239 H   0  0  0  0  0  0
    0.7182    3.3360   28.4890 H   0  0  0  0  0  0
    2.8006    3.6365   27.2131 H   0  0  0  0  0  0
    2.7831    4.2340   32.1502 H   0  0  0  0  0  0
    7.1367    4.7572   28.2170 H   0  0  0  0  0  0
    7.3221    5.0130   30.6789 H   0  0  0  0  0  0
    5.2777    4.7537   32.0601 H   0  0  0  0  0  0
   -3.9354    0.9993   29.7843 H   0  0  0  0  0  0
   -7.0655    3.7496   30.8320 H   0  0  0  0  0  0
   -6.7322   -0.9788   30.5971 H   0  0  0  0  0  0
   -5.4106   -1.0362   29.4879 H   0  0  0  0  0  0
   -8.2973   -0.1608   28.8272 H   0  0  0  0  0  0
   -7.5541   -1.6782   28.3186 H   0  0  0  0  0  0
   -6.1564   -0.4428   27.0200 H   0  0  0  0  0  0
  1  2  2  0  0  0
  1  4  1  0  0  0
  1 29  1  0  0  0
  2  3  1  0  0  0
  2 21  1  0  0  0
  3  6  2  0  0  0
  4  5  2  0  0  0
  5  6  1  0  0  0
  5  9  1  0  0  0
  6  7  1  0  0  0
  7  8  1  0  0  0
  7 10  1  0  0  0
  8  9  2  0  0  0
  8 30  1  0  0  0
 10 11  1  0  0  0
 10 31  1  0  0  0
 10 32  1  0  0  0
 11 12  2  0  0  0
 11 14  1  0  0  0
 12 13  1  0  0  0
 12 33  1  0  0  0
 13 16  2  0  0  0
 13 34  1  0  0  0
 14 15  2  0  0  0
 14 35  1  0  0  0
 15 16  1  0  0  0
 15 20  1  0  0  0
 16 17  1  0  0  0
 17 18  2  0  0  0
 18 19  1  0  0  0
 18 36  1  0  0  0
 19 20  2  0  0  0
 19 37  1  0  0  0
 20 38  1  0  0  0
 21 22  2  0  0  0
 21 25  1  0  0  0
 22 23  1  0  0  0
 22 39  1  0  0  0
 23 24  1  0  0  0
 23 26  1  0  0  0
 24 25  2  0  0  0
 25 40  1  0  0  0
 26 27  1  0  0  0
 26 41  1  0  0  0
 26 42  1  0  0  0
 27 28  1  0  0  0
 27 43  1  0  0  0
 27 44  1  0  0  0
 28 45  1  0  0  0
M  END
> <s_m_entry_id>
10078

> <s_m_entry_name>
dock_pv.147

> <s_m_Source_Path>
/home/csk/Desktop/cluster/DUD-E-result/met

> <s_m_Source_File>
dock_pv.maegz

> <i_m_Source_File_Index>
147

> <chembl_id>
CHEMBL4541026

> <chembl_pref_name>
None

> <i_lp_mmshare_version>
53161

> <i_f3d_flags>
0

> <r_lp_tautomer_probability>
1

> <s_lp_Force_Field>
OPLS_2005

> <r_lp_Energy>
23.614608

> <b_lp_Chiralities_Consistent>
1

> <s_lp_Variant>
CHEMBL3717_lig3324 -1

> <s_i_glide_gridfile>
glide-grid_3lq8

> <i_i_glide_lignum>
4047

> <i_i_glide_rotatable_bonds>
6

> <r_i_docking_score>
-8.24528685758732

> <r_i_glide_ligand_efficiency>
-0.294474530628119

> <r_i_glide_ligand_efficiency_sa>
-0.89419811121039

> <r_i_glide_ligand_efficiency_ln>
-1.90325429887285

> <r_i_glide_gscore>
-8.24528685758732

> <r_i_glide_lipo>
-3.09880586458389

> <r_i_glide_hbond>
-0.313474791874489

> <r_i_glide_metal>
0

> <r_i_glide_rewards>
-2.74844468923247

> <r_i_glide_evdw>
-38.2144317626953

> <r_i_glide_ecoul>
-5.82362747192383

> <r_i_glide_erotb>
0.699704197026871

> <r_i_glide_esite>
0

> <r_i_glide_emodel>
-63.6483604725858

> <r_i_glide_energy>
-44.0380592346191

> <r_i_glide_einternal>
3.87146258354187

> <i_i_glide_confnum>
8

> <i_i_glide_posenum>
322

> <r_i_glide_eff_state_penalty>
0

> <s_user_duplicate_titles>
CHEMBL3717_lig3324 

> <s_m_subgroup_title>
dock_pv

> <s_m_subgroupid>
dock_pv

> <b_m_subgroup_collapsed>
1

$$$$
CHEMBL3717_lig1542
                    3D
 Schrodinger Suite 2021-1.
 37 40  0  0  1  0            999 V2000
   -4.3753    4.1425   30.4547 C   0  0  0  0  0  0
   -5.5940    4.8140   30.6398 C   0  0  0  0  0  0
   -6.8045    4.1229   30.5176 C   0  0  0  0  0  0
   -4.3087    2.8221   30.1206 N   0  0  0  0  0  0
   -5.4857    2.1857   30.0233 N   0  0  0  0  0  0
   -6.7527    2.7533   30.2096 C   0  0  0  0  0  0
   -7.6973    1.8035   30.0320 N   0  0  0  0  0  0
   -7.0220    0.6293   29.7311 N   0  0  0  0  0  0
   -5.7216    0.8542   29.7356 C   0  0  0  0  0  0
   -4.6518   -0.1811   29.3789 C   0  0  0  0  0  0
   -3.6637   -0.6211   30.4648 C   0  0  0  0  0  0
   -2.8837   -1.7634   30.2512 C   0  0  0  0  0  0
   -1.9505   -2.1647   31.2070 C   0  0  0  0  0  0
   -1.7969   -1.4300   32.3802 C   0  0  0  0  0  0
   -2.5585   -0.2865   32.5955 C   0  0  0  0  0  0
   -3.4914    0.1087   31.6417 C   0  0  0  0  0  0
   -0.8940   -1.8162   33.3321 O   0  0  0  0  0  0
   -3.0491    4.8206   30.5948 C   0  0  0  0  0  0
   -2.8926    6.1633   30.2247 C   0  0  0  0  0  0
   -1.6308    6.7563   30.2079 C   0  0  0  0  0  0
   -0.5173    6.0142   30.5929 C   0  0  0  0  0  0
   -0.6547    4.6948   31.0079 C   0  0  0  0  0  0
   -1.9138    4.1043   31.0081 C   0  0  0  0  0  0
    0.7076    6.5809   30.5652 F   0  0  0  0  0  0
   -5.6115    5.8673   30.8839 H   0  0  0  0  0  0
   -7.7520    4.6234   30.6524 H   0  0  0  0  0  0
   -4.0578    0.1833   28.5406 H   0  0  0  0  0  0
   -5.1328   -1.0869   29.0052 H   0  0  0  0  0  0
   -2.9941   -2.3427   29.3444 H   0  0  0  0  0  0
   -1.3552   -3.0485   31.0300 H   0  0  0  0  0  0
   -2.4314    0.2935   33.4989 H   0  0  0  0  0  0
   -4.0754    0.9921   31.8095 H   0  0  0  0  0  0
   -0.2374   -2.4417   33.0093 H   0  0  0  0  0  0
   -3.7460    6.7372   29.8956 H   0  0  0  0  0  0
   -1.5071    7.7828   29.8924 H   0  0  0  0  0  0
    0.2148    4.1281   31.3082 H   0  0  0  0  0  0
   -1.9983    3.0691   31.3058 H   0  0  0  0  0  0
  1  2  1  0  0  0
  1  4  2  0  0  0
  1 18  1  0  0  0
  2  3  2  0  0  0
  2 25  1  0  0  0
  3  6  1  0  0  0
  3 26  1  0  0  0
  4  5  1  0  0  0
  5  6  1  0  0  0
  5  9  1  0  0  0
  6  7  2  0  0  0
  7  8  1  0  0  0
  8  9  2  0  0  0
  9 10  1  0  0  0
 10 11  1  0  0  0
 10 27  1  0  0  0
 10 28  1  0  0  0
 11 12  2  0  0  0
 11 16  1  0  0  0
 12 13  1  0  0  0
 12 29  1  0  0  0
 13 14  2  0  0  0
 13 30  1  0  0  0
 14 15  1  0  0  0
 14 17  1  0  0  0
 15 16  2  0  0  0
 15 31  1  0  0  0
 16 32  1  0  0  0
 17 33  1  0  0  0
 18 19  2  0  0  0
 18 23  1  0  0  0
 19 20  1  0  0  0
 19 34  1  0  0  0
 20 21  2  0  0  0
 20 35  1  0  0  0
 21 22  1  0  0  0
 21 24  1  0  0  0
 22 23  2  0  0  0
 22 36  1  0  0  0
 23 37  1  0  0  0
M  END
> <s_m_entry_id>
10079

> <s_m_entry_name>
dock_pv.148

> <s_m_Source_Path>
/home/csk/Desktop/cluster/DUD-E-result/met

> <s_m_Source_File>
dock_pv.maegz

> <i_m_Source_File_Index>
148

> <chembl_id>
CHEMBL2431818

> <chembl_pref_name>
None

> <i_lp_mmshare_version>
53161

> <i_f3d_flags>
0

> <r_lp_tautomer_probability>
0.999999999997365

> <s_lp_Force_Field>
OPLS_2005

> <r_lp_Energy>
18.755701

> <b_lp_Chiralities_Consistent>
1

> <s_lp_Variant>
CHEMBL3717_lig1542-1

> <s_i_glide_gridfile>
glide-grid_3lq8

> <i_i_glide_lignum>
1768

> <i_i_glide_rotatable_bonds>
4

> <r_i_docking_score>
-8.2438942105653

> <r_i_glide_ligand_efficiency>
-0.343495592106888

> <r_i_glide_ligand_efficiency_sa>
-0.990812739187676

> <r_i_glide_ligand_efficiency_ln>
-1.97314217224405

> <r_i_glide_gscore>
-8.2438942105653

> <r_i_glide_lipo>
-3.42126412226491

> <r_i_glide_hbond>
-0.250238764469535

> <r_i_glide_metal>
0

> <r_i_glide_rewards>
-2.80054539941659

> <r_i_glide_evdw>
-37.8841094970703

> <r_i_glide_ecoul>
-2.82367944717407

> <r_i_glide_erotb>
0.545911467515354

> <r_i_glide_esite>
0

> <r_i_glide_emodel>
-58.6772063852104

> <r_i_glide_energy>
-40.7077889442444

> <r_i_glide_einternal>
3.18572020530701

> <i_i_glide_confnum>
5

> <i_i_glide_posenum>
228

> <r_i_glide_eff_state_penalty>
0

> <s_user_duplicate_titles>
CHEMBL3717_lig1542

> <s_m_subgroup_title>
dock_pv

> <s_m_subgroupid>
dock_pv

> <b_m_subgroup_collapsed>
1

$$$$
CHEMBL3717_lig3582
                    3D
 Schrodinger Suite 2021-1.
 41 45  0  0  1  0            999 V2000
   -0.6230    6.0600   30.4447 N   0  0  0  0  0  0
   -2.6512    6.8122   30.2126 N   0  0  0  0  0  0
   -1.3216    7.1708   30.2074 N   0  0  0  0  0  0
   -7.7607    2.8288   30.3644 N   0  0  0  0  0  0
   -7.2874    1.5928   30.1363 N   0  0  0  0  0  0
   -1.4706    4.9799   30.6080 C   0  0  0  0  0  0
   -2.7571    5.5150   30.4503 C   0  0  0  0  0  0
   -0.9956    3.5549   30.7395 C   0  0  0  0  0  0
   -4.0949    4.8195   30.4379 C   0  0  0  0  0  0
    0.0422    3.1571   31.7339 C   0  0  0  0  0  0
   -1.4221    2.7570   31.9314 C   0  0  0  0  0  0
   -5.4425    2.8152   30.2079 C   0  0  0  0  0  0
   -4.1879    3.4384   30.2100 C   0  0  0  0  0  0
   -6.6248    3.5879   30.4103 C   0  0  0  0  0  0
   -5.2685    5.5569   30.6313 C   0  0  0  0  0  0
    0.8393    6.1668   30.5746 C   0  0  0  0  0  0
   -6.5324    4.9691   30.6145 C   0  0  0  0  0  0
   -5.9228    1.4932   30.0278 C   0  0  0  0  0  0
    1.6967    5.1038   29.8823 C   0  0  0  0  0  0
    1.3080    4.5382   28.6668 C   0  0  0  0  0  0
    2.8961    4.6976   30.4753 C   0  0  0  0  0  0
    2.0891    3.5578   28.0613 C   0  0  0  0  0  0
    3.6879    3.7268   29.8667 C   0  0  0  0  0  0
    3.2773    3.1588   28.6635 C   0  0  0  0  0  0
   -7.9148    0.8053   30.0516 H   0  0  0  0  0  0
   -0.9401    3.0320   29.7862 H   0  0  0  0  0  0
    0.7778    2.4203   31.4085 H   0  0  0  0  0  0
    0.5171    3.9568   32.2959 H   0  0  0  0  0  0
   -2.0940    3.2728   32.6080 H   0  0  0  0  0  0
   -1.7361    1.7244   31.8082 H   0  0  0  0  0  0
   -3.3126    2.8401   30.0278 H   0  0  0  0  0  0
   -5.2123    6.6253   30.7805 H   0  0  0  0  0  0
    1.0521    6.1787   31.6436 H   0  0  0  0  0  0
    1.1536    7.1375   30.1880 H   0  0  0  0  0  0
   -7.4193    5.5714   30.7436 H   0  0  0  0  0  0
   -5.4533    0.5384   29.8391 H   0  0  0  0  0  0
    0.3853    4.8491   28.2080 H   0  0  0  0  0  0
    3.2161    5.1301   31.4110 H   0  0  0  0  0  0
    1.7746    3.1100   27.1298 H   0  0  0  0  0  0
    4.6150    3.4127   30.3233 H   0  0  0  0  0  0
    3.8881    2.4036   28.1920 H   0  0  0  0  0  0
  1  3  1  0  0  0
  1  6  1  0  0  0
  1 16  1  0  0  0
  2  3  2  0  0  0
  2  7  1  0  0  0
  4  5  1  0  0  0
  4 14  2  0  0  0
  5 25  1  0  0  0
  5 18  1  0  0  0
  6  7  2  0  0  0
  6  8  1  0  0  0
  7  9  1  0  0  0
  8 10  1  0  0  0
  8 11  1  0  0  0
  8 26  1  0  0  0
  9 15  1  0  0  0
  9 13  2  0  0  0
 10 11  1  0  0  0
 10 27  1  0  0  0
 10 28  1  0  0  0
 11 29  1  0  0  0
 11 30  1  0  0  0
 12 13  1  0  0  0
 12 14  1  0  0  0
 12 18  2  0  0  0
 13 31  1  0  0  0
 14 17  1  0  0  0
 15 17  2  0  0  0
 15 32  1  0  0  0
 16 19  1  0  0  0
 16 33  1  0  0  0
 16 34  1  0  0  0
 17 35  1  0  0  0
 18 36  1  0  0  0
 19 20  2  0  0  0
 19 21  1  0  0  0
 20 22  1  0  0  0
 20 37  1  0  0  0
 21 23  2  0  0  0
 21 38  1  0  0  0
 22 24  2  0  0  0
 22 39  1  0  0  0
 23 24  1  0  0  0
 23 40  1  0  0  0
 24 41  1  0  0  0
M  END
> <s_m_entry_id>
10080

> <s_m_entry_name>
dock_pv.149

> <s_m_Source_Path>
/home/csk/Desktop/cluster/DUD-E-result/met

> <s_m_Source_File>
dock_pv.maegz

> <i_m_Source_File_Index>
149

> <chembl_id>
CHEMBL1975418

> <chembl_pref_name>
None

> <i_lp_mmshare_version>
53161

> <i_f3d_flags>
0

> <r_lp_tautomer_probability>
0.0196078431372549

> <s_lp_Force_Field>
OPLS_2005

> <r_lp_Energy>
32.733255

> <b_lp_Chiralities_Consistent>
1

> <s_lp_Variant>
CHEMBL3717_lig3582-2

> <s_i_glide_gridfile>
glide-grid_3lq8

> <i_i_glide_lignum>
4449

> <i_i_glide_rotatable_bonds>
4

> <r_i_docking_score>
-8.24078504591774

> <r_i_glide_ligand_efficiency>
-0.343366043579906

> <r_i_glide_ligand_efficiency_sa>
-0.990439056573325

> <r_i_glide_ligand_efficiency_ln>
-1.97239800647361

> <r_i_glide_gscore>
-8.24078504591774

> <r_i_glide_lipo>
-4.37049304414133

> <r_i_glide_hbond>
0

> <r_i_glide_metal>
0

> <r_i_glide_rewards>
-2.58025280492015

> <r_i_glide_evdw>
-35.2268905639648

> <r_i_glide_ecoul>
-1.84537363052368

> <r_i_glide_erotb>
0.748111375920535

> <r_i_glide_esite>
0

> <r_i_glide_emodel>
-51.63995555487

> <r_i_glide_energy>
-37.0722641944885

> <r_i_glide_einternal>
2.16688895225525

> <i_i_glide_confnum>
34

> <i_i_glide_posenum>
132

> <r_i_glide_eff_state_penalty>
0

> <s_user_duplicate_titles>
CHEMBL3717_lig3582

> <s_m_subgroup_title>
dock_pv

> <s_m_subgroupid>
dock_pv

> <b_m_subgroup_collapsed>
1

$$$$
CHEMBL3717_lig2532
                    3D
 Schrodinger Suite 2021-1.
 46 49  0  0  1  0            999 V2000
   -4.0456   -2.6185   29.2810 C   0  0  0  0  0  0
   -5.2973   -2.0376   29.8106 N   0  0  0  0  0  0
   -5.4774   -0.6816   29.7064 N   0  0  0  0  0  0
   -4.8348    0.1299   30.4709 C   0  0  0  0  0  0
   -3.7145   -0.2727   31.4437 C   0  0  0  0  0  0
   -5.1739    1.5715   30.4164 C   0  0  0  0  0  0
   -6.5020    1.9814   30.2073 C   0  0  0  0  0  0
   -6.8412    3.3337   30.2188 C   0  0  0  0  0  0
   -5.8152    4.2558   30.4497 C   0  0  0  0  0  0
   -5.8121    5.5915   30.6079 N   0  0  0  0  0  0
   -4.5002    5.9658   30.8374 N   0  0  0  0  0  0
   -3.7612    4.8832   30.9202 C   0  0  0  0  0  0
   -2.4424    4.8289   31.6583 C   0  0  0  0  0  0
   -1.1095    4.8895   30.9232 C   0  0  0  0  0  0
   -0.7109    6.0178   30.2080 C   0  0  0  0  0  0
   -1.5650    7.0523   30.0308 F   0  0  0  0  0  0
    0.5702    6.0884   29.6621 C   0  0  0  0  0  0
    1.5154    5.0554   29.9045 C   0  0  0  0  0  0
    2.7777    5.1570   29.4081 N   0  0  0  0  0  0
    3.7064    4.2315   29.7441 C   0  0  0  0  0  0
    3.4349    3.1574   30.5795 C   0  0  0  0  0  0
    2.1359    2.9924   31.0475 C   0  0  0  0  0  0
    1.1337    3.9398   30.6974 C   0  0  0  0  0  0
   -0.2057    3.8458   31.1274 C   0  0  0  0  0  0
   -0.6075    2.7570   31.8079 F   0  0  0  0  0  0
   -4.5137    3.7616   30.6079 N   0  0  0  0  0  0
   -4.1496    2.4591   30.6077 N   0  0  0  0  0  0
   -6.3625   -2.8009   30.2101 C   0  0  0  0  0  0
   -7.5224   -2.3958   30.3028 O   0  0  0  0  0  0
   -6.0931   -4.0426   30.6231 N   0  0  0  0  0  0
   -4.2541   -3.3984   28.5463 H   0  0  0  0  0  0
   -3.4280   -1.8729   28.7769 H   0  0  0  0  0  0
   -3.4504   -3.0616   30.0800 H   0  0  0  0  0  0
   -3.7070    0.3569   32.3329 H   0  0  0  0  0  0
   -3.7930   -1.3067   31.7782 H   0  0  0  0  0  0
   -2.7432   -0.1661   30.9611 H   0  0  0  0  0  0
   -7.2813    1.2445   30.0578 H   0  0  0  0  0  0
   -7.8624    3.6608   30.0848 H   0  0  0  0  0  0
   -2.4159    5.5952   32.4326 H   0  0  0  0  0  0
   -2.4768    3.8974   32.2080 H   0  0  0  0  0  0
    0.8481    6.9584   29.0884 H   0  0  0  0  0  0
    4.6976    4.3799   29.3395 H   0  0  0  0  0  0
    4.2148    2.4654   30.8554 H   0  0  0  0  0  0
    1.9016    2.1616   31.6958 H   0  0  0  0  0  0
   -6.8513   -4.6126   30.9608 H   0  0  0  0  0  0
   -5.1489   -4.4213   30.6079 H   0  0  0  0  0  0
  1  2  1  0  0  0
  1 31  1  0  0  0
  1 32  1  0  0  0
  1 33  1  0  0  0
  2  3  1  0  0  0
  2 28  1  0  0  0
  3  4  2  0  0  0
  4  5  1  0  0  0
  4  6  1  0  0  0
  5 34  1  0  0  0
  5 35  1  0  0  0
  5 36  1  0  0  0
  6  7  1  0  0  0
  6 27  2  0  0  0
  7  8  2  0  0  0
  7 37  1  0  0  0
  8  9  1  0  0  0
  8 38  1  0  0  0
  9 10  2  0  0  0
  9 26  1  0  0  0
 10 11  1  0  0  0
 11 12  2  0  0  0
 12 13  1  0  0  0
 12 26  1  0  0  0
 13 14  1  0  0  0
 13 39  1  0  0  0
 13 40  1  0  0  0
 14 15  2  0  0  0
 14 24  1  0  0  0
 15 16  1  0  0  0
 15 17  1  0  0  0
 17 18  2  0  0  0
 17 41  1  0  0  0
 18 19  1  0  0  0
 18 23  1  0  0  0
 19 20  2  0  0  0
 20 21  1  0  0  0
 20 42  1  0  0  0
 21 22  2  0  0  0
 21 43  1  0  0  0
 22 23  1  0  0  0
 22 44  1  0  0  0
 23 24  2  0  0  0
 24 25  1  0  0  0
 26 27  1  0  0  0
 28 29  2  0  0  0
 28 30  1  0  0  0
 30 45  1  0  0  0
 30 46  1  0  0  0
M  END
> <s_m_entry_id>
10081

> <s_m_entry_name>
dock_pv.150

> <s_m_Source_Path>
/home/csk/Desktop/cluster/DUD-E-result/met

> <s_m_Source_File>
dock_pv.maegz

> <i_m_Source_File_Index>
150

> <chembl_id>
CHEMBL3674517

> <chembl_pref_name>
None

> <i_lp_mmshare_version>
53161

> <i_f3d_flags>
0

> <r_lp_tautomer_probability>
1

> <s_lp_Force_Field>
OPLS_2005

> <r_lp_Energy>
28.770947

> <b_lp_Chiralities_Consistent>
1

> <s_lp_Variant>
CHEMBL3717_lig2532-1

> <s_i_glide_gridfile>
glide-grid_3lq8

> <i_i_glide_lignum>
2875

> <i_i_glide_rotatable_bonds>
5

> <r_i_docking_score>
-8.23956789989073

> <r_i_glide_ligand_efficiency>
-0.274652263329691

> <r_i_glide_ligand_efficiency_sa>
-0.853408439484278

> <r_i_glide_ligand_efficiency_ln>
-1.87211960413804

> <r_i_glide_gscore>
-8.23956789989073

> <r_i_glide_lipo>
-3.52817143952688

> <r_i_glide_hbond>
-0.156439073888286

> <r_i_glide_metal>
0

> <r_i_glide_rewards>
-2.80731556084339

> <r_i_glide_evdw>
-35.9085235595703

> <r_i_glide_ecoul>
-2.23574805259705

> <r_i_glide_erotb>
0.467892369033465

> <r_i_glide_esite>
-0.0847458087975731

> <r_i_glide_emodel>
-70.1364632727715

> <r_i_glide_energy>
-38.1442716121674

> <r_i_glide_einternal>
3.51533722877502

> <i_i_glide_confnum>
3

> <i_i_glide_posenum>
8

> <r_i_glide_eff_state_penalty>
0

> <s_user_duplicate_titles>
CHEMBL3717_lig2532

> <s_m_subgroup_title>
dock_pv

> <s_m_subgroupid>
dock_pv

> <b_m_subgroup_collapsed>
1

$$$$
CHEMBL3717_lig438
                    3D
 Schrodinger Suite 2021-1.
 53 57  0  0  1  0            999 V2000
   -2.3714    4.8462   30.7066 C   0  0  0  0  0  0
   -3.0405    6.0771   30.6760 C   0  0  0  0  0  0
   -4.3894    6.2296   30.6082 N   0  0  0  0  0  0
   -3.1384    3.6747   30.6082 C   0  0  0  0  0  0
   -4.5225    3.8269   30.4787 C   0  0  0  0  0  0
   -5.1186    5.1151   30.5030 C   0  0  0  0  0  0
   -6.5296    4.9364   30.3630 C   0  0  0  0  0  0
   -6.7366    3.5810   30.2035 C   0  0  0  0  0  0
   -5.5367    2.9051   30.2915 N   0  0  0  0  0  0
   -5.2870    1.2258   29.9945 S   0  0  0  0  0  0
   -6.8642    0.3930   30.0897 C   0  0  0  0  0  0
   -4.8113    1.1585   28.6081 O   0  0  0  0  0  0
   -4.4549    0.7494   31.1043 O   0  0  0  0  0  0
   -7.2428   -0.4646   29.0528 C   0  0  0  0  0  0
   -8.4491   -1.1625   29.0892 C   0  0  0  0  0  0
   -9.3246   -1.0383   30.1689 C   0  0  0  0  0  0
   -7.7315    0.5237   31.1885 C   0  0  0  0  0  0
   -8.9583   -0.1868   31.2219 C   0  0  0  0  0  0
   -9.6346    0.0984   32.3644 N   0  0  0  0  0  0
   -8.7887    1.0012   33.0157 O   0  0  0  0  0  0
   -7.6105    1.2782   32.3139 N   0  0  0  0  0  0
   -0.9840    4.7658   30.8188 N   0  0  0  0  0  0
   -0.3157    3.5490   31.3088 C   0  0  0  0  0  0
    1.1452    3.7362   31.7568 C   0  0  0  0  0  0
    1.8884    4.2878   30.6133 N   0  0  0  0  0  0
    1.2789    5.3924   29.8371 C   0  0  0  0  0  0
   -0.0606    5.8546   30.4662 C   0  0  0  0  0  0
    3.0824    3.7342   30.2620 C   0  0  0  0  0  0
    3.5668    2.7744   30.8762 O   0  0  0  0  0  0
    3.8348    4.3161   29.0311 C   0  0  0  0  0  0
    5.2483    3.9762   29.0069 N   0  0  1  0  0  0
    6.1048    4.5983   30.0066 C   0  0  0  0  0  0
   -2.4905    7.0045   30.7149 H   0  0  0  0  0  0
   -2.6904    2.6943   30.6030 H   0  0  0  0  0  0
   -7.2890    5.7022   30.3066 H   0  0  0  0  0  0
   -7.6533    3.0438   30.0013 H   0  0  0  0  0  0
   -6.5834   -0.6068   28.2075 H   0  0  0  0  0  0
   -8.6996   -1.8185   28.2680 H   0  0  0  0  0  0
  -10.2576   -1.5837   30.1936 H   0  0  0  0  0  0
   -0.8929    3.1032   32.1199 H   0  0  0  0  0  0
   -0.3033    2.8569   30.4663 H   0  0  0  0  0  0
    1.5198    2.7568   32.0504 H   0  0  0  0  0  0
    1.1932    4.4012   32.6184 H   0  0  0  0  0  0
    1.9206    6.2697   29.8095 H   0  0  0  0  0  0
    1.0668    5.0493   28.8239 H   0  0  0  0  0  0
    0.1646    6.3551   31.4081 H   0  0  0  0  0  0
   -0.5369    6.5849   29.8102 H   0  0  0  0  0  0
    3.7622    5.4017   29.0091 H   0  0  0  0  0  0
    3.3556    3.9267   28.1297 H   0  0  0  0  0  0
    5.5007    3.0214   28.7363 H   0  0  0  0  0  0
    7.1503    4.3642   29.7991 H   0  0  0  0  0  0
    5.8672    4.2407   31.0082 H   0  0  0  0  0  0
    5.9932    5.6839   29.9911 H   0  0  0  0  0  0
  1  4  1  0  0  0
  1 22  1  0  0  0
  1  2  2  0  0  0
  2  3  1  0  0  0
  2 33  1  0  0  0
  3  6  2  0  0  0
  4  5  2  0  0  0
  4 34  1  0  0  0
  5  9  1  0  0  0
  5  6  1  0  0  0
  6  7  1  0  0  0
  7  8  2  0  0  0
  7 35  1  0  0  0
  8  9  1  0  0  0
  8 36  1  0  0  0
  9 10  1  0  0  0
 10 11  1  0  0  0
 10 12  2  0  0  0
 10 13  2  0  0  0
 11 17  1  0  0  0
 11 14  2  0  0  0
 14 15  1  0  0  0
 14 37  1  0  0  0
 15 16  2  0  0  0
 15 38  1  0  0  0
 16 18  1  0  0  0
 16 39  1  0  0  0
 17 18  1  0  0  0
 17 21  2  0  0  0
 18 19  2  0  0  0
 19 20  1  0  0  0
 20 21  1  0  0  0
 22 23  1  0  0  0
 22 27  1  0  0  0
 23 24  1  0  0  0
 23 40  1  0  0  0
 23 41  1  0  0  0
 24 25  1  0  0  0
 24 42  1  0  0  0
 24 43  1  0  0  0
 25 26  1  0  0  0
 25 28  1  0  0  0
 26 27  1  0  0  0
 26 44  1  0  0  0
 26 45  1  0  0  0
 27 46  1  0  0  0
 27 47  1  0  0  0
 28 29  2  0  0  0
 28 30  1  0  0  0
 30 31  1  0  0  0
 30 48  1  0  0  0
 30 49  1  0  0  0
 31 32  1  0  0  0
 31 50  1  0  0  0
 32 51  1  0  0  0
 32 52  1  0  0  0
 32 53  1  0  0  0
M  END
> <s_m_entry_id>
10082

> <s_m_entry_name>
dock_pv.151

> <s_m_Source_Path>
/home/csk/Desktop/cluster/DUD-E-result/met

> <s_m_Source_File>
dock_pv.maegz

> <i_m_Source_File_Index>
151

> <chembl_id>
CHEMBL564760

> <chembl_pref_name>
None

> <i_lp_mmshare_version>
53161

> <i_f3d_flags>
0

> <r_lp_tautomer_probability>
1

> <s_lp_Force_Field>
OPLS_2005

> <r_lp_Energy>
38.385631

> <b_lp_Chiralities_Consistent>
1

> <s_lp_Variant>
CHEMBL3717_lig438-1

> <s_i_glide_gridfile>
glide-grid_3lq8

> <i_i_glide_lignum>
462

> <i_i_glide_rotatable_bonds>
6

> <r_i_docking_score>
-8.23524699063213

> <r_i_glide_ligand_efficiency>
-0.257351468457254

> <r_i_glide_ligand_efficiency_sa>
-0.817039982565331

> <r_i_glide_ligand_efficiency_ln>
-1.84409628555714

> <r_i_glide_gscore>
-8.23524699063213

> <r_i_glide_lipo>
-3.1574802298199

> <r_i_glide_hbond>
-0.32

> <r_i_glide_metal>
0

> <r_i_glide_rewards>
-2.13502220022634

> <r_i_glide_evdw>
-45.7506103515625

> <r_i_glide_ecoul>
-5.26782369613647

> <r_i_glide_erotb>
0.484148783628712

> <r_i_glide_esite>
-0.0291892722160174

> <r_i_glide_emodel>
-70.4859617685592

> <r_i_glide_energy>
-51.018434047699

> <r_i_glide_einternal>
6.1534948348999

> <i_i_glide_confnum>
6

> <i_i_glide_posenum>
35

> <r_i_glide_eff_state_penalty>
0

> <s_user_duplicate_titles>
CHEMBL3717_lig438,565730

> <s_m_subgroup_title>
dock_pv

> <s_m_subgroupid>
dock_pv

> <b_m_subgroup_collapsed>
1

$$$$
CHEMBL3717_lig3928
                    3D
 Schrodinger Suite 2021-1.
 34 37  0  0  1  0            999 V2000
   -4.7984    1.9465   29.6630 S   0  0  0  0  0  0
   -3.2479    4.0388   30.6080 N   0  0  0  0  0  0
   -3.5914    6.2810   30.4831 N   0  0  0  0  0  0
   -2.8649    1.8161   31.3432 N   0  0  0  0  0  0
   -5.5046    4.9720   30.6080 N   0  0  0  0  0  0
    2.8329    4.2113   30.5137 N   0  0  0  0  0  0
   -1.9938    4.6389   30.6081 C   0  0  0  0  0  0
   -3.5398    2.6777   30.6188 C   0  0  0  0  0  0
   -2.2558    6.0190   30.4323 C   0  0  0  0  0  0
   -4.1481    5.1047   30.5727 C   0  0  0  0  0  0
   -4.3569    0.4007   30.3205 C   0  0  0  0  0  0
   -3.2948    0.5754   31.2116 C   0  0  0  0  0  0
   -0.6820    4.1429   30.6510 C   0  0  0  0  0  0
   -1.1987    6.9092   30.2079 C   0  0  0  0  0  0
    0.3594    5.0571   30.4520 C   0  0  0  0  0  0
    0.1028    6.4085   30.2081 C   0  0  0  0  0  0
   -5.0739   -0.9119   30.0498 C   0  0  0  0  0  0
   -2.6572   -0.5787   31.9801 C   0  0  0  0  0  0
   -4.1933   -2.0736   30.5656 C   0  0  0  0  0  0
   -3.6127   -1.7961   31.9686 C   0  0  0  0  0  0
    1.7378    4.5856   30.4851 C   0  0  0  0  0  0
   -5.9537    4.0732   30.6998 H   0  0  0  0  0  0
   -6.0923    5.7580   30.3624 H   0  0  0  0  0  0
   -0.4783    3.0960   30.7941 H   0  0  0  0  0  0
   -1.3834    7.9573   30.0378 H   0  0  0  0  0  0
    0.9201    7.0945   30.0324 H   0  0  0  0  0  0
   -6.0297   -0.9244   30.5740 H   0  0  0  0  0  0
   -5.2901   -1.0429   28.9899 H   0  0  0  0  0  0
   -1.7177   -0.8632   31.5048 H   0  0  0  0  0  0
   -2.4176   -0.2974   33.0064 H   0  0  0  0  0  0
   -4.7738   -2.9975   30.5784 H   0  0  0  0  0  0
   -3.3746   -2.2520   29.8659 H   0  0  0  0  0  0
   -4.4326   -1.6258   32.6685 H   0  0  0  0  0  0
   -3.0863   -2.6803   32.3314 H   0  0  0  0  0  0
  1  8  1  0  0  0
  1 11  1  0  0  0
  2  7  1  0  0  0
  2  8  1  0  0  0
  2 10  1  0  0  0
  3  9  1  0  0  0
  3 10  2  0  0  0
  4  8  2  0  0  0
  4 12  1  0  0  0
  5 10  1  0  0  0
  5 22  1  0  0  0
  5 23  1  0  0  0
  6 21  3  0  0  0
  7  9  1  0  0  0
  7 13  2  0  0  0
  9 14  2  0  0  0
 11 12  2  0  0  0
 11 17  1  0  0  0
 12 18  1  0  0  0
 13 15  1  0  0  0
 13 24  1  0  0  0
 14 16  1  0  0  0
 14 25  1  0  0  0
 15 16  2  0  0  0
 15 21  1  0  0  0
 16 26  1  0  0  0
 17 19  1  0  0  0
 17 27  1  0  0  0
 17 28  1  0  0  0
 18 20  1  0  0  0
 18 29  1  0  0  0
 18 30  1  0  0  0
 19 20  1  0  0  0
 19 31  1  0  0  0
 19 32  1  0  0  0
 20 33  1  0  0  0
 20 34  1  0  0  0
M  END
> <s_m_entry_id>
10083

> <s_m_entry_name>
dock_pv.152

> <s_m_Source_Path>
/home/csk/Desktop/cluster/DUD-E-result/met

> <s_m_Source_File>
dock_pv.maegz

> <i_m_Source_File_Index>
152

> <chembl_id>
CHEMBL1996345

> <chembl_pref_name>
None

> <i_lp_mmshare_version>
53161

> <i_f3d_flags>
0

> <r_lp_tautomer_probability>
1

> <s_lp_Force_Field>
OPLS_2005

> <r_lp_Energy>
14.391367

> <b_lp_Chiralities_Consistent>
1

> <s_lp_Variant>
CHEMBL3717_lig3928-1

> <s_i_glide_gridfile>
glide-grid_3lq8

> <i_i_glide_lignum>
4991

> <i_i_glide_rotatable_bonds>
1

> <r_i_docking_score>
-8.22533338411736

> <r_i_glide_ligand_efficiency>
-0.391682542100827

> <r_i_glide_ligand_efficiency_sa>
-1.08062243377173

> <r_i_glide_ligand_efficiency_ln>
-2.03369705837192

> <r_i_glide_gscore>
-8.22533338411736

> <r_i_glide_lipo>
-2.33111165270598

> <r_i_glide_hbond>
0

> <r_i_glide_metal>
0

> <r_i_glide_rewards>
-3.93665965546561

> <r_i_glide_evdw>
-37.7234077453613

> <r_i_glide_ecoul>
-1.87463676929474

> <r_i_glide_erotb>
0.209803826716507

> <r_i_glide_esite>
0

> <r_i_glide_emodel>
-57.1413725335525

> <r_i_glide_energy>
-39.5980445146561

> <r_i_glide_einternal>
0.253814667463303

> <i_i_glide_confnum>
1

> <i_i_glide_posenum>
177

> <r_i_glide_eff_state_penalty>
0

> <s_user_duplicate_titles>
CHEMBL3717_lig3928

> <s_m_subgroup_title>
dock_pv

> <s_m_subgroupid>
dock_pv

> <b_m_subgroup_collapsed>
1

$$$$
CHEMBL3717_lig904
                    3D
 Schrodinger Suite 2021-1.
 63 67  0  0  1  0            999 V2000
   -5.6201    1.5630   30.4659 C   0  0  0  0  0  0
   -6.8368    2.2597   30.3839 C   0  0  0  0  0  0
   -6.8691    3.6519   30.4581 C   0  0  0  0  0  0
   -5.6673    4.3457   30.5587 C   0  0  0  0  0  0
   -4.4505    3.6991   30.5865 C   0  0  0  0  0  0
   -4.4185    2.2944   30.5995 C   0  0  0  0  0  0
   -2.8940    1.4901   30.8126 Cl  0  0  0  0  0  0
   -3.4232    4.7386   30.6081 C   0  0  0  0  0  0
   -4.1549    6.0154   30.6102 C   0  0  0  0  0  0
   -5.4544    5.6981   30.6080 N   0  0  0  0  0  0
   -3.6815    7.1547   30.6083 O   0  0  0  0  0  0
   -2.1528    4.5544   30.6212 N   0  0  0  0  0  0
   -1.3236    5.6261   30.6078 N   0  0  0  0  0  0
    0.0129    5.5201   30.4805 C   0  0  0  0  0  0
    0.6740    4.1135   30.4174 C   0  0  1  0  0  0
    2.0707    4.1210   29.7950 C   0  0  0  0  0  0
    2.2720    3.5207   28.5517 C   0  0  0  0  0  0
    3.5308    3.5555   27.9701 C   0  0  0  0  0  0
    4.5813    4.2127   28.6082 C   0  0  0  0  0  0
    4.4043    4.7570   29.8722 C   0  0  0  0  0  0
    3.1497    4.7073   30.4675 C   0  0  0  0  0  0
    5.7726    4.3571   27.9849 F   0  0  0  0  0  0
    0.7110    3.4693   31.8079 C   0  0  0  0  0  0
    0.7001    6.5390   30.4241 O   0  0  0  0  0  0
   -5.5952    0.0566   30.3329 C   0  0  0  0  0  0
   -6.2597   -0.7337   31.2208 N   0  0  0  0  0  0
   -7.1599   -0.2584   32.2800 C   0  0  0  0  0  0
   -8.5986   -0.6483   31.8598 C   0  0  0  0  0  0
   -8.7774   -2.1674   31.6078 C   0  0  0  0  0  0
   -7.6667   -2.6080   30.6160 C   0  0  0  0  0  0
   -6.2449   -2.2010   31.0653 C   0  0  0  0  0  0
   -8.7488   -2.8864   32.8807 N   0  0  2  0  0  0
   -9.1241   -4.2864   32.7610 C   0  0  0  0  0  0
   -8.0125   -5.3089   32.6361 C   0  0  0  0  0  0
   -8.7630   -5.1736   33.9331 C   0  0  0  0  0  0
   -4.9363   -0.4132   29.4081 O   0  0  0  0  0  0
   -7.7673    1.7277   30.2541 H   0  0  0  0  0  0
   -7.8150    4.1708   30.4032 H   0  0  0  0  0  0
   -6.1768    6.3984   30.5220 H   0  0  0  0  0  0
   -1.7791    6.5296   30.6377 H   0  0  0  0  0  0
    0.0473    3.4768   29.7897 H   0  0  0  0  0  0
    1.4592    3.0352   28.0297 H   0  0  0  0  0  0
    3.6838    3.0945   27.0085 H   0  0  0  0  0  0
    5.2272    5.2526   30.3657 H   0  0  0  0  0  0
    3.0049    5.1569   31.4370 H   0  0  0  0  0  0
    1.1118    4.1358   32.5738 H   0  0  0  0  0  0
   -0.2888    3.1571   32.1128 H   0  0  0  0  0  0
    1.3324    2.5723   31.8012 H   0  0  0  0  0  0
   -6.8943   -0.8283   33.1720 H   0  0  0  0  0  0
   -7.0065    0.7785   32.5754 H   0  0  0  0  0  0
   -9.2842   -0.3311   32.6464 H   0  0  0  0  0  0
   -8.9307   -0.0845   30.9883 H   0  0  0  0  0  0
   -9.7297   -2.2757   31.0854 H   0  0  0  0  0  0
   -7.8806   -2.2299   29.6153 H   0  0  0  0  0  0
   -7.6937   -3.6891   30.4875 H   0  0  0  0  0  0
   -5.4470   -2.5705   30.4189 H   0  0  0  0  0  0
   -6.0263   -2.6316   32.0432 H   0  0  0  0  0  0
   -9.3527   -2.4361   33.5525 H   0  0  0  0  0  0
  -10.0881   -4.4733   32.2837 H   0  0  0  0  0  0
   -8.1852   -6.1808   32.0059 H   0  0  0  0  0  0
   -6.9812   -4.9580   32.5805 H   0  0  0  0  0  0
   -8.2564   -4.7318   34.7917 H   0  0  0  0  0  0
   -9.4675   -5.9524   34.2258 H   0  0  0  0  0  0
  1  2  1  0  0  0
  1  6  2  0  0  0
  1 25  1  0  0  0
  2  3  2  0  0  0
  2 37  1  0  0  0
  3  4  1  0  0  0
  3 38  1  0  0  0
  4  5  2  0  0  0
  4 10  1  0  0  0
  5  6  1  0  0  0
  5  8  1  0  0  0
  6  7  1  0  0  0
  8  9  1  0  0  0
  8 12  2  0  0  0
  9 10  1  0  0  0
  9 11  2  0  0  0
 10 39  1  0  0  0
 12 13  1  0  0  0
 13 14  1  0  0  0
 13 40  1  0  0  0
 14 15  1  0  0  0
 14 24  2  0  0  0
 15 16  1  0  0  0
 15 23  1  0  0  0
 15 41  1  0  0  0
 16 17  2  0  0  0
 16 21  1  0  0  0
 17 18  1  0  0  0
 17 42  1  0  0  0
 18 19  2  0  0  0
 18 43  1  0  0  0
 19 20  1  0  0  0
 19 22  1  0  0  0
 20 21  2  0  0  0
 20 44  1  0  0  0
 21 45  1  0  0  0
 23 46  1  0  0  0
 23 47  1  0  0  0
 23 48  1  0  0  0
 25 26  1  0  0  0
 25 36  2  0  0  0
 26 27  1  0  0  0
 26 31  1  0  0  0
 27 28  1  0  0  0
 27 49  1  0  0  0
 27 50  1  0  0  0
 28 29  1  0  0  0
 28 51  1  0  0  0
 28 52  1  0  0  0
 29 30  1  0  0  0
 29 32  1  0  0  0
 29 53  1  0  0  0
 30 31  1  0  0  0
 30 54  1  0  0  0
 30 55  1  0  0  0
 31 56  1  0  0  0
 31 57  1  0  0  0
 32 33  1  0  0  0
 32 58  1  0  0  0
 33 34  1  0  0  0
 33 35  1  0  0  0
 33 59  1  0  0  0
 34 35  1  0  0  0
 34 60  1  0  0  0
 34 61  1  0  0  0
 35 62  1  0  0  0
 35 63  1  0  0  0
M  END
> <s_m_entry_id>
10084

> <s_m_entry_name>
dock_pv.153

> <s_m_Source_Path>
/home/csk/Desktop/cluster/DUD-E-result/met

> <s_m_Source_File>
dock_pv.maegz

> <i_m_Source_File_Index>
153

> <chembl_id>
CHEMBL1822554

> <chembl_pref_name>
None

> <i_lp_mmshare_version>
53161

> <i_f3d_flags>
0

> <r_lp_tautomer_probability>
1

> <s_lp_Force_Field>
OPLS_2005

> <r_lp_Energy>
73.971369

> <b_lp_Chiralities_Consistent>
1

> <s_lp_Variant>
CHEMBL3717_lig904-2

> <s_i_glide_gridfile>
glide-grid_3lq8

> <i_i_glide_lignum>
977

> <i_i_glide_rotatable_bonds>
8

> <r_i_docking_score>
-8.21817245440938

> <r_i_glide_ligand_efficiency>
-0.228282568178038

> <r_i_glide_ligand_efficiency_sa>
-0.753772431414324

> <r_i_glide_ligand_efficiency_ln>
-1.79298320019106

> <r_i_glide_gscore>
-8.21817245440938

> <r_i_glide_lipo>
-3.14996333643396

> <r_i_glide_hbond>
-0.333585696454673

> <r_i_glide_metal>
0

> <r_i_glide_rewards>
-2.28689143380942

> <r_i_glide_evdw>
-43.3855247497559

> <r_i_glide_ecoul>
-5.25958251953125

> <r_i_glide_erotb>
0.547370127177825

> <r_i_glide_esite>
-0.0368884994716664

> <r_i_glide_emodel>
-68.4193512104358

> <r_i_glide_energy>
-48.6451072692871

> <r_i_glide_einternal>
5.19778203964233

> <i_i_glide_confnum>
2

> <i_i_glide_posenum>
27

> <r_i_glide_eff_state_penalty>
0

> <s_user_duplicate_titles>
CHEMBL3717_lig904

> <s_m_subgroup_title>
dock_pv

> <s_m_subgroupid>
dock_pv

> <b_m_subgroup_collapsed>
1

$$$$
CHEMBL3717_lig3618
                    3D
 Schrodinger Suite 2021-1.
 37 39  0  0  1  0            999 V2000
    5.9946    4.3576   28.6631 F   0  0  0  0  0  0
    5.5745    5.1588   30.6081 F   0  0  0  0  0  0
    5.8496    3.0443   30.3911 F   0  0  0  0  0  0
   -5.0352    4.5764   30.4128 O   0  0  0  0  0  0
   -2.9205    7.1715   30.6075 O   0  0  0  0  0  0
   -2.4938    2.4891   31.0080 N   0  0  0  0  0  0
   -0.4352    5.1569   31.2793 N   0  0  0  0  0  0
   -5.0916   -0.7009   30.1099 N   0  0  0  0  0  0
   -2.6109    3.8597   30.8760 C   0  0  0  0  0  0
   -1.7654    4.9239   30.9990 C   0  0  0  0  0  0
   -3.8311    4.7342   30.6077 C   0  0  0  0  0  0
   -2.8450    5.9499   30.7055 C   0  0  0  0  0  0
   -3.4014    1.4640   30.6976 C   0  0  0  0  0  0
    0.5977    4.1738   31.5789 C   0  0  0  0  0  0
    1.5642    3.9802   30.4202 C   0  0  0  0  0  0
    3.8491    3.9291   29.5805 C   0  0  0  0  0  0
    5.3460    4.1283   29.8057 C   0  0  0  0  0  0
    2.9373    4.1655   30.6173 C   0  0  0  0  0  0
    1.1052    3.5571   29.1709 C   0  0  0  0  0  0
    3.3692    3.4970   28.3389 C   0  0  0  0  0  0
   -3.2953    0.2633   31.4070 C   0  0  0  0  0  0
   -4.3556    1.5605   29.6754 C   0  0  0  0  0  0
    2.0040    3.3132   28.1356 C   0  0  0  0  0  0
   -4.1576   -0.7875   31.0891 C   0  0  0  0  0  0
   -5.1752    0.4605   29.4148 C   0  0  0  0  0  0
   -1.6765    2.1382   31.4828 H   0  0  0  0  0  0
   -0.0975    6.1102   31.2901 H   0  0  0  0  0  0
    0.1432    3.2098   31.8078 H   0  0  0  0  0  0
    1.1347    4.4901   32.4747 H   0  0  0  0  0  0
    3.3004    4.4856   31.5836 H   0  0  0  0  0  0
    0.0499    3.3924   29.0080 H   0  0  0  0  0  0
    4.0539    3.2825   27.5313 H   0  0  0  0  0  0
   -2.5632    0.1394   32.1908 H   0  0  0  0  0  0
   -4.4527    2.4488   29.0729 H   0  0  0  0  0  0
    1.6407    2.9658   27.1787 H   0  0  0  0  0  0
   -4.1038   -1.7296   31.6155 H   0  0  0  0  0  0
   -5.9107    0.4888   28.6235 H   0  0  0  0  0  0
  1 17  1  0  0  0
  2 17  1  0  0  0
  3 17  1  0  0  0
  4 11  2  0  0  0
  5 12  2  0  0  0
  6  9  1  0  0  0
  6 13  1  0  0  0
  6 26  1  0  0  0
  7 10  1  0  0  0
  7 14  1  0  0  0
  7 27  1  0  0  0
  8 24  2  0  0  0
  8 25  1  0  0  0
  9 10  2  0  0  0
  9 11  1  0  0  0
 10 12  1  0  0  0
 11 12  1  0  0  0
 13 21  2  0  0  0
 13 22  1  0  0  0
 14 15  1  0  0  0
 14 28  1  0  0  0
 14 29  1  0  0  0
 15 18  2  0  0  0
 15 19  1  0  0  0
 16 17  1  0  0  0
 16 18  1  0  0  0
 16 20  2  0  0  0
 18 30  1  0  0  0
 19 23  2  0  0  0
 19 31  1  0  0  0
 20 23  1  0  0  0
 20 32  1  0  0  0
 21 24  1  0  0  0
 21 33  1  0  0  0
 22 25  2  0  0  0
 22 34  1  0  0  0
 23 35  1  0  0  0
 24 36  1  0  0  0
 25 37  1  0  0  0
M  END
> <s_m_entry_id>
10085

> <s_m_entry_name>
dock_pv.154

> <s_m_Source_Path>
/home/csk/Desktop/cluster/DUD-E-result/met

> <s_m_Source_File>
dock_pv.maegz

> <i_m_Source_File_Index>
154

> <chembl_id>
CHEMBL1979252

> <chembl_pref_name>
None

> <i_lp_mmshare_version>
53161

> <i_f3d_flags>
0

> <r_lp_tautomer_probability>
1

> <s_lp_Force_Field>
OPLS_2005

> <r_lp_Energy>
52.279986

> <b_lp_Chiralities_Consistent>
1

> <s_lp_Variant>
CHEMBL3717_lig3618-1

> <s_i_glide_gridfile>
glide-grid_3lq8

> <i_i_glide_lignum>
4514

> <i_i_glide_rotatable_bonds>
6

> <r_i_docking_score>
-8.21749221839871

> <r_i_glide_ligand_efficiency>
-0.328699688735949

> <r_i_glide_ligand_efficiency_sa>
-0.961123719377715

> <r_i_glide_ligand_efficiency_ln>
-1.94779191413045

> <r_i_glide_gscore>
-8.21749221839871

> <r_i_glide_lipo>
-3.9384249206831

> <r_i_glide_hbond>
-0.32

> <r_i_glide_metal>
0

> <r_i_glide_rewards>
-2.49416120773344

> <r_i_glide_evdw>
-41.9528121948242

> <r_i_glide_ecoul>
-0.351029723882675

> <r_i_glide_erotb>
0.788590894489008

> <r_i_glide_esite>
-0.103201916147568

> <r_i_glide_emodel>
-59.6356386758702

> <r_i_glide_energy>
-42.3038419187069

> <r_i_glide_einternal>
6.5616512298584

> <i_i_glide_confnum>
39

> <i_i_glide_posenum>
321

> <r_i_glide_eff_state_penalty>
0

> <s_user_duplicate_titles>
CHEMBL3717_lig3618

> <s_m_subgroup_title>
dock_pv

> <s_m_subgroupid>
dock_pv

> <b_m_subgroup_collapsed>
1

$$$$
CHEMBL3717_lig4142
                    3D
 Schrodinger Suite 2021-1.
 25 28  0  0  1  0            999 V2000
   -4.1799    7.1570   30.6080 O   0  0  0  0  0  0
   -3.2940    1.7033   30.6080 N   0  0  0  0  0  0
   -4.5334    1.3198   30.5786 N   0  0  0  0  0  0
   -4.5255    3.5472   30.5847 C   0  0  0  0  0  0
   -3.2416    3.1011   30.6080 C   0  0  0  0  0  0
   -4.9350    4.8787   30.6016 C   0  0  0  0  0  0
   -2.1698    4.0327   30.6306 C   0  0  0  0  0  0
   -2.4986    5.4301   30.6080 C   0  0  0  0  0  0
   -5.3384    2.4543   30.5666 C   0  0  0  0  0  0
   -3.8779    5.8280   30.6080 C   0  0  0  0  0  0
   -6.3468    5.0840   30.6054 C   0  0  0  0  0  0
   -6.7188    2.6533   30.5587 C   0  0  0  0  0  0
   -0.8081    3.6575   30.6504 C   0  0  0  0  0  0
   -1.4329    6.3698   30.5550 C   0  0  0  0  0  0
   -7.2135    3.9719   30.5782 C   0  0  0  0  0  0
    0.2066    4.6071   30.6156 C   0  0  0  0  0  0
   -0.1048    5.9570   30.5593 C   0  0  0  0  0  0
   -5.1206    7.3044   30.4715 H   0  0  0  0  0  0
   -6.7490    6.0868   30.6080 H   0  0  0  0  0  0
   -7.4015    1.8165   30.5445 H   0  0  0  0  0  0
   -0.5604    2.6224   30.6760 H   0  0  0  0  0  0
   -1.6528    7.4272   30.5147 H   0  0  0  0  0  0
   -8.2816    4.1336   30.5683 H   0  0  0  0  0  0
    1.2403    4.2926   30.6214 H   0  0  0  0  0  0
    0.6872    6.6911   30.5233 H   0  0  0  0  0  0
  1 10  1  0  0  0
  1 18  1  0  0  0
  2  3  2  0  0  0
  2  5  1  0  0  0
  3  9  1  0  0  0
  4  5  2  0  0  0
  4  6  1  0  0  0
  4  9  1  0  0  0
  5  7  1  0  0  0
  6 10  2  0  0  0
  6 11  1  0  0  0
  7  8  1  0  0  0
  7 13  2  0  0  0
  8 10  1  0  0  0
  8 14  2  0  0  0
  9 12  2  0  0  0
 11 15  2  0  0  0
 11 19  1  0  0  0
 12 15  1  0  0  0
 12 20  1  0  0  0
 13 16  1  0  0  0
 13 21  1  0  0  0
 14 17  1  0  0  0
 14 22  1  0  0  0
 15 23  1  0  0  0
 16 17  2  0  0  0
 16 24  1  0  0  0
 17 25  1  0  0  0
M  END
> <s_m_entry_id>
10086

> <s_m_entry_name>
dock_pv.155

> <s_m_Source_Path>
/home/csk/Desktop/cluster/DUD-E-result/met

> <s_m_Source_File>
dock_pv.maegz

> <i_m_Source_File_Index>
155

> <chembl_id>
CHEMBL1725279

> <chembl_pref_name>
SP-600125

> <i_lp_mmshare_version>
53161

> <i_f3d_flags>
0

> <r_lp_tautomer_probability>
1

> <s_lp_Force_Field>
OPLS_2005

> <r_lp_Energy>
47.074234

> <b_lp_Chiralities_Consistent>
1

> <s_lp_Variant>
CHEMBL3717_lig4142-1

> <s_i_glide_gridfile>
glide-grid_3lq8

> <i_i_glide_lignum>
5301

> <i_i_glide_rotatable_bonds>
1

> <r_i_docking_score>
-8.21362635794707

> <r_i_glide_ligand_efficiency>
-0.483154491643945

> <r_i_glide_ligand_efficiency_sa>
-1.24232624863466

> <r_i_glide_ligand_efficiency_ln>
-2.14275220832233

> <r_i_glide_gscore>
-8.21362635794707

> <r_i_glide_lipo>
-3.0398958387368

> <r_i_glide_hbond>
-0.367278555768016

> <r_i_glide_metal>
0

> <r_i_glide_rewards>
-3.04077017213671

> <r_i_glide_evdw>
-22.090877532959

> <r_i_glide_ecoul>
-4.40758609771729

> <r_i_glide_erotb>
0

> <r_i_glide_esite>
0

> <r_i_glide_emodel>
-38.9548803990612

> <r_i_glide_energy>
-26.4984636306763

> <r_i_glide_einternal>
0.0824668481945992

> <i_i_glide_confnum>
1

> <i_i_glide_posenum>
181

> <r_i_glide_eff_state_penalty>
0

> <s_user_duplicate_titles>
CHEMBL3717_lig4142

> <s_m_subgroup_title>
dock_pv

> <s_m_subgroupid>
dock_pv

> <b_m_subgroup_collapsed>
1

$$$$
CHEMBL3717_lig1759
                    3D
 Schrodinger Suite 2021-1.
 47 49  0  0  1  0            999 V2000
   -1.4792    5.3146   31.1519 C   0  0  0  0  0  0
   -0.8598    4.0990   30.8997 C   0  0  0  0  0  0
   -1.9054    3.1997   30.6965 C   0  0  0  0  0  0
   -2.8452    5.1808   30.9986 C   0  0  0  0  0  0
   -3.0985    3.8887   30.6036 N   0  0  0  0  0  0
   -4.3908    3.4359   30.0629 C   0  0  2  0  0  0
   -5.4235    4.6239   30.0180 C   0  0  0  0  0  0
   -5.1002    5.6935   30.9579 N   0  0  0  0  0  0
   -3.8529    6.1872   30.9926 C   0  0  0  0  0  0
   -3.6825    7.3863   31.0114 O   0  0  0  0  0  0
   -4.9516    2.1505   30.7355 C   0  0  0  0  0  0
   -5.1912    0.9713   29.7946 C   0  0  0  0  0  0
   -5.2964    1.1496   28.5846 O   0  0  0  0  0  0
   -5.2369   -0.2367   30.3761 N   0  0  0  0  0  0
   -5.2416   -1.5110   29.6547 C   0  0  0  0  0  0
   -3.8668   -2.2380   29.6991 C   0  0  0  0  0  0
   -3.9376   -3.4964   28.8119 C   0  0  0  0  0  0
   -3.5355   -2.6398   31.1571 C   0  0  0  0  0  0
   -2.7237   -1.3409   29.1747 C   0  0  0  0  0  0
    0.5794    3.9577   30.8177 C   0  0  0  0  0  0
    2.9701    3.5601   29.8332 S   0  0  0  0  0  0
    1.2440    3.4954   29.6860 C   0  0  0  0  0  0
    1.4873    4.3644   31.8061 C   0  0  0  0  0  0
    2.8147    4.2051   31.4311 C   0  0  0  0  0  0
   -0.9644    6.2409   31.3638 H   0  0  0  0  0  0
   -1.8940    2.1382   30.5266 H   0  0  0  0  0  0
   -4.1502    3.2202   29.0263 H   0  0  0  0  0  0
   -6.4425    4.2756   30.2012 H   0  0  0  0  0  0
   -5.5098    5.1570   29.0588 H   0  0  0  0  0  0
   -5.8000    6.4131   31.0498 H   0  0  0  0  0  0
   -5.8892    2.3496   31.2495 H   0  0  0  0  0  0
   -4.2507    1.8015   31.4876 H   0  0  0  0  0  0
   -5.2413   -0.2959   31.3824 H   0  0  0  0  0  0
   -5.5683   -1.3766   28.6196 H   0  0  0  0  0  0
   -6.0093   -2.1434   30.1075 H   0  0  0  0  0  0
   -4.0868   -3.2464   27.7627 H   0  0  0  0  0  0
   -3.0099   -4.0615   28.8656 H   0  0  0  0  0  0
   -4.7490   -4.1585   29.1130 H   0  0  0  0  0  0
   -3.4007   -1.7699   31.8001 H   0  0  0  0  0  0
   -4.3288   -3.2458   31.5967 H   0  0  0  0  0  0
   -2.6175   -3.2254   31.2103 H   0  0  0  0  0  0
   -2.6081   -0.4559   29.7944 H   0  0  0  0  0  0
   -1.7663   -1.8611   29.1894 H   0  0  0  0  0  0
   -2.8891   -1.0080   28.1506 H   0  0  0  0  0  0
    0.7954    3.1379   28.7695 H   0  0  0  0  0  0
    1.1838    4.7785   32.7559 H   0  0  0  0  0  0
    3.6942    4.4596   32.0019 H   0  0  0  0  0  0
  1  2  1  0  0  0
  1  4  2  0  0  0
  1 25  1  0  0  0
  2  3  2  0  0  0
  2 20  1  0  0  0
  3  5  1  0  0  0
  3 26  1  0  0  0
  4  5  1  0  0  0
  4  9  1  0  0  0
  5  6  1  0  0  0
  6  7  1  0  0  0
  6 11  1  0  0  0
  6 27  1  0  0  0
  7  8  1  0  0  0
  7 28  1  0  0  0
  7 29  1  0  0  0
  8  9  1  0  0  0
  8 30  1  0  0  0
  9 10  2  0  0  0
 11 12  1  0  0  0
 11 31  1  0  0  0
 11 32  1  0  0  0
 12 13  2  0  0  0
 12 14  1  0  0  0
 14 15  1  0  0  0
 14 33  1  0  0  0
 15 16  1  0  0  0
 15 34  1  0  0  0
 15 35  1  0  0  0
 16 17  1  0  0  0
 16 18  1  0  0  0
 16 19  1  0  0  0
 17 36  1  0  0  0
 17 37  1  0  0  0
 17 38  1  0  0  0
 18 39  1  0  0  0
 18 40  1  0  0  0
 18 41  1  0  0  0
 19 42  1  0  0  0
 19 43  1  0  0  0
 19 44  1  0  0  0
 20 22  2  0  0  0
 20 23  1  0  0  0
 21 22  1  0  0  0
 21 24  1  0  0  0
 22 45  1  0  0  0
 23 24  2  0  0  0
 23 46  1  0  0  0
 24 47  1  0  0  0
M  END
> <s_m_entry_id>
10087

> <s_m_entry_name>
dock_pv.156

> <s_m_Source_Path>
/home/csk/Desktop/cluster/DUD-E-result/met

> <s_m_Source_File>
dock_pv.maegz

> <i_m_Source_File_Index>
156

> <chembl_id>
CHEMBL3298400

> <chembl_pref_name>
None

> <i_lp_mmshare_version>
53161

> <i_f3d_flags>
0

> <r_lp_tautomer_probability>
1

> <s_lp_Force_Field>
OPLS_2005

> <r_lp_Energy>
21.874272

> <b_lp_Chiralities_Consistent>
1

> <s_lp_Variant>
CHEMBL3717_lig1759-1

> <s_i_glide_gridfile>
glide-grid_3lq8

> <i_i_glide_lignum>
2036

> <i_i_glide_rotatable_bonds>
6

> <r_i_docking_score>
-8.21128708823315

> <r_i_glide_ligand_efficiency>
-0.342136962009714

> <r_i_glide_ligand_efficiency_sa>
-0.986893771844118

> <r_i_glide_ligand_efficiency_ln>
-1.96533779162661

> <r_i_glide_gscore>
-8.21128708823315

> <r_i_glide_lipo>
-3.15413194753763

> <r_i_glide_hbond>
-0.47316114524831

> <r_i_glide_metal>
0

> <r_i_glide_rewards>
-2.93441918542818

> <r_i_glide_evdw>
-32.1176147460938

> <r_i_glide_ecoul>
-5.5981593132019

> <r_i_glide_erotb>
0.796029824265952

> <r_i_glide_esite>
0

> <r_i_glide_emodel>
-42.9993685368756

> <r_i_glide_energy>
-37.7157740592957

> <r_i_glide_einternal>
4.58943176269531

> <i_i_glide_confnum>
19

> <i_i_glide_posenum>
18

> <r_i_glide_eff_state_penalty>
0

> <s_user_duplicate_titles>
CHEMBL3717_lig1759

> <s_m_subgroup_title>
dock_pv

> <s_m_subgroupid>
dock_pv

> <b_m_subgroup_collapsed>
1

$$$$
CHEMBL3717_lig3802
                    3D
 Schrodinger Suite 2021-1.
 45 47  0  0  1  0            999 V2000
   -2.4880    7.4956   30.2079 F   0  0  0  0  0  0
   -4.8144    6.3569   31.0079 O   0  0  0  0  0  0
   -8.7800    4.9348   30.2058 O   0  0  0  0  0  0
   -5.0573    4.2413   30.2540 N   0  0  0  0  0  0
    4.1265    3.9349   29.7920 N   0  0  0  0  0  0
   -2.8220    5.1459   30.5833 C   0  0  0  0  0  0
   -0.0335    4.8006   30.3583 C   0  0  0  0  0  0
   -1.9799    6.2472   30.3362 C   0  0  0  0  0  0
   -4.3205    5.3097   30.6103 C   0  0  0  0  0  0
   -0.5984    6.0701   30.2085 C   0  0  0  0  0  0
    1.4065    4.5504   30.1533 C   0  0  0  0  0  0
   -2.2370    3.8887   30.7926 C   0  0  0  0  0  0
   -0.8610    3.7290   30.6828 C   0  0  0  0  0  0
   -6.4961    4.0335   30.5044 C   0  0  2  0  0  0
    2.3003    4.6173   31.2252 C   0  0  0  0  0  0
    1.8920    4.1633   28.8976 C   0  0  0  0  0  0
   -6.9550    2.6033   30.0917 C   0  0  0  0  0  0
   -5.9619    1.4738   30.3655 C   0  0  0  0  0  0
    3.6423    4.3092   31.0024 C   0  0  0  0  0  0
    3.2487    3.8637   28.7600 C   0  0  0  0  0  0
   -7.4140    5.1315   29.8940 C   0  0  0  0  0  0
   -6.0246    0.7575   31.5633 C   0  0  0  0  0  0
   -4.9946    1.1471   29.4084 C   0  0  0  0  0  0
   -5.1192   -0.2715   31.8081 C   0  0  0  0  0  0
   -4.0946    0.1131   29.6506 C   0  0  0  0  0  0
   -4.1584   -0.5901   30.8503 C   0  0  0  0  0  0
   -9.2940    5.5801   29.7053 H   0  0  0  0  0  0
   -4.5625    3.4287   29.9168 H   0  0  0  0  0  0
    0.0293    6.9193   29.9813 H   0  0  0  0  0  0
   -2.8392    3.0200   31.0216 H   0  0  0  0  0  0
   -0.4238    2.7570   30.8267 H   0  0  0  0  0  0
   -6.6086    4.0935   31.5892 H   0  0  0  0  0  0
    1.9575    4.8969   32.2111 H   0  0  0  0  0  0
    1.2252    4.0770   28.0515 H   0  0  0  0  0  0
   -7.1937    2.5813   29.0289 H   0  0  0  0  0  0
   -7.9087    2.3694   30.5687 H   0  0  0  0  0  0
    4.3569    4.3573   31.8071 H   0  0  0  0  0  0
    3.6513    3.5448   27.8098 H   0  0  0  0  0  0
   -7.1464    6.1292   30.2366 H   0  0  0  0  0  0
   -7.3028    5.1566   28.8127 H   0  0  0  0  0  0
   -6.7680    0.9985   32.3085 H   0  0  0  0  0  0
   -4.9396    1.6850   28.4746 H   0  0  0  0  0  0
   -5.1681   -0.8229   32.7370 H   0  0  0  0  0  0
   -3.3607   -0.1507   28.9037 H   0  0  0  0  0  0
   -3.4630   -1.3963   31.0359 H   0  0  0  0  0  0
  1  8  1  0  0  0
  2  9  2  0  0  0
  3 21  1  0  0  0
  3 27  1  0  0  0
  4  9  1  0  0  0
  4 14  1  0  0  0
  4 28  1  0  0  0
  5 19  2  0  0  0
  5 20  1  0  0  0
  6  8  1  0  0  0
  6  9  1  0  0  0
  6 12  2  0  0  0
  7 10  1  0  0  0
  7 11  1  0  0  0
  7 13  2  0  0  0
  8 10  2  0  0  0
 10 29  1  0  0  0
 11 15  2  0  0  0
 11 16  1  0  0  0
 12 13  1  0  0  0
 12 30  1  0  0  0
 13 31  1  0  0  0
 14 17  1  0  0  0
 14 21  1  0  0  0
 14 32  1  0  0  0
 15 19  1  0  0  0
 15 33  1  0  0  0
 16 20  2  0  0  0
 16 34  1  0  0  0
 17 18  1  0  0  0
 17 35  1  0  0  0
 17 36  1  0  0  0
 18 22  2  0  0  0
 18 23  1  0  0  0
 19 37  1  0  0  0
 20 38  1  0  0  0
 21 39  1  0  0  0
 21 40  1  0  0  0
 22 24  1  0  0  0
 22 41  1  0  0  0
 23 25  2  0  0  0
 23 42  1  0  0  0
 24 26  2  0  0  0
 24 43  1  0  0  0
 25 26  1  0  0  0
 25 44  1  0  0  0
 26 45  1  0  0  0
M  END
> <s_m_entry_id>
10088

> <s_m_entry_name>
dock_pv.157

> <s_m_Source_Path>
/home/csk/Desktop/cluster/DUD-E-result/met

> <s_m_Source_File>
dock_pv.maegz

> <i_m_Source_File_Index>
157

> <chembl_id>
CHEMBL1969755

> <chembl_pref_name>
None

> <i_lp_mmshare_version>
53161

> <i_f3d_flags>
0

> <r_lp_tautomer_probability>
1

> <s_lp_Force_Field>
OPLS_2005

> <r_lp_Energy>
18.404922

> <b_lp_Chiralities_Consistent>
1

> <s_lp_Variant>
CHEMBL3717_lig3802-1

> <s_i_glide_gridfile>
glide-grid_3lq8

> <i_i_glide_lignum>
4815

> <i_i_glide_rotatable_bonds>
8

> <r_i_docking_score>
-8.19994328737698

> <r_i_glide_ligand_efficiency>
-0.315382434129884

> <r_i_glide_ligand_efficiency_sa>
-0.934319220139827

> <r_i_glide_ligand_efficiency_ln>
-1.92572977483199

> <r_i_glide_gscore>
-8.19994328737698

> <r_i_glide_lipo>
-3.97502820098773

> <r_i_glide_hbond>
-0.212577306071378

> <r_i_glide_metal>
0

> <r_i_glide_rewards>
-2.36331638517619

> <r_i_glide_evdw>
-41.3544082641602

> <r_i_glide_ecoul>
-3.41870880126953

> <r_i_glide_erotb>
0.931505338256756

> <r_i_glide_esite>
0

> <r_i_glide_emodel>
-59.7707213530257

> <r_i_glide_energy>
-44.7731170654297

> <r_i_glide_einternal>
10.1265640258789

> <i_i_glide_confnum>
5

> <i_i_glide_posenum>
389

> <r_i_glide_eff_state_penalty>
0

> <s_user_duplicate_titles>
CHEMBL3717_lig3802

> <s_m_subgroup_title>
dock_pv

> <s_m_subgroupid>
dock_pv

> <b_m_subgroup_collapsed>
1

$$$$
CHEMBL3717_lig1362
                    3D
 Schrodinger Suite 2021-1.
 43 46  0  0  1  0            999 V2000
   -2.2027    3.5401   31.0869 C   0  0  0  0  0  0
   -4.3197    5.7682   30.6333 C   0  0  0  0  0  0
   -3.1619    6.4497   30.6081 C   0  0  0  0  0  0
   -1.3365    4.6604   30.6109 C   0  0  0  0  0  0
   -1.7745    5.9852   30.4126 C   0  0  0  0  0  0
   -0.8414    6.9325   29.9769 C   0  0  0  0  0  0
    0.4889    6.5872   29.7607 C   0  0  0  0  0  0
    0.9303    5.2808   29.9727 C   0  0  0  0  0  0
    0.0136    4.3225   30.4070 C   0  0  0  0  0  0
   -4.5745    4.3283   30.4753 C   0  0  0  0  0  0
   -3.6047    3.3198   30.6080 C   0  0  0  0  0  0
   -4.0075    1.9833   30.4421 C   0  0  0  0  0  0
   -5.3410    1.6774   30.1535 C   0  0  0  0  0  0
   -6.2417    2.7418   30.0671 C   0  0  0  0  0  0
   -5.8757    4.0400   30.2082 N   0  0  0  0  0  0
   -1.6940    2.6668   31.7973 O   0  0  0  0  0  0
    2.4009    4.9608   29.7226 C   0  0  0  0  0  0
    2.9800    3.1914   29.9427 S   0  0  0  0  0  0
    4.7056    3.3685   29.8084 N   0  0  0  0  0  0
    2.5267    2.4320   28.7763 O   0  0  0  0  0  0
    2.7074    2.7569   31.3161 O   0  0  0  0  0  0
   -5.7761    0.2648   29.9538 C   0  0  0  0  0  0
   -7.0775   -0.2485   29.8015 C   0  0  0  0  0  0
   -7.1151   -1.5514   29.6351 N   0  0  0  0  0  0
   -5.8329   -1.9275   29.6787 N   0  0  0  0  0  0
   -4.9833   -0.8718   29.8646 C   0  0  0  0  0  0
   -5.4744   -3.3241   29.5182 C   0  0  0  0  0  0
   -5.2108    6.3591   30.8010 H   0  0  0  0  0  0
   -3.2479    7.5127   30.7814 H   0  0  0  0  0  0
   -1.1396    7.9570   29.8028 H   0  0  0  0  0  0
    1.1741    7.3499   29.4251 H   0  0  0  0  0  0
    0.3467    3.3062   30.5625 H   0  0  0  0  0  0
   -3.2965    1.1760   30.5532 H   0  0  0  0  0  0
   -7.2861    2.5723   29.8517 H   0  0  0  0  0  0
    3.0202    5.5565   30.3854 H   0  0  0  0  0  0
    2.6521    5.1634   28.6854 H   0  0  0  0  0  0
    5.2115    3.3304   30.6931 H   0  0  0  0  0  0
    5.1539    2.8733   29.0267 H   0  0  0  0  0  0
   -7.9911    0.3269   29.8127 H   0  0  0  0  0  0
   -3.9155   -1.0267   29.9057 H   0  0  0  0  0  0
   -4.8947   -3.6430   30.3841 H   0  0  0  0  0  0
   -6.3654   -3.9484   29.4347 H   0  0  0  0  0  0
   -4.8696   -3.4366   28.6183 H   0  0  0  0  0  0
  1 11  1  0  0  0
  1  4  1  0  0  0
  1 16  2  0  0  0
  2 10  1  0  0  0
  2  3  2  0  0  0
  2 28  1  0  0  0
  3  5  1  0  0  0
  3 29  1  0  0  0
  4  5  2  0  0  0
  4  9  1  0  0  0
  5  6  1  0  0  0
  6  7  2  0  0  0
  6 30  1  0  0  0
  7  8  1  0  0  0
  7 31  1  0  0  0
  8  9  2  0  0  0
  8 17  1  0  0  0
  9 32  1  0  0  0
 10 11  2  0  0  0
 10 15  1  0  0  0
 11 12  1  0  0  0
 12 13  2  0  0  0
 12 33  1  0  0  0
 13 14  1  0  0  0
 13 22  1  0  0  0
 14 15  2  0  0  0
 14 34  1  0  0  0
 17 18  1  0  0  0
 17 35  1  0  0  0
 17 36  1  0  0  0
 18 19  1  0  0  0
 18 20  2  0  0  0
 18 21  2  0  0  0
 19 37  1  0  0  0
 19 38  1  0  0  0
 22 23  1  0  0  0
 22 26  2  0  0  0
 23 24  2  0  0  0
 23 39  1  0  0  0
 24 25  1  0  0  0
 25 26  1  0  0  0
 25 27  1  0  0  0
 26 40  1  0  0  0
 27 41  1  0  0  0
 27 42  1  0  0  0
 27 43  1  0  0  0
M  END
> <s_m_entry_id>
10089

> <s_m_entry_name>
dock_pv.158

> <s_m_Source_Path>
/home/csk/Desktop/cluster/DUD-E-result/met

> <s_m_Source_File>
dock_pv.maegz

> <i_m_Source_File_Index>
158

> <chembl_id>
CHEMBL2324118

> <chembl_pref_name>
None

> <i_lp_mmshare_version>
53161

> <i_f3d_flags>
0

> <r_lp_tautomer_probability>
1

> <s_lp_Force_Field>
OPLS_2005

> <r_lp_Energy>
25.080056

> <b_lp_Chiralities_Consistent>
1

> <s_lp_Variant>
CHEMBL3717_lig1362-1

> <s_i_glide_gridfile>
glide-grid_3lq8

> <i_i_glide_lignum>
1551

> <i_i_glide_rotatable_bonds>
3

> <r_i_docking_score>
-8.19429372453945

> <r_i_glide_ligand_efficiency>
-0.303492360168128

> <r_i_glide_ligand_efficiency_sa>
-0.910477079504122

> <r_i_glide_ligand_efficiency_ln>
-1.9074964855826

> <r_i_glide_gscore>
-8.19429372453945

> <r_i_glide_lipo>
-3.69434079399665

> <r_i_glide_hbond>
-0.32

> <r_i_glide_metal>
0

> <r_i_glide_rewards>
-2.1455401503741

> <r_i_glide_evdw>
-41.9497909545898

> <r_i_glide_ecoul>
-1.26502287387848

> <r_i_glide_erotb>
0.268107472683081

> <r_i_glide_esite>
-0.0152772740405138

> <r_i_glide_emodel>
-56.1297769125212

> <r_i_glide_energy>
-43.2148138284683

> <r_i_glide_einternal>
8.93340969085693

> <i_i_glide_confnum>
2

> <i_i_glide_posenum>
41

> <r_i_glide_eff_state_penalty>
0

> <s_user_duplicate_titles>
CHEMBL3717_lig1362

> <s_m_subgroup_title>
dock_pv

> <s_m_subgroupid>
dock_pv

> <b_m_subgroup_collapsed>
1

$$$$
CHEMBL3717_lig714
                    3D
 Schrodinger Suite 2021-1.
 53 57  0  0  1  0            999 V2000
   -6.1579   -0.8273   30.5098 S   0  0  0  0  0  0
   -6.6397   -0.3463   31.8086 O   0  0  0  0  0  0
   -6.8551   -1.9066   29.8030 O   0  0  0  0  0  0
   -2.5432    3.3570   31.0079 C   0  0  0  0  0  0
   -4.4636    5.7933   30.7954 C   0  0  0  0  0  0
   -3.2509    6.3743   30.8254 C   0  0  0  0  0  0
   -1.9096    5.8114   30.5816 C   0  0  0  0  0  0
   -1.5929    4.4436   30.6384 C   0  0  0  0  0  0
   -0.2801    4.0419   30.3398 C   0  0  0  0  0  0
    0.6602    4.9875   29.9398 C   0  0  0  0  0  0
    0.2742    6.3295   29.9055 C   0  0  0  0  0  0
   -0.9851    6.7408   30.2076 N   0  0  0  0  0  0
   -3.9662    3.3078   30.5312 C   0  0  0  0  0  0
   -4.8582    4.3989   30.5166 C   0  0  0  0  0  0
   -6.2055    4.1545   30.2088 C   0  0  0  0  0  0
   -6.6538    2.8747   29.8765 C   0  0  0  0  0  0
   -5.7532    1.8143   29.8185 C   0  0  0  0  0  0
   -4.4232    2.0310   30.1675 C   0  0  0  0  0  0
   -2.0933    2.3569   31.5728 O   0  0  0  0  0  0
   -6.1762    0.5482   29.4041 N   0  0  0  0  0  0
    1.9980    4.5341   29.5051 C   0  0  0  0  0  0
    2.3141    3.7504   28.3846 C   0  0  0  0  0  0
    3.6047    3.5516   28.2424 N   0  0  0  0  0  0
    4.1580    4.1791   29.2870 N   0  0  0  0  0  0
    3.2237    4.7568   30.1041 C   0  0  0  0  0  0
   -4.4480   -1.2776   30.6531 N   0  0  0  0  0  0
    5.5973    4.1461   29.4642 C   0  0  0  0  0  0
   -3.6360   -1.5567   29.4429 C   0  0  0  0  0  0
   -2.6076   -2.6741   29.6939 C   0  0  0  0  0  0
   -1.9079   -2.4401   30.9189 O   0  0  0  0  0  0
   -2.7587   -2.4388   32.0666 C   0  0  0  0  0  0
   -3.7659   -1.2803   31.9688 C   0  0  0  0  0  0
   -5.2955    6.4495   31.0075 H   0  0  0  0  0  0
   -3.2488    7.4289   31.0621 H   0  0  0  0  0  0
    0.0115    3.0008   30.3626 H   0  0  0  0  0  0
    0.9671    7.0973   29.5936 H   0  0  0  0  0  0
   -6.9175    4.9674   30.1993 H   0  0  0  0  0  0
   -7.6931    2.7200   29.6250 H   0  0  0  0  0  0
   -3.7436    1.1948   30.1471 H   0  0  0  0  0  0
   -6.2327    0.3390   28.4184 H   0  0  0  0  0  0
    1.6034    3.3527   27.6743 H   0  0  0  0  0  0
    3.5081    5.2700   31.0079 H   0  0  0  0  0  0
    5.9010    4.8963   30.1956 H   0  0  0  0  0  0
    6.0905    4.3608   28.5150 H   0  0  0  0  0  0
    5.8942    3.1571   29.8124 H   0  0  0  0  0  0
   -4.2966   -1.7909   28.6082 H   0  0  0  0  0  0
   -3.0867   -0.6506   29.1931 H   0  0  0  0  0  0
   -1.8863   -2.7130   28.8793 H   0  0  0  0  0  0
   -3.1062   -3.6428   29.7156 H   0  0  0  0  0  0
   -2.1462   -2.3393   32.9632 H   0  0  0  0  0  0
   -3.2906   -3.3877   32.1474 H   0  0  0  0  0  0
   -3.2197   -0.3392   32.0488 H   0  0  0  0  0  0
   -4.5046   -1.3050   32.7712 H   0  0  0  0  0  0
  1  3  2  0  0  0
  1 20  1  0  0  0
  1 26  1  0  0  0
  1  2  2  0  0  0
  4 19  2  0  0  0
  4  8  1  0  0  0
  4 13  1  0  0  0
  5 14  1  0  0  0
  5  6  2  0  0  0
  5 33  1  0  0  0
  6  7  1  0  0  0
  6 34  1  0  0  0
  7  8  2  0  0  0
  7 12  1  0  0  0
  8  9  1  0  0  0
  9 10  2  0  0  0
  9 35  1  0  0  0
 10 21  1  0  0  0
 10 11  1  0  0  0
 11 12  2  0  0  0
 11 36  1  0  0  0
 13 18  1  0  0  0
 13 14  2  0  0  0
 14 15  1  0  0  0
 15 16  2  0  0  0
 15 37  1  0  0  0
 16 17  1  0  0  0
 16 38  1  0  0  0
 17 18  2  0  0  0
 17 20  1  0  0  0
 18 39  1  0  0  0
 20 40  1  0  0  0
 21 22  1  0  0  0
 21 25  2  0  0  0
 22 23  2  0  0  0
 22 41  1  0  0  0
 23 24  1  0  0  0
 24 25  1  0  0  0
 24 27  1  0  0  0
 25 42  1  0  0  0
 26 28  1  0  0  0
 26 32  1  0  0  0
 27 43  1  0  0  0
 27 44  1  0  0  0
 27 45  1  0  0  0
 28 29  1  0  0  0
 28 46  1  0  0  0
 28 47  1  0  0  0
 29 30  1  0  0  0
 29 48  1  0  0  0
 29 49  1  0  0  0
 30 31  1  0  0  0
 31 32  1  0  0  0
 31 50  1  0  0  0
 31 51  1  0  0  0
 32 52  1  0  0  0
 32 53  1  0  0  0
M  END
> <s_m_entry_id>
10090

> <s_m_entry_name>
dock_pv.159

> <s_m_Source_Path>
/home/csk/Desktop/cluster/DUD-E-result/met

> <s_m_Source_File>
dock_pv.maegz

> <i_m_Source_File_Index>
159

> <chembl_id>
CHEMBL1800104

> <chembl_pref_name>
None

> <i_lp_mmshare_version>
53161

> <i_f3d_flags>
0

> <r_lp_tautomer_probability>
1

> <s_lp_Force_Field>
OPLS_2005

> <r_lp_Energy>
31.548271

> <b_lp_Chiralities_Consistent>
1

> <s_lp_Variant>
CHEMBL3717_lig714-1

> <s_i_glide_gridfile>
glide-grid_3lq8

> <i_i_glide_lignum>
772

> <i_i_glide_rotatable_bonds>
4

> <r_i_docking_score>
-8.19086059027784

> <r_i_glide_ligand_efficiency>
-0.255964393446182

> <r_i_glide_ligand_efficiency_sa>
-0.81263629390695

> <r_i_glide_ligand_efficiency_ln>
-1.83415696059024

> <r_i_glide_gscore>
-8.19086059027784

> <r_i_glide_lipo>
-4.43380798756287

> <r_i_glide_hbond>
0

> <r_i_glide_metal>
0

> <r_i_glide_rewards>
-1.52833895023936

> <r_i_glide_evdw>
-49.8679580688477

> <r_i_glide_ecoul>
-0.746492743492126

> <r_i_glide_erotb>
0.3935719456824

> <r_i_glide_esite>
-0.0169137831918073

> <r_i_glide_emodel>
-67.4264144905876

> <r_i_glide_energy>
-50.6144508123398

> <r_i_glide_einternal>
8.33756923675537

> <i_i_glide_confnum>
4

> <i_i_glide_posenum>
38

> <r_i_glide_eff_state_penalty>
0

> <s_user_duplicate_titles>
CHEMBL3717_lig714

> <s_m_subgroup_title>
dock_pv

> <s_m_subgroupid>
dock_pv

> <b_m_subgroup_collapsed>
1

$$$$
CHEMBL3717_lig4295
                    3D
 Schrodinger Suite 2021-1.
 43 47  0  0  1  0            999 V2000
   -0.0940   -1.8830   34.6079 O   0  0  0  0  0  0
   -0.8941   -1.4321   33.5971 C   0  0  0  0  0  0
   -1.5450   -0.2155   33.7150 C   0  0  0  0  0  0
   -2.4266    0.2583   32.8061 N   0  0  0  0  0  0
   -2.6709   -0.4920   31.6883 C   0  0  0  0  0  0
   -3.6123   -0.0574   30.7090 C   0  0  0  0  0  0
   -4.2981    1.1483   30.9025 N   0  0  0  0  0  0
   -5.3455    1.6519   30.0371 C   0  0  0  0  0  0
   -5.5642    3.1383   30.2349 C   0  0  0  0  0  0
   -6.7513    3.7117   30.2501 N   0  0  0  0  0  0
   -6.5970    5.0715   30.4492 N   0  0  0  0  0  0
   -5.2656    5.2905   30.5406 C   0  0  0  0  0  0
   -4.4940    6.4524   30.6193 C   0  0  0  0  0  0
   -3.1076    6.3318   30.6665 C   0  0  0  0  0  0
   -2.5061    5.0667   30.6497 C   0  0  0  0  0  0
   -3.2425    3.9174   30.6063 N   0  0  0  0  0  0
   -4.5791    4.0780   30.4988 N   0  0  0  0  0  0
   -1.0143    4.9075   30.6337 C   0  0  0  0  0  0
   -0.1834    5.9576   30.2082 C   0  0  0  0  0  0
    1.1988    5.8153   30.1894 C   0  0  0  0  0  0
    1.7783    4.6194   30.5939 C   0  0  0  0  0  0
    0.9801    3.5573   31.0022 C   0  0  0  0  0  0
   -0.4057    3.6985   31.0106 C   0  0  0  0  0  0
   -3.7952   -0.8431   29.5656 C   0  0  0  0  0  0
   -3.0498   -2.0061   29.4072 C   0  0  0  0  0  0
   -2.1471   -2.4430   30.3157 N   0  0  0  0  0  0
   -1.9774   -1.7193   31.4515 C   0  0  0  0  0  0
   -1.0815   -2.1849   32.4414 C   0  0  0  0  0  0
    0.5931   -2.4430   34.2203 H   0  0  0  0  0  0
   -1.4198    0.3568   34.6177 H   0  0  0  0  0  0
   -4.1778    1.6027   31.7971 H   0  0  0  0  0  0
   -5.0463    1.5042   28.9993 H   0  0  0  0  0  0
   -6.2599    1.0755   30.1912 H   0  0  0  0  0  0
   -4.9732    7.4199   30.6068 H   0  0  0  0  0  0
   -2.5138    7.2313   30.7168 H   0  0  0  0  0  0
   -0.5947    6.8968   29.8738 H   0  0  0  0  0  0
    1.8176    6.6326   29.8556 H   0  0  0  0  0  0
    2.8532    4.5114   30.5810 H   0  0  0  0  0  0
    1.4333    2.6236   31.3044 H   0  0  0  0  0  0
   -1.0058    2.8576   31.3330 H   0  0  0  0  0  0
   -4.4917   -0.5665   28.7899 H   0  0  0  0  0  0
   -3.1712   -2.6184   28.5238 H   0  0  0  0  0  0
   -0.5704   -3.1235   32.2900 H   0  0  0  0  0  0
  1  2  1  0  0  0
  1 29  1  0  0  0
  2  3  2  0  0  0
  2 28  1  0  0  0
  3  4  1  0  0  0
  3 30  1  0  0  0
  4  5  2  0  0  0
  5  6  1  0  0  0
  5 27  1  0  0  0
  6  7  1  0  0  0
  6 24  2  0  0  0
  7  8  1  0  0  0
  7 31  1  0  0  0
  8  9  1  0  0  0
  8 32  1  0  0  0
  8 33  1  0  0  0
  9 10  2  0  0  0
  9 17  1  0  0  0
 10 11  1  0  0  0
 11 12  2  0  0  0
 12 13  1  0  0  0
 12 17  1  0  0  0
 13 14  2  0  0  0
 13 34  1  0  0  0
 14 15  1  0  0  0
 14 35  1  0  0  0
 15 16  2  0  0  0
 15 18  1  0  0  0
 16 17  1  0  0  0
 18 19  2  0  0  0
 18 23  1  0  0  0
 19 20  1  0  0  0
 19 36  1  0  0  0
 20 21  2  0  0  0
 20 37  1  0  0  0
 21 22  1  0  0  0
 21 38  1  0  0  0
 22 23  2  0  0  0
 22 39  1  0  0  0
 23 40  1  0  0  0
 24 25  1  0  0  0
 24 41  1  0  0  0
 25 26  2  0  0  0
 25 42  1  0  0  0
 26 27  1  0  0  0
 27 28  2  0  0  0
 28 43  1  0  0  0
M  END
> <s_m_entry_id>
10091

> <s_m_entry_name>
dock_pv.160

> <s_m_Source_Path>
/home/csk/Desktop/cluster/DUD-E-result/met

> <s_m_Source_File>
dock_pv.maegz

> <i_m_Source_File_Index>
160

> <chembl_id>
CHEMBL3663585

> <chembl_pref_name>
None

> <i_lp_mmshare_version>
53161

> <i_f3d_flags>
0

> <r_lp_tautomer_probability>
1

> <s_lp_Force_Field>
OPLS_2005

> <r_lp_Energy>
34.30411

> <b_lp_Chiralities_Consistent>
1

> <s_lp_Variant>
CHEMBL3717_lig4295-1

> <s_i_glide_gridfile>
glide-grid_3lq8

> <i_i_glide_lignum>
5517

> <i_i_glide_rotatable_bonds>
5

> <r_i_docking_score>
-8.1897570346108

> <r_i_glide_ligand_efficiency>
-0.292491322664672

> <r_i_glide_ligand_efficiency_sa>
-0.88817592378634

> <r_i_glide_ligand_efficiency_ln>
-1.89043638530342

> <r_i_glide_gscore>
-8.1897570346108

> <r_i_glide_lipo>
-3.48153858048888

> <r_i_glide_hbond>
-0.299213832759185

> <r_i_glide_metal>
0

> <r_i_glide_rewards>
-2.43324002191604

> <r_i_glide_evdw>
-42.6217765808105

> <r_i_glide_ecoul>
-2.732741355896

> <r_i_glide_erotb>
0.56523543297823

> <r_i_glide_esite>
0

> <r_i_glide_emodel>
-62.9293164028651

> <r_i_glide_energy>
-45.3545179367065

> <r_i_glide_einternal>
3.71333575248718

> <i_i_glide_confnum>
71

> <i_i_glide_posenum>
42

> <r_i_glide_eff_state_penalty>
0

> <s_user_duplicate_titles>
CHEMBL3717_lig4295

> <s_m_subgroup_title>
dock_pv

> <s_m_subgroupid>
dock_pv

> <b_m_subgroup_collapsed>
1

$$$$
CHEMBL3717_lig3565
                    3D
 Schrodinger Suite 2021-1.
 49 52  0  0  1  0            999 V2000
   -0.6582   -0.8396   33.4066 Cl  0  0  0  0  0  0
   -4.7685    3.0602   30.6080 O   0  0  0  0  0  0
    4.0858    3.8740   30.2718 N   0  0  0  0  0  0
    4.1872    3.4466   29.0019 N   0  0  0  0  0  0
   -3.2076    6.3551   30.6081 N   0  0  0  0  0  0
   -6.1051    0.0587   29.0071 N   0  0  0  0  0  0
    2.0163    3.7096   29.5016 C   0  0  0  0  0  0
    2.7710    4.0640   30.6376 C   0  0  0  0  0  0
    0.0149    4.4013   30.6426 C   0  0  0  0  0  0
    0.6255    3.8381   29.5240 C   0  0  0  0  0  0
    2.9706    3.2802   28.5469 C   0  0  0  0  0  0
   -1.4368    4.6927   30.6288 C   0  0  0  0  0  0
    2.1690    4.5159   31.8090 C   0  0  0  0  0  0
    0.7915    4.7272   31.7555 C   0  0  0  0  0  0
   -2.3973    3.6739   30.6087 C   0  0  0  0  0  0
   -3.7627    3.9978   30.5834 C   0  0  0  0  0  0
   -1.8949    6.0144   30.6083 C   0  0  0  0  0  0
   -4.1155    5.3484   30.6003 C   0  0  0  0  0  0
    2.6685    2.7674   27.1676 C   0  0  0  0  0  0
   -4.6815    1.9571   29.7117 C   0  0  0  0  0  0
   -5.7558    0.9235   30.1207 C   0  0  2  0  0  0
   -4.0821   -0.6999   31.3145 C   0  0  0  0  0  0
   -5.3949    0.0855   31.3738 C   0  0  0  0  0  0
   -3.0629   -0.4203   32.2316 C   0  0  0  0  0  0
   -1.8839   -1.1657   32.2355 C   0  0  0  0  0  0
   -3.8919   -1.7291   30.3846 C   0  0  0  0  0  0
   -1.6938   -2.1684   31.2880 C   0  0  0  0  0  0
   -2.6945   -2.4429   30.3574 C   0  0  0  0  0  0
    4.9168    4.0639   30.8113 H   0  0  0  0  0  0
   -6.4476    0.5904   28.2208 H   0  0  0  0  0  0
   -5.2937   -0.4439   28.6661 H   0  0  0  0  0  0
    0.0466    3.5565   28.6582 H   0  0  0  0  0  0
    2.7403    4.7571   32.6903 H   0  0  0  0  0  0
    0.3060    5.1575   32.6087 H   0  0  0  0  0  0
   -2.0776    2.6434   30.6347 H   0  0  0  0  0  0
   -1.1939    6.8368   30.6054 H   0  0  0  0  0  0
   -5.1554    5.6423   30.5963 H   0  0  0  0  0  0
    1.9450    1.9571   27.1955 H   0  0  0  0  0  0
    2.1944    3.5686   26.6079 H   0  0  0  0  0  0
    3.5340    2.4084   26.6135 H   0  0  0  0  0  0
   -3.6964    1.4905   29.6869 H   0  0  0  0  0  0
   -4.8672    2.3282   28.7034 H   0  0  0  0  0  0
   -6.6693    1.4750   30.3532 H   0  0  0  0  0  0
   -6.1991   -0.6183   31.5940 H   0  0  0  0  0  0
   -5.3680    0.7540   32.2352 H   0  0  0  0  0  0
   -3.1945    0.3569   32.9686 H   0  0  0  0  0  0
   -4.6685   -1.9989   29.6855 H   0  0  0  0  0  0
   -0.7783   -2.7415   31.2808 H   0  0  0  0  0  0
   -2.5590   -3.2418   29.6405 H   0  0  0  0  0  0
  1 25  1  0  0  0
  2 16  1  0  0  0
  2 20  1  0  0  0
  3  4  1  0  0  0
  3  8  1  0  0  0
  3 29  1  0  0  0
  4 11  2  0  0  0
  5 17  1  0  0  0
  5 18  2  0  0  0
  6 21  1  0  0  0
  6 30  1  0  0  0
  6 31  1  0  0  0
  7  8  1  0  0  0
  7 10  2  0  0  0
  7 11  1  0  0  0
  8 13  2  0  0  0
  9 10  1  0  0  0
  9 12  1  0  0  0
  9 14  2  0  0  0
 10 32  1  0  0  0
 11 19  1  0  0  0
 12 15  1  0  0  0
 12 17  2  0  0  0
 13 14  1  0  0  0
 13 33  1  0  0  0
 14 34  1  0  0  0
 15 16  2  0  0  0
 15 35  1  0  0  0
 16 18  1  0  0  0
 17 36  1  0  0  0
 18 37  1  0  0  0
 19 38  1  0  0  0
 19 39  1  0  0  0
 19 40  1  0  0  0
 20 21  1  0  0  0
 20 41  1  0  0  0
 20 42  1  0  0  0
 21 23  1  0  0  0
 21 43  1  0  0  0
 22 23  1  0  0  0
 22 24  1  0  0  0
 22 26  2  0  0  0
 23 44  1  0  0  0
 23 45  1  0  0  0
 24 25  2  0  0  0
 24 46  1  0  0  0
 25 27  1  0  0  0
 26 28  1  0  0  0
 26 47  1  0  0  0
 27 28  2  0  0  0
 27 48  1  0  0  0
 28 49  1  0  0  0
M  END
> <s_m_entry_id>
10092

> <s_m_entry_name>
dock_pv.161

> <s_m_Source_Path>
/home/csk/Desktop/cluster/DUD-E-result/met

> <s_m_Source_File>
dock_pv.maegz

> <i_m_Source_File_Index>
161

> <chembl_id>
CHEMBL1974870

> <chembl_pref_name>
None

> <i_lp_mmshare_version>
53161

> <i_f3d_flags>
0

> <r_lp_tautomer_probability>
0.980392156862745

> <s_lp_Force_Field>
OPLS_2005

> <r_lp_Energy>
24.572435

> <b_lp_Chiralities_Consistent>
1

> <s_lp_Variant>
CHEMBL3717_lig3565-1

> <s_i_glide_gridfile>
glide-grid_3lq8

> <i_i_glide_lignum>
4415

> <i_i_glide_rotatable_bonds>
6

> <r_i_docking_score>
-8.18964116837688

> <r_i_glide_ligand_efficiency>
-0.292487184584889

> <r_i_glide_ligand_efficiency_sa>
-0.88816335813892

> <r_i_glide_ligand_efficiency_ln>
-1.89040963997465

> <r_i_glide_gscore>
-8.18964116837688

> <r_i_glide_lipo>
-4.62137799201174

> <r_i_glide_hbond>
-0.0106170635586069

> <r_i_glide_metal>
0

> <r_i_glide_rewards>
-1.73305080493557

> <r_i_glide_evdw>
-46.4586372375488

> <r_i_glide_ecoul>
-0.89512574672699

> <r_i_glide_erotb>
0.632605416015526

> <r_i_glide_esite>
0

> <r_i_glide_emodel>
-60.4285053709649

> <r_i_glide_energy>
-47.3537629842758

> <r_i_glide_einternal>
9.08165550231934

> <i_i_glide_confnum>
16

> <i_i_glide_posenum>
146

> <r_i_glide_eff_state_penalty>
0

> <s_user_duplicate_titles>
CHEMBL3717_lig3565,CHEMBL3717_lig3565

> <s_m_subgroup_title>
dock_pv

> <s_m_subgroupid>
dock_pv

> <b_m_subgroup_collapsed>
1

$$$$
CHEMBL3717_lig3313 
                    3D
 Schrodinger Suite 2021-1.
 41 44  0  0  1  0            999 V2000
   -0.2808    4.5905   30.6679 C   0  0  0  0  0  0
   -1.1795    3.5250   30.7152 C   0  0  0  0  0  0
   -2.5300    3.6318   30.6897 N   0  0  0  0  0  0
   -0.8259    5.8745   30.6081 C   0  0  0  0  0  0
   -2.1929    5.9924   30.6082 N   0  0  0  0  0  0
   -3.0345    4.8672   30.6359 C   0  0  0  0  0  0
   -4.3557    5.3747   30.6098 C   0  0  0  0  0  0
   -4.1494    6.7568   30.6081 C   0  0  0  0  0  0
   -2.8940    7.1414   30.6045 N   0  0  0  0  0  0
   -5.6314    4.6668   30.6071 C   0  0  0  0  0  0
   -6.8692    5.2959   30.6075 C   0  0  0  0  0  0
   -8.2040    4.2024   30.6582 S   0  0  0  0  0  0
   -7.1169    2.8443   30.6344 C   0  0  0  0  0  0
   -5.7852    3.2725   30.6076 C   0  0  0  0  0  0
   -7.6347    1.5024   30.7329 C   0  0  0  0  0  0
   -8.7647    1.2676   31.1623 O   0  0  0  0  0  0
   -6.8081    0.5527   30.2578 N   0  0  0  0  0  0
   -7.1332   -0.8769   30.1797 C   0  0  0  0  0  0
   -8.1300   -1.2595   29.0633 C   0  0  0  0  0  0
   -9.3408   -0.7316   29.2534 F   0  0  0  0  0  0
   -8.2828   -2.5817   29.0090 F   0  0  0  0  0  0
   -7.7035   -0.8422   27.8710 F   0  0  0  0  0  0
    1.1815    4.3179   30.6563 C   0  0  0  0  0  0
    1.8854    3.2457   31.2352 C   0  0  0  0  0  0
    3.1754    3.2689   31.0040 N   0  0  0  0  0  0
    3.3524    4.3615   30.2588 N   0  0  0  0  0  0
    2.1836    5.0480   30.0452 C   0  0  0  0  0  0
    4.6900    4.7001   29.8008 C   0  0  0  0  0  0
   -0.8266    2.5159   30.7482 H   0  0  0  0  0  0
   -0.2443    6.7858   30.5782 H   0  0  0  0  0  0
   -4.9374    7.4925   30.6070 H   0  0  0  0  0  0
   -7.0578    6.3574   30.5808 H   0  0  0  0  0  0
   -4.9454    2.5940   30.6142 H   0  0  0  0  0  0
   -5.9013    0.8323   29.9176 H   0  0  0  0  0  0
   -7.5093   -1.2209   31.1452 H   0  0  0  0  0  0
   -6.2006   -1.4204   30.0187 H   0  0  0  0  0  0
    1.4542    2.4379   31.8073 H   0  0  0  0  0  0
    2.1584    5.9562   29.4624 H   0  0  0  0  0  0
    4.6545    5.5614   29.1335 H   0  0  0  0  0  0
    5.3236    4.9367   30.6576 H   0  0  0  0  0  0
    5.1110    3.8529   29.2565 H   0  0  0  0  0  0
  1  2  1  0  0  0
  1  4  2  0  0  0
  1 23  1  0  0  0
  2  3  2  0  0  0
  2 29  1  0  0  0
  3  6  1  0  0  0
  4  5  1  0  0  0
  4 30  1  0  0  0
  5  6  1  0  0  0
  5  9  1  0  0  0
  6  7  2  0  0  0
  7  8  1  0  0  0
  7 10  1  0  0  0
  8  9  2  0  0  0
  8 31  1  0  0  0
 10 11  2  0  0  0
 10 14  1  0  0  0
 11 12  1  0  0  0
 11 32  1  0  0  0
 12 13  1  0  0  0
 13 14  2  0  0  0
 13 15  1  0  0  0
 14 33  1  0  0  0
 15 16  2  0  0  0
 15 17  1  0  0  0
 17 18  1  0  0  0
 17 34  1  0  0  0
 18 19  1  0  0  0
 18 35  1  0  0  0
 18 36  1  0  0  0
 19 20  1  0  0  0
 19 21  1  0  0  0
 19 22  1  0  0  0
 23 24  1  0  0  0
 23 27  2  0  0  0
 24 25  2  0  0  0
 24 37  1  0  0  0
 25 26  1  0  0  0
 26 27  1  0  0  0
 26 28  1  0  0  0
 27 38  1  0  0  0
 28 39  1  0  0  0
 28 40  1  0  0  0
 28 41  1  0  0  0
M  END
> <s_m_entry_id>
10093

> <s_m_entry_name>
dock_pv.162

> <s_m_Source_Path>
/home/csk/Desktop/cluster/DUD-E-result/met

> <s_m_Source_File>
dock_pv.maegz

> <i_m_Source_File_Index>
162

> <chembl_id>
CHEMBL4550702

> <chembl_pref_name>
None

> <i_lp_mmshare_version>
53161

> <i_f3d_flags>
0

> <r_lp_tautomer_probability>
1

> <s_lp_Force_Field>
OPLS_2005

> <r_lp_Energy>
13.386964

> <b_lp_Chiralities_Consistent>
1

> <s_lp_Variant>
CHEMBL3717_lig3313 -1

> <s_i_glide_gridfile>
glide-grid_3lq8

> <i_i_glide_lignum>
4036

> <i_i_glide_rotatable_bonds>
6

> <r_i_docking_score>
-8.1878705126839

> <r_i_glide_ligand_efficiency>
-0.292423946881568

> <r_i_glide_ligand_efficiency_sa>
-0.887971331226623

> <r_i_glide_ligand_efficiency_ln>
-1.890000920652

> <r_i_glide_gscore>
-8.1878705126839

> <r_i_glide_lipo>
-3.01891977996439

> <r_i_glide_hbond>
-0.32

> <r_i_glide_metal>
0

> <r_i_glide_rewards>
-3.18734132088741

> <r_i_glide_evdw>
-38.900806427002

> <r_i_glide_ecoul>
-2.07894372940063

> <r_i_glide_erotb>
0.595272468928082

> <r_i_glide_esite>
0

> <r_i_glide_emodel>
-60.1513548637218

> <r_i_glide_energy>
-40.9797501564026

> <r_i_glide_einternal>
2.75560021400452

> <i_i_glide_confnum>
1

> <i_i_glide_posenum>
53

> <r_i_glide_eff_state_penalty>
0

> <s_user_duplicate_titles>
CHEMBL3717_lig3313 

> <s_m_subgroup_title>
dock_pv

> <s_m_subgroupid>
dock_pv

> <b_m_subgroup_collapsed>
1

$$$$
CHEMBL3717_lig4256
                    3D
 Schrodinger Suite 2021-1.
 49 51  0  0  1  0            999 V2000
   -3.2936    7.5295   30.6080 O   0  0  0  0  0  0
   -1.6592    3.0851   31.0544 N   0  0  0  0  0  0
   -3.7753    4.7988   30.4531 N   0  0  0  0  0  0
   -0.1340    4.8784   31.1367 N   0  0  0  0  0  0
   -3.0871    1.2345   31.1600 N   0  0  0  0  0  0
   -1.2417    7.1976   29.8080 N   0  0  0  0  0  0
   -3.6940   -0.6665   29.0080 N   0  0  0  0  0  0
   -1.4432    4.4182   30.9241 C   0  0  0  0  0  0
   -2.5132    5.2827   30.6080 C   0  0  0  0  0  0
   -2.9203    2.6058   30.9261 C   0  0  0  0  0  0
   -3.9728    3.4698   30.6080 C   0  0  0  0  0  0
   -2.3791    6.7570   30.3462 C   0  0  0  0  0  0
    1.0655    4.3342   30.6617 C   0  0  0  0  0  0
   -4.3843    0.5610   31.0863 C   0  0  1  0  0  0
   -4.7181    0.1615   29.6237 C   0  0  2  0  0  0
    1.1669    3.8527   29.3534 C   0  0  0  0  0  0
    2.2081    4.3851   31.4603 C   0  0  0  0  0  0
   -4.3737   -0.6633   32.0265 C   0  0  0  0  0  0
    2.3962    3.4442   28.8357 C   0  0  0  0  0  0
   -6.0993   -0.5332   29.6144 C   0  0  0  0  0  0
    3.4433    3.9921   30.9426 C   0  0  0  0  0  0
   -5.7238   -1.4086   31.9899 C   0  0  0  0  0  0
    3.5414    3.5316   29.6299 C   0  0  0  0  0  0
   -6.1541   -1.7636   30.5500 C   0  0  0  0  0  0
    2.4751    2.9458   27.4076 C   0  0  0  0  0  0
   -0.0855    5.8778   31.2682 H   0  0  0  0  0  0
   -2.2702    0.6520   31.0507 H   0  0  0  0  0  0
   -0.5360    6.5464   29.4991 H   0  0  0  0  0  0
   -1.1197    8.1882   29.6410 H   0  0  0  0  0  0
   -3.6795   -1.5674   29.4647 H   0  0  0  0  0  0
   -3.9846   -0.8538   28.0420 H   0  0  0  0  0  0
   -4.9905    3.1344   30.4888 H   0  0  0  0  0  0
   -5.1556    1.2458   31.4381 H   0  0  0  0  0  0
   -4.7958    1.0827   29.0439 H   0  0  0  0  0  0
    0.3023    3.8142   28.7143 H   0  0  0  0  0  0
    2.1482    4.7578   32.4725 H   0  0  0  0  0  0
   -3.5679   -1.3485   31.7539 H   0  0  0  0  0  0
   -4.1685   -0.3383   33.0439 H   0  0  0  0  0  0
   -6.8708    0.1817   29.9081 H   0  0  0  0  0  0
   -6.3550   -0.8377   28.5977 H   0  0  0  0  0  0
    4.3286    4.0702   31.5508 H   0  0  0  0  0  0
   -6.4911   -0.7856   32.4534 H   0  0  0  0  0  0
   -5.6654   -2.3148   32.5953 H   0  0  0  0  0  0
    4.5029    3.2338   29.2362 H   0  0  0  0  0  0
   -7.1627   -2.1801   30.5576 H   0  0  0  0  0  0
   -5.5074   -2.5514   30.1600 H   0  0  0  0  0  0
    3.5012    2.9017   27.0417 H   0  0  0  0  0  0
    1.9083    3.6068   26.7502 H   0  0  0  0  0  0
    2.0281    1.9570   27.3264 H   0  0  0  0  0  0
  1 12  2  0  0  0
  2  8  2  0  0  0
  2 10  1  0  0  0
  3  9  2  0  0  0
  3 11  1  0  0  0
  4  8  1  0  0  0
  4 13  1  0  0  0
  4 26  1  0  0  0
  5 10  1  0  0  0
  5 14  1  0  0  0
  5 27  1  0  0  0
  6 12  1  0  0  0
  6 28  1  0  0  0
  6 29  1  0  0  0
  7 15  1  0  0  0
  7 30  1  0  0  0
  7 31  1  0  0  0
  8  9  1  0  0  0
  9 12  1  0  0  0
 10 11  2  0  0  0
 11 32  1  0  0  0
 13 16  2  0  0  0
 13 17  1  0  0  0
 14 15  1  0  0  0
 14 18  1  0  0  0
 14 33  1  0  0  0
 15 20  1  0  0  0
 15 34  1  0  0  0
 16 19  1  0  0  0
 16 35  1  0  0  0
 17 21  2  0  0  0
 17 36  1  0  0  0
 18 22  1  0  0  0
 18 37  1  0  0  0
 18 38  1  0  0  0
 19 23  2  0  0  0
 19 25  1  0  0  0
 20 24  1  0  0  0
 20 39  1  0  0  0
 20 40  1  0  0  0
 21 23  1  0  0  0
 21 41  1  0  0  0
 22 24  1  0  0  0
 22 42  1  0  0  0
 22 43  1  0  0  0
 23 44  1  0  0  0
 24 45  1  0  0  0
 24 46  1  0  0  0
 25 47  1  0  0  0
 25 48  1  0  0  0
 25 49  1  0  0  0
M  END
> <s_m_entry_id>
10094

> <s_m_entry_name>
dock_pv.163

> <s_m_Source_Path>
/home/csk/Desktop/cluster/DUD-E-result/met

> <s_m_Source_File>
dock_pv.maegz

> <i_m_Source_File_Index>
163

> <chembl_id>
CHEMBL1974328

> <chembl_pref_name>
None

> <i_lp_mmshare_version>
53161

> <i_f3d_flags>
0

> <r_lp_tautomer_probability>
1

> <s_lp_Force_Field>
OPLS_2005

> <r_lp_Energy>
40.442015

> <b_lp_Chiralities_Consistent>
1

> <s_lp_Variant>
CHEMBL3717_lig4256-2

> <s_i_glide_gridfile>
glide-grid_3lq8

> <i_i_glide_lignum>
5467

> <i_i_glide_rotatable_bonds>
5

> <r_i_docking_score>
-8.18276532473049

> <r_i_glide_ligand_efficiency>
-0.32731061298922

> <r_i_glide_ligand_efficiency_sa>
-0.957062037258917

> <r_i_glide_ligand_efficiency_ln>
-1.93956059965006

> <r_i_glide_gscore>
-8.18276532473049

> <r_i_glide_lipo>
-3.41091207880651

> <r_i_glide_hbond>
-0.563816424917335

> <r_i_glide_metal>
0

> <r_i_glide_rewards>
-1.77166240922283

> <r_i_glide_evdw>
-35.5513801574707

> <r_i_glide_ecoul>
-8.74962711334229

> <r_i_glide_erotb>
0.653638663091057

> <r_i_glide_esite>
0

> <r_i_glide_emodel>
-60.8331810783761

> <r_i_glide_energy>
-44.301007270813

> <r_i_glide_einternal>
11.0318250656128

> <i_i_glide_confnum>
1

> <i_i_glide_posenum>
268

> <r_i_glide_eff_state_penalty>
0

> <s_user_duplicate_titles>
CHEMBL3717_lig4256

> <s_m_subgroup_title>
dock_pv

> <s_m_subgroupid>
dock_pv

> <b_m_subgroup_collapsed>
1

$$$$
CHEMBL3717_lig315
                    3D
 Schrodinger Suite 2021-1.
 37 40  0  0  1  0            999 V2000
    0.5868    5.1836   30.2284 C   0  0  0  0  0  0
    0.4719    6.5678   30.0822 C   0  0  0  0  0  0
   -0.7787    7.1776   30.2064 C   0  0  0  0  0  0
   -1.6444    4.9805   30.6080 N   0  0  0  0  0  0
   -1.8858    6.3563   30.4688 C   0  0  0  0  0  0
   -3.2073    6.5999   30.6080 N   0  0  0  0  0  0
   -3.8105    5.3604   30.7512 N   0  0  0  0  0  0
   -2.8937    4.4087   30.7146 C   0  0  0  0  0  0
   -3.0940    2.8921   30.7899 C   0  0  0  0  0  0
   -4.4172    2.3005   30.2826 C   0  0  0  0  0  0
   -5.6571    2.8874   30.5705 C   0  0  0  0  0  0
   -6.8373    2.2943   30.1294 C   0  0  0  0  0  0
   -6.7857    1.1044   29.4092 C   0  0  0  0  0  0
   -5.5641    0.4964   29.1412 C   0  0  0  0  0  0
   -4.3848    1.0938   29.5741 C   0  0  0  0  0  0
   -7.9432    0.5260   28.9664 O   0  0  0  0  0  0
    1.8768    4.5185   29.9397 C   0  0  0  0  0  0
    2.0243    3.5569   28.5054 S   0  0  0  0  0  0
    3.7101    3.3395   28.8079 C   0  0  0  0  0  0
    4.1486    3.9235   29.9877 C   0  0  0  0  0  0
    3.0915    4.6036   30.6079 C   0  0  0  0  0  0
    5.5802    3.9169   30.4675 C   0  0  0  0  0  0
   -0.4530    4.3588   30.5193 N   0  0  0  0  0  0
    1.3410    7.1582   29.8326 H   0  0  0  0  0  0
   -0.8937    8.2452   30.0800 H   0  0  0  0  0  0
   -2.9132    2.5391   31.8052 H   0  0  0  0  0  0
   -2.2978    2.4191   30.2134 H   0  0  0  0  0  0
   -5.7281    3.7978   31.1438 H   0  0  0  0  0  0
   -7.7899    2.7551   30.3458 H   0  0  0  0  0  0
   -5.5189   -0.4417   28.6081 H   0  0  0  0  0  0
   -3.4485    0.5979   29.3649 H   0  0  0  0  0  0
   -7.7823   -0.2874   28.4834 H   0  0  0  0  0  0
    4.3054    2.7687   28.1118 H   0  0  0  0  0  0
    3.2116    5.1570   31.5240 H   0  0  0  0  0  0
    5.8059    4.7597   31.1208 H   0  0  0  0  0  0
    5.8221    2.9950   30.9924 H   0  0  0  0  0  0
    6.2761    3.9902   29.6305 H   0  0  0  0  0  0
  1  2  1  0  0  0
  1 23  2  0  0  0
  1 17  1  0  0  0
  2  3  2  0  0  0
  2 24  1  0  0  0
  3  5  1  0  0  0
  3 25  1  0  0  0
  4 23  1  0  0  0
  4  8  1  0  0  0
  4  5  1  0  0  0
  5  6  2  0  0  0
  6  7  1  0  0  0
  7  8  2  0  0  0
  8  9  1  0  0  0
  9 10  1  0  0  0
  9 26  1  0  0  0
  9 27  1  0  0  0
 10 11  2  0  0  0
 10 15  1  0  0  0
 11 12  1  0  0  0
 11 28  1  0  0  0
 12 13  2  0  0  0
 12 29  1  0  0  0
 13 14  1  0  0  0
 13 16  1  0  0  0
 14 15  2  0  0  0
 14 30  1  0  0  0
 15 31  1  0  0  0
 16 32  1  0  0  0
 17 18  1  0  0  0
 17 21  2  0  0  0
 18 19  1  0  0  0
 19 20  2  0  0  0
 19 33  1  0  0  0
 20 21  1  0  0  0
 20 22  1  0  0  0
 21 34  1  0  0  0
 22 35  1  0  0  0
 22 36  1  0  0  0
 22 37  1  0  0  0
M  END
> <s_m_entry_id>
10095

> <s_m_entry_name>
dock_pv.164

> <s_m_Source_Path>
/home/csk/Desktop/cluster/DUD-E-result/met

> <s_m_Source_File>
dock_pv.maegz

> <i_m_Source_File_Index>
164

> <chembl_id>
CHEMBL497118

> <chembl_pref_name>
None

> <i_lp_mmshare_version>
53161

> <i_f3d_flags>
0

> <r_lp_tautomer_probability>
0.999999999997365

> <s_lp_Force_Field>
OPLS_2005

> <r_lp_Energy>
11.586941

> <b_lp_Chiralities_Consistent>
1

> <s_lp_Variant>
CHEMBL3717_lig315-1

> <s_i_glide_gridfile>
glide-grid_3lq8

> <i_i_glide_lignum>
331

> <i_i_glide_rotatable_bonds>
4

> <r_i_docking_score>
-8.18250877091056

> <r_i_glide_ligand_efficiency>
-0.355761250909155

> <r_i_glide_ligand_efficiency_sa>
-1.0117376731138

> <r_i_glide_ligand_efficiency_ln>
-1.97860481569363

> <r_i_glide_gscore>
-8.18250877091056

> <r_i_glide_lipo>
-3.33619153698843

> <r_i_glide_hbond>
0

> <r_i_glide_metal>
0

> <r_i_glide_rewards>
-3.03454415030641

> <r_i_glide_evdw>
-40.6412658691406

> <r_i_glide_ecoul>
-2.12982106208801

> <r_i_glide_erotb>
0.539763369154504

> <r_i_glide_esite>
0

> <r_i_glide_emodel>
-57.9280612872485

> <r_i_glide_energy>
-42.7710869312286

> <r_i_glide_einternal>
5.9670524597168

> <i_i_glide_confnum>
2

> <i_i_glide_posenum>
63

> <r_i_glide_eff_state_penalty>
0

> <s_user_duplicate_titles>
CHEMBL3717_lig315,486796

> <s_m_subgroup_title>
dock_pv

> <s_m_subgroupid>
dock_pv

> <b_m_subgroup_collapsed>
1

$$$$
CHEMBL3717_lig3680
                    3D
 Schrodinger Suite 2021-1.
 43 46  0  0  1  0            999 V2000
   -6.4645    5.5673   30.6161 O   0  0  0  0  0  0
    3.0572    2.7737   29.3445 O   0  0  0  0  0  0
   -6.9589    3.3270   30.2562 N   0  0  0  0  0  0
   -2.3979    3.6696   31.0078 N   0  0  0  0  0  0
    1.6494    5.1139   30.1223 N   0  0  0  0  0  0
   -2.9591   -2.0621   29.7345 N   0  0  0  0  0  0
   -4.7377    3.7540   30.4479 C   0  0  0  0  0  0
   -4.9429    2.3360   30.2257 C   0  0  0  0  0  0
   -6.3485    2.1022   30.1101 C   0  0  0  0  0  0
   -6.0125    4.2917   30.4541 C   0  0  0  0  0  0
   -3.4229    4.4610   30.6045 C   0  0  0  0  0  0
   -4.0837    1.2296   30.1165 C   0  0  0  0  0  0
   -6.8860    0.8315   29.8853 C   0  0  0  0  0  0
   -4.6086   -0.0427   29.9011 C   0  0  0  0  0  0
   -3.2182    5.7978   30.2434 C   0  0  0  0  0  0
   -5.9851   -0.2299   29.7827 C   0  0  0  0  0  0
   -0.8407    5.4815   30.6214 C   0  0  0  0  0  0
   -1.1442    4.1722   31.0080 C   0  0  0  0  0  0
   -1.9138    6.3106   30.2580 C   0  0  0  0  0  0
    0.5955    6.0207   30.6068 C   0  0  0  0  0  0
   -3.6936   -1.1727   29.8081 C   0  0  0  0  0  0
    1.3747    4.4539   28.8393 C   0  0  0  0  0  0
    2.3013    4.2602   31.1252 C   0  0  0  0  0  0
    2.5909    3.6540   28.3281 C   0  0  0  0  0  0
    3.4799    3.4723   30.5128 C   0  0  0  0  0  0
   -6.3230    6.1005   29.8215 H   0  0  0  0  0  0
   -7.9428    3.5425   30.2317 H   0  0  0  0  0  0
   -3.0169    1.3602   30.2087 H   0  0  0  0  0  0
   -7.9504    0.6675   29.7939 H   0  0  0  0  0  0
   -4.0407    6.4120   29.9137 H   0  0  0  0  0  0
   -6.3753   -1.2242   29.6058 H   0  0  0  0  0  0
   -0.3879    3.4720   31.3099 H   0  0  0  0  0  0
   -1.7368    7.3366   29.9614 H   0  0  0  0  0  0
    0.6199    6.9011   29.9623 H   0  0  0  0  0  0
    0.8503    6.3572   31.6118 H   0  0  0  0  0  0
    0.5091    3.7973   28.9193 H   0  0  0  0  0  0
    1.1070    5.2202   28.1115 H   0  0  0  0  0  0
    2.6698    4.8831   31.9370 H   0  0  0  0  0  0
    1.6043    3.5678   31.5886 H   0  0  0  0  0  0
    3.3895    4.3244   28.0042 H   0  0  0  0  0  0
    2.3085    3.0646   27.4563 H   0  0  0  0  0  0
    4.3164    4.1353   30.2797 H   0  0  0  0  0  0
    3.8557    2.7437   31.2321 H   0  0  0  0  0  0
  1 10  1  0  0  0
  1 26  1  0  0  0
  2 24  1  0  0  0
  2 25  1  0  0  0
  3  9  1  0  0  0
  3 10  1  0  0  0
  3 27  1  0  0  0
  4 11  1  0  0  0
  4 18  2  0  0  0
  5 20  1  0  0  0
  5 22  1  0  0  0
  5 23  1  0  0  0
  6 21  3  0  0  0
  7  8  1  0  0  0
  7 10  2  0  0  0
  7 11  1  0  0  0
  8  9  1  0  0  0
  8 12  2  0  0  0
  9 13  2  0  0  0
 11 15  2  0  0  0
 12 14  1  0  0  0
 12 28  1  0  0  0
 13 16  1  0  0  0
 13 29  1  0  0  0
 14 16  2  0  0  0
 14 21  1  0  0  0
 15 19  1  0  0  0
 15 30  1  0  0  0
 16 31  1  0  0  0
 17 18  1  0  0  0
 17 19  2  0  0  0
 17 20  1  0  0  0
 18 32  1  0  0  0
 19 33  1  0  0  0
 20 34  1  0  0  0
 20 35  1  0  0  0
 22 24  1  0  0  0
 22 36  1  0  0  0
 22 37  1  0  0  0
 23 25  1  0  0  0
 23 38  1  0  0  0
 23 39  1  0  0  0
 24 40  1  0  0  0
 24 41  1  0  0  0
 25 42  1  0  0  0
 25 43  1  0  0  0
M  END
> <s_m_entry_id>
10096

> <s_m_entry_name>
dock_pv.165

> <s_m_Source_Path>
/home/csk/Desktop/cluster/DUD-E-result/met

> <s_m_Source_File>
dock_pv.maegz

> <i_m_Source_File_Index>
165

> <chembl_id>
CHEMBL1969664

> <chembl_pref_name>
AZD-1080

> <i_lp_mmshare_version>
53161

> <i_f3d_flags>
0

> <r_lp_tautomer_probability>
1

> <s_lp_Force_Field>
OPLS_2005

> <r_lp_Energy>
28.483927

> <b_lp_Chiralities_Consistent>
1

> <s_lp_Variant>
CHEMBL3717_lig3680-1

> <s_i_glide_gridfile>
glide-grid_3lq8

> <i_i_glide_lignum>
4624

> <i_i_glide_rotatable_bonds>
4

> <r_i_docking_score>
-8.18149188313514

> <r_i_glide_ligand_efficiency>
-0.327259675325406

> <r_i_glide_ligand_efficiency_sa>
-0.956913094626542

> <r_i_glide_ligand_efficiency_ln>
-1.93925875582999

> <r_i_glide_gscore>
-8.18149188313514

> <r_i_glide_lipo>
-3.86269799920416

> <r_i_glide_hbond>
-0.32

> <r_i_glide_metal>
0

> <r_i_glide_rewards>
-1.93761637878788

> <r_i_glide_evdw>
-44.0723686218262

> <r_i_glide_ecoul>
-2.37759137153625

> <r_i_glide_erotb>
0.506053027602229

> <r_i_glide_esite>
-0.00697339592359187

> <r_i_glide_emodel>
-65.3143103309124

> <r_i_glide_energy>
-46.4499599933624

> <r_i_glide_einternal>
5.95055246353149

> <i_i_glide_confnum>
29

> <i_i_glide_posenum>
74

> <r_i_glide_eff_state_penalty>
0

> <s_user_duplicate_titles>
CHEMBL3717_lig3680

> <s_m_subgroup_title>
dock_pv

> <s_m_subgroupid>
dock_pv

> <b_m_subgroup_collapsed>
1

$$$$
CHEMBL3717_lig1096
                    3D
 Schrodinger Suite 2021-1.
 41 45  0  0  1  0            999 V2000
    0.4049    5.1629   30.2819 C   0  0  0  0  0  0
    0.2495    6.5412   30.1008 C   0  0  0  0  0  0
   -1.0164    7.1233   30.2078 C   0  0  0  0  0  0
   -0.6210    4.3179   30.5679 N   0  0  0  0  0  0
   -1.8341    4.9065   30.6080 N   0  0  0  0  0  0
   -2.1049    6.2764   30.4671 C   0  0  0  0  0  0
   -3.4309    6.4879   30.6068 N   0  0  0  0  0  0
   -4.0049    5.2364   30.7664 N   0  0  0  0  0  0
   -3.0722    4.3028   30.7080 C   0  0  0  0  0  0
   -3.2144    2.7773   30.8233 C   0  0  0  0  0  0
   -4.5189    2.0217   30.4860 C   0  0  0  0  0  0
   -6.8684    0.5899   29.8332 C   0  0  0  0  0  0
   -6.8819    1.9791   29.8898 C   0  0  0  0  0  0
   -5.7237    2.6856   30.2078 C   0  0  0  0  0  0
   -5.6910   -0.1053   30.1141 C   0  0  0  0  0  0
   -4.5201    0.6071   30.4671 C   0  0  0  0  0  0
   -3.3290   -0.2080   30.7914 C   0  0  0  0  0  0
   -3.4038   -1.5447   30.6789 C   0  0  0  0  0  0
   -4.5207   -2.2272   30.3004 N   0  0  0  0  0  0
   -5.7160   -1.6352   30.0439 C   0  0  0  0  0  0
   -6.7030   -2.3250   29.7926 O   0  0  0  0  0  0
    1.7232    4.5251   30.0982 C   0  0  0  0  0  0
    2.6368    4.4265   31.1520 C   0  0  0  0  0  0
    3.9000    3.9526   31.0017 N   0  0  0  0  0  0
    4.2761    3.5417   29.7649 C   0  0  0  0  0  0
    3.4175    3.5594   28.6655 C   0  0  0  0  0  0
    2.1269    4.0621   28.8395 C   0  0  0  0  0  0
    1.1071    7.1572   29.8673 H   0  0  0  0  0  0
   -1.1542    8.1873   30.0746 H   0  0  0  0  0  0
   -2.8925    2.4504   31.8079 H   0  0  0  0  0  0
   -2.4623    2.3463   30.1661 H   0  0  0  0  0  0
   -7.7750    0.0621   29.5696 H   0  0  0  0  0  0
   -7.7952    2.5137   29.6726 H   0  0  0  0  0  0
   -5.8062    3.7574   30.2165 H   0  0  0  0  0  0
   -2.4151    0.2434   31.1329 H   0  0  0  0  0  0
   -2.5877   -2.2170   30.9060 H   0  0  0  0  0  0
   -4.5203   -3.2369   30.2492 H   0  0  0  0  0  0
    2.3708    4.7610   32.1437 H   0  0  0  0  0  0
    5.2833    3.1629   29.6661 H   0  0  0  0  0  0
    3.7476    3.2004   27.7018 H   0  0  0  0  0  0
    1.4509    4.1073   27.9976 H   0  0  0  0  0  0
  1  2  1  0  0  0
  1  4  2  0  0  0
  1 22  1  0  0  0
  2  3  2  0  0  0
  2 28  1  0  0  0
  3  6  1  0  0  0
  3 29  1  0  0  0
  4  5  1  0  0  0
  5  9  1  0  0  0
  5  6  1  0  0  0
  6  7  2  0  0  0
  7  8  1  0  0  0
  8  9  2  0  0  0
  9 10  1  0  0  0
 10 11  1  0  0  0
 10 30  1  0  0  0
 10 31  1  0  0  0
 11 14  1  0  0  0
 11 16  2  0  0  0
 12 13  1  0  0  0
 12 15  2  0  0  0
 12 32  1  0  0  0
 13 14  2  0  0  0
 13 33  1  0  0  0
 14 34  1  0  0  0
 15 16  1  0  0  0
 15 20  1  0  0  0
 16 17  1  0  0  0
 17 18  2  0  0  0
 17 35  1  0  0  0
 18 19  1  0  0  0
 18 36  1  0  0  0
 19 20  1  0  0  0
 19 37  1  0  0  0
 20 21  2  0  0  0
 22 23  2  0  0  0
 22 27  1  0  0  0
 23 24  1  0  0  0
 23 38  1  0  0  0
 24 25  2  0  0  0
 25 26  1  0  0  0
 25 39  1  0  0  0
 26 27  2  0  0  0
 26 40  1  0  0  0
 27 41  1  0  0  0
M  END
> <s_m_entry_id>
10097

> <s_m_entry_name>
dock_pv.166

> <s_m_Source_Path>
/home/csk/Desktop/cluster/DUD-E-result/met

> <s_m_Source_File>
dock_pv.maegz

> <i_m_Source_File_Index>
166

> <chembl_id>
CHEMBL1922411

> <chembl_pref_name>
None

> <i_lp_mmshare_version>
53161

> <i_f3d_flags>
0

> <r_lp_tautomer_probability>
1

> <s_lp_Force_Field>
OPLS_2005

> <r_lp_Energy>
29.024202

> <b_lp_Chiralities_Consistent>
1

> <s_lp_Variant>
CHEMBL3717_lig1096-1

> <s_i_glide_gridfile>
glide-grid_3lq8

> <i_i_glide_lignum>
1250

> <i_i_glide_rotatable_bonds>
3

> <r_i_docking_score>
-8.17755417776255

> <r_i_glide_ligand_efficiency>
-0.302872376954169

> <r_i_glide_ligand_efficiency_sa>
-0.908617129864288

> <r_i_glide_ligand_efficiency_ln>
-1.90359979506594

> <r_i_glide_gscore>
-8.17755417776255

> <r_i_glide_lipo>
-3.25164595731835

> <r_i_glide_hbond>
0

> <r_i_glide_metal>
0

> <r_i_glide_rewards>
-2.72580077712928

> <r_i_glide_evdw>
-45.3744697570801

> <r_i_glide_ecoul>
-2.39358282089233

> <r_i_glide_erotb>
0.456490949723591

> <r_i_glide_esite>
-0.0288374820506583

> <r_i_glide_emodel>
-66.4303719097176

> <r_i_glide_energy>
-47.7680525779724

> <r_i_glide_einternal>
6.35744476318359

> <i_i_glide_confnum>
14

> <i_i_glide_posenum>
15

> <r_i_glide_eff_state_penalty>
0

> <s_user_duplicate_titles>
CHEMBL3717_lig1096

> <s_m_subgroup_title>
dock_pv

> <s_m_subgroupid>
dock_pv

> <b_m_subgroup_collapsed>
1

$$$$
CHEMBL3717_lig3494
                    3D
 Schrodinger Suite 2021-1.
 38 41  0  0  1  0            999 V2000
   -3.9185    6.4445   30.7154 O   0  0  0  0  0  0
   -3.5911   -0.9155   29.0080 O   0  0  0  0  0  0
   -1.7208    6.7189   30.1139 N   0  0  0  0  0  0
   -2.3176    2.3565   31.5984 N   0  0  0  0  0  0
    3.6599    2.7560   31.0071 N   0  0  0  0  0  0
   -2.1667    4.7865   31.3159 C   0  0  2  0  0  0
   -0.7207    4.8563   30.9148 C   0  0  0  0  0  0
   -2.8705    3.4470   31.0066 C   0  0  0  0  0  0
   -0.5288    6.0271   30.2080 C   0  0  0  0  0  0
   -2.7508    6.0667   30.6796 C   0  0  0  0  0  0
   -2.8969    1.1339   31.4376 C   0  0  0  0  0  0
   -3.9690    0.9240   30.5465 C   0  0  0  0  0  0
    0.3519    3.9867   31.1271 C   0  0  0  0  0  0
   -4.0150    3.3275   30.2079 C   0  0  0  0  0  0
    0.7065    6.3507   29.6604 C   0  0  0  0  0  0
    1.6046    4.3013   30.5947 C   0  0  0  0  0  0
   -4.5172    2.0556   29.9340 C   0  0  0  0  0  0
   -4.3594   -0.4933   30.1162 C   0  0  2  0  0  0
    1.7710    5.4664   29.8440 C   0  0  0  0  0  0
   -2.4483    0.0107   32.3769 C   0  0  0  0  0  0
   -4.1254   -1.5004   31.2614 C   0  0  0  0  0  0
   -2.6890   -1.3965   31.8061 C   0  0  0  0  0  0
    2.7459    3.4360   30.8241 C   0  0  0  0  0  0
   -4.0944   -0.8463   28.1773 H   0  0  0  0  0  0
   -1.8164    7.6098   29.6516 H   0  0  0  0  0  0
   -2.2551    4.9378   32.3900 H   0  0  0  0  0  0
    0.2157    3.0788   31.6961 H   0  0  0  0  0  0
   -4.4748    4.1829   29.7380 H   0  0  0  0  0  0
    0.8454    7.2562   29.0880 H   0  0  0  0  0  0
   -5.3355    1.9465   29.2375 H   0  0  0  0  0  0
   -5.4093   -0.5304   29.8208 H   0  0  0  0  0  0
    2.7346    5.6844   29.4090 H   0  0  0  0  0  0
   -1.4048    0.1319   32.6687 H   0  0  0  0  0  0
   -3.0246    0.1141   33.2959 H   0  0  0  0  0  0
   -4.3214   -2.5154   30.9095 H   0  0  0  0  0  0
   -4.8556   -1.3350   32.0551 H   0  0  0  0  0  0
   -1.9678   -1.6090   31.0144 H   0  0  0  0  0  0
   -2.5225   -2.1492   32.5774 H   0  0  0  0  0  0
  1 10  2  0  0  0
  2 18  1  0  0  0
  2 24  1  0  0  0
  3  9  1  0  0  0
  3 10  1  0  0  0
  3 25  1  0  0  0
  4  8  1  0  0  0
  4 11  2  0  0  0
  5 23  3  0  0  0
  6  7  1  0  0  0
  6  8  1  0  0  0
  6 10  1  0  0  0
  6 26  1  0  0  0
  7  9  1  0  0  0
  7 13  2  0  0  0
  8 14  2  0  0  0
  9 15  2  0  0  0
 11 12  1  0  0  0
 11 20  1  0  0  0
 12 17  2  0  0  0
 12 18  1  0  0  0
 13 16  1  0  0  0
 13 27  1  0  0  0
 14 17  1  0  0  0
 14 28  1  0  0  0
 15 19  1  0  0  0
 15 29  1  0  0  0
 16 19  2  0  0  0
 16 23  1  0  0  0
 17 30  1  0  0  0
 18 21  1  0  0  0
 18 31  1  0  0  0
 19 32  1  0  0  0
 20 22  1  0  0  0
 20 33  1  0  0  0
 20 34  1  0  0  0
 21 22  1  0  0  0
 21 35  1  0  0  0
 21 36  1  0  0  0
 22 37  1  0  0  0
 22 38  1  0  0  0
M  END
> <s_m_entry_id>
10098

> <s_m_entry_name>
dock_pv.167

> <s_m_Source_Path>
/home/csk/Desktop/cluster/DUD-E-result/met

> <s_m_Source_File>
dock_pv.maegz

> <i_m_Source_File_Index>
167

> <chembl_id>
CHEMBL1985681

> <chembl_pref_name>
None

> <i_lp_mmshare_version>
53161

> <i_f3d_flags>
0

> <r_lp_tautomer_probability>
1

> <s_lp_Force_Field>
OPLS_2005

> <r_lp_Energy>
33.891136

> <b_lp_Chiralities_Consistent>
1

> <s_lp_Variant>
CHEMBL3717_lig3494-1

> <s_i_glide_gridfile>
glide-grid_3lq8

> <i_i_glide_lignum>
4314

> <i_i_glide_rotatable_bonds>
2

> <r_i_docking_score>
-8.17511270585684

> <r_i_glide_ligand_efficiency>
-0.355439682863341

> <r_i_glide_ligand_efficiency_sa>
-1.01082317636749

> <r_i_glide_ligand_efficiency_ln>
-1.97681638009983

> <r_i_glide_gscore>
-8.17511270585684

> <r_i_glide_lipo>
-3.27968151940693

> <r_i_glide_hbond>
-0.16

> <r_i_glide_metal>
0

> <r_i_glide_rewards>
-2.86151382543089

> <r_i_glide_evdw>
-34.608039855957

> <r_i_glide_ecoul>
-2.27652955055237

> <r_i_glide_erotb>
0.197964064361684

> <r_i_glide_esite>
0

> <r_i_glide_emodel>
-50.1073963608331

> <r_i_glide_energy>
-36.8845694065094

> <r_i_glide_einternal>
3.13019514083862

> <i_i_glide_confnum>
4

> <i_i_glide_posenum>
48

> <r_i_glide_eff_state_penalty>
0

> <s_user_duplicate_titles>
CHEMBL3717_lig3494

> <s_m_subgroup_title>
dock_pv

> <s_m_subgroupid>
dock_pv

> <b_m_subgroup_collapsed>
1

$$$$
CHEMBL3717_lig2402
                    3D
 Schrodinger Suite 2021-1.
 45 46  0  0  1  0            999 V2000
   -3.2089    5.8861   30.4581 C   0  0  0  0  0  0
   -3.7524    4.5292   30.4705 C   0  0  0  0  0  0
   -3.0078    3.4132   30.6511 C   0  0  0  0  0  0
   -3.9156    6.8802   30.6088 O   0  0  0  0  0  0
   -1.8876    5.9350   30.2080 O   0  0  0  0  0  0
   -3.5062    2.0219   30.6083 C   0  0  0  0  0  0
   -2.8941    1.0486   31.4064 C   0  0  0  0  0  0
   -3.3227   -0.2912   31.3910 C   0  0  0  0  0  0
   -4.3825   -0.6408   30.5458 C   0  0  0  0  0  0
   -5.0052    0.3210   29.7523 C   0  0  0  0  0  0
   -4.5746    1.6465   29.7887 C   0  0  0  0  0  0
   -2.7726   -1.2991   32.1667 O   0  0  0  0  0  0
   -1.5837   -1.0528   32.9131 C   0  0  0  0  0  0
   -4.8185   -1.9377   30.4846 O   0  0  0  0  0  0
   -1.1842    7.1574   30.0315 C   0  0  0  0  0  0
    0.1751    6.8770   29.3580 C   0  0  0  0  0  0
    0.9453    5.6884   29.9370 C   0  0  0  0  0  0
    1.4787    4.7157   29.0871 C   0  0  0  0  0  0
    2.1551    3.5984   29.6025 C   0  0  0  0  0  0
    2.2929    3.4727   30.9910 C   0  0  0  0  0  0
    1.7711    4.4407   31.8432 C   0  0  0  0  0  0
    1.1061    5.5472   31.3168 C   0  0  0  0  0  0
    2.7053    2.6020   28.8216 O   0  0  0  0  0  0
    2.5554    2.6506   27.4095 C   0  0  0  0  0  0
    2.9378    2.3844   31.5222 O   0  0  0  0  0  0
   -4.8196    4.4599   30.3180 H   0  0  0  0  0  0
   -1.9437    3.5077   30.8173 H   0  0  0  0  0  0
   -2.0941    1.3519   32.0630 H   0  0  0  0  0  0
   -5.8166    0.0332   29.1001 H   0  0  0  0  0  0
   -5.0680    2.3697   29.1584 H   0  0  0  0  0  0
   -1.3315   -1.9476   33.4823 H   0  0  0  0  0  0
   -0.7413   -0.8430   32.2536 H   0  0  0  0  0  0
   -1.6995   -0.2352   33.6267 H   0  0  0  0  0  0
   -4.2483   -2.5267   30.9890 H   0  0  0  0  0  0
   -1.7530    7.8691   29.4313 H   0  0  0  0  0  0
   -1.0314    7.6154   31.0051 H   0  0  0  0  0  0
   -0.0123    6.6917   28.2994 H   0  0  0  0  0  0
    0.7970    7.7717   29.3973 H   0  0  0  0  0  0
    1.3511    4.8316   28.0240 H   0  0  0  0  0  0
    1.8829    4.3385   32.9136 H   0  0  0  0  0  0
    0.7077    6.2922   31.9845 H   0  0  0  0  0  0
    3.0652    1.8001   26.9572 H   0  0  0  0  0  0
    1.5062    2.6052   27.1153 H   0  0  0  0  0  0
    3.0052    3.5563   27.0080 H   0  0  0  0  0  0
    3.1917    1.7811   30.8196 H   0  0  0  0  0  0
  1  2  1  0  0  0
  1  4  2  0  0  0
  1  5  1  0  0  0
  2  3  2  0  0  0
  2 26  1  0  0  0
  3  6  1  0  0  0
  3 27  1  0  0  0
  5 15  1  0  0  0
  6  7  1  0  0  0
  6 11  2  0  0  0
  7  8  2  0  0  0
  7 28  1  0  0  0
  8  9  1  0  0  0
  8 12  1  0  0  0
  9 10  2  0  0  0
  9 14  1  0  0  0
 10 11  1  0  0  0
 10 29  1  0  0  0
 11 30  1  0  0  0
 12 13  1  0  0  0
 13 31  1  0  0  0
 13 32  1  0  0  0
 13 33  1  0  0  0
 14 34  1  0  0  0
 15 16  1  0  0  0
 15 35  1  0  0  0
 15 36  1  0  0  0
 16 17  1  0  0  0
 16 37  1  0  0  0
 16 38  1  0  0  0
 17 18  1  0  0  0
 17 22  2  0  0  0
 18 19  2  0  0  0
 18 39  1  0  0  0
 19 20  1  0  0  0
 19 23  1  0  0  0
 20 21  2  0  0  0
 20 25  1  0  0  0
 21 22  1  0  0  0
 21 40  1  0  0  0
 22 41  1  0  0  0
 23 24  1  0  0  0
 24 42  1  0  0  0
 24 43  1  0  0  0
 24 44  1  0  0  0
 25 45  1  0  0  0
M  END
> <s_m_entry_id>
10099

> <s_m_entry_name>
dock_pv.168

> <s_m_Source_Path>
/home/csk/Desktop/cluster/DUD-E-result/met

> <s_m_Source_File>
dock_pv.maegz

> <i_m_Source_File_Index>
168

> <chembl_id>
CHEMBL3823866

> <chembl_pref_name>
None

> <i_lp_mmshare_version>
53161

> <i_f3d_flags>
0

> <r_lp_tautomer_probability>
1

> <s_lp_Force_Field>
OPLS_2005

> <r_lp_Energy>
19.26916

> <b_lp_Chiralities_Consistent>
1

> <s_lp_Variant>
CHEMBL3717_lig2402-1

> <s_i_glide_gridfile>
glide-grid_3lq8

> <i_i_glide_lignum>
2728

> <i_i_glide_rotatable_bonds>
10

> <r_i_docking_score>
-8.17511202280688

> <r_i_glide_ligand_efficiency>
-0.327004480912275

> <r_i_glide_ligand_efficiency_sa>
-0.956166901636656

> <r_i_glide_ligand_efficiency_ln>
-1.93774653774321

> <r_i_glide_gscore>
-8.17511202280688

> <r_i_glide_lipo>
-4.13151461506201

> <r_i_glide_hbond>
-0.32

> <r_i_glide_metal>
0

> <r_i_glide_rewards>
-2.29999441282274

> <r_i_glide_evdw>
-44.884391784668

> <r_i_glide_ecoul>
-0.933671772480011

> <r_i_glide_erotb>
0.960667360183271

> <r_i_glide_esite>
0

> <r_i_glide_emodel>
-62.6092599571191

> <r_i_glide_energy>
-45.818063557148

> <r_i_glide_einternal>
9.70933818817139

> <i_i_glide_confnum>
6

> <i_i_glide_posenum>
260

> <r_i_glide_eff_state_penalty>
0

> <s_user_duplicate_titles>
CHEMBL3717_lig2402

> <s_m_subgroup_title>
dock_pv

> <s_m_subgroupid>
dock_pv

> <b_m_subgroup_collapsed>
1

$$$$
CHEMBL3717_lig4120
                    3D
 Schrodinger Suite 2021-1.
 45 47  0  0  1  0            999 V2000
   -2.8860   -1.8875   31.0541 Cl  0  0  0  0  0  0
   -4.6385    6.3569   31.0079 O   0  0  0  0  0  0
   -8.6486    4.8738   30.1893 O   0  0  0  0  0  0
   -4.9263    4.1903   30.3932 N   0  0  0  0  0  0
    4.2581    4.0014   29.7685 N   0  0  0  0  0  0
   -2.6801    5.0894   30.6280 C   0  0  0  0  0  0
    0.0934    4.7531   30.4702 C   0  0  0  0  0  0
   -4.1744    5.2716   30.6801 C   0  0  0  0  0  0
    1.5303    4.5038   30.2355 C   0  0  0  0  0  0
   -1.8552    6.1707   30.2847 C   0  0  0  0  0  0
   -2.0947    3.8643   30.9756 C   0  0  0  0  0  0
   -0.4739    6.0013   30.2068 C   0  0  0  0  0  0
   -0.7172    3.7065   30.8987 C   0  0  0  0  0  0
   -6.3712    4.0060   30.6329 C   0  0  2  0  0  0
   -5.8614    1.4400   30.4179 C   0  0  0  0  0  0
   -6.8500    2.5840   30.2075 C   0  0  0  0  0  0
    1.9914    4.1964   28.9492 C   0  0  0  0  0  0
    2.4497    4.5329   31.2872 C   0  0  0  0  0  0
   -5.8262    0.7568   31.6346 C   0  0  0  0  0  0
   -4.9983    1.0659   29.3846 C   0  0  0  0  0  0
   -7.2663    5.1085   30.0023 C   0  0  0  0  0  0
   -4.0393   -0.6294   30.8009 C   0  0  0  0  0  0
    3.3520    3.9450   28.7614 C   0  0  0  0  0  0
    3.7967    4.2974   31.0087 C   0  0  0  0  0  0
   -4.9095   -0.2736   31.8279 C   0  0  0  0  0  0
   -4.0929    0.0258   29.5728 C   0  0  0  0  0  0
   -9.1371    5.5226   29.6688 H   0  0  0  0  0  0
   -4.4359    3.3560   30.1080 H   0  0  0  0  0  0
   -2.2765    7.1378   30.0471 H   0  0  0  0  0  0
   -2.6952    3.0213   31.2897 H   0  0  0  0  0  0
    0.1466    6.8286   29.8952 H   0  0  0  0  0  0
   -0.2712    2.7571   31.1386 H   0  0  0  0  0  0
   -6.5030    4.0733   31.7135 H   0  0  0  0  0  0
   -7.1249    2.5871   29.1543 H   0  0  0  0  0  0
   -7.7891    2.3461   30.7108 H   0  0  0  0  0  0
    1.3065    4.1399   28.1158 H   0  0  0  0  0  0
    2.1308    4.7569   32.2955 H   0  0  0  0  0  0
   -6.4937    1.0314   32.4394 H   0  0  0  0  0  0
   -5.0283    1.5704   28.4314 H   0  0  0  0  0  0
   -7.0362    6.0968   30.3954 H   0  0  0  0  0  0
   -7.0730    5.1571   28.9345 H   0  0  0  0  0  0
    3.7390    3.6896   27.7869 H   0  0  0  0  0  0
    4.5332    4.3575   31.7945 H   0  0  0  0  0  0
   -4.8746   -0.7904   32.7762 H   0  0  0  0  0  0
   -3.4345   -0.2701   28.7681 H   0  0  0  0  0  0
  1 22  1  0  0  0
  2  8  2  0  0  0
  3 21  1  0  0  0
  3 27  1  0  0  0
  4  8  1  0  0  0
  4 14  1  0  0  0
  4 28  1  0  0  0
  5 23  2  0  0  0
  5 24  1  0  0  0
  6  8  1  0  0  0
  6 10  2  0  0  0
  6 11  1  0  0  0
  7  9  1  0  0  0
  7 12  2  0  0  0
  7 13  1  0  0  0
  9 17  2  0  0  0
  9 18  1  0  0  0
 10 12  1  0  0  0
 10 29  1  0  0  0
 11 13  2  0  0  0
 11 30  1  0  0  0
 12 31  1  0  0  0
 13 32  1  0  0  0
 14 16  1  0  0  0
 14 21  1  0  0  0
 14 33  1  0  0  0
 15 16  1  0  0  0
 15 19  2  0  0  0
 15 20  1  0  0  0
 16 34  1  0  0  0
 16 35  1  0  0  0
 17 23  1  0  0  0
 17 36  1  0  0  0
 18 24  2  0  0  0
 18 37  1  0  0  0
 19 25  1  0  0  0
 19 38  1  0  0  0
 20 26  2  0  0  0
 20 39  1  0  0  0
 21 40  1  0  0  0
 21 41  1  0  0  0
 22 25  2  0  0  0
 22 26  1  0  0  0
 23 42  1  0  0  0
 24 43  1  0  0  0
 25 44  1  0  0  0
 26 45  1  0  0  0
M  END
> <s_m_entry_id>
10100

> <s_m_entry_name>
dock_pv.169

> <s_m_Source_Path>
/home/csk/Desktop/cluster/DUD-E-result/met

> <s_m_Source_File>
dock_pv.maegz

> <i_m_Source_File_Index>
169

> <chembl_id>
CHEMBL1996931

> <chembl_pref_name>
None

> <i_lp_mmshare_version>
53161

> <i_f3d_flags>
0

> <r_lp_tautomer_probability>
1

> <s_lp_Force_Field>
OPLS_2005

> <r_lp_Energy>
17.153471

> <b_lp_Chiralities_Consistent>
1

> <s_lp_Variant>
CHEMBL3717_lig4120-1

> <s_i_glide_gridfile>
glide-grid_3lq8

> <i_i_glide_lignum>
5268

> <i_i_glide_rotatable_bonds>
8

> <r_i_docking_score>
-8.17139472748341

> <r_i_glide_ligand_efficiency>
-0.314284412595516

> <r_i_glide_ligand_efficiency_sa>
-0.931066335664768

> <r_i_glide_ligand_efficiency_ln>
-1.91902523921645

> <r_i_glide_gscore>
-8.17139472748341

> <r_i_glide_lipo>
-4.14599698652175

> <r_i_glide_hbond>
-0.188307364804769

> <r_i_glide_metal>
0

> <r_i_glide_rewards>
-2.23285864218273

> <r_i_glide_evdw>
-44.7348098754883

> <r_i_glide_ecoul>
-1.50570321083069

> <r_i_glide_erotb>
0.858364241424846

> <r_i_glide_esite>
0

> <r_i_glide_emodel>
-61.3048828570671

> <r_i_glide_energy>
-46.240513086319

> <r_i_glide_einternal>
11.0448722839355

> <i_i_glide_confnum>
14

> <i_i_glide_posenum>
264

> <r_i_glide_eff_state_penalty>
0

> <s_user_duplicate_titles>
CHEMBL3717_lig4120

> <s_m_subgroup_title>
dock_pv

> <s_m_subgroupid>
dock_pv

> <b_m_subgroup_collapsed>
1

$$$$
CHEMBL3717_lig742
                    3D
 Schrodinger Suite 2021-1.
 40 43  0  0  1  0            999 V2000
    3.0291    3.6913   29.9288 S   0  0  0  0  0  0
    2.7060    2.7021   30.9603 O   0  0  0  0  0  0
    4.4124    4.1227   29.7127 O   0  0  0  0  0  0
   -2.2213    3.0925   31.2763 C   0  0  0  0  0  0
   -3.5489    5.7937   30.5788 C   0  0  0  0  0  0
   -4.5740    4.9293   30.4543 C   0  0  0  0  0  0
   -4.5736    3.4592   30.3085 C   0  0  0  0  0  0
   -3.4892    2.6231   30.6221 C   0  0  0  0  0  0
   -3.6762    1.2314   30.5353 C   0  0  0  0  0  0
   -4.8999    0.7007   30.1176 C   0  0  0  0  0  0
   -5.9159    1.6064   29.8080 C   0  0  0  0  0  0
   -5.7688    2.9510   29.9048 N   0  0  0  0  0  0
   -1.4816    4.3180   30.8512 C   0  0  0  0  0  0
   -2.0886    5.5595   30.5780 C   0  0  0  0  0  0
   -1.2648    6.6290   30.2038 C   0  0  0  0  0  0
    0.1180    6.4777   30.1102 C   0  0  0  0  0  0
    0.7211    5.2530   30.3962 C   0  0  0  0  0  0
   -0.0832    4.1805   30.7848 C   0  0  0  0  0  0
   -1.6940    2.3570   32.1150 O   0  0  0  0  0  0
    2.1159    5.1643   30.2779 N   0  0  0  0  0  0
    2.3055    3.1575   28.2794 C   0  0  0  0  0  0
   -5.1161   -0.7763   30.0476 C   0  0  0  0  0  0
   -4.1908   -1.7954   30.2381 C   0  0  0  0  0  0
   -4.8774   -2.9695   30.0935 N   0  0  0  0  0  0
   -6.1685   -2.7882   29.8157 N   0  0  0  0  0  0
   -6.3060   -1.4821   29.7839 C   0  0  0  0  0  0
   -3.8318    6.8301   30.6970 H   0  0  0  0  0  0
   -5.5615    5.3726   30.4800 H   0  0  0  0  0  0
   -2.8845    0.5518   30.8169 H   0  0  0  0  0  0
   -6.8877    1.2645   29.4846 H   0  0  0  0  0  0
   -1.6924    7.5928   29.9654 H   0  0  0  0  0  0
    0.7161    7.3261   29.8095 H   0  0  0  0  0  0
    0.3776    3.2320   31.0171 H   0  0  0  0  0  0
    2.5992    6.0132   30.0328 H   0  0  0  0  0  0
    2.8599    2.2938   27.9185 H   0  0  0  0  0  0
    2.3921    3.9754   27.5686 H   0  0  0  0  0  0
    1.2599    2.8944   28.4243 H   0  0  0  0  0  0
   -3.1354   -1.7978   30.4663 H   0  0  0  0  0  0
   -4.4708   -3.8955   30.2012 H   0  0  0  0  0  0
   -7.2692   -1.0426   29.5759 H   0  0  0  0  0  0
  1  2  2  0  0  0
  1  3  2  0  0  0
  1 20  1  0  0  0
  1 21  1  0  0  0
  4 19  2  0  0  0
  4  8  1  0  0  0
  4 13  1  0  0  0
  5  6  2  0  0  0
  5 14  1  0  0  0
  5 27  1  0  0  0
  6  7  1  0  0  0
  6 28  1  0  0  0
  7  8  2  0  0  0
  7 12  1  0  0  0
  8  9  1  0  0  0
  9 10  2  0  0  0
  9 29  1  0  0  0
 10 22  1  0  0  0
 10 11  1  0  0  0
 11 12  2  0  0  0
 11 30  1  0  0  0
 13 14  2  0  0  0
 13 18  1  0  0  0
 14 15  1  0  0  0
 15 16  2  0  0  0
 15 31  1  0  0  0
 16 17  1  0  0  0
 16 32  1  0  0  0
 17 18  2  0  0  0
 17 20  1  0  0  0
 18 33  1  0  0  0
 20 34  1  0  0  0
 21 35  1  0  0  0
 21 36  1  0  0  0
 21 37  1  0  0  0
 22 23  2  0  0  0
 22 26  1  0  0  0
 23 24  1  0  0  0
 23 38  1  0  0  0
 24 25  1  0  0  0
 24 39  1  0  0  0
 25 26  2  0  0  0
 26 40  1  0  0  0
M  END
> <s_m_entry_id>
10101

> <s_m_entry_name>
dock_pv.170

> <s_m_Source_Path>
/home/csk/Desktop/cluster/DUD-E-result/met

> <s_m_Source_File>
dock_pv.maegz

> <i_m_Source_File_Index>
170

> <chembl_id>
CHEMBL1802601

> <chembl_pref_name>
None

> <i_lp_mmshare_version>
53161

> <i_f3d_flags>
0

> <r_lp_tautomer_probability>
0.5

> <s_lp_Force_Field>
OPLS_2005

> <r_lp_Energy>
22.224419

> <b_lp_Chiralities_Consistent>
1

> <s_lp_Variant>
CHEMBL3717_lig742-1

> <s_i_glide_gridfile>
glide-grid_3lq8

> <i_i_glide_lignum>
803

> <i_i_glide_rotatable_bonds>
3

> <r_i_docking_score>
-8.16863175988275

> <r_i_glide_ligand_efficiency>
-0.314178144610875

> <r_i_glide_ligand_efficiency_sa>
-0.930751517178414

> <r_i_glide_ligand_efficiency_ln>
-1.91837636534147

> <r_i_glide_gscore>
-8.16863175988275

> <r_i_glide_lipo>
-3.77520873872696

> <r_i_glide_hbond>
-0.154608019173356

> <r_i_glide_metal>
0

> <r_i_glide_rewards>
-1.86996174041374

> <r_i_glide_evdw>
-43.440113067627

> <r_i_glide_ecoul>
-2.85681366920471

> <r_i_glide_erotb>
0.286743223803646

> <r_i_glide_esite>
-0.055068781610288

> <r_i_glide_emodel>
-65.6786928145026

> <r_i_glide_energy>
-46.2969267368317

> <r_i_glide_einternal>
0.842142999172211

> <i_i_glide_confnum>
1

> <i_i_glide_posenum>
7

> <r_i_glide_eff_state_penalty>
0

> <s_user_duplicate_titles>
CHEMBL3717_lig742

> <s_m_subgroup_title>
dock_pv

> <s_m_subgroupid>
dock_pv

> <b_m_subgroup_collapsed>
1

$$$$
CHEMBL3717_lig3739
                    3D
 Schrodinger Suite 2021-1.
 32 35  0  0  1  0            999 V2000
    3.9060    3.1569   28.2015 Cl  0  0  0  0  0  0
   -4.5363    2.4470   30.2095 S   0  0  0  0  0  0
   -3.7003   -0.5422   30.2285 O   0  0  0  0  0  0
   -0.4728    5.1567   31.5350 O   0  0  0  0  0  0
   -2.6164   -0.4425   32.1668 N   0  0  0  0  0  0
   -3.6529    6.4153   30.2082 N   0  0  0  0  0  0
   -2.8121   -1.7854   31.8419 N   0  0  0  0  0  0
   -3.8405   -2.8428   29.9289 N   0  0  0  0  0  0
   -2.4941    3.9553   30.9550 C   0  0  0  0  0  0
   -3.1652    1.6976   31.0044 C   0  0  0  0  0  0
   -3.8161    4.0310   30.4240 C   0  0  0  0  0  0
   -1.7542    5.1592   31.0295 C   0  0  0  0  0  0
   -2.1776    2.6210   31.3362 C   0  0  0  0  0  0
   -3.1637    0.2503   31.1942 C   0  0  0  0  0  0
   -4.3720    5.2749   30.1110 C   0  0  0  0  0  0
   -2.3656    6.3410   30.6084 C   0  0  0  0  0  0
   -3.4425   -1.7875   30.6947 C   0  0  0  0  0  0
    0.5689    4.7167   30.7553 C   0  0  0  0  0  0
    1.5576    3.9239   31.3391 C   0  0  0  0  0  0
    0.6606    5.0676   29.4084 C   0  0  0  0  0  0
    2.6439    3.7426   29.2006 C   0  0  0  0  0  0
    2.6043    3.4346   30.5595 C   0  0  0  0  0  0
    1.6724    4.5428   28.6215 C   0  0  0  0  0  0
   -3.6938   -3.8104   30.2225 H   0  0  0  0  0  0
   -4.1586   -2.6975   28.9820 H   0  0  0  0  0  0
   -1.2456    2.3574   31.8091 H   0  0  0  0  0  0
   -5.3831    5.3710   29.7398 H   0  0  0  0  0  0
   -1.8181    7.2725   30.6109 H   0  0  0  0  0  0
    1.5033    3.6797   32.3890 H   0  0  0  0  0  0
   -0.0864    5.7169   28.9772 H   0  0  0  0  0  0
    3.3700    2.8141   31.0002 H   0  0  0  0  0  0
    1.7155    4.7571   27.5664 H   0  0  0  0  0  0
  1 21  1  0  0  0
  2 10  1  0  0  0
  2 11  1  0  0  0
  3 14  1  0  0  0
  3 17  1  0  0  0
  4 12  1  0  0  0
  4 18  1  0  0  0
  5  7  1  0  0  0
  5 14  2  0  0  0
  6 15  1  0  0  0
  6 16  2  0  0  0
  7 17  2  0  0  0
  8 17  1  0  0  0
  8 24  1  0  0  0
  8 25  1  0  0  0
  9 11  1  0  0  0
  9 12  2  0  0  0
  9 13  1  0  0  0
 10 13  2  0  0  0
 10 14  1  0  0  0
 11 15  2  0  0  0
 12 16  1  0  0  0
 13 26  1  0  0  0
 15 27  1  0  0  0
 16 28  1  0  0  0
 18 19  2  0  0  0
 18 20  1  0  0  0
 19 22  1  0  0  0
 19 29  1  0  0  0
 20 23  2  0  0  0
 20 30  1  0  0  0
 21 22  2  0  0  0
 21 23  1  0  0  0
 22 31  1  0  0  0
 23 32  1  0  0  0
M  END
> <s_m_entry_id>
10102

> <s_m_entry_name>
dock_pv.171

> <s_m_Source_Path>
/home/csk/Desktop/cluster/DUD-E-result/met

> <s_m_Source_File>
dock_pv.maegz

> <i_m_Source_File_Index>
171

> <chembl_id>
CHEMBL1994830

> <chembl_pref_name>
None

> <i_lp_mmshare_version>
53161

> <i_f3d_flags>
0

> <r_lp_tautomer_probability>
0.999975740588055

> <s_lp_Force_Field>
OPLS_2005

> <r_lp_Energy>
7.434485

> <b_lp_Chiralities_Consistent>
1

> <s_lp_Variant>
CHEMBL3717_lig3739-1

> <s_i_glide_gridfile>
glide-grid_3lq8

> <i_i_glide_lignum>
4721

> <i_i_glide_rotatable_bonds>
3

> <r_i_docking_score>
-8.16743202557684

> <r_i_glide_ligand_efficiency>
-0.355105740242471

> <r_i_glide_ligand_efficiency_sa>
-1.00987348797583

> <r_i_glide_ligand_efficiency_ln>
-1.97495912196357

> <r_i_glide_gscore>
-8.16743202557684

> <r_i_glide_lipo>
-4.06052135346091

> <r_i_glide_hbond>
-0.295261607511862

> <r_i_glide_metal>
0

> <r_i_glide_rewards>
-2.03163115193233

> <r_i_glide_evdw>
-34.580436706543

> <r_i_glide_ecoul>
-3.04291081428528

> <r_i_glide_erotb>
0.479301056328792

> <r_i_glide_esite>
-0.0738605115305981

> <r_i_glide_emodel>
-52.7514500356638

> <r_i_glide_energy>
-37.6233475208282

> <r_i_glide_einternal>
3.72480368614197

> <i_i_glide_confnum>
2

> <i_i_glide_posenum>
375

> <r_i_glide_eff_state_penalty>
0

> <s_user_duplicate_titles>
CHEMBL3717_lig3739

> <s_m_subgroup_title>
dock_pv

> <s_m_subgroupid>
dock_pv

> <b_m_subgroup_collapsed>
1

$$$$
CHEMBL3717_lig4368
                    3D
 Schrodinger Suite 2021-1.
 36 39  0  0  1  0            999 V2000
   -7.2361    0.2160   28.9555 O   0  0  0  0  0  0
   -6.1676    0.8438   29.5345 C   0  0  0  0  0  0
   -6.3232    2.1173   30.0730 C   0  0  0  0  0  0
   -5.2219    2.7833   30.6077 C   0  0  0  0  0  0
   -3.9569    2.1788   30.6079 C   0  0  0  0  0  0
   -2.6893    2.8850   31.1221 C   0  0  0  0  0  0
   -2.5560    4.3958   30.8978 C   0  0  0  0  0  0
   -3.4952    5.3254   30.9505 N   0  0  0  0  0  0
   -2.9619    6.5575   30.6079 N   0  0  0  0  0  0
   -1.6495    6.3427   30.3692 C   0  0  0  0  0  0
   -0.5955    7.1662   29.9492 C   0  0  0  0  0  0
    0.6649    6.5828   29.8051 C   0  0  0  0  0  0
    0.8400    5.2195   30.0712 C   0  0  0  0  0  0
   -0.1513    4.3970   30.4903 N   0  0  0  0  0  0
   -1.3499    4.9916   30.6085 N   0  0  0  0  0  0
    2.1423    4.5642   29.8761 C   0  0  0  0  0  0
    2.5180    4.0764   28.6203 C   0  0  0  0  0  0
    3.7992    3.5577   28.4418 C   0  0  0  0  0  0
    4.6734    3.5570   29.5295 C   0  0  0  0  0  0
    4.3155    3.9789   30.7655 N   0  0  0  0  0  0
    3.0590    4.4583   30.9246 C   0  0  0  0  0  0
   -3.8382    0.8689   30.1271 C   0  0  0  0  0  0
   -4.9315    0.2106   29.5746 C   0  0  0  0  0  0
   -6.9891   -0.6194   28.5511 H   0  0  0  0  0  0
   -7.2897    2.5984   30.0546 H   0  0  0  0  0  0
   -5.3762    3.7708   31.0097 H   0  0  0  0  0  0
   -2.4946    2.6311   32.1640 H   0  0  0  0  0  0
   -1.8578    2.4005   30.6070 H   0  0  0  0  0  0
   -0.7543    8.2188   29.7570 H   0  0  0  0  0  0
    1.5032    7.1849   29.4872 H   0  0  0  0  0  0
    1.8308    4.1171   27.7877 H   0  0  0  0  0  0
    4.1124    3.1742   27.4824 H   0  0  0  0  0  0
    5.6775    3.1806   29.4178 H   0  0  0  0  0  0
    2.8027    4.7985   31.9175 H   0  0  0  0  0  0
   -2.8915    0.3553   30.1553 H   0  0  0  0  0  0
   -4.8089   -0.7845   29.1695 H   0  0  0  0  0  0
  1  2  1  0  0  0
  1 24  1  0  0  0
  2  3  2  0  0  0
  2 23  1  0  0  0
  3  4  1  0  0  0
  3 25  1  0  0  0
  4  5  2  0  0  0
  4 26  1  0  0  0
  5  6  1  0  0  0
  5 22  1  0  0  0
  6  7  1  0  0  0
  6 27  1  0  0  0
  6 28  1  0  0  0
  7  8  2  0  0  0
  7 15  1  0  0  0
  8  9  1  0  0  0
  9 10  2  0  0  0
 10 11  1  0  0  0
 10 15  1  0  0  0
 11 12  2  0  0  0
 11 29  1  0  0  0
 12 13  1  0  0  0
 12 30  1  0  0  0
 13 14  2  0  0  0
 13 16  1  0  0  0
 14 15  1  0  0  0
 16 17  2  0  0  0
 16 21  1  0  0  0
 17 18  1  0  0  0
 17 31  1  0  0  0
 18 19  2  0  0  0
 18 32  1  0  0  0
 19 20  1  0  0  0
 19 33  1  0  0  0
 20 21  2  0  0  0
 21 34  1  0  0  0
 22 23  2  0  0  0
 22 35  1  0  0  0
 23 36  1  0  0  0
M  END
> <s_m_entry_id>
10104

> <s_m_entry_name>
dock_pv.173

> <s_m_Source_Path>
/home/csk/Desktop/cluster/DUD-E-result/met

> <s_m_Source_File>
dock_pv.maegz

> <i_m_Source_File_Index>
173

> <chembl_id>
CHEMBL3668192

> <chembl_pref_name>
None

> <i_lp_mmshare_version>
53161

> <i_f3d_flags>
0

> <r_lp_tautomer_probability>
0.999999999997365

> <s_lp_Force_Field>
OPLS_2005

> <r_lp_Energy>
16.992058

> <b_lp_Chiralities_Consistent>
1

> <s_lp_Variant>
CHEMBL3717_lig4368-1

> <s_i_glide_gridfile>
glide-grid_3lq8

> <i_i_glide_lignum>
5593

> <i_i_glide_rotatable_bonds>
4

> <r_i_docking_score>
-8.16001936445528

> <r_i_glide_ligand_efficiency>
-0.354783450628491

> <r_i_glide_ligand_efficiency_sa>
-1.00895693918564

> <r_i_glide_ligand_efficiency_ln>
-1.97316667329008

> <r_i_glide_gscore>
-8.16001936445528

> <r_i_glide_lipo>
-3.19175515501138

> <r_i_glide_hbond>
0

> <r_i_glide_metal>
0

> <r_i_glide_rewards>
-3.20959698219961

> <r_i_glide_evdw>
-37.9499168395996

> <r_i_glide_ecoul>
-3.07991600036621

> <r_i_glide_erotb>
0.600816014790621

> <r_i_glide_esite>
0

> <r_i_glide_emodel>
-56.4486814292955

> <r_i_glide_energy>
-41.0298328399658

> <r_i_glide_einternal>
6.59990787506104

> <i_i_glide_confnum>
5

> <i_i_glide_posenum>
83

> <r_i_glide_eff_state_penalty>
0

> <s_user_duplicate_titles>
CHEMBL3717_lig4368

> <s_m_subgroup_title>
dock_pv

> <s_m_subgroupid>
dock_pv

> <b_m_subgroup_collapsed>
1

$$$$
CHEMBL3717_lig4059
                    3D
 Schrodinger Suite 2021-1.
 52 56  0  0  1  0            999 V2000
   -5.5132    2.9309   30.2049 O   0  0  0  0  0  0
    4.6411    3.0167   30.6080 O   0  0  0  0  0  0
    3.1749    4.7571   30.2752 N   0  0  0  0  0  0
   -2.9551   -2.7018   29.8688 N   0  0  0  0  0  0
   -4.4947    6.3569   30.8249 N   0  0  0  0  0  0
   -6.4510    0.3568   28.7659 N   0  0  0  0  0  0
    1.1772    3.8663   30.8340 C   0  0  0  0  0  0
    1.8162    5.0020   30.3882 C   0  0  0  0  0  0
   -0.9677    5.0084   30.6714 C   0  0  0  0  0  0
   -2.4625    5.0292   30.7520 C   0  0  0  0  0  0
   -3.4320   -1.1707   31.4367 C   0  0  0  0  0  0
   -0.2130    3.8642   30.9949 C   0  0  0  0  0  0
   -4.6246   -1.4025   30.6632 C   0  0  0  0  0  0
   -2.4121   -2.0377   30.9457 C   0  0  0  0  0  0
    2.2247    2.8134   31.0467 C   0  0  0  0  0  0
    3.5165    3.5096   30.6232 C   0  0  0  0  0  0
    1.1061    6.1614   30.1074 C   0  0  0  0  0  0
   -0.2783    6.1481   30.2145 C   0  0  0  0  0  0
   -3.2505    3.8724   30.6080 C   0  0  0  0  0  0
   -4.6510    3.9728   30.4810 C   0  0  0  0  0  0
   -4.2626   -2.3237   29.6988 C   0  0  0  0  0  0
   -3.1535    6.2408   30.8829 C   0  0  0  0  0  0
   -5.9865   -0.7650   30.8871 C   0  0  0  0  0  0
   -3.1253   -0.3302   32.5174 C   0  0  0  0  0  0
   -1.1466   -2.1105   31.5410 C   0  0  0  0  0  0
   -6.2068    0.5929   30.1813 C   0  0  1  0  0  0
   -5.2181    5.2363   30.6084 C   0  0  0  0  0  0
   -1.8465   -0.3467   33.0610 C   0  0  0  0  0  0
   -0.8941   -1.2439   32.6080 C   0  0  0  0  0  0
   -5.0508    1.5999   30.3828 C   0  0  0  0  0  0
    3.8509    5.4278   29.9444 H   0  0  0  0  0  0
   -2.5228   -3.4325   29.3181 H   0  0  0  0  0  0
   -6.5033    1.2375   28.2785 H   0  0  0  0  0  0
   -5.6817   -0.1641   28.3567 H   0  0  0  0  0  0
   -0.7065    2.9730   31.3517 H   0  0  0  0  0  0
    2.3028    2.4874   32.0834 H   0  0  0  0  0  0
    2.0838    1.9570   30.3952 H   0  0  0  0  0  0
    1.5975    7.0711   29.8072 H   0  0  0  0  0  0
   -0.8027    7.0495   29.9368 H   0  0  0  0  0  0
   -2.7695    2.9146   30.4875 H   0  0  0  0  0  0
   -4.8495   -2.7757   28.9112 H   0  0  0  0  0  0
   -2.6380    7.1781   31.0078 H   0  0  0  0  0  0
   -6.7789   -1.4579   30.5998 H   0  0  0  0  0  0
   -6.1362   -0.6245   31.9591 H   0  0  0  0  0  0
   -3.8792    0.3094   32.9438 H   0  0  0  0  0  0
   -0.3830   -2.7840   31.1807 H   0  0  0  0  0  0
   -7.1173    1.0306   30.5945 H   0  0  0  0  0  0
   -6.2855    5.3708   30.5126 H   0  0  0  0  0  0
   -1.6085    0.3084   33.8867 H   0  0  0  0  0  0
    0.0764   -1.2430   33.0802 H   0  0  0  0  0  0
   -4.6963    1.5358   31.4074 H   0  0  0  0  0  0
   -4.2127    1.3710   29.7213 H   0  0  0  0  0  0
  1 20  1  0  0  0
  1 30  1  0  0  0
  2 16  2  0  0  0
  3  8  1  0  0  0
  3 16  1  0  0  0
  3 31  1  0  0  0
  4 14  1  0  0  0
  4 21  1  0  0  0
  4 32  1  0  0  0
  5 22  2  0  0  0
  5 27  1  0  0  0
  6 26  1  0  0  0
  6 33  1  0  0  0
  6 34  1  0  0  0
  7  8  1  0  0  0
  7 12  2  0  0  0
  7 15  1  0  0  0
  8 17  2  0  0  0
  9 10  1  0  0  0
  9 12  1  0  0  0
  9 18  2  0  0  0
 10 19  2  0  0  0
 10 22  1  0  0  0
 11 13  1  0  0  0
 11 14  1  0  0  0
 11 24  2  0  0  0
 12 35  1  0  0  0
 13 21  2  0  0  0
 13 23  1  0  0  0
 14 25  2  0  0  0
 15 16  1  0  0  0
 15 36  1  0  0  0
 15 37  1  0  0  0
 17 18  1  0  0  0
 17 38  1  0  0  0
 18 39  1  0  0  0
 19 20  1  0  0  0
 19 40  1  0  0  0
 20 27  2  0  0  0
 21 41  1  0  0  0
 22 42  1  0  0  0
 23 26  1  0  0  0
 23 43  1  0  0  0
 23 44  1  0  0  0
 24 28  1  0  0  0
 24 45  1  0  0  0
 25 29  1  0  0  0
 25 46  1  0  0  0
 26 30  1  0  0  0
 26 47  1  0  0  0
 27 48  1  0  0  0
 28 29  2  0  0  0
 28 49  1  0  0  0
 29 50  1  0  0  0
 30 51  1  0  0  0
 30 52  1  0  0  0
M  END
> <s_m_entry_id>
10105

> <s_m_entry_name>
dock_pv.174

> <s_m_Source_Path>
/home/csk/Desktop/cluster/DUD-E-result/met

> <s_m_Source_File>
dock_pv.maegz

> <i_m_Source_File_Index>
174

> <chembl_id>
CHEMBL1967302

> <chembl_pref_name>
None

> <i_lp_mmshare_version>
53161

> <i_f3d_flags>
0

> <r_lp_tautomer_probability>
1

> <s_lp_Force_Field>
OPLS_2005

> <r_lp_Energy>
37.952293

> <b_lp_Chiralities_Consistent>
1

> <s_lp_Variant>
CHEMBL3717_lig4059-2

> <s_i_glide_gridfile>
glide-grid_3lq8

> <i_i_glide_lignum>
5177

> <i_i_glide_rotatable_bonds>
6

> <r_i_docking_score>
-8.15437515936612

> <r_i_glide_ligand_efficiency>
-0.271812505312204

> <r_i_glide_ligand_efficiency_sa>
-0.844584651073304

> <r_i_glide_ligand_efficiency_ln>
-1.85276288524159

> <r_i_glide_gscore>
-8.15437515936612

> <r_i_glide_lipo>
-4.34260660964993

> <r_i_glide_hbond>
-0.0330923519518638

> <r_i_glide_metal>
0

> <r_i_glide_rewards>
-1.89689507824016

> <r_i_glide_evdw>
-43.9554252624512

> <r_i_glide_ecoul>
-1.65917766094208

> <r_i_glide_erotb>
0.616775013789696

> <r_i_glide_esite>
-0.0519082210499988

> <r_i_glide_emodel>
-63.4085718964332

> <r_i_glide_energy>
-45.6146029233932

> <r_i_glide_einternal>
4.73090696334839

> <i_i_glide_confnum>
5

> <i_i_glide_posenum>
28

> <r_i_glide_eff_state_penalty>
0

> <s_user_duplicate_titles>
CHEMBL3717_lig4059

> <s_m_subgroup_title>
dock_pv

> <s_m_subgroupid>
dock_pv

> <b_m_subgroup_collapsed>
1

$$$$
CHEMBL3717_lig3684
                    3D
 Schrodinger Suite 2021-1.
 50 53  0  0  1  0            999 V2000
   -6.1760    5.5569   30.6079 Cl  0  0  0  0  0  0
   -4.7482    2.9914   30.4781 O   0  0  0  0  0  0
   -8.0391   -0.9714   28.6064 N   0  0  0  0  0  0
   -3.6990    6.4918   30.6109 N   0  0  0  0  0  0
   -3.8596   -0.6050   30.2039 N   0  0  0  0  0  0
    4.7047    3.9524   29.4815 N   0  0  0  0  0  0
   -7.7214    1.0152   29.6101 C   0  0  0  0  0  0
   -6.8437    0.0529   30.2293 C   0  0  0  0  0  0
   -8.4522    0.3418   28.5828 C   0  0  0  0  0  0
   -7.0921   -1.1438   29.5820 C   0  0  0  0  0  0
   -3.9021    4.0790   30.5723 C   0  0  0  0  0  0
   -5.8328    0.3177   31.3367 C   0  0  0  0  0  0
   -7.9610    2.3850   29.8115 C   0  0  0  0  0  0
   -9.3828    0.9981   27.7694 C   0  0  0  0  0  0
   -4.4582    5.3652   30.6030 C   0  0  0  0  0  0
   -4.3963    0.5957   30.8274 C   0  0  2  0  0  0
   -1.7042    5.1212   30.6458 C   0  0  0  0  0  0
   -2.5034    3.9733   30.6265 C   0  0  0  0  0  0
   -8.8945    3.0395   29.0087 C   0  0  0  0  0  0
   -4.2965    1.7877   29.8485 C   0  0  0  0  0  0
   -9.5848    2.3579   28.0096 C   0  0  0  0  0  0
   -2.3505    6.3571   30.6080 C   0  0  0  0  0  0
   -0.2335    5.0530   30.6071 C   0  0  0  0  0  0
    0.4562    4.1050   29.9410 C   0  0  0  0  0  0
    1.9170    4.0126   29.8337 C   0  0  0  0  0  0
    2.4738    3.5634   28.6318 C   0  0  0  0  0  0
    2.7747    4.4065   30.8678 C   0  0  0  0  0  0
    3.8615    3.5570   28.4961 C   0  0  0  0  0  0
    4.1535    4.3572   30.6502 C   0  0  0  0  0  0
   -8.3499   -1.7252   28.0104 H   0  0  0  0  0  0
   -4.4648   -0.8762   29.4391 H   0  0  0  0  0  0
   -2.9512   -0.4355   29.7976 H   0  0  0  0  0  0
   -6.6488   -2.1192   29.7299 H   0  0  0  0  0  0
   -5.8063   -0.5275   32.0266 H   0  0  0  0  0  0
   -6.1615    1.1561   31.9522 H   0  0  0  0  0  0
   -7.4247    2.9258   30.5763 H   0  0  0  0  0  0
   -9.9233    0.4842   26.9889 H   0  0  0  0  0  0
   -3.7654    0.8096   31.6913 H   0  0  0  0  0  0
   -2.0284    3.0051   30.6570 H   0  0  0  0  0  0
   -9.0779    4.0957   29.1532 H   0  0  0  0  0  0
   -4.9405    1.6159   28.9852 H   0  0  0  0  0  0
   -3.2995    1.8532   29.4149 H   0  0  0  0  0  0
  -10.2918    2.9020   27.3999 H   0  0  0  0  0  0
   -1.7828    7.2765   30.5883 H   0  0  0  0  0  0
    0.3002    5.8246   31.1442 H   0  0  0  0  0  0
   -0.0890    3.3321   29.4171 H   0  0  0  0  0  0
    1.8459    3.2442   27.8117 H   0  0  0  0  0  0
    2.3844    4.7561   31.8119 H   0  0  0  0  0  0
    4.3181    3.2073   27.5830 H   0  0  0  0  0  0
    4.8474    4.6713   31.4143 H   0  0  0  0  0  0
  1 15  1  0  0  0
  2 11  1  0  0  0
  2 20  1  0  0  0
  3  9  1  0  0  0
  3 10  1  0  0  0
  3 30  1  0  0  0
  4 15  2  0  0  0
  4 22  1  0  0  0
  5 16  1  0  0  0
  5 31  1  0  0  0
  5 32  1  0  0  0
  6 28  2  0  0  0
  6 29  1  0  0  0
  7  8  1  0  0  0
  7  9  1  0  0  0
  7 13  2  0  0  0
  8 10  2  0  0  0
  8 12  1  0  0  0
  9 14  2  0  0  0
 10 33  1  0  0  0
 11 15  1  0  0  0
 11 18  2  0  0  0
 12 16  1  0  0  0
 12 34  1  0  0  0
 12 35  1  0  0  0
 13 19  1  0  0  0
 13 36  1  0  0  0
 14 21  1  0  0  0
 14 37  1  0  0  0
 16 20  1  0  0  0
 16 38  1  0  0  0
 17 18  1  0  0  0
 17 22  2  0  0  0
 17 23  1  0  0  0
 18 39  1  0  0  0
 19 21  2  0  0  0
 19 40  1  0  0  0
 20 41  1  0  0  0
 20 42  1  0  0  0
 21 43  1  0  0  0
 22 44  1  0  0  0
 23 24  2  3  0  0
 23 45  1  0  0  0
 24 25  1  0  0  0
 24 46  1  0  0  0
 25 26  2  0  0  0
 25 27  1  0  0  0
 26 28  1  0  0  0
 26 47  1  0  0  0
 27 29  2  0  0  0
 27 48  1  0  0  0
 28 49  1  0  0  0
 29 50  1  0  0  0
M  END
> <s_m_entry_id>
10106

> <s_m_entry_name>
dock_pv.175

> <s_m_Source_Path>
/home/csk/Desktop/cluster/DUD-E-result/met

> <s_m_Source_File>
dock_pv.maegz

> <i_m_Source_File_Index>
175

> <chembl_id>
CHEMBL1968245

> <chembl_pref_name>
None

> <i_lp_mmshare_version>
53161

> <i_f3d_flags>
0

> <r_lp_tautomer_probability>
1

> <s_lp_Force_Field>
OPLS_2005

> <r_lp_Energy>
20.694339

> <b_lp_Chiralities_Consistent>
1

> <s_lp_Variant>
CHEMBL3717_lig3684-1

> <s_i_glide_gridfile>
glide-grid_3lq8

> <i_i_glide_lignum>
4630

> <i_i_glide_rotatable_bonds>
7

> <r_i_docking_score>
-8.14945419544145

> <r_i_glide_ligand_efficiency>
-0.281015661911774

> <r_i_glide_ligand_efficiency_sa>
-0.863369145403716

> <r_i_glide_ligand_efficiency_ln>
-1.86601835842815

> <r_i_glide_gscore>
-8.14945419544145

> <r_i_glide_lipo>
-4.16438001942366

> <r_i_glide_hbond>
-0.0682807026826226

> <r_i_glide_metal>
0

> <r_i_glide_rewards>
-2.29846540909091

> <r_i_glide_evdw>
-46.4298820495605

> <r_i_glide_ecoul>
-0.106125555932522

> <r_i_glide_erotb>
0.719084871623642

> <r_i_glide_esite>
0

> <r_i_glide_emodel>
-65.6694321689588

> <r_i_glide_energy>
-46.5360076054931

> <r_i_glide_einternal>
4.92330455780029

> <i_i_glide_confnum>
2

> <i_i_glide_posenum>
105

> <r_i_glide_eff_state_penalty>
0

> <s_user_duplicate_titles>
CHEMBL3717_lig3684

> <s_m_subgroup_title>
dock_pv

> <s_m_subgroupid>
dock_pv

> <b_m_subgroup_collapsed>
1

$$$$
CHEMBL3717_lig3622
                    3D
 Schrodinger Suite 2021-1.
 34 37  0  0  1  0            999 V2000
   -4.2518    4.5954   30.6063 C   0  0  0  0  0  0
   -4.1463    3.1949   30.5803 C   0  0  0  0  0  0
   -5.2633    2.3582   30.5151 C   0  0  0  0  0  0
   -5.5229    5.1942   30.5937 C   0  0  0  0  0  0
   -6.6606    4.3851   30.4921 C   0  0  0  0  0  0
   -6.5130    2.9794   30.4608 C   0  0  0  0  0  0
   -7.7973    2.4831   30.3630 N   0  0  0  0  0  0
   -8.7165    3.4643   30.3097 N   0  0  0  0  0  0
   -8.0664    4.5967   30.3785 C   0  0  0  0  0  0
   -3.0778    5.3999   30.5934 N   0  0  0  0  0  0
   -1.7537    5.0198   30.6096 C   0  0  0  0  0  0
   -1.0172    6.1595   30.3107 C   0  0  0  0  0  0
   -1.8456    7.1782   30.2006 N   0  0  0  0  0  0
   -3.1340    6.7287   30.4096 N   0  0  0  0  0  0
    0.4692    6.3525   30.0756 C   0  0  0  0  0  0
    1.3003    5.1039   30.3354 C   0  0  0  0  0  0
    1.7326    4.3110   29.2679 C   0  0  0  0  0  0
    2.5076    3.1804   29.5126 C   0  0  0  0  0  0
    2.8521    2.8508   30.8224 C   0  0  0  0  0  0
    2.4170    3.6325   31.8896 C   0  0  0  0  0  0
    1.6326    4.7560   31.6467 C   0  0  0  0  0  0
   -3.1788    2.7169   30.5986 H   0  0  0  0  0  0
   -5.1577    1.2831   30.4893 H   0  0  0  0  0  0
   -5.6389    6.2694   30.5999 H   0  0  0  0  0  0
   -8.0837    1.5159   30.3182 H   0  0  0  0  0  0
   -8.5925    5.5399   30.3293 H   0  0  0  0  0  0
   -1.4475    3.9927   30.7388 H   0  0  0  0  0  0
    0.8344    7.1482   30.7235 H   0  0  0  0  0  0
    0.6517    6.7003   29.0577 H   0  0  0  0  0  0
    1.4692    4.5660   28.2515 H   0  0  0  0  0  0
    2.8384    2.5614   28.6907 H   0  0  0  0  0  0
    3.4552    1.9753   31.0116 H   0  0  0  0  0  0
    2.6848    3.3671   32.9018 H   0  0  0  0  0  0
    1.2907    5.3600   32.4748 H   0  0  0  0  0  0
  1 10  1  0  0  0
  1  2  2  0  0  0
  1  4  1  0  0  0
  2  3  1  0  0  0
  2 22  1  0  0  0
  3  6  2  0  0  0
  3 23  1  0  0  0
  4  5  2  0  0  0
  4 24  1  0  0  0
  5  6  1  0  0  0
  5  9  1  0  0  0
  6  7  1  0  0  0
  7  8  1  0  0  0
  7 25  1  0  0  0
  8  9  2  0  0  0
  9 26  1  0  0  0
 10 11  1  0  0  0
 10 14  1  0  0  0
 11 12  2  0  0  0
 11 27  1  0  0  0
 12 13  1  0  0  0
 12 15  1  0  0  0
 13 14  2  0  0  0
 15 16  1  0  0  0
 15 28  1  0  0  0
 15 29  1  0  0  0
 16 17  2  0  0  0
 16 21  1  0  0  0
 17 18  1  0  0  0
 17 30  1  0  0  0
 18 19  2  0  0  0
 18 31  1  0  0  0
 19 20  1  0  0  0
 19 32  1  0  0  0
 20 21  2  0  0  0
 20 33  1  0  0  0
 21 34  1  0  0  0
M  END
> <s_m_entry_id>
10107

> <s_m_entry_name>
dock_pv.176

> <s_m_Source_Path>
/home/csk/Desktop/cluster/DUD-E-result/met

> <s_m_Source_File>
dock_pv.maegz

> <i_m_Source_File_Index>
176

> <chembl_id>
CHEMBL1682341

> <chembl_pref_name>
None

> <i_lp_mmshare_version>
53161

> <i_f3d_flags>
0

> <r_lp_tautomer_probability>
1

> <s_lp_Force_Field>
OPLS_2005

> <r_lp_Energy>
12.540796

> <b_lp_Chiralities_Consistent>
1

> <s_lp_Variant>
CHEMBL3717_lig3622-1

> <s_i_glide_gridfile>
glide-grid_3lq8

> <i_i_glide_lignum>
4519

> <i_i_glide_rotatable_bonds>
3

> <r_i_docking_score>
-8.14558923857954

> <r_i_glide_ligand_efficiency>
-0.387885201837121

> <r_i_glide_ligand_efficiency_sa>
-1.07014585992288

> <r_i_glide_ligand_efficiency_ln>
-2.01398047952591

> <r_i_glide_gscore>
-8.14558923857954

> <r_i_glide_lipo>
-3.9006342823875

> <r_i_glide_hbond>
0

> <r_i_glide_metal>
0

> <r_i_glide_rewards>
-2.66850063796786

> <r_i_glide_evdw>
-37.87353515625

> <r_i_glide_ecoul>
-2.62749052047729

> <r_i_glide_erotb>
0.711346017659921

> <r_i_glide_esite>
0

> <r_i_glide_emodel>
-59.1344336183158

> <r_i_glide_energy>
-40.5010256767273

> <r_i_glide_einternal>
0.161056742072105

> <i_i_glide_confnum>
9

> <i_i_glide_posenum>
199

> <r_i_glide_eff_state_penalty>
0

> <s_user_duplicate_titles>
CHEMBL3717_lig3622

> <s_m_subgroup_title>
dock_pv

> <s_m_subgroupid>
dock_pv

> <b_m_subgroup_collapsed>
1

$$$$
CHEMBL3717_lig671
                    3D
 Schrodinger Suite 2021-1.
 50 54  0  0  1  0            999 V2000
   -1.7355    6.3563   30.6080 C   0  0  0  0  0  0
   -3.0106    6.8957   30.6082 C   0  0  0  0  0  0
   -4.1365    6.0932   30.5900 C   0  0  0  0  0  0
   -1.5225    4.9818   30.6399 C   0  0  0  0  0  0
   -2.6762    4.1300   30.6081 C   0  0  0  0  0  0
   -3.9880    4.6986   30.5457 C   0  0  0  0  0  0
   -5.1143    3.9433   30.4454 N   0  0  0  0  0  0
   -4.9789    2.5983   30.4179 C   0  0  0  0  0  0
   -3.7563    1.9369   30.5390 C   0  0  0  0  0  0
   -2.6032    2.7238   30.6378 C   0  0  0  0  0  0
   -3.6987    0.5536   30.5871 N   0  0  0  0  0  0
   -4.5611   -0.3542   29.8090 C   0  0  0  0  0  0
   -5.2792   -1.4051   30.6888 C   0  0  0  0  0  0
   -4.3047   -2.1552   31.4854 N   0  0  0  0  0  0
   -3.5839   -1.2188   32.3464 C   0  0  0  0  0  0
   -2.8089   -0.2033   31.4784 C   0  0  0  0  0  0
   -4.9727   -3.1803   32.2799 C   0  0  0  0  0  0
   -0.1054    4.5151   30.6630 C   0  0  0  0  0  0
    0.4880    3.9345   29.5432 C   0  0  0  0  0  0
    2.0628    4.5223   31.7797 C   0  0  0  0  0  0
    0.7066    4.7940   31.7605 C   0  0  0  0  0  0
    2.6904    4.0763   30.6100 C   0  0  0  0  0  0
    1.8884    3.7780   29.4672 C   0  0  0  0  0  0
    2.5174    3.3908   28.2684 C   0  0  0  0  0  0
    3.9016    3.3569   28.2082 C   0  0  0  0  0  0
    4.6850    3.6271   29.3257 C   0  0  0  0  0  0
    4.0945    3.9684   30.5317 C   0  0  0  0  0  0
   -0.8907    7.0308   30.6067 H   0  0  0  0  0  0
   -3.1224    7.9573   30.6374 H   0  0  0  0  0  0
   -5.1256    6.5310   30.5728 H   0  0  0  0  0  0
   -5.9034    2.0438   30.3577 H   0  0  0  0  0  0
   -1.6282    2.2903   30.7195 H   0  0  0  0  0  0
   -5.3035    0.2052   29.2404 H   0  0  0  0  0  0
   -3.9502   -0.8486   29.0513 H   0  0  0  0  0  0
   -5.8306   -2.0931   30.0454 H   0  0  0  0  0  0
   -6.0145   -0.9169   31.3323 H   0  0  0  0  0  0
   -4.2750   -0.6917   33.0080 H   0  0  0  0  0  0
   -2.8849   -1.7643   32.9830 H   0  0  0  0  0  0
   -2.2670    0.4756   32.1378 H   0  0  0  0  0  0
   -2.0565   -0.7097   30.8749 H   0  0  0  0  0  0
   -5.6941   -2.7494   32.9766 H   0  0  0  0  0  0
   -4.2446   -3.7561   32.8521 H   0  0  0  0  0  0
   -5.4998   -3.8834   31.6333 H   0  0  0  0  0  0
   -0.0937    3.6859   28.6718 H   0  0  0  0  0  0
    2.6560    4.7561   32.6503 H   0  0  0  0  0  0
    0.3045    5.2838   32.6121 H   0  0  0  0  0  0
    1.9237    3.1689   27.3926 H   0  0  0  0  0  0
    4.3747    3.0982   27.2772 H   0  0  0  0  0  0
    5.7608    3.5610   29.2520 H   0  0  0  0  0  0
    4.7012    4.2005   31.3952 H   0  0  0  0  0  0
  1  2  2  0  0  0
  1  4  1  0  0  0
  1 28  1  0  0  0
  2  3  1  0  0  0
  2 29  1  0  0  0
  3  6  2  0  0  0
  3 30  1  0  0  0
  4  5  2  0  0  0
  4 18  1  0  0  0
  5 10  1  0  0  0
  5  6  1  0  0  0
  6  7  1  0  0  0
  7  8  2  0  0  0
  8  9  1  0  0  0
  8 31  1  0  0  0
  9 10  2  0  0  0
  9 11  1  0  0  0
 10 32  1  0  0  0
 11 16  1  0  0  0
 11 12  1  0  0  0
 12 13  1  0  0  0
 12 33  1  0  0  0
 12 34  1  0  0  0
 13 14  1  0  0  0
 13 35  1  0  0  0
 13 36  1  0  0  0
 14 15  1  0  0  0
 14 17  1  0  0  0
 15 16  1  0  0  0
 15 37  1  0  0  0
 15 38  1  0  0  0
 16 39  1  0  0  0
 16 40  1  0  0  0
 17 41  1  0  0  0
 17 42  1  0  0  0
 17 43  1  0  0  0
 18 19  2  0  0  0
 18 21  1  0  0  0
 19 23  1  0  0  0
 19 44  1  0  0  0
 20 22  1  0  0  0
 20 21  2  0  0  0
 20 45  1  0  0  0
 21 46  1  0  0  0
 22 23  1  0  0  0
 22 27  2  0  0  0
 23 24  2  0  0  0
 24 25  1  0  0  0
 24 47  1  0  0  0
 25 26  2  0  0  0
 25 48  1  0  0  0
 26 27  1  0  0  0
 26 49  1  0  0  0
 27 50  1  0  0  0
M  END
> <s_m_entry_id>
10108

> <s_m_entry_name>
dock_pv.177

> <s_m_Source_Path>
/home/csk/Desktop/cluster/DUD-E-result/met

> <s_m_Source_File>
dock_pv.maegz

> <i_m_Source_File_Index>
177

> <chembl_id>
CHEMBL1766522

> <chembl_pref_name>
None

> <i_lp_mmshare_version>
53161

> <i_f3d_flags>
0

> <r_lp_tautomer_probability>
1

> <s_lp_Force_Field>
OPLS_2005

> <r_lp_Energy>
52.387816

> <b_lp_Chiralities_Consistent>
1

> <s_lp_Variant>
CHEMBL3717_lig671-1

> <s_i_glide_gridfile>
glide-grid_3lq8

> <i_i_glide_lignum>
729

> <i_i_glide_rotatable_bonds>
2

> <r_i_docking_score>
-8.1453698555892

> <r_i_glide_ligand_efficiency>
-0.301680365021822

> <r_i_glide_ligand_efficiency_sa>
-0.905041094071177

> <r_i_glide_ligand_efficiency_ln>
-1.896107815464

> <r_i_glide_gscore>
-8.1453698555892

> <r_i_glide_lipo>
-4.82748543773665

> <r_i_glide_hbond>
0

> <r_i_glide_metal>
0

> <r_i_glide_rewards>
-2.06870842654672

> <r_i_glide_evdw>
-35.5950622558594

> <r_i_glide_ecoul>
1.49907553195953

> <r_i_glide_erotb>
0.305715791693209

> <r_i_glide_esite>
0

> <r_i_glide_emodel>
-44.3013530632871

> <r_i_glide_energy>
-34.0959867238998

> <r_i_glide_einternal>
6.77734756469727

> <i_i_glide_confnum>
2

> <i_i_glide_posenum>
79

> <r_i_glide_eff_state_penalty>
0

> <s_user_duplicate_titles>
CHEMBL3717_lig671

> <s_m_subgroup_title>
dock_pv

> <s_m_subgroupid>
dock_pv

> <b_m_subgroup_collapsed>
1

$$$$
CHEMBL3717_lig4094
                    3D
 Schrodinger Suite 2021-1.
 36 37  0  0  1  0            999 V2000
   -1.6938    7.6270   30.2080 Cl  0  0  0  0  0  0
   -5.0557    2.8507   30.5936 O   0  0  0  0  0  0
   -3.9401    6.3052   30.5356 N   0  0  0  0  0  0
    4.5474    3.9635   29.6833 N   0  0  0  0  0  0
   -4.2557    0.7570   28.6080 N   0  0  0  0  0  0
   -1.9433    4.9358   30.6119 C   0  0  0  0  0  0
   -2.5914    6.1789   30.5110 C   0  0  0  0  0  0
   -4.1492    3.8929   30.6062 C   0  0  0  0  0  0
   -2.7459    3.7831   30.6221 C   0  0  0  0  0  0
   -4.6884    5.1779   30.5747 C   0  0  0  0  0  0
   -0.4666    4.8586   30.6079 C   0  0  0  0  0  0
    0.2754    3.9571   29.9333 C   0  0  0  0  0  0
    1.7442    3.9284   29.8883 C   0  0  0  0  0  0
   -4.6703    1.5091   30.9111 C   0  0  0  0  0  0
    2.5330    4.3553   30.9641 C   0  0  0  0  0  0
    2.3791    3.5162   28.7111 C   0  0  0  0  0  0
   -5.0678    0.5285   29.7872 C   0  0  1  0  0  0
    3.9211    4.3519   30.8204 C   0  0  0  0  0  0
    3.7725    3.5570   28.6478 C   0  0  0  0  0  0
   -6.5502    0.5994   29.3904 C   0  0  0  0  0  0
   -3.2873    0.5875   28.8287 H   0  0  0  0  0  0
   -4.4940    0.0543   27.9042 H   0  0  0  0  0  0
   -2.2599    2.8216   30.6311 H   0  0  0  0  0  0
   -5.7591    5.3200   30.5535 H   0  0  0  0  0  0
    0.0380    5.6162   31.1910 H   0  0  0  0  0  0
   -0.2240    3.1873   29.3606 H   0  0  0  0  0  0
   -3.6243    1.3760   31.1777 H   0  0  0  0  0  0
   -5.2239    1.2313   31.8078 H   0  0  0  0  0  0
    2.0852    4.6862   31.8894 H   0  0  0  0  0  0
    1.8051    3.1834   27.8575 H   0  0  0  0  0  0
   -4.8563   -0.4856   30.1309 H   0  0  0  0  0  0
    4.5598    4.6810   31.6243 H   0  0  0  0  0  0
    4.2952    3.2389   27.7582 H   0  0  0  0  0  0
   -7.1917    0.3880   30.2462 H   0  0  0  0  0  0
   -6.8204    1.5862   29.0153 H   0  0  0  0  0  0
   -6.7905   -0.1283   28.6137 H   0  0  0  0  0  0
  1  7  1  0  0  0
  2  8  1  0  0  0
  2 14  1  0  0  0
  3  7  2  0  0  0
  3 10  1  0  0  0
  4 18  2  0  0  0
  4 19  1  0  0  0
  5 17  1  0  0  0
  5 21  1  0  0  0
  5 22  1  0  0  0
  6  7  1  0  0  0
  6  9  2  0  0  0
  6 11  1  0  0  0
  8  9  1  0  0  0
  8 10  2  0  0  0
  9 23  1  0  0  0
 10 24  1  0  0  0
 11 12  2  3  0  0
 11 25  1  0  0  0
 12 13  1  0  0  0
 12 26  1  0  0  0
 13 15  2  0  0  0
 13 16  1  0  0  0
 14 17  1  0  0  0
 14 27  1  0  0  0
 14 28  1  0  0  0
 15 18  1  0  0  0
 15 29  1  0  0  0
 16 19  2  0  0  0
 16 30  1  0  0  0
 17 20  1  0  0  0
 17 31  1  0  0  0
 18 32  1  0  0  0
 19 33  1  0  0  0
 20 34  1  0  0  0
 20 35  1  0  0  0
 20 36  1  0  0  0
M  END
> <s_m_entry_id>
10109

> <s_m_entry_name>
dock_pv.178

> <s_m_Source_Path>
/home/csk/Desktop/cluster/DUD-E-result/met

> <s_m_Source_File>
dock_pv.maegz

> <i_m_Source_File_Index>
178

> <chembl_id>
CHEMBL1993548

> <chembl_pref_name>
None

> <i_lp_mmshare_version>
53161

> <i_f3d_flags>
0

> <r_lp_tautomer_probability>
1

> <s_lp_Force_Field>
OPLS_2005

> <r_lp_Energy>
15.588349

> <b_lp_Chiralities_Consistent>
1

> <s_lp_Variant>
CHEMBL3717_lig4094-3

> <s_i_glide_gridfile>
glide-grid_3lq8

> <i_i_glide_lignum>
5229

> <i_i_glide_rotatable_bonds>
5

> <r_i_docking_score>
-8.14367110597975

> <r_i_glide_ligand_efficiency>
-0.407183555298988

> <r_i_glide_ligand_efficiency_sa>
-1.10526621458762

> <r_i_glide_ligand_efficiency_ln>
-2.03809228157731

> <r_i_glide_gscore>
-8.14367110597975

> <r_i_glide_lipo>
-3.41611925976048

> <r_i_glide_hbond>
-0.16

> <r_i_glide_metal>
0

> <r_i_glide_rewards>
-3.07528781485781

> <r_i_glide_evdw>
-35.5782051086426

> <r_i_glide_ecoul>
-3.87397766113281

> <r_i_glide_erotb>
0.867742873240586

> <r_i_glide_esite>
0

> <r_i_glide_emodel>
-55.1585252742571

> <r_i_glide_energy>
-39.4521827697754

> <r_i_glide_einternal>
4.67798948287964

> <i_i_glide_confnum>
3

> <i_i_glide_posenum>
293

> <r_i_glide_eff_state_penalty>
0

> <s_user_duplicate_titles>
CHEMBL3717_lig4094,CHEMBL3717_lig4094

> <s_m_subgroup_title>
dock_pv

> <s_m_subgroupid>
dock_pv

> <b_m_subgroup_collapsed>
1

$$$$
CHEMBL3717_lig3433
                    3D
 Schrodinger Suite 2021-1.
 50 53  0  0  1  0            999 V2000
   -6.9063    2.5269   30.9979 O   0  0  0  0  0  0
   -2.5858   -2.8429   29.9834 N   0  0  0  0  0  0
   -4.7561    2.1934   30.2862 N   0  0  0  0  0  0
   -6.4355   -0.3383   31.7095 N   0  0  0  0  0  0
   -4.2077    5.8491   30.7947 N   0  0  0  0  0  0
    4.4341    3.9632   29.7130 N   0  0  0  0  0  0
   -3.2415   -1.0082   31.0368 C   0  0  0  0  0  0
   -4.1649   -1.2587   29.9212 C   0  0  0  0  0  0
   -2.2552   -2.0424   31.0520 C   0  0  0  0  0  0
   -3.7011   -2.3811   29.3246 C   0  0  0  0  0  0
   -5.3602   -0.4824   29.4080 C   0  0  0  0  0  0
   -6.3162    0.2824   30.3758 C   0  0  2  0  0  0
   -3.1338   -0.0370   32.0587 C   0  0  0  0  0  0
   -1.2368   -2.1051   32.0206 C   0  0  0  0  0  0
   -6.0112    1.7929   30.5730 C   0  0  0  0  0  0
   -4.1598    3.4429   30.5042 C   0  0  0  0  0  0
   -2.0943   -0.0592   33.0077 C   0  0  0  0  0  0
   -1.1533   -1.1048   33.0060 C   0  0  0  0  0  0
   -2.0862    4.6718   30.7748 C   0  0  0  0  0  0
   -2.7674    3.4607   30.6081 C   0  0  0  0  0  0
   -4.8448    4.6647   30.6057 C   0  0  0  0  0  0
   -2.8529    5.8366   30.8732 C   0  0  0  0  0  0
   -0.6149    4.7442   30.7434 C   0  0  0  0  0  0
    0.1645    3.9210   30.0117 C   0  0  0  0  0  0
    1.6322    3.9343   29.9403 C   0  0  0  0  0  0
    2.4297    4.3592   31.0098 C   0  0  0  0  0  0
    2.2578    3.5233   28.7571 C   0  0  0  0  0  0
    3.8169    4.3542   30.8547 C   0  0  0  0  0  0
    3.6508    3.5568   28.6837 C   0  0  0  0  0  0
   -2.1656   -3.7475   29.7732 H   0  0  0  0  0  0
   -4.1304    1.4585   29.9898 H   0  0  0  0  0  0
   -7.1773    0.0842   32.2531 H   0  0  0  0  0  0
   -6.6614   -1.3201   31.6360 H   0  0  0  0  0  0
   -4.1548   -2.8420   28.4589 H   0  0  0  0  0  0
   -5.9751   -1.2177   28.8859 H   0  0  0  0  0  0
   -5.0085    0.1696   28.6079 H   0  0  0  0  0  0
   -7.2973    0.2707   29.8963 H   0  0  0  0  0  0
   -3.8725    0.7394   32.1356 H   0  0  0  0  0  0
   -0.5121   -2.9058   32.0003 H   0  0  0  0  0  0
   -2.0468    0.7081   33.7666 H   0  0  0  0  0  0
   -0.3659   -1.1377   33.7449 H   0  0  0  0  0  0
   -2.2108    2.5371   30.5314 H   0  0  0  0  0  0
   -5.9191    4.7267   30.5156 H   0  0  0  0  0  0
   -2.3778    6.7992   30.9829 H   0  0  0  0  0  0
   -0.1584    5.5084   31.3566 H   0  0  0  0  0  0
   -0.3079    3.1586   29.4086 H   0  0  0  0  0  0
    1.9897    4.6821   31.9418 H   0  0  0  0  0  0
    1.6768    3.1846   27.9105 H   0  0  0  0  0  0
    4.4614    4.6770   31.6571 H   0  0  0  0  0  0
    4.1658    3.2350   27.7911 H   0  0  0  0  0  0
  1 15  2  0  0  0
  2  9  1  0  0  0
  2 10  1  0  0  0
  2 30  1  0  0  0
  3 15  1  0  0  0
  3 16  1  0  0  0
  3 31  1  0  0  0
  4 12  1  0  0  0
  4 32  1  0  0  0
  4 33  1  0  0  0
  5 21  1  0  0  0
  5 22  2  0  0  0
  6 28  2  0  0  0
  6 29  1  0  0  0
  7  8  1  0  0  0
  7  9  1  0  0  0
  7 13  2  0  0  0
  8 10  2  0  0  0
  8 11  1  0  0  0
  9 14  2  0  0  0
 10 34  1  0  0  0
 11 12  1  0  0  0
 11 35  1  0  0  0
 11 36  1  0  0  0
 12 15  1  0  0  0
 12 37  1  0  0  0
 13 17  1  0  0  0
 13 38  1  0  0  0
 14 18  1  0  0  0
 14 39  1  0  0  0
 16 20  1  0  0  0
 16 21  2  0  0  0
 17 18  2  0  0  0
 17 40  1  0  0  0
 18 41  1  0  0  0
 19 20  2  0  0  0
 19 22  1  0  0  0
 19 23  1  0  0  0
 20 42  1  0  0  0
 21 43  1  0  0  0
 22 44  1  0  0  0
 23 24  2  3  0  0
 23 45  1  0  0  0
 24 25  1  0  0  0
 24 46  1  0  0  0
 25 26  2  0  0  0
 25 27  1  0  0  0
 26 28  1  0  0  0
 26 47  1  0  0  0
 27 29  2  0  0  0
 27 48  1  0  0  0
 28 49  1  0  0  0
 29 50  1  0  0  0
M  END
> <s_m_entry_id>
10110

> <s_m_entry_name>
dock_pv.179

> <s_m_Source_Path>
/home/csk/Desktop/cluster/DUD-E-result/met

> <s_m_Source_File>
dock_pv.maegz

> <i_m_Source_File_Index>
179

> <chembl_id>
CHEMBL1983945

> <chembl_pref_name>
None

> <i_lp_mmshare_version>
53161

> <i_f3d_flags>
0

> <r_lp_tautomer_probability>
1

> <s_lp_Force_Field>
OPLS_2005

> <r_lp_Energy>
22.856007

> <b_lp_Chiralities_Consistent>
1

> <s_lp_Variant>
CHEMBL3717_lig3433-1

> <s_i_glide_gridfile>
glide-grid_3lq8

> <i_i_glide_lignum>
4222

> <i_i_glide_rotatable_bonds>
7

> <r_i_docking_score>
-8.14295504772161

> <r_i_glide_ligand_efficiency>
-0.280791553369711

> <r_i_glide_ligand_efficiency_sa>
-0.862680612959928

> <r_i_glide_ligand_efficiency_ln>
-1.86453021840447

> <r_i_glide_gscore>
-8.14295504772161

> <r_i_glide_lipo>
-4.43837391374166

> <r_i_glide_hbond>
-0.160140032587309

> <r_i_glide_metal>
0

> <r_i_glide_rewards>
-1.76018312801782

> <r_i_glide_evdw>
-45.9966163635254

> <r_i_glide_ecoul>
-1.4531706571579

> <r_i_glide_erotb>
0.792986291842066

> <r_i_glide_esite>
-0.0594378484669253

> <r_i_glide_emodel>
-63.866586695506

> <r_i_glide_energy>
-47.4497870206833

> <r_i_glide_einternal>
12.4719076156616

> <i_i_glide_confnum>
8

> <i_i_glide_posenum>
169

> <r_i_glide_eff_state_penalty>
0

> <s_user_duplicate_titles>
CHEMBL3717_lig3433

> <s_m_subgroup_title>
dock_pv

> <s_m_subgroupid>
dock_pv

> <b_m_subgroup_collapsed>
1

$$$$
CHEMBL3717_lig4182
                    3D
 Schrodinger Suite 2021-1.
 43 46  0  0  1  0            999 V2000
   -5.8504    3.4203   30.2078 O   0  0  0  0  0  0
   -6.5927   -2.8979   29.7681 O   0  0  0  0  0  0
   -0.7090    7.3575   29.9249 N   0  0  0  0  0  0
   -2.9380    6.4852   30.2271 N   0  0  0  0  0  0
   -3.6844    2.8283   30.6080 N   0  0  0  0  0  0
   -0.8711    5.1853   30.5236 C   0  0  0  0  0  0
    0.5268    5.5142   30.3904 C   0  0  0  0  0  0
   -1.6105    6.3660   30.2341 C   0  0  0  0  0  0
   -1.6164    4.0130   30.7516 C   0  0  0  0  0  0
    1.7010    4.6266   30.6042 C   0  0  0  0  0  0
   -3.0086    4.0672   30.6082 C   0  0  0  0  0  0
    0.5587    6.8442   30.0106 C   0  0  0  0  0  0
   -3.6151    5.3217   30.4014 C   0  0  0  0  0  0
   -4.9823    2.5559   30.3386 C   0  0  0  0  0  0
   -5.3543    1.0915   30.2004 C   0  0  0  0  0  0
    1.6438    3.6264   31.5720 C   0  0  0  0  0  0
    2.8402    4.7572   29.8063 C   0  0  0  0  0  0
   -4.4139    0.0580   30.3614 C   0  0  0  0  0  0
   -6.6779    0.7453   29.8902 C   0  0  0  0  0  0
    2.7057    2.7428   31.7311 C   0  0  0  0  0  0
    3.9038    3.8726   29.9552 C   0  0  0  0  0  0
   -6.1203   -1.6080   29.9162 C   0  0  0  0  0  0
   -4.7933   -1.2756   30.2227 C   0  0  0  0  0  0
   -7.0522   -0.5874   29.7495 C   0  0  0  0  0  0
    3.8230    2.8630   30.9098 C   0  0  0  0  0  0
   -5.6943   -3.9874   29.9374 C   0  0  0  0  0  0
   -0.8934    8.3176   29.6668 H   0  0  0  0  0  0
   -3.0950    2.0241   30.7477 H   0  0  0  0  0  0
   -1.1122    3.0709   30.9038 H   0  0  0  0  0  0
    1.4016    7.4826   29.7965 H   0  0  0  0  0  0
   -4.6836    5.4405   30.3128 H   0  0  0  0  0  0
    0.7772    3.5552   32.2084 H   0  0  0  0  0  0
    2.9001    5.5547   29.0807 H   0  0  0  0  0  0
   -3.3791    0.2590   30.5942 H   0  0  0  0  0  0
   -7.4333    1.5061   29.7572 H   0  0  0  0  0  0
    2.6635    1.9656   32.4793 H   0  0  0  0  0  0
    4.7796    3.9625   29.3304 H   0  0  0  0  0  0
   -4.0444   -2.0426   30.3525 H   0  0  0  0  0  0
   -8.0769   -0.8334   29.5134 H   0  0  0  0  0  0
    4.6437    2.1664   31.0103 H   0  0  0  0  0  0
   -6.2249   -4.9250   29.7714 H   0  0  0  0  0  0
   -5.2939   -4.0122   30.9520 H   0  0  0  0  0  0
   -4.8676   -3.9470   29.2256 H   0  0  0  0  0  0
  1 14  2  0  0  0
  2 22  1  0  0  0
  2 26  1  0  0  0
  3  8  1  0  0  0
  3 12  1  0  0  0
  3 27  1  0  0  0
  4  8  2  0  0  0
  4 13  1  0  0  0
  5 11  1  0  0  0
  5 14  1  0  0  0
  5 28  1  0  0  0
  6  7  1  0  0  0
  6  8  1  0  0  0
  6  9  2  0  0  0
  7 10  1  0  0  0
  7 12  2  0  0  0
  9 11  1  0  0  0
  9 29  1  0  0  0
 10 16  2  0  0  0
 10 17  1  0  0  0
 11 13  2  0  0  0
 12 30  1  0  0  0
 13 31  1  0  0  0
 14 15  1  0  0  0
 15 18  2  0  0  0
 15 19  1  0  0  0
 16 20  1  0  0  0
 16 32  1  0  0  0
 17 21  2  0  0  0
 17 33  1  0  0  0
 18 23  1  0  0  0
 18 34  1  0  0  0
 19 24  2  0  0  0
 19 35  1  0  0  0
 20 25  2  0  0  0
 20 36  1  0  0  0
 21 25  1  0  0  0
 21 37  1  0  0  0
 22 23  2  0  0  0
 22 24  1  0  0  0
 23 38  1  0  0  0
 24 39  1  0  0  0
 25 40  1  0  0  0
 26 41  1  0  0  0
 26 42  1  0  0  0
 26 43  1  0  0  0
M  END
> <s_m_entry_id>
10111

> <s_m_entry_name>
dock_pv.180

> <s_m_Source_Path>
/home/csk/Desktop/cluster/DUD-E-result/met

> <s_m_Source_File>
dock_pv.maegz

> <i_m_Source_File_Index>
180

> <chembl_id>
CHEMBL1997764

> <chembl_pref_name>
None

> <i_lp_mmshare_version>
53161

> <i_f3d_flags>
0

> <r_lp_tautomer_probability>
0.999998432528457

> <s_lp_Force_Field>
OPLS_2005

> <r_lp_Energy>
26.828136

> <b_lp_Chiralities_Consistent>
1

> <s_lp_Variant>
CHEMBL3717_lig4182-1

> <s_i_glide_gridfile>
glide-grid_3lq8

> <i_i_glide_lignum>
5364

> <i_i_glide_rotatable_bonds>
5

> <r_i_docking_score>
-8.14128010787508

> <r_i_glide_ligand_efficiency>
-0.313126157995195

> <r_i_glide_ligand_efficiency_sa>
-0.92763501096883

> <r_i_glide_ligand_efficiency_ln>
-1.91195291961556

> <r_i_glide_gscore>
-8.14128010787508

> <r_i_glide_lipo>
-3.49238093865698

> <r_i_glide_hbond>
-0.315678199963073

> <r_i_glide_metal>
0

> <r_i_glide_rewards>
-2.48902443348297

> <r_i_glide_evdw>
-38.8182258605957

> <r_i_glide_ecoul>
-2.35913133621216

> <r_i_glide_erotb>
0.450584457689545

> <r_i_glide_esite>
0

> <r_i_glide_emodel>
-55.5443285235007

> <r_i_glide_energy>
-41.1773571968079

> <r_i_glide_einternal>
5.93093681335449

> <i_i_glide_confnum>
9

> <i_i_glide_posenum>
365

> <r_i_glide_eff_state_penalty>
0

> <s_user_duplicate_titles>
CHEMBL3717_lig4182

> <s_m_subgroup_title>
dock_pv

> <s_m_subgroupid>
dock_pv

> <b_m_subgroup_collapsed>
1

$$$$
CHEMBL3717_lig3876
                    3D
 Schrodinger Suite 2021-1.
 29 31  0  0  1  0            999 V2000
   -3.6281    6.3570   30.6080 S   0  0  0  0  0  0
    1.5257    4.4096   28.2228 F   0  0  0  0  0  0
   -5.8632    4.3278   30.6209 O   0  0  0  0  0  0
    0.3060    6.7570   30.2080 N   0  0  0  0  0  0
   -0.9161    7.3353   30.1801 N   0  0  0  0  0  0
   -4.5529    2.5198   30.2080 N   0  0  0  0  0  0
   -1.2747    5.1920   30.6080 C   0  0  0  0  0  0
    0.1170    5.4884   30.4862 C   0  0  0  0  0  0
   -1.8966    6.4181   30.4308 C   0  0  0  0  0  0
   -3.5306    4.5929   30.6080 C   0  0  0  0  0  0
    1.2507    4.5456   30.5962 C   0  0  0  0  0  0
   -2.2188    4.1384   30.7668 C   0  0  0  0  0  0
   -4.7479    3.8188   30.4981 C   0  0  0  0  0  0
    1.9130    4.0474   29.4672 C   0  0  0  0  0  0
    1.6482    4.1345   31.8691 C   0  0  0  0  0  0
    2.9760    3.1573   29.6206 C   0  0  0  0  0  0
    2.7060    3.2413   32.0192 C   0  0  0  0  0  0
    3.3741    2.7573   30.8966 C   0  0  0  0  0  0
   -5.6164    1.5410   30.0072 C   0  0  0  0  0  0
   -0.9947    8.3253   29.9848 H   0  0  0  0  0  0
   -3.6082    2.1747   30.1467 H   0  0  0  0  0  0
   -1.9345    3.1018   30.8727 H   0  0  0  0  0  0
    1.1380    4.5084   32.7450 H   0  0  0  0  0  0
    3.4845    2.7724   28.7484 H   0  0  0  0  0  0
    3.0081    2.9262   33.0071 H   0  0  0  0  0  0
    4.1948    2.0648   31.0115 H   0  0  0  0  0  0
   -5.3942    0.9266   29.1342 H   0  0  0  0  0  0
   -6.5923    2.0031   29.8498 H   0  0  0  0  0  0
   -5.6873    0.8840   30.8745 H   0  0  0  0  0  0
  1  9  1  0  0  0
  1 10  1  0  0  0
  2 14  1  0  0  0
  3 13  2  0  0  0
  4  5  1  0  0  0
  4  8  2  0  0  0
  5  9  1  0  0  0
  5 20  1  0  0  0
  6 13  1  0  0  0
  6 19  1  0  0  0
  6 21  1  0  0  0
  7  8  1  0  0  0
  7  9  2  0  0  0
  7 12  1  0  0  0
  8 11  1  0  0  0
 10 12  2  0  0  0
 10 13  1  0  0  0
 11 14  1  0  0  0
 11 15  2  0  0  0
 12 22  1  0  0  0
 14 16  2  0  0  0
 15 17  1  0  0  0
 15 23  1  0  0  0
 16 18  1  0  0  0
 16 24  1  0  0  0
 17 18  2  0  0  0
 17 25  1  0  0  0
 18 26  1  0  0  0
 19 27  1  0  0  0
 19 28  1  0  0  0
 19 29  1  0  0  0
M  END
> <s_m_entry_id>
10112

> <s_m_entry_name>
dock_pv.181

> <s_m_Source_Path>
/home/csk/Desktop/cluster/DUD-E-result/met

> <s_m_Source_File>
dock_pv.maegz

> <i_m_Source_File_Index>
181

> <chembl_id>
CHEMBL1977681

> <chembl_pref_name>
None

> <i_lp_mmshare_version>
53161

> <i_f3d_flags>
0

> <r_lp_tautomer_probability>
1

> <s_lp_Force_Field>
OPLS_2005

> <r_lp_Energy>
44.198819

> <b_lp_Chiralities_Consistent>
1

> <s_lp_Variant>
CHEMBL3717_lig3876-1

> <s_i_glide_gridfile>
glide-grid_3lq8

> <i_i_glide_lignum>
4921

> <i_i_glide_rotatable_bonds>
3

> <r_i_docking_score>
-8.13747224479097

> <r_i_glide_ligand_efficiency>
-0.428288012883735

> <r_i_glide_ligand_efficiency_sa>
-1.14284443858513

> <r_i_glide_ligand_efficiency_ln>
-2.06302399093283

> <r_i_glide_gscore>
-8.13747224479097

> <r_i_glide_lipo>
-3.62689896179696

> <r_i_glide_hbond>
-0.194910142585087

> <r_i_glide_metal>
0

> <r_i_glide_rewards>
-2.86043181827633

> <r_i_glide_evdw>
-35.8034629821777

> <r_i_glide_ecoul>
-0.928702175617218

> <r_i_glide_erotb>
0.474247153318883

> <r_i_glide_esite>
0

> <r_i_glide_emodel>
-50.8168090888261

> <r_i_glide_energy>
-36.732165157795

> <r_i_glide_einternal>
5.16462373733521

> <i_i_glide_confnum>
5

> <i_i_glide_posenum>
155

> <r_i_glide_eff_state_penalty>
0

> <s_user_duplicate_titles>
CHEMBL3717_lig3876

> <s_m_subgroup_title>
dock_pv

> <s_m_subgroupid>
dock_pv

> <b_m_subgroup_collapsed>
1

$$$$
CHEMBL3717_lig4078
                    3D
 Schrodinger Suite 2021-1.
 47 50  0  0  1  0            999 V2000
    4.1745    3.1300   30.6085 F   0  0  0  0  0  0
   -4.7214    3.7088   30.5182 O   0  0  0  0  0  0
   -4.0626   -2.1852   29.5140 N   0  0  0  0  0  0
   -2.7441    6.7579   30.6080 N   0  0  0  0  0  0
   -6.7478    1.5568   29.6373 N   0  0  0  0  0  0
   -3.6480   -0.9858   31.3676 C   0  0  0  0  0  0
   -4.9856   -0.6844   30.9261 C   0  0  0  0  0  0
   -3.0952   -1.9338   30.4567 C   0  0  0  0  0  0
   -5.1902   -1.4622   29.8052 C   0  0  0  0  0  0
   -1.1784    4.8978   30.6190 C   0  0  0  0  0  0
   -5.9498    0.2958   31.5654 C   0  0  0  0  0  0
    0.2312    4.4227   30.6200 C   0  0  0  0  0  0
   -2.8532   -0.5522   32.4410 C   0  0  0  0  0  0
   -1.8049   -2.4430   30.5984 C   0  0  0  0  0  0
   -3.5846    4.4889   30.5837 C   0  0  0  0  0  0
   -2.2611    4.0065   30.6086 C   0  0  0  0  0  0
   -5.9981    1.6772   30.8753 C   0  0  1  0  0  0
   -1.4795    6.2639   30.6078 C   0  0  0  0  0  0
   -1.5880   -1.1090   32.6200 C   0  0  0  0  0  0
   -1.0826   -2.0432   31.7202 C   0  0  0  0  0  0
    0.7059    3.5916   29.5980 C   0  0  0  0  0  0
    1.1064    4.8053   31.6422 C   0  0  0  0  0  0
   -3.7671    5.8705   30.5961 C   0  0  0  0  0  0
   -4.6019    2.2910   30.5992 C   0  0  0  0  0  0
    2.8871    3.5441   30.6129 C   0  0  0  0  0  0
    2.0287    3.1573   29.5882 C   0  0  0  0  0  0
    2.4268    4.3571   31.6447 C   0  0  0  0  0  0
   -3.9991   -2.8019   28.7157 H   0  0  0  0  0  0
   -6.7405    2.4446   29.1574 H   0  0  0  0  0  0
   -6.2792    0.8926   29.0370 H   0  0  0  0  0  0
   -6.0544   -1.5413   29.1588 H   0  0  0  0  0  0
   -6.9552   -0.1281   31.6128 H   0  0  0  0  0  0
   -5.6753    0.4434   32.6071 H   0  0  0  0  0  0
   -3.2342    0.1734   33.1410 H   0  0  0  0  0  0
   -1.4039   -3.1660   29.9038 H   0  0  0  0  0  0
   -2.0577    2.9460   30.5973 H   0  0  0  0  0  0
   -6.5581    2.3516   31.5246 H   0  0  0  0  0  0
   -0.6891    7.0017   30.6064 H   0  0  0  0  0  0
   -0.9845   -0.8053   33.4634 H   0  0  0  0  0  0
   -0.0941   -2.4489   31.8723 H   0  0  0  0  0  0
    0.0485    3.2779   28.8033 H   0  0  0  0  0  0
    0.7641    5.4450   32.4421 H   0  0  0  0  0  0
   -4.7648    6.2863   30.5768 H   0  0  0  0  0  0
   -3.9285    2.0195   31.4071 H   0  0  0  0  0  0
   -4.1607    1.8918   29.6823 H   0  0  0  0  0  0
    2.3823    2.5144   28.7949 H   0  0  0  0  0  0
    3.0996    4.6523   32.4370 H   0  0  0  0  0  0
  1 25  1  0  0  0
  2 15  1  0  0  0
  2 24  1  0  0  0
  3  8  1  0  0  0
  3  9  1  0  0  0
  3 28  1  0  0  0
  4 18  2  0  0  0
  4 23  1  0  0  0
  5 17  1  0  0  0
  5 29  1  0  0  0
  5 30  1  0  0  0
  6  7  1  0  0  0
  6  8  1  0  0  0
  6 13  2  0  0  0
  7  9  2  0  0  0
  7 11  1  0  0  0
  8 14  2  0  0  0
  9 31  1  0  0  0
 10 12  1  0  0  0
 10 16  2  0  0  0
 10 18  1  0  0  0
 11 17  1  0  0  0
 11 32  1  0  0  0
 11 33  1  0  0  0
 12 21  2  0  0  0
 12 22  1  0  0  0
 13 19  1  0  0  0
 13 34  1  0  0  0
 14 20  1  0  0  0
 14 35  1  0  0  0
 15 16  1  0  0  0
 15 23  2  0  0  0
 16 36  1  0  0  0
 17 24  1  0  0  0
 17 37  1  0  0  0
 18 38  1  0  0  0
 19 20  2  0  0  0
 19 39  1  0  0  0
 20 40  1  0  0  0
 21 26  1  0  0  0
 21 41  1  0  0  0
 22 27  2  0  0  0
 22 42  1  0  0  0
 23 43  1  0  0  0
 24 44  1  0  0  0
 24 45  1  0  0  0
 25 26  2  0  0  0
 25 27  1  0  0  0
 26 46  1  0  0  0
 27 47  1  0  0  0
M  END
> <s_m_entry_id>
10113

> <s_m_entry_name>
dock_pv.182

> <s_m_Source_Path>
/home/csk/Desktop/cluster/DUD-E-result/met

> <s_m_Source_File>
dock_pv.maegz

> <i_m_Source_File_Index>
182

> <chembl_id>
CHEMBL1996543

> <chembl_pref_name>
None

> <i_lp_mmshare_version>
53161

> <i_f3d_flags>
0

> <r_lp_tautomer_probability>
1

> <s_lp_Force_Field>
OPLS_2005

> <r_lp_Energy>
24.391055

> <b_lp_Chiralities_Consistent>
1

> <s_lp_Variant>
CHEMBL3717_lig4078-2

> <s_i_glide_gridfile>
glide-grid_3lq8

> <i_i_glide_lignum>
5202

> <i_i_glide_rotatable_bonds>
6

> <r_i_docking_score>
-8.13403087072096

> <r_i_glide_ligand_efficiency>
-0.301260402619295

> <r_i_glide_ligand_efficiency_sa>
-0.90378120686498

> <r_i_glide_ligand_efficiency_ln>
-1.89346828672445

> <r_i_glide_gscore>
-8.13403087072096

> <r_i_glide_lipo>
-3.82254446347303

> <r_i_glide_hbond>
-0.0649497660303418

> <r_i_glide_metal>
0

> <r_i_glide_rewards>
-2.57604721779232

> <r_i_glide_evdw>
-39.6570625305176

> <r_i_glide_ecoul>
-2.54857492446899

> <r_i_glide_erotb>
0.734588989402504

> <r_i_glide_esite>
-0.03993904763155

> <r_i_glide_emodel>
-60.9813793898926

> <r_i_glide_energy>
-42.2056374549866

> <r_i_glide_einternal>
4.70141935348511

> <i_i_glide_confnum>
2

> <i_i_glide_posenum>
107

> <r_i_glide_eff_state_penalty>
0

> <s_user_duplicate_titles>
CHEMBL3717_lig4078

> <s_m_subgroup_title>
dock_pv

> <s_m_subgroupid>
dock_pv

> <b_m_subgroup_collapsed>
1

$$$$
CHEMBL3717_lig4020
                    3D
 Schrodinger Suite 2021-1.
 45 47  0  0  1  0            999 V2000
   -4.6198    6.3570   31.0078 O   0  0  0  0  0  0
   -8.6332    4.9803   30.2022 O   0  0  0  0  0  0
   -4.9237    4.2102   30.3569 N   0  0  0  0  0  0
    4.2603    3.9626   29.7712 N   0  0  0  0  0  0
    0.1032    4.7444   30.4731 C   0  0  0  0  0  0
   -2.6690    5.0904   30.6115 C   0  0  0  0  0  0
    1.5372    4.4848   30.2396 C   0  0  0  0  0  0
   -4.1612    5.2777   30.6614 C   0  0  0  0  0  0
   -0.4562    5.9954   30.2078 C   0  0  0  0  0  0
   -0.7150    3.7034   30.9000 C   0  0  0  0  0  0
   -1.8374    6.1695   30.2756 C   0  0  0  0  0  0
   -2.0927    3.8634   30.9645 C   0  0  0  0  0  0
   -6.3704    4.0498   30.6003 C   0  0  2  0  0  0
    1.9923    4.1528   28.9574 C   0  0  0  0  0  0
    2.4592    4.5259   31.2879 C   0  0  0  0  0  0
   -6.8675    2.6273   30.2020 C   0  0  0  0  0  0
   -5.8860    1.4769   30.4205 C   0  0  0  0  0  0
    3.3506    3.8906   28.7682 C   0  0  0  0  0  0
    3.8046    4.2821   31.0078 C   0  0  0  0  0  0
   -7.2520    5.1553   29.9525 C   0  0  0  0  0  0
   -5.9030    0.7572   31.6167 C   0  0  0  0  0  0
   -4.9795    1.1325   29.4122 C   0  0  0  0  0  0
   -5.0121   -0.2963   31.8079 C   0  0  0  0  0  0
   -4.0946    0.0753   29.6007 C   0  0  0  0  0  0
   -4.1118   -0.6332   30.7996 C   0  0  0  0  0  0
   -9.1157    5.6348   29.6822 H   0  0  0  0  0  0
   -4.4455    3.3698   30.0693 H   0  0  0  0  0  0
    0.1724    6.8180   29.8974 H   0  0  0  0  0  0
   -0.2714    2.7570   31.1483 H   0  0  0  0  0  0
   -2.2549    7.1374   30.0367 H   0  0  0  0  0  0
   -2.6986    3.0239   31.2772 H   0  0  0  0  0  0
   -6.4954    4.1378   31.6810 H   0  0  0  0  0  0
    1.3032    4.0857   28.1275 H   0  0  0  0  0  0
    2.1439    4.7643   32.2933 H   0  0  0  0  0  0
   -7.1490    2.6159   29.1502 H   0  0  0  0  0  0
   -7.8056    2.4068   30.7147 H   0  0  0  0  0  0
    3.7320    3.6157   27.7970 H   0  0  0  0  0  0
    4.5462    4.3572   31.7871 H   0  0  0  0  0  0
   -6.9803    6.1519   30.2956 H   0  0  0  0  0  0
   -7.0984    5.1572   28.8778 H   0  0  0  0  0  0
   -6.5998    1.0118   32.4025 H   0  0  0  0  0  0
   -4.9618    1.6733   28.4787 H   0  0  0  0  0  0
   -5.0252   -0.8512   32.7350 H   0  0  0  0  0  0
   -3.4078   -0.2034   28.8144 H   0  0  0  0  0  0
   -3.4291   -1.4584   30.9428 H   0  0  0  0  0  0
  1  8  2  0  0  0
  2 20  1  0  0  0
  2 26  1  0  0  0
  3  8  1  0  0  0
  3 13  1  0  0  0
  3 27  1  0  0  0
  4 18  2  0  0  0
  4 19  1  0  0  0
  5  7  1  0  0  0
  5  9  2  0  0  0
  5 10  1  0  0  0
  6  8  1  0  0  0
  6 11  2  0  0  0
  6 12  1  0  0  0
  7 14  2  0  0  0
  7 15  1  0  0  0
  9 11  1  0  0  0
  9 28  1  0  0  0
 10 12  2  0  0  0
 10 29  1  0  0  0
 11 30  1  0  0  0
 12 31  1  0  0  0
 13 16  1  0  0  0
 13 20  1  0  0  0
 13 32  1  0  0  0
 14 18  1  0  0  0
 14 33  1  0  0  0
 15 19  2  0  0  0
 15 34  1  0  0  0
 16 17  1  0  0  0
 16 35  1  0  0  0
 16 36  1  0  0  0
 17 21  2  0  0  0
 17 22  1  0  0  0
 18 37  1  0  0  0
 19 38  1  0  0  0
 20 39  1  0  0  0
 20 40  1  0  0  0
 21 23  1  0  0  0
 21 41  1  0  0  0
 22 24  2  0  0  0
 22 42  1  0  0  0
 23 25  2  0  0  0
 23 43  1  0  0  0
 24 25  1  0  0  0
 24 44  1  0  0  0
 25 45  1  0  0  0
M  END
> <s_m_entry_id>
10115

> <s_m_entry_name>
dock_pv.184

> <s_m_Source_Path>
/home/csk/Desktop/cluster/DUD-E-result/met

> <s_m_Source_File>
dock_pv.maegz

> <i_m_Source_File_Index>
184

> <chembl_id>
CHEMBL1998545

> <chembl_pref_name>
None

> <i_lp_mmshare_version>
53161

> <i_f3d_flags>
0

> <r_lp_tautomer_probability>
1

> <s_lp_Force_Field>
OPLS_2005

> <r_lp_Energy>
17.302386

> <b_lp_Chiralities_Consistent>
1

> <s_lp_Variant>
CHEMBL3717_lig4020-1

> <s_i_glide_gridfile>
glide-grid_3lq8

> <i_i_glide_lignum>
5119

> <i_i_glide_rotatable_bonds>
8

> <r_i_docking_score>
-8.12505582571402

> <r_i_glide_ligand_efficiency>
-0.325002233028561

> <r_i_glide_ligand_efficiency_sa>
-0.950312293314658

> <r_i_glide_ligand_efficiency_ln>
-1.92588171896902

> <r_i_glide_gscore>
-8.12505582571402

> <r_i_glide_lipo>
-4.04713097427616

> <r_i_glide_hbond>
-0.227728137955229

> <r_i_glide_metal>
0

> <r_i_glide_rewards>
-2.46566893874934

> <r_i_glide_evdw>
-42.3191719055176

> <r_i_glide_ecoul>
-1.9423018693924

> <r_i_glide_erotb>
1.02277610095143

> <r_i_glide_esite>
0

> <r_i_glide_emodel>
-57.9209200634028

> <r_i_glide_energy>
-44.26147377491

> <r_i_glide_einternal>
11.0408620834351

> <i_i_glide_confnum>
5

> <i_i_glide_posenum>
207

> <r_i_glide_eff_state_penalty>
0

> <s_user_duplicate_titles>
CHEMBL3717_lig4020

> <s_m_subgroup_title>
dock_pv

> <s_m_subgroupid>
dock_pv

> <b_m_subgroup_collapsed>
1

$$$$
CHEMBL3717_lig3500
                    3D
 Schrodinger Suite 2021-1.
 29 31  0  0  1  0            999 V2000
    0.1412    3.3024   31.0078 Cl  0  0  0  0  0  0
   -3.0388   -2.5013   32.5655 O   0  0  0  0  0  0
   -4.2001    5.7541   30.2615 N   0  0  0  0  0  0
   -2.2298    7.1312   30.2080 N   0  0  0  0  0  0
   -3.7295   -2.8430   30.4669 N   0  0  0  0  0  0
   -2.2231    4.6908   30.6080 C   0  0  0  0  0  0
   -3.2929    3.7046   30.6080 C   0  0  0  0  0  0
   -2.8460    5.9570   30.3660 C   0  0  0  0  0  0
   -3.2543    2.2215   30.7918 C   0  0  0  0  0  0
   -0.8087    4.7094   30.7084 C   0  0  0  0  0  0
   -4.4647    4.4191   30.4006 C   0  0  0  0  0  0
   -0.1430    5.9177   30.4829 C   0  0  0  0  0  0
   -4.0349    1.4059   29.9672 C   0  0  0  0  0  0
   -2.4940    1.6401   31.8080 C   0  0  0  0  0  0
   -0.8756    7.0704   30.2080 C   0  0  0  0  0  0
   -3.3319   -0.5551   31.2104 C   0  0  0  0  0  0
   -4.0677    0.0278   30.1665 C   0  0  0  0  0  0
   -2.5590    0.2681   32.0398 C   0  0  0  0  0  0
   -3.3609   -2.0430   31.4707 C   0  0  0  0  0  0
   -4.9200    6.4361   30.0574 H   0  0  0  0  0  0
   -3.9320   -2.4733   29.5522 H   0  0  0  0  0  0
   -3.6940   -3.8551   30.6080 H   0  0  0  0  0  0
   -5.4869    4.0726   30.3319 H   0  0  0  0  0  0
    0.9365    5.9570   30.5102 H   0  0  0  0  0  0
   -4.6238    1.8375   29.1715 H   0  0  0  0  0  0
   -1.9083    2.2586   32.4712 H   0  0  0  0  0  0
   -0.3664    8.0086   30.0351 H   0  0  0  0  0  0
   -4.6841   -0.5699   29.5097 H   0  0  0  0  0  0
   -1.9872   -0.1488   32.8575 H   0  0  0  0  0  0
  1 10  1  0  0  0
  2 19  2  0  0  0
  3  8  1  0  0  0
  3 11  1  0  0  0
  3 20  1  0  0  0
  4  8  2  0  0  0
  4 15  1  0  0  0
  5 19  1  0  0  0
  5 21  1  0  0  0
  5 22  1  0  0  0
  6  7  1  0  0  0
  6  8  1  0  0  0
  6 10  2  0  0  0
  7  9  1  0  0  0
  7 11  2  0  0  0
  9 13  2  0  0  0
  9 14  1  0  0  0
 10 12  1  0  0  0
 11 23  1  0  0  0
 12 15  2  0  0  0
 12 24  1  0  0  0
 13 17  1  0  0  0
 13 25  1  0  0  0
 14 18  2  0  0  0
 14 26  1  0  0  0
 15 27  1  0  0  0
 16 17  2  0  0  0
 16 18  1  0  0  0
 16 19  1  0  0  0
 17 28  1  0  0  0
 18 29  1  0  0  0
M  END
> <s_m_entry_id>
10116

> <s_m_entry_name>
dock_pv.185

> <s_m_Source_Path>
/home/csk/Desktop/cluster/DUD-E-result/met

> <s_m_Source_File>
dock_pv.maegz

> <i_m_Source_File_Index>
185

> <chembl_id>
CHEMBL1982711

> <chembl_pref_name>
None

> <i_lp_mmshare_version>
53161

> <i_f3d_flags>
0

> <r_lp_tautomer_probability>
0.999998432528457

> <s_lp_Force_Field>
OPLS_2005

> <r_lp_Energy>
12.042337

> <b_lp_Chiralities_Consistent>
1

> <s_lp_Variant>
CHEMBL3717_lig3500-1

> <s_i_glide_gridfile>
glide-grid_3lq8

> <i_i_glide_lignum>
4325

> <i_i_glide_rotatable_bonds>
2

> <r_i_docking_score>
-8.12098425769911

> <r_i_glide_ligand_efficiency>
-0.427420224089427

> <r_i_glide_ligand_efficiency_sa>
-1.14052882953792

> <r_i_glide_ligand_efficiency_ln>
-2.05884393207555

> <r_i_glide_gscore>
-8.12098425769911

> <r_i_glide_lipo>
-2.26872993852931

> <r_i_glide_hbond>
-0.458117342674286

> <r_i_glide_metal>
0

> <r_i_glide_rewards>
-3.3099146969697

> <r_i_glide_evdw>
-22.6398658752441

> <r_i_glide_ecoul>
-6.77566242218018

> <r_i_glide_erotb>
0.169815782754293

> <r_i_glide_esite>
-0.105695405190879

> <r_i_glide_emodel>
-43.6867406698575

> <r_i_glide_energy>
-29.4155282974243

> <r_i_glide_einternal>
0.526798009872437

> <i_i_glide_confnum>
1

> <i_i_glide_posenum>
202

> <r_i_glide_eff_state_penalty>
0

> <s_user_duplicate_titles>
CHEMBL3717_lig3500

> <s_m_subgroup_title>
dock_pv

> <s_m_subgroupid>
dock_pv

> <b_m_subgroup_collapsed>
1

$$$$
CHEMBL3717_lig1095
                    3D
 Schrodinger Suite 2021-1.
 39 43  0  0  1  0            999 V2000
    0.3979    5.1172   30.2483 C   0  0  0  0  0  0
    0.3205    6.5049   30.0981 C   0  0  0  0  0  0
   -0.9133    7.1488   30.2073 C   0  0  0  0  0  0
   -0.6666    4.3174   30.5288 N   0  0  0  0  0  0
   -1.8438    4.9723   30.6080 N   0  0  0  0  0  0
   -2.0406    6.3563   30.4710 C   0  0  0  0  0  0
   -3.3512    6.6419   30.6082 N   0  0  0  0  0  0
   -3.9927    5.4226   30.7471 N   0  0  0  0  0  0
   -3.1150    4.4367   30.6874 C   0  0  0  0  0  0
   -3.3547    2.9175   30.7250 C   0  0  0  0  0  0
   -4.7414    2.2821   30.4617 C   0  0  0  0  0  0
   -7.2524    1.0728   29.9717 C   0  0  0  0  0  0
   -7.1632    2.4412   30.1963 C   0  0  0  0  0  0
   -5.9264    3.0367   30.4295 C   0  0  0  0  0  0
   -6.1003    0.2851   30.0094 C   0  0  0  0  0  0
   -4.8452    0.8833   30.2791 C   0  0  0  0  0  0
   -3.6843   -0.0321   30.3515 C   0  0  0  0  0  0
   -3.8714   -1.3417   30.1149 C   0  0  0  0  0  0
   -5.0743   -1.9098   29.8194 N   0  0  0  0  0  0
   -6.2420   -1.2194   29.7624 C   0  0  0  0  0  0
   -7.2951   -1.8103   29.5299 O   0  0  0  0  0  0
    1.6647    4.4254   29.9127 C   0  0  0  0  0  0
    1.8152    3.5606   28.8183 C   0  0  0  0  0  0
    3.1235    3.1502   28.6182 C   0  0  0  0  0  0
    4.1913    3.7528   29.8389 S   0  0  0  0  0  0
    2.8698    4.5816   30.5883 C   0  0  0  0  0  0
    1.2032    7.0754   29.8468 H   0  0  0  0  0  0
   -1.0002    8.2187   30.0770 H   0  0  0  0  0  0
   -2.9676    2.5041   31.6568 H   0  0  0  0  0  0
   -2.6980    2.4814   29.9728 H   0  0  0  0  0  0
   -8.2212    0.6330   29.7775 H   0  0  0  0  0  0
   -8.0570    3.0474   30.1760 H   0  0  0  0  0  0
   -5.9433    4.0978   30.5926 H   0  0  0  0  0  0
   -2.6955    0.3191   30.6040 H   0  0  0  0  0  0
   -3.0828   -2.0807   30.1551 H   0  0  0  0  0  0
   -5.1578   -2.9027   29.6609 H   0  0  0  0  0  0
    0.9997    3.2800   28.1683 H   0  0  0  0  0  0
    3.4983    2.5061   27.8351 H   0  0  0  0  0  0
    3.0473    5.1570   31.4809 H   0  0  0  0  0  0
  1  2  1  0  0  0
  1  4  2  0  0  0
  1 22  1  0  0  0
  2  3  2  0  0  0
  2 27  1  0  0  0
  3  6  1  0  0  0
  3 28  1  0  0  0
  4  5  1  0  0  0
  5  9  1  0  0  0
  5  6  1  0  0  0
  6  7  2  0  0  0
  7  8  1  0  0  0
  8  9  2  0  0  0
  9 10  1  0  0  0
 10 11  1  0  0  0
 10 29  1  0  0  0
 10 30  1  0  0  0
 11 14  1  0  0  0
 11 16  2  0  0  0
 12 15  2  0  0  0
 12 13  1  0  0  0
 12 31  1  0  0  0
 13 14  2  0  0  0
 13 32  1  0  0  0
 14 33  1  0  0  0
 15 16  1  0  0  0
 15 20  1  0  0  0
 16 17  1  0  0  0
 17 18  2  0  0  0
 17 34  1  0  0  0
 18 19  1  0  0  0
 18 35  1  0  0  0
 19 20  1  0  0  0
 19 36  1  0  0  0
 20 21  2  0  0  0
 22 23  1  0  0  0
 22 26  2  0  0  0
 23 24  2  0  0  0
 23 37  1  0  0  0
 24 25  1  0  0  0
 24 38  1  0  0  0
 25 26  1  0  0  0
 26 39  1  0  0  0
M  END
> <s_m_entry_id>
10117

> <s_m_entry_name>
dock_pv.186

> <s_m_Source_Path>
/home/csk/Desktop/cluster/DUD-E-result/met

> <s_m_Source_File>
dock_pv.maegz

> <i_m_Source_File_Index>
186

> <chembl_id>
CHEMBL1922410

> <chembl_pref_name>
None

> <i_lp_mmshare_version>
53161

> <i_f3d_flags>
0

> <r_lp_tautomer_probability>
1

> <s_lp_Force_Field>
OPLS_2005

> <r_lp_Energy>
22.928088

> <b_lp_Chiralities_Consistent>
1

> <s_lp_Variant>
CHEMBL3717_lig1095-1

> <s_i_glide_gridfile>
glide-grid_3lq8

> <i_i_glide_lignum>
1249

> <i_i_glide_rotatable_bonds>
3

> <r_i_docking_score>
-8.12067888893175

> <r_i_glide_ligand_efficiency>
-0.312333803420452

> <r_i_glide_ligand_efficiency_sa>
-0.925287663658918

> <r_i_glide_ligand_efficiency_ln>
-1.90711479094483

> <r_i_glide_gscore>
-8.12067888893175

> <r_i_glide_lipo>
-3.26802382458323

> <r_i_glide_hbond>
0

> <r_i_glide_metal>
0

> <r_i_glide_rewards>
-2.69954627178748

> <r_i_glide_evdw>
-44.6770401000977

> <r_i_glide_ecoul>
-2.28655743598938

> <r_i_glide_erotb>
0.445150230167008

> <r_i_glide_esite>
-0.021423402324763

> <r_i_glide_emodel>
-64.6019229305633

> <r_i_glide_energy>
-46.963597536087

> <r_i_glide_einternal>
6.43427038192749

> <i_i_glide_confnum>
5

> <i_i_glide_posenum>
192

> <r_i_glide_eff_state_penalty>
0

> <s_user_duplicate_titles>
CHEMBL3717_lig1095

> <s_m_subgroup_title>
dock_pv

> <s_m_subgroupid>
dock_pv

> <b_m_subgroup_collapsed>
1

$$$$
CHEMBL3717_lig611
                    3D
 Schrodinger Suite 2021-1.
 53 57  0  0  1  0            999 V2000
   -2.9419   -0.2014   32.1175 N   0  0  0  0  0  0
   -2.4940    1.0632   31.9414 C   0  0  0  0  0  0
   -3.0456    1.9474   31.0080 C   0  0  0  0  0  0
   -4.1558    1.5135   30.2793 C   0  0  0  0  0  0
   -4.6810    0.2268   30.4732 C   0  0  0  0  0  0
   -4.0077   -0.6103   31.3883 C   0  0  0  0  0  0
   -5.9403   -0.1460   29.7442 C   0  0  0  0  0  0
   -6.4507    0.7484   28.8358 O   0  0  0  0  0  0
   -6.6879   -1.2112   29.9583 N   0  0  0  0  0  0
   -2.5016    3.3190   30.8432 C   0  0  0  0  0  0
   -7.7899   -1.0007   29.1845 C   0  0  0  0  0  0
   -7.6470    0.2046   28.4816 C   0  0  0  0  0  0
   -8.6225    0.7047   27.6111 C   0  0  0  0  0  0
   -9.7864   -0.0571   27.4844 C   0  0  0  0  0  0
   -9.9496   -1.2616   28.1803 C   0  0  0  0  0  0
   -8.9567   -1.7593   29.0308 C   0  0  0  0  0  0
   -3.1960    4.5169   30.6089 C   0  0  0  0  0  0
   -2.4065    5.5601   30.5001 N   0  0  0  0  0  0
   -1.1635    5.0659   30.6315 N   0  0  0  0  0  0
   -1.1763    3.7144   30.8590 C   0  0  0  0  0  0
   -0.0085    5.9472   30.4171 C   0  0  0  0  0  0
    1.1060    5.8024   31.4508 C   0  0  0  0  0  0
    2.1169    4.6460   31.2274 C   0  0  0  0  0  0
    2.5509    4.6277   29.8067 N   0  0  0  0  0  0
    1.4894    4.6563   28.7724 C   0  0  0  0  0  0
    0.6070    5.8963   29.0121 C   0  0  0  0  0  0
    3.8027    4.2317   29.4244 C   0  0  0  0  0  0
    4.0667    3.9488   28.2525 O   0  0  0  0  0  0
    5.0041    4.2936   30.3955 C   0  0  0  0  0  0
   -4.3906   -1.9299   31.6094 N   0  0  0  0  0  0
    5.8472    3.1632   30.2083 O   0  0  0  0  0  0
   -1.6941    1.3681   32.6079 H   0  0  0  0  0  0
   -4.6202    2.1929   29.5788 H   0  0  0  0  0  0
   -8.4963    1.6317   27.0745 H   0  0  0  0  0  0
  -10.5727    0.2856   26.8269 H   0  0  0  0  0  0
  -10.8543   -1.8333   28.0414 H   0  0  0  0  0  0
   -9.0850   -2.6917   29.5594 H   0  0  0  0  0  0
   -4.2690    4.6191   30.5289 H   0  0  0  0  0  0
   -0.2624    3.1566   30.9626 H   0  0  0  0  0  0
   -0.4370    6.9455   30.5496 H   0  0  0  0  0  0
    0.7097    5.7736   32.4633 H   0  0  0  0  0  0
    1.6206    6.7563   31.4075 H   0  0  0  0  0  0
    1.6711    3.6854   31.4806 H   0  0  0  0  0  0
    2.9213    4.8730   31.9185 H   0  0  0  0  0  0
    1.8871    4.7482   27.7608 H   0  0  0  0  0  0
    0.8897    3.7475   28.8487 H   0  0  0  0  0  0
    1.1062    6.8438   28.8523 H   0  0  0  0  0  0
   -0.0988    5.9687   28.2088 H   0  0  0  0  0  0
    4.7490    4.3407   31.4464 H   0  0  0  0  0  0
    5.5805    5.1916   30.1686 H   0  0  0  0  0  0
   -5.1571   -2.2996   31.0628 H   0  0  0  0  0  0
   -3.8115   -2.5285   32.1778 H   0  0  0  0  0  0
    5.9061    2.9452   29.2637 H   0  0  0  0  0  0
  1  6  1  0  0  0
  1  2  2  0  0  0
  2  3  1  0  0  0
  2 32  1  0  0  0
  3  4  2  0  0  0
  3 10  1  0  0  0
  4  5  1  0  0  0
  4 33  1  0  0  0
  5  6  2  0  0  0
  5  7  1  0  0  0
  6 30  1  0  0  0
  7  8  1  0  0  0
  7  9  2  0  0  0
  8 12  1  0  0  0
  9 11  1  0  0  0
 10 17  1  0  0  0
 10 20  2  0  0  0
 11 16  1  0  0  0
 11 12  2  0  0  0
 12 13  1  0  0  0
 13 14  2  0  0  0
 13 34  1  0  0  0
 14 15  1  0  0  0
 14 35  1  0  0  0
 15 16  2  0  0  0
 15 36  1  0  0  0
 16 37  1  0  0  0
 17 18  2  0  0  0
 17 38  1  0  0  0
 18 19  1  0  0  0
 19 20  1  0  0  0
 19 21  1  0  0  0
 20 39  1  0  0  0
 21 22  1  0  0  0
 21 26  1  0  0  0
 21 40  1  0  0  0
 22 23  1  0  0  0
 22 41  1  0  0  0
 22 42  1  0  0  0
 23 24  1  0  0  0
 23 43  1  0  0  0
 23 44  1  0  0  0
 24 25  1  0  0  0
 24 27  1  0  0  0
 25 26  1  0  0  0
 25 45  1  0  0  0
 25 46  1  0  0  0
 26 47  1  0  0  0
 26 48  1  0  0  0
 27 28  2  0  0  0
 27 29  1  0  0  0
 29 31  1  0  0  0
 29 49  1  0  0  0
 29 50  1  0  0  0
 30 51  1  0  0  0
 30 52  1  0  0  0
 31 53  1  0  0  0
M  END
> <s_m_entry_id>
10118

> <s_m_entry_name>
dock_pv.187

> <s_m_Source_Path>
/home/csk/Desktop/cluster/DUD-E-result/met

> <s_m_Source_File>
dock_pv.maegz

> <i_m_Source_File_Index>
187

> <chembl_id>
CHEMBL1172131

> <chembl_pref_name>
None

> <i_lp_mmshare_version>
53161

> <i_f3d_flags>
0

> <r_lp_tautomer_probability>
0.999999772200052

> <s_lp_Force_Field>
OPLS_2005

> <r_lp_Energy>
43.981535

> <b_lp_Chiralities_Consistent>
1

> <s_lp_Variant>
CHEMBL3717_lig611-1

> <s_i_glide_gridfile>
glide-grid_3lq8

> <i_i_glide_lignum>
665

> <i_i_glide_rotatable_bonds>
6

> <r_i_docking_score>
-8.11895740460676

> <r_i_glide_ligand_efficiency>
-0.261901851761508

> <r_i_glide_ligand_efficiency_sa>
-0.822733409007329

> <r_i_glide_ligand_efficiency_ln>
-1.83107371090158

> <r_i_glide_gscore>
-8.11895740460676

> <r_i_glide_lipo>
-3.71359876222546

> <r_i_glide_hbond>
0

> <r_i_glide_metal>
0

> <r_i_glide_rewards>
-2.2620909759876

> <r_i_glide_evdw>
-39.812744140625

> <r_i_glide_ecoul>
-4.7015814781189

> <r_i_glide_erotb>
0.564661904402134

> <r_i_glide_esite>
-0.0120551420467448

> <r_i_glide_emodel>
-55.9248043526605

> <r_i_glide_energy>
-44.5143256187439

> <r_i_glide_einternal>
9.4197416305542

> <i_i_glide_confnum>
16

> <i_i_glide_posenum>
67

> <r_i_glide_eff_state_penalty>
0

> <s_user_duplicate_titles>
CHEMBL3717_lig611,648668

> <s_m_subgroup_title>
dock_pv

> <s_m_subgroupid>
dock_pv

> <b_m_subgroup_collapsed>
1

$$$$
CHEMBL3717_lig3504
                    3D
 Schrodinger Suite 2021-1.
 36 39  0  0  1  0            999 V2000
   -8.3512    5.1568   30.2080 N   0  0  0  0  0  0
   -7.6578    3.9861   30.2833 C   0  0  0  0  0  0
   -8.2306    2.8130   30.2132 N   0  0  0  0  0  0
   -7.2502    1.8948   30.2985 N   0  0  0  0  0  0
   -6.0048    2.4768   30.4178 C   0  0  0  0  0  0
   -4.7213    1.9372   30.5163 C   0  0  0  0  0  0
   -3.6648    2.8448   30.6052 C   0  0  0  0  0  0
   -3.8605    4.2331   30.6071 C   0  0  0  0  0  0
   -5.1580    4.7565   30.5319 C   0  0  0  0  0  0
   -6.2413    3.8731   30.4242 C   0  0  0  0  0  0
   -2.6695    5.1374   30.6084 C   0  0  0  0  0  0
   -1.3413    4.8196   30.8626 C   0  0  0  0  0  0
   -0.6353    5.9539   30.5518 N   0  0  0  0  0  0
    0.8023    6.1876   30.5550 C   0  0  0  0  0  0
    1.6711    4.9453   30.6660 C   0  0  0  0  0  0
    2.2868    4.4156   29.5307 C   0  0  0  0  0  0
    3.1332    3.3201   29.6552 C   0  0  0  0  0  0
    3.3465    2.7570   30.9107 C   0  0  0  0  0  0
    2.7058    3.2564   32.0395 C   0  0  0  0  0  0
    1.8700    4.3577   31.9187 C   0  0  0  0  0  0
   -1.4651    6.9407   30.2059 N   0  0  0  0  0  0
   -2.7419    6.4148   30.2637 N   0  0  0  0  0  0
   -7.9370    5.9714   29.7723 H   0  0  0  0  0  0
   -9.3591    5.1304   30.1446 H   0  0  0  0  0  0
   -7.4697    0.9093   30.2652 H   0  0  0  0  0  0
   -4.5462    0.8719   30.5074 H   0  0  0  0  0  0
   -2.6619    2.4443   30.6523 H   0  0  0  0  0  0
   -5.3263    5.8238   30.5117 H   0  0  0  0  0  0
   -0.8451    3.9052   31.1493 H   0  0  0  0  0  0
    1.0347    6.8130   31.4084 H   0  0  0  0  0  0
    1.0704    6.7632   29.6671 H   0  0  0  0  0  0
    2.1235    4.8574   28.5579 H   0  0  0  0  0  0
    3.6280    2.9123   28.7849 H   0  0  0  0  0  0
    4.0132    1.9150   31.0087 H   0  0  0  0  0  0
    2.8696    2.8048   33.0068 H   0  0  0  0  0  0
    1.3924    4.7654   32.7985 H   0  0  0  0  0  0
  1  2  1  0  0  0
  1 23  1  0  0  0
  1 24  1  0  0  0
  2  3  2  0  0  0
  2 10  1  0  0  0
  3  4  1  0  0  0
  4  5  1  0  0  0
  4 25  1  0  0  0
  5  6  2  0  0  0
  5 10  1  0  0  0
  6  7  1  0  0  0
  6 26  1  0  0  0
  7  8  2  0  0  0
  7 27  1  0  0  0
  8  9  1  0  0  0
  8 11  1  0  0  0
  9 10  2  0  0  0
  9 28  1  0  0  0
 11 12  2  0  0  0
 11 22  1  0  0  0
 12 13  1  0  0  0
 12 29  1  0  0  0
 13 14  1  0  0  0
 13 21  1  0  0  0
 14 15  1  0  0  0
 14 30  1  0  0  0
 14 31  1  0  0  0
 15 16  2  0  0  0
 15 20  1  0  0  0
 16 17  1  0  0  0
 16 32  1  0  0  0
 17 18  2  0  0  0
 17 33  1  0  0  0
 18 19  1  0  0  0
 18 34  1  0  0  0
 19 20  2  0  0  0
 19 35  1  0  0  0
 20 36  1  0  0  0
 21 22  2  0  0  0
M  END
> <s_m_entry_id>
10120

> <s_m_entry_name>
dock_pv.189

> <s_m_Source_Path>
/home/csk/Desktop/cluster/DUD-E-result/met

> <s_m_Source_File>
dock_pv.maegz

> <i_m_Source_File_Index>
189

> <chembl_id>
CHEMBL1682346

> <chembl_pref_name>
None

> <i_lp_mmshare_version>
53161

> <i_f3d_flags>
0

> <r_lp_tautomer_probability>
1

> <s_lp_Force_Field>
OPLS_2005

> <r_lp_Energy>
12.470927

> <b_lp_Chiralities_Consistent>
1

> <s_lp_Variant>
CHEMBL3717_lig3504-1

> <s_i_glide_gridfile>
glide-grid_3lq8

> <i_i_glide_lignum>
4329

> <i_i_glide_rotatable_bonds>
3

> <r_i_docking_score>
-8.11098719140066

> <r_i_glide_ligand_efficiency>
-0.368681235972757

> <r_i_glide_ligand_efficiency_sa>
-1.0330593226059

> <r_i_glide_ligand_efficiency_ln>
-1.9826211250246

> <r_i_glide_gscore>
-8.11098719140066

> <r_i_glide_lipo>
-3.91667326727895

> <r_i_glide_hbond>
0

> <r_i_glide_metal>
0

> <r_i_glide_rewards>
-2.43613399128024

> <r_i_glide_evdw>
-38.5482864379883

> <r_i_glide_ecoul>
-3.03382873535156

> <r_i_glide_erotb>
0.64860889585688

> <r_i_glide_esite>
-0.0243001964961943

> <r_i_glide_emodel>
-58.5250113981716

> <r_i_glide_energy>
-41.5821151733398

> <r_i_glide_einternal>
2.40618705749512

> <i_i_glide_confnum>
5

> <i_i_glide_posenum>
203

> <r_i_glide_eff_state_penalty>
0

> <s_user_duplicate_titles>
CHEMBL3717_lig3504

> <s_m_subgroup_title>
dock_pv

> <s_m_subgroupid>
dock_pv

> <b_m_subgroup_collapsed>
1

$$$$
CHEMBL3717_lig4047
                    3D
 Schrodinger Suite 2021-1.
 34 36  0  0  1  0            999 V2000
    1.4485    5.1570   33.0080 Cl  0  0  0  0  0  0
    5.4474    3.1551   30.2041 Cl  0  0  0  0  0  0
    0.7058    6.9323   29.5372 O   0  0  0  0  0  0
   -1.4216    3.4777   30.7407 N   0  0  0  0  0  0
   -5.0524    4.1440   30.4879 N   0  0  0  0  0  0
   -6.4642    2.1940   30.3590 N   0  0  0  0  0  0
   -1.1692    7.9570   30.2080 N   0  0  0  0  0  0
   -7.3609    4.3569   30.2080 N   0  0  0  0  0  0
   -0.4170    4.4067   30.6080 C   0  0  0  0  0  0
   -1.0316    5.6529   30.4735 C   0  0  0  0  0  0
   -2.6608    4.0682   30.6746 C   0  0  0  0  0  0
    1.0218    4.0403   30.5237 C   0  0  0  0  0  0
   -2.4141    5.4290   30.6080 C   0  0  0  0  0  0
   -3.9597    3.3391   30.6080 C   0  0  0  0  0  0
    1.9155    4.3706   31.5487 C   0  0  0  0  0  0
   -0.4039    6.8819   30.0596 C   0  0  0  0  0  0
    1.5194    3.4400   29.3587 C   0  0  0  0  0  0
    3.2590    4.0846   31.4084 C   0  0  0  0  0  0
   -4.0717    1.9427   30.6077 C   0  0  0  0  0  0
    3.7567    3.4833   30.2673 C   0  0  0  0  0  0
    2.8846    3.1626   29.2254 C   0  0  0  0  0  0
   -6.2543    3.5333   30.3646 C   0  0  0  0  0  0
   -5.3591    1.4117   30.4829 C   0  0  0  0  0  0
   -1.2670    2.4820   30.7950 H   0  0  0  0  0  0
   -2.0012    7.8978   30.7694 H   0  0  0  0  0  0
   -0.8685    8.8599   29.8375 H   0  0  0  0  0  0
   -8.2540    3.9305   30.0127 H   0  0  0  0  0  0
   -7.2072    5.3429   30.0496 H   0  0  0  0  0  0
   -3.1892    6.1769   30.5209 H   0  0  0  0  0  0
    0.8485    3.1987   28.5491 H   0  0  0  0  0  0
    3.9125    4.3570   32.2080 H   0  0  0  0  0  0
   -3.2126    1.2952   30.6922 H   0  0  0  0  0  0
    3.2584    2.7106   28.3185 H   0  0  0  0  0  0
   -5.5207    0.3430   30.4727 H   0  0  0  0  0  0
  1 15  1  0  0  0
  2 20  1  0  0  0
  3 16  2  0  0  0
  4  9  1  0  0  0
  4 11  1  0  0  0
  4 24  1  0  0  0
  5 14  1  0  0  0
  5 22  2  0  0  0
  6 22  1  0  0  0
  6 23  2  0  0  0
  7 16  1  0  0  0
  7 25  1  0  0  0
  7 26  1  0  0  0
  8 22  1  0  0  0
  8 27  1  0  0  0
  8 28  1  0  0  0
  9 10  2  0  0  0
  9 12  1  0  0  0
 10 13  1  0  0  0
 10 16  1  0  0  0
 11 13  2  0  0  0
 11 14  1  0  0  0
 12 15  1  0  0  0
 12 17  2  0  0  0
 13 29  1  0  0  0
 14 19  2  0  0  0
 15 18  2  0  0  0
 17 21  1  0  0  0
 17 30  1  0  0  0
 18 20  1  0  0  0
 18 31  1  0  0  0
 19 23  1  0  0  0
 19 32  1  0  0  0
 20 21  2  0  0  0
 21 33  1  0  0  0
 23 34  1  0  0  0
M  END
> <s_m_entry_id>
10121

> <s_m_entry_name>
dock_pv.190

> <s_m_Source_Path>
/home/csk/Desktop/cluster/DUD-E-result/met

> <s_m_Source_File>
dock_pv.maegz

> <i_m_Source_File_Index>
190

> <chembl_id>
CHEMBL1965660

> <chembl_pref_name>
None

> <i_lp_mmshare_version>
53161

> <i_f3d_flags>
0

> <r_lp_tautomer_probability>
0.999999987636

> <s_lp_Force_Field>
OPLS_2005

> <r_lp_Energy>
0.92001

> <b_lp_Chiralities_Consistent>
1

> <s_lp_Variant>
CHEMBL3717_lig4047-1

> <s_i_glide_gridfile>
glide-grid_3lq8

> <i_i_glide_lignum>
5161

> <i_i_glide_rotatable_bonds>
3

> <r_i_docking_score>
-8.10621254402343

> <r_i_glide_ligand_efficiency>
-0.352444023653193

> <r_i_glide_ligand_efficiency_sa>
-1.00230392006577

> <r_i_glide_ligand_efficiency_ln>
-1.96015569621638

> <r_i_glide_gscore>
-8.10621254402343

> <r_i_glide_lipo>
-3.29887981535553

> <r_i_glide_hbond>
-0.32

> <r_i_glide_metal>
0

> <r_i_glide_rewards>
-2.23190699763434

> <r_i_glide_evdw>
-36.3838996887207

> <r_i_glide_ecoul>
-5.00152158737183

> <r_i_glide_erotb>
0.313997491508238

> <r_i_glide_esite>
0

> <r_i_glide_emodel>
-60.0783527973494

> <r_i_glide_energy>
-41.3854212760925

> <r_i_glide_einternal>
2.32956027984619

> <i_i_glide_confnum>
5

> <i_i_glide_posenum>
354

> <r_i_glide_eff_state_penalty>
0

> <s_user_duplicate_titles>
CHEMBL3717_lig4047

> <s_m_subgroup_title>
dock_pv

> <s_m_subgroupid>
dock_pv

> <b_m_subgroup_collapsed>
1

$$$$
CHEMBL3717_lig3169 
                    3D
 Schrodinger Suite 2021-1.
 34 36  0  0  1  0            999 V2000
   -4.1761   -1.2196   30.0917 C   0  0  0  0  0  0
   -3.3636   -1.1021   31.1723 C   0  0  0  0  0  0
   -2.8941    0.1708   31.6788 C   0  0  0  0  0  0
   -4.6729   -0.1118   29.4080 N   0  0  0  0  0  0
   -4.3172    1.1533   29.8635 C   0  0  0  0  0  0
   -3.3970    1.2503   30.8814 N   0  0  0  0  0  0
   -3.0789    2.5469   31.0151 N   0  0  0  0  0  0
   -3.9288    3.1477   30.2080 C   0  0  0  0  0  0
   -4.6365    2.3398   29.4239 N   0  0  0  0  0  0
   -4.6470   -2.5480   29.5371 C   0  0  0  0  0  0
   -2.1583    0.3760   32.6455 O   0  0  0  0  0  0
   -4.1590    4.9059   30.1309 S   0  0  0  0  0  0
   -2.9203    5.6451   31.2448 C   0  0  0  0  0  0
   -1.5178    5.7076   30.6599 C   0  0  0  0  0  0
   -0.5634    4.7407   30.9992 C   0  0  0  0  0  0
    0.7569    4.8577   30.5461 C   0  0  0  0  0  0
    1.1058    5.9414   29.7479 C   0  0  0  0  0  0
    0.1654    6.9086   29.4012 C   0  0  0  0  0  0
   -1.1460    6.7895   29.8548 C   0  0  0  0  0  0
    1.8363    3.8427   30.9014 C   0  0  0  0  0  0
    2.6618    4.3573   31.8120 F   0  0  0  0  0  0
    2.5443    3.4994   29.8239 F   0  0  0  0  0  0
    1.3027    2.7464   31.4080 F   0  0  0  0  0  0
   -3.0127   -1.9909   31.6748 H   0  0  0  0  0  0
   -5.1022   -0.2519   28.5003 H   0  0  0  0  0  0
   -4.2015   -2.7289   28.5580 H   0  0  0  0  0  0
   -4.3645   -3.3730   30.1913 H   0  0  0  0  0  0
   -5.7326   -2.5662   29.4354 H   0  0  0  0  0  0
   -2.8940    5.1566   32.2104 H   0  0  0  0  0  0
   -3.2633    6.6578   31.4593 H   0  0  0  0  0  0
   -0.8430    3.9103   31.6315 H   0  0  0  0  0  0
    2.1252    5.9986   29.4080 H   0  0  0  0  0  0
    0.4497    7.7502   28.7860 H   0  0  0  0  0  0
   -1.8644    7.5535   29.5961 H   0  0  0  0  0  0
  1  2  2  0  0  0
  1  4  1  0  0  0
  1 10  1  0  0  0
  2  3  1  0  0  0
  2 24  1  0  0  0
  3  6  1  0  0  0
  3 11  2  0  0  0
  4  5  1  0  0  0
  4 25  1  0  0  0
  5  6  1  0  0  0
  5  9  2  0  0  0
  6  7  1  0  0  0
  7  8  2  0  0  0
  8  9  1  0  0  0
  8 12  1  0  0  0
 10 26  1  0  0  0
 10 27  1  0  0  0
 10 28  1  0  0  0
 12 13  1  0  0  0
 13 14  1  0  0  0
 13 29  1  0  0  0
 13 30  1  0  0  0
 14 15  2  0  0  0
 14 19  1  0  0  0
 15 16  1  0  0  0
 15 31  1  0  0  0
 16 17  2  0  0  0
 16 20  1  0  0  0
 17 18  1  0  0  0
 17 32  1  0  0  0
 18 19  2  0  0  0
 18 33  1  0  0  0
 19 34  1  0  0  0
 20 21  1  0  0  0
 20 22  1  0  0  0
 20 23  1  0  0  0
M  END
> <s_m_entry_id>
10122

> <s_m_entry_name>
dock_pv.191

> <s_m_Source_Path>
/home/csk/Desktop/cluster/DUD-E-result/met

> <s_m_Source_File>
dock_pv.maegz

> <i_m_Source_File_Index>
191

> <chembl_id>
CHEMBL4435632

> <chembl_pref_name>
None

> <i_lp_mmshare_version>
53161

> <i_f3d_flags>
0

> <r_lp_tautomer_probability>
1

> <s_lp_Force_Field>
OPLS_2005

> <r_lp_Energy>
14.566648

> <b_lp_Chiralities_Consistent>
1

> <s_lp_Variant>
CHEMBL3717_lig3169 -1

> <s_i_glide_gridfile>
glide-grid_3lq8

> <i_i_glide_lignum>
3890

> <i_i_glide_rotatable_bonds>
4

> <r_i_docking_score>
-8.105582618839

> <r_i_glide_ligand_efficiency>
-0.352416635601696

> <r_i_glide_ligand_efficiency_sa>
-1.00222603209055

> <r_i_glide_ligand_efficiency_ln>
-1.96000337459494

> <r_i_glide_gscore>
-8.105582618839

> <r_i_glide_lipo>
-3.05581977287105

> <r_i_glide_hbond>
-0.0564917621506163

> <r_i_glide_metal>
0

> <r_i_glide_rewards>
-3.42552264781656

> <r_i_glide_evdw>
-34.4273948669434

> <r_i_glide_ecoul>
-1.90180718898773

> <r_i_glide_erotb>
0.490479841163201

> <r_i_glide_esite>
-0.0515874554686513

> <r_i_glide_emodel>
-52.5264783887718

> <r_i_glide_energy>
-36.3292020559311

> <r_i_glide_einternal>
1.09565269947052

> <i_i_glide_confnum>
6

> <i_i_glide_posenum>
7

> <r_i_glide_eff_state_penalty>
0

> <s_user_duplicate_titles>
CHEMBL3717_lig3169 

> <s_m_subgroup_title>
dock_pv

> <s_m_subgroupid>
dock_pv

> <b_m_subgroup_collapsed>
1

$$$$
CHEMBL3717_lig2371
                    3D
 Schrodinger Suite 2021-1.
 43 46  0  0  1  0            999 V2000
    0.4079    5.5530   29.7044 C   0  0  0  0  0  0
    0.7059    6.4823   28.9539 O   0  0  0  0  0  0
    1.3472    4.3126   29.7640 C   0  0  0  0  0  0
    1.8833    3.9166   28.3528 C   0  0  0  0  0  0
    3.0677    2.9448   28.4151 C   0  0  0  0  0  0
    4.1621    3.4532   29.3665 C   0  0  0  0  0  0
    3.6114    3.6166   30.7802 C   0  0  0  0  0  0
    2.4365    4.5990   30.8296 C   0  0  0  0  0  0
   -0.7661    5.5596   30.3840 N   0  0  0  0  0  0
   -1.7536    6.6359   30.1765 C   0  0  0  0  0  0
   -3.1701    6.2022   30.6706 C   0  0  0  0  0  0
   -3.4883    4.7623   30.5496 N   0  0  0  0  0  0
   -2.3914    3.8733   30.9937 C   0  0  0  0  0  0
   -1.0947    4.5812   31.4079 C   0  0  0  0  0  0
   -4.9428    2.9424   30.2093 N   0  0  0  0  0  0
   -6.2299    2.5825   30.1317 N   0  0  0  0  0  0
   -7.3209    3.4452   30.2676 C   0  0  0  0  0  0
   -7.1017    4.7420   30.5090 N   0  0  0  0  0  0
   -5.8248    5.1618   30.6081 N   0  0  0  0  0  0
   -4.7930    4.2751   30.4635 C   0  0  0  0  0  0
   -8.0946    1.4362   29.8654 N   0  0  0  0  0  0
   -8.4703    2.7522   30.1080 N   0  0  0  0  0  0
   -6.7779    1.3495   29.8809 C   0  0  0  0  0  0
    0.7800    3.4383   30.0766 H   0  0  0  0  0  0
    2.2940    4.7571   27.8087 H   0  0  0  0  0  0
    1.1062    3.4313   27.7654 H   0  0  0  0  0  0
    3.4822    2.7911   27.4174 H   0  0  0  0  0  0
    2.7060    1.9685   28.7426 H   0  0  0  0  0  0
    4.5680    4.3991   29.0031 H   0  0  0  0  0  0
    4.9976    2.7572   29.4080 H   0  0  0  0  0  0
    4.4187    3.9828   31.4091 H   0  0  0  0  0  0
    3.3089    2.6466   31.1793 H   0  0  0  0  0  0
    2.0275    4.5723   31.8411 H   0  0  0  0  0  0
    2.9038    5.5570   30.6292 H   0  0  0  0  0  0
   -1.4525    7.5895   30.6089 H   0  0  0  0  0  0
   -1.8494    6.7558   29.0964 H   0  0  0  0  0  0
   -3.9365    6.8159   30.1964 H   0  0  0  0  0  0
   -3.2152    6.3870   31.7447 H   0  0  0  0  0  0
   -2.1429    3.2446   30.1389 H   0  0  0  0  0  0
   -2.7175    3.2218   31.8039 H   0  0  0  0  0  0
   -0.3005    3.8976   31.7009 H   0  0  0  0  0  0
   -1.2997    5.1620   32.2981 H   0  0  0  0  0  0
   -6.1772    0.4670   29.7163 H   0  0  0  0  0  0
  1  2  2  0  0  0
  1  3  1  0  0  0
  1  9  1  0  0  0
  3  4  1  0  0  0
  3  8  1  0  0  0
  3 24  1  0  0  0
  4  5  1  0  0  0
  4 25  1  0  0  0
  4 26  1  0  0  0
  5  6  1  0  0  0
  5 27  1  0  0  0
  5 28  1  0  0  0
  6  7  1  0  0  0
  6 29  1  0  0  0
  6 30  1  0  0  0
  7  8  1  0  0  0
  7 31  1  0  0  0
  7 32  1  0  0  0
  8 33  1  0  0  0
  8 34  1  0  0  0
  9 10  1  0  0  0
  9 14  1  0  0  0
 10 11  1  0  0  0
 10 35  1  0  0  0
 10 36  1  0  0  0
 11 12  1  0  0  0
 11 37  1  0  0  0
 11 38  1  0  0  0
 12 13  1  0  0  0
 12 20  1  0  0  0
 13 14  1  0  0  0
 13 39  1  0  0  0
 13 40  1  0  0  0
 14 41  1  0  0  0
 14 42  1  0  0  0
 15 16  1  0  0  0
 15 20  2  0  0  0
 16 17  1  0  0  0
 16 23  1  0  0  0
 17 18  1  0  0  0
 17 22  2  0  0  0
 18 19  2  0  0  0
 19 20  1  0  0  0
 21 22  1  0  0  0
 21 23  2  0  0  0
 23 43  1  0  0  0
M  END
> <s_m_entry_id>
10123

> <s_m_entry_name>
dock_pv.192

> <s_m_Source_Path>
/home/csk/Desktop/cluster/DUD-E-result/met

> <s_m_Source_File>
dock_pv.maegz

> <i_m_Source_File_Index>
192

> <chembl_id>
CHEMBL3810279

> <chembl_pref_name>
None

> <i_lp_mmshare_version>
53161

> <i_f3d_flags>
0

> <r_lp_tautomer_probability>
1

> <s_lp_Force_Field>
OPLS_2005

> <r_lp_Energy>
52.394652

> <b_lp_Chiralities_Consistent>
1

> <s_lp_Variant>
CHEMBL3717_lig2371-1

> <s_i_glide_gridfile>
glide-grid_3lq8

> <i_i_glide_lignum>
2696

> <i_i_glide_rotatable_bonds>
3

> <r_i_docking_score>
-8.10066391947784

> <r_i_glide_ligand_efficiency>
-0.352202779107732

> <r_i_glide_ligand_efficiency_sa>
-1.00161785266958

> <r_i_glide_ligand_efficiency_ln>
-1.95881398848912

> <r_i_glide_gscore>
-8.10066391947784

> <r_i_glide_lipo>
-3.01218666791372

> <r_i_glide_hbond>
0

> <r_i_glide_metal>
0

> <r_i_glide_rewards>
-3.6591131881399

> <r_i_glide_evdw>
-39.789981842041

> <r_i_glide_ecoul>
0.0142445908859372

> <r_i_glide_erotb>
0.557998340044943

> <r_i_glide_esite>
0

> <r_i_glide_emodel>
-56.2909721235431

> <r_i_glide_energy>
-39.7757372511551

> <r_i_glide_einternal>
1.54150712490082

> <i_i_glide_confnum>
27

> <i_i_glide_posenum>
52

> <r_i_glide_eff_state_penalty>
0

> <s_user_duplicate_titles>
CHEMBL3717_lig2371

> <s_m_subgroup_title>
dock_pv

> <s_m_subgroupid>
dock_pv

> <b_m_subgroup_collapsed>
1

$$$$
CHEMBL3717_lig1023
                    3D
 Schrodinger Suite 2021-1.
 48 51  0  0  1  0            999 V2000
    0.7214    6.5807   29.9472 C   0  0  0  0  0  0
   -0.1066    7.6284   29.6248 C   0  0  0  0  0  0
   -1.4753    7.5180   29.8084 C   0  0  0  0  0  0
   -1.9971    6.3230   30.2890 C   0  0  0  0  0  0
   -1.1856    5.2459   30.6077 C   0  0  0  0  0  0
    0.2063    5.3733   30.4088 C   0  0  0  0  0  0
    1.2111    4.3107   30.5560 C   0  0  0  0  0  0
    1.9745    3.9472   29.4421 C   0  0  0  0  0  0
    3.1317    3.1997   29.5982 C   0  0  0  0  0  0
    3.5054    2.7568   30.8665 C   0  0  0  0  0  0
    2.7061    3.0445   31.9690 C   0  0  0  0  0  0
    1.5710    3.8346   31.8107 C   0  0  0  0  0  0
    3.9059    2.9592   28.5202 F   0  0  0  0  0  0
   -2.0771    4.1504   30.9650 C   0  0  0  0  0  0
   -3.4469    4.6926   30.7852 C   0  0  0  0  0  0
   -3.3096    5.9732   30.4422 N   0  0  0  0  0  0
   -4.5292    4.1276   30.9165 O   0  0  0  0  0  0
   -1.6806    2.9795   31.3199 N   0  0  0  0  0  0
   -2.4940    1.9571   31.7082 N   0  0  0  0  0  0
   -3.2918    1.1852   30.9276 C   0  0  0  0  0  0
   -3.5867   -0.2221   31.5080 C   0  0  2  0  0  0
   -3.6732   -1.3247   30.4421 C   0  0  0  0  0  0
   -2.4991   -1.7471   29.8114 C   0  0  0  0  0  0
   -2.5308   -2.7820   28.8855 C   0  0  0  0  0  0
   -3.7271   -3.4266   28.6078 C   0  0  0  0  0  0
   -4.9050   -3.0124   29.2225 C   0  0  0  0  0  0
   -4.8846   -1.9516   30.1220 C   0  0  0  0  0  0
   -3.7314   -4.4906   27.7442 O   0  0  0  0  0  0
   -4.7699   -0.2027   32.4931 C   0  0  0  0  0  0
   -3.7035    1.5136   29.8133 O   0  0  0  0  0  0
    1.7852    6.6995   29.8079 H   0  0  0  0  0  0
    0.3271    8.5295   29.2257 H   0  0  0  0  0  0
   -2.0940    8.3562   29.5475 H   0  0  0  0  0  0
    1.7233    4.3219   28.4602 H   0  0  0  0  0  0
    4.4094    2.1817   30.9995 H   0  0  0  0  0  0
    2.9911    2.6969   32.9509 H   0  0  0  0  0  0
    1.0099    4.1350   32.6805 H   0  0  0  0  0  0
   -4.1067    6.5611   30.2501 H   0  0  0  0  0  0
   -2.1760    1.5223   32.5607 H   0  0  0  0  0  0
   -2.7243   -0.5101   32.1138 H   0  0  0  0  0  0
   -1.5590   -1.2795   30.0496 H   0  0  0  0  0  0
   -1.6316   -3.1062   28.4002 H   0  0  0  0  0  0
   -5.8346   -3.5160   29.0080 H   0  0  0  0  0  0
   -5.8122   -1.6474   30.5816 H   0  0  0  0  0  0
   -2.8458   -4.8429   27.5990 H   0  0  0  0  0  0
   -5.6626    0.2628   32.0717 H   0  0  0  0  0  0
   -5.0390   -1.2070   32.8233 H   0  0  0  0  0  0
   -4.4920    0.3387   33.3918 H   0  0  0  0  0  0
  1  2  1  0  0  0
  1  6  2  0  0  0
  1 31  1  0  0  0
  2  3  2  0  0  0
  2 32  1  0  0  0
  3  4  1  0  0  0
  3 33  1  0  0  0
  4  5  2  0  0  0
  4 16  1  0  0  0
  5  6  1  0  0  0
  5 14  1  0  0  0
  6  7  1  0  0  0
  7  8  2  0  0  0
  7 12  1  0  0  0
  8  9  1  0  0  0
  8 34  1  0  0  0
  9 10  2  0  0  0
  9 13  1  0  0  0
 10 11  1  0  0  0
 10 35  1  0  0  0
 11 12  2  0  0  0
 11 36  1  0  0  0
 12 37  1  0  0  0
 14 15  1  0  0  0
 14 18  2  0  0  0
 15 16  1  0  0  0
 15 17  2  0  0  0
 16 38  1  0  0  0
 18 19  1  0  0  0
 19 20  1  0  0  0
 19 39  1  0  0  0
 20 21  1  0  0  0
 20 30  2  0  0  0
 21 22  1  0  0  0
 21 29  1  0  0  0
 21 40  1  0  0  0
 22 23  2  0  0  0
 22 27  1  0  0  0
 23 24  1  0  0  0
 23 41  1  0  0  0
 24 25  2  0  0  0
 24 42  1  0  0  0
 25 26  1  0  0  0
 25 28  1  0  0  0
 26 27  2  0  0  0
 26 43  1  0  0  0
 27 44  1  0  0  0
 28 45  1  0  0  0
 29 46  1  0  0  0
 29 47  1  0  0  0
 29 48  1  0  0  0
M  END
> <s_m_entry_id>
10124

> <s_m_entry_name>
dock_pv.193

> <s_m_Source_Path>
/home/csk/Desktop/cluster/DUD-E-result/met

> <s_m_Source_File>
dock_pv.maegz

> <i_m_Source_File_Index>
193

> <chembl_id>
CHEMBL1823256

> <chembl_pref_name>
None

> <i_lp_mmshare_version>
53161

> <i_f3d_flags>
0

> <r_lp_tautomer_probability>
0.999999999997365

> <s_lp_Force_Field>
OPLS_2005

> <r_lp_Energy>
44.269769

> <b_lp_Chiralities_Consistent>
1

> <s_lp_Variant>
CHEMBL3717_lig1023-1

> <s_i_glide_gridfile>
glide-grid_3lq8

> <i_i_glide_lignum>
1137

> <i_i_glide_rotatable_bonds>
6

> <r_i_docking_score>
-8.09840886885827

> <r_i_glide_ligand_efficiency>
-0.269946962295276

> <r_i_glide_ligand_efficiency_sa>
-0.83878797517642

> <r_i_glide_ligand_efficiency_ln>
-1.84004673423663

> <r_i_glide_gscore>
-8.09840886885827

> <r_i_glide_lipo>
-3.78147507006424

> <r_i_glide_hbond>
-0.0522915401681328

> <r_i_glide_metal>
0

> <r_i_glide_rewards>
-2.900445409417

> <r_i_glide_evdw>
-33.6086692810059

> <r_i_glide_ecoul>
-1.9132239818573

> <r_i_glide_erotb>
0.60322021211999

> <r_i_glide_esite>
0

> <r_i_glide_emodel>
-47.9196676758285

> <r_i_glide_energy>
-35.5218932628632

> <r_i_glide_einternal>
10.4364852905273

> <i_i_glide_confnum>
24

> <i_i_glide_posenum>
89

> <r_i_glide_eff_state_penalty>
0

> <s_user_duplicate_titles>
CHEMBL3717_lig1023

> <s_m_subgroup_title>
dock_pv

> <s_m_subgroupid>
dock_pv

> <b_m_subgroup_collapsed>
1

$$$$
CHEMBL3717_lig3607
                    3D
 Schrodinger Suite 2021-1.
 44 47  0  0  1  0            999 V2000
   -5.6130    1.9952   29.9706 O   0  0  0  0  0  0
    3.2760    2.7570   28.0974 O   0  0  0  0  0  0
    4.9587    3.1947   30.2089 O   0  0  0  0  0  0
   -4.9829    4.7236   30.5219 N   0  0  0  0  0  0
   -4.4469    5.9504   30.6065 N   0  0  0  0  0  0
   -3.6184    1.4679   31.0079 N   0  0  0  0  0  0
   -2.8185    4.2963   30.6080 C   0  0  0  0  0  0
   -4.1003    3.6673   30.5469 C   0  0  0  0  0  0
   -3.1083    5.6931   30.6093 C   0  0  0  0  0  0
   -0.4507    4.8037   30.6081 C   0  0  0  0  0  0
   -1.4805    3.8609   30.6135 C   0  0  0  0  0  0
    0.9574    4.3631   30.5293 C   0  0  0  0  0  0
   -4.5233    2.3006   30.4547 C   0  0  0  0  0  0
   -2.0670    6.6255   30.5985 C   0  0  0  0  0  0
   -0.7521    6.1641   30.6074 C   0  0  0  0  0  0
    1.4207    3.7453   29.3667 C   0  0  0  0  0  0
    2.7627    3.3514   29.2331 C   0  0  0  0  0  0
    1.8486    4.5781   31.5806 C   0  0  0  0  0  0
    3.6401    3.5703   30.3001 C   0  0  0  0  0  0
    3.1799    4.1806   31.4660 C   0  0  0  0  0  0
   -3.6968    0.0942   31.2666 C   0  0  0  0  0  0
   -4.6583   -0.7593   30.7065 C   0  0  0  0  0  0
   -2.7338   -0.4136   32.1447 C   0  0  0  0  0  0
   -4.6663   -2.1062   31.0549 C   0  0  0  0  0  0
   -2.7290   -1.7654   32.4685 C   0  0  0  0  0  0
    2.4133    2.5486   26.9936 C   0  0  0  0  0  0
   -3.7111   -2.5963   31.9410 C   0  0  0  0  0  0
    5.1757    2.8295   29.3423 H   0  0  0  0  0  0
   -5.9836    4.6001   30.4597 H   0  0  0  0  0  0
   -2.8017    1.9194   31.3857 H   0  0  0  0  0  0
   -1.2408    2.8085   30.5808 H   0  0  0  0  0  0
   -2.2687    7.6851   30.5889 H   0  0  0  0  0  0
    0.0529    6.8854   30.5867 H   0  0  0  0  0  0
    0.7145    3.5943   28.5645 H   0  0  0  0  0  0
    1.5089    5.0595   32.4872 H   0  0  0  0  0  0
    3.8628    4.3571   32.2829 H   0  0  0  0  0  0
   -5.3975   -0.4059   30.0070 H   0  0  0  0  0  0
   -1.9892    0.2294   32.5936 H   0  0  0  0  0  0
   -5.4044   -2.7730   30.6342 H   0  0  0  0  0  0
   -1.9837   -2.1631   33.1417 H   0  0  0  0  0  0
    2.9482    2.0160   26.2079 H   0  0  0  0  0  0
    1.5424    1.9571   27.2565 H   0  0  0  0  0  0
    2.0593    3.5030   26.6080 H   0  0  0  0  0  0
   -3.7221   -3.6419   32.2080 H   0  0  0  0  0  0
  1 13  2  0  0  0
  2 17  1  0  0  0
  2 26  1  0  0  0
  3 19  1  0  0  0
  3 28  1  0  0  0
  4 29  1  0  0  0
  4  5  1  0  0  0
  4  8  1  0  0  0
  5  9  2  0  0  0
  6 13  1  0  0  0
  6 21  1  0  0  0
  6 30  1  0  0  0
  7 11  1  0  0  0
  7  9  1  0  0  0
  7  8  2  0  0  0
  8 13  1  0  0  0
  9 14  1  0  0  0
 10 15  1  0  0  0
 10 12  1  0  0  0
 10 11  2  0  0  0
 11 31  1  0  0  0
 12 16  1  0  0  0
 12 18  2  0  0  0
 14 32  1  0  0  0
 14 15  2  0  0  0
 15 33  1  0  0  0
 16 17  2  0  0  0
 16 34  1  0  0  0
 17 19  1  0  0  0
 18 20  1  0  0  0
 18 35  1  0  0  0
 19 20  2  0  0  0
 20 36  1  0  0  0
 21 22  2  0  0  0
 21 23  1  0  0  0
 22 24  1  0  0  0
 22 37  1  0  0  0
 23 25  2  0  0  0
 23 38  1  0  0  0
 24 27  2  0  0  0
 24 39  1  0  0  0
 25 27  1  0  0  0
 25 40  1  0  0  0
 26 41  1  0  0  0
 26 42  1  0  0  0
 26 43  1  0  0  0
 27 44  1  0  0  0
M  END
> <s_m_entry_id>
10125

> <s_m_entry_name>
dock_pv.194

> <s_m_Source_Path>
/home/csk/Desktop/cluster/DUD-E-result/met

> <s_m_Source_File>
dock_pv.maegz

> <i_m_Source_File_Index>
194

> <chembl_id>
CHEMBL2007002

> <chembl_pref_name>
None

> <i_lp_mmshare_version>
53161

> <i_f3d_flags>
0

> <r_lp_tautomer_probability>
0.0196078431372549

> <s_lp_Force_Field>
OPLS_2005

> <r_lp_Energy>
47.353475

> <b_lp_Chiralities_Consistent>
1

> <s_lp_Variant>
CHEMBL3717_lig3607-2

> <s_i_glide_gridfile>
glide-grid_3lq8

> <i_i_glide_lignum>
4486

> <i_i_glide_rotatable_bonds>
6

> <r_i_docking_score>
-8.09019454828953

> <r_i_glide_ligand_efficiency>
-0.299636835121834

> <r_i_glide_ligand_efficiency_sa>
-0.89891050437795

> <r_i_glide_ligand_efficiency_ln>
-1.88326391356067

> <r_i_glide_gscore>
-8.09019454828953

> <r_i_glide_lipo>
-4.03899993210524

> <r_i_glide_hbond>
0

> <r_i_glide_metal>
0

> <r_i_glide_rewards>
-2.06097692240859

> <r_i_glide_evdw>
-44.0633506774902

> <r_i_glide_ecoul>
-2.53776383399963

> <r_i_glide_erotb>
0.593614415198765

> <r_i_glide_esite>
0

> <r_i_glide_emodel>
-65.1739530927723

> <r_i_glide_energy>
-46.6011145114899

> <r_i_glide_einternal>
7.67141103744507

> <i_i_glide_confnum>
2

> <i_i_glide_posenum>
61

> <r_i_glide_eff_state_penalty>
0

> <s_user_duplicate_titles>
CHEMBL3717_lig3607,CHEMBL3717_lig3607

> <s_m_subgroup_title>
dock_pv

> <s_m_subgroupid>
dock_pv

> <b_m_subgroup_collapsed>
1

$$$$
CHEMBL3717_lig1101
                    3D
 Schrodinger Suite 2021-1.
 42 46  0  0  1  0            999 V2000
    0.2999    4.9754   30.4120 C   0  0  0  0  0  0
    0.2049    6.3600   30.1996 C   0  0  0  0  0  0
   -1.0385    6.9980   30.2080 C   0  0  0  0  0  0
   -0.7953    4.1883   30.6151 N   0  0  0  0  0  0
   -1.9782    4.8334   30.6080 N   0  0  0  0  0  0
   -2.1752    6.2107   30.4443 C   0  0  0  0  0  0
   -3.4936    6.4870   30.5318 N   0  0  0  0  0  0
   -4.1365    5.2626   30.6241 N   0  0  0  0  0  0
   -3.2468    4.2870   30.6080 C   0  0  0  0  0  0
   -3.4578    2.7670   30.6222 C   0  0  0  0  0  0
   -4.8171    2.0922   30.3376 C   0  0  0  0  0  0
   -7.2739    0.7955   29.8132 C   0  0  0  0  0  0
   -7.2234    2.1780   29.9495 C   0  0  0  0  0  0
   -6.0129    2.8171   30.2080 C   0  0  0  0  0  0
   -6.1079    0.0391   29.9498 C   0  0  0  0  0  0
   -4.8777    0.6841   30.2231 C   0  0  0  0  0  0
   -3.6939   -0.1925   30.3757 C   0  0  0  0  0  0
   -3.8439   -1.5192   30.2265 C   0  0  0  0  0  0
   -5.0260   -2.1377   29.9505 N   0  0  0  0  0  0
   -6.2070   -1.4824   29.8078 C   0  0  0  0  0  0
   -7.2398   -2.1143   29.5893 O   0  0  0  0  0  0
    1.6249    4.2826   30.4525 C   0  0  0  0  0  0
    2.7005    4.7486   29.6897 C   0  0  0  0  0  0
    3.9634    4.1704   29.7657 C   0  0  0  0  0  0
    4.1696    3.0863   30.6080 C   0  0  0  0  0  0
    3.1060    2.5660   31.3446 C   0  0  0  0  0  0
    1.8463    3.1571   31.2559 C   0  0  0  0  0  0
    4.9807    4.6581   29.0211 F   0  0  0  0  0  0
    1.0942    6.9553   30.0514 H   0  0  0  0  0  0
   -1.1198    8.0656   30.0562 H   0  0  0  0  0  0
   -3.0790    2.3571   31.5579 H   0  0  0  0  0  0
   -2.7823    2.3570   29.8725 H   0  0  0  0  0  0
   -8.2236    0.3205   29.6076 H   0  0  0  0  0  0
   -8.1274    2.7609   29.8494 H   0  0  0  0  0  0
   -6.0524    3.8869   30.2995 H   0  0  0  0  0  0
   -2.7171    0.2014   30.6079 H   0  0  0  0  0  0
   -3.0371   -2.2332   30.3229 H   0  0  0  0  0  0
   -5.0790   -3.1421   29.8621 H   0  0  0  0  0  0
    2.5531    5.5570   29.0080 H   0  0  0  0  0  0
    5.1445    2.6258   30.6527 H   0  0  0  0  0  0
    3.2507    1.6982   31.9695 H   0  0  0  0  0  0
    1.0252    2.7342   31.8080 H   0  0  0  0  0  0
  1  2  1  0  0  0
  1  4  2  0  0  0
  1 22  1  0  0  0
  2  3  2  0  0  0
  2 29  1  0  0  0
  3  6  1  0  0  0
  3 30  1  0  0  0
  4  5  1  0  0  0
  5  9  1  0  0  0
  5  6  1  0  0  0
  6  7  2  0  0  0
  7  8  1  0  0  0
  8  9  2  0  0  0
  9 10  1  0  0  0
 10 11  1  0  0  0
 10 31  1  0  0  0
 10 32  1  0  0  0
 11 14  1  0  0  0
 11 16  2  0  0  0
 12 13  1  0  0  0
 12 15  2  0  0  0
 12 33  1  0  0  0
 13 14  2  0  0  0
 13 34  1  0  0  0
 14 35  1  0  0  0
 15 16  1  0  0  0
 15 20  1  0  0  0
 16 17  1  0  0  0
 17 18  2  0  0  0
 17 36  1  0  0  0
 18 19  1  0  0  0
 18 37  1  0  0  0
 19 20  1  0  0  0
 19 38  1  0  0  0
 20 21  2  0  0  0
 22 23  2  0  0  0
 22 27  1  0  0  0
 23 24  1  0  0  0
 23 39  1  0  0  0
 24 25  2  0  0  0
 24 28  1  0  0  0
 25 26  1  0  0  0
 25 40  1  0  0  0
 26 27  2  0  0  0
 26 41  1  0  0  0
 27 42  1  0  0  0
M  END
> <s_m_entry_id>
10126

> <s_m_entry_name>
dock_pv.195

> <s_m_Source_Path>
/home/csk/Desktop/cluster/DUD-E-result/met

> <s_m_Source_File>
dock_pv.maegz

> <i_m_Source_File_Index>
195

> <chembl_id>
CHEMBL1922416

> <chembl_pref_name>
None

> <i_lp_mmshare_version>
53161

> <i_f3d_flags>
0

> <r_lp_tautomer_probability>
1

> <s_lp_Force_Field>
OPLS_2005

> <r_lp_Energy>
29.449165

> <b_lp_Chiralities_Consistent>
1

> <s_lp_Variant>
CHEMBL3717_lig1101-1

> <s_i_glide_gridfile>
glide-grid_3lq8

> <i_i_glide_lignum>
1255

> <i_i_glide_rotatable_bonds>
3

> <r_i_docking_score>
-8.0874707798674

> <r_i_glide_ligand_efficiency>
-0.288838242138121

> <r_i_glide_ligand_efficiency_sa>
-0.877083019758365

> <r_i_glide_ligand_efficiency_ln>
-1.86682571445371

> <r_i_glide_gscore>
-8.0874707798674

> <r_i_glide_lipo>
-3.18978488732026

> <r_i_glide_hbond>
0

> <r_i_glide_metal>
0

> <r_i_glide_rewards>
-2.96571370898875

> <r_i_glide_evdw>
-44.680492401123

> <r_i_glide_ecoul>
-0.66459184885025

> <r_i_glide_erotb>
0.419879348137973

> <r_i_glide_esite>
-0.0181381343126804

> <r_i_glide_emodel>
-64.0521283818667

> <r_i_glide_energy>
-45.3450842499733

> <r_i_glide_einternal>
1.40153992176056

> <i_i_glide_confnum>
11

> <i_i_glide_posenum>
42

> <r_i_glide_eff_state_penalty>
0

> <s_user_duplicate_titles>
CHEMBL3717_lig1101

> <s_m_subgroup_title>
dock_pv

> <s_m_subgroupid>
dock_pv

> <b_m_subgroup_collapsed>
1

$$$$
CHEMBL3717_lig3639
                    3D
 Schrodinger Suite 2021-1.
 32 34  0  0  1  0            999 V2000
   -3.0854    1.7821   31.0080 I   0  0  0  0  0  0
    1.8157    4.4852   29.2141 O   0  0  0  0  0  0
    2.7060    3.9553   32.6080 O   0  0  0  0  0  0
    4.6463    4.7319   30.5985 O   0  0  0  0  0  0
    2.0631    2.7571   27.0080 O   0  0  0  0  0  0
    0.1887    4.4642   30.8467 N   0  0  0  0  0  0
   -0.3832    3.2495   31.0079 N   0  0  0  0  0  0
   -0.6130    6.6769   30.2426 N   0  0  0  0  0  0
   -3.0432    6.8771   30.3168 N   0  0  0  0  0  0
   -4.4668    5.0628   30.6560 N   0  0  0  0  0  0
    1.6045    4.6216   30.5816 C   0  0  1  0  0  0
   -0.7887    5.4069   30.6115 C   0  0  0  0  0  0
   -2.0364    4.7588   30.7782 C   0  0  0  0  0  0
    2.5264    3.6066   31.2519 C   0  0  1  0  0  0
   -1.6828    3.3986   30.9854 C   0  0  0  0  0  0
    3.7261    3.6904   30.3044 C   0  0  1  0  0  0
    3.0617    3.8623   28.9278 C   0  0  1  0  0  0
   -3.1732    5.5647   30.6078 C   0  0  0  0  0  0
   -1.7822    7.3435   30.1355 C   0  0  0  0  0  0
    2.7060    2.5414   28.2339 C   0  0  0  0  0  0
    1.8896    3.7805   33.0832 H   0  0  0  0  0  0
    5.2648    4.8243   29.8689 H   0  0  0  0  0  0
    1.5522    1.9748   26.7810 H   0  0  0  0  0  0
   -4.6156    4.0824   30.8392 H   0  0  0  0  0  0
   -5.2331    5.6914   30.4591 H   0  0  0  0  0  0
    1.8665    5.6454   30.8629 H   0  0  0  0  0  0
    2.0896    2.6095   31.1712 H   0  0  0  0  0  0
    4.2870    2.7570   30.3504 H   0  0  0  0  0  0
    3.6751    4.4808   28.2708 H   0  0  0  0  0  0
   -1.6926    8.3570   29.8080 H   0  0  0  0  0  0
    2.0516    1.9570   28.8756 H   0  0  0  0  0  0
    3.5928    1.9570   28.0296 H   0  0  0  0  0  0
  1 15  1  0  0  0
  2 11  1  0  0  0
  2 17  1  0  0  0
  3 14  1  0  0  0
  3 21  1  0  0  0
  4 16  1  0  0  0
  4 22  1  0  0  0
  5 20  1  0  0  0
  5 23  1  0  0  0
  6  7  1  0  0  0
  6 11  1  0  0  0
  6 12  1  0  0  0
  7 15  2  0  0  0
  8 12  1  0  0  0
  8 19  2  0  0  0
  9 18  2  0  0  0
  9 19  1  0  0  0
 10 18  1  0  0  0
 10 24  1  0  0  0
 10 25  1  0  0  0
 11 14  1  0  0  0
 11 26  1  0  0  0
 12 13  2  0  0  0
 13 15  1  0  0  0
 13 18  1  0  0  0
 14 16  1  0  0  0
 14 27  1  0  0  0
 16 17  1  0  0  0
 16 28  1  0  0  0
 17 20  1  0  0  0
 17 29  1  0  0  0
 19 30  1  0  0  0
 20 31  1  0  0  0
 20 32  1  0  0  0
M  END
> <s_m_entry_id>
10127

> <s_m_entry_name>
dock_pv.196

> <s_m_Source_Path>
/home/csk/Desktop/cluster/DUD-E-result/met

> <s_m_Source_File>
dock_pv.maegz

> <i_m_Source_File_Index>
196

> <chembl_id>
CHEMBL2001288

> <chembl_pref_name>
None

> <i_lp_mmshare_version>
53161

> <i_f3d_flags>
0

> <r_lp_tautomer_probability>
1

> <s_lp_Force_Field>
OPLS_2005

> <r_lp_Energy>
30.770489

> <b_lp_Chiralities_Consistent>
1

> <s_lp_Variant>
CHEMBL3717_lig3639-16

> <s_i_glide_gridfile>
glide-grid_3lq8

> <i_i_glide_lignum>
4557

> <i_i_glide_rotatable_bonds>
5

> <r_i_docking_score>
-8.0837891386492

> <r_i_glide_ligand_efficiency>
-0.40418945693246

> <r_i_glide_ligand_efficiency_sa>
-1.09713898124382

> <r_i_glide_ligand_efficiency_ln>
-2.02310580019394

> <r_i_glide_gscore>
-8.0837891386492

> <r_i_glide_lipo>
-2.38665345599295

> <r_i_glide_hbond>
-0.32

> <r_i_glide_metal>
0

> <r_i_glide_rewards>
-3.25770378765517

> <r_i_glide_evdw>
-32.2054786682129

> <r_i_glide_ecoul>
-5.07935428619385

> <r_i_glide_erotb>
0.252745181338646

> <r_i_glide_esite>
0

> <r_i_glide_emodel>
-53.908319952571

> <r_i_glide_energy>
-37.2848329544067

> <r_i_glide_einternal>
4.59624576568604

> <i_i_glide_confnum>
16

> <i_i_glide_posenum>
261

> <r_i_glide_eff_state_penalty>
0

> <s_user_duplicate_titles>
CHEMBL3717_lig3639

> <s_m_subgroup_title>
dock_pv

> <s_m_subgroupid>
dock_pv

> <b_m_subgroup_collapsed>
1

$$$$
CHEMBL3717_lig4159
                    3D
 Schrodinger Suite 2021-1.
 39 40  0  0  1  0            999 V2000
    1.5061    4.9673   32.1735 O   0  0  0  0  0  0
   -0.1731    7.3211   29.9284 O   0  0  0  0  0  0
   -5.4201    3.3777   30.6021 O   0  0  0  0  0  0
    1.9083    4.7504   29.9338 N   0  0  0  0  0  0
   -4.5564    5.4859   30.3804 N   0  0  0  0  0  0
    3.5071    3.1567   28.2085 N   0  0  0  0  0  0
   -0.3784    5.0529   30.7811 C   0  0  0  0  0  0
    1.1006    4.9118   31.0128 C   0  0  0  0  0  0
   -0.9472    6.2473   30.3008 C   0  0  0  0  0  0
   -3.1708    5.2825   30.5327 C   0  0  0  0  0  0
   -1.2064    3.9744   31.0914 C   0  0  0  0  0  0
   -2.3364    6.3567   30.2081 C   0  0  0  0  0  0
   -2.5854    4.0842   30.9689 C   0  0  0  0  0  0
    3.3759    4.7542   30.1009 C   0  0  0  0  0  0
    1.3781    4.3728   28.6072 C   0  0  0  0  0  0
    3.9540    3.4340   29.5699 C   0  0  0  0  0  0
    2.0568    3.0744   28.1300 C   0  0  0  0  0  0
   -5.5651    4.5887   30.4392 C   0  0  0  0  0  0
   -6.9766    5.1560   30.2204 C   0  0  0  0  0  0
   -8.0830    4.3923   30.9826 C   0  0  0  0  0  0
   -0.6634    8.1184   29.7067 H   0  0  0  0  0  0
   -4.8316    6.4206   30.1191 H   0  0  0  0  0  0
    3.9195    2.2910   27.8839 H   0  0  0  0  0  0
   -0.7878    3.0459   31.4565 H   0  0  0  0  0  0
   -2.7627    7.2799   29.8527 H   0  0  0  0  0  0
   -3.1721    3.2184   31.2346 H   0  0  0  0  0  0
    3.7996    5.5569   29.5059 H   0  0  0  0  0  0
    3.6927    4.8968   31.1348 H   0  0  0  0  0  0
    0.3060    4.1815   28.6069 H   0  0  0  0  0  0
    1.5758    5.1580   27.8843 H   0  0  0  0  0  0
    3.6235    2.6111   30.2058 H   0  0  0  0  0  0
    5.0428    3.4345   29.6000 H   0  0  0  0  0  0
    1.7492    2.2448   28.7677 H   0  0  0  0  0  0
    1.7571    2.8154   27.1138 H   0  0  0  0  0  0
   -7.1956    5.1189   29.1515 H   0  0  0  0  0  0
   -7.0043    6.2107   30.5029 H   0  0  0  0  0  0
   -9.0536    4.8593   30.7967 H   0  0  0  0  0  0
   -7.9176    4.4115   32.0636 H   0  0  0  0  0  0
   -8.1677    3.3553   30.6484 H   0  0  0  0  0  0
  1  8  2  0  0  0
  2  9  1  0  0  0
  2 21  1  0  0  0
  3 18  2  0  0  0
  4  8  1  0  0  0
  4 14  1  0  0  0
  4 15  1  0  0  0
  5 10  1  0  0  0
  5 18  1  0  0  0
  5 22  1  0  0  0
  6 16  1  0  0  0
  6 17  1  0  0  0
  6 23  1  0  0  0
  7  8  1  0  0  0
  7  9  1  0  0  0
  7 11  2  0  0  0
  9 12  2  0  0  0
 10 12  1  0  0  0
 10 13  2  0  0  0
 11 13  1  0  0  0
 11 24  1  0  0  0
 12 25  1  0  0  0
 13 26  1  0  0  0
 14 16  1  0  0  0
 14 27  1  0  0  0
 14 28  1  0  0  0
 15 17  1  0  0  0
 15 29  1  0  0  0
 15 30  1  0  0  0
 16 31  1  0  0  0
 16 32  1  0  0  0
 17 33  1  0  0  0
 17 34  1  0  0  0
 18 19  1  0  0  0
 19 20  1  0  0  0
 19 35  1  0  0  0
 19 36  1  0  0  0
 20 37  1  0  0  0
 20 38  1  0  0  0
 20 39  1  0  0  0
M  END
> <s_m_entry_id>
10128

> <s_m_entry_name>
dock_pv.197

> <s_m_Source_Path>
/home/csk/Desktop/cluster/DUD-E-result/met

> <s_m_Source_File>
dock_pv.maegz

> <i_m_Source_File_Index>
197

> <chembl_id>
CHEMBL1988141

> <chembl_pref_name>
None

> <i_lp_mmshare_version>
53161

> <i_f3d_flags>
0

> <r_lp_tautomer_probability>
0.999999999997365

> <s_lp_Force_Field>
OPLS_2005

> <r_lp_Energy>
49.424902

> <b_lp_Chiralities_Consistent>
1

> <s_lp_Variant>
CHEMBL3717_lig4159-1

> <s_i_glide_gridfile>
glide-grid_3lq8

> <i_i_glide_lignum>
5321

> <i_i_glide_rotatable_bonds>
6

> <r_i_docking_score>
-8.08144951409304

> <r_i_glide_ligand_efficiency>
-0.404072475704652

> <r_i_glide_ligand_efficiency_sa>
-1.09682144533856

> <r_i_glide_ligand_efficiency_ln>
-2.02252026933352

> <r_i_glide_gscore>
-8.08144951409304

> <r_i_glide_lipo>
-3.23300378756369

> <r_i_glide_hbond>
-0.187161926601469

> <r_i_glide_metal>
0

> <r_i_glide_rewards>
-3.16708556488431

> <r_i_glide_evdw>
-39.6000366210938

> <r_i_glide_ecoul>
-3.00507545471191

> <r_i_glide_erotb>
0.936564914217907

> <r_i_glide_esite>
0

> <r_i_glide_emodel>
-57.2168249603671

> <r_i_glide_energy>
-42.6051120758057

> <r_i_glide_einternal>
11.2916889190674

> <i_i_glide_confnum>
5

> <i_i_glide_posenum>
318

> <r_i_glide_eff_state_penalty>
0

> <s_user_duplicate_titles>
CHEMBL3717_lig4159

> <s_m_subgroup_title>
dock_pv

> <s_m_subgroupid>
dock_pv

> <b_m_subgroup_collapsed>
1

$$$$
CHEMBL3717_lig430
                    3D
 Schrodinger Suite 2021-1.
 44 47  0  0  1  0            999 V2000
   -2.7646    1.9585   31.3098 C   0  0  0  0  0  0
   -3.9625    2.3512   30.6858 C   0  0  0  0  0  0
   -4.2660    3.6231   30.3202 N   0  0  0  0  0  0
   -1.7304    2.9180   31.4053 C   0  0  0  0  0  0
   -1.9912    4.1937   30.9072 C   0  0  0  0  0  0
   -3.2976    4.5308   30.4543 C   0  0  0  0  0  0
   -3.3163    5.9304   30.2080 C   0  0  0  0  0  0
   -2.0079    6.3558   30.3035 C   0  0  0  0  0  0
   -1.1916    5.3081   30.6921 N   0  0  0  0  0  0
    0.5144    5.4979   30.9322 S   0  0  0  0  0  0
    1.4365    4.3522   29.8987 C   0  0  0  0  0  0
    0.7689    5.1569   32.3278 O   0  0  0  0  0  0
    0.8131    6.8282   30.3966 O   0  0  0  0  0  0
    1.1492    4.3574   28.5489 C   0  0  0  0  0  0
    1.9846    3.6963   27.6478 C   0  0  0  0  0  0
    3.1861    3.1566   28.0561 C   0  0  0  0  0  0
    3.4920    3.1570   29.3995 C   0  0  0  0  0  0
    2.5715    3.6388   30.3233 C   0  0  0  0  0  0
    2.9118    3.4412   31.7071 N   0  3  0  0  0  0
    2.7057    2.3446   32.2081 O   0  0  0  0  0  0
    3.5061    4.3572   32.2161 O   0  5  0  0  0  0
   -2.6037    0.6600   31.8080 N   0  0  0  0  0  0
   -3.5012   -0.4695   31.4982 C   0  0  0  0  0  0
   -2.7867   -1.8436   31.5081 C   0  0  0  0  0  0
   -2.1008   -2.0935   32.7708 N   0  0  0  0  0  0
   -1.1328   -1.0343   33.0057 C   0  0  0  0  0  0
   -1.8060    0.3568   33.0085 C   0  0  0  0  0  0
   -4.7835    1.6587   30.5763 H   0  0  0  0  0  0
   -0.7528    2.7221   31.8071 H   0  0  0  0  0  0
   -4.1680    6.5252   29.9228 H   0  0  0  0  0  0
   -1.5835    7.3379   30.1352 H   0  0  0  0  0  0
    0.3062    4.9316   28.2107 H   0  0  0  0  0  0
    1.7738    3.6319   26.6081 H   0  0  0  0  0  0
    3.8738    2.7556   27.3322 H   0  0  0  0  0  0
    4.4374    2.7570   29.7344 H   0  0  0  0  0  0
   -4.3117   -0.4831   32.2288 H   0  0  0  0  0  0
   -3.9609   -0.3350   30.5192 H   0  0  0  0  0  0
   -2.0737   -1.9072   30.6836 H   0  0  0  0  0  0
   -3.5016   -2.6494   31.3345 H   0  0  0  0  0  0
   -1.6268   -2.9848   32.7240 H   0  0  0  0  0  0
   -0.3476   -1.0829   32.2492 H   0  0  0  0  0  0
   -0.6317   -1.2213   33.9559 H   0  0  0  0  0  0
   -1.0423    1.1092   33.1660 H   0  0  0  0  0  0
   -2.4692    0.4206   33.8718 H   0  0  0  0  0  0
  1  2  2  0  0  0
  1  4  1  0  0  0
  1 22  1  0  0  0
  2  3  1  0  0  0
  2 28  1  0  0  0
  3  6  2  0  0  0
  4  5  2  0  0  0
  4 29  1  0  0  0
  5  9  1  0  0  0
  5  6  1  0  0  0
  6  7  1  0  0  0
  7  8  2  0  0  0
  7 30  1  0  0  0
  8  9  1  0  0  0
  8 31  1  0  0  0
  9 10  1  0  0  0
 10 13  2  0  0  0
 10 11  1  0  0  0
 10 12  2  0  0  0
 11 14  2  0  0  0
 11 18  1  0  0  0
 14 15  1  0  0  0
 14 32  1  0  0  0
 15 16  2  0  0  0
 15 33  1  0  0  0
 16 17  1  0  0  0
 16 34  1  0  0  0
 17 18  2  0  0  0
 17 35  1  0  0  0
 18 19  1  0  0  0
 19 20  2  0  0  0
 19 21  1  0  0  0
 22 23  1  0  0  0
 22 27  1  0  0  0
 23 24  1  0  0  0
 23 36  1  0  0  0
 23 37  1  0  0  0
 24 25  1  0  0  0
 24 38  1  0  0  0
 24 39  1  0  0  0
 25 26  1  0  0  0
 25 40  1  0  0  0
 26 27  1  0  0  0
 26 41  1  0  0  0
 26 42  1  0  0  0
 27 43  1  0  0  0
 27 44  1  0  0  0
M  CHG  2  19   1  21  -1
M  END
> <s_m_entry_id>
10129

> <s_m_entry_name>
dock_pv.198

> <s_m_Source_Path>
/home/csk/Desktop/cluster/DUD-E-result/met

> <s_m_Source_File>
dock_pv.maegz

> <i_m_Source_File_Index>
198

> <chembl_id>
CHEMBL561864

> <chembl_pref_name>
None

> <i_lp_mmshare_version>
53161

> <i_f3d_flags>
0

> <r_lp_tautomer_probability>
1

> <s_lp_Force_Field>
OPLS_2005

> <r_lp_Energy>
33.186083

> <b_lp_Chiralities_Consistent>
1

> <s_lp_Variant>
CHEMBL3717_lig430-1

> <s_i_glide_gridfile>
glide-grid_3lq8

> <i_i_glide_lignum>
454

> <i_i_glide_rotatable_bonds>
4

> <r_i_docking_score>
-8.07837284721936

> <r_i_glide_ligand_efficiency>
-0.299198994341458

> <r_i_glide_ligand_efficiency_sa>
-0.897596982038262

> <r_i_glide_ligand_efficiency_ln>
-1.88051201644751

> <r_i_glide_gscore>
-8.07837284721936

> <r_i_glide_lipo>
-4.20554102049765

> <r_i_glide_hbond>
0

> <r_i_glide_metal>
0

> <r_i_glide_rewards>
-2.52862246040214

> <r_i_glide_evdw>
-28.3771800994873

> <r_i_glide_ecoul>
-2.09724879264832

> <r_i_glide_erotb>
0.389236957552049

> <r_i_glide_esite>
0

> <r_i_glide_emodel>
-34.538771152438

> <r_i_glide_energy>
-30.4744288921356

> <r_i_glide_einternal>
5.40151357650757

> <i_i_glide_confnum>
8

> <i_i_glide_posenum>
15

> <r_i_glide_eff_state_penalty>
0

> <s_user_duplicate_titles>
CHEMBL3717_lig430,555156

> <s_m_subgroup_title>
dock_pv

> <s_m_subgroupid>
dock_pv

> <b_m_subgroup_collapsed>
1

$$$$
CHEMBL3717_lig1872
                    3D
 Schrodinger Suite 2021-1.
 42 46  0  0  1  0            999 V2000
   -3.9103    3.1849   30.5810 C   0  0  0  0  0  0
   -4.5723    4.3919   30.2920 C   0  0  0  0  0  0
   -3.9253    5.5890   30.2214 N   0  0  0  0  0  0
   -2.5797    3.1407   30.8899 N   0  0  0  0  0  0
   -1.9661    4.3244   30.7913 C   0  0  0  0  0  0
   -2.6063    5.5360   30.4356 C   0  0  0  0  0  0
   -1.6699    6.5155   30.2981 N   0  0  0  0  0  0
   -0.4469    5.9503   30.6136 N   0  0  0  0  0  0
   -0.6348    4.6515   30.9512 N   0  0  0  0  0  0
   -4.5854    1.8614   30.4359 C   0  0  0  0  0  0
   -4.0150    0.5939   30.4452 C   0  0  0  0  0  0
   -5.0129   -0.2936   30.1295 N   0  0  0  0  0  0
   -6.2002    0.3136   30.0189 N   0  0  0  0  0  0
   -5.9435    1.5887   30.2019 C   0  0  0  0  0  0
    0.4691    3.8037   31.3982 C   0  0  0  0  0  0
    1.7267    3.8902   30.5563 C   0  0  0  0  0  0
   -4.9497   -1.7450   29.9342 C   0  0  0  0  0  0
    1.6516    3.6750   29.1799 C   0  0  0  0  0  0
    2.7894    3.8027   28.3952 C   0  0  0  0  0  0
    2.9492    4.1807   31.1734 C   0  0  0  0  0  0
    4.1037    4.3073   30.3871 C   0  0  0  0  0  0
    3.9717    4.1369   28.9990 N   0  0  0  0  0  0
    5.1334    4.3570   28.3494 N   0  0  0  0  0  0
    6.0146    4.5802   29.2984 C   0  0  0  0  0  0
    5.4781    4.5759   30.5806 C   0  0  0  0  0  0
   -3.5365   -2.3227   29.6878 C   0  0  0  0  0  0
   -2.8939   -1.6748   28.6080 O   0  0  0  0  0  0
   -5.6250    4.4185   30.0563 H   0  0  0  0  0  0
   -2.9969    0.2617   30.5793 H   0  0  0  0  0  0
   -6.7332    2.3219   30.1346 H   0  0  0  0  0  0
    0.7057    4.0797   32.4259 H   0  0  0  0  0  0
    0.1312    2.7661   31.4090 H   0  0  0  0  0  0
   -5.6230   -2.0450   29.1292 H   0  0  0  0  0  0
   -5.3657   -2.2106   30.8282 H   0  0  0  0  0  0
    0.7064    3.4265   28.7172 H   0  0  0  0  0  0
    2.7894    3.6579   27.3285 H   0  0  0  0  0  0
    3.0098    4.3281   32.2398 H   0  0  0  0  0  0
    7.0524    4.7507   29.0555 H   0  0  0  0  0  0
    6.0171    4.7571   31.4958 H   0  0  0  0  0  0
   -3.5833   -3.3930   29.4836 H   0  0  0  0  0  0
   -2.8986   -2.1648   30.5584 H   0  0  0  0  0  0
   -3.5041   -1.6425   27.8544 H   0  0  0  0  0  0
  1  2  1  0  0  0
  1  4  2  0  0  0
  1 10  1  0  0  0
  2  3  2  0  0  0
  2 28  1  0  0  0
  3  6  1  0  0  0
  4  5  1  0  0  0
  5  6  2  0  0  0
  5  9  1  0  0  0
  6  7  1  0  0  0
  7  8  2  0  0  0
  8  9  1  0  0  0
  9 15  1  0  0  0
 10 11  2  0  0  0
 10 14  1  0  0  0
 11 12  1  0  0  0
 11 29  1  0  0  0
 12 13  1  0  0  0
 12 17  1  0  0  0
 13 14  2  0  0  0
 14 30  1  0  0  0
 15 16  1  0  0  0
 15 31  1  0  0  0
 15 32  1  0  0  0
 16 18  1  0  0  0
 16 20  2  0  0  0
 17 26  1  0  0  0
 17 33  1  0  0  0
 17 34  1  0  0  0
 18 19  2  0  0  0
 18 35  1  0  0  0
 19 22  1  0  0  0
 19 36  1  0  0  0
 20 21  1  0  0  0
 20 37  1  0  0  0
 21 22  1  0  0  0
 21 25  2  0  0  0
 22 23  1  0  0  0
 23 24  2  0  0  0
 24 25  1  0  0  0
 24 38  1  0  0  0
 25 39  1  0  0  0
 26 27  1  0  0  0
 26 40  1  0  0  0
 26 41  1  0  0  0
 27 42  1  0  0  0
M  END
> <s_m_entry_id>
10130

> <s_m_entry_name>
dock_pv.199

> <s_m_Source_Path>
/home/csk/Desktop/cluster/DUD-E-result/met

> <s_m_Source_File>
dock_pv.maegz

> <i_m_Source_File_Index>
199

> <chembl_id>
CHEMBL3334551

> <chembl_pref_name>
None

> <i_lp_mmshare_version>
53161

> <i_f3d_flags>
0

> <r_lp_tautomer_probability>
1

> <s_lp_Force_Field>
OPLS_2005

> <r_lp_Energy>
20.153004

> <b_lp_Chiralities_Consistent>
1

> <s_lp_Variant>
CHEMBL3717_lig1872-1

> <s_i_glide_gridfile>
glide-grid_3lq8

> <i_i_glide_lignum>
2161

> <i_i_glide_rotatable_bonds>
6

> <r_i_docking_score>
-8.06909949076924

> <r_i_glide_ligand_efficiency>
-0.298855536695157

> <r_i_glide_ligand_efficiency_sa>
-0.896566609100492

> <r_i_glide_ligand_efficiency_ln>
-1.87835333194915

> <r_i_glide_gscore>
-8.06909949076924

> <r_i_glide_lipo>
-2.6118642777749

> <r_i_glide_hbond>
-0.16

> <r_i_glide_metal>
0

> <r_i_glide_rewards>
-3.06918931272747

> <r_i_glide_evdw>
-46.4546737670898

> <r_i_glide_ecoul>
-4.21025896072388

> <r_i_glide_erotb>
0.734775340215608

> <r_i_glide_esite>
-0.00854870801940812

> <r_i_glide_emodel>
-72.7462273847983

> <r_i_glide_energy>
-50.6649327278137

> <r_i_glide_einternal>
3.99427318572998

> <i_i_glide_confnum>
29

> <i_i_glide_posenum>
213

> <r_i_glide_eff_state_penalty>
0

> <s_user_duplicate_titles>
CHEMBL3717_lig1872

> <s_m_subgroup_title>
dock_pv

> <s_m_subgroupid>
dock_pv

> <b_m_subgroup_collapsed>
1

$$$$
CHEMBL3717_lig2956
                    3D
 Schrodinger Suite 2021-1.
 55 59  0  0  1  0            999 V2000
   -7.2955   -0.5359   28.3630 O   0  0  0  0  0  0
   -6.4259   -0.2443   29.5062 S   0  0  0  0  0  0
   -5.0018   -0.5806   29.4077 O   0  0  0  0  0  0
   -8.1087    3.4902   30.1417 C   0  0  0  0  0  0
   -7.8720    1.9732   30.3617 C   0  0  0  0  0  0
   -6.5621    1.4934   29.8326 N   0  0  1  0  0  0
   -5.3379    2.1566   30.3534 C   0  0  0  0  0  0
   -6.7967    4.2267   30.3422 C   0  0  0  0  0  0
   -5.5331    3.6619   30.4310 C   0  0  0  0  0  0
   -4.6569    4.7577   30.6082 C   0  0  0  0  0  0
   -5.3330    5.8797   30.7402 N   0  0  0  0  0  0
   -6.6180    5.5516   30.6073 N   0  0  0  0  0  0
   -3.1610    4.7714   30.6911 C   0  0  0  0  0  0
   -2.4661    3.6005   31.0078 C   0  0  0  0  0  0
   -1.0839    3.6158   31.1163 C   0  0  0  0  0  0
   -0.3748    4.7966   30.9278 C   0  0  0  0  0  0
   -1.0523    5.9723   30.6079 C   0  0  0  0  0  0
   -2.4399    5.9574   30.4904 C   0  0  0  0  0  0
   -7.0875   -1.0899   30.9804 C   0  0  0  0  0  0
   -8.4243   -1.5570   31.0353 C   0  0  0  0  0  0
   -8.8804   -2.2617   32.1499 C   0  0  0  0  0  0
   -8.0386   -2.5150   33.2242 C   0  0  0  0  0  0
   -6.7331   -2.0436   33.1958 C   0  0  0  0  0  0
   -6.2530   -1.3293   32.0985 C   0  0  0  0  0  0
   -9.6037   -1.2836   29.7982 Cl  0  0  0  0  0  0
   -4.6253   -0.7445   32.2329 Cl  0  0  0  0  0  0
    1.1041    4.8012   31.1668 C   0  0  0  0  0  0
    1.9180    4.3733   30.1708 N   0  0  0  0  0  0
    1.5060    5.1460   32.2764 O   0  0  0  0  0  0
    3.3652    4.2283   30.3634 C   0  0  0  0  0  0
    3.8646    3.8520   28.9712 C   0  0  0  0  0  0
    2.6799    3.1645   28.3183 C   0  0  0  0  0  0
    1.4706    3.9346   28.8422 C   0  0  0  0  0  0
   -8.8902    3.8635   30.8043 H   0  0  0  0  0  0
   -8.4583    3.6521   29.1208 H   0  0  0  0  0  0
   -7.8404    1.8362   31.4441 H   0  0  0  0  0  0
   -8.6797    1.3903   29.9195 H   0  0  0  0  0  0
   -4.4977    1.8782   29.7171 H   0  0  0  0  0  0
   -5.1657    1.7625   31.3542 H   0  0  0  0  0  0
   -7.3520    6.2463   30.6031 H   0  0  0  0  0  0
   -2.9786    2.6737   31.2073 H   0  0  0  0  0  0
   -0.5586    2.7275   31.4121 H   0  0  0  0  0  0
   -0.5161    6.9015   30.4723 H   0  0  0  0  0  0
   -2.9538    6.8753   30.2521 H   0  0  0  0  0  0
   -9.9002   -2.6177   32.1835 H   0  0  0  0  0  0
   -8.4017   -3.0600   34.0826 H   0  0  0  0  0  0
   -6.0910   -2.2165   34.0475 H   0  0  0  0  0  0
    3.5663    3.4127   31.0611 H   0  0  0  0  0  0
    3.8333    5.1522   30.7080 H   0  0  0  0  0  0
    4.7594    3.2305   29.0070 H   0  0  0  0  0  0
    4.1203    4.7534   28.4136 H   0  0  0  0  0  0
    2.7259    3.1504   27.2296 H   0  0  0  0  0  0
    2.6252    2.1255   28.6471 H   0  0  0  0  0  0
    1.2863    4.8023   28.2081 H   0  0  0  0  0  0
    0.6019    3.2753   28.8754 H   0  0  0  0  0  0
  1  2  2  0  0  0
  2  3  2  0  0  0
  2  6  1  0  0  0
  2 19  1  0  0  0
  4  5  1  0  0  0
  4  8  1  0  0  0
  4 34  1  0  0  0
  4 35  1  0  0  0
  5  6  1  0  0  0
  5 36  1  0  0  0
  5 37  1  0  0  0
  6  7  1  0  0  0
  7  9  1  0  0  0
  7 38  1  0  0  0
  7 39  1  0  0  0
  8  9  2  0  0  0
  8 12  1  0  0  0
  9 10  1  0  0  0
 10 11  2  0  0  0
 10 13  1  0  0  0
 11 12  1  0  0  0
 12 40  1  0  0  0
 13 14  2  0  0  0
 13 18  1  0  0  0
 14 15  1  0  0  0
 14 41  1  0  0  0
 15 16  2  0  0  0
 15 42  1  0  0  0
 16 17  1  0  0  0
 16 27  1  0  0  0
 17 18  2  0  0  0
 17 43  1  0  0  0
 18 44  1  0  0  0
 19 20  2  0  0  0
 19 24  1  0  0  0
 20 21  1  0  0  0
 20 25  1  0  0  0
 21 22  2  0  0  0
 21 45  1  0  0  0
 22 23  1  0  0  0
 22 46  1  0  0  0
 23 24  2  0  0  0
 23 47  1  0  0  0
 24 26  1  0  0  0
 27 28  1  0  0  0
 27 29  2  0  0  0
 28 30  1  0  0  0
 28 33  1  0  0  0
 30 31  1  0  0  0
 30 48  1  0  0  0
 30 49  1  0  0  0
 31 32  1  0  0  0
 31 50  1  0  0  0
 31 51  1  0  0  0
 32 33  1  0  0  0
 32 52  1  0  0  0
 32 53  1  0  0  0
 33 54  1  0  0  0
 33 55  1  0  0  0
M  END
> <s_m_entry_id>
10131

> <s_m_entry_name>
dock_pv.200

> <s_m_Source_Path>
/home/csk/Desktop/cluster/DUD-E-result/met

> <s_m_Source_File>
dock_pv.maegz

> <i_m_Source_File_Index>
200

> <chembl_id>
CHEMBL4167248

> <chembl_pref_name>
None

> <i_lp_mmshare_version>
53161

> <i_f3d_flags>
0

> <r_lp_tautomer_probability>
0.5

> <s_lp_Force_Field>
OPLS_2005

> <r_lp_Energy>
55.553998

> <b_lp_Chiralities_Consistent>
1

> <s_lp_Variant>
CHEMBL3717_lig2956-1

> <s_i_glide_gridfile>
glide-grid_3lq8

> <i_i_glide_lignum>
3627

> <i_i_glide_rotatable_bonds>
5

> <r_i_docking_score>
-8.06296007862199

> <r_i_glide_ligand_efficiency>
-0.244332123594606

> <r_i_glide_ligand_efficiency_sa>
-0.783703673437072

> <r_i_glide_ligand_efficiency_ln>
-1.79316057371254

> <r_i_glide_gscore>
-8.06296007862199

> <r_i_glide_lipo>
-4.18252129334247

> <r_i_glide_hbond>
-0.1312310581281

> <r_i_glide_metal>
0

> <r_i_glide_rewards>
-1.46326155087237

> <r_i_glide_evdw>
-47.5473518371582

> <r_i_glide_ecoul>
-1.61305689811707

> <r_i_glide_erotb>
0.40034217806222

> <r_i_glide_esite>
-0.0669622277657949

> <r_i_glide_emodel>
-66.7050332870032

> <r_i_glide_energy>
-49.1604087352753

> <r_i_glide_einternal>
4.39649724960327

> <i_i_glide_confnum>
24

> <i_i_glide_posenum>
293

> <r_i_glide_eff_state_penalty>
0

> <s_user_duplicate_titles>
CHEMBL3717_lig2956,CHEMBL3717_lig2956

> <s_m_subgroup_title>
dock_pv

> <s_m_subgroupid>
dock_pv

> <b_m_subgroup_collapsed>
1

$$$$
CHEMBL3717_lig329
                    3D
 Schrodinger Suite 2021-1.
 37 40  0  0  1  0            999 V2000
   -3.7574    2.1747   30.6221 C   0  0  0  0  0  0
   -4.7791    3.0476   30.2206 C   0  0  0  0  0  0
   -4.6529    4.4032   30.1454 N   0  0  0  0  0  0
   -2.5385    2.7600   30.9750 C   0  0  0  0  0  0
   -2.3767    4.1111   30.8247 N   0  0  0  0  0  0
   -3.4427    4.9155   30.3961 C   0  0  0  0  0  0
   -3.0153    6.1929   30.2785 N   0  0  0  0  0  0
   -1.6680    6.1881   30.6082 N   0  0  0  0  0  0
   -1.3223    4.9775   31.0084 C   0  0  0  0  0  0
    0.0226    4.5665   31.6000 C   0  0  0  0  0  0
    1.1630    4.2830   30.6436 C   0  0  0  0  0  0
    1.0970    4.6641   29.3054 C   0  0  0  0  0  0
    2.1351    4.3556   28.4502 C   0  0  0  0  0  0
    3.2751    3.7486   28.9457 C   0  0  0  0  0  0
    3.3723    3.3744   30.2819 C   0  0  0  0  0  0
    2.3035    3.6357   31.1330 C   0  0  0  0  0  0
    4.3073    3.5568   28.0873 O   0  0  0  0  0  0
   -3.9456    0.6981   30.7039 C   0  0  0  0  0  0
   -4.7201    0.0211   29.7534 C   0  0  0  0  0  0
   -4.8593   -1.3634   29.8078 C   0  0  0  0  0  0
   -4.2288   -2.0832   30.8178 C   0  0  0  0  0  0
   -3.4636   -1.4285   31.7779 C   0  0  0  0  0  0
   -3.3243   -0.0445   31.7197 C   0  0  0  0  0  0
   -5.7594    2.6640   29.9770 H   0  0  0  0  0  0
   -1.6939    2.1988   31.3232 H   0  0  0  0  0  0
   -0.0838    3.6632   32.1993 H   0  0  0  0  0  0
    0.3844    5.3415   32.2738 H   0  0  0  0  0  0
    0.2576    5.2054   28.9114 H   0  0  0  0  0  0
    2.0678    4.6217   27.4090 H   0  0  0  0  0  0
    4.2630    2.8941   30.6579 H   0  0  0  0  0  0
    2.3665    3.3471   32.1722 H   0  0  0  0  0  0
    5.0157    2.9968   28.4273 H   0  0  0  0  0  0
   -5.1963    0.5559   28.9444 H   0  0  0  0  0  0
   -5.4403   -1.8773   29.0552 H   0  0  0  0  0  0
   -4.3274   -3.1596   30.8521 H   0  0  0  0  0  0
   -2.9763   -1.9946   32.5582 H   0  0  0  0  0  0
   -2.7275    0.4459   32.4742 H   0  0  0  0  0  0
  1  2  1  0  0  0
  1  4  2  0  0  0
  1 18  1  0  0  0
  2  3  2  0  0  0
  2 24  1  0  0  0
  3  6  1  0  0  0
  4  5  1  0  0  0
  4 25  1  0  0  0
  5  9  1  0  0  0
  5  6  1  0  0  0
  6  7  2  0  0  0
  7  8  1  0  0  0
  8  9  2  0  0  0
  9 10  1  0  0  0
 10 11  1  0  0  0
 10 26  1  0  0  0
 10 27  1  0  0  0
 11 12  2  0  0  0
 11 16  1  0  0  0
 12 13  1  0  0  0
 12 28  1  0  0  0
 13 14  2  0  0  0
 13 29  1  0  0  0
 14 15  1  0  0  0
 14 17  1  0  0  0
 15 16  2  0  0  0
 15 30  1  0  0  0
 16 31  1  0  0  0
 17 32  1  0  0  0
 18 19  2  0  0  0
 18 23  1  0  0  0
 19 20  1  0  0  0
 19 33  1  0  0  0
 20 21  2  0  0  0
 20 34  1  0  0  0
 21 22  1  0  0  0
 21 35  1  0  0  0
 22 23  2  0  0  0
 22 36  1  0  0  0
 23 37  1  0  0  0
M  END
> <s_m_entry_id>
10132

> <s_m_entry_name>
dock_pv.201

> <s_m_Source_Path>
/home/csk/Desktop/cluster/DUD-E-result/met

> <s_m_Source_File>
dock_pv.maegz

> <i_m_Source_File_Index>
201

> <chembl_id>
CHEMBL495899

> <chembl_pref_name>
None

> <i_lp_mmshare_version>
53161

> <i_f3d_flags>
0

> <r_lp_tautomer_probability>
0.999999999997365

> <s_lp_Force_Field>
OPLS_2005

> <r_lp_Energy>
24.530879

> <b_lp_Chiralities_Consistent>
1

> <s_lp_Variant>
CHEMBL3717_lig329-1

> <s_i_glide_gridfile>
glide-grid_3lq8

> <i_i_glide_lignum>
345

> <i_i_glide_rotatable_bonds>
4

> <r_i_docking_score>
-8.06084994998518

> <r_i_glide_ligand_efficiency>
-0.350471736955877

> <r_i_glide_ligand_efficiency_sa>
-0.996694999058333

> <r_i_glide_ligand_efficiency_ln>
-1.94918660965267

> <r_i_glide_gscore>
-8.06084994998518

> <r_i_glide_lipo>
-3.05428932616871

> <r_i_glide_hbond>
-0.291842709962411

> <r_i_glide_metal>
0

> <r_i_glide_rewards>
-3.13319289531914

> <r_i_glide_evdw>
-35.1373023986816

> <r_i_glide_ecoul>
-2.85946536064148

> <r_i_glide_erotb>
0.604259905495387

> <r_i_glide_esite>
0

> <r_i_glide_emodel>
-55.3414557378945

> <r_i_glide_energy>
-37.9967677593231

> <r_i_glide_einternal>
2.26620292663574

> <i_i_glide_confnum>
5

> <i_i_glide_posenum>
178

> <r_i_glide_eff_state_penalty>
0

> <s_user_duplicate_titles>
CHEMBL3717_lig329,486592

> <s_m_subgroup_title>
dock_pv

> <s_m_subgroupid>
dock_pv

> <b_m_subgroup_collapsed>
1

$$$$
CHEMBL3717_lig2929
                    3D
 Schrodinger Suite 2021-1.
 52 56  0  0  1  0            999 V2000
    3.3890    3.2679   31.2596 N   0  0  0  0  0  0
    2.7059    3.7919   32.3101 C   0  0  0  0  0  0
    1.5760    4.5966   32.2080 C   0  0  0  0  0  0
    1.0495    4.8653   30.9512 C   0  0  0  0  0  0
    2.8762    3.5593   30.0670 C   0  0  0  0  0  0
    1.7052    4.3297   29.8263 C   0  0  0  0  0  0
    1.5061    4.3190   28.4139 C   0  0  0  0  0  0
    2.5160    3.5590   27.8570 C   0  0  0  0  0  0
    3.3725    3.1572   28.8492 N   0  0  0  0  0  0
   -0.1111    5.5879   30.8011 O   0  0  0  0  0  0
   -1.3379    4.9459   30.8123 C   0  0  0  0  0  0
   -1.4809    3.5580   31.0019 C   0  0  0  0  0  0
   -2.7267    2.9518   30.8786 C   0  0  0  0  0  0
   -3.8598    3.7185   30.6039 C   0  0  0  0  0  0
   -3.7384    5.1099   30.4703 C   0  0  0  0  0  0
   -2.4857    5.7141   30.5699 C   0  0  0  0  0  0
   -5.0477    3.0119   30.3903 N   0  0  0  0  0  0
   -6.3304    3.4310   30.4954 C   0  0  0  0  0  0
   -7.3237    2.4342   30.0373 C   0  0  0  0  0  0
   -6.6496    4.5437   30.9202 O   0  0  0  0  0  0
   -7.0395    1.1751   30.1622 N   0  0  0  0  0  0
   -7.9116    0.1792   29.7102 N   0  0  0  0  0  0
   -9.1233    0.4039   29.0832 C   0  0  0  0  0  0
   -9.4087    1.8259   28.9626 C   0  0  0  0  0  0
   -8.5879    2.8159   29.4013 C   0  0  0  0  0  0
   -8.9855    4.2674   29.1371 C   0  0  0  0  0  0
   -9.9003   -0.4493   28.6481 O   0  0  0  0  0  0
   -7.4333   -1.1401   29.9322 C   0  0  0  0  0  0
   -6.1202   -1.4906   29.5696 C   0  0  0  0  0  0
   -5.6349   -2.7766   29.8073 C   0  0  0  0  0  0
   -6.4543   -3.7296   30.4094 C   0  0  0  0  0  0
   -7.7591   -3.4006   30.7708 C   0  0  0  0  0  0
   -8.2457   -2.1152   30.5375 C   0  0  0  0  0  0
   -2.3819    7.0465   30.3579 F   0  0  0  0  0  0
   -8.5537   -4.3290   31.3496 F   0  0  0  0  0  0
    3.1051    3.5544   33.2845 H   0  0  0  0  0  0
    1.1059    5.0013   33.0861 H   0  0  0  0  0  0
    0.7055    4.7797   27.8729 H   0  0  0  0  0  0
    2.7046    3.2765   26.8327 H   0  0  0  0  0  0
    4.1992    2.6019   28.6746 H   0  0  0  0  0  0
   -0.6244    2.9321   31.1924 H   0  0  0  0  0  0
   -2.8029    1.8771   30.9802 H   0  0  0  0  0  0
   -4.5922    5.7254   30.2279 H   0  0  0  0  0  0
   -4.9340    2.0425   30.1265 H   0  0  0  0  0  0
  -10.3316    2.0834   28.4627 H   0  0  0  0  0  0
   -8.1871    4.7906   28.6085 H   0  0  0  0  0  0
   -9.8825    4.3559   28.5212 H   0  0  0  0  0  0
   -9.1581    4.8016   30.0717 H   0  0  0  0  0  0
   -5.4705   -0.7726   29.0886 H   0  0  0  0  0  0
   -4.6255   -3.0410   29.5239 H   0  0  0  0  0  0
   -6.0724   -4.7237   30.5965 H   0  0  0  0  0  0
   -9.2594   -1.8846   30.8343 H   0  0  0  0  0  0
  1  5  1  0  0  0
  1  2  2  0  0  0
  2  3  1  0  0  0
  2 36  1  0  0  0
  3  4  2  0  0  0
  3 37  1  0  0  0
  4  6  1  0  0  0
  4 10  1  0  0  0
  5  6  2  0  0  0
  5  9  1  0  0  0
  6  7  1  0  0  0
  7  8  2  0  0  0
  7 38  1  0  0  0
  8  9  1  0  0  0
  8 39  1  0  0  0
  9 40  1  0  0  0
 10 11  1  0  0  0
 11 12  2  0  0  0
 11 16  1  0  0  0
 12 13  1  0  0  0
 12 41  1  0  0  0
 13 14  2  0  0  0
 13 42  1  0  0  0
 14 15  1  0  0  0
 14 17  1  0  0  0
 15 16  2  0  0  0
 15 43  1  0  0  0
 16 34  1  0  0  0
 17 18  1  0  0  0
 17 44  1  0  0  0
 18 19  1  0  0  0
 18 20  2  0  0  0
 19 21  2  0  0  0
 19 25  1  0  0  0
 21 22  1  0  0  0
 22 23  1  0  0  0
 22 28  1  0  0  0
 23 24  1  0  0  0
 23 27  2  0  0  0
 24 25  2  0  0  0
 24 45  1  0  0  0
 25 26  1  0  0  0
 26 46  1  0  0  0
 26 47  1  0  0  0
 26 48  1  0  0  0
 28 29  2  0  0  0
 28 33  1  0  0  0
 29 30  1  0  0  0
 29 49  1  0  0  0
 30 31  2  0  0  0
 30 50  1  0  0  0
 31 32  1  0  0  0
 31 51  1  0  0  0
 32 33  2  0  0  0
 32 35  1  0  0  0
 33 52  1  0  0  0
M  END
> <s_m_entry_id>
10133

> <s_m_entry_name>
dock_pv.202

> <s_m_Source_Path>
/home/csk/Desktop/cluster/DUD-E-result/met

> <s_m_Source_File>
dock_pv.maegz

> <i_m_Source_File_Index>
202

> <chembl_id>
CHEMBL4087981

> <chembl_pref_name>
None

> <i_lp_mmshare_version>
53161

> <i_f3d_flags>
0

> <r_lp_tautomer_probability>
1

> <s_lp_Force_Field>
OPLS_2005

> <r_lp_Energy>
59.491436

> <b_lp_Chiralities_Consistent>
1

> <s_lp_Variant>
CHEMBL3717_lig2929-1

> <s_i_glide_gridfile>
glide-grid_3lq8

> <i_i_glide_lignum>
3596

> <i_i_glide_rotatable_bonds>
6

> <r_i_docking_score>
-8.05682595557581

> <r_i_glide_ligand_efficiency>
-0.230195027302166

> <r_i_glide_ligand_efficiency_sa>
-0.752983197688686

> <r_i_glide_ligand_efficiency_ln>
-1.76865210886686

> <r_i_glide_gscore>
-8.05682595557581

> <r_i_glide_lipo>
-3.80353454353155

> <r_i_glide_hbond>
-0.0443769991864369

> <r_i_glide_metal>
0

> <r_i_glide_rewards>
-2.14782421831909

> <r_i_glide_evdw>
-45.2289543151855

> <r_i_glide_ecoul>
-2.27412557601929

> <r_i_glide_erotb>
0.541476357623437

> <r_i_glide_esite>
0

> <r_i_glide_emodel>
-64.4092193749848

> <r_i_glide_energy>
-47.5030798912048

> <r_i_glide_einternal>
8.67202663421631

> <i_i_glide_confnum>
4

> <i_i_glide_posenum>
5

> <r_i_glide_eff_state_penalty>
0

> <s_user_duplicate_titles>
CHEMBL3717_lig2929

> <s_m_subgroup_title>
dock_pv

> <s_m_subgroupid>
dock_pv

> <b_m_subgroup_collapsed>
1

$$$$
CHEMBL3717_lig3543
                    3D
 Schrodinger Suite 2021-1.
 37 39  0  0  1  0            999 V2000
    1.1060    6.1861   30.2080 S   0  0  0  0  0  0
   -3.9978   -1.6187   31.6253 S   0  0  0  0  0  0
   -3.0124   -2.2588   32.5057 O   0  0  0  0  0  0
   -5.4138   -1.5774   32.0023 O   0  0  0  0  0  0
    3.0874    3.0125   31.3198 O   0  0  0  0  0  0
   -2.9426    6.4613   30.3563 N   0  0  0  0  0  0
    3.7010    4.5660   29.8298 N   0  0  0  0  0  0
   -0.9065    4.5463   30.6764 C   0  0  0  0  0  0
   -2.2648    4.1558   30.7856 C   0  0  0  0  0  0
   -0.6133    5.9048   30.3657 C   0  0  0  0  0  0
   -2.6812    2.7405   31.0080 C   0  0  0  0  0  0
    1.4491    4.5011   30.5529 C   0  0  0  0  0  0
    0.2928    3.7927   30.8056 C   0  0  0  0  0  0
   -3.4881    0.0839   31.3983 C   0  0  0  0  0  0
   -3.2243    5.1653   30.6219 C   0  0  0  0  0  0
   -1.6508    6.8270   30.2080 C   0  0  0  0  0  0
   -3.6940    2.1768   30.2212 C   0  0  0  0  0  0
   -2.0940    1.9570   32.0125 C   0  0  0  0  0  0
    2.7966    3.9756   30.6134 C   0  0  0  0  0  0
   -4.0985    0.8591   30.4133 C   0  0  0  0  0  0
   -2.4940    0.6338   32.2080 C   0  0  0  0  0  0
   -3.8744   -2.3939   29.9006 C   0  0  0  0  0  0
   -2.4333   -2.3604   29.3753 C   0  0  0  0  0  0
    3.4420    5.3435   29.2432 H   0  0  0  0  0  0
    4.6418    4.2037   29.8049 H   0  0  0  0  0  0
    0.3077    2.7506   31.0522 H   0  0  0  0  0  0
   -4.2782    4.9365   30.7008 H   0  0  0  0  0  0
   -1.4537    7.8645   29.9729 H   0  0  0  0  0  0
   -4.1709    2.7594   29.4471 H   0  0  0  0  0  0
   -1.3256    2.3602   32.6510 H   0  0  0  0  0  0
   -4.8805    0.4436   29.7938 H   0  0  0  0  0  0
   -2.0272    0.0426   32.9830 H   0  0  0  0  0  0
   -4.2315   -3.4191   29.9930 H   0  0  0  0  0  0
   -4.5546   -1.8623   29.2360 H   0  0  0  0  0  0
   -2.3577   -2.8819   28.4203 H   0  0  0  0  0  0
   -2.0940   -1.3363   29.2235 H   0  0  0  0  0  0
   -1.7463   -2.8430   30.0714 H   0  0  0  0  0  0
  1 10  1  0  0  0
  1 12  1  0  0  0
  2  3  2  0  0  0
  2  4  2  0  0  0
  2 14  1  0  0  0
  2 22  1  0  0  0
  5 19  2  0  0  0
  6 15  1  0  0  0
  6 16  2  0  0  0
  7 19  1  0  0  0
  7 24  1  0  0  0
  7 25  1  0  0  0
  8  9  1  0  0  0
  8 10  2  0  0  0
  8 13  1  0  0  0
  9 11  1  0  0  0
  9 15  2  0  0  0
 10 16  1  0  0  0
 11 17  2  0  0  0
 11 18  1  0  0  0
 12 13  2  0  0  0
 12 19  1  0  0  0
 13 26  1  0  0  0
 14 20  2  0  0  0
 14 21  1  0  0  0
 15 27  1  0  0  0
 16 28  1  0  0  0
 17 20  1  0  0  0
 17 29  1  0  0  0
 18 21  2  0  0  0
 18 30  1  0  0  0
 20 31  1  0  0  0
 21 32  1  0  0  0
 22 23  1  0  0  0
 22 33  1  0  0  0
 22 34  1  0  0  0
 23 35  1  0  0  0
 23 36  1  0  0  0
 23 37  1  0  0  0
M  END
> <s_m_entry_id>
10134

> <s_m_entry_name>
dock_pv.203

> <s_m_Source_Path>
/home/csk/Desktop/cluster/DUD-E-result/met

> <s_m_Source_File>
dock_pv.maegz

> <i_m_Source_File_Index>
203

> <chembl_id>
CHEMBL2000104

> <chembl_pref_name>
None

> <i_lp_mmshare_version>
53161

> <i_f3d_flags>
0

> <r_lp_tautomer_probability>
1

> <s_lp_Force_Field>
OPLS_2005

> <r_lp_Energy>
2.918588

> <b_lp_Chiralities_Consistent>
1

> <s_lp_Variant>
CHEMBL3717_lig3543-1

> <s_i_glide_gridfile>
glide-grid_3lq8

> <i_i_glide_lignum>
4380

> <i_i_glide_rotatable_bonds>
4

> <r_i_docking_score>
-8.05668495314096

> <r_i_glide_ligand_efficiency>
-0.350290650136563

> <r_i_glide_ligand_efficiency_sa>
-0.996180012232938

> <r_i_glide_ligand_efficiency_ln>
-1.94817947564964

> <r_i_glide_gscore>
-8.05668495314096

> <r_i_glide_lipo>
-3.34633124664369

> <r_i_glide_hbond>
-0.0126257692483567

> <r_i_glide_metal>
0

> <r_i_glide_rewards>
-2.9691327142325

> <r_i_glide_evdw>
-35.580436706543

> <r_i_glide_ecoul>
-1.69405901432037

> <r_i_glide_erotb>
0.316837231412599

> <r_i_glide_esite>
-0.0123017669538017

> <r_i_glide_emodel>
-53.7358762586506

> <r_i_glide_energy>
-37.2744957208633

> <r_i_glide_einternal>
3.47281408309937

> <i_i_glide_confnum>
1

> <i_i_glide_posenum>
76

> <r_i_glide_eff_state_penalty>
0

> <s_user_duplicate_titles>
CHEMBL3717_lig3543

> <s_m_subgroup_title>
dock_pv

> <s_m_subgroupid>
dock_pv

> <b_m_subgroup_collapsed>
1

$$$$
CHEMBL3717_lig3840
                    3D
 Schrodinger Suite 2021-1.
 40 42  0  0  1  0            999 V2000
    0.5845    7.0128   29.4495 O   0  0  0  0  0  0
   -1.2656    3.4703   30.8223 N   0  0  0  0  0  0
   -3.5329    1.7328   30.6087 N   0  0  0  0  0  0
   -5.8829    1.3657   30.1948 N   0  0  0  0  0  0
   -1.2883    7.9569   30.2080 N   0  0  0  0  0  0
   -4.3902   -0.4293   30.3565 N   0  0  0  0  0  0
   -0.3372    4.4632   30.6532 C   0  0  0  0  0  0
   -1.0443    5.6507   30.4600 C   0  0  0  0  0  0
   -2.5457    3.9488   30.7061 C   0  0  0  0  0  0
    1.1197    4.1753   30.6615 C   0  0  0  0  0  0
   -2.4109    5.3266   30.6064 C   0  0  0  0  0  0
   -3.7531    3.0773   30.6076 C   0  0  0  0  0  0
    1.9087    3.9717   29.5142 C   0  0  0  0  0  0
   -0.4977    6.9089   30.0166 C   0  0  0  0  0  0
    1.7145    4.1694   31.9157 C   0  0  0  0  0  0
    3.2950    3.7842   29.6422 C   0  0  0  0  0  0
   -5.0313    3.6152   30.4081 C   0  0  0  0  0  0
   -4.6112    0.9399   30.3946 C   0  0  0  0  0  0
    3.0763    3.9552   32.0315 C   0  0  0  0  0  0
    3.8713    3.7741   30.9069 C   0  0  0  0  0  0
   -6.0764    2.7099   30.2086 C   0  0  0  0  0  0
    1.2607    3.9556   28.1488 C   0  0  0  0  0  0
    4.2033    3.6340   28.4370 C   0  0  0  0  0  0
   -1.0365    2.4915   30.9124 H   0  0  0  0  0  0
   -2.0951    7.8775   30.8028 H   0  0  0  0  0  0
   -0.9862    8.8682   29.8600 H   0  0  0  0  0  0
   -5.1495   -1.0235   30.0589 H   0  0  0  0  0  0
   -3.4412   -0.7695   30.3736 H   0  0  0  0  0  0
   -3.2358    6.0121   30.4794 H   0  0  0  0  0  0
    1.1260    4.3399   32.8054 H   0  0  0  0  0  0
   -5.2088    4.6800   30.3852 H   0  0  0  0  0  0
    3.5059    3.9543   33.0079 H   0  0  0  0  0  0
    4.9375    3.6384   31.0100 H   0  0  0  0  0  0
   -7.0871    3.0545   30.0427 H   0  0  0  0  0  0
    1.8277    3.4081   27.3979 H   0  0  0  0  0  0
    0.3061    3.4446   28.2113 H   0  0  0  0  0  0
    1.1065    4.9762   27.8086 H   0  0  0  0  0  0
    4.0916    4.5100   27.8049 H   0  0  0  0  0  0
    5.2535    3.5612   28.7172 H   0  0  0  0  0  0
    3.9314    2.7560   27.8526 H   0  0  0  0  0  0
  1 14  2  0  0  0
  2  7  1  0  0  0
  2  9  1  0  0  0
  2 24  1  0  0  0
  3 12  1  0  0  0
  3 18  2  0  0  0
  4 18  1  0  0  0
  4 21  2  0  0  0
  5 14  1  0  0  0
  5 25  1  0  0  0
  5 26  1  0  0  0
  6 18  1  0  0  0
  6 27  1  0  0  0
  6 28  1  0  0  0
  7  8  2  0  0  0
  7 10  1  0  0  0
  8 11  1  0  0  0
  8 14  1  0  0  0
  9 11  2  0  0  0
  9 12  1  0  0  0
 10 13  2  0  0  0
 10 15  1  0  0  0
 11 29  1  0  0  0
 12 17  2  0  0  0
 13 16  1  0  0  0
 13 22  1  0  0  0
 15 19  2  0  0  0
 15 30  1  0  0  0
 16 20  2  0  0  0
 16 23  1  0  0  0
 17 21  1  0  0  0
 17 31  1  0  0  0
 19 20  1  0  0  0
 19 32  1  0  0  0
 20 33  1  0  0  0
 21 34  1  0  0  0
 22 35  1  0  0  0
 22 36  1  0  0  0
 22 37  1  0  0  0
 23 38  1  0  0  0
 23 39  1  0  0  0
 23 40  1  0  0  0
M  END
> <s_m_entry_id>
10135

> <s_m_entry_name>
dock_pv.204

> <s_m_Source_Path>
/home/csk/Desktop/cluster/DUD-E-result/met

> <s_m_Source_File>
dock_pv.maegz

> <i_m_Source_File_Index>
204

> <chembl_id>
CHEMBL1964290

> <chembl_pref_name>
None

> <i_lp_mmshare_version>
53161

> <i_f3d_flags>
0

> <r_lp_tautomer_probability>
0.999999987636

> <s_lp_Force_Field>
OPLS_2005

> <r_lp_Energy>
1.922295

> <b_lp_Chiralities_Consistent>
1

> <s_lp_Variant>
CHEMBL3717_lig3840-1

> <s_i_glide_gridfile>
glide-grid_3lq8

> <i_i_glide_lignum>
4866

> <i_i_glide_rotatable_bonds>
3

> <r_i_docking_score>
-8.05531011828604

> <r_i_glide_ligand_efficiency>
-0.350230874708089

> <r_i_glide_ligand_efficiency_sa>
-0.99601001886587

> <r_i_glide_ligand_efficiency_ln>
-1.94784702811541

> <r_i_glide_gscore>
-8.05531011828604

> <r_i_glide_lipo>
-3.64673993217195

> <r_i_glide_hbond>
-0.32

> <r_i_glide_metal>
0

> <r_i_glide_rewards>
-2.41851422344594

> <r_i_glide_evdw>
-32.3322486877441

> <r_i_glide_ecoul>
-2.95778489112854

> <r_i_glide_erotb>
0.391377349114743

> <r_i_glide_esite>
-0.0011531437264107

> <r_i_glide_emodel>
-51.535034072844

> <r_i_glide_energy>
-35.2900335788727

> <r_i_glide_einternal>
1.69824159145355

> <i_i_glide_confnum>
4

> <i_i_glide_posenum>
258

> <r_i_glide_eff_state_penalty>
0

> <s_user_duplicate_titles>
CHEMBL3717_lig3840

> <s_m_subgroup_title>
dock_pv

> <s_m_subgroupid>
dock_pv

> <b_m_subgroup_collapsed>
1

$$$$
CHEMBL3717_lig1393
                    3D
 Schrodinger Suite 2021-1.
 50 52  0  0  1  0            999 V2000
   -4.1586   -1.2892   31.7839 C   0  0  0  0  0  0
   -4.9172   -0.4231   30.9608 C   0  0  0  0  0  0
   -6.2799   -0.7257   30.7431 C   0  0  0  0  0  0
   -6.8530   -1.8566   31.3237 C   0  0  0  0  0  0
   -6.0954   -2.6990   32.1288 C   0  0  0  0  0  0
   -4.7546   -2.4160   32.3615 C   0  0  0  0  0  0
   -4.0387   -3.2430   33.1604 F   0  0  0  0  0  0
   -7.3143    0.2615   29.7641 Cl  0  0  0  0  0  0
   -2.4784   -1.0117   32.1216 Cl  0  0  0  0  0  0
   -4.2749    0.8201   30.3144 C   0  0  2  0  0  0
   -5.0747    1.9697   30.6080 O   0  0  0  0  0  0
   -4.5328    3.2204   30.6002 C   0  0  0  0  0  0
   -4.0940    0.6703   28.7924 C   0  0  0  0  0  0
   -3.1037    3.5603   30.6080 C   0  0  0  0  0  0
   -2.6568    4.8601   30.6364 C   0  0  0  0  0  0
   -3.6605    5.9514   30.6213 C   0  0  0  0  0  0
   -4.9641    5.5725   30.6080 N   0  0  0  0  0  0
   -5.3682    4.2715   30.6080 C   0  0  0  0  0  0
   -1.2164    5.1661   30.6080 C   0  0  0  0  0  0
   -3.4340    7.1570   30.6080 O   0  0  0  0  0  0
   -0.3759    4.1141   30.7628 N   0  0  0  0  0  0
   -0.7921    6.3048   30.4020 O   0  0  0  0  0  0
    1.0217    4.0727   30.6172 C   0  0  0  0  0  0
    1.7547    4.9659   29.8279 C   0  0  0  0  0  0
    3.1396    4.8500   29.7616 C   0  0  0  0  0  0
    3.8117    3.8694   30.4914 C   0  0  0  0  0  0
    3.0697    2.9280   31.2084 C   0  0  0  0  0  0
    1.6857    3.0344   31.2649 C   0  0  0  0  0  0
    5.3138    3.8294   30.5348 C   0  0  0  0  0  0
    5.9392    5.0132   30.6080 N   0  0  0  0  0  0
    7.3648    5.1565   30.8731 C   0  0  0  0  0  0
    5.9060    2.7570   30.6080 O   0  0  0  0  0  0
   -7.8949   -2.0826   31.1492 H   0  0  0  0  0  0
   -6.5458   -3.5734   32.5745 H   0  0  0  0  0  0
   -3.2941    0.9428   30.7562 H   0  0  0  0  0  0
   -3.4501   -0.1786   28.5598 H   0  0  0  0  0  0
   -5.0402    0.5107   28.2783 H   0  0  0  0  0  0
   -3.6423    1.5570   28.3529 H   0  0  0  0  0  0
   -2.3958    2.7511   30.5645 H   0  0  0  0  0  0
   -5.6147    6.3400   30.5176 H   0  0  0  0  0  0
   -6.4453    4.1751   30.5883 H   0  0  0  0  0  0
   -0.7847    3.2651   31.1144 H   0  0  0  0  0  0
    1.2725    5.7485   29.2622 H   0  0  0  0  0  0
    3.6921    5.5570   29.1614 H   0  0  0  0  0  0
    3.5557    2.1248   31.7444 H   0  0  0  0  0  0
    1.1311    2.2892   31.8080 H   0  0  0  0  0  0
    5.3980    5.8591   30.5145 H   0  0  0  0  0  0
    7.6181    6.2074   31.0080 H   0  0  0  0  0  0
    7.9547    4.7570   30.0466 H   0  0  0  0  0  0
    7.6475    4.6281   31.7838 H   0  0  0  0  0  0
  1  2  2  0  0  0
  1  6  1  0  0  0
  1  9  1  0  0  0
  2  3  1  0  0  0
  2 10  1  0  0  0
  3  4  2  0  0  0
  3  8  1  0  0  0
  4  5  1  0  0  0
  4 33  1  0  0  0
  5  6  2  0  0  0
  5 34  1  0  0  0
  6  7  1  0  0  0
 10 11  1  0  0  0
 10 13  1  0  0  0
 10 35  1  0  0  0
 11 12  1  0  0  0
 12 14  1  0  0  0
 12 18  2  0  0  0
 13 36  1  0  0  0
 13 37  1  0  0  0
 13 38  1  0  0  0
 14 15  2  0  0  0
 14 39  1  0  0  0
 15 16  1  0  0  0
 15 19  1  0  0  0
 16 17  1  0  0  0
 16 20  2  0  0  0
 17 18  1  0  0  0
 17 40  1  0  0  0
 18 41  1  0  0  0
 19 21  1  0  0  0
 19 22  2  0  0  0
 21 23  1  0  0  0
 21 42  1  0  0  0
 23 24  2  0  0  0
 23 28  1  0  0  0
 24 25  1  0  0  0
 24 43  1  0  0  0
 25 26  2  0  0  0
 25 44  1  0  0  0
 26 27  1  0  0  0
 26 29  1  0  0  0
 27 28  2  0  0  0
 27 45  1  0  0  0
 28 46  1  0  0  0
 29 30  1  0  0  0
 29 32  2  0  0  0
 30 31  1  0  0  0
 30 47  1  0  0  0
 31 48  1  0  0  0
 31 49  1  0  0  0
 31 50  1  0  0  0
M  END
> <s_m_entry_id>
10136

> <s_m_entry_name>
dock_pv.205

> <s_m_Source_Path>
/home/csk/Desktop/cluster/DUD-E-result/met

> <s_m_Source_File>
dock_pv.maegz

> <i_m_Source_File_Index>
205

> <chembl_id>
CHEMBL2376657

> <chembl_pref_name>
None

> <i_lp_mmshare_version>
53161

> <i_f3d_flags>
0

> <r_lp_tautomer_probability>
0.7352

> <s_lp_Force_Field>
OPLS_2005

> <r_lp_Energy>
39.918123

> <b_lp_Chiralities_Consistent>
1

> <s_lp_Variant>
CHEMBL3717_lig1393-1

> <s_i_glide_gridfile>
glide-grid_3lq8

> <i_i_glide_lignum>
1597

> <i_i_glide_rotatable_bonds>
8

> <r_i_docking_score>
-8.05368300280446

> <r_i_glide_ligand_efficiency>
-0.251677593837639

> <r_i_glide_ligand_efficiency_sa>
-0.799026553506316

> <r_i_glide_ligand_efficiency_ln>
-1.80343915943514

> <r_i_glide_gscore>
-8.05368300280446

> <r_i_glide_lipo>
-3.33330500925409

> <r_i_glide_hbond>
-0.464120262918236

> <r_i_glide_metal>
0

> <r_i_glide_rewards>
-1.46389170983822

> <r_i_glide_evdw>
-47.2544708251953

> <r_i_glide_ecoul>
-6.70624828338623

> <r_i_glide_erotb>
0.620027346825887

> <r_i_glide_esite>
-0.0437325838520915

> <r_i_glide_emodel>
-75.9368321110076

> <r_i_glide_energy>
-53.9607191085815

> <r_i_glide_einternal>
5.91597366333008

> <i_i_glide_confnum>
2

> <i_i_glide_posenum>
54

> <r_i_glide_eff_state_penalty>
0

> <s_user_duplicate_titles>
CHEMBL3717_lig1393

> <s_m_subgroup_title>
dock_pv

> <s_m_subgroupid>
dock_pv

> <b_m_subgroup_collapsed>
1

$$$$
CHEMBL3717_lig2500
                    3D
 Schrodinger Suite 2021-1.
 47 50  0  0  1  0            999 V2000
   -5.4964   -0.6165   32.2078 C   0  0  0  0  0  0
   -4.1289   -0.6440   31.6420 N   0  0  0  0  0  0
   -3.4794    0.5450   31.4269 N   0  0  0  0  0  0
   -3.9706    1.4003   30.5999 C   0  0  0  0  0  0
   -5.0491    1.0651   29.5570 C   0  0  0  0  0  0
   -3.5238    2.8147   30.6079 C   0  0  0  0  0  0
   -4.3910    3.8681   30.2710 C   0  0  0  0  0  0
   -3.9205    5.1811   30.2080 C   0  0  0  0  0  0
   -2.5552    5.4040   30.4441 C   0  0  0  0  0  0
   -1.7940    6.5170   30.3130 N   0  0  0  0  0  0
   -0.5777    6.1047   30.6079 C   0  0  0  0  0  0
   -0.4966    4.7616   30.9838 C   0  0  0  0  0  0
    0.6665    3.8828   31.4335 C   0  0  0  0  0  0
    1.9292    4.0280   30.5907 C   0  0  0  0  0  0
    3.1573    4.2721   31.2094 C   0  0  0  0  0  0
    4.3431    4.3571   30.4386 C   0  0  0  0  0  0
    5.6248    4.5582   31.0080 C   0  0  0  0  0  0
    6.7534    4.4998   30.2029 C   0  0  0  0  0  0
    6.5782    4.3687   28.8306 C   0  0  0  0  0  0
    5.3649    4.3570   28.2278 N   0  0  0  0  0  0
    4.2648    4.2367   29.0201 C   0  0  0  0  0  0
    3.0175    3.9570   28.4230 C   0  0  0  0  0  0
    1.8766    3.8483   29.2068 C   0  0  0  0  0  0
    0.7061    3.5576   28.6080 F   0  0  0  0  0  0
   -1.7835    4.2921   30.8252 N   0  0  0  0  0  0
   -2.2179    3.0256   30.9490 N   0  0  0  0  0  0
   -3.4269   -1.8083   31.5690 C   0  0  0  0  0  0
   -2.2257   -1.9282   31.8109 O   0  0  0  0  0  0
   -4.1275   -2.8430   31.0978 N   0  0  0  0  0  0
   -5.5996   -1.3083   33.0453 H   0  0  0  0  0  0
   -5.7617    0.3708   32.5897 H   0  0  0  0  0  0
   -6.2334   -0.8923   31.4535 H   0  0  0  0  0  0
   -4.9023    1.6245   28.6326 H   0  0  0  0  0  0
   -5.0574    0.0066   29.2928 H   0  0  0  0  0  0
   -6.0412    1.3060   29.9391 H   0  0  0  0  0  0
   -5.4310    3.6800   30.0440 H   0  0  0  0  0  0
   -4.5751    5.9900   29.9150 H   0  0  0  0  0  0
    0.2580    6.7899   30.5813 H   0  0  0  0  0  0
    0.8992    4.0939   32.4776 H   0  0  0  0  0  0
    0.4012    2.8249   31.4077 H   0  0  0  0  0  0
    3.2206    4.3763   32.2828 H   0  0  0  0  0  0
    5.7226    4.7507   32.0661 H   0  0  0  0  0  0
    7.7446    4.6060   30.6192 H   0  0  0  0  0  0
    7.4349    4.3588   28.1723 H   0  0  0  0  0  0
    2.9493    3.8229   27.3553 H   0  0  0  0  0  0
   -3.6942   -3.7648   31.0080 H   0  0  0  0  0  0
   -5.0877   -2.7303   30.8185 H   0  0  0  0  0  0
  1  2  1  0  0  0
  1 30  1  0  0  0
  1 31  1  0  0  0
  1 32  1  0  0  0
  2  3  1  0  0  0
  2 27  1  0  0  0
  3  4  2  0  0  0
  4  5  1  0  0  0
  4  6  1  0  0  0
  5 33  1  0  0  0
  5 34  1  0  0  0
  5 35  1  0  0  0
  6  7  1  0  0  0
  6 26  2  0  0  0
  7  8  2  0  0  0
  7 36  1  0  0  0
  8  9  1  0  0  0
  8 37  1  0  0  0
  9 10  2  0  0  0
  9 25  1  0  0  0
 10 11  1  0  0  0
 11 12  2  0  0  0
 11 38  1  0  0  0
 12 13  1  0  0  0
 12 25  1  0  0  0
 13 14  1  0  0  0
 13 39  1  0  0  0
 13 40  1  0  0  0
 14 15  2  0  0  0
 14 23  1  0  0  0
 15 16  1  0  0  0
 15 41  1  0  0  0
 16 17  2  0  0  0
 16 21  1  0  0  0
 17 18  1  0  0  0
 17 42  1  0  0  0
 18 19  2  0  0  0
 18 43  1  0  0  0
 19 20  1  0  0  0
 19 44  1  0  0  0
 20 21  2  0  0  0
 21 22  1  0  0  0
 22 23  2  0  0  0
 22 45  1  0  0  0
 23 24  1  0  0  0
 25 26  1  0  0  0
 27 28  2  0  0  0
 27 29  1  0  0  0
 29 46  1  0  0  0
 29 47  1  0  0  0
M  END
> <s_m_entry_id>
10137

> <s_m_entry_name>
dock_pv.206

> <s_m_Source_Path>
/home/csk/Desktop/cluster/DUD-E-result/met

> <s_m_Source_File>
dock_pv.maegz

> <i_m_Source_File_Index>
206

> <chembl_id>
CHEMBL3674485

> <chembl_pref_name>
None

> <i_lp_mmshare_version>
53161

> <i_f3d_flags>
0

> <r_lp_tautomer_probability>
1

> <s_lp_Force_Field>
OPLS_2005

> <r_lp_Energy>
24.381214

> <b_lp_Chiralities_Consistent>
1

> <s_lp_Variant>
CHEMBL3717_lig2500-1

> <s_i_glide_gridfile>
glide-grid_3lq8

> <i_i_glide_lignum>
2833

> <i_i_glide_rotatable_bonds>
5

> <r_i_docking_score>
-8.05033590490035

> <r_i_glide_ligand_efficiency>
-0.27759778982415

> <r_i_glide_ligand_efficiency_sa>
-0.852868359492653

> <r_i_glide_ligand_efficiency_ln>
-1.84332278331722

> <r_i_glide_gscore>
-8.05033590490035

> <r_i_glide_lipo>
-3.41953551213854

> <r_i_glide_hbond>
-0.16

> <r_i_glide_metal>
0

> <r_i_glide_rewards>
-2.23103033124715

> <r_i_glide_evdw>
-42.1583824157715

> <r_i_glide_ecoul>
-3.66743588447571

> <r_i_glide_erotb>
0.509526606517562

> <r_i_glide_esite>
-0.0912621645722905

> <r_i_glide_emodel>
-61.6176497239724

> <r_i_glide_energy>
-45.8258183002472

> <r_i_glide_einternal>
7.61136341094971

> <i_i_glide_confnum>
14

> <i_i_glide_posenum>
252

> <r_i_glide_eff_state_penalty>
0

> <s_user_duplicate_titles>
CHEMBL3717_lig2500

> <s_m_subgroup_title>
dock_pv

> <s_m_subgroupid>
dock_pv

> <b_m_subgroup_collapsed>
1

$$$$
CHEMBL3717_lig4039
                    3D
 Schrodinger Suite 2021-1.
 34 36  0  0  1  0            999 V2000
    5.2476    3.4473   30.2081 Cl  0  0  0  0  0  0
    1.1243    5.1570   32.6080 F   0  0  0  0  0  0
   -2.2628    7.5570   30.2079 O   0  0  0  0  0  0
   -1.4602    3.1570   30.7325 N   0  0  0  0  0  0
   -3.4152    1.0748   30.7741 N   0  0  0  0  0  0
   -5.6723    0.2916   30.4311 N   0  0  0  0  0  0
   -0.1023    7.0937   29.8793 N   0  0  0  0  0  0
   -3.9182   -1.2100   30.8227 N   0  0  0  0  0  0
   -0.6923    4.2838   30.6080 C   0  0  0  0  0  0
   -1.5912    5.3589   30.5138 C   0  0  0  0  0  0
   -2.8015    3.4224   30.6657 C   0  0  0  0  0  0
    0.7844    4.1521   30.4786 C   0  0  0  0  0  0
   -2.8843    4.8073   30.6248 C   0  0  0  0  0  0
   -3.8461    2.3575   30.6080 C   0  0  0  0  0  0
    1.6303    4.5666   31.5059 C   0  0  0  0  0  0
   -1.3460    6.7467   30.2080 C   0  0  0  0  0  0
    1.3387    3.5570   29.3390 C   0  0  0  0  0  0
    3.0023    4.3483   31.4092 C   0  0  0  0  0  0
   -5.1876    2.6565   30.3452 C   0  0  0  0  0  0
    3.5490    3.7373   30.2843 C   0  0  0  0  0  0
    2.7147    3.3510   29.2375 C   0  0  0  0  0  0
   -4.3520    0.1003   30.6731 C   0  0  0  0  0  0
   -6.0737    1.5790   30.2686 C   0  0  0  0  0  0
   -1.0803    2.2225   30.7632 H   0  0  0  0  0  0
    0.6419    6.4138   29.9056 H   0  0  0  0  0  0
    0.0813    8.0560   29.6326 H   0  0  0  0  0  0
   -4.5724   -1.9543   30.6305 H   0  0  0  0  0  0
   -2.9279   -1.3900   30.8765 H   0  0  0  0  0  0
   -3.8048    5.3719   30.5671 H   0  0  0  0  0  0
    0.7062    3.2177   28.5364 H   0  0  0  0  0  0
    3.6380    4.6383   32.2244 H   0  0  0  0  0  0
   -5.5298    3.6715   30.2082 H   0  0  0  0  0  0
    3.1266    2.8718   28.3602 H   0  0  0  0  0  0
   -7.1249    1.7352   30.0718 H   0  0  0  0  0  0
  1 20  1  0  0  0
  2 15  1  0  0  0
  3 16  2  0  0  0
  4  9  1  0  0  0
  4 11  1  0  0  0
  4 24  1  0  0  0
  5 14  1  0  0  0
  5 22  2  0  0  0
  6 22  1  0  0  0
  6 23  2  0  0  0
  7 16  1  0  0  0
  7 25  1  0  0  0
  7 26  1  0  0  0
  8 22  1  0  0  0
  8 27  1  0  0  0
  8 28  1  0  0  0
  9 10  2  0  0  0
  9 12  1  0  0  0
 10 13  1  0  0  0
 10 16  1  0  0  0
 11 13  2  0  0  0
 11 14  1  0  0  0
 12 15  1  0  0  0
 12 17  2  0  0  0
 13 29  1  0  0  0
 14 19  2  0  0  0
 15 18  2  0  0  0
 17 21  1  0  0  0
 17 30  1  0  0  0
 18 20  1  0  0  0
 18 31  1  0  0  0
 19 23  1  0  0  0
 19 32  1  0  0  0
 20 21  2  0  0  0
 21 33  1  0  0  0
 23 34  1  0  0  0
M  END
> <s_m_entry_id>
10138

> <s_m_entry_name>
dock_pv.207

> <s_m_Source_Path>
/home/csk/Desktop/cluster/DUD-E-result/met

> <s_m_Source_File>
dock_pv.maegz

> <i_m_Source_File_Index>
207

> <chembl_id>
CHEMBL1981079

> <chembl_pref_name>
None

> <i_lp_mmshare_version>
53161

> <i_f3d_flags>
0

> <r_lp_tautomer_probability>
0.999999987636

> <s_lp_Force_Field>
OPLS_2005

> <r_lp_Energy>
0.372588

> <b_lp_Chiralities_Consistent>
1

> <s_lp_Variant>
CHEMBL3717_lig4039-1

> <s_i_glide_gridfile>
glide-grid_3lq8

> <i_i_glide_lignum>
5151

> <i_i_glide_rotatable_bonds>
3

> <r_i_docking_score>
-8.04977881175748

> <r_i_glide_ligand_efficiency>
-0.34999038311989

> <r_i_glide_ligand_efficiency_sa>
-0.995326092779976

> <r_i_glide_ligand_efficiency_ln>
-1.94650950804168

> <r_i_glide_gscore>
-8.04977881175748

> <r_i_glide_lipo>
-3.04422115938628

> <r_i_glide_hbond>
-0.253383710061619

> <r_i_glide_metal>
0

> <r_i_glide_rewards>
-2.64780315388215

> <r_i_glide_evdw>
-35.9824028015137

> <r_i_glide_ecoul>
-4.31589031219482

> <r_i_glide_erotb>
0.342132898477473

> <r_i_glide_esite>
0

> <r_i_glide_emodel>
-57.6053633113766

> <r_i_glide_energy>
-40.2982931137085

> <r_i_glide_einternal>
3.19980120658875

> <i_i_glide_confnum>
5

> <i_i_glide_posenum>
61

> <r_i_glide_eff_state_penalty>
0

> <s_user_duplicate_titles>
CHEMBL3717_lig4039

> <s_m_subgroup_title>
dock_pv

> <s_m_subgroupid>
dock_pv

> <b_m_subgroup_collapsed>
1

$$$$
CHEMBL3717_lig4176
                    3D
 Schrodinger Suite 2021-1.
 42 44  0  0  1  0            999 V2000
   -4.3596    2.2491   30.6080 Cl  0  0  0  0  0  0
   -4.6486    5.2020   30.2994 O   0  0  0  0  0  0
   -2.5102    6.9907   30.2080 N   0  0  0  0  0  0
    1.5841    3.5446   29.9461 N   0  0  1  0  0  0
   -0.9249    5.2254   30.7087 C   0  0  0  0  0  0
   -2.2658    5.6968   30.5223 C   0  0  0  0  0  0
   -0.7164    3.8567   30.9875 C   0  0  0  0  0  0
   -3.3590    4.7859   30.5459 C   0  0  0  0  0  0
   -3.1008    3.4312   30.7364 C   0  0  0  0  0  0
   -1.8158    3.0000   31.0244 C   0  0  0  0  0  0
    0.7129    3.3232   31.1225 C   0  0  0  0  0  0
    0.1442    6.1484   30.5231 C   0  0  0  0  0  0
   -0.1287    7.4195   30.0661 C   0  0  0  0  0  0
   -1.4537    7.7817   29.9458 C   0  0  0  0  0  0
    2.8570    2.8105   30.0355 C   0  0  0  0  0  0
    3.8435    3.0880   28.8700 C   0  0  0  0  0  0
    3.6564    3.0527   31.3335 C   0  0  0  0  0  0
    0.9668    3.3331   28.6336 C   0  0  0  0  0  0
    4.3358    4.5343   28.8582 C   0  0  0  0  0  0
    4.1075    4.5244   31.4035 C   0  0  0  0  0  0
    5.0006    4.8975   30.1996 C   0  0  0  0  0  0
   -4.7176    6.0895   29.9366 H   0  0  0  0  0  0
   -1.6940    1.9570   31.2259 H   0  0  0  0  0  0
    0.7060    2.2814   31.4080 H   0  0  0  0  0  0
    1.1519    3.8374   31.9780 H   0  0  0  0  0  0
    1.1735    5.8622   30.6596 H   0  0  0  0  0  0
    0.6611    8.1181   29.8315 H   0  0  0  0  0  0
   -1.6941    8.7570   29.5980 H   0  0  0  0  0  0
    2.6496    1.7463   30.0071 H   0  0  0  0  0  0
    3.4333    2.8025   27.9012 H   0  0  0  0  0  0
    4.7060    2.4595   29.0080 H   0  0  0  0  0  0
    4.5209    2.3872   31.3486 H   0  0  0  0  0  0
    3.0810    2.7838   32.2188 H   0  0  0  0  0  0
   -0.0940    3.5569   28.6080 H   0  0  0  0  0  0
    1.4355    3.9887   27.8994 H   0  0  0  0  0  0
    1.1060    2.3191   28.2778 H   0  0  0  0  0  0
    3.4658    5.1570   28.6806 H   0  0  0  0  0  0
    5.0321    4.6979   28.0349 H   0  0  0  0  0  0
    3.2220    5.1570   31.4041 H   0  0  0  0  0  0
    4.6186    4.7570   32.3356 H   0  0  0  0  0  0
    5.2470    5.9570   30.2111 H   0  0  0  0  0  0
    5.9531    4.3716   30.2817 H   0  0  0  0  0  0
  1  9  1  0  0  0
  2  8  1  0  0  0
  2 22  1  0  0  0
  3  6  2  0  0  0
  3 14  1  0  0  0
  4 11  1  0  0  0
  4 15  1  0  0  0
  4 18  1  0  0  0
  5  6  1  0  0  0
  5  7  1  0  0  0
  5 12  2  0  0  0
  6  8  1  0  0  0
  7 10  2  0  0  0
  7 11  1  0  0  0
  8  9  2  0  0  0
  9 10  1  0  0  0
 10 23  1  0  0  0
 11 24  1  0  0  0
 11 25  1  0  0  0
 12 13  1  0  0  0
 12 26  1  0  0  0
 13 14  2  0  0  0
 13 27  1  0  0  0
 14 28  1  0  0  0
 15 16  1  0  0  0
 15 17  1  0  0  0
 15 29  1  0  0  0
 16 19  1  0  0  0
 16 30  1  0  0  0
 16 31  1  0  0  0
 17 20  1  0  0  0
 17 32  1  0  0  0
 17 33  1  0  0  0
 18 34  1  0  0  0
 18 35  1  0  0  0
 18 36  1  0  0  0
 19 21  1  0  0  0
 19 37  1  0  0  0
 19 38  1  0  0  0
 20 21  1  0  0  0
 20 39  1  0  0  0
 20 40  1  0  0  0
 21 41  1  0  0  0
 21 42  1  0  0  0
M  END
> <s_m_entry_id>
10139

> <s_m_entry_name>
dock_pv.208

> <s_m_Source_Path>
/home/csk/Desktop/cluster/DUD-E-result/met

> <s_m_Source_File>
dock_pv.maegz

> <i_m_Source_File_Index>
208

> <chembl_id>
CHEMBL1982413

> <chembl_pref_name>
None

> <i_lp_mmshare_version>
53161

> <i_f3d_flags>
0

> <r_lp_tautomer_probability>
1

> <s_lp_Force_Field>
OPLS_2005

> <r_lp_Energy>
26.138487

> <b_lp_Chiralities_Consistent>
1

> <s_lp_Variant>
CHEMBL3717_lig4176-1

> <s_i_glide_gridfile>
glide-grid_3lq8

> <i_i_glide_lignum>
5352

> <i_i_glide_rotatable_bonds>
4

> <r_i_docking_score>
-8.04189578869276

> <r_i_glide_ligand_efficiency>
-0.382947418509179

> <r_i_glide_ligand_efficiency_sa>
-1.05652289013551

> <r_i_glide_ligand_efficiency_ln>
-1.98834248357375

> <r_i_glide_gscore>
-8.04189578869276

> <r_i_glide_lipo>
-4.19929803067301

> <r_i_glide_hbond>
-0.295972893038768

> <r_i_glide_metal>
0

> <r_i_glide_rewards>
-2.98081268181818

> <r_i_glide_evdw>
-16.622537612915

> <r_i_glide_ecoul>
-2.20228481292725

> <r_i_glide_erotb>
0.595657419422039

> <r_i_glide_esite>
0

> <r_i_glide_emodel>
-23.3916087161347

> <r_i_glide_energy>
-18.8248224258423

> <r_i_glide_einternal>
7.43686437606812

> <i_i_glide_confnum>
41

> <i_i_glide_posenum>
51

> <r_i_glide_eff_state_penalty>
0

> <s_user_duplicate_titles>
CHEMBL3717_lig4176

> <s_m_subgroup_title>
dock_pv

> <s_m_subgroupid>
dock_pv

> <b_m_subgroup_collapsed>
1

$$$$
CHEMBL3717_lig4169
                    3D
 Schrodinger Suite 2021-1.
 36 38  0  0  1  0            999 V2000
   -1.3263    3.1570   31.2412 O   0  0  0  0  0  0
   -5.3202    5.9570   30.6080 O   0  0  0  0  0  0
   -3.9526    6.2888   30.5821 N   0  0  0  0  0  0
   -0.8289    4.4103   30.9168 C   0  0  0  0  0  0
   -1.7039    5.4785   30.6080 C   0  0  0  0  0  0
   -3.1810    5.2711   30.6044 C   0  0  0  0  0  0
   -2.6368    2.8957   30.9717 C   0  0  0  0  0  0
    0.5656    4.5720   30.8563 C   0  0  0  0  0  0
   -3.5076    3.8616   30.6080 C   0  0  0  0  0  0
   -2.9738    1.4551   31.0655 C   0  0  0  0  0  0
   -1.1388    6.7021   30.2080 C   0  0  0  0  0  0
    1.0853    5.8100   30.4682 C   0  0  0  0  0  0
    0.2409    6.8608   30.1286 C   0  0  0  0  0  0
    1.5333    3.4439   31.2086 C   0  0  0  0  0  0
   -2.4940    0.6797   32.1326 C   0  0  0  0  0  0
   -3.8077    0.8569   30.1119 C   0  0  0  0  0  0
   -2.7920   -0.6788   32.2068 C   0  0  0  0  0  0
   -4.1094   -0.5002   30.1876 C   0  0  0  0  0  0
    2.5584    3.1585   30.1232 C   0  0  0  0  0  0
   -3.5944   -1.2642   31.2312 C   0  0  0  0  0  0
    3.8655    3.4557   30.2080 C   0  0  0  0  0  0
   -5.6945    6.5835   29.9721 H   0  0  0  0  0  0
   -4.5260    3.5628   30.4093 H   0  0  0  0  0  0
   -1.7622    7.5408   29.9323 H   0  0  0  0  0  0
    2.1537    5.9555   30.4134 H   0  0  0  0  0  0
    0.6538    7.8068   29.8083 H   0  0  0  0  0  0
    1.0061    2.5125   31.4080 H   0  0  0  0  0  0
    2.0389    3.7100   32.1383 H   0  0  0  0  0  0
   -1.8680    1.1277   32.8912 H   0  0  0  0  0  0
   -4.2005    1.4334   29.2870 H   0  0  0  0  0  0
   -2.3935   -1.2817   33.0080 H   0  0  0  0  0  0
   -4.7301   -0.9607   29.4317 H   0  0  0  0  0  0
    2.1811    2.6781   29.2304 H   0  0  0  0  0  0
   -3.8182   -2.3208   31.2814 H   0  0  0  0  0  0
    4.2786    3.9386   31.0813 H   0  0  0  0  0  0
    4.5423    3.2191   29.3988 H   0  0  0  0  0  0
  1  4  1  0  0  0
  1  7  1  0  0  0
  2  3  1  0  0  0
  2 22  1  0  0  0
  3  6  2  3  0  0
  4  5  1  0  0  0
  4  8  2  0  0  0
  5  6  1  0  0  0
  5 11  2  0  0  0
  6  9  1  0  0  0
  7  9  2  0  0  0
  7 10  1  0  0  0
  8 12  1  0  0  0
  8 14  1  0  0  0
  9 23  1  0  0  0
 10 15  2  0  0  0
 10 16  1  0  0  0
 11 13  1  0  0  0
 11 24  1  0  0  0
 12 13  2  0  0  0
 12 25  1  0  0  0
 13 26  1  0  0  0
 14 19  1  0  0  0
 14 27  1  0  0  0
 14 28  1  0  0  0
 15 17  1  0  0  0
 15 29  1  0  0  0
 16 18  2  0  0  0
 16 30  1  0  0  0
 17 20  2  0  0  0
 17 31  1  0  0  0
 18 20  1  0  0  0
 18 32  1  0  0  0
 19 21  2  0  0  0
 19 33  1  0  0  0
 20 34  1  0  0  0
 21 35  1  0  0  0
 21 36  1  0  0  0
M  END
> <s_m_entry_id>
10140

> <s_m_entry_name>
dock_pv.209

> <s_m_Source_Path>
/home/csk/Desktop/cluster/DUD-E-result/met

> <s_m_Source_File>
dock_pv.maegz

> <i_m_Source_File_Index>
209

> <chembl_id>
CHEMBL1977749

> <chembl_pref_name>
None

> <i_lp_mmshare_version>
53161

> <i_f3d_flags>
0

> <r_lp_tautomer_probability>
1

> <s_lp_Force_Field>
OPLS_2005

> <r_lp_Energy>
23.184018

> <b_lp_Chiralities_Consistent>
1

> <s_lp_Variant>
CHEMBL3717_lig4169-2

> <s_i_glide_gridfile>
glide-grid_3lq8

> <i_i_glide_lignum>
5336

> <i_i_glide_rotatable_bonds>
4

> <r_i_docking_score>
-8.02774930189442

> <r_i_glide_ligand_efficiency>
-0.382273776280687

> <r_i_glide_ligand_efficiency_sa>
-1.05466436230698

> <r_i_glide_ligand_efficiency_ln>
-1.98484479329853

> <r_i_glide_gscore>
-8.02774930189442

> <r_i_glide_lipo>
-3.99643000009983

> <r_i_glide_hbond>
-0.32

> <r_i_glide_metal>
0

> <r_i_glide_rewards>
-2.20995848484848

> <r_i_glide_evdw>
-33.799732208252

> <r_i_glide_ecoul>
-4.98632955551147

> <r_i_glide_erotb>
0.936575226793216

> <r_i_glide_esite>
0

> <r_i_glide_emodel>
-52.0397563241216

> <r_i_glide_energy>
-38.7860617637634

> <r_i_glide_einternal>
6.03973722457886

> <i_i_glide_confnum>
27

> <i_i_glide_posenum>
343

> <r_i_glide_eff_state_penalty>
0

> <s_user_duplicate_titles>
CHEMBL3717_lig4169,CHEMBL3717_lig4169

> <s_m_subgroup_title>
dock_pv

> <s_m_subgroupid>
dock_pv

> <b_m_subgroup_collapsed>
1

$$$$
CHEMBL3717_lig327
                    3D
 Schrodinger Suite 2021-1.
 37 40  0  0  1  0            999 V2000
   -5.2998    2.3571   30.0498 N   0  0  0  0  0  0
   -7.5278    2.0901   30.0060 N   0  0  0  0  0  0
   -2.7390    4.8797   30.6080 C   0  0  0  0  0  0
   -2.5298    6.2132   30.2312 C   0  0  0  0  0  0
   -1.2474    6.7575   30.2079 C   0  0  0  0  0  0
   -4.0973    4.2604   30.4884 C   0  0  0  0  0  0
   -5.2844    4.9907   30.6516 C   0  0  0  0  0  0
   -6.5392    2.9892   30.2089 C   0  0  0  0  0  0
   -3.6114   -0.5267   30.4583 C   0  0  0  0  0  0
   -1.9412   -2.1212   31.1940 C   0  0  0  0  0  0
   -2.5235   -0.2527   32.6079 C   0  0  0  0  0  0
   -2.8572   -1.6838   30.2361 C   0  0  0  0  0  0
   -1.7833   -1.4072   32.3805 C   0  0  0  0  0  0
   -0.8940   -1.8231   33.3340 O   0  0  0  0  0  0
   -3.4341    0.1768   31.6486 C   0  0  0  0  0  0
   -4.5795   -0.0424   29.3727 C   0  0  0  0  0  0
   -5.5985    1.0436   29.7333 C   0  0  0  0  0  0
   -4.0945    2.9331   30.1806 N   0  0  0  0  0  0
   -6.9081    0.8859   29.7045 N   0  0  0  0  0  0
   -6.5263    4.3591   30.5177 C   0  0  0  0  0  0
   -1.6279    4.1189   31.0088 C   0  0  0  0  0  0
   -0.3468    4.6632   31.0078 C   0  0  0  0  0  0
   -0.1606    5.9782   30.5961 C   0  0  0  0  0  0
   -3.3593    6.8188   29.9020 H   0  0  0  0  0  0
   -1.0953    7.7802   29.8904 H   0  0  0  0  0  0
   -5.2549    6.0456   30.8830 H   0  0  0  0  0  0
   -1.3662   -3.0170   31.0101 H   0  0  0  0  0  0
   -2.3956    0.3087   33.5219 H   0  0  0  0  0  0
   -2.9741   -2.2436   29.3183 H   0  0  0  0  0  0
   -0.2327   -2.4422   33.0071 H   0  0  0  0  0  0
   -4.0022    1.0688   31.8176 H   0  0  0  0  0  0
   -3.9758    0.2896   28.5270 H   0  0  0  0  0  0
   -5.1066   -0.9250   29.0071 H   0  0  0  0  0  0
   -7.4494    4.9088   30.6312 H   0  0  0  0  0  0
   -1.7499    3.0868   31.3054 H   0  0  0  0  0  0
    0.4980    4.0613   31.3108 H   0  0  0  0  0  0
    0.8334    6.4013   30.5829 H   0  0  0  0  0  0
  1  8  1  0  0  0
  1 17  1  0  0  0
  1 18  1  0  0  0
  2  8  2  0  0  0
  2 19  1  0  0  0
  3  4  2  0  0  0
  3  6  1  0  0  0
  3 21  1  0  0  0
  4  5  1  0  0  0
  4 24  1  0  0  0
  5 23  2  0  0  0
  5 25  1  0  0  0
  6  7  1  0  0  0
  6 18  2  0  0  0
  7 20  2  0  0  0
  7 26  1  0  0  0
  8 20  1  0  0  0
  9 12  2  0  0  0
  9 15  1  0  0  0
  9 16  1  0  0  0
 10 12  1  0  0  0
 10 13  2  0  0  0
 10 27  1  0  0  0
 11 13  1  0  0  0
 11 15  2  0  0  0
 11 28  1  0  0  0
 12 29  1  0  0  0
 13 14  1  0  0  0
 14 30  1  0  0  0
 15 31  1  0  0  0
 16 17  1  0  0  0
 16 32  1  0  0  0
 16 33  1  0  0  0
 17 19  2  0  0  0
 20 34  1  0  0  0
 21 22  2  0  0  0
 21 35  1  0  0  0
 22 23  1  0  0  0
 22 36  1  0  0  0
 23 37  1  0  0  0
M  END
> <s_m_entry_id>
10141

> <s_m_entry_name>
dock_pv.210

> <s_m_Source_Path>
/home/csk/Desktop/cluster/DUD-E-result/met

> <s_m_Source_File>
dock_pv.maegz

> <i_m_Source_File_Index>
210

> <chembl_id>
CHEMBL495898

> <chembl_pref_name>
None

> <i_lp_mmshare_version>
53161

> <i_f3d_flags>
0

> <r_lp_tautomer_probability>
0.999999999997365

> <s_lp_Force_Field>
OPLS_2005

> <r_lp_Energy>
19.56988

> <b_lp_Chiralities_Consistent>
1

> <s_lp_Variant>
CHEMBL3717_lig327-1

> <s_i_glide_gridfile>
glide-grid_3lq8

> <i_i_glide_lignum>
343

> <i_i_glide_rotatable_bonds>
4

> <r_i_docking_score>
-8.02586011486634

> <r_i_glide_ligand_efficiency>
-0.348950439776797

> <r_i_glide_ligand_efficiency_sa>
-0.992368632248727

> <r_i_glide_ligand_efficiency_ln>
-1.94072575025065

> <r_i_glide_gscore>
-8.02586011486634

> <r_i_glide_lipo>
-3.48986949800663

> <r_i_glide_hbond>
-0.252360385450918

> <r_i_glide_metal>
0

> <r_i_glide_rewards>
-2.57729198998874

> <r_i_glide_evdw>
-37.8437919616699

> <r_i_glide_ecoul>
-2.78939032554626

> <r_i_glide_erotb>
0.604259905495387

> <r_i_glide_esite>
0

> <r_i_glide_emodel>
-57.5764980314576

> <r_i_glide_energy>
-40.6331822872162

> <r_i_glide_einternal>
3.49562692642212

> <i_i_glide_confnum>
3

> <i_i_glide_posenum>
383

> <r_i_glide_eff_state_penalty>
0

> <s_user_duplicate_titles>
CHEMBL3717_lig327,486591

> <s_m_subgroup_title>
dock_pv

> <s_m_subgroupid>
dock_pv

> <b_m_subgroup_collapsed>
1

$$$$
CHEMBL3717_lig4199
                    3D
 Schrodinger Suite 2021-1.
 25 27  0  0  1  0            999 V2000
    5.2867    3.9616   30.7831 Cl  0  0  0  0  0  0
    1.5044    3.9909   28.3901 N   0  0  0  0  0  0
   -0.8464    7.5570   29.8084 N   0  0  0  0  0  0
    3.7290    3.1572   28.7905 N   0  0  0  0  0  0
   -2.9276    6.5937   30.5756 N   0  0  0  0  0  0
    2.4578    2.3575   27.0081 N   0  0  0  0  0  0
    0.4723    5.7020   29.7545 C   0  0  0  0  0  0
   -0.8293    5.3414   30.2366 C   0  0  0  0  0  0
    1.6128    4.7814   29.4895 C   0  0  0  0  0  0
   -1.6364    6.5201   30.2364 C   0  0  0  0  0  0
    0.3956    7.0664   29.5080 C   0  0  0  0  0  0
    2.7494    4.7569   30.2945 C   0  0  0  0  0  0
    2.5658    3.2000   28.1024 C   0  0  0  0  0  0
    3.8124    3.9470   29.8898 C   0  0  0  0  0  0
   -1.4560    4.1399   30.6081 C   0  0  0  0  0  0
   -2.8304    4.1726   30.8462 C   0  0  0  0  0  0
   -3.5073    5.3948   30.8396 C   0  0  0  0  0  0
   -1.0910    8.5330   29.6849 H   0  0  0  0  0  0
    1.5587    2.2850   26.5552 H   0  0  0  0  0  0
    3.1779    1.6674   26.8590 H   0  0  0  0  0  0
    1.1060    7.7554   29.0931 H   0  0  0  0  0  0
    2.7981    5.3477   31.1842 H   0  0  0  0  0  0
   -0.9139    3.2056   30.6006 H   0  0  0  0  0  0
   -3.3679    3.2501   31.0087 H   0  0  0  0  0  0
   -4.5698    5.4262   31.0369 H   0  0  0  0  0  0
  1 14  1  0  0  0
  2  9  2  0  0  0
  2 13  1  0  0  0
  3 10  1  0  0  0
  3 11  1  0  0  0
  3 18  1  0  0  0
  4 13  2  0  0  0
  4 14  1  0  0  0
  5 10  2  0  0  0
  5 17  1  0  0  0
  6 13  1  0  0  0
  6 19  1  0  0  0
  6 20  1  0  0  0
  7  8  1  0  0  0
  7  9  1  0  0  0
  7 11  2  0  0  0
  8 10  1  0  0  0
  8 15  2  0  0  0
  9 12  1  0  0  0
 11 21  1  0  0  0
 12 14  2  0  0  0
 12 22  1  0  0  0
 15 16  1  0  0  0
 15 23  1  0  0  0
 16 17  2  0  0  0
 16 24  1  0  0  0
 17 25  1  0  0  0
M  END
> <s_m_entry_id>
10142

> <s_m_entry_name>
dock_pv.211

> <s_m_Source_Path>
/home/csk/Desktop/cluster/DUD-E-result/met

> <s_m_Source_File>
dock_pv.maegz

> <i_m_Source_File_Index>
211

> <chembl_id>
CHEMBL2007574

> <chembl_pref_name>
None

> <i_lp_mmshare_version>
53161

> <i_f3d_flags>
0

> <r_lp_tautomer_probability>
0.999998420164496

> <s_lp_Force_Field>
OPLS_2005

> <r_lp_Energy>
-0.725728

> <b_lp_Chiralities_Consistent>
1

> <s_lp_Variant>
CHEMBL3717_lig4199-1

> <s_i_glide_gridfile>
glide-grid_3lq8

> <i_i_glide_lignum>
5392

> <i_i_glide_rotatable_bonds>
1

> <r_i_docking_score>
-8.02339376461218

> <r_i_glide_ligand_efficiency>
-0.471964339094834

> <r_i_glide_ligand_efficiency_sa>
-1.21355321541564

> <r_i_glide_ligand_efficiency_ln>
-2.09312476099283

> <r_i_glide_gscore>
-8.02339376461218

> <r_i_glide_lipo>
-2.58579182829867

> <r_i_glide_hbond>
-0.349191389942028

> <r_i_glide_metal>
0

> <r_i_glide_rewards>
-3.34609086559553

> <r_i_glide_evdw>
-29.4177074432373

> <r_i_glide_ecoul>
-3.15593957901001

> <r_i_glide_erotb>
0.201956628237409

> <r_i_glide_esite>
0

> <r_i_glide_emodel>
-44.3935557222068

> <r_i_glide_energy>
-32.5736470222473

> <r_i_glide_einternal>
5.4131441116333

> <i_i_glide_confnum>
3

> <i_i_glide_posenum>
103

> <r_i_glide_eff_state_penalty>
0

> <s_user_duplicate_titles>
CHEMBL3717_lig4199

> <s_m_subgroup_title>
dock_pv

> <s_m_subgroupid>
dock_pv

> <b_m_subgroup_collapsed>
1

$$$$
CHEMBL3717_lig442
                    3D
 Schrodinger Suite 2021-1.
 30 33  0  0  1  0            999 V2000
    5.4624    4.4853   30.5089 C   0  0  0  0  0  0
    5.7605    4.3570   29.1574 C   0  0  0  0  0  0
    4.8403    4.0571   28.2080 N   0  0  0  0  0  0
    4.1344    4.3751   30.9353 C   0  0  0  0  0  0
    3.1750    4.2120   29.9292 C   0  0  0  0  0  0
    3.5686    3.9695   28.5862 C   0  0  0  0  0  0
    2.4027    3.6036   27.8466 C   0  0  0  0  0  0
    1.3555    3.7675   28.7122 C   0  0  0  0  0  0
    1.7947    4.2370   29.9188 N   0  0  0  0  0  0
    0.7400    4.3570   31.2280 S   0  0  0  0  0  0
    0.3263    2.9748   31.4080 O   0  0  0  0  0  0
    1.4030    5.1428   32.2711 O   0  0  0  0  0  0
   -0.7191    5.2566   30.6859 C   0  0  0  0  0  0
   -2.1790    6.8345   30.0807 N   0  0  0  0  0  0
   -0.9015    6.5462   30.2080 C   0  0  0  0  0  0
   -2.8161    5.7052   30.2944 C   0  0  0  0  0  0
   -1.9730    4.6741   30.6571 N   0  0  0  0  0  0
   -2.6009    3.4539   30.8611 C   0  0  0  0  0  0
   -3.9562    3.5292   30.6080 C   0  0  0  0  0  0
   -4.4820    5.1570   30.2094 S   0  0  0  0  0  0
    0.3060    7.6949   29.8195 Cl  0  0  0  0  0  0
    6.4911    4.7570   31.4080 N   0  0  0  0  0  0
    6.7797    4.4237   28.8062 H   0  0  0  0  0  0
    3.8464    4.4832   31.9672 H   0  0  0  0  0  0
    2.3061    3.2496   26.8351 H   0  0  0  0  0  0
    0.3060    3.5570   28.6080 H   0  0  0  0  0  0
   -2.0402    2.5787   31.1516 H   0  0  0  0  0  0
   -4.6845    2.7302   30.6615 H   0  0  0  0  0  0
    6.2196    5.1462   32.2994 H   0  0  0  0  0  0
    7.3685    5.0495   30.9984 H   0  0  0  0  0  0
  1  2  2  0  0  0
  1  4  1  0  0  0
  1 22  1  0  0  0
  2  3  1  0  0  0
  2 23  1  0  0  0
  3  6  2  0  0  0
  4  5  2  0  0  0
  4 24  1  0  0  0
  5  6  1  0  0  0
  5  9  1  0  0  0
  6  7  1  0  0  0
  7  8  2  0  0  0
  7 25  1  0  0  0
  8  9  1  0  0  0
  8 26  1  0  0  0
  9 10  1  0  0  0
 10 11  2  0  0  0
 10 12  2  0  0  0
 10 13  1  0  0  0
 13 17  1  0  0  0
 13 15  2  0  0  0
 14 16  2  0  0  0
 14 15  1  0  0  0
 15 21  1  0  0  0
 16 17  1  0  0  0
 16 20  1  0  0  0
 17 18  1  0  0  0
 18 19  2  0  0  0
 18 27  1  0  0  0
 19 20  1  0  0  0
 19 28  1  0  0  0
 22 29  1  0  0  0
 22 30  1  0  0  0
M  END
> <s_m_entry_id>
10143

> <s_m_entry_name>
dock_pv.212

> <s_m_Source_Path>
/home/csk/Desktop/cluster/DUD-E-result/met

> <s_m_Source_File>
dock_pv.maegz

> <i_m_Source_File_Index>
212

> <chembl_id>
CHEMBL558306

> <chembl_pref_name>
None

> <i_lp_mmshare_version>
53161

> <i_f3d_flags>
0

> <r_lp_tautomer_probability>
1

> <s_lp_Force_Field>
OPLS_2005

> <r_lp_Energy>
4.753878

> <b_lp_Chiralities_Consistent>
1

> <s_lp_Variant>
CHEMBL3717_lig442-1

> <s_i_glide_gridfile>
glide-grid_3lq8

> <i_i_glide_lignum>
466

> <i_i_glide_rotatable_bonds>
2

> <r_i_docking_score>
-8.01899846679859

> <r_i_glide_ligand_efficiency>
-0.364499930309027

> <r_i_glide_ligand_efficiency_sa>
-1.0213431396947

> <r_i_glide_ligand_efficiency_ln>
-1.9601357253616

> <r_i_glide_gscore>
-8.01899846679859

> <r_i_glide_lipo>
-2.92545082700972

> <r_i_glide_hbond>
-0.0101535213919143

> <r_i_glide_metal>
0

> <r_i_glide_rewards>
-3.30810767170183

> <r_i_glide_evdw>
-35.0643653869629

> <r_i_glide_ecoul>
-2.18164610862732

> <r_i_glide_erotb>
0.305178738947112

> <r_i_glide_esite>
0

> <r_i_glide_emodel>
-51.0702060086477

> <r_i_glide_energy>
-37.2460114955902

> <r_i_glide_einternal>
1.35343742370605

> <i_i_glide_confnum>
7

> <i_i_glide_posenum>
337

> <r_i_glide_eff_state_penalty>
0

> <s_user_duplicate_titles>
CHEMBL3717_lig442,567411

> <s_m_subgroup_title>
dock_pv

> <s_m_subgroupid>
dock_pv

> <b_m_subgroup_collapsed>
1

$$$$
CHEMBL3717_lig415
                    3D
 Schrodinger Suite 2021-1.
 28 30  0  0  1  0            999 V2000
   -3.3917    4.9931   31.0081 C   0  0  0  0  0  0
   -3.6409    6.2987   30.6044 C   0  0  0  0  0  0
   -2.6694    7.1564   30.2084 N   0  0  0  0  0  0
   -2.0796    4.5219   31.0940 C   0  0  0  0  0  0
   -1.0739    5.4113   30.6898 C   0  0  0  0  0  0
   -1.4132    6.7100   30.2071 C   0  0  0  0  0  0
   -0.2105    7.3613   29.8087 C   0  0  0  0  0  0
    0.8086    6.5114   30.1700 C   0  0  0  0  0  0
    0.3089    5.3261   30.6569 N   0  0  0  0  0  0
    1.2950    4.1672   31.4448 S   0  0  0  0  0  0
    2.7644    4.0090   30.4471 C   0  0  0  0  0  0
    1.6666    4.7571   32.7324 O   0  0  0  0  0  0
    0.5611    2.9084   31.3972 O   0  0  0  0  0  0
    3.9849    4.3549   31.0233 C   0  0  0  0  0  0
    5.1554    4.3512   30.2760 C   0  0  0  0  0  0
    5.1065    3.9696   28.9418 C   0  0  0  0  0  0
    3.9018    3.5569   28.3708 C   0  0  0  0  0  0
    2.7233    3.5953   29.1106 C   0  0  0  0  0  0
    1.2511    3.1556   28.3310 Cl  0  0  0  0  0  0
    6.6518    4.8065   31.0067 Cl  0  0  0  0  0  0
   -4.2214    4.3569   31.2763 H   0  0  0  0  0  0
   -4.6546    6.6743   30.5613 H   0  0  0  0  0  0
   -1.8629    3.5234   31.4436 H   0  0  0  0  0  0
   -0.0941    8.3548   29.4003 H   0  0  0  0  0  0
    1.8780    6.6555   30.1234 H   0  0  0  0  0  0
    4.0232    4.6681   32.0558 H   0  0  0  0  0  0
    6.0134    3.9569   28.3551 H   0  0  0  0  0  0
    3.8794    3.2067   27.3514 H   0  0  0  0  0  0
  1  4  1  0  0  0
  1  2  2  0  0  0
  1 21  1  0  0  0
  2  3  1  0  0  0
  2 22  1  0  0  0
  3  6  2  0  0  0
  4  5  2  0  0  0
  4 23  1  0  0  0
  5  6  1  0  0  0
  5  9  1  0  0  0
  6  7  1  0  0  0
  7  8  2  0  0  0
  7 24  1  0  0  0
  8  9  1  0  0  0
  8 25  1  0  0  0
  9 10  1  0  0  0
 10 11  1  0  0  0
 10 12  2  0  0  0
 10 13  2  0  0  0
 11 14  2  0  0  0
 11 18  1  0  0  0
 14 15  1  0  0  0
 14 26  1  0  0  0
 15 16  2  0  0  0
 15 20  1  0  0  0
 16 17  1  0  0  0
 16 27  1  0  0  0
 17 18  2  0  0  0
 17 28  1  0  0  0
 18 19  1  0  0  0
M  END
> <s_m_entry_id>
10144

> <s_m_entry_name>
dock_pv.213

> <s_m_Source_Path>
/home/csk/Desktop/cluster/DUD-E-result/met

> <s_m_Source_File>
dock_pv.maegz

> <i_m_Source_File_Index>
213

> <chembl_id>
CHEMBL550104

> <chembl_pref_name>
None

> <i_lp_mmshare_version>
53161

> <i_f3d_flags>
0

> <r_lp_tautomer_probability>
1

> <s_lp_Force_Field>
OPLS_2005

> <r_lp_Energy>
4.261544

> <b_lp_Chiralities_Consistent>
1

> <s_lp_Variant>
CHEMBL3717_lig415-1

> <s_i_glide_gridfile>
glide-grid_3lq8

> <i_i_glide_lignum>
439

> <i_i_glide_rotatable_bonds>
2

> <r_i_docking_score>
-8.01837446245448

> <r_i_glide_ligand_efficiency>
-0.400918723122724

> <r_i_glide_ligand_efficiency_sa>
-1.08826084378035

> <r_i_glide_ligand_efficiency_ln>
-2.00673466426282

> <r_i_glide_gscore>
-8.01837446245448

> <r_i_glide_lipo>
-3.94814442310961

> <r_i_glide_hbond>
-0.32

> <r_i_glide_metal>
0

> <r_i_glide_rewards>
-2.00725151105488

> <r_i_glide_evdw>
-32.0246429443359

> <r_i_glide_ecoul>
-3.2821581363678

> <r_i_glide_erotb>
0.350577339381968

> <r_i_glide_esite>
0

> <r_i_glide_emodel>
-47.88891638853

> <r_i_glide_energy>
-35.3068010807037

> <r_i_glide_einternal>
3.26953196525574

> <i_i_glide_confnum>
6

> <i_i_glide_posenum>
39

> <r_i_glide_eff_state_penalty>
0

> <s_user_duplicate_titles>
CHEMBL3717_lig415

> <s_m_subgroup_title>
dock_pv

> <s_m_subgroupid>
dock_pv

> <b_m_subgroup_collapsed>
1

$$$$
CHEMBL3717_lig4163
                    3D
 Schrodinger Suite 2021-1.
 27 29  0  0  1  0            999 V2000
   -6.5680    2.1821   30.3856 S   0  0  0  0  0  0
   -5.9868    5.1570   30.2080 O   0  0  0  0  0  0
   -2.5912    2.7499   30.7081 N   0  0  0  0  0  0
    1.5026    5.7096   30.3876 N   0  0  0  0  0  0
   -2.4393    4.1016   30.6080 C   0  0  0  0  0  0
   -3.5647    4.9666   30.4349 C   0  0  0  0  0  0
   -1.1176    4.6303   30.6080 C   0  0  0  0  0  0
   -4.8654    4.3781   30.3799 C   0  0  0  0  0  0
   -0.9268    6.0191   30.3517 C   0  0  0  0  0  0
   -4.9850    2.9843   30.4671 C   0  0  0  0  0  0
   -3.3361    6.3564   30.2969 C   0  0  0  0  0  0
   -2.0446    6.8654   30.2080 C   0  0  0  0  0  0
   -3.8306    2.2199   30.6081 C   0  0  0  0  0  0
    0.0460    3.8183   30.7819 C   0  0  0  0  0  0
    0.4037    6.4836   30.2370 C   0  0  0  0  0  0
    1.3075    4.4003   30.6666 C   0  0  0  0  0  0
   -6.5371    0.8094   31.5757 C   0  0  0  0  0  0
   -5.8444    5.9775   29.7194 H   0  0  0  0  0  0
   -4.1797    7.0233   30.1986 H   0  0  0  0  0  0
   -1.8836    7.9210   30.0374 H   0  0  0  0  0  0
   -3.8819    1.1426   30.6637 H   0  0  0  0  0  0
   -0.0433    2.7592   30.9741 H   0  0  0  0  0  0
    0.5875    7.5269   30.0235 H   0  0  0  0  0  0
    2.1973    3.7986   30.7808 H   0  0  0  0  0  0
   -7.5318    0.3721   31.6620 H   0  0  0  0  0  0
   -6.2288    1.1566   32.5626 H   0  0  0  0  0  0
   -5.8530    0.0273   31.2490 H   0  0  0  0  0  0
  1 10  1  0  0  0
  1 17  1  0  0  0
  2  8  1  0  0  0
  2 18  1  0  0  0
  3  5  2  0  0  0
  3 13  1  0  0  0
  4 15  1  0  0  0
  4 16  2  0  0  0
  5  6  1  0  0  0
  5  7  1  0  0  0
  6  8  2  0  0  0
  6 11  1  0  0  0
  7  9  1  0  0  0
  7 14  2  0  0  0
  8 10  1  0  0  0
  9 12  1  0  0  0
  9 15  2  0  0  0
 10 13  2  0  0  0
 11 12  2  0  0  0
 11 19  1  0  0  0
 12 20  1  0  0  0
 13 21  1  0  0  0
 14 16  1  0  0  0
 14 22  1  0  0  0
 15 23  1  0  0  0
 16 24  1  0  0  0
 17 25  1  0  0  0
 17 26  1  0  0  0
 17 27  1  0  0  0
M  END
> <s_m_entry_id>
10145

> <s_m_entry_name>
dock_pv.214

> <s_m_Source_Path>
/home/csk/Desktop/cluster/DUD-E-result/met

> <s_m_Source_File>
dock_pv.maegz

> <i_m_Source_File_Index>
214

> <chembl_id>
CHEMBL2006933

> <chembl_pref_name>
None

> <i_lp_mmshare_version>
53161

> <i_f3d_flags>
0

> <r_lp_tautomer_probability>
1

> <s_lp_Force_Field>
OPLS_2005

> <r_lp_Energy>
15.075763

> <b_lp_Chiralities_Consistent>
1

> <s_lp_Variant>
CHEMBL3717_lig4163-1

> <s_i_glide_gridfile>
glide-grid_3lq8

> <i_i_glide_lignum>
5326

> <i_i_glide_rotatable_bonds>
2

> <r_i_docking_score>
-8.00403732427194

> <r_i_glide_ligand_efficiency>
-0.470825724957173

> <r_i_glide_ligand_efficiency_sa>
-1.21062551784738

> <r_i_glide_ligand_efficiency_ln>
-2.08807509675479

> <r_i_glide_gscore>
-8.00403732427194

> <r_i_glide_lipo>
-3.16786045881215

> <r_i_glide_hbond>
-0.32

> <r_i_glide_metal>
0

> <r_i_glide_rewards>
-2.53206386363636

> <r_i_glide_evdw>
-27.4015350341797

> <r_i_glide_ecoul>
-4.09357500076294

> <r_i_glide_erotb>
0

> <r_i_glide_esite>
0

> <r_i_glide_emodel>
-45.4610986946676

> <r_i_glide_energy>
-31.4951100349426

> <r_i_glide_einternal>
0.728885173797607

> <i_i_glide_confnum>
1

> <i_i_glide_posenum>
152

> <r_i_glide_eff_state_penalty>
0

> <s_user_duplicate_titles>
CHEMBL3717_lig4163

> <s_m_subgroup_title>
dock_pv

> <s_m_subgroupid>
dock_pv

> <b_m_subgroup_collapsed>
1

$$$$
CHEMBL3717_lig1285
                    3D
 Schrodinger Suite 2021-1.
 49 52  0  0  1  0            999 V2000
   -7.2510   -0.0436   28.1414 C   0  0  0  0  0  0
   -6.1585    0.2326   28.9640 C   0  0  0  0  0  0
   -6.2626    0.0916   30.3596 C   0  0  0  0  0  0
   -7.4828   -0.3643   30.9024 C   0  0  0  0  0  0
   -8.5668   -0.6461   30.0636 C   0  0  0  0  0  0
   -8.4518   -0.4812   28.6870 C   0  0  0  0  0  0
   -9.7404   -1.0819   30.5783 F   0  0  0  0  0  0
   -4.6945    0.7570   28.2080 Cl  0  0  0  0  0  0
   -7.6909   -0.5953   32.6079 Cl  0  0  0  0  0  0
   -5.0820    0.4539   31.2877 C   0  0  1  0  0  0
   -4.1470   -0.7441   31.5054 C   0  0  0  0  0  0
   -4.2614    1.5512   30.8359 O   0  0  0  0  0  0
   -4.7836    2.8164   30.6106 C   0  0  0  0  0  0
   -6.1291    2.9695   30.6080 N   0  0  0  0  0  0
   -6.6075    4.2323   30.5905 C   0  0  0  0  0  0
   -5.8588    5.3673   30.6081 N   0  0  0  0  0  0
   -3.8999    3.9170   30.5908 C   0  0  0  0  0  0
   -4.5052    5.2075   30.5928 C   0  0  0  0  0  0
   -3.7621    6.3475   30.6076 N   0  0  0  0  0  0
   -2.4114    6.2243   30.6080 C   0  0  0  0  0  0
   -1.7325    5.0020   30.6272 C   0  0  0  0  0  0
   -2.4880    3.8284   30.6233 C   0  0  0  0  0  0
   -8.1325    4.3566   30.6031 C   0  0  0  0  0  0
   -8.6934    3.4551   29.7912 F   0  0  0  0  0  0
   -8.5793    4.1503   31.8442 F   0  0  0  0  0  0
   -8.5403    5.5570   30.2079 F   0  0  0  0  0  0
   -0.2435    4.9408   30.6020 C   0  0  0  0  0  0
    0.6454    5.9203   30.1357 C   0  0  0  0  0  0
    1.9021    5.5569   30.2082 N   0  0  0  0  0  0
    1.8836    4.3269   30.7273 N   0  0  0  0  0  0
    0.6038    3.9100   30.9947 C   0  0  0  0  0  0
    3.1462    3.6548   31.0392 C   0  0  0  0  0  0
    4.1243    3.6871   29.8426 C   0  0  0  0  0  0
    5.3810    3.1546   30.2080 O   0  0  0  0  0  0
   -7.1576    0.0683   27.0704 H   0  0  0  0  0  0
   -9.2911   -0.7003   28.0435 H   0  0  0  0  0  0
   -5.4641    0.7567   32.2632 H   0  0  0  0  0  0
   -4.6867   -1.5975   31.9184 H   0  0  0  0  0  0
   -3.6859   -1.0625   30.5693 H   0  0  0  0  0  0
   -3.3471   -0.4927   32.2018 H   0  0  0  0  0  0
   -1.8630    7.1549   30.6056 H   0  0  0  0  0  0
   -2.0156    2.8561   30.6260 H   0  0  0  0  0  0
    0.3729    6.8851   29.7332 H   0  0  0  0  0  0
    0.4143    2.9381   31.4235 H   0  0  0  0  0  0
    3.5575    4.1790   31.9026 H   0  0  0  0  0  0
    2.9004    2.6235   31.2965 H   0  0  0  0  0  0
    3.6992    3.1564   28.9886 H   0  0  0  0  0  0
    4.2733    4.7050   29.4782 H   0  0  0  0  0  0
    5.8379    2.8709   29.4013 H   0  0  0  0  0  0
  1  6  1  0  0  0
  1  2  2  0  0  0
  1 35  1  0  0  0
  2  8  1  0  0  0
  2  3  1  0  0  0
  3 10  1  0  0  0
  3  4  2  0  0  0
  4  9  1  0  0  0
  4  5  1  0  0  0
  5  6  2  0  0  0
  5  7  1  0  0  0
  6 36  1  0  0  0
 10 11  1  0  0  0
 10 12  1  0  0  0
 10 37  1  0  0  0
 11 38  1  0  0  0
 11 39  1  0  0  0
 11 40  1  0  0  0
 12 13  1  0  0  0
 13 17  1  0  0  0
 13 14  2  0  0  0
 14 15  1  0  0  0
 15 23  1  0  0  0
 15 16  2  0  0  0
 16 18  1  0  0  0
 17 18  1  0  0  0
 17 22  2  0  0  0
 18 19  2  0  0  0
 19 20  1  0  0  0
 20 21  2  0  0  0
 20 41  1  0  0  0
 21 22  1  0  0  0
 21 27  1  0  0  0
 22 42  1  0  0  0
 23 24  1  0  0  0
 23 25  1  0  0  0
 23 26  1  0  0  0
 27 28  1  0  0  0
 27 31  2  0  0  0
 28 29  2  0  0  0
 28 43  1  0  0  0
 29 30  1  0  0  0
 30 31  1  0  0  0
 30 32  1  0  0  0
 31 44  1  0  0  0
 32 33  1  0  0  0
 32 45  1  0  0  0
 32 46  1  0  0  0
 33 34  1  0  0  0
 33 47  1  0  0  0
 33 48  1  0  0  0
 34 49  1  0  0  0
M  END
> <s_m_entry_id>
10146

> <s_m_entry_name>
dock_pv.215

> <s_m_Source_Path>
/home/csk/Desktop/cluster/DUD-E-result/met

> <s_m_Source_File>
dock_pv.maegz

> <i_m_Source_File_Index>
215

> <chembl_id>
CHEMBL2148141

> <chembl_pref_name>
None

> <i_lp_mmshare_version>
53161

> <i_f3d_flags>
0

> <r_lp_tautomer_probability>
1

> <s_lp_Force_Field>
OPLS_2005

> <r_lp_Energy>
18.373267

> <b_lp_Chiralities_Consistent>
1

> <s_lp_Variant>
CHEMBL3717_lig1285-1

> <s_i_glide_gridfile>
glide-grid_3lq8

> <i_i_glide_lignum>
1470

> <i_i_glide_rotatable_bonds>
8

> <r_i_docking_score>
-7.99760713076419

> <r_i_glide_ligand_efficiency>
-0.235223739140123

> <r_i_glide_ligand_efficiency_sa>
-0.762033600363225

> <r_i_glide_ligand_efficiency_ln>
-1.76689574046742

> <r_i_glide_gscore>
-7.99760713076419

> <r_i_glide_lipo>
-2.82696880878593

> <r_i_glide_hbond>
-0.32

> <r_i_glide_metal>
0

> <r_i_glide_rewards>
-2.52681748110468

> <r_i_glide_evdw>
-43.8023376464844

> <r_i_glide_ecoul>
-3.69647884368896

> <r_i_glide_erotb>
0.46202078734794

> <r_i_glide_esite>
-0.0412529193439598

> <r_i_glide_emodel>
-67.9772572682457

> <r_i_glide_energy>
-47.4988164901733

> <r_i_glide_einternal>
6.03700351715088

> <i_i_glide_confnum>
12

> <i_i_glide_posenum>
34

> <r_i_glide_eff_state_penalty>
0

> <s_user_duplicate_titles>
CHEMBL3717_lig1285

> <s_m_subgroup_title>
dock_pv

> <s_m_subgroupid>
dock_pv

> <b_m_subgroup_collapsed>
1

$$$$
CHEMBL3717_lig1310
                    3D
 Schrodinger Suite 2021-1.
 43 47  0  0  1  0            999 V2000
   -6.7720   -0.5212   29.2879 C   0  0  0  0  0  0
   -7.1169    0.3125   30.5289 C   0  0  0  0  0  0
   -7.3641   -1.5581   29.0081 O   0  0  0  0  0  0
   -5.6930   -0.0420   28.6080 O   0  0  0  0  0  0
   -6.6647    1.7028   30.5024 N   0  0  0  0  0  0
   -7.5375    2.6854   30.2521 N   0  0  0  0  0  0
   -6.8140    3.7814   30.2808 C   0  0  0  0  0  0
   -5.4456    3.5480   30.5158 C   0  0  0  0  0  0
   -5.3796    2.1670   30.6083 C   0  0  0  0  0  0
   -2.3643    6.3570   30.4731 C   0  0  0  0  0  0
   -2.1080    4.9752   30.6089 C   0  0  0  0  0  0
   -3.6043    6.8421   30.5566 N   0  0  0  0  0  0
   -3.0617    4.0355   30.6622 N   0  0  0  0  0  0
   -4.3348    4.5369   30.6074 C   0  0  0  0  0  0
   -4.5938    5.9134   30.6082 C   0  0  0  0  0  0
   -0.7276    4.8720   30.6080 N   0  0  0  0  0  0
   -0.1869    6.0920   30.3658 N   0  0  0  0  0  0
   -1.2016    7.0146   30.2082 N   0  0  0  0  0  0
    0.1102    3.6927   30.8183 C   0  0  0  0  0  0
    5.1202    4.3567   28.2090 N   0  0  0  0  0  0
    6.2348    4.6321   28.9236 C   0  0  0  0  0  0
    6.2477    4.7566   30.3062 C   0  0  0  0  0  0
    5.0537    4.5801   30.9956 C   0  0  0  0  0  0
    3.8690    4.2505   30.2926 C   0  0  0  0  0  0
    2.6139    4.0791   30.9254 C   0  0  0  0  0  0
    1.4841    3.7652   30.1649 C   0  0  0  0  0  0
    1.5935    3.5688   28.7901 C   0  0  0  0  0  0
    2.8118    3.7350   28.1438 C   0  0  0  0  0  0
    3.9595    4.1143   28.8770 C   0  0  0  0  0  0
   -8.1965    0.2900   30.6853 H   0  0  0  0  0  0
   -6.6583   -0.1675   31.3935 H   0  0  0  0  0  0
   -5.4113   -0.6077   27.8678 H   0  0  0  0  0  0
   -7.2735    4.7456   30.1178 H   0  0  0  0  0  0
   -4.5547    1.4874   30.7651 H   0  0  0  0  0  0
   -5.6006    6.3035   30.6017 H   0  0  0  0  0  0
    0.2165    3.5586   31.8932 H   0  0  0  0  0  0
   -0.4327    2.8249   30.4446 H   0  0  0  0  0  0
    7.1414    4.7564   28.3506 H   0  0  0  0  0  0
    7.1593    5.0164   30.8246 H   0  0  0  0  0  0
    5.0187    4.7568   32.0589 H   0  0  0  0  0  0
    2.5376    4.2257   31.9932 H   0  0  0  0  0  0
    0.7186    3.3128   28.2086 H   0  0  0  0  0  0
    2.8759    3.5989   27.0744 H   0  0  0  0  0  0
  1  2  1  0  0  0
  1  3  2  0  0  0
  1  4  1  0  0  0
  2  5  1  0  0  0
  2 30  1  0  0  0
  2 31  1  0  0  0
  4 32  1  0  0  0
  5  6  1  0  0  0
  5  9  1  0  0  0
  6  7  2  0  0  0
  7  8  1  0  0  0
  7 33  1  0  0  0
  8  9  2  0  0  0
  8 14  1  0  0  0
  9 34  1  0  0  0
 10 11  1  0  0  0
 10 12  2  0  0  0
 10 18  1  0  0  0
 11 13  2  0  0  0
 11 16  1  0  0  0
 12 15  1  0  0  0
 13 14  1  0  0  0
 14 15  2  0  0  0
 15 35  1  0  0  0
 16 17  1  0  0  0
 16 19  1  0  0  0
 17 18  2  0  0  0
 19 26  1  0  0  0
 19 36  1  0  0  0
 19 37  1  0  0  0
 20 21  2  0  0  0
 20 29  1  0  0  0
 21 22  1  0  0  0
 21 38  1  0  0  0
 22 23  2  0  0  0
 22 39  1  0  0  0
 23 24  1  0  0  0
 23 40  1  0  0  0
 24 25  2  0  0  0
 24 29  1  0  0  0
 25 26  1  0  0  0
 25 41  1  0  0  0
 26 27  2  0  0  0
 27 28  1  0  0  0
 27 42  1  0  0  0
 28 29  2  0  0  0
 28 43  1  0  0  0
M  END
> <s_m_entry_id>
10147

> <s_m_entry_name>
dock_pv.216

> <s_m_Source_Path>
/home/csk/Desktop/cluster/DUD-E-result/met

> <s_m_Source_File>
dock_pv.maegz

> <i_m_Source_File_Index>
216

> <chembl_id>
CHEMBL2170819

> <chembl_pref_name>
None

> <i_lp_mmshare_version>
53161

> <i_f3d_flags>
0

> <r_lp_tautomer_probability>
1

> <s_lp_Force_Field>
OPLS_2005

> <r_lp_Energy>
28.749256

> <b_lp_Chiralities_Consistent>
1

> <s_lp_Variant>
CHEMBL3717_lig1310-1

> <s_i_glide_gridfile>
glide-grid_3lq8

> <i_i_glide_lignum>
1496

> <i_i_glide_rotatable_bonds>
6

> <r_i_docking_score>
-7.98776238032832

> <r_i_glide_ligand_efficiency>
-0.275440082080287

> <r_i_glide_ligand_efficiency_sa>
-0.846239197693711

> <r_i_glide_ligand_efficiency_ln>
-1.8289950329179

> <r_i_glide_gscore>
-7.98776238032832

> <r_i_glide_lipo>
-3.21521247330973

> <r_i_glide_hbond>
-0.304

> <r_i_glide_metal>
0

> <r_i_glide_rewards>
-2.14543768320925

> <r_i_glide_evdw>
-40.0292167663574

> <r_i_glide_ecoul>
-6.42629718780518

> <r_i_glide_erotb>
0.651886886704953

> <r_i_glide_esite>
-0.00959369402565439

> <r_i_glide_emodel>
-65.0212015876378

> <r_i_glide_energy>
-46.4555139541626

> <r_i_glide_einternal>
4.02477693557739

> <i_i_glide_confnum>
4

> <i_i_glide_posenum>
55

> <r_i_glide_eff_state_penalty>
0

> <s_user_duplicate_titles>
CHEMBL3717_lig1310

> <s_m_subgroup_title>
dock_pv

> <s_m_subgroupid>
dock_pv

> <b_m_subgroup_collapsed>
1

$$$$
CHEMBL3717_lig2625
                    3D
 Schrodinger Suite 2021-1.
 47 50  0  0  1  0            999 V2000
   -5.9112    2.0502   30.6816 C   0  0  0  0  0  0
   -4.3831    2.0725   30.5106 C   0  0  0  0  0  0
   -3.6991    1.0311   30.2079 N   0  0  0  0  0  0
   -4.4881   -0.1262   30.0413 O   0  0  0  0  0  0
   -3.6932   -1.1890   29.5168 C   0  0  0  0  0  0
   -2.7072   -1.7847   30.5444 C   0  0  0  0  0  0
   -3.3987   -2.4430   31.5881 O   0  0  0  0  0  0
   -3.7306    3.4115   30.6080 C   0  0  0  0  0  0
   -4.4336    4.6173   30.4309 C   0  0  0  0  0  0
   -3.7525    5.8353   30.3621 C   0  0  0  0  0  0
   -2.3500    5.8154   30.4105 C   0  0  0  0  0  0
   -1.4205    6.7830   30.2080 N   0  0  0  0  0  0
   -0.2689    6.1661   30.3924 C   0  0  0  0  0  0
   -0.3923    4.8130   30.7227 C   0  0  0  0  0  0
    0.6032    3.7119   31.0599 C   0  0  0  0  0  0
    1.9869    3.8739   30.4388 C   0  0  0  0  0  0
    2.1557    3.6433   29.0731 C   0  0  0  0  0  0
    1.1060    3.2696   28.3186 F   0  0  0  0  0  0
    3.3883    3.7745   28.4485 C   0  0  0  0  0  0
    4.4718    4.1635   29.2325 C   0  0  0  0  0  0
    4.3528    4.3381   30.6229 C   0  0  0  0  0  0
    5.6894    4.6228   31.0336 C   0  0  0  0  0  0
    6.5143    4.7095   30.0383 N   0  0  0  0  0  0
    5.7941    4.4528   28.9414 N   0  0  0  0  0  0
    6.4412    4.5548   27.6561 C   0  0  0  0  0  0
    3.0926    4.1932   31.2334 C   0  0  0  0  0  0
    2.9461    4.3567   32.5663 F   0  0  0  0  0  0
   -1.7485    4.5754   30.6717 N   0  0  0  0  0  0
   -2.3772    3.3937   30.8010 N   0  0  0  0  0  0
   -6.2593    2.7836   31.4075 H   0  0  0  0  0  0
   -6.3986    2.2723   29.7322 H   0  0  0  0  0  0
   -6.2868    1.0798   31.0072 H   0  0  0  0  0  0
   -3.1522   -0.8459   28.6315 H   0  0  0  0  0  0
   -4.3607   -1.9697   29.1509 H   0  0  0  0  0  0
   -2.1132   -0.9911   30.9990 H   0  0  0  0  0  0
   -2.0014   -2.4631   30.0628 H   0  0  0  0  0  0
   -3.6476   -3.3270   31.2866 H   0  0  0  0  0  0
   -5.5056    4.6291   30.2929 H   0  0  0  0  0  0
   -4.2924    6.7571   30.2079 H   0  0  0  0  0  0
    0.6659    6.7026   30.3083 H   0  0  0  0  0  0
    0.6808    3.6006   32.1413 H   0  0  0  0  0  0
    0.2210    2.7570   30.7120 H   0  0  0  0  0  0
    3.4825    3.5569   27.4080 H   0  0  0  0  0  0
    6.0543    4.7792   32.0312 H   0  0  0  0  0  0
    6.3058    5.5569   27.2548 H   0  0  0  0  0  0
    7.5053    4.3230   27.7362 H   0  0  0  0  0  0
    5.9659    3.8408   27.0080 H   0  0  0  0  0  0
  1  2  1  0  0  0
  1 30  1  0  0  0
  1 31  1  0  0  0
  1 32  1  0  0  0
  2  3  2  0  0  0
  2  8  1  0  0  0
  3  4  1  0  0  0
  4  5  1  0  0  0
  5  6  1  0  0  0
  5 33  1  0  0  0
  5 34  1  0  0  0
  6  7  1  0  0  0
  6 35  1  0  0  0
  6 36  1  0  0  0
  7 37  1  0  0  0
  8  9  1  0  0  0
  8 29  2  0  0  0
  9 10  2  0  0  0
  9 38  1  0  0  0
 10 11  1  0  0  0
 10 39  1  0  0  0
 11 12  2  0  0  0
 11 28  1  0  0  0
 12 13  1  0  0  0
 13 14  2  0  0  0
 13 40  1  0  0  0
 14 15  1  0  0  0
 14 28  1  0  0  0
 15 16  1  0  0  0
 15 41  1  0  0  0
 15 42  1  0  0  0
 16 17  2  0  0  0
 16 26  1  0  0  0
 17 18  1  0  0  0
 17 19  1  0  0  0
 19 20  2  0  0  0
 19 43  1  0  0  0
 20 21  1  0  0  0
 20 24  1  0  0  0
 21 22  1  0  0  0
 21 26  2  0  0  0
 22 23  2  0  0  0
 22 44  1  0  0  0
 23 24  1  0  0  0
 24 25  1  0  0  0
 25 45  1  0  0  0
 25 46  1  0  0  0
 25 47  1  0  0  0
 26 27  1  0  0  0
 28 29  1  0  0  0
M  END
> <s_m_entry_id>
10148

> <s_m_entry_name>
dock_pv.217

> <s_m_Source_Path>
/home/csk/Desktop/cluster/DUD-E-result/met

> <s_m_Source_File>
dock_pv.maegz

> <i_m_Source_File_Index>
217

> <chembl_id>
CHEMBL3651394

> <chembl_pref_name>
None

> <i_lp_mmshare_version>
53161

> <i_f3d_flags>
0

> <r_lp_tautomer_probability>
1

> <s_lp_Force_Field>
OPLS_2005

> <r_lp_Energy>
18.512678

> <b_lp_Chiralities_Consistent>
1

> <s_lp_Variant>
CHEMBL3717_lig2625-1

> <s_i_glide_gridfile>
glide-grid_3lq8

> <i_i_glide_lignum>
2982

> <i_i_glide_rotatable_bonds>
7

> <r_i_docking_score>
-7.98760700122094

> <r_i_glide_ligand_efficiency>
-0.275434724180033

> <r_i_glide_ligand_efficiency_sa>
-0.846222736526627

> <r_i_glide_ligand_efficiency_ln>
-1.82895945504239

> <r_i_glide_gscore>
-7.98760700122094

> <r_i_glide_lipo>
-3.46358576487027

> <r_i_glide_hbond>
0

> <r_i_glide_metal>
0

> <r_i_glide_rewards>
-2.95649519941116

> <r_i_glide_evdw>
-43.6899490356445

> <r_i_glide_ecoul>
-0.678273439407349

> <r_i_glide_erotb>
0.733738082965169

> <r_i_glide_esite>
-0.01502565221135

> <r_i_glide_emodel>
-59.8823689771246

> <r_i_glide_energy>
-44.3682224750519

> <r_i_glide_einternal>
5.3857593536377

> <i_i_glide_confnum>
57

> <i_i_glide_posenum>
331

> <r_i_glide_eff_state_penalty>
0

> <s_user_duplicate_titles>
CHEMBL3717_lig2625

> <s_m_subgroup_title>
dock_pv

> <s_m_subgroupid>
dock_pv

> <b_m_subgroup_collapsed>
1

$$$$
CHEMBL3717_lig3703
                    3D
 Schrodinger Suite 2021-1.
 44 46  0  0  1  0            999 V2000
   -4.0100    1.9661   30.4518 C   0  0  0  0  0  0
   -5.2992    2.3727   30.2580 N   0  0  0  0  0  0
   -5.6241    3.6823   30.2617 N   0  0  0  0  0  0
   -2.9593    2.8726   30.6086 C   0  0  0  0  0  0
   -3.2940    4.2286   30.6080 C   0  0  0  0  0  0
   -4.6446    4.5710   30.4444 C   0  0  0  0  0  0
   -4.6986    5.9444   30.5172 N   0  0  0  0  0  0
   -3.4694    6.4743   30.6717 N   0  0  0  0  0  0
   -2.6241    5.4679   30.7561 C   0  0  0  0  0  0
   -1.2595    5.5451   30.9383 N   0  0  0  0  0  0
   -0.4590    6.3774   30.2546 C   0  0  0  0  0  0
    1.0209    6.3569   30.6286 C   0  0  0  0  0  0
   -0.8528    7.1691   29.4061 O   0  0  0  0  0  0
    1.7578    5.0146   30.4273 C   0  0  0  0  0  0
    1.6359    4.4273   29.0034 C   0  0  0  0  0  0
   -3.7453    0.5082   30.4826 C   0  0  0  0  0  0
   -2.9695   -0.0687   31.5055 C   0  0  0  0  0  0
   -2.6455   -1.4225   31.4664 C   0  0  0  0  0  0
   -3.0912   -2.2077   30.4122 C   0  0  0  0  0  0
   -3.8873   -1.6617   29.4114 C   0  0  0  0  0  0
   -4.2145   -0.3071   29.4469 C   0  0  0  0  0  0
    2.6315    3.3917   28.7076 N   0  0  0  0  0  0
    2.2984    2.7762   27.4249 C   0  0  0  0  0  0
    3.9911    3.9237   28.6435 C   0  0  0  0  0  0
   -2.4926    0.6847   32.5251 F   0  0  0  0  0  0
   -1.8844   -1.9735   32.4411 F   0  0  0  0  0  0
   -1.9393    2.5449   30.7390 H   0  0  0  0  0  0
   -5.5046    6.5392   30.3792 H   0  0  0  0  0  0
   -0.8351    4.8435   31.5220 H   0  0  0  0  0  0
    1.1079    6.6709   31.6701 H   0  0  0  0  0  0
    1.5082    7.1326   30.0430 H   0  0  0  0  0  0
    1.3215    4.2907   31.1183 H   0  0  0  0  0  0
    2.7948    5.1032   30.7538 H   0  0  0  0  0  0
    1.6495    5.2166   28.2524 H   0  0  0  0  0  0
    0.6444    3.9765   28.9237 H   0  0  0  0  0  0
   -2.8154   -3.2434   30.3639 H   0  0  0  0  0  0
   -4.2395   -2.2872   28.6037 H   0  0  0  0  0  0
   -4.8056    0.1068   28.6404 H   0  0  0  0  0  0
    1.2953    2.3576   27.4561 H   0  0  0  0  0  0
    2.9889    1.9664   27.1830 H   0  0  0  0  0  0
    2.3067    3.5010   26.6085 H   0  0  0  0  0  0
    4.3341    4.2684   29.6174 H   0  0  0  0  0  0
    4.7010    3.1571   28.3315 H   0  0  0  0  0  0
    4.0716    4.7558   27.9455 H   0  0  0  0  0  0
  1  2  2  0  0  0
  1  4  1  0  0  0
  1 16  1  0  0  0
  2  3  1  0  0  0
  3  6  2  0  0  0
  4  5  2  0  0  0
  4 27  1  0  0  0
  5  9  1  0  0  0
  5  6  1  0  0  0
  6  7  1  0  0  0
  7  8  1  0  0  0
  7 28  1  0  0  0
  8  9  2  0  0  0
  9 10  1  0  0  0
 10 11  1  0  0  0
 10 29  1  0  0  0
 11 13  2  0  0  0
 11 12  1  0  0  0
 12 14  1  0  0  0
 12 30  1  0  0  0
 12 31  1  0  0  0
 14 15  1  0  0  0
 14 32  1  0  0  0
 14 33  1  0  0  0
 15 22  1  0  0  0
 15 34  1  0  0  0
 15 35  1  0  0  0
 16 17  2  0  0  0
 16 21  1  0  0  0
 17 18  1  0  0  0
 17 25  1  0  0  0
 18 19  2  0  0  0
 18 26  1  0  0  0
 19 20  1  0  0  0
 19 36  1  0  0  0
 20 21  2  0  0  0
 20 37  1  0  0  0
 21 38  1  0  0  0
 22 23  1  0  0  0
 22 24  1  0  0  0
 23 39  1  0  0  0
 23 40  1  0  0  0
 23 41  1  0  0  0
 24 42  1  0  0  0
 24 43  1  0  0  0
 24 44  1  0  0  0
M  END
> <s_m_entry_id>
10149

> <s_m_entry_name>
dock_pv.218

> <s_m_Source_Path>
/home/csk/Desktop/cluster/DUD-E-result/met

> <s_m_Source_File>
dock_pv.maegz

> <i_m_Source_File_Index>
218

> <chembl_id>
CHEMBL41783

> <chembl_pref_name>
None

> <i_lp_mmshare_version>
53161

> <i_f3d_flags>
0

> <r_lp_tautomer_probability>
1

> <s_lp_Force_Field>
OPLS_2005

> <r_lp_Energy>
32.976042

> <b_lp_Chiralities_Consistent>
1

> <s_lp_Variant>
CHEMBL3717_lig3703-1

> <s_i_glide_gridfile>
glide-grid_3lq8

> <i_i_glide_lignum>
4664

> <i_i_glide_rotatable_bonds>
7

> <r_i_docking_score>
-7.98598535819366

> <r_i_glide_ligand_efficiency>
-0.307153283007448

> <r_i_glide_ligand_efficiency_sa>
-0.909940392319758

> <r_i_glide_ligand_efficiency_ln>
-1.87548245721651

> <r_i_glide_gscore>
-7.98598535819366

> <r_i_glide_lipo>
-2.74148283234577

> <r_i_glide_hbond>
-0.0968480743730507

> <r_i_glide_metal>
0

> <r_i_glide_rewards>
-3.36067446276192

> <r_i_glide_evdw>
-43.6440658569336

> <r_i_glide_ecoul>
-3.2724814414978

> <r_i_glide_erotb>
0.88609552035843

> <r_i_glide_esite>
0

> <r_i_glide_emodel>
-66.66768066609

> <r_i_glide_energy>
-46.9165472984314

> <r_i_glide_einternal>
6.79025268554688

> <i_i_glide_confnum>
67

> <i_i_glide_posenum>
105

> <r_i_glide_eff_state_penalty>
0

> <s_user_duplicate_titles>
CHEMBL3717_lig3703

> <s_m_subgroup_title>
dock_pv

> <s_m_subgroupid>
dock_pv

> <b_m_subgroup_collapsed>
1

$$$$
CHEMBL3717_lig4177
                    3D
 Schrodinger Suite 2021-1.
 42 46  0  0  1  0            999 V2000
   -0.9687    4.0680   30.6077 O   0  0  0  0  0  0
   -3.7946    0.5794   30.4209 O   0  0  0  0  0  0
   -7.5318    5.1565   30.2099 N   0  0  0  0  0  0
   -2.6989    5.5608   30.7272 N   0  0  0  0  0  0
   -5.9463    0.3339   29.8486 N   0  0  0  0  0  0
   -7.3122    0.4884   29.6877 N   0  0  0  0  0  0
   -6.2205    3.3327   30.2456 C   0  0  0  0  0  0
   -5.0245    2.6165   30.3493 C   0  0  0  0  0  0
   -6.2249    4.7507   30.3830 C   0  0  0  0  0  0
   -7.5530    2.9206   29.9932 C   0  0  0  0  0  0
   -0.4861    6.4213   30.2959 C   0  0  2  0  0  0
    1.0273    6.2531   30.2946 C   0  0  2  0  0  0
   -3.8559    4.7639   30.6507 C   0  0  0  0  0  0
   -3.8522    3.3615   30.5728 C   0  0  0  0  0  0
   -5.0550    5.4782   30.6077 C   0  0  0  0  0  0
   -1.3987    5.2198   30.6081 C   0  0  0  0  0  0
   -4.8874    1.1094   30.2166 C   0  0  0  0  0  0
    0.3052    6.3840   28.9915 C   0  0  0  0  0  0
   -8.3317    4.0640   29.9836 C   0  0  0  0  0  0
    1.8390    4.9999   30.6002 C   0  0  0  0  0  0
   -7.9884    1.5675   29.7581 C   0  0  0  0  0  0
    1.8902    4.4984   31.9011 C   0  0  0  0  0  0
    2.5703    4.3810   29.5813 C   0  0  0  0  0  0
    2.6671    3.3782   32.1794 C   0  0  0  0  0  0
    3.3333    3.2530   29.8565 C   0  0  0  0  0  0
    3.3731    2.7543   31.1540 C   0  0  0  0  0  0
   -7.8881    6.1040   30.2065 H   0  0  0  0  0  0
   -2.8840    6.5496   30.7557 H   0  0  0  0  0  0
   -5.7236   -0.6424   29.7175 H   0  0  0  0  0  0
   -0.8852    7.3868   30.6084 H   0  0  0  0  0  0
    1.5292    7.1563   30.6080 H   0  0  0  0  0  0
   -2.9180    2.8274   30.6405 H   0  0  0  0  0  0
   -5.0806    6.5569   30.6641 H   0  0  0  0  0  0
    0.3062    5.5101   28.3406 H   0  0  0  0  0  0
    0.4108    7.3077   28.4213 H   0  0  0  0  0  0
   -9.3905    4.2022   29.8083 H   0  0  0  0  0  0
   -9.0571    1.4419   29.6075 H   0  0  0  0  0  0
    1.3316    4.9782   32.6912 H   0  0  0  0  0  0
    2.5495    4.7675   28.5732 H   0  0  0  0  0  0
    2.7116    2.9873   33.1818 H   0  0  0  0  0  0
    3.8907    2.7702   29.0668 H   0  0  0  0  0  0
    3.9630    1.8766   31.3741 H   0  0  0  0  0  0
  1 16  2  0  0  0
  2 17  2  0  0  0
  3  9  1  0  0  0
  3 19  1  0  0  0
  3 27  1  0  0  0
  4 13  1  0  0  0
  4 16  1  0  0  0
  4 28  1  0  0  0
  5  6  1  0  0  0
  5 17  1  0  0  0
  5 29  1  0  0  0
  6 21  2  0  0  0
  7  8  2  0  0  0
  7  9  1  0  0  0
  7 10  1  0  0  0
  8 14  1  0  0  0
  8 17  1  0  0  0
  9 15  2  0  0  0
 10 19  2  0  0  0
 10 21  1  0  0  0
 11 12  1  0  0  0
 11 16  1  0  0  0
 11 18  1  0  0  0
 11 30  1  0  0  0
 12 18  1  0  0  0
 12 20  1  0  0  0
 12 31  1  0  0  0
 13 14  2  0  0  0
 13 15  1  0  0  0
 14 32  1  0  0  0
 15 33  1  0  0  0
 18 34  1  0  0  0
 18 35  1  0  0  0
 19 36  1  0  0  0
 20 22  2  0  0  0
 20 23  1  0  0  0
 21 37  1  0  0  0
 22 24  1  0  0  0
 22 38  1  0  0  0
 23 25  2  0  0  0
 23 39  1  0  0  0
 24 26  2  0  0  0
 24 40  1  0  0  0
 25 26  1  0  0  0
 25 41  1  0  0  0
 26 42  1  0  0  0
M  END
> <s_m_entry_id>
10150

> <s_m_entry_name>
dock_pv.219

> <s_m_Source_Path>
/home/csk/Desktop/cluster/DUD-E-result/met

> <s_m_Source_File>
dock_pv.maegz

> <i_m_Source_File_Index>
219

> <chembl_id>
CHEMBL1969502

> <chembl_pref_name>
None

> <i_lp_mmshare_version>
53161

> <i_f3d_flags>
0

> <r_lp_tautomer_probability>
1

> <s_lp_Force_Field>
OPLS_2005

> <r_lp_Energy>
49.581378

> <b_lp_Chiralities_Consistent>
1

> <s_lp_Variant>
CHEMBL3717_lig4177-1

> <s_i_glide_gridfile>
glide-grid_3lq8

> <i_i_glide_lignum>
5353

> <i_i_glide_rotatable_bonds>
4

> <r_i_docking_score>
-7.98523923565849

> <r_i_glide_ligand_efficiency>
-0.307124585986865

> <r_i_glide_ligand_efficiency_sa>
-0.909855377509197

> <r_i_glide_ligand_efficiency_ln>
-1.87530723278736

> <r_i_glide_gscore>
-7.98523923565849

> <r_i_glide_lipo>
-4.35525557258332

> <r_i_glide_hbond>
-0.0269814523017152

> <r_i_glide_metal>
0

> <r_i_glide_rewards>
-1.99366631331353

> <r_i_glide_evdw>
-41.9886589050293

> <r_i_glide_ecoul>
-1.00213992595673

> <r_i_glide_erotb>
0.640418036685048

> <r_i_glide_esite>
0

> <r_i_glide_emodel>
-55.0776012508886

> <r_i_glide_energy>
-42.990798830986

> <r_i_glide_einternal>
11.510404586792

> <i_i_glide_confnum>
3

> <i_i_glide_posenum>
8

> <r_i_glide_eff_state_penalty>
0

> <s_user_duplicate_titles>
CHEMBL3717_lig4177

> <s_m_subgroup_title>
dock_pv

> <s_m_subgroupid>
dock_pv

> <b_m_subgroup_collapsed>
1

$$$$
CHEMBL3717_lig3330 
                    3D
 Schrodinger Suite 2021-1.
 45 49  0  0  1  0            999 V2000
   -5.2852    5.3741   30.9530 C   0  0  0  0  0  0
   -4.3772    4.3578   30.6080 C   0  0  0  0  0  0
   -4.8167    3.1249   30.2080 N   0  0  0  0  0  0
   -6.6366    5.2130   30.9031 N   0  0  0  0  0  0
   -7.0663    4.0137   30.5037 C   0  0  0  0  0  0
   -6.1493    2.9909   30.1675 C   0  0  0  0  0  0
   -6.9370    1.9116   29.8080 N   0  0  0  0  0  0
   -8.2386    2.3536   29.9444 C   0  0  0  0  0  0
   -8.3587    3.5933   30.3554 N   0  0  0  0  0  0
   -6.5088    0.5824   29.3655 C   0  0  0  0  0  0
   -5.4279   -0.0500   30.2367 C   0  0  0  0  0  0
   -5.4072    0.1697   31.6102 C   0  0  0  0  0  0
   -4.3492   -0.2901   32.3764 C   0  0  0  0  0  0
   -4.4164   -0.8123   29.6538 C   0  0  0  0  0  0
   -3.3342   -1.3018   30.4147 C   0  0  0  0  0  0
   -3.2948   -1.0211   31.8081 C   0  0  0  0  0  0
   -2.2743   -1.4313   32.6080 N   0  0  0  0  0  0
   -1.2706   -2.1337   32.0393 C   0  0  0  0  0  0
   -1.2200   -2.4430   30.6840 C   0  0  0  0  0  0
   -2.2664   -2.0430   29.8566 C   0  0  0  0  0  0
   -2.8940    4.5429   30.7095 C   0  0  0  0  0  0
   -2.3187    5.8112   30.5635 C   0  0  0  0  0  0
   -0.9369    5.9765   30.6080 C   0  0  0  0  0  0
   -0.0941    4.8892   30.8195 C   0  0  0  0  0  0
   -0.6606    3.6227   31.0080 C   0  0  0  0  0  0
   -2.0424    3.4551   30.9561 C   0  0  0  0  0  0
    1.2623    5.1547   30.8343 O   0  0  0  0  0  0
    2.2054    4.0892   30.7146 C   0  0  0  0  0  0
    3.4117    4.6373   30.5830 F   0  0  0  0  0  0
    2.2278    3.3254   31.8080 F   0  0  0  0  0  0
    1.9830    3.3491   29.6267 F   0  0  0  0  0  0
   -4.9496    6.3422   31.2897 H   0  0  0  0  0  0
   -9.0568    1.6872   29.7156 H   0  0  0  0  0  0
   -6.1549    0.6803   28.3380 H   0  0  0  0  0  0
   -7.3743   -0.0808   29.3430 H   0  0  0  0  0  0
   -6.1827    0.7506   32.0896 H   0  0  0  0  0  0
   -4.3184   -0.0431   33.4143 H   0  0  0  0  0  0
   -4.4297   -1.0216   28.6080 H   0  0  0  0  0  0
   -0.4940   -2.4628   32.7100 H   0  0  0  0  0  0
   -0.3923   -3.0080   30.2846 H   0  0  0  0  0  0
   -2.2658   -2.2778   28.8017 H   0  0  0  0  0  0
   -2.9347    6.6765   30.3727 H   0  0  0  0  0  0
   -0.5125    6.9600   30.4677 H   0  0  0  0  0  0
   -0.0447    2.7570   31.1908 H   0  0  0  0  0  0
   -2.4485    2.4630   31.0965 H   0  0  0  0  0  0
  1  2  2  0  0  0
  1  4  1  0  0  0
  1 32  1  0  0  0
  2  3  1  0  0  0
  2 21  1  0  0  0
  3  6  2  0  0  0
  4  5  2  0  0  0
  5  6  1  0  0  0
  5  9  1  0  0  0
  6  7  1  0  0  0
  7  8  1  0  0  0
  7 10  1  0  0  0
  8  9  2  0  0  0
  8 33  1  0  0  0
 10 11  1  0  0  0
 10 34  1  0  0  0
 10 35  1  0  0  0
 11 12  2  0  0  0
 11 14  1  0  0  0
 12 13  1  0  0  0
 12 36  1  0  0  0
 13 16  2  0  0  0
 13 37  1  0  0  0
 14 15  2  0  0  0
 14 38  1  0  0  0
 15 16  1  0  0  0
 15 20  1  0  0  0
 16 17  1  0  0  0
 17 18  2  0  0  0
 18 19  1  0  0  0
 18 39  1  0  0  0
 19 20  2  0  0  0
 19 40  1  0  0  0
 20 41  1  0  0  0
 21 22  2  0  0  0
 21 26  1  0  0  0
 22 23  1  0  0  0
 22 42  1  0  0  0
 23 24  2  0  0  0
 23 43  1  0  0  0
 24 25  1  0  0  0
 24 27  1  0  0  0
 25 26  2  0  0  0
 25 44  1  0  0  0
 26 45  1  0  0  0
 27 28  1  0  0  0
 28 29  1  0  0  0
 28 30  1  0  0  0
 28 31  1  0  0  0
M  END
> <s_m_entry_id>
10151

> <s_m_entry_name>
dock_pv.220

> <s_m_Source_Path>
/home/csk/Desktop/cluster/DUD-E-result/met

> <s_m_Source_File>
dock_pv.maegz

> <i_m_Source_File_Index>
220

> <chembl_id>
CHEMBL4554402

> <chembl_pref_name>
None

> <i_lp_mmshare_version>
53161

> <i_f3d_flags>
0

> <r_lp_tautomer_probability>
1

> <s_lp_Force_Field>
OPLS_2005

> <r_lp_Energy>
27.052778

> <b_lp_Chiralities_Consistent>
1

> <s_lp_Variant>
CHEMBL3717_lig3330 -1

> <s_i_glide_gridfile>
glide-grid_3lq8

> <i_i_glide_lignum>
4053

> <i_i_glide_rotatable_bonds>
5

> <r_i_docking_score>
-7.98449580437537

> <r_i_glide_ligand_efficiency>
-0.257564380786302

> <r_i_glide_ligand_efficiency_sa>
-0.809107761621104

> <r_i_glide_ligand_efficiency_ln>
-1.80074849929624

> <r_i_glide_gscore>
-7.98449580437537

> <r_i_glide_lipo>
-3.28338723722175

> <r_i_glide_hbond>
0

> <r_i_glide_metal>
0

> <r_i_glide_rewards>
-2.77205221300979

> <r_i_glide_evdw>
-42.0373954772949

> <r_i_glide_ecoul>
-1.82174277305603

> <r_i_glide_erotb>
0.446074835679319

> <r_i_glide_esite>
0

> <r_i_glide_emodel>
-62.7351050973713

> <r_i_glide_energy>
-43.859138250351

> <r_i_glide_einternal>
2.56034517288208

> <i_i_glide_confnum>
8

> <i_i_glide_posenum>
7

> <r_i_glide_eff_state_penalty>
0

> <s_user_duplicate_titles>
CHEMBL3717_lig3330 

> <s_m_subgroup_title>
dock_pv

> <s_m_subgroupid>
dock_pv

> <b_m_subgroup_collapsed>
1

$$$$
CHEMBL3717_lig2192
                    3D
 Schrodinger Suite 2021-1.
 55 58  0  0  1  0            999 V2000
    4.9932    4.3602   30.7704 C   0  0  0  0  0  0
    3.6403    3.7716   30.3404 C   0  0  2  0  0  0
    3.6795    3.5160   28.8282 C   0  0  0  0  0  0
    2.4124    2.7921   28.3819 C   0  0  2  0  0  0
    2.4832    2.3570   27.0080 N   0  0  0  0  0  0
    1.1908    3.6797   28.6612 C   0  0  0  0  0  0
    1.0866    4.1599   30.1286 C   0  0  1  0  0  0
    2.4521    4.7160   30.6348 C   0  0  0  0  0  0
   -0.0900    5.1512   30.2484 C   0  0  0  0  0  0
    0.1122    6.4703   29.8176 C   0  0  0  0  0  0
   -0.9549    7.3575   29.8081 C   0  0  0  0  0  0
   -2.2023    7.0294   30.2080 N   0  0  0  0  0  0
   -2.4090    5.7575   30.6169 C   0  0  0  0  0  0
   -1.4025    4.7760   30.6319 C   0  0  0  0  0  0
   -1.6898    3.4535   31.0080 N   0  0  0  0  0  0
   -2.8400    2.7594   30.8210 C   0  0  0  0  0  0
   -3.8240    3.1797   30.2083 O   0  0  0  0  0  0
   -2.8339    1.3784   31.4213 C   0  0  0  0  0  0
   -2.0940    1.1075   32.5964 C   0  0  0  0  0  0
   -1.9517   -0.2109   33.0081 C   0  0  0  0  0  0
   -2.6153   -1.2167   32.3157 C   0  0  0  0  0  0
   -2.5144   -2.4950   32.7388 F   0  0  0  0  0  0
   -3.4136   -0.8714   31.2218 C   0  0  0  0  0  0
   -3.5168    0.4035   30.7620 N   0  0  0  0  0  0
   -4.2379   -1.8840   30.5362 C   0  0  0  0  0  0
   -5.4787   -2.2467   31.0775 C   0  0  0  0  0  0
   -5.9612   -1.6146   32.1735 F   0  0  0  0  0  0
   -6.2232   -3.2759   30.5092 C   0  0  0  0  0  0
   -5.7256   -3.9647   29.4080 C   0  0  0  0  0  0
   -4.4941   -3.6014   28.8533 C   0  0  0  0  0  0
   -3.7532   -2.5614   29.4101 C   0  0  0  0  0  0
   -2.5456   -2.2466   28.8827 F   0  0  0  0  0  0
    5.2543    5.2387   30.1779 H   0  0  0  0  0  0
    5.7988    3.6345   30.6525 H   0  0  0  0  0  0
    4.9804    4.6802   31.8083 H   0  0  0  0  0  0
    3.4734    2.8265   30.8610 H   0  0  0  0  0  0
    3.8431    4.4367   28.2660 H   0  0  0  0  0  0
    4.5505    2.9042   28.6078 H   0  0  0  0  0  0
    2.3105    1.9123   29.0107 H   0  0  0  0  0  0
    2.5876    3.1485   26.3920 H   0  0  0  0  0  0
    3.2907    1.7671   26.8717 H   0  0  0  0  0  0
    0.3062    3.0899   28.4330 H   0  0  0  0  0  0
    1.2256    4.5447   27.9976 H   0  0  0  0  0  0
    0.8467    3.3006   30.7553 H   0  0  0  0  0  0
    2.4228    4.9354   31.7026 H   0  0  0  0  0  0
    2.6846    5.6414   30.1248 H   0  0  0  0  0  0
    1.0652    6.8129   29.4479 H   0  0  0  0  0  0
   -0.8138    8.3570   29.4456 H   0  0  0  0  0  0
   -3.4213    5.5356   30.9213 H   0  0  0  0  0  0
   -0.9205    2.9480   31.4168 H   0  0  0  0  0  0
   -1.5871    1.8929   33.1330 H   0  0  0  0  0  0
   -1.3498   -0.4532   33.8718 H   0  0  0  0  0  0
   -7.1726   -3.5558   30.9403 H   0  0  0  0  0  0
   -6.2885   -4.7874   28.9948 H   0  0  0  0  0  0
   -4.0932   -4.1414   28.0079 H   0  0  0  0  0  0
  1  2  1  0  0  0
  1 33  1  0  0  0
  1 34  1  0  0  0
  1 35  1  0  0  0
  2  3  1  0  0  0
  2  8  1  0  0  0
  2 36  1  0  0  0
  3  4  1  0  0  0
  3 37  1  0  0  0
  3 38  1  0  0  0
  4  5  1  0  0  0
  4  6  1  0  0  0
  4 39  1  0  0  0
  5 40  1  0  0  0
  5 41  1  0  0  0
  6  7  1  0  0  0
  6 42  1  0  0  0
  6 43  1  0  0  0
  7  8  1  0  0  0
  7  9  1  0  0  0
  7 44  1  0  0  0
  8 45  1  0  0  0
  8 46  1  0  0  0
  9 10  2  0  0  0
  9 14  1  0  0  0
 10 11  1  0  0  0
 10 47  1  0  0  0
 11 12  2  0  0  0
 11 48  1  0  0  0
 12 13  1  0  0  0
 13 14  2  0  0  0
 13 49  1  0  0  0
 14 15  1  0  0  0
 15 16  1  0  0  0
 15 50  1  0  0  0
 16 17  2  0  0  0
 16 18  1  0  0  0
 18 19  2  0  0  0
 18 24  1  0  0  0
 19 20  1  0  0  0
 19 51  1  0  0  0
 20 21  2  0  0  0
 20 52  1  0  0  0
 21 22  1  0  0  0
 21 23  1  0  0  0
 23 24  2  0  0  0
 23 25  1  0  0  0
 25 26  2  0  0  0
 25 31  1  0  0  0
 26 27  1  0  0  0
 26 28  1  0  0  0
 28 29  2  0  0  0
 28 53  1  0  0  0
 29 30  1  0  0  0
 29 54  1  0  0  0
 30 31  2  0  0  0
 30 55  1  0  0  0
 31 32  1  0  0  0
M  END
> <s_m_entry_id>
10152

> <s_m_entry_name>
dock_pv.221

> <s_m_Source_Path>
/home/csk/Desktop/cluster/DUD-E-result/met

> <s_m_Source_File>
dock_pv.maegz

> <i_m_Source_File_Index>
221

> <chembl_id>
CHEMBL3651966

> <chembl_pref_name>
None

> <i_lp_mmshare_version>
53161

> <i_f3d_flags>
0

> <r_lp_tautomer_probability>
1

> <s_lp_Force_Field>
OPLS_2005

> <r_lp_Energy>
33.536806

> <b_lp_Chiralities_Consistent>
1

> <s_lp_Variant>
CHEMBL3717_lig2192-1

> <s_i_glide_gridfile>
glide-grid_3lq8

> <i_i_glide_lignum>
2510

> <i_i_glide_rotatable_bonds>
5

> <r_i_docking_score>
-7.98232387267894

> <r_i_glide_ligand_efficiency>
-0.249447621021217

> <r_i_glide_ligand_efficiency_sa>
-0.791946831125196

> <r_i_glide_ligand_efficiency_ln>
-1.78745990502361

> <r_i_glide_gscore>
-7.98232387267894

> <r_i_glide_lipo>
-4.02789199124469

> <r_i_glide_hbond>
-0.091970350787404

> <r_i_glide_metal>
0

> <r_i_glide_rewards>
-2.49254278085143

> <r_i_glide_evdw>
-38.3689956665039

> <r_i_glide_ecoul>
0.29445207118988

> <r_i_glide_erotb>
0.514593828934005

> <r_i_glide_esite>
-0.0102306060827121

> <r_i_glide_emodel>
-46.5534820937507

> <r_i_glide_energy>
-38.074543595314

> <r_i_glide_einternal>
6.29086923599243

> <i_i_glide_confnum>
20

> <i_i_glide_posenum>
135

> <r_i_glide_eff_state_penalty>
0

> <s_user_duplicate_titles>
CHEMBL3717_lig2192

> <s_m_subgroup_title>
dock_pv

> <s_m_subgroupid>
dock_pv

> <b_m_subgroup_collapsed>
1

$$$$
CHEMBL3717_lig2125
                    3D
 Schrodinger Suite 2021-1.
 40 43  0  0  1  0            999 V2000
   -6.7380    1.8823   30.2250 C   0  0  0  0  0  0
   -5.4067    1.5049   30.0503 C   0  0  0  0  0  0
   -4.3696    2.3864   30.1182 N   0  0  0  0  0  0
   -7.0682    3.2106   30.4939 C   0  0  0  0  0  0
   -6.0219    4.1376   30.6060 C   0  0  0  0  0  0
   -4.7120    3.6614   30.4104 N   0  0  0  0  0  0
   -3.8845    4.7579   30.6081 C   0  0  0  0  0  0
   -4.7741    5.8058   30.8571 C   0  0  0  0  0  0
   -6.0402    5.4587   30.8858 N   0  0  0  0  0  0
   -2.3872    4.7784   30.6238 C   0  0  0  0  0  0
   -1.7050    5.9569   30.2864 C   0  0  0  0  0  0
   -0.3104    5.9689   30.2391 C   0  0  0  0  0  0
    0.4034    4.8147   30.5763 C   0  0  0  0  0  0
   -0.2706    3.6639   30.9815 C   0  0  0  0  0  0
   -1.6597    3.6470   31.0075 C   0  0  0  0  0  0
   -5.1692    0.1420   29.8118 N   0  0  0  0  0  0
   -3.8605   -0.4178   29.4755 C   0  0  0  0  0  0
   -3.0208   -0.8510   30.6816 C   0  0  0  0  0  0
   -2.9361   -0.0742   31.8428 C   0  0  0  0  0  0
   -2.0726   -0.4334   32.8723 C   0  0  0  0  0  0
   -1.2934   -1.5807   32.7504 C   0  0  0  0  0  0
   -1.3714   -2.3658   31.6032 C   0  0  0  0  0  0
   -2.2324   -2.0022   30.5711 C   0  0  0  0  0  0
    1.8560    4.7848   30.4911 C   0  0  0  0  0  0
    3.0106    4.7560   30.4236 N   0  0  0  0  0  0
   -7.5245    1.1445   30.1607 H   0  0  0  0  0  0
   -8.0948    3.5182   30.6271 H   0  0  0  0  0  0
   -4.4905    6.8281   31.0646 H   0  0  0  0  0  0
   -2.2511    6.8469   30.0126 H   0  0  0  0  0  0
    0.2040    6.8717   29.9368 H   0  0  0  0  0  0
    0.2709    2.7689   31.2551 H   0  0  0  0  0  0
   -2.1598    2.7415   31.3163 H   0  0  0  0  0  0
   -5.9689   -0.4311   29.5913 H   0  0  0  0  0  0
   -4.0418   -1.2870   28.8422 H   0  0  0  0  0  0
   -3.2944    0.2835   28.8644 H   0  0  0  0  0  0
   -3.5288    0.8165   31.9488 H   0  0  0  0  0  0
   -2.0060    0.1781   33.7602 H   0  0  0  0  0  0
   -0.6139   -1.8613   33.5434 H   0  0  0  0  0  0
   -0.7527   -3.2446   31.5082 H   0  0  0  0  0  0
   -2.2701   -2.6134   29.6799 H   0  0  0  0  0  0
  1  2  1  0  0  0
  1  4  2  0  0  0
  1 26  1  0  0  0
  2  3  2  0  0  0
  2 16  1  0  0  0
  3  6  1  0  0  0
  4  5  1  0  0  0
  4 27  1  0  0  0
  5  6  1  0  0  0
  5  9  2  0  0  0
  6  7  1  0  0  0
  7  8  2  0  0  0
  7 10  1  0  0  0
  8  9  1  0  0  0
  8 28  1  0  0  0
 10 11  2  0  0  0
 10 15  1  0  0  0
 11 12  1  0  0  0
 11 29  1  0  0  0
 12 13  2  0  0  0
 12 30  1  0  0  0
 13 14  1  0  0  0
 13 24  1  0  0  0
 14 15  2  0  0  0
 14 31  1  0  0  0
 15 32  1  0  0  0
 16 17  1  0  0  0
 16 33  1  0  0  0
 17 18  1  0  0  0
 17 34  1  0  0  0
 17 35  1  0  0  0
 18 19  2  0  0  0
 18 23  1  0  0  0
 19 20  1  0  0  0
 19 36  1  0  0  0
 20 21  2  0  0  0
 20 37  1  0  0  0
 21 22  1  0  0  0
 21 38  1  0  0  0
 22 23  2  0  0  0
 22 39  1  0  0  0
 23 40  1  0  0  0
 24 25  3  0  0  0
M  END
> <s_m_entry_id>
10153

> <s_m_entry_name>
dock_pv.222

> <s_m_Source_Path>
/home/csk/Desktop/cluster/DUD-E-result/met

> <s_m_Source_File>
dock_pv.maegz

> <i_m_Source_File_Index>
222

> <chembl_id>
CHEMBL3582427

> <chembl_pref_name>
None

> <i_lp_mmshare_version>
53161

> <i_f3d_flags>
0

> <r_lp_tautomer_probability>
0.99999999999948

> <s_lp_Force_Field>
OPLS_2005

> <r_lp_Energy>
16.808536

> <b_lp_Chiralities_Consistent>
1

> <s_lp_Variant>
CHEMBL3717_lig2125-1

> <s_i_glide_gridfile>
glide-grid_3lq8

> <i_i_glide_lignum>
2423

> <i_i_glide_rotatable_bonds>
4

> <r_i_docking_score>
-7.97986076772837

> <r_i_glide_ligand_efficiency>
-0.319194430709135

> <r_i_glide_ligand_efficiency_sa>
-0.933330176330843

> <r_i_glide_ligand_efficiency_ln>
-1.89146613908165

> <r_i_glide_gscore>
-7.97986076772837

> <r_i_glide_lipo>
-3.70597019888588

> <r_i_glide_hbond>
0

> <r_i_glide_metal>
0

> <r_i_glide_rewards>
-2.88289665540914

> <r_i_glide_evdw>
-41.0867118835449

> <r_i_glide_ecoul>
-0.222066402435303

> <r_i_glide_erotb>
0.708092053758486

> <r_i_glide_esite>
-0.0114404126492886

> <r_i_glide_emodel>
-60.9318142993805

> <r_i_glide_energy>
-41.3087782859802

> <r_i_glide_einternal>
1.12190139293671

> <i_i_glide_confnum>
2

> <i_i_glide_posenum>
322

> <r_i_glide_eff_state_penalty>
0

> <s_user_duplicate_titles>
CHEMBL3717_lig2125

> <s_m_subgroup_title>
dock_pv

> <s_m_subgroupid>
dock_pv

> <b_m_subgroup_collapsed>
1

$$$$
CHEMBL3717_lig1328
                    3D
 Schrodinger Suite 2021-1.
 36 39  0  0  1  0            999 V2000
   -1.8065   -1.4209   32.3453 C   0  0  0  0  0  0
   -1.9372   -2.1424   31.1621 C   0  0  0  0  0  0
   -2.8791   -1.7542   30.2083 C   0  0  0  0  0  0
   -3.6921   -0.6383   30.4356 C   0  0  0  0  0  0
   -3.5459    0.0742   31.6267 C   0  0  0  0  0  0
   -2.6020   -0.3037   32.5757 C   0  0  0  0  0  0
   -0.8941   -1.7924   33.2967 O   0  0  0  0  0  0
   -4.6907   -0.2080   29.3544 C   0  0  0  0  0  0
   -4.2599    2.7917   30.1119 N   0  0  0  0  0  0
   -5.4474    2.1771   30.0051 N   0  0  0  0  0  0
   -6.6893    2.7936   30.2079 C   0  0  0  0  0  0
   -6.7600    4.0950   30.5258 N   0  0  0  0  0  0
   -5.5679    4.7464   30.6394 C   0  0  0  0  0  0
   -4.3295    4.1099   30.4548 C   0  0  0  0  0  0
   -7.0391    0.6873   29.7100 N   0  0  0  0  0  0
   -7.6709    1.8834   30.0273 N   0  0  0  0  0  0
   -5.7301    0.8598   29.7071 C   0  0  0  0  0  0
   -3.0161    4.8049   30.6012 C   0  0  0  0  0  0
   -2.8854    6.1496   30.2312 C   0  0  0  0  0  0
   -1.6340    6.7607   30.2080 C   0  0  0  0  0  0
   -0.5075    6.0394   30.5912 C   0  0  0  0  0  0
   -0.6195    4.7186   31.0077 C   0  0  0  0  0  0
   -1.8683    4.1045   31.0092 C   0  0  0  0  0  0
    0.7080    6.6283   30.5557 F   0  0  0  0  0  0
   -1.3211   -3.0071   30.9757 H   0  0  0  0  0  0
   -2.9738   -2.3228   29.2929 H   0  0  0  0  0  0
   -4.1616    0.9318   31.8084 H   0  0  0  0  0  0
   -2.4949    0.2660   33.4869 H   0  0  0  0  0  0
   -0.2450   -2.4351   32.9909 H   0  0  0  0  0  0
   -4.1025    0.1268   28.5010 H   0  0  0  0  0  0
   -5.1967   -1.1110   29.0070 H   0  0  0  0  0  0
   -5.6323    5.7936   30.9015 H   0  0  0  0  0  0
   -3.7494    6.7106   29.9041 H   0  0  0  0  0  0
   -1.5303    7.7877   29.8890 H   0  0  0  0  0  0
    0.2611    4.1684   31.3061 H   0  0  0  0  0  0
   -1.9347    3.0667   31.3021 H   0  0  0  0  0  0
  1  2  1  0  0  0
  1  6  2  0  0  0
  1  7  1  0  0  0
  2  3  2  0  0  0
  2 25  1  0  0  0
  3  4  1  0  0  0
  3 26  1  0  0  0
  4  5  2  0  0  0
  4  8  1  0  0  0
  5  6  1  0  0  0
  5 27  1  0  0  0
  6 28  1  0  0  0
  7 29  1  0  0  0
  8 17  1  0  0  0
  8 30  1  0  0  0
  8 31  1  0  0  0
  9 10  1  0  0  0
  9 14  2  0  0  0
 10 11  1  0  0  0
 10 17  1  0  0  0
 11 12  1  0  0  0
 11 16  2  0  0  0
 12 13  2  0  0  0
 13 14  1  0  0  0
 13 32  1  0  0  0
 14 18  1  0  0  0
 15 16  1  0  0  0
 15 17  2  0  0  0
 18 19  1  0  0  0
 18 23  2  0  0  0
 19 20  2  0  0  0
 19 33  1  0  0  0
 20 21  1  0  0  0
 20 34  1  0  0  0
 21 22  2  0  0  0
 21 24  1  0  0  0
 22 23  1  0  0  0
 22 35  1  0  0  0
 23 36  1  0  0  0
M  END
> <s_m_entry_id>
10154

> <s_m_entry_name>
dock_pv.223

> <s_m_Source_Path>
/home/csk/Desktop/cluster/DUD-E-result/met

> <s_m_Source_File>
dock_pv.maegz

> <i_m_Source_File_Index>
223

> <chembl_id>
CHEMBL2170957

> <chembl_pref_name>
None

> <i_lp_mmshare_version>
53161

> <i_f3d_flags>
0

> <r_lp_tautomer_probability>
0.999999999997365

> <s_lp_Force_Field>
OPLS_2005

> <r_lp_Energy>
21.916185

> <b_lp_Chiralities_Consistent>
1

> <s_lp_Variant>
CHEMBL3717_lig1328-1

> <s_i_glide_gridfile>
glide-grid_3lq8

> <i_i_glide_lignum>
1514

> <i_i_glide_rotatable_bonds>
4

> <r_i_docking_score>
-7.96873248061563

> <r_i_glide_ligand_efficiency>
-0.332030520025651

> <r_i_glide_ligand_efficiency_sa>
-0.957741748657296

> <r_i_glide_ligand_efficiency_ln>
-1.90728334391804

> <r_i_glide_gscore>
-7.96873248061563

> <r_i_glide_lipo>
-3.18506098184057

> <r_i_glide_hbond>
-0.242082830269301

> <r_i_glide_metal>
0

> <r_i_glide_rewards>
-2.79300321366059

> <r_i_glide_evdw>
-37.9036102294922

> <r_i_glide_ecoul>
-2.64240884780884

> <r_i_glide_erotb>
0.542956383800766

> <r_i_glide_esite>
0

> <r_i_glide_emodel>
-57.6119097505191

> <r_i_glide_energy>
-40.546019077301

> <r_i_glide_einternal>
3.64745211601257

> <i_i_glide_confnum>
3

> <i_i_glide_posenum>
130

> <r_i_glide_eff_state_penalty>
0

> <s_user_duplicate_titles>
CHEMBL3717_lig1328

> <s_m_subgroup_title>
dock_pv

> <s_m_subgroupid>
dock_pv

> <b_m_subgroup_collapsed>
1

$$$$
CHEMBL3717_lig102
                    3D
 Schrodinger Suite 2021-1.
 40 42  0  0  1  0            999 V2000
   -8.4996    0.8826   29.7459 Cl  0  0  0  0  0  0
   -7.1030    1.8604   30.0120 C   0  0  0  0  0  0
   -5.8385    1.2749   30.0060 C   0  0  0  0  0  0
   -4.7092    2.0638   30.2081 C   0  0  0  0  0  0
   -7.2487    3.2317   30.2154 C   0  0  0  0  0  0
   -6.1220    4.0238   30.4171 C   0  0  0  0  0  0
   -4.8506    3.4434   30.4242 C   0  0  0  0  0  0
   -3.7677    4.3217   30.5914 N   0  0  0  0  0  0
   -2.4901    4.0558   30.9524 C   0  0  0  0  0  0
   -2.1363    2.9659   31.4074 O   0  0  0  0  0  0
   -1.4851    5.1783   30.6972 C   0  0  0  0  0  0
   -0.0821    5.0103   30.8724 C   0  0  0  0  0  0
    0.7813    6.0408   30.4702 C   0  0  0  0  0  0
    0.3007    7.2042   29.8926 C   0  0  0  0  0  0
   -1.0637    7.4161   29.8080 C   0  0  0  0  0  0
   -1.9449    6.4208   30.2080 C   0  0  0  0  0  0
    0.4555    3.8189   31.4077 N   0  0  0  0  0  0
    1.8703    3.5906   31.7130 C   0  0  0  0  0  0
    2.7681    3.6375   30.4813 C   0  0  0  0  0  0
    2.3228    3.1894   29.2303 C   0  0  0  0  0  0
    3.1489    3.3680   28.1250 C   0  0  0  0  0  0
    4.3685    3.9569   28.2081 N   0  0  0  0  0  0
    4.8082    4.3490   29.4283 C   0  0  0  0  0  0
    4.0464    4.1964   30.5860 C   0  0  0  0  0  0
   -5.7313    0.2129   29.8360 H   0  0  0  0  0  0
   -3.7392    1.5907   30.1769 H   0  0  0  0  0  0
   -8.2314    3.6808   30.2068 H   0  0  0  0  0  0
   -6.2468    5.0884   30.5590 H   0  0  0  0  0  0
   -3.9748    5.2779   30.3566 H   0  0  0  0  0  0
    1.8496    5.9611   30.5751 H   0  0  0  0  0  0
    0.9881    7.9579   29.5480 H   0  0  0  0  0  0
   -1.4339    8.3543   29.4180 H   0  0  0  0  0  0
   -2.9953    6.6372   30.0859 H   0  0  0  0  0  0
   -0.2209    3.1560   31.7681 H   0  0  0  0  0  0
    2.1957    4.3358   32.4405 H   0  0  0  0  0  0
    1.9829    2.6165   32.1882 H   0  0  0  0  0  0
    1.3455    2.7449   29.1096 H   0  0  0  0  0  0
    2.8308    3.0470   27.1439 H   0  0  0  0  0  0
    5.7887    4.8013   29.4619 H   0  0  0  0  0  0
    4.4243    4.5456   31.5339 H   0  0  0  0  0  0
  1  2  1  0  0  0
  2  5  2  0  0  0
  2  3  1  0  0  0
  3  4  2  0  0  0
  3 25  1  0  0  0
  4  7  1  0  0  0
  4 26  1  0  0  0
  5  6  1  0  0  0
  5 27  1  0  0  0
  6  7  2  0  0  0
  6 28  1  0  0  0
  7  8  1  0  0  0
  8  9  1  0  0  0
  8 29  1  0  0  0
  9 10  2  0  0  0
  9 11  1  0  0  0
 11 12  2  0  0  0
 11 16  1  0  0  0
 12 17  1  0  0  0
 12 13  1  0  0  0
 13 14  2  0  0  0
 13 30  1  0  0  0
 14 15  1  0  0  0
 14 31  1  0  0  0
 15 16  2  0  0  0
 15 32  1  0  0  0
 16 33  1  0  0  0
 17 18  1  0  0  0
 17 34  1  0  0  0
 18 19  1  0  0  0
 18 35  1  0  0  0
 18 36  1  0  0  0
 19 24  2  0  0  0
 19 20  1  0  0  0
 20 21  2  0  0  0
 20 37  1  0  0  0
 21 22  1  0  0  0
 21 38  1  0  0  0
 22 23  2  0  0  0
 23 24  1  0  0  0
 23 39  1  0  0  0
 24 40  1  0  0  0
M  END
> <s_m_entry_id>
10155

> <s_m_entry_name>
dock_pv.224

> <s_m_Source_Path>
/home/csk/Desktop/cluster/DUD-E-result/met

> <s_m_Source_File>
dock_pv.maegz

> <i_m_Source_File_Index>
224

> <chembl_id>
CHEMBL101683

> <chembl_pref_name>
None

> <i_lp_mmshare_version>
53161

> <i_f3d_flags>
0

> <r_lp_tautomer_probability>
1

> <s_lp_Force_Field>
OPLS_2005

> <r_lp_Energy>
26.480135

> <b_lp_Chiralities_Consistent>
1

> <s_lp_Variant>
CHEMBL3717_lig102-1

> <s_i_glide_gridfile>
glide-grid_3lq8

> <i_i_glide_lignum>
111

> <i_i_glide_rotatable_bonds>
6

> <r_i_docking_score>
-7.96717637318191

> <r_i_glide_ligand_efficiency>
-0.331965682215913

> <r_i_glide_ligand_efficiency_sa>
-0.957554724051025

> <r_i_glide_ligand_efficiency_ln>
-1.90691089600404

> <r_i_glide_gscore>
-7.96717637318191

> <r_i_glide_lipo>
-4.55850051395244

> <r_i_glide_hbond>
0

> <r_i_glide_metal>
0

> <r_i_glide_rewards>
-2.29755093711957

> <r_i_glide_evdw>
-40.6792449951172

> <r_i_glide_ecoul>
-0.474261611700058

> <r_i_glide_erotb>
0.993976569400977

> <r_i_glide_esite>
0

> <r_i_glide_emodel>
-60.1822802226331

> <r_i_glide_energy>
-41.1535066068172

> <r_i_glide_einternal>
1.37710130214691

> <i_i_glide_confnum>
91

> <i_i_glide_posenum>
261

> <r_i_glide_eff_state_penalty>
0

> <s_user_duplicate_titles>
CHEMBL3717_lig102

> <s_m_subgroup_title>
dock_pv

> <s_m_subgroupid>
dock_pv

> <b_m_subgroup_collapsed>
1

$$$$
CHEMBL3717_lig1450
                    3D
 Schrodinger Suite 2021-1.
 43 47  0  0  1  0            999 V2000
   -2.6032    4.0411   30.7073 N   0  0  0  0  0  0
   -3.5250    5.0281   30.7426 N   0  0  0  0  0  0
   -2.8954    6.1618   30.6000 C   0  0  0  0  0  0
   -1.4946    5.9572   30.4522 C   0  0  0  0  0  0
   -0.3761    6.7628   30.2080 C   0  0  0  0  0  0
    0.8791    6.1586   30.1804 C   0  0  0  0  0  0
    1.0435    4.7867   30.3915 C   0  0  0  0  0  0
   -0.0609    3.9580   30.6068 C   0  0  0  0  0  0
   -1.3238    4.5596   30.6082 C   0  0  0  0  0  0
    4.5671    3.8077   30.1067 N   0  0  0  0  0  0
    3.5625    4.6793   29.7984 C   0  0  0  0  0  0
    2.4090    4.1916   30.3914 C   0  0  0  0  0  0
    2.8505    3.0069   31.0045 C   0  0  0  0  0  0
    4.1345    2.7830   30.8478 N   0  0  0  0  0  0
    5.9807    3.9590   29.8097 C   0  0  0  0  0  0
   -2.9653    2.6295   30.8988 C   0  0  0  0  0  0
   -7.8825    0.4904   28.8825 N   0  0  0  0  0  0
   -9.0489    1.1490   29.0910 C   0  0  0  0  0  0
   -9.1415    2.3467   29.7959 C   0  0  0  0  0  0
   -7.9805    2.9090   30.3227 C   0  0  0  0  0  0
   -6.7390    2.2545   30.1217 C   0  0  0  0  0  0
   -5.5152    2.7697   30.6067 C   0  0  0  0  0  0
   -4.3042    2.1150   30.3469 C   0  0  0  0  0  0
   -4.3201    0.9183   29.6263 C   0  0  0  0  0  0
   -5.5111    0.3721   29.1566 C   0  0  0  0  0  0
   -6.7377    1.0322   29.3861 C   0  0  0  0  0  0
   -3.4404    7.0924   30.5816 H   0  0  0  0  0  0
   -0.4790    7.8293   30.0640 H   0  0  0  0  0  0
    1.7446    6.7765   30.0065 H   0  0  0  0  0  0
    0.0585    2.8940   30.7370 H   0  0  0  0  0  0
    3.7646    5.5569   29.2099 H   0  0  0  0  0  0
    2.2365    2.3276   31.5768 H   0  0  0  0  0  0
    6.0999    4.4132   28.8258 H   0  0  0  0  0  0
    6.4383    4.6020   30.5604 H   0  0  0  0  0  0
    6.4792    2.9906   29.8101 H   0  0  0  0  0  0
   -2.8939    2.4060   31.9574 H   0  0  0  0  0  0
   -2.1580    2.0447   30.4627 H   0  0  0  0  0  0
   -9.9329    0.6903   28.6727 H   0  0  0  0  0  0
  -10.0969    2.8324   29.9311 H   0  0  0  0  0  0
   -8.0180    3.8390   30.8705 H   0  0  0  0  0  0
   -5.5472    3.6803   31.1831 H   0  0  0  0  0  0
   -3.4013    0.3822   29.4361 H   0  0  0  0  0  0
   -5.5018   -0.5591   28.6079 H   0  0  0  0  0  0
  1  2  1  0  0  0
  1  9  1  0  0  0
  1 16  1  0  0  0
  2  3  2  0  0  0
  3  4  1  0  0  0
  3 27  1  0  0  0
  4  5  1  0  0  0
  4  9  2  0  0  0
  5  6  2  0  0  0
  5 28  1  0  0  0
  6  7  1  0  0  0
  6 29  1  0  0  0
  7  8  2  0  0  0
  7 12  1  0  0  0
  8  9  1  0  0  0
  8 30  1  0  0  0
 10 11  1  0  0  0
 10 14  1  0  0  0
 10 15  1  0  0  0
 11 12  2  0  0  0
 11 31  1  0  0  0
 12 13  1  0  0  0
 13 14  2  0  0  0
 13 32  1  0  0  0
 15 33  1  0  0  0
 15 34  1  0  0  0
 15 35  1  0  0  0
 16 23  1  0  0  0
 16 36  1  0  0  0
 16 37  1  0  0  0
 17 18  2  0  0  0
 17 26  1  0  0  0
 18 19  1  0  0  0
 18 38  1  0  0  0
 19 20  2  0  0  0
 19 39  1  0  0  0
 20 21  1  0  0  0
 20 40  1  0  0  0
 21 22  2  0  0  0
 21 26  1  0  0  0
 22 23  1  0  0  0
 22 41  1  0  0  0
 23 24  2  0  0  0
 24 25  1  0  0  0
 24 42  1  0  0  0
 25 26  2  0  0  0
 25 43  1  0  0  0
M  END
> <s_m_entry_id>
10156

> <s_m_entry_name>
dock_pv.225

> <s_m_Source_Path>
/home/csk/Desktop/cluster/DUD-E-result/met

> <s_m_Source_File>
dock_pv.maegz

> <i_m_Source_File_Index>
225

> <chembl_id>
CHEMBL2402840

> <chembl_pref_name>
None

> <i_lp_mmshare_version>
53161

> <i_f3d_flags>
0

> <r_lp_tautomer_probability>
1

> <s_lp_Force_Field>
OPLS_2005

> <r_lp_Energy>
18.559658

> <b_lp_Chiralities_Consistent>
1

> <s_lp_Variant>
CHEMBL3717_lig1450-1

> <s_i_glide_gridfile>
glide-grid_3lq8

> <i_i_glide_lignum>
1664

> <i_i_glide_rotatable_bonds>
3

> <r_i_docking_score>
-7.9629561584626

> <r_i_glide_ligand_efficiency>
-0.306267544556254

> <r_i_glide_ligand_efficiency_sa>
-0.907316395643306

> <r_i_glide_ligand_efficiency_ln>
-1.87007412522464

> <r_i_glide_gscore>
-7.9629561584626

> <r_i_glide_lipo>
-4.10625741562865

> <r_i_glide_hbond>
0

> <r_i_glide_metal>
0

> <r_i_glide_rewards>
-2.34168262500079

> <r_i_glide_evdw>
-38.2969703674316

> <r_i_glide_ecoul>
-0.620239555835724

> <r_i_glide_erotb>
0.49286833391378

> <r_i_glide_esite>
0

> <r_i_glide_emodel>
-53.5126228578733

> <r_i_glide_energy>
-38.9172099232674

> <r_i_glide_einternal>
4.13652229309082

> <i_i_glide_confnum>
2

> <i_i_glide_posenum>
17

> <r_i_glide_eff_state_penalty>
0

> <s_user_duplicate_titles>
CHEMBL3717_lig1450

> <s_m_subgroup_title>
dock_pv

> <s_m_subgroupid>
dock_pv

> <b_m_subgroup_collapsed>
1

$$$$
CHEMBL3717_lig1339
                    3D
 Schrodinger Suite 2021-1.
 59 63  0  0  1  0            999 V2000
   -2.1884    3.1864   31.1882 C   0  0  0  0  0  0
   -3.1741    6.0742   30.7771 C   0  0  0  0  0  0
   -4.3173    5.3616   30.7161 C   0  0  0  0  0  0
   -3.5418    2.9267   30.6091 C   0  0  0  0  0  0
   -4.5463    3.9101   30.5004 C   0  0  0  0  0  0
   -5.8491    3.4827   30.2080 C   0  0  0  0  0  0
   -6.1402    2.1352   29.9822 C   0  0  0  0  0  0
   -5.1254    1.1795   30.0358 C   0  0  0  0  0  0
   -3.8349    1.5761   30.3694 C   0  0  0  0  0  0
   -1.7726    5.6354   30.6079 C   0  0  0  0  0  0
   -1.3420    4.3067   30.7293 C   0  0  0  0  0  0
   -0.0141    3.9801   30.4270 C   0  0  0  0  0  0
    0.8468    4.9701   29.9686 C   0  0  0  0  0  0
    0.3655    6.2812   29.8967 C   0  0  0  0  0  0
   -0.9176    6.6167   30.2042 N   0  0  0  0  0  0
   -1.6947    2.3573   31.9545 O   0  0  0  0  0  0
   -5.4075   -0.2930   29.7830 C   0  0  0  0  0  0
   -5.5350   -1.2820   31.3881 S   0  0  0  0  0  0
   -5.6663   -2.9479   30.8222 N   0  0  1  0  0  0
   -6.7808   -0.9064   32.0645 O   0  0  0  0  0  0
   -4.2505   -1.1813   32.0877 O   0  0  0  0  0  0
    2.2057    4.5687   29.5436 C   0  0  0  0  0  0
    2.5710    3.8691   28.3824 C   0  0  0  0  0  0
    3.8662    3.6679   28.2856 N   0  0  0  0  0  0
    4.3717    4.2180   29.3957 N   0  0  0  0  0  0
    3.4028    4.7308   30.2141 C   0  0  0  0  0  0
    5.8025    4.1850   29.6239 C   0  0  0  0  0  0
   -6.8037   -3.4639   30.0213 C   0  0  0  0  0  0
   -6.5224   -4.9795   29.9014 C   0  0  0  0  0  0
   -7.6364   -5.6963   29.1131 C   0  0  0  0  0  0
   -9.0184   -5.4662   29.7577 C   0  0  0  0  0  0
   -9.3021   -3.9695   30.0038 C   0  0  0  0  0  0
   -8.1488   -3.2786   30.7647 C   0  0  0  0  0  0
   -3.2816    7.1322   30.9720 H   0  0  0  0  0  0
   -5.2232    5.9313   30.8725 H   0  0  0  0  0  0
   -6.6518    4.2035   30.1435 H   0  0  0  0  0  0
   -7.1536    1.8400   29.7537 H   0  0  0  0  0  0
   -3.0743    0.8131   30.4738 H   0  0  0  0  0  0
    0.3476    2.9620   30.4974 H   0  0  0  0  0  0
    1.0003    7.0861   29.5552 H   0  0  0  0  0  0
   -4.6090   -0.7388   29.1890 H   0  0  0  0  0  0
   -6.3387   -0.4386   29.2378 H   0  0  0  0  0  0
   -4.7791   -3.4442   30.6872 H   0  0  0  0  0  0
    1.8924    3.5264   27.6140 H   0  0  0  0  0  0
    3.6461    5.1573   31.1717 H   0  0  0  0  0  0
    6.0585    4.8065   30.4859 H   0  0  0  0  0  0
    6.1145    3.1570   29.8116 H   0  0  0  0  0  0
    6.3232    4.5677   28.7421 H   0  0  0  0  0  0
   -6.7961   -3.0656   29.0068 H   0  0  0  0  0  0
   -6.4354   -5.4339   30.8914 H   0  0  0  0  0  0
   -5.5634   -5.1506   29.4086 H   0  0  0  0  0  0
   -7.4243   -6.7645   29.0536 H   0  0  0  0  0  0
   -7.6491   -5.3330   28.0874 H   0  0  0  0  0  0
   -9.0641   -6.0015   30.7077 H   0  0  0  0  0  0
   -9.7970   -5.8962   29.1263 H   0  0  0  0  0  0
  -10.2342   -3.8552   30.5573 H   0  0  0  0  0  0
   -9.4556   -3.4676   29.0471 H   0  0  0  0  0  0
   -8.3980   -2.2236   30.8650 H   0  0  0  0  0  0
   -8.0843   -3.6806   31.7778 H   0  0  0  0  0  0
  1 11  1  0  0  0
  1  4  1  0  0  0
  1 16  2  0  0  0
  2 10  1  0  0  0
  2  3  2  0  0  0
  2 34  1  0  0  0
  3  5  1  0  0  0
  3 35  1  0  0  0
  4  5  2  0  0  0
  4  9  1  0  0  0
  5  6  1  0  0  0
  6  7  2  0  0  0
  6 36  1  0  0  0
  7  8  1  0  0  0
  7 37  1  0  0  0
  8  9  2  0  0  0
  8 17  1  0  0  0
  9 38  1  0  0  0
 10 11  2  0  0  0
 10 15  1  0  0  0
 11 12  1  0  0  0
 12 13  2  0  0  0
 12 39  1  0  0  0
 13 14  1  0  0  0
 13 22  1  0  0  0
 14 15  2  0  0  0
 14 40  1  0  0  0
 17 18  1  0  0  0
 17 41  1  0  0  0
 17 42  1  0  0  0
 18 19  1  0  0  0
 18 20  2  0  0  0
 18 21  2  0  0  0
 19 28  1  0  0  0
 19 43  1  0  0  0
 22 23  1  0  0  0
 22 26  2  0  0  0
 23 24  2  0  0  0
 23 44  1  0  0  0
 24 25  1  0  0  0
 25 26  1  0  0  0
 25 27  1  0  0  0
 26 45  1  0  0  0
 27 46  1  0  0  0
 27 47  1  0  0  0
 27 48  1  0  0  0
 28 29  1  0  0  0
 28 33  1  0  0  0
 28 49  1  0  0  0
 29 30  1  0  0  0
 29 50  1  0  0  0
 29 51  1  0  0  0
 30 31  1  0  0  0
 30 52  1  0  0  0
 30 53  1  0  0  0
 31 32  1  0  0  0
 31 54  1  0  0  0
 31 55  1  0  0  0
 32 33  1  0  0  0
 32 56  1  0  0  0
 32 57  1  0  0  0
 33 58  1  0  0  0
 33 59  1  0  0  0
M  END
> <s_m_entry_id>
10157

> <s_m_entry_name>
dock_pv.226

> <s_m_Source_Path>
/home/csk/Desktop/cluster/DUD-E-result/met

> <s_m_Source_File>
dock_pv.maegz

> <i_m_Source_File_Index>
226

> <chembl_id>
CHEMBL2323782

> <chembl_pref_name>
None

> <i_lp_mmshare_version>
53161

> <i_f3d_flags>
0

> <r_lp_tautomer_probability>
1

> <s_lp_Force_Field>
OPLS_2005

> <r_lp_Energy>
30.852102

> <b_lp_Chiralities_Consistent>
1

> <s_lp_Variant>
CHEMBL3717_lig1339-1

> <s_i_glide_gridfile>
glide-grid_3lq8

> <i_i_glide_lignum>
1525

> <i_i_glide_rotatable_bonds>
5

> <r_i_docking_score>
-7.95221757409857

> <r_i_glide_ligand_efficiency>
-0.240976290124199

> <r_i_glide_ligand_efficiency_sa>
-0.77293972238754

> <r_i_glide_ligand_efficiency_ln>
-1.76853201410053

> <r_i_glide_gscore>
-7.95221757409857

> <r_i_glide_lipo>
-4.267232685198

> <r_i_glide_hbond>
0

> <r_i_glide_metal>
0

> <r_i_glide_rewards>
-1.40528759350196

> <r_i_glide_evdw>
-45.9518508911133

> <r_i_glide_ecoul>
-2.14512777328491

> <r_i_glide_erotb>
0.376600333743604

> <r_i_glide_esite>
-0.0369359185938194

> <r_i_glide_emodel>
-66.3790139583549

> <r_i_glide_energy>
-48.0969786643982

> <r_i_glide_einternal>
6.09915685653687

> <i_i_glide_confnum>
1

> <i_i_glide_posenum>
43

> <r_i_glide_eff_state_penalty>
0

> <s_user_duplicate_titles>
CHEMBL3717_lig1339

> <s_m_subgroup_title>
dock_pv

> <s_m_subgroupid>
dock_pv

> <b_m_subgroup_collapsed>
1

$$$$
CHEMBL3717_lig2505
                    3D
 Schrodinger Suite 2021-1.
 46 49  0  0  1  0            999 V2000
   -5.2803    1.2699   29.9132 C   0  0  0  0  0  0
   -3.9624    1.5863   30.6375 C   0  0  0  0  0  0
   -3.2943    0.7153   31.2980 N   0  0  0  0  0  0
   -3.7605   -0.5400   31.4766 N   0  0  2  0  0  0
   -2.6993   -1.7870   32.1233 S   0  0  0  0  0  0
   -3.5590   -2.8424   32.6646 O   0  0  0  0  0  0
   -1.6891   -1.1450   32.9729 O   0  0  0  0  0  0
   -1.8340   -2.4507   30.5937 C   0  0  0  0  0  0
   -3.5196    3.0100   30.6078 C   0  0  0  0  0  0
   -4.3894    4.0727   30.3033 C   0  0  0  0  0  0
   -3.9088    5.3817   30.2066 C   0  0  0  0  0  0
   -2.5328    5.5963   30.3822 C   0  0  0  0  0  0
   -1.7604    6.6989   30.2085 N   0  0  0  0  0  0
   -0.5457    6.2841   30.5149 C   0  0  0  0  0  0
   -0.4765    4.9475   30.9203 C   0  0  0  0  0  0
    0.6652    4.0617   31.4130 C   0  0  0  0  0  0
    1.9358    4.1368   30.5769 C   0  0  0  0  0  0
    3.1672    4.3550   31.1997 C   0  0  0  0  0  0
    4.3585    4.3922   30.4347 C   0  0  0  0  0  0
    5.6417    4.5660   31.0080 C   0  0  0  0  0  0
    6.7724    4.4859   30.2069 C   0  0  0  0  0  0
    6.5991    4.3570   28.8345 C   0  0  0  0  0  0
    5.3860    4.3569   28.2282 N   0  0  0  0  0  0
    4.2818    4.2538   29.0176 C   0  0  0  0  0  0
    3.0329    3.9756   28.4218 C   0  0  0  0  0  0
    1.8842    3.9144   29.2004 C   0  0  0  0  0  0
    0.7075    3.6304   28.6080 F   0  0  0  0  0  0
   -1.7642    4.4848   30.7631 N   0  0  0  0  0  0
   -2.2025    3.2228   30.9058 N   0  0  0  0  0  0
   -5.3892    1.8538   29.0011 H   0  0  0  0  0  0
   -5.3720    0.2208   29.6325 H   0  0  0  0  0  0
   -6.1290    1.4982   30.5584 H   0  0  0  0  0  0
   -4.5714   -0.8508   30.9340 H   0  0  0  0  0  0
   -1.1473   -3.2415   30.9028 H   0  0  0  0  0  0
   -1.2920   -1.6437   30.1085 H   0  0  0  0  0  0
   -2.5832   -2.8691   29.9209 H   0  0  0  0  0  0
   -5.4398    3.8986   30.1222 H   0  0  0  0  0  0
   -4.5649    6.1956   29.9308 H   0  0  0  0  0  0
    0.2955    6.9610   30.4734 H   0  0  0  0  0  0
    0.8924    4.3081   32.4522 H   0  0  0  0  0  0
    0.3778    3.0090   31.4233 H   0  0  0  0  0  0
    3.2263    4.4805   32.2715 H   0  0  0  0  0  0
    5.7405    4.7563   32.0661 H   0  0  0  0  0  0
    7.7630    4.5780   30.6288 H   0  0  0  0  0  0
    7.4588    4.3420   28.1811 H   0  0  0  0  0  0
    2.9650    3.8180   27.3575 H   0  0  0  0  0  0
  1  2  1  0  0  0
  1 30  1  0  0  0
  1 31  1  0  0  0
  1 32  1  0  0  0
  2  3  2  0  0  0
  2  9  1  0  0  0
  3  4  1  0  0  0
  4  5  1  0  0  0
  4 33  1  0  0  0
  5  6  2  0  0  0
  5  7  2  0  0  0
  5  8  1  0  0  0
  8 34  1  0  0  0
  8 35  1  0  0  0
  8 36  1  0  0  0
  9 10  1  0  0  0
  9 29  2  0  0  0
 10 11  2  0  0  0
 10 37  1  0  0  0
 11 12  1  0  0  0
 11 38  1  0  0  0
 12 13  2  0  0  0
 12 28  1  0  0  0
 13 14  1  0  0  0
 14 15  2  0  0  0
 14 39  1  0  0  0
 15 16  1  0  0  0
 15 28  1  0  0  0
 16 17  1  0  0  0
 16 40  1  0  0  0
 16 41  1  0  0  0
 17 18  2  0  0  0
 17 26  1  0  0  0
 18 19  1  0  0  0
 18 42  1  0  0  0
 19 20  2  0  0  0
 19 24  1  0  0  0
 20 21  1  0  0  0
 20 43  1  0  0  0
 21 22  2  0  0  0
 21 44  1  0  0  0
 22 23  1  0  0  0
 22 45  1  0  0  0
 23 24  2  0  0  0
 24 25  1  0  0  0
 25 26  2  0  0  0
 25 46  1  0  0  0
 26 27  1  0  0  0
 28 29  1  0  0  0
M  END
> <s_m_entry_id>
10158

> <s_m_entry_name>
dock_pv.227

> <s_m_Source_Path>
/home/csk/Desktop/cluster/DUD-E-result/met

> <s_m_Source_File>
dock_pv.maegz

> <i_m_Source_File_Index>
227

> <chembl_id>
CHEMBL3674490

> <chembl_pref_name>
None

> <i_lp_mmshare_version>
53161

> <i_f3d_flags>
0

> <r_lp_tautomer_probability>
1

> <s_lp_Force_Field>
OPLS_2005

> <r_lp_Energy>
14.528754

> <b_lp_Chiralities_Consistent>
1

> <s_lp_Variant>
CHEMBL3717_lig2505-1

> <s_i_glide_gridfile>
glide-grid_3lq8

> <i_i_glide_lignum>
2839

> <i_i_glide_rotatable_bonds>
5

> <r_i_docking_score>
-7.95192732092006

> <r_i_glide_ligand_efficiency>
-0.274204390376554

> <r_i_glide_ligand_efficiency_sa>
-0.842442761285232

> <r_i_glide_ligand_efficiency_ln>
-1.82078971301211

> <r_i_glide_gscore>
-7.95192732092006

> <r_i_glide_lipo>
-3.425807937534

> <r_i_glide_hbond>
0

> <r_i_glide_metal>
0

> <r_i_glide_rewards>
-2.29416739698834

> <r_i_glide_evdw>
-46.1896514892578

> <r_i_glide_ecoul>
-2.23014211654663

> <r_i_glide_erotb>
0.463680760898479

> <r_i_glide_esite>
-0.0516288553513181

> <r_i_glide_emodel>
-65.2947773892783

> <r_i_glide_energy>
-48.4197936058044

> <r_i_glide_einternal>
5.18347597122192

> <i_i_glide_confnum>
3

> <i_i_glide_posenum>
30

> <r_i_glide_eff_state_penalty>
0

> <s_user_duplicate_titles>
CHEMBL3717_lig2505

> <s_m_subgroup_title>
dock_pv

> <s_m_subgroupid>
dock_pv

> <b_m_subgroup_collapsed>
1

$$$$
CHEMBL3717_lig3854
                    3D
 Schrodinger Suite 2021-1.
 43 46  0  0  1  0            999 V2000
   -4.3579    1.8525   30.4899 N   0  0  0  0  0  0
   -1.1006    4.5676   30.7719 N   0  0  0  0  0  0
   -6.7022    2.3902   30.3552 N   0  0  0  0  0  0
   -0.2842    6.7642   30.2080 N   0  0  0  0  0  0
    1.2368    5.0960   30.6993 N   0  0  0  0  0  0
    5.5068    4.3571   28.7440 N   0  0  0  0  0  0
   -3.4385    3.9337   30.6080 C   0  0  0  0  0  0
   -4.8854    4.0532   30.5708 C   0  0  0  0  0  0
   -2.3839    5.0029   30.6079 C   0  0  0  0  0  0
   -5.4136    2.7281   30.4587 C   0  0  0  0  0  0
   -3.1922    2.5635   30.6080 C   0  0  0  0  0  0
   -0.1025    5.4709   30.5634 C   0  0  0  0  0  0
   -5.8351    5.0959   30.6077 C   0  0  0  0  0  0
   -2.6568    6.3404   30.2964 C   0  0  0  0  0  0
   -1.5651    7.1862   30.0971 C   0  0  0  0  0  0
   -7.1887    4.7712   30.4937 C   0  0  0  0  0  0
    1.6761    3.7035   30.7587 C   0  0  2  0  0  0
   -7.5673    3.4359   30.3679 C   0  0  0  0  0  0
    2.9919    3.6396   31.5595 C   0  0  0  0  0  0
    1.8855    3.1562   29.3249 C   0  0  0  0  0  0
    4.3799    3.7634   29.4267 C   0  0  1  0  0  0
    4.1429    4.3570   30.8201 C   0  0  0  0  0  0
    3.0864    3.7788   28.5817 C   0  0  0  0  0  0
   -4.3935    0.8443   30.4365 H   0  0  0  0  0  0
    1.9151    5.7741   30.3879 H   0  0  0  0  0  0
    6.2130    4.6234   29.4143 H   0  0  0  0  0  0
    5.9372    3.6214   28.1961 H   0  0  0  0  0  0
   -2.2514    2.0325   30.6346 H   0  0  0  0  0  0
   -5.5508    6.1306   30.7028 H   0  0  0  0  0  0
   -3.6539    6.7047   30.1303 H   0  0  0  0  0  0
   -1.6940    8.2210   29.8125 H   0  0  0  0  0  0
   -7.9371    5.5516   30.4867 H   0  0  0  0  0  0
    0.9144    3.1014   31.2572 H   0  0  0  0  0  0
   -8.6126    3.1787   30.2727 H   0  0  0  0  0  0
    2.8525    4.0824   32.5474 H   0  0  0  0  0  0
    3.2578    2.5964   31.7368 H   0  0  0  0  0  0
    2.0418    2.0797   29.3799 H   0  0  0  0  0  0
    0.9775    3.2852   28.7328 H   0  0  0  0  0  0
    4.6389    2.7244   29.6039 H   0  0  0  0  0  0
    5.0589    4.3501   31.4093 H   0  0  0  0  0  0
    3.8925    5.4074   30.7053 H   0  0  0  0  0  0
    3.2438    3.2524   27.6390 H   0  0  0  0  0  0
    2.8272    4.8035   28.3284 H   0  0  0  0  0  0
  1 10  1  0  0  0
  1 11  1  0  0  0
  1 24  1  0  0  0
  2  9  2  0  0  0
  2 12  1  0  0  0
  3 10  2  0  0  0
  3 18  1  0  0  0
  4 12  2  0  0  0
  4 15  1  0  0  0
  5 12  1  0  0  0
  5 17  1  0  0  0
  5 25  1  0  0  0
  6 21  1  0  0  0
  6 26  1  0  0  0
  6 27  1  0  0  0
  7  8  1  0  0  0
  7  9  1  0  0  0
  7 11  2  0  0  0
  8 10  1  0  0  0
  8 13  2  0  0  0
  9 14  1  0  0  0
 11 28  1  0  0  0
 13 16  1  0  0  0
 13 29  1  0  0  0
 14 15  2  0  0  0
 14 30  1  0  0  0
 15 31  1  0  0  0
 16 18  2  0  0  0
 16 32  1  0  0  0
 17 19  1  0  0  0
 17 20  1  0  0  0
 17 33  1  0  0  0
 18 34  1  0  0  0
 19 22  1  0  0  0
 19 35  1  0  0  0
 19 36  1  0  0  0
 20 23  1  0  0  0
 20 37  1  0  0  0
 20 38  1  0  0  0
 21 22  1  0  0  0
 21 23  1  0  0  0
 21 39  1  0  0  0
 22 40  1  0  0  0
 22 41  1  0  0  0
 23 42  1  0  0  0
 23 43  1  0  0  0
M  END
> <s_m_entry_id>
10159

> <s_m_entry_name>
dock_pv.228

> <s_m_Source_Path>
/home/csk/Desktop/cluster/DUD-E-result/met

> <s_m_Source_File>
dock_pv.maegz

> <i_m_Source_File_Index>
228

> <chembl_id>
CHEMBL1966628

> <chembl_pref_name>
None

> <i_lp_mmshare_version>
53161

> <i_f3d_flags>
0

> <r_lp_tautomer_probability>
0.999998420164496

> <s_lp_Force_Field>
OPLS_2005

> <r_lp_Energy>
7.06722

> <b_lp_Chiralities_Consistent>
1

> <s_lp_Variant>
CHEMBL3717_lig3854-2

> <s_i_glide_gridfile>
glide-grid_3lq8

> <i_i_glide_lignum>
4887

> <i_i_glide_rotatable_bonds>
3

> <r_i_docking_score>
-7.95047790810964

> <r_i_glide_ligand_efficiency>
-0.345672952526506

> <r_i_glide_ligand_efficiency_sa>
-0.983047894490482

> <r_i_glide_ligand_efficiency_ln>
-1.92249764912882

> <r_i_glide_gscore>
-7.95047790810964

> <r_i_glide_lipo>
-3.38555219803709

> <r_i_glide_hbond>
-0.313076510667218

> <r_i_glide_metal>
0

> <r_i_glide_rewards>
-2.24180454619656

> <r_i_glide_evdw>
-41.4456024169922

> <r_i_glide_ecoul>
-3.47593522071838

> <r_i_glide_erotb>
0.583625750748594

> <r_i_glide_esite>
0

> <r_i_glide_emodel>
-62.4625516856538

> <r_i_glide_energy>
-44.9215376377106

> <r_i_glide_einternal>
1.33827126026154

> <i_i_glide_confnum>
6

> <i_i_glide_posenum>
191

> <r_i_glide_eff_state_penalty>
0

> <s_user_duplicate_titles>
CHEMBL3717_lig3854

> <s_m_subgroup_title>
dock_pv

> <s_m_subgroupid>
dock_pv

> <b_m_subgroup_collapsed>
1

$$$$
CHEMBL3717_lig514
                    3D
 Schrodinger Suite 2021-1.
 46 50  0  0  1  0            999 V2000
   -4.7023    0.5042   30.4369 C   0  0  0  0  0  0
   -3.6767   -0.1958   31.0736 C   0  0  0  0  0  0
   -3.8255   -1.5649   31.2566 C   0  0  0  0  0  0
   -4.9168   -2.2580   30.8594 N   0  0  0  0  0  0
   -5.8714   -0.1824   29.9752 C   0  0  0  0  0  0
   -5.9212   -1.5910   30.2249 C   0  0  0  0  0  0
   -7.0433   -2.3412   29.8031 C   0  0  0  0  0  0
   -8.0980   -1.7267   29.1111 C   0  0  0  0  0  0
   -8.0434   -0.3583   28.8679 C   0  0  0  0  0  0
   -6.9656    0.4141   29.2892 C   0  0  0  0  0  0
   -9.2121   -2.3887   28.6330 O   0  0  0  0  0  0
   -9.3160   -3.7955   28.8267 C   0  0  0  0  0  0
    0.4739    5.3500   30.1949 C   0  0  0  0  0  0
    0.2879    6.7301   30.0470 C   0  0  0  0  0  0
   -0.9869    7.2831   30.1968 C   0  0  0  0  0  0
   -0.5163    4.4855   30.5192 N   0  0  0  0  0  0
   -1.7335    5.0473   30.6119 N   0  0  0  0  0  0
   -2.0494    6.4048   30.4644 C   0  0  0  0  0  0
   -3.3816    6.5761   30.6082 N   0  0  0  0  0  0
   -3.9182    5.3078   30.7692 N   0  0  0  0  0  0
   -2.9434    4.4138   30.7394 C   0  0  0  0  0  0
   -3.0696    2.9001   30.7995 C   0  0  0  0  0  0
   -4.6465    2.2624   30.1635 S   0  0  0  0  0  0
    1.7776    4.7129   29.9324 C   0  0  0  0  0  0
    2.7705    4.7220   30.9109 C   0  0  0  0  0  0
    4.0174    4.1687   30.6473 C   0  0  0  0  0  0
    4.2635    3.5878   29.4094 C   0  0  0  0  0  0
    3.2744    3.5550   28.4286 C   0  0  0  0  0  0
    2.0300    4.1189   28.6906 C   0  0  0  0  0  0
   -2.7806    0.2924   31.4193 H   0  0  0  0  0  0
   -3.0517   -2.1442   31.7417 H   0  0  0  0  0  0
   -7.0483   -3.4033   29.9985 H   0  0  0  0  0  0
   -8.8587    0.1140   28.3379 H   0  0  0  0  0  0
   -6.9697    1.4729   29.0775 H   0  0  0  0  0  0
  -10.2432   -4.1525   28.3816 H   0  0  0  0  0  0
   -8.4952   -4.3308   28.3465 H   0  0  0  0  0  0
   -9.3382   -4.0535   29.8856 H   0  0  0  0  0  0
    1.1204    7.3681   29.7919 H   0  0  0  0  0  0
   -1.1512    8.3498   30.0728 H   0  0  0  0  0  0
   -2.2872    2.4282   30.2071 H   0  0  0  0  0  0
   -2.8954    2.5388   31.8082 H   0  0  0  0  0  0
    2.5684    5.1564   31.8784 H   0  0  0  0  0  0
    4.7899    4.1947   31.4004 H   0  0  0  0  0  0
    5.2308    3.1574   29.2135 H   0  0  0  0  0  0
    3.4723    3.0932   27.4727 H   0  0  0  0  0  0
    1.2629    4.0972   27.9271 H   0  0  0  0  0  0
  1  5  1  0  0  0
  1 23  1  0  0  0
  1  2  2  0  0  0
  2  3  1  0  0  0
  2 30  1  0  0  0
  3  4  2  0  0  0
  3 31  1  0  0  0
  4  6  1  0  0  0
  5 10  1  0  0  0
  5  6  2  0  0  0
  6  7  1  0  0  0
  7  8  2  0  0  0
  7 32  1  0  0  0
  8  9  1  0  0  0
  8 11  1  0  0  0
  9 10  2  0  0  0
  9 33  1  0  0  0
 10 34  1  0  0  0
 11 12  1  0  0  0
 12 35  1  0  0  0
 12 36  1  0  0  0
 12 37  1  0  0  0
 13 16  2  0  0  0
 13 14  1  0  0  0
 13 24  1  0  0  0
 14 15  2  0  0  0
 14 38  1  0  0  0
 15 18  1  0  0  0
 15 39  1  0  0  0
 16 17  1  0  0  0
 17 18  1  0  0  0
 17 21  1  0  0  0
 18 19  2  0  0  0
 19 20  1  0  0  0
 20 21  2  0  0  0
 21 22  1  0  0  0
 22 23  1  0  0  0
 22 40  1  0  0  0
 22 41  1  0  0  0
 24 25  2  0  0  0
 24 29  1  0  0  0
 25 26  1  0  0  0
 25 42  1  0  0  0
 26 27  2  0  0  0
 26 43  1  0  0  0
 27 28  1  0  0  0
 27 44  1  0  0  0
 28 29  2  0  0  0
 28 45  1  0  0  0
 29 46  1  0  0  0
M  END
> <s_m_entry_id>
10160

> <s_m_entry_name>
dock_pv.229

> <s_m_Source_Path>
/home/csk/Desktop/cluster/DUD-E-result/met

> <s_m_Source_File>
dock_pv.maegz

> <i_m_Source_File_Index>
229

> <chembl_id>
CHEMBL567089

> <chembl_pref_name>
None

> <i_lp_mmshare_version>
53161

> <i_f3d_flags>
0

> <r_lp_tautomer_probability>
1

> <s_lp_Force_Field>
OPLS_2005

> <r_lp_Energy>
22.976987

> <b_lp_Chiralities_Consistent>
1

> <s_lp_Variant>
CHEMBL3717_lig514-1

> <s_i_glide_gridfile>
glide-grid_3lq8

> <i_i_glide_lignum>
545

> <i_i_glide_rotatable_bonds>
5

> <r_i_docking_score>
-7.94459515408874

> <r_i_glide_ligand_efficiency>
-0.273951557037543

> <r_i_glide_ligand_efficiency_sa>
-0.841665977164566

> <r_i_glide_ligand_efficiency_ln>
-1.81911083273545

> <r_i_glide_gscore>
-7.94459515408874

> <r_i_glide_lipo>
-3.39477453068734

> <r_i_glide_hbond>
0

> <r_i_glide_metal>
0

> <r_i_glide_rewards>
-2.54243574126723

> <r_i_glide_evdw>
-46.1412086486816

> <r_i_glide_ecoul>
-1.27664530277252

> <r_i_glide_erotb>
0.491172345715785

> <r_i_glide_esite>
0

> <r_i_glide_emodel>
-64.1156205852728

> <r_i_glide_energy>
-47.4178539514542

> <r_i_glide_einternal>
5.67385339736938

> <i_i_glide_confnum>
11

> <i_i_glide_posenum>
44

> <r_i_glide_eff_state_penalty>
0

> <s_user_duplicate_titles>
CHEMBL3717_lig514

> <s_m_subgroup_title>
dock_pv

> <s_m_subgroupid>
dock_pv

> <b_m_subgroup_collapsed>
1

$$$$
CHEMBL3717_lig2566
                    3D
 Schrodinger Suite 2021-1.
 45 49  0  0  1  0            999 V2000
   -5.8147    1.5089   30.7142 C   0  0  0  0  0  0
   -4.2776    1.5348   30.6454 C   0  0  0  0  0  0
   -3.5306    0.4847   30.6073 N   0  0  0  0  0  0
   -4.0707   -0.7594   30.7362 N   0  0  0  0  0  0
   -4.7588   -1.3513   29.7392 C   0  0  0  0  0  0
   -4.7829   -2.6424   30.0209 C   0  0  0  0  0  0
   -5.2941   -3.7394   29.4084 O   0  0  0  0  0  0
   -4.0779   -2.8420   31.1371 N   0  0  0  0  0  0
   -3.5967   -1.6802   31.6172 C   0  0  0  0  0  0
   -2.8703   -1.5300   32.6030 O   0  0  0  0  0  0
   -3.6652    2.8912   30.6078 C   0  0  0  0  0  0
   -4.3886    4.0712   30.3248 C   0  0  0  0  0  0
   -3.8272    5.3135   30.3367 N   0  0  0  0  0  0
   -2.5183    5.3446   30.6042 C   0  0  0  0  0  0
   -1.6652    6.4038   30.5937 N   0  0  0  0  0  0
   -0.3994    5.9143   30.8531 N   0  0  0  0  0  0
   -0.4805    4.5816   31.0426 N   0  0  0  0  0  0
    0.6908    3.8076   31.4374 C   0  0  0  0  0  0
    1.9433    3.9937   30.5880 C   0  0  0  0  0  0
    3.1664    4.2592   31.2066 C   0  0  0  0  0  0
    4.3499    4.3569   30.4362 C   0  0  0  0  0  0
    5.6304    4.5598   31.0080 C   0  0  0  0  0  0
    6.7596    4.4948   30.2037 C   0  0  0  0  0  0
    6.5858    4.3587   28.8315 C   0  0  0  0  0  0
    5.3728    4.3569   28.2270 N   0  0  0  0  0  0
    4.2710    4.2366   29.0177 C   0  0  0  0  0  0
    3.0228    3.9578   28.4188 C   0  0  0  0  0  0
    1.8831    3.8357   29.2027 C   0  0  0  0  0  0
    0.7067    3.5563   28.6081 F   0  0  0  0  0  0
   -1.7908    4.1685   30.8781 C   0  0  0  0  0  0
   -2.3276    2.9467   30.9139 N   0  0  0  0  0  0
   -6.2020    2.2668   31.3939 H   0  0  0  0  0  0
   -6.2420    1.6853   29.7276 H   0  0  0  0  0  0
   -6.2175    0.5567   31.0580 H   0  0  0  0  0  0
   -5.1535   -0.7796   28.9118 H   0  0  0  0  0  0
   -4.9146   -4.5287   29.8169 H   0  0  0  0  0  0
   -3.7512   -3.7636   31.4096 H   0  0  0  0  0  0
   -5.4419    4.0578   30.0890 H   0  0  0  0  0  0
    0.9009    4.0477   32.4798 H   0  0  0  0  0  0
    0.4179    2.7552   31.4079 H   0  0  0  0  0  0
    3.2310    4.3574   32.2806 H   0  0  0  0  0  0
    5.7278    4.7546   32.0660 H   0  0  0  0  0  0
    7.7504    4.6000   30.6206 H   0  0  0  0  0  0
    7.4430    4.3513   28.1745 H   0  0  0  0  0  0
    2.9535    3.8341   27.3501 H   0  0  0  0  0  0
  1  2  1  0  0  0
  1 32  1  0  0  0
  1 33  1  0  0  0
  1 34  1  0  0  0
  2  3  2  0  0  0
  2 11  1  0  0  0
  3  4  1  0  0  0
  4  5  1  0  0  0
  4  9  1  0  0  0
  5  6  2  0  0  0
  5 35  1  0  0  0
  6  7  1  0  0  0
  6  8  1  0  0  0
  7 36  1  0  0  0
  8  9  1  0  0  0
  8 37  1  0  0  0
  9 10  2  0  0  0
 11 12  2  0  0  0
 11 31  1  0  0  0
 12 13  1  0  0  0
 12 38  1  0  0  0
 13 14  2  0  0  0
 14 15  1  0  0  0
 14 30  1  0  0  0
 15 16  2  0  0  0
 16 17  1  0  0  0
 17 18  1  0  0  0
 17 30  1  0  0  0
 18 19  1  0  0  0
 18 39  1  0  0  0
 18 40  1  0  0  0
 19 20  2  0  0  0
 19 28  1  0  0  0
 20 21  1  0  0  0
 20 41  1  0  0  0
 21 22  2  0  0  0
 21 26  1  0  0  0
 22 23  1  0  0  0
 22 42  1  0  0  0
 23 24  2  0  0  0
 23 43  1  0  0  0
 24 25  1  0  0  0
 24 44  1  0  0  0
 25 26  2  0  0  0
 26 27  1  0  0  0
 27 28  2  0  0  0
 27 45  1  0  0  0
 28 29  1  0  0  0
 30 31  2  0  0  0
M  END
> <s_m_entry_id>
10161

> <s_m_entry_name>
dock_pv.230

> <s_m_Source_Path>
/home/csk/Desktop/cluster/DUD-E-result/met

> <s_m_Source_File>
dock_pv.maegz

> <i_m_Source_File_Index>
230

> <chembl_id>
CHEMBL3923620

> <chembl_pref_name>
None

> <i_lp_mmshare_version>
53161

> <i_f3d_flags>
0

> <r_lp_tautomer_probability>
1

> <s_lp_Force_Field>
OPLS_2005

> <r_lp_Energy>
71.899655

> <b_lp_Chiralities_Consistent>
1

> <s_lp_Variant>
CHEMBL3717_lig2566-1

> <s_i_glide_gridfile>
glide-grid_3lq8

> <i_i_glide_lignum>
2914

> <i_i_glide_rotatable_bonds>
5

> <r_i_docking_score>
-7.93029005725566

> <r_i_glide_ligand_efficiency>
-0.25581580829857

> <r_i_glide_ligand_efficiency_sa>
-0.803614829845125

> <r_i_glide_ligand_efficiency_ln>
-1.7885234421141

> <r_i_glide_gscore>
-7.93029005725566

> <r_i_glide_lipo>
-2.46226803635255

> <r_i_glide_hbond>
-0.291088405470274

> <r_i_glide_metal>
0

> <r_i_glide_rewards>
-2.55096138414756

> <r_i_glide_evdw>
-41.6661148071289

> <r_i_glide_ecoul>
-6.04131650924683

> <r_i_glide_erotb>
0.449933346310682

> <r_i_glide_esite>
-0.0864023608524859

> <r_i_glide_emodel>
-63.0802730471504

> <r_i_glide_energy>
-47.7074313163757

> <r_i_glide_einternal>
8.82115173339844

> <i_i_glide_confnum>
12

> <i_i_glide_posenum>
61

> <r_i_glide_eff_state_penalty>
0

> <s_user_duplicate_titles>
CHEMBL3717_lig2566

> <s_m_subgroup_title>
dock_pv

> <s_m_subgroupid>
dock_pv

> <b_m_subgroup_collapsed>
1

$$$$
CHEMBL3717_lig1873
                    3D
 Schrodinger Suite 2021-1.
 40 44  0  0  1  0            999 V2000
   -4.6536    4.2532   30.5075 C   0  0  0  0  0  0
   -5.8422    4.9208   30.8430 C   0  0  0  0  0  0
   -7.0586    4.3022   30.8437 N   0  0  0  0  0  0
   -4.6395    2.9543   30.1039 N   0  0  0  0  0  0
   -5.8384    2.3735   30.1049 C   0  0  0  0  0  0
   -7.0410    3.0134   30.4798 C   0  0  0  0  0  0
   -8.0690    2.1255   30.3708 N   0  0  0  0  0  0
   -7.5354    0.9446   29.8844 N   0  0  0  0  0  0
   -6.2063    1.1083   29.7017 N   0  0  0  0  0  0
   -3.3132    4.8813   30.6080 C   0  0  0  0  0  0
   -2.0823    4.2647   30.8051 C   0  0  0  0  0  0
   -1.1504    5.2659   30.8314 N   0  0  0  0  0  0
   -1.6981    6.4657   30.6080 N   0  0  0  0  0  0
   -2.9894    6.2403   30.5522 C   0  0  0  0  0  0
   -5.4052    0.0879   29.0453 C   0  0  0  0  0  0
   -4.7163   -0.8920   29.9773 C   0  0  0  0  0  0
    0.2948    5.1427   30.9856 C   0  0  0  0  0  0
   -4.9428   -2.1716   29.8080 N   0  0  0  0  0  0
   -4.1288   -2.8430   30.6333 N   0  0  0  0  0  0
   -3.7243   -0.7001   31.0041 C   0  0  0  0  0  0
   -3.3462   -2.0058   31.3818 C   0  0  0  0  0  0
   -2.4053   -2.3456   32.2695 N   0  0  0  0  0  0
   -1.7800   -1.2934   32.8583 C   0  0  0  0  0  0
   -2.0940    0.0438   32.6080 C   0  0  0  0  0  0
   -3.0635    0.3570   31.6489 C   0  0  0  0  0  0
    1.0115    5.0343   29.6299 C   0  0  0  0  0  0
    0.7060    3.8969   29.0080 F   0  0  0  0  0  0
    2.3311    5.0462   29.8080 F   0  0  0  0  0  0
    0.7060    6.0449   28.8162 F   0  0  0  0  0  0
   -5.8339    5.9570   31.1345 H   0  0  0  0  0  0
   -1.7944    3.2305   30.9217 H   0  0  0  0  0  0
   -3.7005    7.0422   30.4297 H   0  0  0  0  0  0
   -6.0556   -0.4247   28.3312 H   0  0  0  0  0  0
   -4.6622    0.5971   28.4309 H   0  0  0  0  0  0
    0.5084    4.2708   31.6043 H   0  0  0  0  0  0
    0.6583    6.0132   31.5330 H   0  0  0  0  0  0
   -4.0940   -3.8623   30.6189 H   0  0  0  0  0  0
   -1.0105   -1.5472   33.5738 H   0  0  0  0  0  0
   -1.5717    0.8302   33.1292 H   0  0  0  0  0  0
   -3.2847    1.3800   31.4080 H   0  0  0  0  0  0
  1  2  1  0  0  0
  1  4  2  0  0  0
  1 10  1  0  0  0
  2  3  2  0  0  0
  2 30  1  0  0  0
  3  6  1  0  0  0
  4  5  1  0  0  0
  5  6  2  0  0  0
  5  9  1  0  0  0
  6  7  1  0  0  0
  7  8  2  0  0  0
  8  9  1  0  0  0
  9 15  1  0  0  0
 10 11  2  0  0  0
 10 14  1  0  0  0
 11 12  1  0  0  0
 11 31  1  0  0  0
 12 13  1  0  0  0
 12 17  1  0  0  0
 13 14  2  0  0  0
 14 32  1  0  0  0
 15 16  1  0  0  0
 15 33  1  0  0  0
 15 34  1  0  0  0
 16 18  2  0  0  0
 16 20  1  0  0  0
 17 26  1  0  0  0
 17 35  1  0  0  0
 17 36  1  0  0  0
 18 19  1  0  0  0
 19 21  1  0  0  0
 19 37  1  0  0  0
 20 21  2  0  0  0
 20 25  1  0  0  0
 21 22  1  0  0  0
 22 23  2  0  0  0
 23 24  1  0  0  0
 23 38  1  0  0  0
 24 25  2  0  0  0
 24 39  1  0  0  0
 25 40  1  0  0  0
 26 27  1  0  0  0
 26 28  1  0  0  0
 26 29  1  0  0  0
M  END
> <s_m_entry_id>
10162

> <s_m_entry_name>
dock_pv.231

> <s_m_Source_Path>
/home/csk/Desktop/cluster/DUD-E-result/met

> <s_m_Source_File>
dock_pv.maegz

> <i_m_Source_File_Index>
231

> <chembl_id>
CHEMBL3334552

> <chembl_pref_name>
None

> <i_lp_mmshare_version>
53161

> <i_f3d_flags>
0

> <r_lp_tautomer_probability>
0.960980075423508

> <s_lp_Force_Field>
OPLS_2005

> <r_lp_Energy>
22.115758

> <b_lp_Chiralities_Consistent>
1

> <s_lp_Variant>
CHEMBL3717_lig1873-1

> <s_i_glide_gridfile>
glide-grid_3lq8

> <i_i_glide_lignum>
2162

> <i_i_glide_rotatable_bonds>
5

> <r_i_docking_score>
-7.92904932370398

> <r_i_glide_ligand_efficiency>
-0.273415493920827

> <r_i_glide_ligand_efficiency_sa>
-0.840019021433299

> <r_i_glide_ligand_efficiency_ln>
-1.81555123178558

> <r_i_glide_gscore>
-7.92904932370398

> <r_i_glide_lipo>
-2.70114651057316

> <r_i_glide_hbond>
-0.16

> <r_i_glide_metal>
0

> <r_i_glide_rewards>
-3.08018999721332

> <r_i_glide_evdw>
-40.3979988098145

> <r_i_glide_ecoul>
-2.40988087654114

> <r_i_glide_erotb>
0.489293516480079

> <r_i_glide_esite>
-0.0956242604256928

> <r_i_glide_emodel>
-61.461543185129

> <r_i_glide_energy>
-42.8078796863556

> <r_i_glide_einternal>
2.77194118499756

> <i_i_glide_confnum>
1

> <i_i_glide_posenum>
54

> <r_i_glide_eff_state_penalty>
0

> <s_user_duplicate_titles>
CHEMBL3717_lig1873,CHEMBL3717_lig1873

> <s_m_subgroup_title>
dock_pv

> <s_m_subgroupid>
dock_pv

> <b_m_subgroup_collapsed>
1

$$$$
CHEMBL3717_lig439
                    3D
 Schrodinger Suite 2021-1.
 28 31  0  0  1  0            999 V2000
    5.5649    4.4403   30.6425 C   0  0  0  0  0  0
    5.9214    4.4604   29.2975 C   0  0  0  0  0  0
    5.0341    4.3570   28.2774 N   0  0  0  0  0  0
    4.2187    4.3570   31.0080 C   0  0  0  0  0  0
    3.2966    4.3057   29.9583 C   0  0  0  0  0  0
    3.7447    4.2252   28.6112 C   0  0  0  0  0  0
    2.5954    3.9570   27.8080 C   0  0  0  0  0  0
    1.5060    4.0307   28.6375 C   0  0  0  0  0  0
    1.9128    4.3338   29.9126 N   0  0  0  0  0  0
    0.8415    4.3744   31.2291 S   0  0  0  0  0  0
    0.4639    2.9799   31.4080 O   0  0  0  0  0  0
    1.4785    5.1570   32.2903 O   0  0  0  0  0  0
   -0.6308    5.2615   30.6955 C   0  0  0  0  0  0
   -2.0940    6.8301   30.0597 N   0  0  0  0  0  0
   -0.8185    6.5467   30.2080 C   0  0  0  0  0  0
   -2.7273    5.7036   30.2905 C   0  0  0  0  0  0
   -1.8824    4.6765   30.6668 N   0  0  0  0  0  0
   -2.5059    3.4563   30.8752 C   0  0  0  0  0  0
   -3.8603    3.5285   30.6080 C   0  0  0  0  0  0
   -4.3911    5.1570   30.2087 S   0  0  0  0  0  0
    0.3837    7.6919   29.8080 Cl  0  0  0  0  0  0
    6.3287    4.5262   31.4009 H   0  0  0  0  0  0
    6.9594    4.5467   29.0080 H   0  0  0  0  0  0
    3.9060    4.3844   32.0411 H   0  0  0  0  0  0
    2.5429    3.7533   26.7532 H   0  0  0  0  0  0
    0.4550    3.8884   28.4277 H   0  0  0  0  0  0
   -1.9379    2.5867   31.1719 H   0  0  0  0  0  0
   -4.5877    2.7290   30.6681 H   0  0  0  0  0  0
  1  2  2  0  0  0
  1  4  1  0  0  0
  1 22  1  0  0  0
  2  3  1  0  0  0
  2 23  1  0  0  0
  3  6  2  0  0  0
  4  5  2  0  0  0
  4 24  1  0  0  0
  5  6  1  0  0  0
  5  9  1  0  0  0
  6  7  1  0  0  0
  7  8  2  0  0  0
  7 25  1  0  0  0
  8  9  1  0  0  0
  8 26  1  0  0  0
  9 10  1  0  0  0
 10 11  2  0  0  0
 10 12  2  0  0  0
 10 13  1  0  0  0
 13 17  1  0  0  0
 13 15  2  0  0  0
 14 16  2  0  0  0
 14 15  1  0  0  0
 15 21  1  0  0  0
 16 17  1  0  0  0
 16 20  1  0  0  0
 17 18  1  0  0  0
 18 19  2  0  0  0
 18 27  1  0  0  0
 19 20  1  0  0  0
 19 28  1  0  0  0
M  END
> <s_m_entry_id>
10163

> <s_m_entry_name>
dock_pv.232

> <s_m_Source_Path>
/home/csk/Desktop/cluster/DUD-E-result/met

> <s_m_Source_File>
dock_pv.maegz

> <i_m_Source_File_Index>
232

> <chembl_id>
CHEMBL559926

> <chembl_pref_name>
None

> <i_lp_mmshare_version>
53161

> <i_f3d_flags>
0

> <r_lp_tautomer_probability>
1

> <s_lp_Force_Field>
OPLS_2005

> <r_lp_Energy>
1.966641

> <b_lp_Chiralities_Consistent>
1

> <s_lp_Variant>
CHEMBL3717_lig439-1

> <s_i_glide_gridfile>
glide-grid_3lq8

> <i_i_glide_lignum>
463

> <i_i_glide_rotatable_bonds>
2

> <r_i_docking_score>
-7.92849837913467

> <r_i_glide_ligand_efficiency>
-0.377547541863555

> <r_i_glide_ligand_efficiency_sa>
-1.04162503992354

> <r_i_glide_ligand_efficiency_ln>
-1.96030520320156

> <r_i_glide_gscore>
-7.92849837913467

> <r_i_glide_lipo>
-2.9573267123287

> <r_i_glide_hbond>
0

> <r_i_glide_metal>
0

> <r_i_glide_rewards>
-3.42423439661924

> <r_i_glide_evdw>
-34.1240005493164

> <r_i_glide_ecoul>
-1.13564157485962

> <r_i_glide_erotb>
0.329608993508033

> <r_i_glide_esite>
0

> <r_i_glide_emodel>
-47.1423983708872

> <r_i_glide_energy>
-35.259642124176

> <r_i_glide_einternal>
1.56153213977814

> <i_i_glide_confnum>
6

> <i_i_glide_posenum>
248

> <r_i_glide_eff_state_penalty>
0

> <s_user_duplicate_titles>
CHEMBL3717_lig439,556867

> <s_m_subgroup_title>
dock_pv

> <s_m_subgroupid>
dock_pv

> <b_m_subgroup_collapsed>
1

$$$$
CHEMBL3717_lig940
                    3D
 Schrodinger Suite 2021-1.
 35 37  0  0  1  0            999 V2000
   -7.6967    4.6412   30.4119 C   0  0  0  0  0  0
   -7.8939    3.2612   30.3016 C   0  0  0  0  0  0
   -6.8003    2.3915   30.3185 C   0  0  0  0  0  0
   -5.5183    2.9276   30.4374 C   0  0  0  0  0  0
   -5.3095    4.2888   30.5438 C   0  0  0  0  0  0
   -6.4046    5.1570   30.5427 C   0  0  0  0  0  0
   -3.8768    4.5035   30.6080 C   0  0  0  0  0  0
   -3.2855    3.1448   30.6080 C   0  0  0  0  0  0
   -4.3050    2.2850   30.4755 N   0  0  0  0  0  0
   -2.0940    2.8514   30.7015 O   0  0  0  0  0  0
   -3.2774    5.6389   30.6617 N   0  0  0  0  0  0
   -1.9217    5.6552   30.6080 N   0  0  0  0  0  0
   -1.2559    6.7570   30.2080 C   0  0  0  0  0  0
    0.1790    6.6267   29.6772 C   0  0  0  0  0  0
    0.9667    5.4075   30.1435 C   0  0  0  0  0  0
    1.5798    4.5764   29.2019 C   0  0  0  0  0  0
    2.3895    3.5211   29.6160 C   0  0  0  0  0  0
    2.5771    3.2786   30.9812 C   0  0  0  0  0  0
    1.9558    4.0949   31.9238 C   0  0  0  0  0  0
    1.1572    5.1570   31.5061 C   0  0  0  0  0  0
    3.3790    2.2552   31.4080 O   0  0  0  0  0  0
    3.0052    2.7570   28.6855 F   0  0  0  0  0  0
   -1.7525    7.8802   30.2080 O   0  0  0  0  0  0
   -8.5431    5.3130   30.3832 H   0  0  0  0  0  0
   -8.8945    2.8669   30.1996 H   0  0  0  0  0  0
   -6.9594    1.3262   30.2353 H   0  0  0  0  0  0
   -6.2651    6.2272   30.6080 H   0  0  0  0  0  0
   -4.1812    1.2841   30.4443 H   0  0  0  0  0  0
   -1.4848    4.7408   30.6004 H   0  0  0  0  0  0
    0.7294    7.5148   29.9900 H   0  0  0  0  0  0
    0.1357    6.6673   28.5882 H   0  0  0  0  0  0
    1.4580    4.7580   28.1444 H   0  0  0  0  0  0
    2.1051    3.9173   32.9788 H   0  0  0  0  0  0
    0.7060    5.8018   32.2435 H   0  0  0  0  0  0
    3.7257    1.7507   30.6686 H   0  0  0  0  0  0
  1  2  1  0  0  0
  1  6  2  0  0  0
  1 24  1  0  0  0
  2  3  2  0  0  0
  2 25  1  0  0  0
  3  4  1  0  0  0
  3 26  1  0  0  0
  4  5  2  0  0  0
  4  9  1  0  0  0
  5  6  1  0  0  0
  5  7  1  0  0  0
  6 27  1  0  0  0
  7  8  1  0  0  0
  7 11  2  0  0  0
  8  9  1  0  0  0
  8 10  2  0  0  0
  9 28  1  0  0  0
 11 12  1  0  0  0
 12 13  1  0  0  0
 12 29  1  0  0  0
 13 14  1  0  0  0
 13 23  2  0  0  0
 14 15  1  0  0  0
 14 30  1  0  0  0
 14 31  1  0  0  0
 15 16  1  0  0  0
 15 20  2  0  0  0
 16 17  2  0  0  0
 16 32  1  0  0  0
 17 18  1  0  0  0
 17 22  1  0  0  0
 18 19  2  0  0  0
 18 21  1  0  0  0
 19 20  1  0  0  0
 19 33  1  0  0  0
 20 34  1  0  0  0
 21 35  1  0  0  0
M  END
> <s_m_entry_id>
10164

> <s_m_entry_name>
dock_pv.233

> <s_m_Source_Path>
/home/csk/Desktop/cluster/DUD-E-result/met

> <s_m_Source_File>
dock_pv.maegz

> <i_m_Source_File_Index>
233

> <chembl_id>
CHEMBL1822590

> <chembl_pref_name>
None

> <i_lp_mmshare_version>
53161

> <i_f3d_flags>
0

> <r_lp_tautomer_probability>
0.999999999997365

> <s_lp_Force_Field>
OPLS_2005

> <r_lp_Energy>
38.688636

> <b_lp_Chiralities_Consistent>
1

> <s_lp_Variant>
CHEMBL3717_lig940-1

> <s_i_glide_gridfile>
glide-grid_3lq8

> <i_i_glide_lignum>
1027

> <i_i_glide_rotatable_bonds>
5

> <r_i_docking_score>
-7.92757028244237

> <r_i_glide_ligand_efficiency>
-0.344676968801842

> <r_i_glide_ligand_efficiency_sa>
-0.980215449266401

> <r_i_glide_ligand_efficiency_ln>
-1.91695837752761

> <r_i_glide_gscore>
-7.92757028244237

> <r_i_glide_lipo>
-3.1689215053903

> <r_i_glide_hbond>
-0.0925867963083008

> <r_i_glide_metal>
0

> <r_i_glide_rewards>
-3.04259450684784

> <r_i_glide_evdw>
-40.7395706176758

> <r_i_glide_ecoul>
-2.28929162025452

> <r_i_glide_erotb>
0.756904800026036

> <r_i_glide_esite>
0

> <r_i_glide_emodel>
-57.7131171577144

> <r_i_glide_energy>
-43.0288622379303

> <r_i_glide_einternal>
5.03886651992798

> <i_i_glide_confnum>
13

> <i_i_glide_posenum>
246

> <r_i_glide_eff_state_penalty>
0

> <s_user_duplicate_titles>
CHEMBL3717_lig940

> <s_m_subgroup_title>
dock_pv

> <s_m_subgroupid>
dock_pv

> <b_m_subgroup_collapsed>
1

$$$$
CHEMBL3717_lig2309
                    3D
 Schrodinger Suite 2021-1.
 49 53  0  0  1  0            999 V2000
   -3.5381    7.1061   30.5999 N   0  0  0  0  0  0
   -4.7043    6.4119   30.6130 C   0  0  0  0  0  0
   -4.8967    5.0839   30.5982 N   0  0  0  0  0  0
   -2.4054    6.3771   30.5064 C   0  0  0  0  0  0
   -2.4393    4.9785   30.6093 C   0  0  0  0  0  0
   -3.7496    4.4123   30.6080 C   0  0  0  0  0  0
   -3.6332    3.0477   30.6051 N   0  0  0  0  0  0
   -2.2905    2.7571   30.6476 C   0  0  0  0  0  0
   -1.4941    3.9028   30.6447 C   0  0  0  0  0  0
   -0.0086    4.0340   30.5409 C   0  0  0  0  0  0
    0.6373    3.5577   29.3982 C   0  0  0  0  0  0
    2.0219    3.6346   29.2601 C   0  0  0  0  0  0
    2.7830    4.2047   30.2752 C   0  0  0  0  0  0
    2.1495    4.7139   31.4068 C   0  0  0  0  0  0
    0.7608    4.6598   31.5269 C   0  0  0  0  0  0
   -1.2322    7.0659   30.2087 N   0  0  0  0  0  0
   -4.7267    2.0841   30.4489 C   0  0  2  0  0  0
   -4.8348    0.9024   31.4158 C   0  0  0  0  0  0
   -5.3313    0.0643   30.2349 C   0  0  1  0  0  0
   -4.6559    1.0713   29.2899 C   0  0  0  0  0  0
   -4.8756   -1.4066   30.2329 C   0  0  0  0  0  0
   -3.4161   -1.5266   30.3335 N   0  0  0  0  0  0
   -2.9087   -2.8423   30.7025 C   0  0  0  0  0  0
   -2.6597   -3.1821   29.2362 C   0  0  0  0  0  0
   -2.7045   -1.6797   29.0633 C   0  0  0  0  0  0
    2.6331    3.1470   28.1369 O   0  0  0  0  0  0
   -5.6052    7.0075   30.6080 H   0  0  0  0  0  0
   -2.0455    1.7111   30.6216 H   0  0  0  0  0  0
    0.0513    3.1163   28.6076 H   0  0  0  0  0  0
    3.8577    4.2592   30.1815 H   0  0  0  0  0  0
    2.7392    5.1541   32.1915 H   0  0  0  0  0  0
    0.3056    5.1118   32.3940 H   0  0  0  0  0  0
   -0.3717    6.5447   30.1189 H   0  0  0  0  0  0
   -1.2566    8.0707   30.1009 H   0  0  0  0  0  0
   -5.6576    2.6565   30.4237 H   0  0  0  0  0  0
   -5.5379    1.0342   32.2377 H   0  0  0  0  0  0
   -3.8546    0.6126   31.7952 H   0  0  0  0  0  0
   -6.4202    0.0836   30.1484 H   0  0  0  0  0  0
   -3.6238    0.8421   29.0323 H   0  0  0  0  0  0
   -5.2081    1.3563   28.3952 H   0  0  0  0  0  0
   -5.2625   -1.9378   29.3615 H   0  0  0  0  0  0
   -5.3227   -1.8889   31.1039 H   0  0  0  0  0  0
   -3.6371   -3.4338   31.2552 H   0  0  0  0  0  0
   -1.9852   -2.7878   31.2826 H   0  0  0  0  0  0
   -1.6947   -3.6399   29.0066 H   0  0  0  0  0  0
   -3.4658   -3.7248   28.7397 H   0  0  0  0  0  0
   -1.7113   -1.2429   29.0912 H   0  0  0  0  0  0
   -3.2481   -1.2956   28.2087 H   0  0  0  0  0  0
    2.0225    2.6980   27.5475 H   0  0  0  0  0  0
  1  2  2  0  0  0
  1  4  1  0  0  0
  2  3  1  0  0  0
  2 27  1  0  0  0
  3  6  2  0  0  0
  4  5  2  0  0  0
  4 16  1  0  0  0
  5  6  1  0  0  0
  5  9  1  0  0  0
  6  7  1  0  0  0
  7  8  1  0  0  0
  7 17  1  0  0  0
  8  9  2  0  0  0
  8 28  1  0  0  0
  9 10  1  0  0  0
 10 11  2  0  0  0
 10 15  1  0  0  0
 11 12  1  0  0  0
 11 29  1  0  0  0
 12 13  2  0  0  0
 12 26  1  0  0  0
 13 14  1  0  0  0
 13 30  1  0  0  0
 14 15  2  0  0  0
 14 31  1  0  0  0
 15 32  1  0  0  0
 16 33  1  0  0  0
 16 34  1  0  0  0
 17 18  1  0  0  0
 17 20  1  0  0  0
 17 35  1  0  0  0
 18 19  1  0  0  0
 18 36  1  0  0  0
 18 37  1  0  0  0
 19 20  1  0  0  0
 19 21  1  0  0  0
 19 38  1  0  0  0
 20 39  1  0  0  0
 20 40  1  0  0  0
 21 22  1  0  0  0
 21 41  1  0  0  0
 21 42  1  0  0  0
 22 23  1  0  0  0
 22 25  1  0  0  0
 23 24  1  0  0  0
 23 43  1  0  0  0
 23 44  1  0  0  0
 24 25  1  0  0  0
 24 45  1  0  0  0
 24 46  1  0  0  0
 25 47  1  0  0  0
 25 48  1  0  0  0
 26 49  1  0  0  0
M  END
> <s_m_entry_id>
10165

> <s_m_entry_name>
dock_pv.234

> <s_m_Source_Path>
/home/csk/Desktop/cluster/DUD-E-result/met

> <s_m_Source_File>
dock_pv.maegz

> <i_m_Source_File_Index>
234

> <chembl_id>
CHEMBL3787112

> <chembl_pref_name>
None

> <i_lp_mmshare_version>
53161

> <i_f3d_flags>
0

> <r_lp_tautomer_probability>
0.999999999997365

> <s_lp_Force_Field>
OPLS_2005

> <r_lp_Energy>
36.920625

> <b_lp_Chiralities_Consistent>
1

> <s_lp_Variant>
CHEMBL3717_lig2309-1

> <s_i_glide_gridfile>
glide-grid_3lq8

> <i_i_glide_lignum>
2627

> <i_i_glide_rotatable_bonds>
5

> <r_i_docking_score>
-7.92263060516426

> <r_i_glide_ligand_efficiency>
-0.304716561737087

> <r_i_glide_ligand_efficiency_sa>
-0.902721615144347

> <r_i_glide_ligand_efficiency_ln>
-1.86060380135146

> <r_i_glide_gscore>
-7.92263060516426

> <r_i_glide_lipo>
-3.03050335366436

> <r_i_glide_hbond>
-0.32

> <r_i_glide_metal>
0

> <r_i_glide_rewards>
-2.77455891411438

> <r_i_glide_evdw>
-31.6021728515625

> <r_i_glide_ecoul>
-5.60992574691772

> <r_i_glide_erotb>
0.624029167230274

> <r_i_glide_esite>
0

> <r_i_glide_emodel>
-53.3163383378865

> <r_i_glide_energy>
-37.2120985984802

> <r_i_glide_einternal>
3.79996728897095

> <i_i_glide_confnum>
111

> <i_i_glide_posenum>
7

> <r_i_glide_eff_state_penalty>
0

> <s_user_duplicate_titles>
CHEMBL3717_lig2309

> <s_m_subgroup_title>
dock_pv

> <s_m_subgroupid>
dock_pv

> <b_m_subgroup_collapsed>
1

$$$$
CHEMBL3717_lig2543
                    3D
 Schrodinger Suite 2021-1.
 56 60  0  0  1  0            999 V2000
   -6.7201    3.1785   30.5510 C   0  0  0  0  0  0
   -5.2542    2.8463   30.2076 C   0  0  0  0  0  0
   -4.8422    1.7128   29.7691 N   0  0  0  0  0  0
   -5.7134    0.6798   29.7872 N   0  0  0  0  0  0
   -5.3382   -0.6122   29.8913 C   0  0  0  0  0  0
   -6.1967   -1.4834   30.0216 O   0  0  0  0  0  0
   -3.8442   -1.0253   29.8722 C   0  0  0  0  0  0
   -3.2549   -0.9987   31.2313 N   0  0  0  0  0  0
   -2.0904   -1.8902   31.3255 C   0  0  0  0  0  0
   -1.4219   -1.8132   32.7161 C   0  0  0  0  0  0
   -1.0171   -0.4783   33.0081 O   0  0  0  0  0  0
   -2.0940    0.4530   32.9745 C   0  0  0  0  0  0
   -2.9206    0.3655   31.6754 C   0  0  0  0  0  0
   -4.3007    3.9745   30.3536 C   0  0  0  0  0  0
   -4.7013    5.3116   30.2080 C   0  0  0  0  0  0
   -3.8311    6.3566   30.2090 N   0  0  0  0  0  0
   -2.5471    6.0298   30.3563 C   0  0  0  0  0  0
   -1.4483    6.8216   30.2257 N   0  0  0  0  0  0
   -0.3557    6.0343   30.5321 N   0  0  0  0  0  0
   -0.7693    4.7641   30.7494 N   0  0  0  0  0  0
    0.1882    3.7115   31.0819 C   0  0  0  0  0  0
    1.5269    3.8055   30.3527 C   0  0  0  0  0  0
    1.5673    3.6115   28.9722 C   0  0  0  0  0  0
    2.7509    3.7764   28.2609 C   0  0  0  0  0  0
    3.9409    4.1361   28.9354 C   0  0  0  0  0  0
    5.0714    4.3566   28.2081 N   0  0  0  0  0  0
    6.2203    4.6326   28.8633 C   0  0  0  0  0  0
    6.3062    4.7564   30.2434 C   0  0  0  0  0  0
    5.1504    4.5886   30.9957 C   0  0  0  0  0  0
    3.9240    4.2733   30.3550 C   0  0  0  0  0  0
    2.6989    4.1133   31.0514 C   0  0  0  0  0  0
   -2.1477    4.6980   30.6081 C   0  0  0  0  0  0
   -2.9873    3.6531   30.6081 N   0  0  0  0  0  0
   -7.2150    3.6328   29.6912 H   0  0  0  0  0  0
   -7.3185    2.3092   30.8258 H   0  0  0  0  0  0
   -6.7892    3.8872   31.3782 H   0  0  0  0  0  0
   -6.6849    0.9281   29.8934 H   0  0  0  0  0  0
   -3.2915   -0.4001   29.1697 H   0  0  0  0  0  0
   -3.8026   -2.0333   29.4530 H   0  0  0  0  0  0
   -1.3622   -1.6429   30.5519 H   0  0  0  0  0  0
   -2.4069   -2.9137   31.1185 H   0  0  0  0  0  0
   -2.0937   -2.1867   33.4889 H   0  0  0  0  0  0
   -0.5404   -2.4548   32.7375 H   0  0  0  0  0  0
   -2.7369    0.3572   33.8443 H   0  0  0  0  0  0
   -1.6742    1.4556   33.0422 H   0  0  0  0  0  0
   -3.8459    0.9132   31.8161 H   0  0  0  0  0  0
   -2.3931    0.8907   30.8814 H   0  0  0  0  0  0
   -5.7292    5.5773   30.0118 H   0  0  0  0  0  0
    0.3428    3.7388   32.1591 H   0  0  0  0  0  0
   -0.2809    2.7570   30.8578 H   0  0  0  0  0  0
    0.6627    3.3597   28.4390 H   0  0  0  0  0  0
    2.7576    3.6483   27.1883 H   0  0  0  0  0  0
    7.0994    4.7571   28.2467 H   0  0  0  0  0  0
    7.2449    5.0092   30.7145 H   0  0  0  0  0  0
    5.1796    4.7569   32.0600 H   0  0  0  0  0  0
    2.6812    4.2544   32.1228 H   0  0  0  0  0  0
  1  2  1  0  0  0
  1 34  1  0  0  0
  1 35  1  0  0  0
  1 36  1  0  0  0
  2  3  2  0  0  0
  2 14  1  0  0  0
  3  4  1  0  0  0
  4  5  1  0  0  0
  4 37  1  0  0  0
  5  6  2  0  0  0
  5  7  1  0  0  0
  7  8  1  0  0  0
  7 38  1  0  0  0
  7 39  1  0  0  0
  8  9  1  0  0  0
  8 13  1  0  0  0
  9 10  1  0  0  0
  9 40  1  0  0  0
  9 41  1  0  0  0
 10 11  1  0  0  0
 10 42  1  0  0  0
 10 43  1  0  0  0
 11 12  1  0  0  0
 12 13  1  0  0  0
 12 44  1  0  0  0
 12 45  1  0  0  0
 13 46  1  0  0  0
 13 47  1  0  0  0
 14 15  2  0  0  0
 14 33  1  0  0  0
 15 16  1  0  0  0
 15 48  1  0  0  0
 16 17  2  0  0  0
 17 18  1  0  0  0
 17 32  1  0  0  0
 18 19  2  0  0  0
 19 20  1  0  0  0
 20 21  1  0  0  0
 20 32  1  0  0  0
 21 22  1  0  0  0
 21 49  1  0  0  0
 21 50  1  0  0  0
 22 23  2  0  0  0
 22 31  1  0  0  0
 23 24  1  0  0  0
 23 51  1  0  0  0
 24 25  2  0  0  0
 24 52  1  0  0  0
 25 26  1  0  0  0
 25 30  1  0  0  0
 26 27  2  0  0  0
 27 28  1  0  0  0
 27 53  1  0  0  0
 28 29  2  0  0  0
 28 54  1  0  0  0
 29 30  1  0  0  0
 29 55  1  0  0  0
 30 31  2  0  0  0
 31 56  1  0  0  0
 32 33  2  0  0  0
M  END
> <s_m_entry_id>
10166

> <s_m_entry_name>
dock_pv.235

> <s_m_Source_Path>
/home/csk/Desktop/cluster/DUD-E-result/met

> <s_m_Source_File>
dock_pv.maegz

> <i_m_Source_File_Index>
235

> <chembl_id>
CHEMBL3674528

> <chembl_pref_name>
None

> <i_lp_mmshare_version>
53161

> <i_f3d_flags>
0

> <r_lp_tautomer_probability>
1

> <s_lp_Force_Field>
OPLS_2005

> <r_lp_Energy>
43.606806

> <b_lp_Chiralities_Consistent>
1

> <s_lp_Variant>
CHEMBL3717_lig2543-1

> <s_i_glide_gridfile>
glide-grid_3lq8

> <i_i_glide_lignum>
2887

> <i_i_glide_rotatable_bonds>
7

> <r_i_docking_score>
-7.92183209936882

> <r_i_glide_ligand_efficiency>
-0.240055518162691

> <r_i_glide_ligand_efficiency_sa>
-0.769986314714348

> <r_i_glide_ligand_efficiency_ln>
-1.7617744418482

> <r_i_glide_gscore>
-7.92183209936882

> <r_i_glide_lipo>
-3.65528451915487

> <r_i_glide_hbond>
-0.0935817835518112

> <r_i_glide_metal>
0

> <r_i_glide_rewards>
-1.95427687129418

> <r_i_glide_evdw>
-49.6115760803223

> <r_i_glide_ecoul>
-2.16598153114319

> <r_i_glide_erotb>
0.60494430500702

> <r_i_glide_esite>
-0.0181571966873748

> <r_i_glide_emodel>
-66.5829075887579

> <r_i_glide_energy>
-51.7775576114655

> <r_i_glide_einternal>
12.6468553543091

> <i_i_glide_confnum>
3

> <i_i_glide_posenum>
14

> <r_i_glide_eff_state_penalty>
0

> <s_user_duplicate_titles>
CHEMBL3717_lig2543

> <s_m_subgroup_title>
dock_pv

> <s_m_subgroupid>
dock_pv

> <b_m_subgroup_collapsed>
1

$$$$
CHEMBL3717_lig716
                    3D
 Schrodinger Suite 2021-1.
 56 60  0  0  1  0            999 V2000
   -4.5783   -1.4893   30.0269 S   0  0  0  0  0  0
   -3.2949   -1.1413   29.4067 O   0  0  0  0  0  0
   -5.4459   -2.5144   29.4378 O   0  0  0  0  0  0
   -2.0844    3.1582   31.3914 C   0  0  0  0  0  0
   -3.9895    5.4503   30.5839 C   0  0  0  0  0  0
   -2.7918    6.0685   30.6159 C   0  0  0  0  0  0
   -1.4256    5.5075   30.6079 C   0  0  0  0  0  0
   -1.1082    4.1790   30.9264 C   0  0  0  0  0  0
    0.2331    3.7706   30.8642 C   0  0  0  0  0  0
    1.2240    4.6576   30.4453 C   0  0  0  0  0  0
    0.8221    5.9600   30.1304 C   0  0  0  0  0  0
   -0.4663    6.3860   30.2084 N   0  0  0  0  0  0
   -3.4225    2.9610   30.7546 C   0  0  0  0  0  0
   -4.3320    4.0096   30.5127 C   0  0  0  0  0  0
   -5.6544    3.6673   30.2080 C   0  0  0  0  0  0
   -6.0486    2.3348   30.0780 C   0  0  0  0  0  0
   -5.1326    1.2982   30.2535 C   0  0  0  0  0  0
   -3.8232    1.6214   30.6082 C   0  0  0  0  0  0
   -1.6941    2.3195   32.2079 O   0  0  0  0  0  0
   -5.5894   -0.0219   30.1051 N   0  0  0  0  0  0
    2.6394    4.1909   30.3378 C   0  0  0  0  0  0
    3.2456    3.0559   30.9085 C   0  0  0  0  0  0
    4.5203    2.9289   30.6080 N   0  0  0  0  0  0
    4.7929    3.9921   29.8561 N   0  0  0  0  0  0
    3.6865    4.7567   29.6319 C   0  0  0  0  0  0
   -4.2899   -1.9301   31.7263 N   0  0  2  0  0  0
    6.1337    4.2115   29.3491 C   0  0  0  0  0  0
   -5.5040   -2.2087   32.5494 C   0  0  0  0  0  0
   -3.1090   -1.3422   32.4050 C   0  0  0  0  0  0
   -5.3621   -3.1805   33.7237 C   0  0  0  0  0  0
   -6.3683   -3.2427   34.6955 C   0  0  0  0  0  0
   -6.2781   -4.0771   35.7651 N   0  0  0  0  0  0
   -5.1704   -4.8600   35.8513 C   0  0  0  0  0  0
   -4.1695   -4.8138   34.8783 C   0  0  0  0  0  0
   -4.2618   -3.9809   33.8078 N   0  0  0  0  0  0
   -4.8494    6.1068   30.6077 H   0  0  0  0  0  0
   -2.8214    7.1478   30.6680 H   0  0  0  0  0  0
    0.5135    2.7571   31.1112 H   0  0  0  0  0  0
    1.5372    6.7003   29.8086 H   0  0  0  0  0  0
   -6.3903    4.4413   30.0381 H   0  0  0  0  0  0
   -7.0751    2.1136   29.8244 H   0  0  0  0  0  0
   -3.1199    0.8286   30.8039 H   0  0  0  0  0  0
   -6.5680   -0.1616   29.9073 H   0  0  0  0  0  0
    2.7548    2.3249   31.5339 H   0  0  0  0  0  0
    3.7609    5.6239   29.0081 H   0  0  0  0  0  0
    6.1450    4.0179   28.2769 H   0  0  0  0  0  0
    6.4192    5.2448   29.5333 H   0  0  0  0  0  0
    6.8483    3.5497   29.8393 H   0  0  0  0  0  0
   -6.3019   -2.5607   31.8948 H   0  0  0  0  0  0
   -5.8477   -1.2522   32.9474 H   0  0  0  0  0  0
   -2.3096   -1.1705   31.6841 H   0  0  0  0  0  0
   -3.3727   -0.3873   32.8603 H   0  0  0  0  0  0
   -2.7145   -2.0341   33.1476 H   0  0  0  0  0  0
   -7.2461   -2.6148   34.6407 H   0  0  0  0  0  0
   -5.1017   -5.5264   36.6990 H   0  0  0  0  0  0
   -3.2918   -5.4408   34.9425 H   0  0  0  0  0  0
  1  3  2  0  0  0
  1 20  1  0  0  0
  1 26  1  0  0  0
  1  2  2  0  0  0
  4 19  2  0  0  0
  4  8  1  0  0  0
  4 13  1  0  0  0
  5 14  1  0  0  0
  5  6  2  0  0  0
  5 36  1  0  0  0
  6  7  1  0  0  0
  6 37  1  0  0  0
  7 12  1  0  0  0
  7  8  2  0  0  0
  8  9  1  0  0  0
  9 10  2  0  0  0
  9 38  1  0  0  0
 10 21  1  0  0  0
 10 11  1  0  0  0
 11 12  2  0  0  0
 11 39  1  0  0  0
 13 18  1  0  0  0
 13 14  2  0  0  0
 14 15  1  0  0  0
 15 16  2  0  0  0
 15 40  1  0  0  0
 16 17  1  0  0  0
 16 41  1  0  0  0
 17 18  2  0  0  0
 17 20  1  0  0  0
 18 42  1  0  0  0
 20 43  1  0  0  0
 21 22  1  0  0  0
 21 25  2  0  0  0
 22 23  2  0  0  0
 22 44  1  0  0  0
 23 24  1  0  0  0
 24 25  1  0  0  0
 24 27  1  0  0  0
 25 45  1  0  0  0
 26 28  1  0  0  0
 26 29  1  0  0  0
 27 46  1  0  0  0
 27 47  1  0  0  0
 27 48  1  0  0  0
 28 30  1  0  0  0
 28 49  1  0  0  0
 28 50  1  0  0  0
 29 51  1  0  0  0
 29 52  1  0  0  0
 29 53  1  0  0  0
 30 31  2  0  0  0
 30 35  1  0  0  0
 31 32  1  0  0  0
 31 54  1  0  0  0
 32 33  2  0  0  0
 33 34  1  0  0  0
 33 55  1  0  0  0
 34 35  2  0  0  0
 34 56  1  0  0  0
M  END
> <s_m_entry_id>
10168

> <s_m_entry_name>
dock_pv.237

> <s_m_Source_Path>
/home/csk/Desktop/cluster/DUD-E-result/met

> <s_m_Source_File>
dock_pv.maegz

> <i_m_Source_File_Index>
237

> <chembl_id>
CHEMBL1802909

> <chembl_pref_name>
None

> <i_lp_mmshare_version>
53161

> <i_f3d_flags>
0

> <r_lp_tautomer_probability>
1

> <s_lp_Force_Field>
OPLS_2005

> <r_lp_Energy>
28.419

> <b_lp_Chiralities_Consistent>
1

> <s_lp_Variant>
CHEMBL3717_lig716-1

> <s_i_glide_gridfile>
glide-grid_3lq8

> <i_i_glide_lignum>
774

> <i_i_glide_rotatable_bonds>
6

> <r_i_docking_score>
-7.91712910005762

> <r_i_glide_ligand_efficiency>
-0.226203688573075

> <r_i_glide_ligand_efficiency_sa>
-0.739927264054877

> <r_i_glide_ligand_efficiency_ln>
-1.73798554867595

> <r_i_glide_gscore>
-7.91712910005762

> <r_i_glide_lipo>
-4.26609168921981

> <r_i_glide_hbond>
0

> <r_i_glide_metal>
0

> <r_i_glide_rewards>
-1.24971624998788

> <r_i_glide_evdw>
-50.7278175354004

> <r_i_glide_ecoul>
-1.37063574790955

> <r_i_glide_erotb>
0.427658524695942

> <r_i_glide_esite>
-0.0869934465894203

> <r_i_glide_emodel>
-69.3699109899315

> <r_i_glide_energy>
-52.0984532833099

> <r_i_glide_einternal>
2.22362399101257

> <i_i_glide_confnum>
3

> <i_i_glide_posenum>
2

> <r_i_glide_eff_state_penalty>
0

> <s_user_duplicate_titles>
CHEMBL3717_lig716

> <s_m_subgroup_title>
dock_pv

> <s_m_subgroupid>
dock_pv

> <b_m_subgroup_collapsed>
1

$$$$
CHEMBL3717_lig4186
                    3D
 Schrodinger Suite 2021-1.
 43 46  0  0  1  0            999 V2000
    2.2966    5.1567   29.9319 Cl  0  0  0  0  0  0
   -0.4950   -2.8229   33.8080 O   0  0  0  0  0  0
   -8.5146   -3.4323   30.3506 O   0  0  0  0  0  0
   -5.1799    2.1323   30.0332 N   0  0  0  0  0  0
   -4.2035    3.0218   30.2080 N   0  0  0  0  0  0
   -2.0546    2.9258   31.1964 N   0  0  0  0  0  0
   -3.6497    1.0405   31.1351 C   0  0  0  0  0  0
   -4.9183    0.9024   30.5721 C   0  0  0  0  0  0
   -3.2666    2.3729   30.8620 C   0  0  0  0  0  0
   -2.8466    0.0110   31.8717 C   0  0  0  0  0  0
   -5.8808   -0.2294   30.5143 C   0  0  0  0  0  0
   -2.7937   -1.2984   31.3903 C   0  0  0  0  0  0
   -2.0939    0.3566   33.0049 C   0  0  0  0  0  0
   -1.4610    4.1350   30.8152 C   0  0  0  0  0  0
   -6.1589   -0.9657   31.6690 C   0  0  0  0  0  0
   -6.4954   -0.5675   29.3056 C   0  0  0  0  0  0
   -2.0007   -2.2444   32.0310 C   0  0  0  0  0  0
   -1.2940   -0.5915   33.6369 C   0  0  0  0  0  0
   -1.2661   -1.8947   33.1601 C   0  0  0  0  0  0
   -7.0463   -2.0375   31.6139 C   0  0  0  0  0  0
   -7.3830   -1.6390   29.2521 C   0  0  0  0  0  0
   -7.6517   -2.3719   30.4056 C   0  0  0  0  0  0
   -0.0794    4.1111   30.6255 C   0  0  0  0  0  0
   -2.1624    5.3316   30.6160 C   0  0  0  0  0  0
    0.5989    5.2508   30.2076 C   0  0  0  0  0  0
   -1.4792    6.4817   30.2081 C   0  0  0  0  0  0
   -0.0983    6.4411   29.9994 C   0  0  0  0  0  0
    0.4135   -2.8429   33.4486 H   0  0  0  0  0  0
   -8.8399   -3.5979   29.4634 H   0  0  0  0  0  0
   -6.0443    2.3741   29.5710 H   0  0  0  0  0  0
   -1.3490    2.2579   31.4609 H   0  0  0  0  0  0
   -3.3475   -1.5832   30.5069 H   0  0  0  0  0  0
   -2.0975    1.3633   33.3942 H   0  0  0  0  0  0
   -5.6896   -0.7087   32.6077 H   0  0  0  0  0  0
   -6.2694   -0.0220   28.4003 H   0  0  0  0  0  0
   -1.9587   -3.2431   31.6363 H   0  0  0  0  0  0
   -0.7299   -0.3319   34.5179 H   0  0  0  0  0  0
   -7.2598   -2.6101   32.5047 H   0  0  0  0  0  0
   -7.8444   -1.9028   28.3122 H   0  0  0  0  0  0
    0.4767    3.1956   30.7693 H   0  0  0  0  0  0
   -3.2293    5.3752   30.7739 H   0  0  0  0  0  0
   -2.0179    7.4041   30.0497 H   0  0  0  0  0  0
    0.4253    7.3293   29.6758 H   0  0  0  0  0  0
  1 25  1  0  0  0
  2 19  1  0  0  0
  2 28  1  0  0  0
  3 22  1  0  0  0
  3 29  1  0  0  0
  4  8  1  0  0  0
  4 30  1  0  0  0
  4  5  1  0  0  0
  5  9  2  0  0  0
  6  9  1  0  0  0
  6 14  1  0  0  0
  6 31  1  0  0  0
  7  9  1  0  0  0
  7  8  2  0  0  0
  7 10  1  0  0  0
  8 11  1  0  0  0
 10 12  2  0  0  0
 10 13  1  0  0  0
 11 15  2  0  0  0
 11 16  1  0  0  0
 12 17  1  0  0  0
 12 32  1  0  0  0
 13 18  2  0  0  0
 13 33  1  0  0  0
 14 23  1  0  0  0
 14 24  2  0  0  0
 15 20  1  0  0  0
 15 34  1  0  0  0
 16 21  2  0  0  0
 16 35  1  0  0  0
 17 19  2  0  0  0
 17 36  1  0  0  0
 18 19  1  0  0  0
 18 37  1  0  0  0
 20 22  2  0  0  0
 20 38  1  0  0  0
 21 22  1  0  0  0
 21 39  1  0  0  0
 23 25  2  0  0  0
 23 40  1  0  0  0
 24 26  1  0  0  0
 24 41  1  0  0  0
 25 27  1  0  0  0
 26 27  2  0  0  0
 26 42  1  0  0  0
 27 43  1  0  0  0
M  END
> <s_m_entry_id>
10169

> <s_m_entry_name>
dock_pv.238

> <s_m_Source_Path>
/home/csk/Desktop/cluster/DUD-E-result/met

> <s_m_Source_File>
dock_pv.maegz

> <i_m_Source_File_Index>
238

> <chembl_id>
CHEMBL1985092

> <chembl_pref_name>
None

> <i_lp_mmshare_version>
53161

> <i_f3d_flags>
0

> <r_lp_tautomer_probability>
0.842599999160493

> <s_lp_Force_Field>
OPLS_2005

> <r_lp_Energy>
20.329718

> <b_lp_Chiralities_Consistent>
1

> <s_lp_Variant>
CHEMBL3717_lig4186-1

> <s_i_glide_gridfile>
glide-grid_3lq8

> <i_i_glide_lignum>
5371

> <i_i_glide_rotatable_bonds>
6

> <r_i_docking_score>
-7.91606956595066

> <r_i_glide_ligand_efficiency>
-0.293187761701876

> <r_i_glide_ligand_efficiency_sa>
-0.87956328413933

> <r_i_glide_ligand_efficiency_ln>
-1.84273048834687

> <r_i_glide_gscore>
-7.91606956595066

> <r_i_glide_lipo>
-3.80807111738199

> <r_i_glide_hbond>
-0.280590494863562

> <r_i_glide_metal>
0

> <r_i_glide_rewards>
-1.43302268181818

> <r_i_glide_evdw>
-35.0100021362305

> <r_i_glide_ecoul>
-7.91148519515991

> <r_i_glide_erotb>
0.542837614198583

> <r_i_glide_esite>
0

> <r_i_glide_emodel>
-57.356098818729

> <r_i_glide_energy>
-42.9214873313904

> <r_i_glide_einternal>
11.0540466308594

> <i_i_glide_confnum>
67

> <i_i_glide_posenum>
19

> <r_i_glide_eff_state_penalty>
0

> <s_user_duplicate_titles>
CHEMBL3717_lig4186,CHEMBL3717_lig4186

> <s_m_subgroup_title>
dock_pv

> <s_m_subgroupid>
dock_pv

> <b_m_subgroup_collapsed>
1

$$$$
CHEMBL3717_lig4056
                    3D
 Schrodinger Suite 2021-1.
 29 31  0  0  1  0            999 V2000
   -3.6937    7.1570   30.6080 O   0  0  0  0  0  0
   -1.8713    3.2558   31.0081 N   0  0  0  0  0  0
   -4.2207    5.0164   30.6614 N   0  0  0  0  0  0
   -1.8098    5.6928   30.5607 C   0  0  0  0  0  0
   -3.1460    2.7763   30.7076 C   0  0  0  0  0  0
   -4.2610    3.6255   30.5315 C   0  0  0  0  0  0
   -1.1824    4.4527   30.8219 C   0  0  0  0  0  0
   -3.3012    5.9905   30.6083 C   0  0  0  0  0  0
   -5.4994    3.0556   30.2080 C   0  0  0  0  0  0
   -3.3355    1.3934   30.6081 C   0  0  0  0  0  0
   -1.0055    6.7970   30.2079 C   0  0  0  0  0  0
    0.2173    4.4004   30.8230 C   0  0  0  0  0  0
   -5.6606    1.6780   30.0694 C   0  0  0  0  0  0
   -4.5703    0.8434   30.2825 C   0  0  0  0  0  0
    0.3794    6.6991   30.1598 C   0  0  0  0  0  0
    0.9968    5.5035   30.4936 C   0  0  0  0  0  0
   -7.0115    1.0882   29.7092 C   0  0  0  0  0  0
   -1.2290    2.4972   31.1745 H   0  0  0  0  0  0
   -5.1360    5.4400   30.6642 H   0  0  0  0  0  0
   -6.3572    3.6965   30.0578 H   0  0  0  0  0  0
   -2.4976    0.7264   30.7599 H   0  0  0  0  0  0
   -1.4323    7.7614   29.9648 H   0  0  0  0  0  0
    0.7181    3.4664   31.0341 H   0  0  0  0  0  0
   -4.6742   -0.2285   30.1892 H   0  0  0  0  0  0
    0.9710    7.5566   29.8755 H   0  0  0  0  0  0
    2.0740    5.4235   30.4734 H   0  0  0  0  0  0
   -7.8214    1.8041   29.8546 H   0  0  0  0  0  0
   -7.0141    0.7483   28.6727 H   0  0  0  0  0  0
   -7.2273    0.2265   30.3423 H   0  0  0  0  0  0
  1  8  2  0  0  0
  2  5  1  0  0  0
  2  7  1  0  0  0
  2 18  1  0  0  0
  3  6  1  0  0  0
  3  8  1  0  0  0
  3 19  1  0  0  0
  4  7  1  0  0  0
  4  8  1  0  0  0
  4 11  2  0  0  0
  5  6  1  0  0  0
  5 10  2  0  0  0
  6  9  2  0  0  0
  7 12  2  0  0  0
  9 13  1  0  0  0
  9 20  1  0  0  0
 10 14  1  0  0  0
 10 21  1  0  0  0
 11 15  1  0  0  0
 11 22  1  0  0  0
 12 16  1  0  0  0
 12 23  1  0  0  0
 13 14  2  0  0  0
 13 17  1  0  0  0
 14 24  1  0  0  0
 15 16  2  0  0  0
 15 25  1  0  0  0
 16 26  1  0  0  0
 17 27  1  0  0  0
 17 28  1  0  0  0
 17 29  1  0  0  0
M  END
> <s_m_entry_id>
10170

> <s_m_entry_name>
dock_pv.239

> <s_m_Source_Path>
/home/csk/Desktop/cluster/DUD-E-result/met

> <s_m_Source_File>
dock_pv.maegz

> <i_m_Source_File_Index>
239

> <chembl_id>
CHEMBL1999714

> <chembl_pref_name>
None

> <i_lp_mmshare_version>
53161

> <i_f3d_flags>
0

> <r_lp_tautomer_probability>
1

> <s_lp_Force_Field>
OPLS_2005

> <r_lp_Energy>
30.992031

> <b_lp_Chiralities_Consistent>
1

> <s_lp_Variant>
CHEMBL3717_lig4056-1

> <s_i_glide_gridfile>
glide-grid_3lq8

> <i_i_glide_lignum>
5172

> <i_i_glide_rotatable_bonds>
0

> <r_i_docking_score>
-7.91400465379376

> <r_i_glide_ligand_efficiency>
-0.46552968551728

> <r_i_glide_ligand_efficiency_sa>
-1.19700790914504

> <r_i_glide_ligand_efficiency_ln>
-2.06458757795603

> <r_i_glide_gscore>
-7.91400465379376

> <r_i_glide_lipo>
-2.75090109073785

> <r_i_glide_hbond>
-0.32

> <r_i_glide_metal>
0

> <r_i_glide_rewards>
-2.83005990909091

> <r_i_glide_evdw>
-28.8320598602295

> <r_i_glide_ecoul>
-3.80960440635681

> <r_i_glide_erotb>
0

> <r_i_glide_esite>
0

> <r_i_glide_emodel>
-46.1999904507856

> <r_i_glide_energy>
-32.6416642665863

> <r_i_glide_einternal>
0

> <i_i_glide_confnum>
1

> <i_i_glide_posenum>
19

> <r_i_glide_eff_state_penalty>
0

> <s_user_duplicate_titles>
CHEMBL3717_lig4056

> <s_m_subgroup_title>
dock_pv

> <s_m_subgroupid>
dock_pv

> <b_m_subgroup_collapsed>
1

$$$$
CHEMBL3717_lig3555
                    3D
 Schrodinger Suite 2021-1.
 51 54  0  0  1  0            999 V2000
    0.7050    7.5568   29.5159 Cl  0  0  0  0  0  0
    3.7721    2.8793   30.2457 O   0  0  0  0  0  0
   -6.0624    5.1545   30.6208 N   0  0  0  0  0  0
   -4.5843    3.2707   30.2159 N   0  0  0  0  0  0
   -3.7808    5.4797   30.6103 N   0  0  0  0  0  0
   -8.4197    4.5968   30.4815 N   0  0  0  0  0  0
    1.8040    4.9179   30.6221 N   0  0  0  0  0  0
   -6.9543    2.9060   30.2072 C   0  0  0  0  0  0
   -7.0761    4.2998   30.4624 C   0  0  0  0  0  0
   -5.6391    2.4235   30.0778 C   0  0  0  0  0  0
   -4.8417    4.5784   30.4890 C   0  0  0  0  0  0
    0.4216    5.0406   30.5829 C   0  0  0  0  0  0
   -2.3901    5.2994   30.6146 C   0  0  0  0  0  0
   -0.1982    6.2310   30.1588 C   0  0  0  0  0  0
   -8.2845    2.3770   30.1176 C   0  0  0  0  0  0
   -1.5861    6.3614   30.2082 C   0  0  0  0  0  0
   -0.3927    3.9863   31.0078 C   0  0  0  0  0  0
   -5.2920    0.9880   29.6972 C   0  0  0  0  0  0
   -1.7790    4.1104   31.0185 C   0  0  0  0  0  0
   -9.1484    3.4471   30.2834 C   0  0  0  0  0  0
    2.5914    4.8277   29.3839 C   0  0  0  0  0  0
    2.5207    4.2770   31.7374 C   0  0  0  0  0  0
   -4.9656    0.0543   30.8903 C   0  0  0  0  0  0
    3.0890    3.3909   29.1065 C   0  0  0  0  0  0
    2.9400    2.8338   31.3948 C   0  0  0  0  0  0
   -3.5608    0.3020   31.4747 C   0  0  0  0  0  0
   -5.1112   -1.4250   30.4858 C   0  0  0  0  0  0
   -4.1035    6.4254   30.7376 H   0  0  0  0  0  0
   -8.8432    5.5069   30.5930 H   0  0  0  0  0  0
   -8.5820    1.3552   29.9331 H   0  0  0  0  0  0
   -2.0370    7.2862   29.8795 H   0  0  0  0  0  0
    0.0410    3.0577   31.3400 H   0  0  0  0  0  0
   -4.4649    0.9864   28.9856 H   0  0  0  0  0  0
   -6.1434    0.5907   29.1409 H   0  0  0  0  0  0
   -2.3619    3.2745   31.3686 H   0  0  0  0  0  0
  -10.2291    3.4883   30.2646 H   0  0  0  0  0  0
    1.9838    5.1583   28.5420 H   0  0  0  0  0  0
    3.4187    5.5425   29.4392 H   0  0  0  0  0  0
    3.4233    4.8485   31.9446 H   0  0  0  0  0  0
    1.9270    4.3126   32.6528 H   0  0  0  0  0  0
   -5.6964    0.2418   31.6819 H   0  0  0  0  0  0
    3.7739    3.3889   28.2597 H   0  0  0  0  0  0
    2.2580    2.7368   28.8356 H   0  0  0  0  0  0
    3.5028    2.3868   32.2131 H   0  0  0  0  0  0
    2.0801    2.1855   31.2281 H   0  0  0  0  0  0
   -2.7844    0.0961   30.7373 H   0  0  0  0  0  0
   -3.3758   -0.3376   32.3373 H   0  0  0  0  0  0
   -3.4313    1.3290   31.8074 H   0  0  0  0  0  0
   -4.4234   -1.6890   29.6806 H   0  0  0  0  0  0
   -4.9067   -2.0920   31.3257 H   0  0  0  0  0  0
   -6.1219   -1.6471   30.1380 H   0  0  0  0  0  0
  1 14  1  0  0  0
  2 24  1  0  0  0
  2 25  1  0  0  0
  3  9  1  0  0  0
  3 11  2  0  0  0
  4 10  2  0  0  0
  4 11  1  0  0  0
  5 11  1  0  0  0
  5 13  1  0  0  0
  5 28  1  0  0  0
  6  9  1  0  0  0
  6 20  1  0  0  0
  6 29  1  0  0  0
  7 12  1  0  0  0
  7 21  1  0  0  0
  7 22  1  0  0  0
  8  9  2  0  0  0
  8 10  1  0  0  0
  8 15  1  0  0  0
 10 18  1  0  0  0
 12 14  1  0  0  0
 12 17  2  0  0  0
 13 16  1  0  0  0
 13 19  2  0  0  0
 14 16  2  0  0  0
 15 20  2  0  0  0
 15 30  1  0  0  0
 16 31  1  0  0  0
 17 19  1  0  0  0
 17 32  1  0  0  0
 18 23  1  0  0  0
 18 33  1  0  0  0
 18 34  1  0  0  0
 19 35  1  0  0  0
 20 36  1  0  0  0
 21 24  1  0  0  0
 21 37  1  0  0  0
 21 38  1  0  0  0
 22 25  1  0  0  0
 22 39  1  0  0  0
 22 40  1  0  0  0
 23 26  1  0  0  0
 23 27  1  0  0  0
 23 41  1  0  0  0
 24 42  1  0  0  0
 24 43  1  0  0  0
 25 44  1  0  0  0
 25 45  1  0  0  0
 26 46  1  0  0  0
 26 47  1  0  0  0
 26 48  1  0  0  0
 27 49  1  0  0  0
 27 50  1  0  0  0
 27 51  1  0  0  0
M  END
> <s_m_entry_id>
10171

> <s_m_entry_name>
dock_pv.240

> <s_m_Source_Path>
/home/csk/Desktop/cluster/DUD-E-result/met

> <s_m_Source_File>
dock_pv.maegz

> <i_m_Source_File_Index>
240

> <chembl_id>
CHEMBL1980763

> <chembl_pref_name>
None

> <i_lp_mmshare_version>
53161

> <i_f3d_flags>
0

> <r_lp_tautomer_probability>
1

> <s_lp_Force_Field>
OPLS_2005

> <r_lp_Energy>
22.69315

> <b_lp_Chiralities_Consistent>
1

> <s_lp_Variant>
CHEMBL3717_lig3555-1

> <s_i_glide_gridfile>
glide-grid_3lq8

> <i_i_glide_lignum>
4400

> <i_i_glide_rotatable_bonds>
5

> <r_i_docking_score>
-7.90970765264438

> <r_i_glide_ligand_efficiency>
-0.292952135283125

> <r_i_glide_ligand_efficiency_sa>
-0.878856404883853

> <r_i_glide_ligand_efficiency_ln>
-1.84124953981351

> <r_i_glide_gscore>
-7.90970765264438

> <r_i_glide_lipo>
-4.03736164727223

> <r_i_glide_hbond>
0

> <r_i_glide_metal>
0

> <r_i_glide_rewards>
-2.10475330040486

> <r_i_glide_evdw>
-44.9949417114258

> <r_i_glide_ecoul>
-0.225926041603088

> <r_i_glide_erotb>
0.522666021111896

> <r_i_glide_esite>
-0.00662273426743574

> <r_i_glide_emodel>
-63.7042138922629

> <r_i_glide_energy>
-45.2208677530289

> <r_i_glide_einternal>
1.26291406154633

> <i_i_glide_confnum>
9

> <i_i_glide_posenum>
71

> <r_i_glide_eff_state_penalty>
0

> <s_user_duplicate_titles>
CHEMBL3717_lig3555

> <s_m_subgroup_title>
dock_pv

> <s_m_subgroupid>
dock_pv

> <b_m_subgroup_collapsed>
1

$$$$
CHEMBL3717_lig3728
                    3D
 Schrodinger Suite 2021-1.
 49 52  0  0  1  0            999 V2000
   -5.5260   -3.9844   32.9378 Cl  0  0  0  0  0  0
   -7.8241   -5.2980   31.1230 Cl  0  0  0  0  0  0
   -4.4332    2.6764   30.6077 O   0  0  0  0  0  0
    4.2243    3.7439   30.4980 N   0  0  0  0  0  0
    4.2848    3.2746   29.2444 N   0  0  0  0  0  0
   -3.2190    6.1874   30.5939 N   0  0  0  0  0  0
   -6.8925    1.1505   31.8900 N   0  0  0  0  0  0
    2.1246    3.6509   29.5018 C   0  0  0  0  0  0
    2.8905    3.9857   30.6595 C   0  0  0  0  0  0
    0.1184    4.4067   30.6249 C   0  0  0  0  0  0
    0.7326    3.8375   29.5031 C   0  0  0  0  0  0
    3.0864    3.1683   28.5777 C   0  0  0  0  0  0
   -1.3453    4.6416   30.6329 C   0  0  0  0  0  0
    2.2575    4.5049   31.7917 C   0  0  0  0  0  0
    0.8867    4.7395   31.7415 C   0  0  0  0  0  0
   -2.2444    3.5704   30.6410 C   0  0  0  0  0  0
   -3.6231    3.7932   30.6079 C   0  0  0  0  0  0
   -1.8841    5.9343   30.6101 C   0  0  0  0  0  0
   -4.0660    5.1252   30.5794 C   0  0  0  0  0  0
    2.9714    2.6132   27.1809 C   0  0  0  0  0  0
   -6.2404   -1.1527   30.1906 C   0  0  0  0  0  0
   -6.1940   -3.1481   31.5777 C   0  0  0  0  0  0
   -7.2011   -3.7187   30.7877 C   0  0  0  0  0  0
   -5.7172   -1.8722   31.2720 C   0  0  0  0  0  0
   -6.5350    1.4183   30.5053 C   0  0  2  0  0  0
   -5.7173    0.2489   29.8830 C   0  0  0  0  0  0
   -5.8392    2.8021   30.3979 C   0  0  0  0  0  0
   -7.2443   -1.7263   29.4081 C   0  0  0  0  0  0
   -7.7207   -3.0052   29.7058 C   0  0  0  0  0  0
    5.1649    2.9729   28.8426 H   0  0  0  0  0  0
   -6.0697    0.9977   32.4571 H   0  0  0  0  0  0
   -7.3857    1.9300   32.2995 H   0  0  0  0  0  0
    0.1526    3.5569   28.6362 H   0  0  0  0  0  0
    2.8247    4.7560   32.6739 H   0  0  0  0  0  0
    0.4088    5.1703   32.6077 H   0  0  0  0  0  0
   -1.8754    2.5562   30.6600 H   0  0  0  0  0  0
   -1.2375    6.8001   30.5988 H   0  0  0  0  0  0
   -5.1151    5.3778   30.5458 H   0  0  0  0  0  0
    2.7134    1.5572   27.1955 H   0  0  0  0  0  0
    2.1925    3.1133   26.6089 H   0  0  0  0  0  0
    3.9040    2.7071   26.6254 H   0  0  0  0  0  0
   -4.9445   -1.4357   31.8876 H   0  0  0  0  0  0
   -7.4847    1.4768   29.9702 H   0  0  0  0  0  0
   -4.6818    0.2846   30.2247 H   0  0  0  0  0  0
   -5.6507    0.3783   28.8010 H   0  0  0  0  0  0
   -6.0093    3.2116   29.4081 H   0  0  0  0  0  0
   -6.2813    3.5111   31.1006 H   0  0  0  0  0  0
   -7.6529   -1.1844   28.5670 H   0  0  0  0  0  0
   -8.4928   -3.4459   29.0899 H   0  0  0  0  0  0
  1 22  1  0  0  0
  2 23  1  0  0  0
  3 17  1  0  0  0
  3 27  1  0  0  0
  4  5  1  0  0  0
  4  9  2  0  0  0
  5 30  1  0  0  0
  5 12  1  0  0  0
  6 18  1  0  0  0
  6 19  2  0  0  0
  7 25  1  0  0  0
  7 31  1  0  0  0
  7 32  1  0  0  0
  8 11  1  0  0  0
  8  9  1  0  0  0
  8 12  2  0  0  0
  9 14  1  0  0  0
 10 15  1  0  0  0
 10 13  1  0  0  0
 10 11  2  0  0  0
 11 33  1  0  0  0
 12 20  1  0  0  0
 13 16  1  0  0  0
 13 18  2  0  0  0
 14 34  1  0  0  0
 14 15  2  0  0  0
 15 35  1  0  0  0
 16 17  2  0  0  0
 16 36  1  0  0  0
 17 19  1  0  0  0
 18 37  1  0  0  0
 19 38  1  0  0  0
 20 39  1  0  0  0
 20 40  1  0  0  0
 20 41  1  0  0  0
 21 24  1  0  0  0
 21 26  1  0  0  0
 21 28  2  0  0  0
 22 23  1  0  0  0
 22 24  2  0  0  0
 23 29  2  0  0  0
 24 42  1  0  0  0
 25 26  1  0  0  0
 25 27  1  0  0  0
 25 43  1  0  0  0
 26 44  1  0  0  0
 26 45  1  0  0  0
 27 46  1  0  0  0
 27 47  1  0  0  0
 28 29  1  0  0  0
 28 48  1  0  0  0
 29 49  1  0  0  0
M  END
> <s_m_entry_id>
10172

> <s_m_entry_name>
dock_pv.241

> <s_m_Source_Path>
/home/csk/Desktop/cluster/DUD-E-result/met

> <s_m_Source_File>
dock_pv.maegz

> <i_m_Source_File_Index>
241

> <chembl_id>
CHEMBL1991063

> <chembl_pref_name>
None

> <i_lp_mmshare_version>
53161

> <i_f3d_flags>
0

> <r_lp_tautomer_probability>
0.0196078431372549

> <s_lp_Force_Field>
OPLS_2005

> <r_lp_Energy>
41.185656

> <b_lp_Chiralities_Consistent>
1

> <s_lp_Variant>
CHEMBL3717_lig3728-3

> <s_i_glide_gridfile>
glide-grid_3lq8

> <i_i_glide_lignum>
4705

> <i_i_glide_rotatable_bonds>
6

> <r_i_docking_score>
-7.90529962864154

> <r_i_glide_ligand_efficiency>
-0.272596538918674

> <r_i_glide_ligand_efficiency_sa>
-0.837502932203529

> <r_i_glide_ligand_efficiency_ln>
-1.81011315385659

> <r_i_glide_gscore>
-7.90529962864154

> <r_i_glide_lipo>
-3.63582045728765

> <r_i_glide_hbond>
-0.32

> <r_i_glide_metal>
0

> <r_i_glide_rewards>
-2.06124508354276

> <r_i_glide_evdw>
-39.1083335876465

> <r_i_glide_ecoul>
-3.17627048492432

> <r_i_glide_erotb>
0.543623164309835

> <r_i_glide_esite>
0

> <r_i_glide_emodel>
-58.7094054417446

> <r_i_glide_energy>
-42.2846040725708

> <r_i_glide_einternal>
7.13946962356567

> <i_i_glide_confnum>
17

> <i_i_glide_posenum>
110

> <r_i_glide_eff_state_penalty>
0

> <s_user_duplicate_titles>
CHEMBL3717_lig3728,CHEMBL3717_lig3728

> <s_m_subgroup_title>
dock_pv

> <s_m_subgroupid>
dock_pv

> <b_m_subgroup_collapsed>
1

$$$$
CHEMBL3717_lig1539
                    3D
 Schrodinger Suite 2021-1.
 43 47  0  0  1  0            999 V2000
   -2.9168    4.7511   30.7595 C   0  0  0  0  0  0
   -3.6602    5.9204   30.9552 C   0  0  0  0  0  0
   -5.0542    5.8750   30.9122 C   0  0  0  0  0  0
   -3.5144    3.5373   30.5502 N   0  0  0  0  0  0
   -4.8619    3.5443   30.4699 N   0  0  0  0  0  0
   -5.6845    4.6547   30.6643 C   0  0  0  0  0  0
   -6.9808    4.2972   30.5450 N   0  0  0  0  0  0
   -6.9809    2.9576   30.1989 N   0  0  0  0  0  0
   -5.7360    2.5309   30.1016 C   0  0  0  0  0  0
   -5.3391    1.1777   29.5107 C   0  0  2  0  0  0
   -4.9434    0.1946   30.5969 C   0  0  0  0  0  0
   -1.4162    4.7591   30.7296 C   0  0  0  0  0  0
   -4.2544    1.3639   28.4469 C   0  0  0  0  0  0
   -5.5858    0.0314   31.8080 C   0  0  0  0  0  0
   -4.9028   -0.8431   32.6078 N   0  0  0  0  0  0
   -3.8657   -0.7737   30.6206 C   0  0  0  0  0  0
   -3.8041   -1.3083   31.9386 C   0  0  0  0  0  0
   -2.8589   -2.1149   32.4305 N   0  0  0  0  0  0
   -1.8852   -2.4430   31.5441 C   0  0  0  0  0  0
   -1.8821   -2.0688   30.2028 C   0  0  0  0  0  0
   -2.8941   -1.2426   29.7179 C   0  0  0  0  0  0
   -0.6891    5.8941   30.3267 C   0  0  0  0  0  0
    0.7012    5.8518   30.2084 C   0  0  0  0  0  0
    1.3857    4.6718   30.5067 C   0  0  0  0  0  0
    0.6852    3.5571   30.9540 C   0  0  0  0  0  0
   -0.6997    3.6009   31.0526 C   0  0  0  0  0  0
    2.8273    4.5698   30.3313 C   0  0  0  0  0  0
    3.9732    4.4810   30.1932 N   0  0  0  0  0  0
   -3.1690    6.8652   31.1290 H   0  0  0  0  0  0
   -5.6532    6.7578   31.0077 H   0  0  0  0  0  0
   -6.2039    0.7572   28.9926 H   0  0  0  0  0  0
   -3.2940    1.5567   28.9058 H   0  0  0  0  0  0
   -4.1501    0.4960   27.8088 H   0  0  0  0  0  0
   -4.4702    2.2098   27.8080 H   0  0  0  0  0  0
   -6.4595    0.5313   32.2023 H   0  0  0  0  0  0
   -5.1850   -1.0288   33.5611 H   0  0  0  0  0  0
   -1.0969   -3.0778   31.9219 H   0  0  0  0  0  0
   -1.0963   -2.4102   29.5466 H   0  0  0  0  0  0
   -2.8803   -0.9431   28.6828 H   0  0  0  0  0  0
   -1.1974    6.8071   30.0553 H   0  0  0  0  0  0
    1.2305    6.7294   29.8633 H   0  0  0  0  0  0
    1.2002    2.6375   31.1968 H   0  0  0  0  0  0
   -1.2244    2.7165   31.3804 H   0  0  0  0  0  0
  1  2  1  0  0  0
  1  4  2  0  0  0
  1 12  1  0  0  0
  2  3  2  0  0  0
  2 29  1  0  0  0
  3  6  1  0  0  0
  3 30  1  0  0  0
  4  5  1  0  0  0
  5  6  1  0  0  0
  5  9  1  0  0  0
  6  7  2  0  0  0
  7  8  1  0  0  0
  8  9  2  0  0  0
  9 10  1  0  0  0
 10 11  1  0  0  0
 10 13  1  0  0  0
 10 31  1  0  0  0
 11 14  2  0  0  0
 11 16  1  0  0  0
 12 22  2  0  0  0
 12 26  1  0  0  0
 13 32  1  0  0  0
 13 33  1  0  0  0
 13 34  1  0  0  0
 14 15  1  0  0  0
 14 35  1  0  0  0
 15 17  1  0  0  0
 15 36  1  0  0  0
 16 17  2  0  0  0
 16 21  1  0  0  0
 17 18  1  0  0  0
 18 19  2  0  0  0
 19 20  1  0  0  0
 19 37  1  0  0  0
 20 21  2  0  0  0
 20 38  1  0  0  0
 21 39  1  0  0  0
 22 23  1  0  0  0
 22 40  1  0  0  0
 23 24  2  0  0  0
 23 41  1  0  0  0
 24 25  1  0  0  0
 24 27  1  0  0  0
 25 26  2  0  0  0
 25 42  1  0  0  0
 26 43  1  0  0  0
 27 28  3  0  0  0
M  END
> <s_m_entry_id>
10173

> <s_m_entry_name>
dock_pv.242

> <s_m_Source_Path>
/home/csk/Desktop/cluster/DUD-E-result/met

> <s_m_Source_File>
dock_pv.maegz

> <i_m_Source_File_Index>
242

> <chembl_id>
CHEMBL2431815

> <chembl_pref_name>
None

> <i_lp_mmshare_version>
53161

> <i_f3d_flags>
0

> <r_lp_tautomer_probability>
0.999998432528457

> <s_lp_Force_Field>
OPLS_2005

> <r_lp_Energy>
20.310689

> <b_lp_Chiralities_Consistent>
1

> <s_lp_Variant>
CHEMBL3717_lig1539-1

> <s_i_glide_gridfile>
glide-grid_3lq8

> <i_i_glide_lignum>
1765

> <i_i_glide_rotatable_bonds>
3

> <r_i_docking_score>
-7.89722406681476

> <r_i_glide_ligand_efficiency>
-0.282043716671956

> <r_i_glide_ligand_efficiency_sa>
-0.856450838681595

> <r_i_glide_ligand_efficiency_ln>
-1.82291118719494

> <r_i_glide_gscore>
-7.89722406681476

> <r_i_glide_lipo>
-3.01542882608937

> <r_i_glide_hbond>
-0.163184952675294

> <r_i_glide_metal>
0

> <r_i_glide_rewards>
-3.02386813545772

> <r_i_glide_evdw>
-38.1772804260254

> <r_i_glide_ecoul>
-1.44341278076172

> <r_i_glide_erotb>
0.432227255474409

> <r_i_glide_esite>
-0.00159346965125868

> <r_i_glide_emodel>
-56.1497072741007

> <r_i_glide_energy>
-39.6206932067871

> <r_i_glide_einternal>
4.47773838043213

> <i_i_glide_confnum>
12

> <i_i_glide_posenum>
82

> <r_i_glide_eff_state_penalty>
0

> <s_user_duplicate_titles>
CHEMBL3717_lig1539

> <s_m_subgroup_title>
dock_pv

> <s_m_subgroupid>
dock_pv

> <b_m_subgroup_collapsed>
1

$$$$
CHEMBL3717_lig739
                    3D
 Schrodinger Suite 2021-1.
 37 40  0  0  1  0            999 V2000
   -2.0918    2.7569   31.4874 C   0  0  0  0  0  0
   -4.1405    4.7766   30.4650 C   0  0  0  0  0  0
   -3.0274    5.5315   30.5718 C   0  0  0  0  0  0
   -1.6124    5.1162   30.6108 C   0  0  0  0  0  0
   -1.1909    3.8372   30.9968 C   0  0  0  0  0  0
    0.1836    3.5568   31.0069 C   0  0  0  0  0  0
    1.1020    4.4984   30.5479 C   0  0  0  0  0  0
    0.5999    5.7499   30.1703 C   0  0  0  0  0  0
   -0.7229    6.0669   30.2084 N   0  0  0  0  0  0
   -3.3585    2.3445   30.7874 C   0  0  0  0  0  0
   -4.3129    3.3019   30.3693 C   0  0  0  0  0  0
   -5.5210    2.8456   29.8331 C   0  0  0  0  0  0
   -5.7773    1.4938   29.6571 C   0  0  0  0  0  0
   -4.8307    0.5504   30.0281 C   0  0  0  0  0  0
   -3.6177    0.9542   30.6076 C   0  0  0  0  0  0
   -1.7004    2.1105   32.4661 O   0  0  0  0  0  0
   -5.1311   -0.7956   29.8080 N   0  0  0  0  0  0
    2.5444    4.1260   30.4259 C   0  0  0  0  0  0
    3.2575    3.0457   30.9808 C   0  0  0  0  0  0
    4.5210    2.9975   30.6080 N   0  0  0  0  0  0
    4.6844    4.0716   29.8406 N   0  0  0  0  0  0
    3.5142    4.7458   29.6659 C   0  0  0  0  0  0
    5.9673    4.3569   29.2260 C   0  0  0  0  0  0
   -2.4994   -0.3063   31.0796 Cl  0  0  0  0  0  0
   -5.0706    5.3292   30.4616 H   0  0  0  0  0  0
   -3.1786    6.5995   30.6394 H   0  0  0  0  0  0
    0.5503    2.5916   31.3213 H   0  0  0  0  0  0
    1.2595    6.5260   29.8121 H   0  0  0  0  0  0
   -6.2840    3.5504   29.5335 H   0  0  0  0  0  0
   -6.7185    1.1836   29.2263 H   0  0  0  0  0  0
   -4.3799   -1.4600   29.9321 H   0  0  0  0  0  0
   -5.8801   -1.0129   29.1667 H   0  0  0  0  0  0
    2.8476    2.2886   31.6332 H   0  0  0  0  0  0
    3.4791    5.5785   29.0079 H   0  0  0  0  0  0
    6.1163    5.4361   29.1888 H   0  0  0  0  0  0
    5.9734    3.9584   28.2121 H   0  0  0  0  0  0
    6.7771    3.9031   29.7992 H   0  0  0  0  0  0
  1 10  1  0  0  0
  1 16  2  0  0  0
  1  5  1  0  0  0
  2 11  1  0  0  0
  2  3  2  0  0  0
  2 25  1  0  0  0
  3  4  1  0  0  0
  3 26  1  0  0  0
  4  5  2  0  0  0
  4  9  1  0  0  0
  5  6  1  0  0  0
  6  7  2  0  0  0
  6 27  1  0  0  0
  7  8  1  0  0  0
  7 18  1  0  0  0
  8  9  2  0  0  0
  8 28  1  0  0  0
 10 15  1  0  0  0
 10 11  2  0  0  0
 11 12  1  0  0  0
 12 13  2  0  0  0
 12 29  1  0  0  0
 13 14  1  0  0  0
 13 30  1  0  0  0
 14 15  2  0  0  0
 14 17  1  0  0  0
 15 24  1  0  0  0
 17 31  1  0  0  0
 17 32  1  0  0  0
 18 19  1  0  0  0
 18 22  2  0  0  0
 19 20  2  0  0  0
 19 33  1  0  0  0
 20 21  1  0  0  0
 21 22  1  0  0  0
 21 23  1  0  0  0
 22 34  1  0  0  0
 23 35  1  0  0  0
 23 36  1  0  0  0
 23 37  1  0  0  0
M  END
> <s_m_entry_id>
10175

> <s_m_entry_name>
dock_pv.244

> <s_m_Source_Path>
/home/csk/Desktop/cluster/DUD-E-result/met

> <s_m_Source_File>
dock_pv.maegz

> <i_m_Source_File_Index>
244

> <chembl_id>
CHEMBL1802604

> <chembl_pref_name>
None

> <i_lp_mmshare_version>
53161

> <i_f3d_flags>
0

> <r_lp_tautomer_probability>
1

> <s_lp_Force_Field>
OPLS_2005

> <r_lp_Energy>
30.057828

> <b_lp_Chiralities_Consistent>
1

> <s_lp_Variant>
CHEMBL3717_lig739-1

> <s_i_glide_gridfile>
glide-grid_3lq8

> <i_i_glide_lignum>
800

> <i_i_glide_rotatable_bonds>
1

> <r_i_docking_score>
-7.89293840036957

> <r_i_glide_ligand_efficiency>
-0.328872433348732

> <r_i_glide_ligand_efficiency_sa>
-0.948632250361386

> <r_i_glide_ligand_efficiency_ln>
-1.88914234255145

> <r_i_glide_gscore>
-7.89293840036957

> <r_i_glide_lipo>
-3.93468015149203

> <r_i_glide_hbond>
0

> <r_i_glide_metal>
0

> <r_i_glide_rewards>
-2.36262058012946

> <r_i_glide_evdw>
-32.2854270935059

> <r_i_glide_ecoul>
-0.804679393768311

> <r_i_glide_erotb>
0.166559384259077

> <r_i_glide_esite>
-0.0272237892666196

> <r_i_glide_emodel>
-42.0571599956695

> <r_i_glide_energy>
-33.0901064872742

> <r_i_glide_einternal>
0.00522041553631425

> <i_i_glide_confnum>
1

> <i_i_glide_posenum>
1

> <r_i_glide_eff_state_penalty>
0

> <s_user_duplicate_titles>
CHEMBL3717_lig739

> <s_m_subgroup_title>
dock_pv

> <s_m_subgroupid>
dock_pv

> <b_m_subgroup_collapsed>
1

$$$$
CHEMBL3717_lig3756
                    3D
 Schrodinger Suite 2021-1.
 32 33  0  0  1  0            999 V2000
   -5.6865    2.5265   30.1993 O   0  0  0  0  0  0
   -6.5220    5.1570   30.2081 O   0  0  0  0  0  0
    1.8418    4.3540   32.0973 N   0  0  0  0  0  0
    3.1060    3.9588   32.0242 N   0  0  0  0  0  0
    4.7983    3.2707   30.4986 N   0  0  0  0  0  0
    2.2896    3.3688   27.4084 N   0  0  0  0  0  0
   -0.0464    7.0279   29.4012 N   0  0  0  0  0  0
    1.3909    4.3045   30.8625 C   0  0  0  0  0  0
    2.3905    3.8264   29.9758 C   0  0  0  0  0  0
    0.0385    4.7272   30.5752 C   0  0  0  0  0  0
    3.5144    3.6532   30.7626 C   0  0  0  0  0  0
   -2.4706    4.3304   30.7813 C   0  0  0  0  0  0
   -1.0404    3.9994   30.9372 C   0  0  0  0  0  0
   -4.7505    3.5250   30.4087 C   0  0  0  0  0  0
    2.3240    3.5744   28.5446 C   0  0  0  0  0  0
   -3.3797    3.2807   30.6080 C   0  0  0  0  0  0
   -5.2005    4.8543   30.4161 C   0  0  0  0  0  0
   -0.0156    5.9880   29.9071 C   0  0  0  0  0  0
   -2.9490    5.6458   30.7883 C   0  0  0  0  0  0
   -4.3044    5.9040   30.6082 C   0  0  0  0  0  0
   -5.2664    1.1671   30.1426 C   0  0  0  0  0  0
   -6.6391    6.0612   29.8990 H   0  0  0  0  0  0
    3.7003    3.9251   32.8372 H   0  0  0  0  0  0
    5.0784    2.9836   29.5666 H   0  0  0  0  0  0
    5.5493    3.4472   31.1491 H   0  0  0  0  0  0
   -0.8493    3.0585   31.4349 H   0  0  0  0  0  0
   -3.0043    2.2682   30.6081 H   0  0  0  0  0  0
   -2.2823    6.4807   30.9432 H   0  0  0  0  0  0
   -4.6622    6.9230   30.6083 H   0  0  0  0  0  0
   -6.1309    0.5297   29.9579 H   0  0  0  0  0  0
   -4.5560    0.9997   29.3306 H   0  0  0  0  0  0
   -4.8176    0.8460   31.0842 H   0  0  0  0  0  0
  1 14  1  0  0  0
  1 21  1  0  0  0
  2 17  1  0  0  0
  2 22  1  0  0  0
  3  4  1  0  0  0
  3  8  2  0  0  0
  4 11  1  0  0  0
  4 23  1  0  0  0
  5 11  1  0  0  0
  5 24  1  0  0  0
  5 25  1  0  0  0
  6 15  3  0  0  0
  7 18  3  0  0  0
  8  9  1  0  0  0
  8 10  1  0  0  0
  9 11  2  0  0  0
  9 15  1  0  0  0
 10 13  2  3  0  0
 10 18  1  0  0  0
 12 13  1  0  0  0
 12 16  1  0  0  0
 12 19  2  0  0  0
 13 26  1  0  0  0
 14 16  2  0  0  0
 14 17  1  0  0  0
 16 27  1  0  0  0
 17 20  2  0  0  0
 19 20  1  0  0  0
 19 28  1  0  0  0
 20 29  1  0  0  0
 21 30  1  0  0  0
 21 31  1  0  0  0
 21 32  1  0  0  0
M  END
> <s_m_entry_id>
10176

> <s_m_entry_name>
dock_pv.245

> <s_m_Source_Path>
/home/csk/Desktop/cluster/DUD-E-result/met

> <s_m_Source_File>
dock_pv.maegz

> <i_m_Source_File_Index>
245

> <chembl_id>
CHEMBL2002407

> <chembl_pref_name>
None

> <i_lp_mmshare_version>
53161

> <i_f3d_flags>
0

> <r_lp_tautomer_probability>
1

> <s_lp_Force_Field>
OPLS_2005

> <r_lp_Energy>
18.680218

> <b_lp_Chiralities_Consistent>
1

> <s_lp_Variant>
CHEMBL3717_lig3756-2

> <s_i_glide_gridfile>
glide-grid_3lq8

> <i_i_glide_lignum>
4750

> <i_i_glide_rotatable_bonds>
4

> <r_i_docking_score>
-7.89178918496509

> <r_i_glide_ligand_efficiency>
-0.375799484998338

> <r_i_glide_ligand_efficiency_sa>
-1.0368022835813

> <r_i_glide_ligand_efficiency_ln>
-1.95122892912104

> <r_i_glide_gscore>
-7.89178918496509

> <r_i_glide_lipo>
-2.93840337884665

> <r_i_glide_hbond>
-0.0771089618658295

> <r_i_glide_metal>
0

> <r_i_glide_rewards>
-2.99967806060606

> <r_i_glide_evdw>
-40.026668548584

> <r_i_glide_ecoul>
-2.21457862854004

> <r_i_glide_erotb>
0.456921438063654

> <r_i_glide_esite>
0

> <r_i_glide_emodel>
-58.1677694757861

> <r_i_glide_energy>
-42.241247177124

> <r_i_glide_einternal>
4.32355356216431

> <i_i_glide_confnum>
13

> <i_i_glide_posenum>
161

> <r_i_glide_eff_state_penalty>
0

> <s_user_duplicate_titles>
CHEMBL3717_lig3756

> <s_m_subgroup_title>
dock_pv

> <s_m_subgroupid>
dock_pv

> <b_m_subgroup_collapsed>
1

$$$$
CHEMBL3717_lig3665
                    3D
 Schrodinger Suite 2021-1.
 52 55  0  0  1  0            999 V2000
   -3.6947    1.4741   29.5480 O   0  0  0  0  0  0
   -4.9253    3.0757   30.6075 N   0  0  0  0  0  0
   -3.8148    6.5828   30.6081 N   0  0  0  0  0  0
   -4.9148   -0.2111   31.5523 N   0  0  0  0  0  0
    4.5816    3.9375   29.6201 N   0  0  0  0  0  0
   -8.5406    1.6651   29.3583 C   0  0  0  0  0  0
   -7.8660    2.0999   30.5461 C   0  0  0  0  0  0
   -9.2947    2.6230   28.6065 C   0  0  0  0  0  0
   -6.9988    1.1294   31.3585 C   0  0  0  0  0  0
   -5.6699    0.6955   30.6644 C   0  0  1  0  0  0
   -4.6781    1.8089   30.2127 C   0  0  0  0  0  0
   -8.0057    3.4229   30.9777 C   0  0  0  0  0  0
   -4.0471    4.1734   30.5803 C   0  0  0  0  0  0
   -8.5220    0.3199   28.8931 C   0  0  0  0  0  0
   -9.3750    3.9570   29.0670 C   0  0  0  0  0  0
   -9.9455    2.2222   27.4131 C   0  0  0  0  0  0
   -1.8368    5.1827   30.6324 C   0  0  0  0  0  0
   -8.7393    4.3419   30.2400 C   0  0  0  0  0  0
   -2.6502    4.0437   30.6081 C   0  0  0  0  0  0
   -9.1866   -0.0431   27.7280 C   0  0  0  0  0  0
   -4.5827    5.4644   30.6017 C   0  0  0  0  0  0
   -9.8801    0.9009   26.9834 C   0  0  0  0  0  0
   -2.4680    6.4278   30.6082 C   0  0  0  0  0  0
   -0.3663    5.0973   30.6078 C   0  0  0  0  0  0
    1.7876    4.0260   29.8951 C   0  0  0  0  0  0
    0.3255    4.1272   29.9768 C   0  0  0  0  0  0
    2.6202    4.4100   30.9535 C   0  0  0  0  0  0
    2.3721    3.5780   28.7058 C   0  0  0  0  0  0
    4.0021    4.3468   30.7734 C   0  0  0  0  0  0
    3.7638    3.5566   28.6075 C   0  0  0  0  0  0
   -5.8342    3.2437   31.0099 H   0  0  0  0  0  0
   -5.4714   -1.0072   31.8307 H   0  0  0  0  0  0
   -4.1049   -0.5813   31.0694 H   0  0  0  0  0  0
   -7.6097    0.2556   31.5902 H   0  0  0  0  0  0
   -6.7728    1.5572   32.3371 H   0  0  0  0  0  0
   -5.9152    0.1397   29.7584 H   0  0  0  0  0  0
   -7.5261    3.7529   31.8878 H   0  0  0  0  0  0
   -8.0035   -0.4466   29.4470 H   0  0  0  0  0  0
   -9.9446    4.6825   28.5036 H   0  0  0  0  0  0
  -10.4933    2.9511   26.8341 H   0  0  0  0  0  0
   -8.8208    5.3656   30.5767 H   0  0  0  0  0  0
   -2.1893    3.0676   30.6331 H   0  0  0  0  0  0
   -9.1594   -1.0734   27.4084 H   0  0  0  0  0  0
   -5.6511    5.6297   30.5886 H   0  0  0  0  0  0
  -10.3812    0.6054   26.0723 H   0  0  0  0  0  0
   -1.8864    7.3384   30.5970 H   0  0  0  0  0  0
    0.1677    5.8801   31.1293 H   0  0  0  0  0  0
   -0.2156    3.3417   29.4664 H   0  0  0  0  0  0
    2.2077    4.7579   31.8884 H   0  0  0  0  0  0
    1.7624    3.2706   27.8672 H   0  0  0  0  0  0
    4.6776    4.6469   31.5602 H   0  0  0  0  0  0
    4.2462    3.2132   27.7058 H   0  0  0  0  0  0
  1 11  2  0  0  0
  2 11  1  0  0  0
  2 13  1  0  0  0
  2 31  1  0  0  0
  3 21  1  0  0  0
  3 23  2  0  0  0
  4 10  1  0  0  0
  4 32  1  0  0  0
  4 33  1  0  0  0
  5 29  2  0  0  0
  5 30  1  0  0  0
  6  7  1  0  0  0
  6  8  1  0  0  0
  6 14  2  0  0  0
  7  9  1  0  0  0
  7 12  2  0  0  0
  8 15  1  0  0  0
  8 16  2  0  0  0
  9 10  1  0  0  0
  9 34  1  0  0  0
  9 35  1  0  0  0
 10 11  1  0  0  0
 10 36  1  0  0  0
 12 18  1  0  0  0
 12 37  1  0  0  0
 13 19  1  0  0  0
 13 21  2  0  0  0
 14 20  1  0  0  0
 14 38  1  0  0  0
 15 18  2  0  0  0
 15 39  1  0  0  0
 16 22  1  0  0  0
 16 40  1  0  0  0
 17 19  2  0  0  0
 17 23  1  0  0  0
 17 24  1  0  0  0
 18 41  1  0  0  0
 19 42  1  0  0  0
 20 22  2  0  0  0
 20 43  1  0  0  0
 21 44  1  0  0  0
 22 45  1  0  0  0
 23 46  1  0  0  0
 24 26  2  3  0  0
 24 47  1  0  0  0
 25 26  1  0  0  0
 25 27  2  0  0  0
 25 28  1  0  0  0
 26 48  1  0  0  0
 27 29  1  0  0  0
 27 49  1  0  0  0
 28 30  2  0  0  0
 28 50  1  0  0  0
 29 51  1  0  0  0
 30 52  1  0  0  0
M  END
> <s_m_entry_id>
10177

> <s_m_entry_name>
dock_pv.246

> <s_m_Source_Path>
/home/csk/Desktop/cluster/DUD-E-result/met

> <s_m_Source_File>
dock_pv.maegz

> <i_m_Source_File_Index>
246

> <chembl_id>
CHEMBL1985580

> <chembl_pref_name>
None

> <i_lp_mmshare_version>
53161

> <i_f3d_flags>
0

> <r_lp_tautomer_probability>
1

> <s_lp_Force_Field>
OPLS_2005

> <r_lp_Energy>
29.790586

> <b_lp_Chiralities_Consistent>
1

> <s_lp_Variant>
CHEMBL3717_lig3665-3

> <s_i_glide_gridfile>
glide-grid_3lq8

> <i_i_glide_lignum>
4603

> <i_i_glide_rotatable_bonds>
7

> <r_i_docking_score>
-7.89166218985563

> <r_i_glide_ligand_efficiency>
-0.263055406328521

> <r_i_glide_ligand_efficiency_sa>
-0.817374308484197

> <r_i_glide_ligand_efficiency_ln>
-1.79307163608174

> <r_i_glide_gscore>
-7.89166218985563

> <r_i_glide_lipo>
-3.95554635499249

> <r_i_glide_hbond>
-0.134933518119207

> <r_i_glide_metal>
0

> <r_i_glide_rewards>
-1.97768628342522

> <r_i_glide_evdw>
-46.6407012939453

> <r_i_glide_ecoul>
-1.63403737545013

> <r_i_glide_erotb>
0.753644637696072

> <r_i_glide_esite>
0

> <r_i_glide_emodel>
-66.6028287201808

> <r_i_glide_energy>
-48.2747386693954

> <r_i_glide_einternal>
7.65506553649902

> <i_i_glide_confnum>
11

> <i_i_glide_posenum>
274

> <r_i_glide_eff_state_penalty>
0

> <s_user_duplicate_titles>
CHEMBL3717_lig3665

> <s_m_subgroup_title>
dock_pv

> <s_m_subgroupid>
dock_pv

> <b_m_subgroup_collapsed>
1

$$$$
CHEMBL3717_lig666
                    3D
 Schrodinger Suite 2021-1.
 51 54  0  0  1  0            999 V2000
   -1.3732    5.6950   30.7858 C   0  0  0  0  0  0
   -2.4913    6.4465   30.4467 C   0  0  0  0  0  0
   -3.7325    5.8424   30.2905 C   0  0  0  0  0  0
   -1.4562    4.3163   31.0076 C   0  0  0  0  0  0
   -2.7182    3.6709   30.8042 C   0  0  0  0  0  0
   -3.8610    4.4466   30.4387 C   0  0  0  0  0  0
   -5.0750    3.8796   30.2081 N   0  0  0  0  0  0
   -5.1810    2.5298   30.2571 C   0  0  0  0  0  0
   -4.1374    1.6667   30.6080 C   0  0  0  0  0  0
   -2.9169    2.2693   30.9300 C   0  0  0  0  0  0
   -4.2811    0.2770   30.6051 N   0  0  0  0  0  0
   -3.1671   -0.6885   30.7131 C   0  0  0  0  0  0
   -3.2445   -1.8005   29.6515 C   0  0  0  0  0  0
   -4.4852   -2.5468   29.8133 N   0  0  0  0  0  0
   -5.6141   -1.6312   29.6237 C   0  0  0  0  0  0
   -5.5582   -0.4662   30.6454 C   0  0  0  0  0  0
   -0.3380    3.5572   31.4023 N   0  0  0  0  0  0
   -4.5141   -3.6368   28.8416 C   0  0  0  0  0  0
    0.9997    4.1078   31.6278 C   0  0  0  0  0  0
    1.9404    3.9472   30.4360 C   0  0  0  0  0  0
    3.3020    4.1823   30.6451 C   0  0  0  0  0  0
    4.2384    3.9970   29.6179 C   0  0  0  0  0  0
    3.7806    3.5579   28.3673 C   0  0  0  0  0  0
    2.4230    3.3513   28.1359 C   0  0  0  0  0  0
    1.5048    3.5570   29.1606 C   0  0  0  0  0  0
    5.6780    4.2548   29.8503 N   0  3  0  0  0  0
    6.0763    4.3575   31.0070 O   0  0  0  0  0  0
    6.4152    4.3578   28.8769 O   0  5  0  0  0  0
   -0.4365    6.2213   30.8870 H   0  0  0  0  0  0
   -2.3913    7.5114   30.3022 H   0  0  0  0  0  0
   -4.5984    6.4272   30.0209 H   0  0  0  0  0  0
   -6.1554    2.1579   29.9892 H   0  0  0  0  0  0
   -2.0940    1.6691   31.2607 H   0  0  0  0  0  0
   -2.1965   -0.2187   30.6063 H   0  0  0  0  0  0
   -3.1629   -1.1123   31.7188 H   0  0  0  0  0  0
   -3.1719   -1.3724   28.6486 H   0  0  0  0  0  0
   -2.3943   -2.4747   29.7736 H   0  0  0  0  0  0
   -6.5467   -2.1826   29.7550 H   0  0  0  0  0  0
   -5.6268   -1.2319   28.6081 H   0  0  0  0  0  0
   -5.6957   -0.8506   31.6577 H   0  0  0  0  0  0
   -6.4150    0.1826   30.4815 H   0  0  0  0  0  0
   -0.5572    2.7302   31.9380 H   0  0  0  0  0  0
   -5.4115   -4.2407   28.9780 H   0  0  0  0  0  0
   -4.4893   -3.2597   27.8154 H   0  0  0  0  0  0
   -3.6530   -4.2904   28.9710 H   0  0  0  0  0  0
    1.4408    3.5574   32.4621 H   0  0  0  0  0  0
    0.9782    5.1474   31.9562 H   0  0  0  0  0  0
    3.6343    4.5036   31.6225 H   0  0  0  0  0  0
    4.4804    3.3782   27.5656 H   0  0  0  0  0  0
    2.0825    3.0219   27.1664 H   0  0  0  0  0  0
    0.4583    3.3761   28.9611 H   0  0  0  0  0  0
  1  2  2  0  0  0
  1  4  1  0  0  0
  1 29  1  0  0  0
  2  3  1  0  0  0
  2 30  1  0  0  0
  3  6  2  0  0  0
  3 31  1  0  0  0
  4 17  1  0  0  0
  4  5  2  0  0  0
  5 10  1  0  0  0
  5  6  1  0  0  0
  6  7  1  0  0  0
  7  8  2  0  0  0
  8  9  1  0  0  0
  8 32  1  0  0  0
  9 10  2  0  0  0
  9 11  1  0  0  0
 10 33  1  0  0  0
 11 16  1  0  0  0
 11 12  1  0  0  0
 12 13  1  0  0  0
 12 34  1  0  0  0
 12 35  1  0  0  0
 13 14  1  0  0  0
 13 36  1  0  0  0
 13 37  1  0  0  0
 14 15  1  0  0  0
 14 18  1  0  0  0
 15 16  1  0  0  0
 15 38  1  0  0  0
 15 39  1  0  0  0
 16 40  1  0  0  0
 16 41  1  0  0  0
 17 19  1  0  0  0
 17 42  1  0  0  0
 18 43  1  0  0  0
 18 44  1  0  0  0
 18 45  1  0  0  0
 19 20  1  0  0  0
 19 46  1  0  0  0
 19 47  1  0  0  0
 20 21  2  0  0  0
 20 25  1  0  0  0
 21 22  1  0  0  0
 21 48  1  0  0  0
 22 23  2  0  0  0
 22 26  1  0  0  0
 23 24  1  0  0  0
 23 49  1  0  0  0
 24 25  2  0  0  0
 24 50  1  0  0  0
 25 51  1  0  0  0
 26 27  2  0  0  0
 26 28  1  0  0  0
M  CHG  2  26   1  28  -1
M  END
> <s_m_entry_id>
10178

> <s_m_entry_name>
dock_pv.247

> <s_m_Source_Path>
/home/csk/Desktop/cluster/DUD-E-result/met

> <s_m_Source_File>
dock_pv.maegz

> <i_m_Source_File_Index>
247

> <chembl_id>
CHEMBL1766513

> <chembl_pref_name>
None

> <i_lp_mmshare_version>
53161

> <i_f3d_flags>
0

> <r_lp_tautomer_probability>
1

> <s_lp_Force_Field>
OPLS_2005

> <r_lp_Energy>
49.095932

> <b_lp_Chiralities_Consistent>
1

> <s_lp_Variant>
CHEMBL3717_lig666-1

> <s_i_glide_gridfile>
glide-grid_3lq8

> <i_i_glide_lignum>
724

> <i_i_glide_rotatable_bonds>
5

> <r_i_docking_score>
-7.8865956817804

> <r_i_glide_ligand_efficiency>
-0.281664131492157

> <r_i_glide_ligand_efficiency_sa>
-0.855298194512011

> <r_i_glide_ligand_efficiency_ln>
-1.82045784386607

> <r_i_glide_gscore>
-7.8865956817804

> <r_i_glide_lipo>
-4.36066828232979

> <r_i_glide_hbond>
0

> <r_i_glide_metal>
0

> <r_i_glide_rewards>
-2.04899457466307

> <r_i_glide_evdw>
-42.8474769592285

> <r_i_glide_ecoul>
1.08908236026764

> <r_i_glide_erotb>
0.54382620847254

> <r_i_glide_esite>
-0.0417475393388015

> <r_i_glide_emodel>
-59.1730578759391

> <r_i_glide_energy>
-41.7583945989609

> <r_i_glide_einternal>
4.98175621032715

> <i_i_glide_confnum>
39

> <i_i_glide_posenum>
332

> <r_i_glide_eff_state_penalty>
0

> <s_user_duplicate_titles>
CHEMBL3717_lig666

> <s_m_subgroup_title>
dock_pv

> <s_m_subgroupid>
dock_pv

> <b_m_subgroup_collapsed>
1

$$$$
CHEMBL3717_lig2119
                    3D
 Schrodinger Suite 2021-1.
 47 51  0  0  1  0            999 V2000
   -5.5706   -2.7205   30.2883 C   0  0  0  0  0  0
   -6.4443   -1.7652   29.4554 C   0  0  0  0  0  0
   -6.3567   -0.4127   29.9897 N   0  0  0  0  0  0
   -7.2202   -0.0093   30.9312 N   0  0  0  0  0  0
   -6.8565    1.2229   31.2038 C   0  0  0  0  0  0
   -5.7256    1.6419   30.4849 C   0  0  0  0  0  0
   -5.4127    0.5388   29.7038 C   0  0  0  0  0  0
   -3.6648    5.4109   30.6084 C   0  0  0  0  0  0
   -5.0725    5.3772   30.6080 C   0  0  0  0  0  0
   -5.7327    4.1473   30.5858 C   0  0  0  0  0  0
   -5.0239    2.9468   30.5498 C   0  0  0  0  0  0
   -3.6331    2.9777   30.5813 C   0  0  0  0  0  0
   -2.9795    4.1849   30.6084 N   0  0  0  0  0  0
   -2.7923    6.4542   30.6078 N   0  0  0  0  0  0
   -1.6007    5.8901   30.6081 C   0  0  0  0  0  0
   -1.6392    4.4952   30.6232 C   0  0  0  0  0  0
   -0.6036    3.3900   30.6083 C   0  0  0  0  0  0
    4.9524    4.6496   30.6513 N   0  0  0  0  0  0
    5.6553    4.6821   29.4993 C   0  0  0  0  0  0
    5.1038    4.3566   28.2691 C   0  0  0  0  0  0
    3.7649    3.9567   28.2080 C   0  0  0  0  0  0
    2.9765    3.9921   29.3771 C   0  0  0  0  0  0
    1.5875    3.7109   29.3821 C   0  0  0  0  0  0
    0.8614    3.7869   30.5739 C   0  0  0  0  0  0
    1.5079    4.1129   31.7617 C   0  0  0  0  0  0
    2.8736    4.3569   31.7838 C   0  0  0  0  0  0
    3.6277    4.3340   30.5964 C   0  0  0  0  0  0
   -5.7911    6.5178   30.6080 F   0  0  0  0  0  0
   -5.6940   -4.0425   29.8066 O   0  0  0  0  0  0
   -5.8492   -2.6789   31.3431 H   0  0  0  0  0  0
   -4.5275   -2.3990   30.2716 H   0  0  0  0  0  0
   -6.0940   -1.6968   28.4265 H   0  0  0  0  0  0
   -7.4946   -2.0617   29.4776 H   0  0  0  0  0  0
   -7.3902    1.8096   31.9370 H   0  0  0  0  0  0
   -4.6332    0.3469   28.9789 H   0  0  0  0  0  0
   -6.8131    4.1336   30.5655 H   0  0  0  0  0  0
   -3.0261    2.0852   30.5735 H   0  0  0  0  0  0
   -0.7000    6.4886   30.5997 H   0  0  0  0  0  0
   -0.7487    2.7571   31.4836 H   0  0  0  0  0  0
   -0.7955    2.7572   29.7474 H   0  0  0  0  0  0
    6.6962    4.9613   29.5782 H   0  0  0  0  0  0
    5.7280    4.3684   27.3912 H   0  0  0  0  0  0
    3.3022    3.6450   27.2849 H   0  0  0  0  0  0
    1.1009    3.4320   28.4577 H   0  0  0  0  0  0
    0.9530    4.1543   32.6833 H   0  0  0  0  0  0
    3.3668    4.6122   32.7006 H   0  0  0  0  0  0
   -4.9985   -4.5900   30.2082 H   0  0  0  0  0  0
  1  2  1  0  0  0
  1 29  1  0  0  0
  1 30  1  0  0  0
  1 31  1  0  0  0
  2  3  1  0  0  0
  2 32  1  0  0  0
  2 33  1  0  0  0
  3  4  1  0  0  0
  3  7  1  0  0  0
  4  5  2  0  0  0
  5  6  1  0  0  0
  5 34  1  0  0  0
  6  7  2  0  0  0
  6 11  1  0  0  0
  7 35  1  0  0  0
  8  9  1  0  0  0
  8 13  1  0  0  0
  8 14  2  0  0  0
  9 10  2  0  0  0
  9 28  1  0  0  0
 10 11  1  0  0  0
 10 36  1  0  0  0
 11 12  2  0  0  0
 12 13  1  0  0  0
 12 37  1  0  0  0
 13 16  1  0  0  0
 14 15  1  0  0  0
 15 16  2  0  0  0
 15 38  1  0  0  0
 16 17  1  0  0  0
 17 24  1  0  0  0
 17 39  1  0  0  0
 17 40  1  0  0  0
 18 19  2  0  0  0
 18 27  1  0  0  0
 19 20  1  0  0  0
 19 41  1  0  0  0
 20 21  2  0  0  0
 20 42  1  0  0  0
 21 22  1  0  0  0
 21 43  1  0  0  0
 22 23  2  0  0  0
 22 27  1  0  0  0
 23 24  1  0  0  0
 23 44  1  0  0  0
 24 25  2  0  0  0
 25 26  1  0  0  0
 25 45  1  0  0  0
 26 27  2  0  0  0
 26 46  1  0  0  0
 29 47  1  0  0  0
M  END
> <s_m_entry_id>
10179

> <s_m_entry_name>
dock_pv.248

> <s_m_Source_Path>
/home/csk/Desktop/cluster/DUD-E-result/met

> <s_m_Source_File>
dock_pv.maegz

> <i_m_Source_File_Index>
248

> <chembl_id>
CHEMBL3582280

> <chembl_pref_name>
None

> <i_lp_mmshare_version>
53161

> <i_f3d_flags>
0

> <r_lp_tautomer_probability>
1

> <s_lp_Force_Field>
OPLS_2005

> <r_lp_Energy>
20.200766

> <b_lp_Chiralities_Consistent>
1

> <s_lp_Variant>
CHEMBL3717_lig2119-1

> <s_i_glide_gridfile>
glide-grid_3lq8

> <i_i_glide_lignum>
2417

> <i_i_glide_rotatable_bonds>
6

> <r_i_docking_score>
-7.88433109418941

> <r_i_glide_ligand_efficiency>
-0.271873486006531

> <r_i_glide_ligand_efficiency_sa>
-0.835281484578186

> <r_i_glide_ligand_efficiency_ln>
-1.80531189118321

> <r_i_glide_gscore>
-7.88433109418941

> <r_i_glide_lipo>
-3.64536398663974

> <r_i_glide_hbond>
-0.16

> <r_i_glide_metal>
0

> <r_i_glide_rewards>
-2.16885190394302

> <r_i_glide_evdw>
-38.2876396179199

> <r_i_glide_ecoul>
-4.26205635070801

> <r_i_glide_erotb>
0.648741357612818

> <r_i_glide_esite>
-0.00516612771727675

> <r_i_glide_emodel>
-60.5039763021378

> <r_i_glide_energy>
-42.5496959686279

> <r_i_glide_einternal>
5.44803905487061

> <i_i_glide_confnum>
29

> <i_i_glide_posenum>
377

> <r_i_glide_eff_state_penalty>
0

> <s_user_duplicate_titles>
CHEMBL3717_lig2119

> <s_m_subgroup_title>
dock_pv

> <s_m_subgroupid>
dock_pv

> <b_m_subgroup_collapsed>
1

$$$$
CHEMBL3717_lig603
                    3D
 Schrodinger Suite 2021-1.
 52 56  0  0  1  0            999 V2000
   -6.9698    5.1570   30.5743 N   0  0  0  0  0  0
   -5.6192    5.1994   30.6689 C   0  0  0  0  0  0
   -4.8071    4.0800   30.4910 C   0  0  0  0  0  0
   -5.4369    2.8606   30.2102 C   0  0  0  0  0  0
   -6.8323    2.7833   30.1025 C   0  0  0  0  0  0
   -7.5601    3.9749   30.2774 C   0  0  0  0  0  0
   -7.4414    1.4536   29.7863 C   0  0  0  0  0  0
   -6.7697    0.3344   30.2036 O   0  0  0  0  0  0
   -8.5684    1.2275   29.1374 N   0  0  0  0  0  0
   -3.3246    4.1744   30.6083 C   0  0  0  0  0  0
   -8.6659   -0.1362   29.1218 C   0  0  0  0  0  0
   -7.5564   -0.6908   29.7815 C   0  0  0  0  0  0
   -7.3642   -2.0655   29.9459 C   0  0  0  0  0  0
   -8.3558   -2.8929   29.4090 C   0  0  0  0  0  0
   -9.4697   -2.3654   28.7408 C   0  0  0  0  0  0
   -9.6437   -0.9850   28.5838 C   0  0  0  0  0  0
   -2.4198    3.1185   30.7806 C   0  0  0  0  0  0
   -1.1701    3.5054   30.8208 N   0  0  0  0  0  0
   -1.2133    4.8370   30.7204 N   0  0  0  0  0  0
   -2.5029    5.2977   30.6083 C   0  0  0  0  0  0
    0.0314    5.6122   30.6858 C   0  0  0  0  0  0
    1.1137    5.1194   31.6620 C   0  0  0  0  0  0
    1.9172    3.8764   31.1957 C   0  0  0  0  0  0
    2.3711    4.1234   29.8059 N   0  0  0  0  0  0
    1.3340    4.4646   28.8074 C   0  0  0  0  0  0
    0.6492    5.7584   29.2899 C   0  0  0  0  0  0
    3.6399    3.8736   29.3888 C   0  0  0  0  0  0
    3.9811    3.9556   28.2083 O   0  0  0  0  0  0
    4.7314    3.5626   30.4163 C   0  0  0  0  0  0
   -8.9432    4.0270   30.1437 N   0  0  0  0  0  0
   -5.1926    6.1658   30.8899 H   0  0  0  0  0  0
   -4.8443    1.9701   30.0653 H   0  0  0  0  0  0
   -6.4990   -2.4628   30.4569 H   0  0  0  0  0  0
   -8.2583   -3.9658   29.5030 H   0  0  0  0  0  0
  -10.2076   -3.0470   28.3379 H   0  0  0  0  0  0
  -10.5032   -0.5852   28.0661 H   0  0  0  0  0  0
   -2.6755    2.0711   30.8585 H   0  0  0  0  0  0
   -2.7109    6.3518   30.5054 H   0  0  0  0  0  0
   -0.2847    6.6040   31.0071 H   0  0  0  0  0  0
    0.7068    4.9818   32.6589 H   0  0  0  0  0  0
    1.7907    5.9518   31.8008 H   0  0  0  0  0  0
    1.2891    2.9855   31.1962 H   0  0  0  0  0  0
    2.7350    3.7339   31.9015 H   0  0  0  0  0  0
    1.7300    4.6105   27.8028 H   0  0  0  0  0  0
    0.6128    3.6462   28.7632 H   0  0  0  0  0  0
    1.3454    6.5936   29.3185 H   0  0  0  0  0  0
   -0.0930    6.1104   28.5767 H   0  0  0  0  0  0
    4.4804    2.6746   30.9954 H   0  0  0  0  0  0
    4.8753    4.4059   31.0907 H   0  0  0  0  0  0
    5.6763    3.3702   29.9085 H   0  0  0  0  0  0
   -9.4146    3.1989   29.8017 H   0  0  0  0  0  0
   -9.3786    4.9375   30.0958 H   0  0  0  0  0  0
  1  6  1  0  0  0
  1  2  2  0  0  0
  2  3  1  0  0  0
  2 31  1  0  0  0
  3  4  2  0  0  0
  3 10  1  0  0  0
  4  5  1  0  0  0
  4 32  1  0  0  0
  5  7  1  0  0  0
  5  6  2  0  0  0
  6 30  1  0  0  0
  7  8  1  0  0  0
  7  9  2  0  0  0
  8 12  1  0  0  0
  9 11  1  0  0  0
 10 17  1  0  0  0
 10 20  2  0  0  0
 11 16  1  0  0  0
 11 12  2  0  0  0
 12 13  1  0  0  0
 13 14  2  0  0  0
 13 33  1  0  0  0
 14 15  1  0  0  0
 14 34  1  0  0  0
 15 16  2  0  0  0
 15 35  1  0  0  0
 16 36  1  0  0  0
 17 18  2  0  0  0
 17 37  1  0  0  0
 18 19  1  0  0  0
 19 20  1  0  0  0
 19 21  1  0  0  0
 20 38  1  0  0  0
 21 22  1  0  0  0
 21 26  1  0  0  0
 21 39  1  0  0  0
 22 23  1  0  0  0
 22 40  1  0  0  0
 22 41  1  0  0  0
 23 24  1  0  0  0
 23 42  1  0  0  0
 23 43  1  0  0  0
 24 25  1  0  0  0
 24 27  1  0  0  0
 25 26  1  0  0  0
 25 44  1  0  0  0
 25 45  1  0  0  0
 26 46  1  0  0  0
 26 47  1  0  0  0
 27 28  2  0  0  0
 27 29  1  0  0  0
 29 48  1  0  0  0
 29 49  1  0  0  0
 29 50  1  0  0  0
 30 51  1  0  0  0
 30 52  1  0  0  0
M  END
> <s_m_entry_id>
10180

> <s_m_entry_name>
dock_pv.249

> <s_m_Source_Path>
/home/csk/Desktop/cluster/DUD-E-result/met

> <s_m_Source_File>
dock_pv.maegz

> <i_m_Source_File_Index>
249

> <chembl_id>
CHEMBL1171941

> <chembl_pref_name>
None

> <i_lp_mmshare_version>
53161

> <i_f3d_flags>
0

> <r_lp_tautomer_probability>
0.999999772200052

> <s_lp_Force_Field>
OPLS_2005

> <r_lp_Energy>
40.969963

> <b_lp_Chiralities_Consistent>
1

> <s_lp_Variant>
CHEMBL3717_lig603-1

> <s_i_glide_gridfile>
glide-grid_3lq8

> <i_i_glide_lignum>
657

> <i_i_glide_rotatable_bonds>
4

> <r_i_docking_score>
-7.88370092880796

> <r_i_glide_ligand_efficiency>
-0.262790030960265

> <r_i_glide_ligand_efficiency_sa>
-0.816549725514608

> <r_i_glide_ligand_efficiency_ln>
-1.79126275082682

> <r_i_glide_gscore>
-7.88370092880796

> <r_i_glide_lipo>
-3.52253542301674

> <r_i_glide_hbond>
0

> <r_i_glide_metal>
0

> <r_i_glide_rewards>
-2.43812435056336

> <r_i_glide_evdw>
-45.3936500549316

> <r_i_glide_ecoul>
-0.112279027700424

> <r_i_glide_erotb>
0.363483201673784

> <r_i_glide_esite>
0

> <r_i_glide_emodel>
-63.3103823044681

> <r_i_glide_energy>
-45.5059290826321

> <r_i_glide_einternal>
4.27539110183716

> <i_i_glide_confnum>
4

> <i_i_glide_posenum>
29

> <r_i_glide_eff_state_penalty>
0

> <s_user_duplicate_titles>
CHEMBL3717_lig603,648601

> <s_m_subgroup_title>
dock_pv

> <s_m_subgroupid>
dock_pv

> <b_m_subgroup_collapsed>
1

$$$$
CHEMBL3717_lig1878
                    3D
 Schrodinger Suite 2021-1.
 37 41  0  0  1  0            999 V2000
   -4.0467    4.4319   30.6078 C   0  0  0  0  0  0
   -5.2093    5.1308   30.9835 C   0  0  0  0  0  0
   -6.4465    4.5556   30.9984 N   0  0  0  0  0  0
   -4.0966    3.1267   30.2071 N   0  0  0  0  0  0
   -5.3181    2.5878   30.2096 C   0  0  0  0  0  0
   -6.4869    3.2753   30.6083 C   0  0  0  0  0  0
   -7.5535    2.4339   30.5111 N   0  0  0  0  0  0
   -7.0813    1.2337   30.0110 N   0  0  0  0  0  0
   -5.7490    1.3333   29.8101 N   0  0  0  0  0  0
   -2.6892    5.0498   30.6160 C   0  0  0  0  0  0
   -5.0268    0.2694   29.1164 C   0  0  0  0  0  0
   -4.4355   -0.8206   29.9988 C   0  0  0  0  0  0
   -4.6531   -2.0886   29.7163 N   0  0  0  0  0  0
   -3.8931   -2.8399   30.5379 N   0  0  0  0  0  0
   -3.5214   -0.7149   31.0974 C   0  0  0  0  0  0
   -3.1593   -2.0483   31.3906 C   0  0  0  0  0  0
   -2.2701   -2.4422   32.3067 N   0  0  0  0  0  0
   -1.6937   -1.4309   33.0071 C   0  0  0  0  0  0
   -2.0090   -0.0795   32.8496 C   0  0  0  0  0  0
   -2.9243    0.2979   31.8647 C   0  0  0  0  0  0
   -1.5536    4.3026   30.9690 C   0  0  0  0  0  0
   -0.2791    4.8531   30.8571 C   0  0  0  0  0  0
   -0.1313    6.1577   30.3978 C   0  0  0  0  0  0
   -1.2473    6.9324   30.0980 C   0  0  0  0  0  0
   -2.5201    6.3803   30.2197 C   0  0  0  0  0  0
    1.1034    6.6802   30.2445 F   0  0  0  0  0  0
   -5.1686    6.1632   31.2936 H   0  0  0  0  0  0
   -4.2322    0.7394   28.5368 H   0  0  0  0  0  0
   -5.7041   -0.1482   28.3694 H   0  0  0  0  0  0
   -3.8722   -3.8586   30.4764 H   0  0  0  0  0  0
   -0.9626   -1.7338   33.7428 H   0  0  0  0  0  0
   -1.5231    0.6696   33.4567 H   0  0  0  0  0  0
   -3.1614    1.3353   31.7084 H   0  0  0  0  0  0
   -1.6518    3.2779   31.2963 H   0  0  0  0  0  0
    0.5924    4.2638   31.0996 H   0  0  0  0  0  0
   -1.1199    7.9513   29.7595 H   0  0  0  0  0  0
   -3.3805    6.9742   29.9526 H   0  0  0  0  0  0
  1  2  1  0  0  0
  1  4  2  0  0  0
  1 10  1  0  0  0
  2  3  2  0  0  0
  2 27  1  0  0  0
  3  6  1  0  0  0
  4  5  1  0  0  0
  5  6  2  0  0  0
  5  9  1  0  0  0
  6  7  1  0  0  0
  7  8  2  0  0  0
  8  9  1  0  0  0
  9 11  1  0  0  0
 10 21  2  0  0  0
 10 25  1  0  0  0
 11 12  1  0  0  0
 11 28  1  0  0  0
 11 29  1  0  0  0
 12 13  2  0  0  0
 12 15  1  0  0  0
 13 14  1  0  0  0
 14 16  1  0  0  0
 14 30  1  0  0  0
 15 16  2  0  0  0
 15 20  1  0  0  0
 16 17  1  0  0  0
 17 18  2  0  0  0
 18 19  1  0  0  0
 18 31  1  0  0  0
 19 20  2  0  0  0
 19 32  1  0  0  0
 20 33  1  0  0  0
 21 22  1  0  0  0
 21 34  1  0  0  0
 22 23  2  0  0  0
 22 35  1  0  0  0
 23 24  1  0  0  0
 23 26  1  0  0  0
 24 25  2  0  0  0
 24 36  1  0  0  0
 25 37  1  0  0  0
M  END
> <s_m_entry_id>
10181

> <s_m_entry_name>
dock_pv.250

> <s_m_Source_Path>
/home/csk/Desktop/cluster/DUD-E-result/met

> <s_m_Source_File>
dock_pv.maegz

> <i_m_Source_File_Index>
250

> <chembl_id>
CHEMBL3334564

> <chembl_pref_name>
None

> <i_lp_mmshare_version>
53161

> <i_f3d_flags>
0

> <r_lp_tautomer_probability>
0.960980075423508

> <s_lp_Force_Field>
OPLS_2005

> <r_lp_Energy>
20.348327

> <b_lp_Chiralities_Consistent>
1

> <s_lp_Variant>
CHEMBL3717_lig1878-1

> <s_i_glide_gridfile>
glide-grid_3lq8

> <i_i_glide_lignum>
2169

> <i_i_glide_rotatable_bonds>
3

> <r_i_docking_score>
-7.87737090199707

> <r_i_glide_ligand_efficiency>
-0.302975803922964

> <r_i_glide_ligand_efficiency_sa>
-0.89756462696956

> <r_i_glide_ligand_efficiency_ln>
-1.84997470857184

> <r_i_glide_gscore>
-7.87737090199707

> <r_i_glide_lipo>
-3.19759182199117

> <r_i_glide_hbond>
-0.16

> <r_i_glide_metal>
0

> <r_i_glide_rewards>
-2.61833423851625

> <r_i_glide_evdw>
-37.5437316894531

> <r_i_glide_ecoul>
-2.74355053901672

> <r_i_glide_erotb>
0.475511089442428

> <r_i_glide_esite>
-0.0882367656069112

> <r_i_glide_emodel>
-55.8207329354159

> <r_i_glide_energy>
-40.2872822284698

> <r_i_glide_einternal>
1.87855565547943

> <i_i_glide_confnum>
8

> <i_i_glide_posenum>
296

> <r_i_glide_eff_state_penalty>
0

> <s_user_duplicate_titles>
CHEMBL3717_lig1878,CHEMBL3717_lig1878

> <s_m_subgroup_title>
dock_pv

> <s_m_subgroupid>
dock_pv

> <b_m_subgroup_collapsed>
1

$$$$
CHEMBL3717_lig2113
                    3D
 Schrodinger Suite 2021-1.
 43 47  0  0  1  0            999 V2000
   -1.3309   -2.4429   32.1468 N   0  0  0  0  0  0
   -0.8941   -1.8926   33.3044 C   0  0  0  0  0  0
   -1.2770   -0.6344   33.7503 C   0  0  0  0  0  0
   -2.2046    0.0820   33.0079 C   0  0  0  0  0  0
   -2.7861   -0.5121   31.8614 C   0  0  0  0  0  0
   -3.8383    0.0887   31.1391 C   0  0  0  0  0  0
   -4.3255   -0.4944   29.9627 C   0  0  0  0  0  0
   -3.7659   -1.6928   29.5186 C   0  0  0  0  0  0
   -2.7629   -2.3348   30.2350 C   0  0  0  0  0  0
   -2.2745   -1.7715   31.4324 C   0  0  0  0  0  0
   -5.4218    0.1441   29.1042 C   0  0  0  0  0  0
   -6.9796    3.1397   30.6066 C   0  0  0  0  0  0
   -6.8007    4.4614   31.0526 C   0  0  0  0  0  0
   -5.5245    5.0309   31.0079 C   0  0  0  0  0  0
   -4.4130    4.3091   30.5591 C   0  0  0  0  0  0
   -4.6146    3.0189   30.0748 C   0  0  0  0  0  0
   -5.8596    2.4501   30.1159 N   0  0  0  0  0  0
   -8.0895    2.3594   30.5608 N   0  0  0  0  0  0
   -7.6692    1.2231   30.0491 C   0  0  0  0  0  0
   -6.3071    1.2009   29.7502 C   0  0  0  0  0  0
   -7.8398    5.1570   31.5636 F   0  0  0  0  0  0
   -3.0360    4.8657   30.6081 C   0  0  0  0  0  0
   -1.9513    4.0689   31.0079 C   0  0  0  0  0  0
   -0.6521    4.5749   31.0078 C   0  0  0  0  0  0
   -0.4182    5.8863   30.6053 C   0  0  0  0  0  0
   -1.4861    6.6879   30.2080 C   0  0  0  0  0  0
   -2.7848    6.1838   30.2188 C   0  0  0  0  0  0
   -1.2657    7.9569   29.8155 F   0  0  0  0  0  0
    0.3787    3.7933   31.3992 F   0  0  0  0  0  0
   -0.1780   -2.4759   33.8645 H   0  0  0  0  0  0
   -0.8935   -0.2264   34.6722 H   0  0  0  0  0  0
   -2.4939    1.0670   33.3332 H   0  0  0  0  0  0
   -4.2515    0.9977   31.5378 H   0  0  0  0  0  0
   -4.1248   -2.1480   28.6081 H   0  0  0  0  0  0
   -2.3611   -3.2697   29.8789 H   0  0  0  0  0  0
   -4.9373    0.5576   28.2183 H   0  0  0  0  0  0
   -6.0548   -0.6600   28.7238 H   0  0  0  0  0  0
   -5.3947    6.0364   31.3781 H   0  0  0  0  0  0
   -3.8190    2.4028   29.6822 H   0  0  0  0  0  0
   -8.3560    0.4051   29.8809 H   0  0  0  0  0  0
   -2.1086    3.0465   31.3196 H   0  0  0  0  0  0
    0.5862    6.2818   30.6007 H   0  0  0  0  0  0
   -3.6018    6.8106   29.8975 H   0  0  0  0  0  0
  1  2  2  0  0  0
  1 10  1  0  0  0
  2  3  1  0  0  0
  2 30  1  0  0  0
  3  4  2  0  0  0
  3 31  1  0  0  0
  4  5  1  0  0  0
  4 32  1  0  0  0
  5  6  2  0  0  0
  5 10  1  0  0  0
  6  7  1  0  0  0
  6 33  1  0  0  0
  7  8  2  0  0  0
  7 11  1  0  0  0
  8  9  1  0  0  0
  8 34  1  0  0  0
  9 10  2  0  0  0
  9 35  1  0  0  0
 11 20  1  0  0  0
 11 36  1  0  0  0
 11 37  1  0  0  0
 12 13  1  0  0  0
 12 17  1  0  0  0
 12 18  2  0  0  0
 13 14  2  0  0  0
 13 21  1  0  0  0
 14 15  1  0  0  0
 14 38  1  0  0  0
 15 16  2  0  0  0
 15 22  1  0  0  0
 16 17  1  0  0  0
 16 39  1  0  0  0
 17 20  1  0  0  0
 18 19  1  0  0  0
 19 20  2  0  0  0
 19 40  1  0  0  0
 22 23  1  0  0  0
 22 27  2  0  0  0
 23 24  2  0  0  0
 23 41  1  0  0  0
 24 25  1  0  0  0
 24 29  1  0  0  0
 25 26  2  0  0  0
 25 42  1  0  0  0
 26 27  1  0  0  0
 26 28  1  0  0  0
 27 43  1  0  0  0
M  END
> <s_m_entry_id>
10182

> <s_m_entry_name>
dock_pv.251

> <s_m_Source_Path>
/home/csk/Desktop/cluster/DUD-E-result/met

> <s_m_Source_File>
dock_pv.maegz

> <i_m_Source_File_Index>
251

> <chembl_id>
CHEMBL3582286

> <chembl_pref_name>
None

> <i_lp_mmshare_version>
53161

> <i_f3d_flags>
0

> <r_lp_tautomer_probability>
1

> <s_lp_Force_Field>
OPLS_2005

> <r_lp_Energy>
19.467988

> <b_lp_Chiralities_Consistent>
1

> <s_lp_Variant>
CHEMBL3717_lig2113-1

> <s_i_glide_gridfile>
glide-grid_3lq8

> <i_i_glide_lignum>
2411

> <i_i_glide_rotatable_bonds>
3

> <r_i_docking_score>
-7.87732393824348

> <r_i_glide_ligand_efficiency>
-0.27163185993943

> <r_i_glide_ligand_efficiency_sa>
-0.83453913274754

> <r_i_glide_ligand_efficiency_ln>
-1.80370743015773

> <r_i_glide_gscore>
-7.87732393824348

> <r_i_glide_lipo>
-3.99449466307478

> <r_i_glide_hbond>
0

> <r_i_glide_metal>
0

> <r_i_glide_rewards>
-2.25935151769821

> <r_i_glide_evdw>
-39.6889152526855

> <r_i_glide_ecoul>
-0.0312714427709579

> <r_i_glide_erotb>
0.385729064983701

> <r_i_glide_esite>
-0.0200703434042737

> <r_i_glide_emodel>
-55.2198578616481

> <r_i_glide_energy>
-39.7201866954565

> <r_i_glide_einternal>
3.32986855506897

> <i_i_glide_confnum>
16

> <i_i_glide_posenum>
188

> <r_i_glide_eff_state_penalty>
0

> <s_user_duplicate_titles>
CHEMBL3717_lig2113

> <s_m_subgroup_title>
dock_pv

> <s_m_subgroupid>
dock_pv

> <b_m_subgroup_collapsed>
1

$$$$
CHEMBL3717_lig2112
                    3D
 Schrodinger Suite 2021-1.
 44 48  0  0  1  0            999 V2000
    4.6386    3.6611   30.2757 C   0  0  0  0  0  0
    3.1932    3.7992   30.3650 C   0  0  0  0  0  0
    2.3577    3.4057   29.3140 C   0  0  0  0  0  0
    0.9805    3.6008   29.4190 C   0  0  0  0  0  0
    0.4181    4.2080   30.5483 C   0  0  0  0  0  0
    1.2618    4.5790   31.5981 C   0  0  0  0  0  0
    2.6356    4.3570   31.5168 C   0  0  0  0  0  0
    5.7883    3.5574   30.2166 N   0  0  0  0  0  0
   -3.8062    5.0140   30.6082 C   0  0  0  0  0  0
   -2.8835    6.0796   30.6093 C   0  0  0  0  0  0
   -1.5173    5.7906   30.6082 C   0  0  0  0  0  0
   -1.0388    4.4777   30.6089 C   0  0  0  0  0  0
   -1.9598    3.4289   30.6098 C   0  0  0  0  0  0
   -3.3049    3.6998   30.6070 N   0  0  0  0  0  0
   -5.1632    5.0148   30.6154 N   0  0  0  0  0  0
   -5.4935    3.7414   30.6067 C   0  0  0  0  0  0
   -4.4028    2.8667   30.5538 C   0  0  0  0  0  0
   -4.2318    1.3478   30.4952 C   0  0  0  0  0  0
   -8.5642   -2.0854   29.0326 N   0  0  0  0  0  0
   -8.5267   -3.3875   29.4085 C   0  0  0  0  0  0
   -7.4930   -3.9437   30.1586 C   0  0  0  0  0  0
   -6.4358   -3.1293   30.5556 C   0  0  0  0  0  0
   -6.4368   -1.7612   30.1883 C   0  0  0  0  0  0
   -5.3973   -0.8719   30.5499 C   0  0  0  0  0  0
   -5.4308    0.4664   30.1506 C   0  0  0  0  0  0
   -6.4986    0.9207   29.3716 C   0  0  0  0  0  0
   -7.5435    0.0779   29.0102 C   0  0  0  0  0  0
   -7.5341   -1.2765   29.4122 C   0  0  0  0  0  0
   -3.2990    7.3683   30.6103 F   0  0  0  0  0  0
    2.8626    2.8433   28.1893 F   0  0  0  0  0  0
    0.3447    3.2978   28.6012 H   0  0  0  0  0  0
    0.8540    5.0426   32.4853 H   0  0  0  0  0  0
    3.2627    4.6549   32.3440 H   0  0  0  0  0  0
   -0.8140    6.6108   30.5976 H   0  0  0  0  0  0
   -1.6808    2.3838   30.6047 H   0  0  0  0  0  0
   -6.5347    3.4512   30.6330 H   0  0  0  0  0  0
   -3.4907    1.1006   29.7353 H   0  0  0  0  0  0
   -3.8051    0.9999   31.4390 H   0  0  0  0  0  0
   -9.3581   -3.9965   29.0861 H   0  0  0  0  0  0
   -7.5070   -4.9905   30.4251 H   0  0  0  0  0  0
   -5.6139   -3.5337   31.1297 H   0  0  0  0  0  0
   -4.5624   -1.2528   31.1222 H   0  0  0  0  0  0
   -6.5248    1.9321   29.0090 H   0  0  0  0  0  0
   -8.3585    0.4474   28.4061 H   0  0  0  0  0  0
  1  2  1  0  0  0
  1  8  3  0  0  0
  2  3  1  0  0  0
  2  7  2  0  0  0
  3  4  2  0  0  0
  3 30  1  0  0  0
  4  5  1  0  0  0
  4 31  1  0  0  0
  5  6  2  0  0  0
  5 12  1  0  0  0
  6  7  1  0  0  0
  6 32  1  0  0  0
  7 33  1  0  0  0
  9 10  1  0  0  0
  9 14  1  0  0  0
  9 15  2  0  0  0
 10 11  2  0  0  0
 10 29  1  0  0  0
 11 12  1  0  0  0
 11 34  1  0  0  0
 12 13  2  0  0  0
 13 14  1  0  0  0
 13 35  1  0  0  0
 14 17  1  0  0  0
 15 16  1  0  0  0
 16 17  2  0  0  0
 16 36  1  0  0  0
 17 18  1  0  0  0
 18 25  1  0  0  0
 18 37  1  0  0  0
 18 38  1  0  0  0
 19 20  2  0  0  0
 19 28  1  0  0  0
 20 21  1  0  0  0
 20 39  1  0  0  0
 21 22  2  0  0  0
 21 40  1  0  0  0
 22 23  1  0  0  0
 22 41  1  0  0  0
 23 24  2  0  0  0
 23 28  1  0  0  0
 24 25  1  0  0  0
 24 42  1  0  0  0
 25 26  2  0  0  0
 26 27  1  0  0  0
 26 43  1  0  0  0
 27 28  2  0  0  0
 27 44  1  0  0  0
M  END
> <s_m_entry_id>
10183

> <s_m_entry_name>
dock_pv.252

> <s_m_Source_Path>
/home/csk/Desktop/cluster/DUD-E-result/met

> <s_m_Source_File>
dock_pv.maegz

> <i_m_Source_File_Index>
252

> <chembl_id>
CHEMBL3582287

> <chembl_pref_name>
None

> <i_lp_mmshare_version>
53161

> <i_f3d_flags>
0

> <r_lp_tautomer_probability>
1

> <s_lp_Force_Field>
OPLS_2005

> <r_lp_Energy>
21.161078

> <b_lp_Chiralities_Consistent>
1

> <s_lp_Variant>
CHEMBL3717_lig2112-1

> <s_i_glide_gridfile>
glide-grid_3lq8

> <i_i_glide_lignum>
2410

> <i_i_glide_rotatable_bonds>
3

> <r_i_docking_score>
-7.87686668406934

> <r_i_glide_ligand_efficiency>
-0.262562222802311

> <r_i_glide_ligand_efficiency_sa>
-0.815841872601895

> <r_i_glide_ligand_efficiency_ln>
-1.78970993595715

> <r_i_glide_gscore>
-7.87686668406934

> <r_i_glide_lipo>
-3.42186411339501

> <r_i_glide_hbond>
0

> <r_i_glide_metal>
0

> <r_i_glide_rewards>
-2.66969753479802

> <r_i_glide_evdw>
-43.4430236816406

> <r_i_glide_ecoul>
0.0886994823813438

> <r_i_glide_erotb>
0.37354122584852

> <r_i_glide_esite>
0

> <r_i_glide_emodel>
-59.3973263380506

> <r_i_glide_energy>
-43.3543241992593

> <r_i_glide_einternal>
5.15140581130981

> <i_i_glide_confnum>
4

> <i_i_glide_posenum>
5

> <r_i_glide_eff_state_penalty>
0

> <s_user_duplicate_titles>
CHEMBL3717_lig2112

> <s_m_subgroup_title>
dock_pv

> <s_m_subgroupid>
dock_pv

> <b_m_subgroup_collapsed>
1

$$$$
CHEMBL3717_lig3438
                    3D
 Schrodinger Suite 2021-1.
 29 31  0  0  1  0            999 V2000
    1.4381    5.0689   32.6041 F   0  0  0  0  0  0
   -2.9132    4.0263   30.6081 N   0  0  0  0  0  0
   -4.6344    5.4759   30.6108 N   0  0  0  0  0  0
   -5.1229    4.1790   30.6025 N   0  0  0  0  0  0
   -4.2091    1.9724   30.5236 N   0  0  0  0  0  0
   -3.2862    5.3795   30.6086 C   0  0  0  0  0  0
   -0.5874    4.6032   30.6070 C   0  0  0  0  0  0
    0.8330    4.2097   30.4556 C   0  0  0  0  0  0
   -4.1103    3.3377   30.5748 C   0  0  0  0  0  0
   -1.5962    3.6369   30.6177 C   0  0  0  0  0  0
   -2.2811    6.3578   30.6080 C   0  0  0  0  0  0
   -0.9437    5.9549   30.6078 C   0  0  0  0  0  0
    1.7925    4.4790   31.4406 C   0  0  0  0  0  0
    1.2456    3.5970   29.2670 C   0  0  0  0  0  0
    2.5848    3.2792   29.0435 C   0  0  0  0  0  0
    3.1307    4.1447   31.2301 C   0  0  0  0  0  0
    3.5307    3.5558   30.0314 C   0  0  0  0  0  0
    3.0119    2.6723   27.7205 C   0  0  0  0  0  0
   -5.1126    1.5184   30.5159 H   0  0  0  0  0  0
   -3.4042    1.3625   30.4989 H   0  0  0  0  0  0
   -1.3998    2.5775   30.5977 H   0  0  0  0  0  0
   -2.5330    7.4065   30.6075 H   0  0  0  0  0  0
   -0.1692    6.7095   30.5811 H   0  0  0  0  0  0
    0.5165    3.3891   28.4973 H   0  0  0  0  0  0
    3.8622    4.3632   31.9926 H   0  0  0  0  0  0
    4.5720    3.3169   29.8697 H   0  0  0  0  0  0
    3.9734    3.0794   27.4109 H   0  0  0  0  0  0
    2.2993    2.9007   26.9274 H   0  0  0  0  0  0
    3.1054    1.5920   27.8062 H   0  0  0  0  0  0
  1 13  1  0  0  0
  2  6  1  0  0  0
  2  9  1  0  0  0
  2 10  1  0  0  0
  3  4  1  0  0  0
  3  6  2  0  0  0
  4  9  2  0  0  0
  5  9  1  0  0  0
  5 19  1  0  0  0
  5 20  1  0  0  0
  6 11  1  0  0  0
  7  8  1  0  0  0
  7 10  2  0  0  0
  7 12  1  0  0  0
  8 13  1  0  0  0
  8 14  2  0  0  0
 10 21  1  0  0  0
 11 12  2  0  0  0
 11 22  1  0  0  0
 12 23  1  0  0  0
 13 16  2  0  0  0
 14 15  1  0  0  0
 14 24  1  0  0  0
 15 17  2  0  0  0
 15 18  1  0  0  0
 16 17  1  0  0  0
 16 25  1  0  0  0
 17 26  1  0  0  0
 18 27  1  0  0  0
 18 28  1  0  0  0
 18 29  1  0  0  0
M  END
> <s_m_entry_id>
10184

> <s_m_entry_name>
dock_pv.253

> <s_m_Source_Path>
/home/csk/Desktop/cluster/DUD-E-result/met

> <s_m_Source_File>
dock_pv.maegz

> <i_m_Source_File_Index>
253

> <chembl_id>
CHEMBL2002323

> <chembl_pref_name>
None

> <i_lp_mmshare_version>
53161

> <i_f3d_flags>
0

> <r_lp_tautomer_probability>
1

> <s_lp_Force_Field>
OPLS_2005

> <r_lp_Energy>
17.964088

> <b_lp_Chiralities_Consistent>
1

> <s_lp_Variant>
CHEMBL3717_lig3438-1

> <s_i_glide_gridfile>
glide-grid_3lq8

> <i_i_glide_lignum>
4232

> <i_i_glide_rotatable_bonds>
1

> <r_i_docking_score>
-7.8706897660306

> <r_i_glide_ligand_efficiency>
-0.437260542557256

> <r_i_glide_ligand_efficiency_sa>
-1.14594680282997

> <r_i_glide_ligand_efficiency_ln>
-2.02312021982365

> <r_i_glide_gscore>
-7.8706897660306

> <r_i_glide_lipo>
-3.12947995243105

> <r_i_glide_hbond>
0

> <r_i_glide_metal>
0

> <r_i_glide_rewards>
-3.46839683264498

> <r_i_glide_evdw>
-33.431510925293

> <r_i_glide_ecoul>
0.688433766365051

> <r_i_glide_erotb>
0.295497500355323

> <r_i_glide_esite>
0

> <r_i_glide_emodel>
-45.8673320398389

> <r_i_glide_energy>
-32.7430771589279

> <r_i_glide_einternal>
1.81178069114685

> <i_i_glide_confnum>
3

> <i_i_glide_posenum>
138

> <r_i_glide_eff_state_penalty>
0

> <s_user_duplicate_titles>
CHEMBL3717_lig3438

> <s_m_subgroup_title>
dock_pv

> <s_m_subgroupid>
dock_pv

> <b_m_subgroup_collapsed>
1

$$$$
CHEMBL3717_lig1520
                    3D
 Schrodinger Suite 2021-1.
 33 36  0  0  1  0            999 V2000
    2.3540    3.4803   28.2963 C   0  0  0  0  0  0
    3.5173    3.1570   28.9804 C   0  0  0  0  0  0
    3.6157    3.3906   30.3512 C   0  0  0  0  0  0
    1.3240    4.1730   28.8328 N   0  0  0  0  0  0
    1.4656    4.4230   30.1468 N   0  0  0  0  0  0
    2.5302    4.0196   30.9703 C   0  0  0  0  0  0
    2.2701    4.3571   32.2478 N   0  0  0  0  0  0
    1.1060    5.1088   32.2080 N   0  0  0  0  0  0
    0.6436    5.1530   30.9732 C   0  0  0  0  0  0
   -0.5562    5.9546   30.4865 C   0  0  0  0  0  0
   -1.9347    5.3091   30.6084 C   0  0  0  0  0  0
   -3.0562    6.1404   30.6081 C   0  0  0  0  0  0
   -4.3459    5.6177   30.6080 C   0  0  0  0  0  0
   -2.1022    3.9200   30.6293 C   0  0  0  0  0  0
    2.1953    3.0085   27.0080 N   0  0  0  0  0  0
   -3.4029    3.3558   30.6080 C   0  0  0  0  0  0
   -4.5420    4.2194   30.5912 C   0  0  0  0  0  0
   -5.8159    3.7359   30.5556 N   0  0  0  0  0  0
   -5.9915    2.3915   30.5265 C   0  0  0  0  0  0
   -4.9407    1.4782   30.5437 C   0  0  0  0  0  0
   -3.6330    1.9568   30.5916 C   0  0  0  0  0  0
    4.3060    2.6433   28.4625 H   0  0  0  0  0  0
    4.4836    3.0845   30.9146 H   0  0  0  0  0  0
   -0.5797    6.9077   31.0079 H   0  0  0  0  0  0
   -0.4235    6.2310   29.4394 H   0  0  0  0  0  0
   -2.9279    7.2122   30.5909 H   0  0  0  0  0  0
   -5.2042    6.2758   30.5942 H   0  0  0  0  0  0
   -1.2471    3.2597   30.6148 H   0  0  0  0  0  0
    2.8666    2.3556   26.6353 H   0  0  0  0  0  0
    1.2709    3.0904   26.6080 H   0  0  0  0  0  0
   -7.0148    2.0464   30.4935 H   0  0  0  0  0  0
   -5.1365    0.4156   30.5226 H   0  0  0  0  0  0
   -2.7979    1.2719   30.6082 H   0  0  0  0  0  0
  1  2  1  0  0  0
  1  4  2  0  0  0
  1 15  1  0  0  0
  2  3  2  0  0  0
  2 22  1  0  0  0
  3  6  1  0  0  0
  3 23  1  0  0  0
  4  5  1  0  0  0
  5  6  1  0  0  0
  5  9  1  0  0  0
  6  7  2  0  0  0
  7  8  1  0  0  0
  8  9  2  0  0  0
  9 10  1  0  0  0
 10 11  1  0  0  0
 10 24  1  0  0  0
 10 25  1  0  0  0
 11 12  2  0  0  0
 11 14  1  0  0  0
 12 13  1  0  0  0
 12 26  1  0  0  0
 13 17  2  0  0  0
 13 27  1  0  0  0
 14 16  2  0  0  0
 14 28  1  0  0  0
 15 29  1  0  0  0
 15 30  1  0  0  0
 16 17  1  0  0  0
 16 21  1  0  0  0
 17 18  1  0  0  0
 18 19  2  0  0  0
 19 20  1  0  0  0
 19 31  1  0  0  0
 20 21  2  0  0  0
 20 32  1  0  0  0
 21 33  1  0  0  0
M  END
> <s_m_entry_id>
10185

> <s_m_entry_name>
dock_pv.254

> <s_m_Source_Path>
/home/csk/Desktop/cluster/DUD-E-result/met

> <s_m_Source_File>
dock_pv.maegz

> <i_m_Source_File_Index>
254

> <chembl_id>
CHEMBL2431820

> <chembl_pref_name>
None

> <i_lp_mmshare_version>
53161

> <i_f3d_flags>
0

> <r_lp_tautomer_probability>
1

> <s_lp_Force_Field>
OPLS_2005

> <r_lp_Energy>
15.211678

> <b_lp_Chiralities_Consistent>
1

> <s_lp_Variant>
CHEMBL3717_lig1520-1

> <s_i_glide_gridfile>
glide-grid_3lq8

> <i_i_glide_lignum>
1746

> <i_i_glide_rotatable_bonds>
2

> <r_i_docking_score>
-7.87052879466293

> <r_i_glide_ligand_efficiency>
-0.37478708546014

> <r_i_glide_ligand_efficiency_sa>
-1.03400915002204

> <r_i_glide_ligand_efficiency_ln>
-1.94597234057949

> <r_i_glide_gscore>
-7.87052879466293

> <r_i_glide_lipo>
-3.01917085180682

> <r_i_glide_hbond>
0

> <r_i_glide_metal>
0

> <r_i_glide_rewards>
-3.24728110317591

> <r_i_glide_evdw>
-35.7902412414551

> <r_i_glide_ecoul>
-1.90572535991669

> <r_i_glide_erotb>
0.471294026380063

> <r_i_glide_esite>
0

> <r_i_glide_emodel>
-52.8368623367041

> <r_i_glide_energy>
-37.6959666013718

> <r_i_glide_einternal>
0.461271494626999

> <i_i_glide_confnum>
1

> <i_i_glide_posenum>
365

> <r_i_glide_eff_state_penalty>
0

> <s_user_duplicate_titles>
CHEMBL3717_lig1520

> <s_m_subgroup_title>
dock_pv

> <s_m_subgroupid>
dock_pv

> <b_m_subgroup_collapsed>
1

$$$$
CHEMBL3717_lig2501
                    3D
 Schrodinger Suite 2021-1.
 50 53  0  0  1  0            999 V2000
   -2.5042   -2.8967   28.0826 C   0  0  0  0  0  0
   -3.1985   -2.0349   29.0300 N   0  0  0  0  0  0
   -2.7916   -1.8023   30.2915 C   0  0  0  0  0  0
   -1.7361   -2.2339   30.7642 O   0  0  0  0  0  0
   -3.6376   -1.0010   30.9811 N   0  0  0  0  0  0
   -4.5087   -1.6058   31.9950 C   0  0  0  0  0  0
   -3.2941    0.3085   31.1470 N   0  0  0  0  0  0
   -3.9872    1.2227   30.5566 C   0  0  0  0  0  0
   -5.2847    0.9498   29.7681 C   0  0  0  0  0  0
   -3.5704    2.6578   30.6072 C   0  0  0  0  0  0
   -4.4473    3.7101   30.2827 C   0  0  0  0  0  0
   -3.9925    5.0289   30.2283 C   0  0  0  0  0  0
   -2.6311    5.2653   30.4688 C   0  0  0  0  0  0
   -1.8907    6.3926   30.3564 N   0  0  0  0  0  0
   -0.6632    5.9910   30.6091 C   0  0  0  0  0  0
   -0.5559    4.6535   30.9853 C   0  0  0  0  0  0
    0.6400    3.8160   31.4299 C   0  0  0  0  0  0
    1.9076    4.0022   30.5940 C   0  0  0  0  0  0
    3.1329    4.2651   31.2137 C   0  0  0  0  0  0
    4.3210    4.3616   30.4418 C   0  0  0  0  0  0
    5.6029    4.5682   31.0080 C   0  0  0  0  0  0
    6.7334    4.5003   30.2062 C   0  0  0  0  0  0
    6.5607    4.3576   28.8352 C   0  0  0  0  0  0
    5.3477    4.3564   28.2318 N   0  0  0  0  0  0
    4.2470    4.2396   29.0236 C   0  0  0  0  0  0
    3.0036    3.9568   28.4254 C   0  0  0  0  0  0
    1.8658    3.8317   29.2098 C   0  0  0  0  0  0
    0.7057    3.5274   28.6081 F   0  0  0  0  0  0
   -1.8399    4.1617   30.8335 N   0  0  0  0  0  0
   -2.2630    2.8886   30.9476 N   0  0  0  0  0  0
   -3.1978   -3.2420   27.3158 H   0  0  0  0  0  0
   -2.0938   -3.7788   28.5727 H   0  0  0  0  0  0
   -1.6976   -2.3503   27.5935 H   0  0  0  0  0  0
   -4.0256   -1.5712   28.6806 H   0  0  0  0  0  0
   -3.9257   -2.1519   32.7388 H   0  0  0  0  0  0
   -5.1012   -0.8570   32.5244 H   0  0  0  0  0  0
   -5.2067   -2.3064   31.5333 H   0  0  0  0  0  0
   -5.2590    1.4256   28.7885 H   0  0  0  0  0  0
   -5.4814   -0.1055   29.5895 H   0  0  0  0  0  0
   -6.1512    1.3172   30.3168 H   0  0  0  0  0  0
   -5.4853    3.5240   30.0488 H   0  0  0  0  0  0
   -4.6552    5.8352   29.9442 H   0  0  0  0  0  0
    0.1609    6.6901   30.5759 H   0  0  0  0  0  0
    0.8642    4.0266   32.4754 H   0  0  0  0  0  0
    0.4017    2.7561   31.4036 H   0  0  0  0  0  0
    3.1944    4.3681   32.2875 H   0  0  0  0  0  0
    5.7002    4.7556   32.0668 H   0  0  0  0  0  0
    7.7239    4.6038   30.6243 H   0  0  0  0  0  0
    7.4181    4.3466   28.1781 H   0  0  0  0  0  0
    2.9369    3.8241   27.3573 H   0  0  0  0  0  0
  1  2  1  0  0  0
  1 31  1  0  0  0
  1 32  1  0  0  0
  1 33  1  0  0  0
  2  3  1  0  0  0
  2 34  1  0  0  0
  3  4  2  0  0  0
  3  5  1  0  0  0
  5  6  1  0  0  0
  5  7  1  0  0  0
  6 35  1  0  0  0
  6 36  1  0  0  0
  6 37  1  0  0  0
  7  8  2  0  0  0
  8  9  1  0  0  0
  8 10  1  0  0  0
  9 38  1  0  0  0
  9 39  1  0  0  0
  9 40  1  0  0  0
 10 11  1  0  0  0
 10 30  2  0  0  0
 11 12  2  0  0  0
 11 41  1  0  0  0
 12 13  1  0  0  0
 12 42  1  0  0  0
 13 14  2  0  0  0
 13 29  1  0  0  0
 14 15  1  0  0  0
 15 16  2  0  0  0
 15 43  1  0  0  0
 16 17  1  0  0  0
 16 29  1  0  0  0
 17 18  1  0  0  0
 17 44  1  0  0  0
 17 45  1  0  0  0
 18 19  2  0  0  0
 18 27  1  0  0  0
 19 20  1  0  0  0
 19 46  1  0  0  0
 20 21  2  0  0  0
 20 25  1  0  0  0
 21 22  1  0  0  0
 21 47  1  0  0  0
 22 23  2  0  0  0
 22 48  1  0  0  0
 23 24  1  0  0  0
 23 49  1  0  0  0
 24 25  2  0  0  0
 25 26  1  0  0  0
 26 27  2  0  0  0
 26 50  1  0  0  0
 27 28  1  0  0  0
 29 30  1  0  0  0
M  END
> <s_m_entry_id>
10186

> <s_m_entry_name>
dock_pv.255

> <s_m_Source_Path>
/home/csk/Desktop/cluster/DUD-E-result/met

> <s_m_Source_File>
dock_pv.maegz

> <i_m_Source_File_Index>
255

> <chembl_id>
CHEMBL3674486

> <chembl_pref_name>
None

> <i_lp_mmshare_version>
53161

> <i_f3d_flags>
0

> <r_lp_tautomer_probability>
1

> <s_lp_Force_Field>
OPLS_2005

> <r_lp_Energy>
27.171347

> <b_lp_Chiralities_Consistent>
1

> <s_lp_Variant>
CHEMBL3717_lig2501-1

> <s_i_glide_gridfile>
glide-grid_3lq8

> <i_i_glide_lignum>
2834

> <i_i_glide_rotatable_bonds>
6

> <r_i_docking_score>
-7.86864135047335

> <r_i_glide_ligand_efficiency>
-0.262288045015778

> <r_i_glide_ligand_efficiency_sa>
-0.814989938472135

> <r_i_glide_ligand_efficiency_ln>
-1.78784105054195

> <r_i_glide_gscore>
-7.86864135047335

> <r_i_glide_lipo>
-3.68714327885098

> <r_i_glide_hbond>
-0.0204758948087075

> <r_i_glide_metal>
0

> <r_i_glide_rewards>
-2.22019768512396

> <r_i_glide_evdw>
-47.4360122680664

> <r_i_glide_ecoul>
-1.05698037147522

> <r_i_glide_erotb>
0.597809290752356

> <r_i_glide_esite>
-0.00828611331745532

> <r_i_glide_emodel>
-62.7416829652488

> <r_i_glide_energy>
-48.4929926395416

> <r_i_glide_einternal>
13.9178218841553

> <i_i_glide_confnum>
19

> <i_i_glide_posenum>
125

> <r_i_glide_eff_state_penalty>
0

> <s_user_duplicate_titles>
CHEMBL3717_lig2501

> <s_m_subgroup_title>
dock_pv

> <s_m_subgroupid>
dock_pv

> <b_m_subgroup_collapsed>
1

$$$$
CHEMBL3717_lig756
                    3D
 Schrodinger Suite 2021-1.
 50 52  0  0  1  0            999 V2000
   -3.2988   -2.5462   29.2283 S   0  0  0  0  0  0
   -2.5921   -2.4424   30.5097 O   0  0  0  0  0  0
   -3.6259   -3.8301   28.6074 O   0  0  0  0  0  0
   -3.1434    2.6038   30.9989 C   0  0  0  0  0  0
   -6.0230    3.7363   30.4555 C   0  0  0  0  0  0
   -5.3050    4.8575   30.6177 C   0  0  0  0  0  0
   -3.8513    5.0616   30.5902 C   0  0  0  0  0  0
   -2.8794    4.0530   30.6948 C   0  0  0  0  0  0
   -1.5275    4.4311   30.6109 C   0  0  0  0  0  0
   -1.1551    5.7673   30.3911 C   0  0  0  0  0  0
   -2.2064    6.6929   30.3145 C   0  0  0  0  0  0
   -3.5145    6.3636   30.4204 N   0  0  0  0  0  0
   -4.3057    1.8273   30.4404 C   0  0  0  0  0  0
   -5.6019    2.3427   30.2161 C   0  0  0  0  0  0
   -6.5932    1.4779   29.7417 C   0  0  0  0  0  0
   -6.3224    0.1398   29.4844 C   0  0  0  0  0  0
   -5.0550   -0.3819   29.7227 C   0  0  0  0  0  0
   -4.0551    0.4576   30.2164 C   0  0  0  0  0  0
   -2.2807    1.9879   31.6329 O   0  0  0  0  0  0
   -4.8588   -1.7312   29.4082 N   0  0  0  0  0  0
   -2.3450   -1.5773   27.9459 C   0  0  0  0  0  0
    0.1999    6.1538   30.2016 N   0  0  0  0  0  0
    0.4455    7.4532   29.5822 C   0  0  0  0  0  0
    2.6555    3.2194   30.8471 C   0  0  0  0  0  0
    1.7581    4.4203   31.1984 C   0  0  0  0  0  0
    1.2325    5.1412   29.9439 C   0  0  0  0  0  0
    2.8657    2.2589   32.0223 C   0  0  0  0  0  0
   -7.0944    3.8694   30.5252 H   0  0  0  0  0  0
   -5.8814    5.7587   30.7842 H   0  0  0  0  0  0
   -0.7698    3.6670   30.6675 H   0  0  0  0  0  0
   -2.0241    7.7442   30.1602 H   0  0  0  0  0  0
   -7.5939    1.8400   29.5527 H   0  0  0  0  0  0
   -7.1102   -0.4911   29.0983 H   0  0  0  0  0  0
   -3.0778    0.0360   30.4050 H   0  0  0  0  0  0
   -5.6248   -2.1959   28.9486 H   0  0  0  0  0  0
   -1.2937   -1.6431   28.2090 H   0  0  0  0  0  0
   -2.4941   -2.0432   26.9749 H   0  0  0  0  0  0
   -2.6889   -0.5460   27.9354 H   0  0  0  0  0  0
    0.0874    8.2736   30.2055 H   0  0  0  0  0  0
    1.5058    7.5870   29.4088 H   0  0  0  0  0  0
   -0.0526    7.5234   28.6148 H   0  0  0  0  0  0
    3.6208    3.5841   30.4918 H   0  0  0  0  0  0
    2.2248    2.6542   30.0179 H   0  0  0  0  0  0
    0.9385    4.0984   31.8389 H   0  0  0  0  0  0
    2.3065    5.1394   31.8077 H   0  0  0  0  0  0
    2.0808    5.5218   29.3736 H   0  0  0  0  0  0
    0.8220    4.3984   29.2578 H   0  0  0  0  0  0
    3.6737    1.5591   31.8063 H   0  0  0  0  0  0
    1.9675    1.6697   32.2077 H   0  0  0  0  0  0
    3.1059    2.7922   32.9425 H   0  0  0  0  0  0
  1  2  2  0  0  0
  1  3  2  0  0  0
  1 20  1  0  0  0
  1 21  1  0  0  0
  4 19  2  0  0  0
  4  8  1  0  0  0
  4 13  1  0  0  0
  5 14  1  0  0  0
  5  6  2  0  0  0
  5 28  1  0  0  0
  6  7  1  0  0  0
  6 29  1  0  0  0
  7  8  2  0  0  0
  7 12  1  0  0  0
  8  9  1  0  0  0
  9 10  2  0  0  0
  9 30  1  0  0  0
 10 22  1  0  0  0
 10 11  1  0  0  0
 11 12  2  0  0  0
 11 31  1  0  0  0
 13 14  2  0  0  0
 13 18  1  0  0  0
 14 15  1  0  0  0
 15 16  2  0  0  0
 15 32  1  0  0  0
 16 17  1  0  0  0
 16 33  1  0  0  0
 17 18  2  0  0  0
 17 20  1  0  0  0
 18 34  1  0  0  0
 20 35  1  0  0  0
 21 36  1  0  0  0
 21 37  1  0  0  0
 21 38  1  0  0  0
 22 23  1  0  0  0
 22 26  1  0  0  0
 23 39  1  0  0  0
 23 40  1  0  0  0
 23 41  1  0  0  0
 24 25  1  0  0  0
 24 27  1  0  0  0
 24 42  1  0  0  0
 24 43  1  0  0  0
 25 26  1  0  0  0
 25 44  1  0  0  0
 25 45  1  0  0  0
 26 46  1  0  0  0
 26 47  1  0  0  0
 27 48  1  0  0  0
 27 49  1  0  0  0
 27 50  1  0  0  0
M  END
> <s_m_entry_id>
10188

> <s_m_entry_name>
dock_pv.257

> <s_m_Source_Path>
/home/csk/Desktop/cluster/DUD-E-result/met

> <s_m_Source_File>
dock_pv.maegz

> <i_m_Source_File_Index>
257

> <chembl_id>
CHEMBL1802587

> <chembl_pref_name>
None

> <i_lp_mmshare_version>
53161

> <i_f3d_flags>
0

> <r_lp_tautomer_probability>
1

> <s_lp_Force_Field>
OPLS_2005

> <r_lp_Energy>
28.388087

> <b_lp_Chiralities_Consistent>
1

> <s_lp_Variant>
CHEMBL3717_lig756-1

> <s_i_glide_gridfile>
glide-grid_3lq8

> <i_i_glide_lignum>
817

> <i_i_glide_rotatable_bonds>
6

> <r_i_docking_score>
-7.86631354603971

> <r_i_glide_ligand_efficiency>
-0.291344946149619

> <r_i_glide_ligand_efficiency_sa>
-0.874034837488632

> <r_i_glide_ligand_efficiency_ln>
-1.8311481072037

> <r_i_glide_gscore>
-7.86631354603971

> <r_i_glide_lipo>
-3.89366112655113

> <r_i_glide_hbond>
-0.0285938843652897

> <r_i_glide_metal>
0

> <r_i_glide_rewards>
-2.40013470192073

> <r_i_glide_evdw>
-37.1087417602539

> <r_i_glide_ecoul>
-0.217143341898918

> <r_i_glide_erotb>
0.523661954821165

> <r_i_glide_esite>
-0.179577198726198

> <r_i_glide_emodel>
-45.2070931400722

> <r_i_glide_energy>
-37.3258851021528

> <r_i_glide_einternal>
4.77591514587402

> <i_i_glide_confnum>
1

> <i_i_glide_posenum>
8

> <r_i_glide_eff_state_penalty>
0

> <s_user_duplicate_titles>
CHEMBL3717_lig756

> <s_m_subgroup_title>
dock_pv

> <s_m_subgroupid>
dock_pv

> <b_m_subgroup_collapsed>
1

$$$$
CHEMBL3717_lig3570
                    3D
 Schrodinger Suite 2021-1.
 46 48  0  0  1  0            999 V2000
   -3.5224    3.6390   30.6078 O   0  0  0  0  0  0
   -1.6719    6.7549   30.1447 N   0  0  0  0  0  0
    3.1562    2.9579   27.4216 N   0  0  0  0  0  0
   -4.7446    1.1588   29.2596 N   0  0  0  0  0  0
   -2.4599    4.5184   30.6644 C   0  0  0  0  0  0
   -0.1620    5.1441   31.1446 C   0  0  0  0  0  0
   -1.1831    4.1933   31.1492 C   0  0  0  0  0  0
   -2.6605    5.8236   30.2082 C   0  0  0  0  0  0
   -0.4425    6.3953   30.5949 C   0  0  0  0  0  0
    1.1058    4.8829   31.8432 C   0  0  0  0  0  0
    2.5188    3.8880   29.9942 C   0  0  0  0  0  0
   -4.5779    1.4495   30.6750 C   0  0  2  0  0  0
    2.2453    4.3584   31.3568 C   0  0  0  0  0  0
   -3.2774    2.2592   30.8738 C   0  0  0  0  0  0
   -3.4035   -0.7259   31.4976 C   0  0  0  0  0  0
   -4.6619    0.1378   31.4965 C   0  0  0  0  0  0
    3.8148    4.0293   29.4923 C   0  0  0  0  0  0
    1.5451    3.2986   29.1810 C   0  0  0  0  0  0
   -3.1767   -1.6285   30.4573 C   0  0  0  0  0  0
   -2.4947   -0.6353   32.5580 C   0  0  0  0  0  0
    4.0840    3.5583   28.2081 C   0  0  0  0  0  0
    1.9061    2.8457   27.9141 C   0  0  0  0  0  0
   -2.0500   -2.4419   30.4822 C   0  0  0  0  0  0
   -1.3753   -1.4635   32.5938 C   0  0  0  0  0  0
   -1.1586   -2.3626   31.5515 C   0  0  0  0  0  0
   -4.4938    1.9800   28.7286 H   0  0  0  0  0  0
   -4.1133    0.4245   28.9635 H   0  0  0  0  0  0
   -0.9774    3.2188   31.5671 H   0  0  0  0  0  0
   -3.6296    6.1246   29.8414 H   0  0  0  0  0  0
    0.3112    7.1711   30.5812 H   0  0  0  0  0  0
    1.1067    5.1618   32.8857 H   0  0  0  0  0  0
   -5.4216    2.0722   30.9725 H   0  0  0  0  0  0
    3.0679    4.2532   32.0483 H   0  0  0  0  0  0
   -2.4932    1.8916   30.2123 H   0  0  0  0  0  0
   -2.8939    2.1409   31.8845 H   0  0  0  0  0  0
   -4.9059    0.3603   32.5359 H   0  0  0  0  0  0
   -5.5076   -0.4652   31.1584 H   0  0  0  0  0  0
    4.6011    4.4865   30.0788 H   0  0  0  0  0  0
    0.5326    3.1503   29.5169 H   0  0  0  0  0  0
   -3.8817   -1.7168   29.6398 H   0  0  0  0  0  0
   -2.6626    0.0646   33.3657 H   0  0  0  0  0  0
    5.0825    3.6402   27.8082 H   0  0  0  0  0  0
    1.1835    2.3574   27.2770 H   0  0  0  0  0  0
   -1.8848   -3.1589   29.6879 H   0  0  0  0  0  0
   -0.6728   -1.4054   33.4145 H   0  0  0  0  0  0
   -0.2921   -3.0066   31.5730 H   0  0  0  0  0  0
  1  5  1  0  0  0
  1 14  1  0  0  0
  2  8  1  0  0  0
  2  9  2  0  0  0
  3 21  2  0  0  0
  3 22  1  0  0  0
  4 12  1  0  0  0
  4 26  1  0  0  0
  4 27  1  0  0  0
  5  7  1  0  0  0
  5  8  2  0  0  0
  6  7  2  0  0  0
  6  9  1  0  0  0
  6 10  1  0  0  0
  7 28  1  0  0  0
  8 29  1  0  0  0
  9 30  1  0  0  0
 10 13  2  3  0  0
 10 31  1  0  0  0
 11 13  1  0  0  0
 11 17  2  0  0  0
 11 18  1  0  0  0
 12 14  1  0  0  0
 12 16  1  0  0  0
 12 32  1  0  0  0
 13 33  1  0  0  0
 14 34  1  0  0  0
 14 35  1  0  0  0
 15 16  1  0  0  0
 15 19  2  0  0  0
 15 20  1  0  0  0
 16 36  1  0  0  0
 16 37  1  0  0  0
 17 21  1  0  0  0
 17 38  1  0  0  0
 18 22  2  0  0  0
 18 39  1  0  0  0
 19 23  1  0  0  0
 19 40  1  0  0  0
 20 24  2  0  0  0
 20 41  1  0  0  0
 21 42  1  0  0  0
 22 43  1  0  0  0
 23 25  2  0  0  0
 23 44  1  0  0  0
 24 25  1  0  0  0
 24 45  1  0  0  0
 25 46  1  0  0  0
M  END
> <s_m_entry_id>
10189

> <s_m_entry_name>
dock_pv.258

> <s_m_Source_Path>
/home/csk/Desktop/cluster/DUD-E-result/met

> <s_m_Source_File>
dock_pv.maegz

> <i_m_Source_File_Index>
258

> <chembl_id>
CHEMBL1991846

> <chembl_pref_name>
None

> <i_lp_mmshare_version>
53161

> <i_f3d_flags>
0

> <r_lp_tautomer_probability>
1

> <s_lp_Force_Field>
OPLS_2005

> <r_lp_Energy>
29.797831

> <b_lp_Chiralities_Consistent>
1

> <s_lp_Variant>
CHEMBL3717_lig3570-2

> <s_i_glide_gridfile>
glide-grid_3lq8

> <i_i_glide_lignum>
4429

> <i_i_glide_rotatable_bonds>
7

> <r_i_docking_score>
-7.86600502582931

> <r_i_glide_ligand_efficiency>
-0.314640201033172

> <r_i_glide_ligand_efficiency_sa>
-0.920013527988721

> <r_i_glide_ligand_efficiency_ln>
-1.86447891627032

> <r_i_glide_gscore>
-7.86600502582931

> <r_i_glide_lipo>
-4.66372703001388

> <r_i_glide_hbond>
0

> <r_i_glide_metal>
0

> <r_i_glide_rewards>
-2.04790488279311

> <r_i_glide_evdw>
-38.440502166748

> <r_i_glide_ecoul>
-1.73669850826263

> <r_i_glide_erotb>
1.02815677155448

> <r_i_glide_esite>
0

> <r_i_glide_emodel>
-53.4809786540401

> <r_i_glide_energy>
-40.1772006750107

> <r_i_glide_einternal>
8.84292316436768

> <i_i_glide_confnum>
15

> <i_i_glide_posenum>
79

> <r_i_glide_eff_state_penalty>
0

> <s_user_duplicate_titles>
CHEMBL3717_lig3570,CHEMBL3717_lig3570

> <s_m_subgroup_title>
dock_pv

> <s_m_subgroupid>
dock_pv

> <b_m_subgroup_collapsed>
1

$$$$
CHEMBL3717_lig446
                    3D
 Schrodinger Suite 2021-1.
 28 30  0  0  1  0            999 V2000
    5.5079    4.7550   30.6545 C   0  0  0  0  0  0
    5.8988    4.7548   29.3204 C   0  0  0  0  0  0
    5.1062    4.3564   28.2975 N   0  0  0  0  0  0
    4.2160    4.3570   31.0073 C   0  0  0  0  0  0
    3.3904    3.9483   29.9559 C   0  0  0  0  0  0
    3.8871    3.9093   28.6197 C   0  0  0  0  0  0
    2.8724    3.3208   27.8079 C   0  0  0  0  0  0
    1.7724    3.1584   28.6152 C   0  0  0  0  0  0
    2.0605    3.5646   29.8988 N   0  0  0  0  0  0
    1.0666    3.7049   30.9563 C   0  0  0  0  0  0
    0.0657    4.8264   30.6874 C   0  0  0  0  0  0
   -1.2808    4.6330   31.0081 C   0  0  0  0  0  0
   -2.2092    5.6379   30.7562 C   0  0  0  0  0  0
   -1.7849    6.8299   30.1746 C   0  0  0  0  0  0
   -0.4508    7.0292   29.8307 C   0  0  0  0  0  0
    0.4788    6.0330   30.1072 C   0  0  0  0  0  0
    6.1995    5.0927   31.4123 H   0  0  0  0  0  0
    6.8926    5.0676   29.0466 H   0  0  0  0  0  0
    3.8760    4.3841   32.0316 H   0  0  0  0  0  0
    2.9102    3.0819   26.7578 H   0  0  0  0  0  0
    0.7782    2.8049   28.3759 H   0  0  0  0  0  0
    0.5433    2.7573   31.0441 H   0  0  0  0  0  0
    1.5669    3.8788   31.9091 H   0  0  0  0  0  0
   -1.6122    3.7056   31.4529 H   0  0  0  0  0  0
   -3.2498    5.4939   31.0075 H   0  0  0  0  0  0
   -2.4965    7.6121   29.9772 H   0  0  0  0  0  0
   -0.1357    7.9575   29.3767 H   0  0  0  0  0  0
    1.5161    6.1973   29.8550 H   0  0  0  0  0  0
  1  4  1  0  0  0
  1  2  2  0  0  0
  1 17  1  0  0  0
  2  3  1  0  0  0
  2 18  1  0  0  0
  3  6  2  0  0  0
  4  5  2  0  0  0
  4 19  1  0  0  0
  5  9  1  0  0  0
  5  6  1  0  0  0
  6  7  1  0  0  0
  7  8  2  0  0  0
  7 20  1  0  0  0
  8  9  1  0  0  0
  8 21  1  0  0  0
  9 10  1  0  0  0
 10 11  1  0  0  0
 10 22  1  0  0  0
 10 23  1  0  0  0
 11 12  2  0  0  0
 11 16  1  0  0  0
 12 13  1  0  0  0
 12 24  1  0  0  0
 13 14  2  0  0  0
 13 25  1  0  0  0
 14 15  1  0  0  0
 14 26  1  0  0  0
 15 16  2  0  0  0
 15 27  1  0  0  0
 16 28  1  0  0  0
M  END
> <s_m_entry_id>
10190

> <s_m_entry_name>
dock_pv.259

> <s_m_Source_Path>
/home/csk/Desktop/cluster/DUD-E-result/met

> <s_m_Source_File>
dock_pv.maegz

> <i_m_Source_File_Index>
259

> <chembl_id>
CHEMBL561256

> <chembl_pref_name>
None

> <i_lp_mmshare_version>
53161

> <i_f3d_flags>
0

> <r_lp_tautomer_probability>
1

> <s_lp_Force_Field>
OPLS_2005

> <r_lp_Energy>
11.408829

> <b_lp_Chiralities_Consistent>
1

> <s_lp_Variant>
CHEMBL3717_lig446-1

> <s_i_glide_gridfile>
glide-grid_3lq8

> <i_i_glide_lignum>
470

> <i_i_glide_rotatable_bonds>
2

> <r_i_docking_score>
-7.86564317255155

> <r_i_glide_ligand_efficiency>
-0.491602698284472

> <r_i_glide_ligand_efficiency_sa>
-1.23876117436259

> <r_i_glide_ligand_efficiency_ln>
-2.08494584267371

> <r_i_glide_gscore>
-7.86564317255155

> <r_i_glide_lipo>
-4.0472650840727

> <r_i_glide_hbond>
0

> <r_i_glide_metal>
0

> <r_i_glide_rewards>
-3.01826417503683

> <r_i_glide_evdw>
-31.2786293029785

> <r_i_glide_ecoul>
0.00364846829324961

> <r_i_glide_erotb>
0.763270281462919

> <r_i_glide_esite>
0

> <r_i_glide_emodel>
-44.6565888828684

> <r_i_glide_energy>
-31.2749808346853

> <r_i_glide_einternal>
0.921392858028412

> <i_i_glide_confnum>
1

> <i_i_glide_posenum>
204

> <r_i_glide_eff_state_penalty>
0

> <s_user_duplicate_titles>
CHEMBL3717_lig446,555050

> <s_m_subgroup_title>
dock_pv

> <s_m_subgroupid>
dock_pv

> <b_m_subgroup_collapsed>
1

$$$$
CHEMBL3717_lig3859
                    3D
 Schrodinger Suite 2021-1.
 50 52  0  0  1  0            999 V2000
   -5.3862    3.7243   30.5624 O   0  0  0  0  0  0
   -5.1751   -0.4724   30.2648 O   0  0  0  0  0  0
   -3.7015    6.9386   30.6092 N   0  0  0  0  0  0
    4.3077    3.5945   29.4940 N   0  0  0  0  0  0
   -7.1699    1.5492   29.4098 N   0  0  0  0  0  0
   -1.9747    5.2452   30.6157 C   0  0  0  0  0  0
   -4.3209    4.6001   30.5964 C   0  0  0  0  0  0
   -2.9577    4.2441   30.6081 C   0  0  0  0  0  0
   -2.4024    6.5722   30.6077 C   0  0  0  0  0  0
   -4.6318    5.9568   30.6084 C   0  0  0  0  0  0
   -0.5289    4.9908   30.5397 C   0  0  0  0  0  0
    1.5261    3.7757   29.8380 C   0  0  0  0  0  0
    0.0683    3.9418   29.9425 C   0  0  0  0  0  0
   -5.1280    2.3272   30.5568 C   0  0  0  0  0  0
   -6.4496    1.5324   30.6746 C   0  0  2  0  0  0
   -3.2881   -1.4923   31.4294 C   0  0  0  0  0  0
    2.4010    4.2260   30.8365 C   0  0  0  0  0  0
    2.0657    3.2231   28.6712 C   0  0  0  0  0  0
   -6.2105    0.0653   31.0839 C   0  0  0  0  0  0
   -4.6165   -1.7042   30.7041 C   0  0  0  0  0  0
    3.7757    4.1133   30.6270 C   0  0  0  0  0  0
    3.4523    3.1584   28.5357 C   0  0  0  0  0  0
   -2.2631   -2.4197   31.2399 C   0  0  0  0  0  0
   -3.0877   -0.4187   32.3051 C   0  0  0  0  0  0
   -1.0706   -2.3015   31.9452 C   0  0  0  0  0  0
   -1.8920   -0.2911   33.0053 C   0  0  0  0  0  0
   -0.8952   -1.2451   32.8369 C   0  0  0  0  0  0
   -6.6330    1.0052   28.7464 H   0  0  0  0  0  0
   -8.0478    1.0593   29.5107 H   0  0  0  0  0  0
   -2.6571    3.2081   30.5930 H   0  0  0  0  0  0
   -1.6894    7.3846   30.5864 H   0  0  0  0  0  0
   -5.6639    6.2795   30.6047 H   0  0  0  0  0  0
    0.0943    5.7429   31.0035 H   0  0  0  0  0  0
   -0.5319    3.1638   29.4906 H   0  0  0  0  0  0
   -4.5804    2.0454   29.6547 H   0  0  0  0  0  0
   -4.4925    2.0890   31.4063 H   0  0  0  0  0  0
   -7.0763    2.0073   31.4315 H   0  0  0  0  0  0
    2.0281    4.6642   31.7506 H   0  0  0  0  0  0
    1.4247    2.8716   27.8754 H   0  0  0  0  0  0
   -5.9458    0.0278   32.1419 H   0  0  0  0  0  0
   -7.1174   -0.5335   30.9742 H   0  0  0  0  0  0
   -5.2986   -2.2776   31.3342 H   0  0  0  0  0  0
   -4.4423   -2.3027   29.8084 H   0  0  0  0  0  0
    4.4787    4.4582   31.3702 H   0  0  0  0  0  0
    3.9038    2.7556   27.6417 H   0  0  0  0  0  0
   -2.3981   -3.2430   30.5533 H   0  0  0  0  0  0
   -3.8584    0.3086   32.4835 H   0  0  0  0  0  0
   -0.2886   -3.0318   31.8054 H   0  0  0  0  0  0
   -1.7492    0.5297   33.6922 H   0  0  0  0  0  0
    0.0273   -1.1584   33.3903 H   0  0  0  0  0  0
  1  7  1  0  0  0
  1 14  1  0  0  0
  2 19  1  0  0  0
  2 20  1  0  0  0
  3  9  2  0  0  0
  3 10  1  0  0  0
  4 21  2  0  0  0
  4 22  1  0  0  0
  5 15  1  0  0  0
  5 28  1  0  0  0
  5 29  1  0  0  0
  6  8  2  0  0  0
  6  9  1  0  0  0
  6 11  1  0  0  0
  7  8  1  0  0  0
  7 10  2  0  0  0
  8 30  1  0  0  0
  9 31  1  0  0  0
 10 32  1  0  0  0
 11 13  2  3  0  0
 11 33  1  0  0  0
 12 13  1  0  0  0
 12 17  2  0  0  0
 12 18  1  0  0  0
 13 34  1  0  0  0
 14 15  1  0  0  0
 14 35  1  0  0  0
 14 36  1  0  0  0
 15 19  1  0  0  0
 15 37  1  0  0  0
 16 20  1  0  0  0
 16 23  2  0  0  0
 16 24  1  0  0  0
 17 21  1  0  0  0
 17 38  1  0  0  0
 18 22  2  0  0  0
 18 39  1  0  0  0
 19 40  1  0  0  0
 19 41  1  0  0  0
 20 42  1  0  0  0
 20 43  1  0  0  0
 21 44  1  0  0  0
 22 45  1  0  0  0
 23 25  1  0  0  0
 23 46  1  0  0  0
 24 26  2  0  0  0
 24 47  1  0  0  0
 25 27  2  0  0  0
 25 48  1  0  0  0
 26 27  1  0  0  0
 26 49  1  0  0  0
 27 50  1  0  0  0
M  END
> <s_m_entry_id>
10191

> <s_m_entry_name>
dock_pv.260

> <s_m_Source_Path>
/home/csk/Desktop/cluster/DUD-E-result/met

> <s_m_Source_File>
dock_pv.maegz

> <i_m_Source_File_Index>
260

> <chembl_id>
CHEMBL1993781

> <chembl_pref_name>
None

> <i_lp_mmshare_version>
53161

> <i_f3d_flags>
0

> <r_lp_tautomer_probability>
1

> <s_lp_Force_Field>
OPLS_2005

> <r_lp_Energy>
27.921507

> <b_lp_Chiralities_Consistent>
1

> <s_lp_Variant>
CHEMBL3717_lig3859-1

> <s_i_glide_gridfile>
glide-grid_3lq8

> <i_i_glide_lignum>
4896

> <i_i_glide_rotatable_bonds>
9

> <r_i_docking_score>
-7.86546366795078

> <r_i_glide_ligand_efficiency>
-0.291313469183362

> <r_i_glide_ligand_efficiency_sa>
-0.873940406589965

> <r_i_glide_ligand_efficiency_ln>
-1.83095026959593

> <r_i_glide_gscore>
-7.86546366795078

> <r_i_glide_lipo>
-4.0618259879992

> <r_i_glide_hbond>
-0.32

> <r_i_glide_metal>
0

> <r_i_glide_rewards>
-2.20171721330165

> <r_i_glide_evdw>
-41.1683387756348

> <r_i_glide_ecoul>
-2.65801334381104

> <r_i_glide_erotb>
1.17519847370346

> <r_i_glide_esite>
0

> <r_i_glide_emodel>
-62.0873058626204

> <r_i_glide_energy>
-43.8263521194458

> <r_i_glide_einternal>
5.98125696182251

> <i_i_glide_confnum>
3

> <i_i_glide_posenum>
157

> <r_i_glide_eff_state_penalty>
0

> <s_user_duplicate_titles>
CHEMBL3717_lig3859

> <s_m_subgroup_title>
dock_pv

> <s_m_subgroupid>
dock_pv

> <b_m_subgroup_collapsed>
1

$$$$
CHEMBL3717_lig3712
                    3D
 Schrodinger Suite 2021-1.
 27 29  0  0  1  0            999 V2000
    1.1060    6.2085   30.2080 S   0  0  0  0  0  0
    3.7903    4.7570   30.2583 O   0  0  0  0  0  0
    2.9313    2.7570   30.9489 O   0  0  0  0  0  0
   -2.9440    6.4803   30.3596 N   0  0  0  0  0  0
   -0.9068    4.5644   30.6596 C   0  0  0  0  0  0
   -0.6141    5.9252   30.3613 C   0  0  0  0  0  0
   -2.2649    4.1730   30.7793 C   0  0  0  0  0  0
    1.4532    4.5277   30.5484 C   0  0  0  0  0  0
    0.2914    3.8041   30.7620 C   0  0  0  0  0  0
   -2.6829    2.7570   31.0080 C   0  0  0  0  0  0
   -1.6526    6.8472   30.2080 C   0  0  0  0  0  0
   -3.2247    5.1835   30.6239 C   0  0  0  0  0  0
    2.8239    4.0609   30.5613 C   0  0  0  0  0  0
   -3.6940    2.1900   30.2188 C   0  0  0  0  0  0
   -2.0940    1.9739   32.0116 C   0  0  0  0  0  0
   -4.0940    0.8701   30.4110 C   0  0  0  0  0  0
   -2.4940    0.6512   32.2080 C   0  0  0  0  0  0
   -3.4905    0.1049   31.4046 C   0  0  0  0  0  0
    2.0760    2.3525   31.0875 H   0  0  0  0  0  0
    0.2634    2.7570   30.9718 H   0  0  0  0  0  0
   -1.4562    7.8860   29.9779 H   0  0  0  0  0  0
   -4.2779    4.9541   30.7091 H   0  0  0  0  0  0
   -4.1680    2.7691   29.4403 H   0  0  0  0  0  0
   -1.3248    2.3789   32.6474 H   0  0  0  0  0  0
   -4.8655    0.4394   29.7888 H   0  0  0  0  0  0
   -2.0340    0.0536   32.9814 H   0  0  0  0  0  0
   -3.7997   -0.9198   31.5531 H   0  0  0  0  0  0
  1  6  1  0  0  0
  1  8  1  0  0  0
  2 13  2  0  0  0
  3 13  1  0  0  0
  3 19  1  0  0  0
  4 11  1  0  0  0
  4 12  2  0  0  0
  5  6  1  0  0  0
  5  7  2  0  0  0
  5  9  1  0  0  0
  6 11  2  0  0  0
  7 10  1  0  0  0
  7 12  1  0  0  0
  8  9  2  0  0  0
  8 13  1  0  0  0
  9 20  1  0  0  0
 10 14  2  0  0  0
 10 15  1  0  0  0
 11 21  1  0  0  0
 12 22  1  0  0  0
 14 16  1  0  0  0
 14 23  1  0  0  0
 15 17  2  0  0  0
 15 24  1  0  0  0
 16 18  2  0  0  0
 16 25  1  0  0  0
 17 18  1  0  0  0
 17 26  1  0  0  0
 18 27  1  0  0  0
M  END
> <s_m_entry_id>
10192

> <s_m_entry_name>
dock_pv.261

> <s_m_Source_Path>
/home/csk/Desktop/cluster/DUD-E-result/met

> <s_m_Source_File>
dock_pv.maegz

> <i_m_Source_File_Index>
261

> <chembl_id>
CHEMBL1996390

> <chembl_pref_name>
None

> <i_lp_mmshare_version>
53161

> <i_f3d_flags>
0

> <r_lp_tautomer_probability>
1

> <s_lp_Force_Field>
OPLS_2005

> <r_lp_Energy>
11.616204

> <b_lp_Chiralities_Consistent>
1

> <s_lp_Variant>
CHEMBL3717_lig3712-1

> <s_i_glide_gridfile>
glide-grid_3lq8

> <i_i_glide_lignum>
4673

> <i_i_glide_rotatable_bonds>
3

> <r_i_docking_score>
-7.85382604319175

> <r_i_glide_ligand_efficiency>
-0.436323669066208

> <r_i_glide_ligand_efficiency_sa>
-1.14349149969321

> <r_i_glide_ligand_efficiency_ln>
-2.01878548682426

> <r_i_glide_gscore>
-7.85382604319175

> <r_i_glide_lipo>
-3.27272263104886

> <r_i_glide_hbond>
-0.025379186929779

> <r_i_glide_metal>
0

> <r_i_glide_rewards>
-3.5856156221043

> <r_i_glide_evdw>
-26.2807941436768

> <r_i_glide_ecoul>
-1.30859732627869

> <r_i_glide_erotb>
0.540220703016836

> <r_i_glide_esite>
0

> <r_i_glide_emodel>
-42.4823219140957

> <r_i_glide_energy>
-27.5893914699554

> <r_i_glide_einternal>
0.209824919700623

> <i_i_glide_confnum>
1

> <i_i_glide_posenum>
9

> <r_i_glide_eff_state_penalty>
0

> <s_user_duplicate_titles>
CHEMBL3717_lig3712

> <s_m_subgroup_title>
dock_pv

> <s_m_subgroupid>
dock_pv

> <b_m_subgroup_collapsed>
1

$$$$
CHEMBL3717_lig1879
                    3D
 Schrodinger Suite 2021-1.
 38 42  0  0  1  0            999 V2000
   -4.1138    4.6467   30.6082 C   0  0  0  0  0  0
   -5.2480    5.3759   31.0031 C   0  0  0  0  0  0
   -6.5074    4.8503   31.0047 N   0  0  0  0  0  0
   -4.2123    3.3512   30.1990 N   0  0  0  0  0  0
   -5.4487    2.8514   30.2087 C   0  0  0  0  0  0
   -6.5934    3.5754   30.6070 C   0  0  0  0  0  0
   -7.6853    2.7650   30.5198 N   0  0  0  0  0  0
   -7.2407    1.5302   30.0800 N   0  0  0  0  0  0
   -5.9065    1.5912   29.8729 N   0  0  0  0  0  0
   -5.1677    0.4229   29.4017 C   0  0  0  0  0  0
   -4.3641   -0.3262   30.4642 C   0  0  0  0  0  0
   -4.4715   -1.7146   30.5649 C   0  0  0  0  0  0
   -3.6608   -2.4430   31.4396 C   0  0  0  0  0  0
   -3.4613    0.3395   31.2961 C   0  0  0  0  0  0
   -2.6546   -0.3772   32.1336 N   0  0  0  0  0  0
   -2.6928   -1.7763   32.2066 C   0  0  0  0  0  0
   -1.7297   -2.2463   33.0456 N   0  0  0  0  0  0
   -1.1220   -1.1671   33.4874 C   0  0  0  0  0  0
   -1.6816    0.0144   33.0091 C   0  0  0  0  0  0
   -2.7355    5.2134   30.6098 C   0  0  0  0  0  0
   -1.6261    4.4239   30.9530 C   0  0  0  0  0  0
   -0.3338    4.9250   30.8253 C   0  0  0  0  0  0
   -0.1434    6.2223   30.3611 C   0  0  0  0  0  0
   -1.2314    7.0362   30.0656 C   0  0  0  0  0  0
   -2.5218    6.5351   30.2082 C   0  0  0  0  0  0
    1.1069    6.7029   30.2071 F   0  0  0  0  0  0
   -5.1632    6.3974   31.3293 H   0  0  0  0  0  0
   -4.4723    0.7658   28.6342 H   0  0  0  0  0  0
   -5.8595   -0.2471   28.8863 H   0  0  0  0  0  0
   -5.1694   -2.2502   29.9360 H   0  0  0  0  0  0
   -3.7527   -3.5158   31.4927 H   0  0  0  0  0  0
   -3.3024    1.4003   31.3078 H   0  0  0  0  0  0
   -0.2882   -1.2414   34.1720 H   0  0  0  0  0  0
   -1.4278    1.0486   33.1818 H   0  0  0  0  0  0
   -1.7603    3.4043   31.2829 H   0  0  0  0  0  0
    0.5184    4.3056   31.0629 H   0  0  0  0  0  0
   -1.0681    8.0475   29.7246 H   0  0  0  0  0  0
   -3.3645    7.1568   29.9512 H   0  0  0  0  0  0
  1  2  1  0  0  0
  1  4  2  0  0  0
  1 20  1  0  0  0
  2  3  2  0  0  0
  2 27  1  0  0  0
  3  6  1  0  0  0
  4  5  1  0  0  0
  5  6  2  0  0  0
  5  9  1  0  0  0
  6  7  1  0  0  0
  7  8  2  0  0  0
  8  9  1  0  0  0
  9 10  1  0  0  0
 10 11  1  0  0  0
 10 28  1  0  0  0
 10 29  1  0  0  0
 11 12  1  0  0  0
 11 14  2  0  0  0
 12 13  2  0  0  0
 12 30  1  0  0  0
 13 16  1  0  0  0
 13 31  1  0  0  0
 14 15  1  0  0  0
 14 32  1  0  0  0
 15 16  1  0  0  0
 15 19  1  0  0  0
 16 17  2  0  0  0
 17 18  1  0  0  0
 18 19  2  0  0  0
 18 33  1  0  0  0
 19 34  1  0  0  0
 20 21  2  0  0  0
 20 25  1  0  0  0
 21 22  1  0  0  0
 21 35  1  0  0  0
 22 23  2  0  0  0
 22 36  1  0  0  0
 23 24  1  0  0  0
 23 26  1  0  0  0
 24 25  2  0  0  0
 24 37  1  0  0  0
 25 38  1  0  0  0
M  END
> <s_m_entry_id>
10193

> <s_m_entry_name>
dock_pv.262

> <s_m_Source_Path>
/home/csk/Desktop/cluster/DUD-E-result/met

> <s_m_Source_File>
dock_pv.maegz

> <i_m_Source_File_Index>
262

> <chembl_id>
CHEMBL3334565

> <chembl_pref_name>
None

> <i_lp_mmshare_version>
53161

> <i_f3d_flags>
0

> <r_lp_tautomer_probability>
1

> <s_lp_Force_Field>
OPLS_2005

> <r_lp_Energy>
25.145264

> <b_lp_Chiralities_Consistent>
1

> <s_lp_Variant>
CHEMBL3717_lig1879-1

> <s_i_glide_gridfile>
glide-grid_3lq8

> <i_i_glide_lignum>
2171

> <i_i_glide_rotatable_bonds>
3

> <r_i_docking_score>
-7.84765857061447

> <r_i_glide_ligand_efficiency>
-0.30183302194671

> <r_i_glide_ligand_efficiency_sa>
-0.894179139861537

> <r_i_glide_ligand_efficiency_ln>
-1.84299686504075

> <r_i_glide_gscore>
-7.84765857061447

> <r_i_glide_lipo>
-3.12131965160504

> <r_i_glide_hbond>
0

> <r_i_glide_metal>
0

> <r_i_glide_rewards>
-3.0755121640418

> <r_i_glide_evdw>
-41.027515411377

> <r_i_glide_ecoul>
-0.515870869159698

> <r_i_glide_erotb>
0.477929645975175

> <r_i_glide_esite>
0

> <r_i_glide_emodel>
-59.7794590264996

> <r_i_glide_energy>
-41.5433862805367

> <r_i_glide_einternal>
1.60799264907837

> <i_i_glide_confnum>
9

> <i_i_glide_posenum>
123

> <r_i_glide_eff_state_penalty>
0

> <s_user_duplicate_titles>
CHEMBL3717_lig1879

> <s_m_subgroup_title>
dock_pv

> <s_m_subgroupid>
dock_pv

> <b_m_subgroup_collapsed>
1

$$$$
CHEMBL3717_lig2633
                    3D
 Schrodinger Suite 2021-1.
 45 48  0  0  1  0            999 V2000
   -5.6460    0.9418   31.0341 C   0  0  0  0  0  0
   -4.1522    1.1913   30.7717 C   0  0  0  0  0  0
   -3.2941    0.2478   30.6619 N   0  0  0  0  0  0
   -3.8254   -1.0273   30.9535 O   0  0  0  0  0  0
   -2.8556   -2.0462   30.6966 C   0  0  0  0  0  0
   -1.6862   -2.0430   31.7038 C   0  0  0  0  0  0
   -1.6958   -1.3726   32.7336 O   0  0  0  0  0  0
   -0.6527   -2.8303   31.4079 N   0  0  0  0  0  0
   -3.7444    2.6149   30.6079 C   0  0  0  0  0  0
   -4.6369    3.6285   30.2115 C   0  0  0  0  0  0
   -4.2118    4.9586   30.1183 C   0  0  0  0  0  0
   -2.8605    5.2337   30.3746 C   0  0  0  0  0  0
   -2.1080    6.3547   30.2890 N   0  0  0  0  0  0
   -0.8107    5.9772   30.6080 N   0  0  0  0  0  0
   -0.7884    4.6971   30.9274 C   0  0  0  0  0  0
    0.4280    3.9120   31.4171 C   0  0  0  0  0  0
    1.6782    4.0267   30.5611 C   0  0  0  0  0  0
    1.6110    3.8635   29.1770 C   0  0  0  0  0  0
    2.7578    3.9568   28.3949 C   0  0  0  0  0  0
    4.0094    4.2228   28.9994 C   0  0  0  0  0  0
    5.1063    4.3569   28.2081 N   0  0  0  0  0  0
    6.3057    4.5604   28.7985 C   0  0  0  0  0  0
    6.4819    4.6849   30.1705 C   0  0  0  0  0  0
    5.3655    4.5978   30.9899 C   0  0  0  0  0  0
    4.0900    4.3563   30.4167 C   0  0  0  0  0  0
    2.9096    4.2510   31.1833 C   0  0  0  0  0  0
   -2.0494    4.1572   30.7617 N   0  0  0  0  0  0
   -2.4362    2.8809   30.9089 N   0  0  0  0  0  0
   -6.1210    1.7729   31.5539 H   0  0  0  0  0  0
   -6.1740    0.8053   30.0894 H   0  0  0  0  0  0
   -5.8262    0.0493   31.6365 H   0  0  0  0  0  0
   -2.4924   -1.9844   29.6684 H   0  0  0  0  0  0
   -3.3726   -3.0003   30.7907 H   0  0  0  0  0  0
    0.1551   -2.8375   32.0218 H   0  0  0  0  0  0
   -0.7255   -3.4752   30.6327 H   0  0  0  0  0  0
   -5.6674    3.4006   29.9762 H   0  0  0  0  0  0
   -4.8892    5.7434   29.8089 H   0  0  0  0  0  0
    0.7036    4.2269   32.4262 H   0  0  0  0  0  0
    0.1999    2.8490   31.4910 H   0  0  0  0  0  0
    0.6617    3.6629   28.7005 H   0  0  0  0  0  0
    2.6965    3.8380   27.3233 H   0  0  0  0  0  0
    7.1510    4.6372   28.1302 H   0  0  0  0  0  0
    7.4625    4.8771   30.5825 H   0  0  0  0  0  0
    5.4656    4.7570   32.0529 H   0  0  0  0  0  0
    2.9744    4.3589   32.2564 H   0  0  0  0  0  0
  1  2  1  0  0  0
  1 29  1  0  0  0
  1 30  1  0  0  0
  1 31  1  0  0  0
  2  3  2  0  0  0
  2  9  1  0  0  0
  3  4  1  0  0  0
  4  5  1  0  0  0
  5  6  1  0  0  0
  5 32  1  0  0  0
  5 33  1  0  0  0
  6  7  2  0  0  0
  6  8  1  0  0  0
  8 34  1  0  0  0
  8 35  1  0  0  0
  9 10  1  0  0  0
  9 28  2  0  0  0
 10 11  2  0  0  0
 10 36  1  0  0  0
 11 12  1  0  0  0
 11 37  1  0  0  0
 12 13  2  0  0  0
 12 27  1  0  0  0
 13 14  1  0  0  0
 14 15  2  0  0  0
 15 16  1  0  0  0
 15 27  1  0  0  0
 16 17  1  0  0  0
 16 38  1  0  0  0
 16 39  1  0  0  0
 17 18  2  0  0  0
 17 26  1  0  0  0
 18 19  1  0  0  0
 18 40  1  0  0  0
 19 20  2  0  0  0
 19 41  1  0  0  0
 20 21  1  0  0  0
 20 25  1  0  0  0
 21 22  2  0  0  0
 22 23  1  0  0  0
 22 42  1  0  0  0
 23 24  2  0  0  0
 23 43  1  0  0  0
 24 25  1  0  0  0
 24 44  1  0  0  0
 25 26  2  0  0  0
 26 45  1  0  0  0
 27 28  1  0  0  0
M  END
> <s_m_entry_id>
10194

> <s_m_entry_name>
dock_pv.263

> <s_m_Source_Path>
/home/csk/Desktop/cluster/DUD-E-result/met

> <s_m_Source_File>
dock_pv.maegz

> <i_m_Source_File_Index>
263

> <chembl_id>
CHEMBL3651402

> <chembl_pref_name>
None

> <i_lp_mmshare_version>
53161

> <i_f3d_flags>
0

> <r_lp_tautomer_probability>
1

> <s_lp_Force_Field>
OPLS_2005

> <r_lp_Energy>
18.455079

> <b_lp_Chiralities_Consistent>
1

> <s_lp_Variant>
CHEMBL3717_lig2633-1

> <s_i_glide_gridfile>
glide-grid_3lq8

> <i_i_glide_lignum>
2990

> <i_i_glide_rotatable_bonds>
6

> <r_i_docking_score>
-7.84305226201677

> <r_i_glide_ligand_efficiency>
-0.280109009357742

> <r_i_glide_ligand_efficiency_sa>
-0.850575927793972

> <r_i_glide_ligand_efficiency_ln>
-1.81040674409426

> <r_i_glide_gscore>
-7.84305226201677

> <r_i_glide_lipo>
-3.04863218175144

> <r_i_glide_hbond>
-0.390123639986513

> <r_i_glide_metal>
0

> <r_i_glide_rewards>
-2.12967095800408

> <r_i_glide_evdw>
-43.0169982910156

> <r_i_glide_ecoul>
-5.40157651901245

> <r_i_glide_erotb>
0.686460910127907

> <r_i_glide_esite>
0

> <r_i_glide_emodel>
-68.0047675924625

> <r_i_glide_energy>
-48.4185748100281

> <r_i_glide_einternal>
4.44200658798218

> <i_i_glide_confnum>
48

> <i_i_glide_posenum>
386

> <r_i_glide_eff_state_penalty>
0

> <s_user_duplicate_titles>
CHEMBL3717_lig2633

> <s_m_subgroup_title>
dock_pv

> <s_m_subgroupid>
dock_pv

> <b_m_subgroup_collapsed>
1

$$$$
CHEMBL3717_lig2111
                    3D
 Schrodinger Suite 2021-1.
 47 51  0  0  1  0            999 V2000
   -9.0241   -0.8501   30.1863 N   0  0  0  0  0  0
   -9.6676   -0.8326   28.9933 C   0  0  0  0  0  0
   -9.1396   -0.2598   27.8379 C   0  0  0  0  0  0
   -7.8728    0.3168   27.8919 C   0  0  0  0  0  0
   -7.1717    0.3313   29.1233 C   0  0  0  0  0  0
   -5.8905    0.9135   29.2635 C   0  0  0  0  0  0
   -5.2547    0.9366   30.5040 C   0  0  0  0  0  0
   -5.8646    0.3485   31.6128 C   0  0  0  0  0  0
   -7.1166   -0.2546   31.5041 C   0  0  0  0  0  0
   -7.7917   -0.2713   30.2607 C   0  0  0  0  0  0
   -3.8956    1.6027   30.6324 C   0  0  0  0  0  0
   -3.2985    5.2415   30.6061 C   0  0  0  0  0  0
   -2.3480    6.2757   30.6076 C   0  0  0  0  0  0
   -0.9869    5.9571   30.6079 C   0  0  0  0  0  0
   -0.5350    4.6315   30.6083 C   0  0  0  0  0  0
   -1.4987    3.6137   30.6182 C   0  0  0  0  0  0
   -2.8364    3.9164   30.6085 N   0  0  0  0  0  0
   -4.6542    5.2888   30.6079 N   0  0  0  0  0  0
   -5.0268    4.0302   30.6077 C   0  0  0  0  0  0
   -3.9636    3.1234   30.6074 C   0  0  0  0  0  0
    0.9248    4.3028   30.5718 C   0  0  0  0  0  0
    1.4258    3.1846   31.2435 C   0  0  0  0  0  0
    2.7758    2.8435   31.1931 C   0  0  0  0  0  0
    3.6861    3.6362   30.4944 C   0  0  0  0  0  0
    3.1945    4.7561   29.8061 C   0  0  0  0  0  0
    1.8346    5.0767   29.8396 C   0  0  0  0  0  0
    5.0173    3.2603   30.5343 O   0  0  0  0  0  0
    5.9762    4.0249   29.8122 C   0  0  0  0  0  0
    3.1953    1.7220   31.8167 F   0  0  0  0  0  0
   -2.7441    7.5675   30.6061 F   0  0  0  0  0  0
  -10.6381   -1.3015   28.9743 H   0  0  0  0  0  0
   -9.6984   -0.2707   26.9158 H   0  0  0  0  0  0
   -7.4320    0.7566   27.0080 H   0  0  0  0  0  0
   -5.4129    1.3542   28.4024 H   0  0  0  0  0  0
   -5.3679    0.3563   32.5733 H   0  0  0  0  0  0
   -7.5794   -0.7061   32.3715 H   0  0  0  0  0  0
   -3.3943    1.2484   31.5335 H   0  0  0  0  0  0
   -3.2938    1.2343   29.8060 H   0  0  0  0  0  0
   -0.2759    6.7700   30.6062 H   0  0  0  0  0  0
   -1.2607    2.5640   30.6063 H   0  0  0  0  0  0
   -6.0742    3.7634   30.6116 H   0  0  0  0  0  0
    0.7589    2.5525   31.8037 H   0  0  0  0  0  0
    3.8581    5.3887   29.2348 H   0  0  0  0  0  0
    1.4892    5.9339   29.2825 H   0  0  0  0  0  0
    6.9601    3.5694   29.9291 H   0  0  0  0  0  0
    5.7515    4.0455   28.7447 H   0  0  0  0  0  0
    6.0347    5.0493   30.1855 H   0  0  0  0  0  0
  1  2  2  0  0  0
  1 10  1  0  0  0
  2  3  1  0  0  0
  2 31  1  0  0  0
  3  4  2  0  0  0
  3 32  1  0  0  0
  4  5  1  0  0  0
  4 33  1  0  0  0
  5  6  2  0  0  0
  5 10  1  0  0  0
  6  7  1  0  0  0
  6 34  1  0  0  0
  7  8  2  0  0  0
  7 11  1  0  0  0
  8  9  1  0  0  0
  8 35  1  0  0  0
  9 10  2  0  0  0
  9 36  1  0  0  0
 11 20  1  0  0  0
 11 37  1  0  0  0
 11 38  1  0  0  0
 12 13  1  0  0  0
 12 17  1  0  0  0
 12 18  2  0  0  0
 13 14  2  0  0  0
 13 30  1  0  0  0
 14 15  1  0  0  0
 14 39  1  0  0  0
 15 16  2  0  0  0
 15 21  1  0  0  0
 16 17  1  0  0  0
 16 40  1  0  0  0
 17 20  1  0  0  0
 18 19  1  0  0  0
 19 20  2  0  0  0
 19 41  1  0  0  0
 21 22  1  0  0  0
 21 26  2  0  0  0
 22 23  2  0  0  0
 22 42  1  0  0  0
 23 24  1  0  0  0
 23 29  1  0  0  0
 24 25  2  0  0  0
 24 27  1  0  0  0
 25 26  1  0  0  0
 25 43  1  0  0  0
 26 44  1  0  0  0
 27 28  1  0  0  0
 28 45  1  0  0  0
 28 46  1  0  0  0
 28 47  1  0  0  0
M  END
> <s_m_entry_id>
10195

> <s_m_entry_name>
dock_pv.264

> <s_m_Source_Path>
/home/csk/Desktop/cluster/DUD-E-result/met

> <s_m_Source_File>
dock_pv.maegz

> <i_m_Source_File_Index>
264

> <chembl_id>
CHEMBL3582288

> <chembl_pref_name>
None

> <i_lp_mmshare_version>
53161

> <i_f3d_flags>
0

> <r_lp_tautomer_probability>
1

> <s_lp_Force_Field>
OPLS_2005

> <r_lp_Energy>
23.62906

> <b_lp_Chiralities_Consistent>
1

> <s_lp_Variant>
CHEMBL3717_lig2111-1

> <s_i_glide_gridfile>
glide-grid_3lq8

> <i_i_glide_lignum>
2409

> <i_i_glide_rotatable_bonds>
4

> <r_i_docking_score>
-7.83256396966515

> <r_i_glide_ligand_efficiency>
-0.261085465655505

> <r_i_glide_ligand_efficiency_sa>
-0.811253244797141

> <r_i_glide_ligand_efficiency_ln>
-1.77964387652778

> <r_i_glide_gscore>
-7.83256396966515

> <r_i_glide_lipo>
-3.78144202663193

> <r_i_glide_hbond>
0

> <r_i_glide_metal>
0

> <r_i_glide_rewards>
-2.26719094797131

> <r_i_glide_evdw>
-41.2239074707031

> <r_i_glide_ecoul>
-0.586120426654816

> <r_i_glide_erotb>
0.365182442471461

> <r_i_glide_esite>
0

> <r_i_glide_emodel>
-61.2728611602615

> <r_i_glide_energy>
-41.8100278973579

> <r_i_glide_einternal>
0.131799265742302

> <i_i_glide_confnum>
2

> <i_i_glide_posenum>
57

> <r_i_glide_eff_state_penalty>
0

> <s_user_duplicate_titles>
CHEMBL3717_lig2111

> <s_m_subgroup_title>
dock_pv

> <s_m_subgroupid>
dock_pv

> <b_m_subgroup_collapsed>
1

$$$$
CHEMBL3717_lig4155
                    3D
 Schrodinger Suite 2021-1.
 33 35  0  0  1  0            999 V2000
   -7.5434    4.2189   30.6106 S   0  0  0  0  0  0
    4.3059    3.5572   28.3385 O   0  0  0  0  0  0
    1.5030    5.6409   30.3412 N   0  0  0  0  0  0
    2.3999    3.4489   30.6967 N   0  0  0  0  0  0
   -1.1000    4.6280   30.7277 C   0  0  0  0  0  0
   -0.9085    5.9969   30.3827 C   0  0  0  0  0  0
   -3.5254    4.9577   30.6083 C   0  0  0  0  0  0
   -2.4204    4.1307   30.8496 C   0  0  0  0  0  0
   -4.9190    4.3999   30.5954 C   0  0  0  0  0  0
    0.0417    3.8018   30.8858 C   0  0  0  0  0  0
    1.3114    4.3348   30.6588 C   0  0  0  0  0  0
   -2.0291    6.8358   30.2080 C   0  0  0  0  0  0
   -3.3127    6.3108   30.3322 C   0  0  0  0  0  0
    0.4194    6.4366   30.2097 C   0  0  0  0  0  0
   -6.0906    5.1569   30.6861 C   0  0  0  0  0  0
   -5.2431    3.0356   30.4444 C   0  0  0  0  0  0
   -6.6069    2.7762   30.4451 C   0  0  0  0  0  0
    3.7811    3.9360   30.7229 C   0  0  0  0  0  0
    4.3209    4.5004   29.3882 C   0  0  0  0  0  0
    5.0397    2.9392   28.4494 H   0  0  0  0  0  0
    2.2098    2.6747   31.3145 H   0  0  0  0  0  0
   -2.5532    3.0851   31.0839 H   0  0  0  0  0  0
   -0.0875    2.7572   31.1234 H   0  0  0  0  0  0
   -1.8796    7.8760   29.9536 H   0  0  0  0  0  0
   -4.1549    6.9630   30.1578 H   0  0  0  0  0  0
    0.6121    7.4659   29.9419 H   0  0  0  0  0  0
   -6.1751    6.2299   30.7735 H   0  0  0  0  0  0
   -4.5082    2.2519   30.3350 H   0  0  0  0  0  0
   -7.0971    1.8184   30.3482 H   0  0  0  0  0  0
    4.4086    3.0913   31.0069 H   0  0  0  0  0  0
    3.9283    4.6697   31.5161 H   0  0  0  0  0  0
    5.2314    5.0896   29.4973 H   0  0  0  0  0  0
    3.5960    5.2133   29.0079 H   0  0  0  0  0  0
  1 15  1  0  0  0
  1 17  1  0  0  0
  2 19  1  0  0  0
  2 20  1  0  0  0
  3 11  1  0  0  0
  3 14  2  0  0  0
  4 11  1  0  0  0
  4 18  1  0  0  0
  4 21  1  0  0  0
  5  6  1  0  0  0
  5  8  2  0  0  0
  5 10  1  0  0  0
  6 12  2  0  0  0
  6 14  1  0  0  0
  7  8  1  0  0  0
  7  9  1  0  0  0
  7 13  2  0  0  0
  8 22  1  0  0  0
  9 15  2  0  0  0
  9 16  1  0  0  0
 10 11  2  0  0  0
 10 23  1  0  0  0
 12 13  1  0  0  0
 12 24  1  0  0  0
 13 25  1  0  0  0
 14 26  1  0  0  0
 15 27  1  0  0  0
 16 17  2  0  0  0
 16 28  1  0  0  0
 17 29  1  0  0  0
 18 19  1  0  0  0
 18 30  1  0  0  0
 18 31  1  0  0  0
 19 32  1  0  0  0
 19 33  1  0  0  0
M  END
> <s_m_entry_id>
10196

> <s_m_entry_name>
dock_pv.265

> <s_m_Source_Path>
/home/csk/Desktop/cluster/DUD-E-result/met

> <s_m_Source_File>
dock_pv.maegz

> <i_m_Source_File_Index>
265

> <chembl_id>
CHEMBL1973860

> <chembl_pref_name>
None

> <i_lp_mmshare_version>
53161

> <i_f3d_flags>
0

> <r_lp_tautomer_probability>
1

> <s_lp_Force_Field>
OPLS_2005

> <r_lp_Energy>
10.844395

> <b_lp_Chiralities_Consistent>
1

> <s_lp_Variant>
CHEMBL3717_lig4155-1

> <s_i_glide_gridfile>
glide-grid_3lq8

> <i_i_glide_lignum>
5317

> <i_i_glide_rotatable_bonds>
5

> <r_i_docking_score>
-7.83132586999615

> <r_i_glide_ligand_efficiency>
-0.412175045789271

> <r_i_glide_ligand_efficiency_sa>
-1.09984857066666

> <r_i_glide_ligand_efficiency_ln>
-1.98540930950112

> <r_i_glide_gscore>
-7.83132586999615

> <r_i_glide_lipo>
-4.1383043099608

> <r_i_glide_hbond>
-0.32

> <r_i_glide_metal>
0

> <r_i_glide_rewards>
-2.15764475546353

> <r_i_glide_evdw>
-34.5856399536133

> <r_i_glide_ecoul>
-3.09918022155762

> <r_i_glide_erotb>
0.978782226342483

> <r_i_glide_esite>
0

> <r_i_glide_emodel>
-53.5186519748473

> <r_i_glide_energy>
-37.6848201751709

> <r_i_glide_einternal>
3.53643536567688

> <i_i_glide_confnum>
51

> <i_i_glide_posenum>
229

> <r_i_glide_eff_state_penalty>
0

> <s_user_duplicate_titles>
CHEMBL3717_lig4155

> <s_m_subgroup_title>
dock_pv

> <s_m_subgroupid>
dock_pv

> <b_m_subgroup_collapsed>
1

$$$$
CHEMBL3717_lig3958
                    3D
 Schrodinger Suite 2021-1.
 25 27  0  0  1  0            999 V2000
   -5.9717    4.8188   30.6723 O   0  0  0  0  0  0
   -3.7931    4.0469   30.6080 N   0  0  0  0  0  0
   -4.0937    6.1597   30.5085 N   0  0  0  0  0  0
   -1.7466    6.8527   30.2242 N   0  0  0  0  0  0
   -2.5416    4.6145   30.6081 C   0  0  0  0  0  0
   -2.7353    5.9567   30.4609 C   0  0  0  0  0  0
   -0.1821    4.9774   30.3776 C   0  0  0  0  0  0
   -1.2491    4.0910   30.6080 C   0  0  0  0  0  0
   -4.7588    4.9900   30.6052 C   0  0  0  0  0  0
   -0.4794    6.3454   30.2079 C   0  0  0  0  0  0
    1.1937    4.4680   30.1920 C   0  0  0  0  0  0
    2.1634    4.6573   31.1777 C   0  0  0  0  0  0
    1.5320    3.8004   29.0101 C   0  0  0  0  0  0
    3.4649    4.2033   30.9761 C   0  0  0  0  0  0
    2.8316    3.3464   28.8045 C   0  0  0  0  0  0
    3.7958    3.5570   29.7872 C   0  0  0  0  0  0
   -3.9855    3.0565   30.6279 H   0  0  0  0  0  0
   -4.5627    7.0521   30.4985 H   0  0  0  0  0  0
   -1.0700    3.0286   30.6879 H   0  0  0  0  0  0
    0.3082    7.0550   29.9986 H   0  0  0  0  0  0
    1.9058    5.1545   32.1012 H   0  0  0  0  0  0
    0.7873    3.6411   28.2431 H   0  0  0  0  0  0
    4.2147    4.3570   31.7370 H   0  0  0  0  0  0
    3.0899    2.8336   27.8892 H   0  0  0  0  0  0
    4.8053    3.2061   29.6253 H   0  0  0  0  0  0
  1  9  2  0  0  0
  2  5  1  0  0  0
  2  9  1  0  0  0
  2 17  1  0  0  0
  3  6  1  0  0  0
  3  9  1  0  0  0
  3 18  1  0  0  0
  4  6  2  0  0  0
  4 10  1  0  0  0
  5  6  1  0  0  0
  5  8  2  0  0  0
  7  8  1  0  0  0
  7 10  2  0  0  0
  7 11  1  0  0  0
  8 19  1  0  0  0
 10 20  1  0  0  0
 11 12  2  0  0  0
 11 13  1  0  0  0
 12 14  1  0  0  0
 12 21  1  0  0  0
 13 15  2  0  0  0
 13 22  1  0  0  0
 14 16  2  0  0  0
 14 23  1  0  0  0
 15 16  1  0  0  0
 15 24  1  0  0  0
 16 25  1  0  0  0
M  END
> <s_m_entry_id>
10197

> <s_m_entry_name>
dock_pv.266

> <s_m_Source_Path>
/home/csk/Desktop/cluster/DUD-E-result/met

> <s_m_Source_File>
dock_pv.maegz

> <i_m_Source_File_Index>
266

> <chembl_id>
CHEMBL2003456

> <chembl_pref_name>
None

> <i_lp_mmshare_version>
53161

> <i_f3d_flags>
0

> <r_lp_tautomer_probability>
1

> <s_lp_Force_Field>
OPLS_2005

> <r_lp_Energy>
33.156562

> <b_lp_Chiralities_Consistent>
1

> <s_lp_Variant>
CHEMBL3717_lig3958-1

> <s_i_glide_gridfile>
glide-grid_3lq8

> <i_i_glide_lignum>
5031

> <i_i_glide_rotatable_bonds>
1

> <r_i_docking_score>
-7.82495036008588

> <r_i_glide_ligand_efficiency>
-0.489059397505367

> <r_i_glide_ligand_efficiency_sa>
-1.2323524579929

> <r_i_glide_ligand_efficiency_ln>
-2.0741593998723

> <r_i_glide_gscore>
-7.82495036008588

> <r_i_glide_lipo>
-2.81228491223824

> <r_i_glide_hbond>
0

> <r_i_glide_metal>
0

> <r_i_glide_rewards>
-3.72710806819416

> <r_i_glide_evdw>
-33.1994171142578

> <r_i_glide_ecoul>
0.0113867642357945

> <r_i_glide_erotb>
0.372705461424048

> <r_i_glide_esite>
0

> <r_i_glide_emodel>
-46.1964101230617

> <r_i_glide_energy>
-33.188030350022

> <r_i_glide_einternal>
3.47805690765381

> <i_i_glide_confnum>
4

> <i_i_glide_posenum>
47

> <r_i_glide_eff_state_penalty>
0

> <s_user_duplicate_titles>
CHEMBL3717_lig3958

> <s_m_subgroup_title>
dock_pv

> <s_m_subgroupid>
dock_pv

> <b_m_subgroup_collapsed>
1

$$$$
CHEMBL3717_lig1358
                    3D
 Schrodinger Suite 2021-1.
 58 62  0  0  1  0            999 V2000
   -2.5489    3.3381   31.0079 C   0  0  0  0  0  0
   -3.2817    6.3530   30.8220 C   0  0  0  0  0  0
   -4.4869    5.7545   30.7952 C   0  0  0  0  0  0
   -3.9717    3.2671   30.5352 C   0  0  0  0  0  0
   -4.8680    4.3550   30.5174 C   0  0  0  0  0  0
   -6.2123    4.1047   30.2083 C   0  0  0  0  0  0
   -6.6541    2.8242   29.8775 C   0  0  0  0  0  0
   -5.7472    1.7673   29.8056 C   0  0  0  0  0  0
   -4.4202    1.9820   30.1748 C   0  0  0  0  0  0
   -1.9360    5.7998   30.5760 C   0  0  0  0  0  0
   -1.6106    4.4338   30.6321 C   0  0  0  0  0  0
   -0.2947    4.0406   30.3368 C   0  0  0  0  0  0
    0.6420    4.9905   29.9386 C   0  0  0  0  0  0
    0.2481    6.3303   29.9057 C   0  0  0  0  0  0
   -1.0146    6.7345   30.2080 N   0  0  0  0  0  0
   -2.0939    2.3566   31.5965 O   0  0  0  0  0  0
   -6.1829    0.4234   29.2339 C   0  0  0  0  0  0
   -6.5218   -0.9300   30.5005 S   0  0  0  0  0  0
   -4.9145   -1.4244   31.0268 N   0  0  1  0  0  0
   -7.1182   -2.0639   29.7873 O   0  0  0  0  0  0
   -7.2096   -0.3443   31.6548 O   0  0  0  0  0  0
    1.9825    4.5381   29.5049 C   0  0  0  0  0  0
    2.2999    3.7560   28.3835 C   0  0  0  0  0  0
    3.5896    3.5543   28.2419 N   0  0  0  0  0  0
    4.1423    4.1818   29.2859 N   0  0  0  0  0  0
    3.2079    4.7569   30.1046 C   0  0  0  0  0  0
    5.5817    4.1497   29.4619 C   0  0  0  0  0  0
   -4.7194   -2.8422   31.4251 C   0  0  0  0  0  0
   -5.6782   -3.3182   32.5360 C   0  0  2  0  0  0
   -5.6077   -2.4449   33.6618 O   0  0  0  0  0  0
   -6.5665   -2.7791   34.6628 C   0  0  0  0  0  0
   -6.2695   -4.2092   35.1656 C   0  0  0  0  0  0
   -6.2313   -5.1142   34.0602 O   0  0  0  0  0  0
   -5.2961   -4.7256   33.0514 C   0  0  0  0  0  0
   -3.2900    7.4066   31.0618 H   0  0  0  0  0  0
   -5.3275    6.3985   31.0097 H   0  0  0  0  0  0
   -6.9276    4.9153   30.1950 H   0  0  0  0  0  0
   -7.6899    2.6746   29.6083 H   0  0  0  0  0  0
   -3.7390    1.1421   30.1479 H   0  0  0  0  0  0
    0.0034    3.0011   30.3601 H   0  0  0  0  0  0
    0.9371    7.1023   29.5951 H   0  0  0  0  0  0
   -5.4335    0.0278   28.5500 H   0  0  0  0  0  0
   -7.1044    0.5350   28.6628 H   0  0  0  0  0  0
   -4.2160   -1.1756   30.3233 H   0  0  0  0  0  0
    1.5902    3.3603   27.6705 H   0  0  0  0  0  0
    3.4938    5.2683   31.0088 H   0  0  0  0  0  0
    5.8851    4.9009   30.1918 H   0  0  0  0  0  0
    5.8792    3.1617   29.8108 H   0  0  0  0  0  0
    6.0757    4.3605   28.5122 H   0  0  0  0  0  0
   -3.6827   -2.9703   31.7378 H   0  0  0  0  0  0
   -4.8467   -3.4658   30.5384 H   0  0  0  0  0  0
   -6.6929   -3.3444   32.1335 H   0  0  0  0  0  0
   -6.4951   -2.0597   35.4777 H   0  0  0  0  0  0
   -7.5805   -2.7015   34.2656 H   0  0  0  0  0  0
   -5.3245   -4.2403   35.7105 H   0  0  0  0  0  0
   -7.0467   -4.5333   35.8578 H   0  0  0  0  0  0
   -4.2818   -4.7402   33.4552 H   0  0  0  0  0  0
   -5.3326   -5.4543   32.2414 H   0  0  0  0  0  0
  1 11  1  0  0  0
  1  4  1  0  0  0
  1 16  2  0  0  0
  2 10  1  0  0  0
  2  3  2  0  0  0
  2 35  1  0  0  0
  3  5  1  0  0  0
  3 36  1  0  0  0
  4  5  2  0  0  0
  4  9  1  0  0  0
  5  6  1  0  0  0
  6  7  2  0  0  0
  6 37  1  0  0  0
  7  8  1  0  0  0
  7 38  1  0  0  0
  8  9  2  0  0  0
  8 17  1  0  0  0
  9 39  1  0  0  0
 10 11  2  0  0  0
 10 15  1  0  0  0
 11 12  1  0  0  0
 12 13  2  0  0  0
 12 40  1  0  0  0
 13 14  1  0  0  0
 13 22  1  0  0  0
 14 15  2  0  0  0
 14 41  1  0  0  0
 17 18  1  0  0  0
 17 42  1  0  0  0
 17 43  1  0  0  0
 18 19  1  0  0  0
 18 20  2  0  0  0
 18 21  2  0  0  0
 19 28  1  0  0  0
 19 44  1  0  0  0
 22 23  1  0  0  0
 22 26  2  0  0  0
 23 24  2  0  0  0
 23 45  1  0  0  0
 24 25  1  0  0  0
 25 26  1  0  0  0
 25 27  1  0  0  0
 26 46  1  0  0  0
 27 47  1  0  0  0
 27 48  1  0  0  0
 27 49  1  0  0  0
 28 29  1  0  0  0
 28 50  1  0  0  0
 28 51  1  0  0  0
 29 30  1  0  0  0
 29 34  1  0  0  0
 29 52  1  0  0  0
 30 31  1  0  0  0
 31 32  1  0  0  0
 31 53  1  0  0  0
 31 54  1  0  0  0
 32 33  1  0  0  0
 32 55  1  0  0  0
 32 56  1  0  0  0
 33 34  1  0  0  0
 34 57  1  0  0  0
 34 58  1  0  0  0
M  END
> <s_m_entry_id>
10198

> <s_m_entry_name>
dock_pv.267

> <s_m_Source_Path>
/home/csk/Desktop/cluster/DUD-E-result/met

> <s_m_Source_File>
dock_pv.maegz

> <i_m_Source_File_Index>
267

> <chembl_id>
CHEMBL2324122

> <chembl_pref_name>
None

> <i_lp_mmshare_version>
53161

> <i_f3d_flags>
0

> <r_lp_tautomer_probability>
1

> <s_lp_Force_Field>
OPLS_2005

> <r_lp_Energy>
32.314303

> <b_lp_Chiralities_Consistent>
1

> <s_lp_Variant>
CHEMBL3717_lig1358-1

> <s_i_glide_gridfile>
glide-grid_3lq8

> <i_i_glide_lignum>
1546

> <i_i_glide_rotatable_bonds>
6

> <r_i_docking_score>
-7.82381379246453

> <r_i_glide_ligand_efficiency>
-0.230112170366604

> <r_i_glide_ligand_efficiency_sa>
-0.745474101860955

> <r_i_glide_ligand_efficiency_ln>
-1.72849991729901

> <r_i_glide_gscore>
-7.82381379246453

> <r_i_glide_lipo>
-4.3364669130296

> <r_i_glide_hbond>
0

> <r_i_glide_metal>
0

> <r_i_glide_rewards>
-1.3312573241769

> <r_i_glide_evdw>
-47.556941986084

> <r_i_glide_ecoul>
-1.41101384162903

> <r_i_glide_erotb>
0.439115823685123

> <r_i_glide_esite>
-0.00570620339459589

> <r_i_glide_emodel>
-62.91534718324

> <r_i_glide_energy>
-48.967955827713

> <r_i_glide_einternal>
10.5110902786255

> <i_i_glide_confnum>
5

> <i_i_glide_posenum>
22

> <r_i_glide_eff_state_penalty>
0

> <s_user_duplicate_titles>
CHEMBL3717_lig1358

> <s_m_subgroup_title>
dock_pv

> <s_m_subgroupid>
dock_pv

> <b_m_subgroup_collapsed>
1

$$$$
CHEMBL3717_lig4112
                    3D
 Schrodinger Suite 2021-1.
 34 37  0  0  1  0            999 V2000
   -4.4244    3.7663   30.4355 C   0  0  0  0  0  0
   -4.8226    2.4274   30.3250 C   0  0  0  0  0  0
   -6.1642    2.0655   30.2085 C   0  0  0  0  0  0
   -5.3802    4.7891   30.4103 C   0  0  0  0  0  0
   -6.7329    4.4498   30.2655 C   0  0  0  0  0  0
   -7.1285    3.0791   30.1747 C   0  0  0  0  0  0
   -8.4790    2.9285   30.0298 N   0  0  0  0  0  0
   -8.9225    4.1957   30.0208 N   0  0  0  0  0  0
   -7.9549    5.1570   30.1661 C   0  0  0  0  0  0
   -2.9811    4.1033   30.6097 C   0  0  0  0  0  0
   -2.2258    5.2644   30.6086 C   0  0  0  0  0  0
   -0.9027    4.8517   30.8081 C   0  0  0  0  0  0
   -0.8463    3.5569   31.0082 N   0  0  0  0  0  0
   -2.1433    3.0721   30.8782 O   0  0  0  0  0  0
    0.3783    5.6647   30.8090 C   0  0  0  0  0  0
    1.5705    4.9312   30.1951 C   0  0  0  0  0  0
    1.5582    4.6132   28.8348 C   0  0  0  0  0  0
    2.6431    3.9563   28.2615 C   0  0  0  0  0  0
    3.7460    3.6335   29.0482 C   0  0  0  0  0  0
    3.7549    3.9217   30.4088 C   0  0  0  0  0  0
    2.6587    4.5552   30.9879 C   0  0  0  0  0  0
   -4.0843    1.6400   30.3497 H   0  0  0  0  0  0
   -6.4465    1.0258   30.1333 H   0  0  0  0  0  0
   -5.0846    5.8254   30.4860 H   0  0  0  0  0  0
   -9.9045    4.4036   29.9040 H   0  0  0  0  0  0
   -8.2183    6.2047   30.1588 H   0  0  0  0  0  0
   -2.5753    6.2703   30.4402 H   0  0  0  0  0  0
    0.6181    5.9986   31.8172 H   0  0  0  0  0  0
    0.2252    6.5684   30.2161 H   0  0  0  0  0  0
    0.7104    4.8763   28.2191 H   0  0  0  0  0  0
    2.6328    3.7119   27.2086 H   0  0  0  0  0  0
    4.6034    3.1569   28.6027 H   0  0  0  0  0  0
    4.6103    3.6532   31.0079 H   0  0  0  0  0  0
    2.6604    4.7589   32.0483 H   0  0  0  0  0  0
  1  2  1  0  0  0
  1 10  1  0  0  0
  1  4  2  0  0  0
  2  3  2  0  0  0
  2 22  1  0  0  0
  3  6  1  0  0  0
  3 23  1  0  0  0
  4 24  1  0  0  0
  4  5  1  0  0  0
  5  6  1  0  0  0
  5  9  2  0  0  0
  6  7  2  0  0  0
  7  8  1  0  0  0
  8 25  1  0  0  0
  8  9  1  0  0  0
  9 26  1  0  0  0
 10 11  2  0  0  0
 10 14  1  0  0  0
 11 12  1  0  0  0
 11 27  1  0  0  0
 12 13  2  0  0  0
 12 15  1  0  0  0
 13 14  1  0  0  0
 15 16  1  0  0  0
 15 28  1  0  0  0
 15 29  1  0  0  0
 16 17  2  0  0  0
 16 21  1  0  0  0
 17 18  1  0  0  0
 17 30  1  0  0  0
 18 19  2  0  0  0
 18 31  1  0  0  0
 19 20  1  0  0  0
 19 32  1  0  0  0
 20 21  2  0  0  0
 20 33  1  0  0  0
 21 34  1  0  0  0
M  END
> <s_m_entry_id>
10199

> <s_m_entry_name>
dock_pv.268

> <s_m_Source_Path>
/home/csk/Desktop/cluster/DUD-E-result/met

> <s_m_Source_File>
dock_pv.maegz

> <i_m_Source_File_Index>
268

> <chembl_id>
CHEMBL1682357

> <chembl_pref_name>
None

> <i_lp_mmshare_version>
53161

> <i_f3d_flags>
0

> <r_lp_tautomer_probability>
0.0196078431372549

> <s_lp_Force_Field>
OPLS_2005

> <r_lp_Energy>
23.451076

> <b_lp_Chiralities_Consistent>
1

> <s_lp_Variant>
CHEMBL3717_lig4112-2

> <s_i_glide_gridfile>
glide-grid_3lq8

> <i_i_glide_lignum>
5254

> <i_i_glide_rotatable_bonds>
3

> <r_i_docking_score>
-7.82258827950764

> <r_i_glide_ligand_efficiency>
-0.372504203786078

> <r_i_glide_ligand_efficiency_sa>
-1.02771085258605

> <r_i_glide_ligand_efficiency_ln>
-1.93411914508028

> <r_i_glide_gscore>
-7.82258827950764

> <r_i_glide_lipo>
-4.03038934446322

> <r_i_glide_hbond>
0

> <r_i_glide_metal>
0

> <r_i_glide_rewards>
-2.43201395454545

> <r_i_glide_evdw>
-34.9829444885254

> <r_i_glide_ecoul>
-2.14932370185852

> <r_i_glide_erotb>
0.711360799206081

> <r_i_glide_esite>
0

> <r_i_glide_emodel>
-54.3140826851694

> <r_i_glide_energy>
-37.1322681903839

> <r_i_glide_einternal>
1.31630790233612

> <i_i_glide_confnum>
12

> <i_i_glide_posenum>
194

> <r_i_glide_eff_state_penalty>
0

> <s_user_duplicate_titles>
CHEMBL3717_lig4112,CHEMBL3717_lig4112

> <s_m_subgroup_title>
dock_pv

> <s_m_subgroupid>
dock_pv

> <b_m_subgroup_collapsed>
1

$$$$
CHEMBL3717_lig1305
                    3D
 Schrodinger Suite 2021-1.
 49 54  0  0  1  0            999 V2000
    5.1338    4.3566   28.2079 N   0  0  0  0  0  0
    6.2921    4.6308   28.8457 C   0  0  0  0  0  0
    6.4010    4.7567   30.2236 C   0  0  0  0  0  0
    5.2579    4.5925   30.9941 C   0  0  0  0  0  0
    4.0247    4.2771   30.3688 C   0  0  0  0  0  0
    2.8121    4.1198   31.0796 C   0  0  0  0  0  0
    1.6333    3.8205   30.3924 C   0  0  0  0  0  0
    1.6485    3.6250   29.0119 C   0  0  0  0  0  0
    2.8224    3.7815   28.2866 C   0  0  0  0  0  0
    4.0183    4.1382   28.9497 C   0  0  0  0  0  0
    0.3113    3.7531   31.1367 C   0  0  0  0  0  0
   -2.4411    6.0264   30.3399 C   0  0  0  0  0  0
   -2.0121    4.7060   30.6085 C   0  0  0  0  0  0
   -3.7370    6.3228   30.2080 N   0  0  0  0  0  0
   -2.8216    3.6459   30.6764 N   0  0  0  0  0  0
   -4.1374    3.9405   30.4581 C   0  0  0  0  0  0
   -4.5843    5.2556   30.2539 C   0  0  0  0  0  0
   -0.6418    4.7916   30.7520 N   0  0  0  0  0  0
   -0.2456    6.0652   30.5176 N   0  0  0  0  0  0
   -1.3531    6.8345   30.2082 N   0  0  0  0  0  0
   -5.8990    0.7085   30.4847 N   0  0  0  0  0  0
   -6.9358    1.5144   30.2009 N   0  0  0  0  0  0
   -6.4408    2.7302   30.2086 C   0  0  0  0  0  0
   -5.0544    2.7662   30.4233 C   0  0  0  0  0  0
   -4.7327    1.4258   30.5821 C   0  0  0  0  0  0
   -5.6684   -1.6654   32.6256 N   0  0  2  0  0  0
   -5.0415   -1.5151   31.3227 C   0  0  0  0  0  0
   -6.0640   -0.7584   30.4600 C   0  0  1  0  0  0
   -7.4094   -1.2552   31.0309 C   0  0  0  0  0  0
   -7.0328   -2.0401   32.2935 C   0  0  0  0  0  0
    7.1573    4.7549   28.2119 H   0  0  0  0  0  0
    7.3492    5.0085   30.6766 H   0  0  0  0  0  0
    5.3033    4.7565   32.0592 H   0  0  0  0  0  0
    2.8088    4.2631   32.1512 H   0  0  0  0  0  0
    0.7325    3.3803   28.4918 H   0  0  0  0  0  0
    2.8181    3.6543   27.2144 H   0  0  0  0  0  0
   -0.1495    2.7756   30.9773 H   0  0  0  0  0  0
    0.4802    3.8521   32.2080 H   0  0  0  0  0  0
   -5.6269    5.4809   30.0839 H   0  0  0  0  0  0
   -7.0744    3.5864   30.0304 H   0  0  0  0  0  0
   -3.7820    0.9421   30.7388 H   0  0  0  0  0  0
   -5.6943   -0.7815   33.1284 H   0  0  0  0  0  0
   -4.8773   -2.5102   30.9008 H   0  0  0  0  0  0
   -4.0543   -1.0578   31.3771 H   0  0  0  0  0  0
   -5.9456   -0.9856   29.3981 H   0  0  0  0  0  0
   -8.1146   -0.4581   31.2673 H   0  0  0  0  0  0
   -7.9016   -1.9108   30.3116 H   0  0  0  0  0  0
   -7.6939   -1.7959   33.1271 H   0  0  0  0  0  0
   -7.1053   -3.1169   32.1220 H   0  0  0  0  0  0
  1  2  2  0  0  0
  1 10  1  0  0  0
  2  3  1  0  0  0
  2 31  1  0  0  0
  3  4  2  0  0  0
  3 32  1  0  0  0
  4  5  1  0  0  0
  4 33  1  0  0  0
  5  6  2  0  0  0
  5 10  1  0  0  0
  6  7  1  0  0  0
  6 34  1  0  0  0
  7  8  2  0  0  0
  7 11  1  0  0  0
  8  9  1  0  0  0
  8 35  1  0  0  0
  9 10  2  0  0  0
  9 36  1  0  0  0
 11 18  1  0  0  0
 11 37  1  0  0  0
 11 38  1  0  0  0
 12 13  1  0  0  0
 12 14  2  0  0  0
 12 20  1  0  0  0
 13 15  2  0  0  0
 13 18  1  0  0  0
 14 17  1  0  0  0
 15 16  1  0  0  0
 16 17  2  0  0  0
 16 24  1  0  0  0
 17 39  1  0  0  0
 18 19  1  0  0  0
 19 20  2  0  0  0
 21 22  1  0  0  0
 21 25  1  0  0  0
 21 28  1  0  0  0
 22 23  2  0  0  0
 23 24  1  0  0  0
 23 40  1  0  0  0
 24 25  2  0  0  0
 25 41  1  0  0  0
 26 27  1  0  0  0
 26 30  1  0  0  0
 26 42  1  0  0  0
 27 28  1  0  0  0
 27 43  1  0  0  0
 27 44  1  0  0  0
 28 29  1  0  0  0
 28 45  1  0  0  0
 29 30  1  0  0  0
 29 46  1  0  0  0
 29 47  1  0  0  0
 30 48  1  0  0  0
 30 49  1  0  0  0
M  END
> <s_m_entry_id>
10200

> <s_m_entry_name>
dock_pv.269

> <s_m_Source_Path>
/home/csk/Desktop/cluster/DUD-E-result/met

> <s_m_Source_File>
dock_pv.maegz

> <i_m_Source_File_Index>
269

> <chembl_id>
CHEMBL2170949

> <chembl_pref_name>
None

> <i_lp_mmshare_version>
53161

> <i_f3d_flags>
0

> <r_lp_tautomer_probability>
1

> <s_lp_Force_Field>
OPLS_2005

> <r_lp_Energy>
49.238117

> <b_lp_Chiralities_Consistent>
1

> <s_lp_Variant>
CHEMBL3717_lig1305-1

> <s_i_glide_gridfile>
glide-grid_3lq8

> <i_i_glide_lignum>
1491

> <i_i_glide_rotatable_bonds>
4

> <r_i_docking_score>
-7.82217035588595

> <r_i_glide_ligand_efficiency>
-0.260739011862865

> <r_i_glide_ligand_efficiency_sa>
-0.810176732312059

> <r_i_glide_ligand_efficiency_ln>
-1.77728233422965

> <r_i_glide_gscore>
-7.82217035588595

> <r_i_glide_lipo>
-3.10858873563531

> <r_i_glide_hbond>
-0.359487365587947

> <r_i_glide_metal>
0

> <r_i_glide_rewards>
-2.13048703235906

> <r_i_glide_evdw>
-40.5258560180664

> <r_i_glide_ecoul>
-4.62011909484863

> <r_i_glide_erotb>
0.495703442826977

> <r_i_glide_esite>
0

> <r_i_glide_emodel>
-64.0236418908876

> <r_i_glide_energy>
-45.145975112915

> <r_i_glide_einternal>
3.00257229804993

> <i_i_glide_confnum>
42

> <i_i_glide_posenum>
212

> <r_i_glide_eff_state_penalty>
0

> <s_user_duplicate_titles>
CHEMBL3717_lig1305

> <s_m_subgroup_title>
dock_pv

> <s_m_subgroupid>
dock_pv

> <b_m_subgroup_collapsed>
1

$$$$
CHEMBL3717_lig2807
                    3D
 Schrodinger Suite 2021-1.
 59 63  0  0  1  0            999 V2000
   -8.7836   -0.4944   30.1885 C   0  0  0  0  0  0
   -7.7906    0.6220   30.5646 C   0  0  1  0  0  0
   -6.6561    0.6029   29.6870 O   0  0  0  0  0  0
   -5.4208    0.6219   30.3037 C   0  0  0  0  0  0
   -4.6723    1.8045   30.3164 C   0  0  0  0  0  0
   -3.4372    1.8546   30.9809 C   0  0  0  0  0  0
   -3.0032    0.6838   31.6161 C   0  0  0  0  0  0
   -3.6908   -0.4847   31.5882 N   0  0  0  0  0  0
   -4.8729   -0.5110   30.9267 C   0  0  0  0  0  0
   -5.5150   -1.7447   30.8824 N   0  0  0  0  0  0
   -2.6121    3.1037   31.0060 C   0  0  0  0  0  0
   -2.9652    4.4053   30.6085 C   0  0  0  0  0  0
   -1.9671    5.2595   30.6524 N   0  0  0  0  0  0
   -0.9140    4.5382   31.0654 N   0  0  0  0  0  0
   -1.2933    3.2594   31.4049 C   0  0  0  0  0  0
    0.4241    5.1642   31.1458 C   0  0  0  0  0  0
    0.8359    5.8425   29.8224 C   0  0  0  0  0  0
    1.2611    4.7825   28.7985 C   0  0  0  0  0  0
    2.4139    3.8925   29.3183 C   0  0  0  0  0  0
    2.0402    3.2110   30.6568 C   0  0  0  0  0  0
    1.5500    4.2474   31.6906 C   0  0  0  0  0  0
    2.9421    2.9664   28.2392 C   0  0  0  0  0  0
    4.2204    3.6703   28.2083 N   0  0  0  0  0  0
    3.8187    4.4942   29.3420 C   0  0  0  0  0  0
   -8.4096    2.0345   30.5821 C   0  0  0  0  0  0
   -8.8689    2.6492   29.3939 C   0  0  0  0  0  0
   -8.8864    1.8496   27.8593 Cl  0  0  0  0  0  0
   -9.3507    3.9567   29.4160 C   0  0  0  0  0  0
   -9.4053    4.6703   30.6051 C   0  0  0  0  0  0
   -8.9990    4.0697   31.7922 C   0  0  0  0  0  0
   -9.0789    4.7700   32.9484 F   0  0  0  0  0  0
   -8.5141    2.7590   31.7922 C   0  0  0  0  0  0
   -8.0862    2.0749   33.3275 Cl  0  0  0  0  0  0
   -9.6747   -0.4469   30.8157 H   0  0  0  0  0  0
   -9.1046   -0.4496   29.1501 H   0  0  0  0  0  0
   -8.3386   -1.4778   30.3394 H   0  0  0  0  0  0
   -7.4675    0.3579   31.5728 H   0  0  0  0  0  0
   -5.0706    2.6772   29.8218 H   0  0  0  0  0  0
   -2.0921    0.6642   32.1933 H   0  0  0  0  0  0
   -6.3077   -1.8389   30.2670 H   0  0  0  0  0  0
   -5.0114   -2.5564   31.2109 H   0  0  0  0  0  0
   -3.9417    4.7129   30.2589 H   0  0  0  0  0  0
   -0.5803    2.5617   31.8080 H   0  0  0  0  0  0
    0.3052    5.9561   31.8779 H   0  0  0  0  0  0
    0.0365    6.4807   29.4392 H   0  0  0  0  0  0
    1.6310    6.5613   30.0142 H   0  0  0  0  0  0
    0.4037    4.1349   28.5983 H   0  0  0  0  0  0
    1.5060    5.2330   27.8400 H   0  0  0  0  0  0
    2.8795    2.6413   31.0620 H   0  0  0  0  0  0
    1.2578    2.4803   30.4693 H   0  0  0  0  0  0
    2.3814    4.8694   32.0228 H   0  0  0  0  0  0
    1.2411    3.7802   32.6192 H   0  0  0  0  0  0
    3.0285    1.9565   28.6024 H   0  0  0  0  0  0
    2.4077    3.0128   27.2886 H   0  0  0  0  0  0
    5.0695    3.1112   28.2666 H   0  0  0  0  0  0
    3.8516    5.5573   29.1165 H   0  0  0  0  0  0
    4.3718    4.2559   30.2529 H   0  0  0  0  0  0
   -9.6867    4.4228   28.5003 H   0  0  0  0  0  0
   -9.7756    5.6845   30.6072 H   0  0  0  0  0  0
  1  2  1  0  0  0
  1 34  1  0  0  0
  1 35  1  0  0  0
  1 36  1  0  0  0
  2  3  1  0  0  0
  2 25  1  0  0  0
  2 37  1  0  0  0
  3  4  1  0  0  0
  4  5  2  0  0  0
  4  9  1  0  0  0
  5  6  1  0  0  0
  5 38  1  0  0  0
  6  7  2  0  0  0
  6 11  1  0  0  0
  7  8  1  0  0  0
  7 39  1  0  0  0
  8  9  2  0  0  0
  9 10  1  0  0  0
 10 40  1  0  0  0
 10 41  1  0  0  0
 11 12  1  0  0  0
 11 15  2  0  0  0
 12 13  2  0  0  0
 12 42  1  0  0  0
 13 14  1  0  0  0
 14 15  1  0  0  0
 14 16  1  0  0  0
 15 43  1  0  0  0
 16 17  1  0  0  0
 16 21  1  0  0  0
 16 44  1  0  0  0
 17 18  1  0  0  0
 17 45  1  0  0  0
 17 46  1  0  0  0
 18 19  1  0  0  0
 18 47  1  0  0  0
 18 48  1  0  0  0
 19 20  1  0  0  0
 19 22  1  0  0  0
 19 24  1  0  0  0
 20 21  1  0  0  0
 20 49  1  0  0  0
 20 50  1  0  0  0
 21 51  1  0  0  0
 21 52  1  0  0  0
 22 23  1  0  0  0
 22 53  1  0  0  0
 22 54  1  0  0  0
 23 24  1  0  0  0
 23 55  1  0  0  0
 24 56  1  0  0  0
 24 57  1  0  0  0
 25 26  2  0  0  0
 25 32  1  0  0  0
 26 27  1  0  0  0
 26 28  1  0  0  0
 28 29  2  0  0  0
 28 58  1  0  0  0
 29 30  1  0  0  0
 29 59  1  0  0  0
 30 31  1  0  0  0
 30 32  2  0  0  0
 32 33  1  0  0  0
M  END
> <s_m_entry_id>
10201

> <s_m_entry_name>
dock_pv.270

> <s_m_Source_Path>
/home/csk/Desktop/cluster/DUD-E-result/met

> <s_m_Source_File>
dock_pv.maegz

> <i_m_Source_File_Index>
270

> <chembl_id>
CHEMBL4109336

> <chembl_pref_name>
None

> <i_lp_mmshare_version>
53161

> <i_f3d_flags>
0

> <r_lp_tautomer_probability>
0.999999404453161

> <s_lp_Force_Field>
OPLS_2005

> <r_lp_Energy>
41.730246

> <b_lp_Chiralities_Consistent>
1

> <s_lp_Variant>
CHEMBL3717_lig2807-1

> <s_i_glide_gridfile>
glide-grid_3lq8

> <i_i_glide_lignum>
3406

> <i_i_glide_rotatable_bonds>
5

> <r_i_docking_score>
-7.82088788565637

> <r_i_glide_ligand_efficiency>
-0.236996602595648

> <r_i_glide_ligand_efficiency_sa>
-0.760174738031932

> <r_i_glide_ligand_efficiency_ln>
-1.73932497137972

> <r_i_glide_gscore>
-7.82088788565637

> <r_i_glide_lipo>
-4.01030409334899

> <r_i_glide_hbond>
-0.32

> <r_i_glide_metal>
0

> <r_i_glide_rewards>
-1.08212160075758

> <r_i_glide_evdw>
-41.614803314209

> <r_i_glide_ecoul>
-4.74304533004761

> <r_i_glide_erotb>
0.423096439667043

> <r_i_glide_esite>
-0.0393616659992559

> <r_i_glide_emodel>
-59.6913055137223

> <r_i_glide_energy>
-46.3578486442566

> <r_i_glide_einternal>
9.92201042175293

> <i_i_glide_confnum>
14

> <i_i_glide_posenum>
56

> <r_i_glide_eff_state_penalty>
0

> <s_user_duplicate_titles>
CHEMBL3717_lig2807

> <s_m_subgroup_title>
dock_pv

> <s_m_subgroupid>
dock_pv

> <b_m_subgroup_collapsed>
1

$$$$
CHEMBL3717_lig1660
                    3D
 Schrodinger Suite 2021-1.
 54 57  0  0  1  0            999 V2000
   -6.3395    2.6336   30.2295 C   0  0  0  0  0  0
   -7.0030    3.8627   30.2759 C   0  0  0  0  0  0
   -6.2638    5.0401   30.4256 C   0  0  0  0  0  0
   -4.9469    2.5512   30.3037 C   0  0  0  0  0  0
   -4.1859    3.7453   30.4579 C   0  0  0  0  0  0
   -4.8541    5.0021   30.5187 C   0  0  0  0  0  0
   -4.1731    6.1698   30.6768 N   0  0  0  0  0  0
   -2.8281    6.1163   30.8291 C   0  0  0  0  0  0
   -2.0729    4.9404   30.8251 C   0  0  0  0  0  0
   -2.7700    3.7516   30.6083 C   0  0  0  0  0  0
   -0.7020    4.9427   31.0758 N   0  0  0  0  0  0
    0.1029    3.7469   31.3950 C   0  0  0  0  0  0
    0.9725    3.3013   30.1991 C   0  0  0  0  0  0
    1.9338    4.3585   29.8993 N   0  0  0  0  0  0
    1.1870    5.5609   29.5266 C   0  0  0  0  0  0
    0.2115    6.0104   30.6380 C   0  0  0  0  0  0
   -4.2771    1.3211   30.2576 N   0  0  0  0  0  0
   -8.5268    3.9004   30.1529 C   0  0  0  0  0  0
   -8.8990    3.3593   28.9925 F   0  0  0  0  0  0
   -9.0708    3.1978   31.1466 F   0  0  0  0  0  0
   -9.0106    5.1414   30.2088 F   0  0  0  0  0  0
   -4.8349    0.0990   30.8068 C   0  0  0  0  0  0
   -3.6507   -0.8236   31.0322 C   0  0  0  0  0  0
   -2.8743   -0.7091   32.1945 C   0  0  0  0  0  0
   -1.7034   -1.4578   32.3354 C   0  0  0  0  0  0
   -1.3151   -2.3343   31.3239 C   0  0  0  0  0  0
   -2.0832   -2.4431   30.1637 C   0  0  0  0  0  0
   -3.2466   -1.6923   30.0158 C   0  0  0  0  0  0
    2.8158    3.9509   28.8093 C   0  0  0  0  0  0
   -0.8940   -1.3019   33.4590 N   0  0  0  0  0  0
   -6.9204    1.7298   30.1125 H   0  0  0  0  0  0
   -6.7570    6.0024   30.4559 H   0  0  0  0  0  0
   -2.3601    7.0705   31.0064 H   0  0  0  0  0  0
   -2.2391    2.8146   30.5695 H   0  0  0  0  0  0
    0.7416    3.9730   32.2496 H   0  0  0  0  0  0
   -0.5190    2.9175   31.7263 H   0  0  0  0  0  0
    1.5066    2.3849   30.4549 H   0  0  0  0  0  0
    0.3473    3.0856   29.3298 H   0  0  0  0  0  0
    0.6658    5.4352   28.5758 H   0  0  0  0  0  0
    1.9060    6.3604   29.4081 H   0  0  0  0  0  0
   -0.3412    6.8699   30.2611 H   0  0  0  0  0  0
    0.7695    6.3655   31.5047 H   0  0  0  0  0  0
   -3.2719    1.3640   30.3216 H   0  0  0  0  0  0
   -5.5516   -0.3458   30.1154 H   0  0  0  0  0  0
   -5.3510    0.2846   31.7494 H   0  0  0  0  0  0
   -3.1660   -0.0133   32.9673 H   0  0  0  0  0  0
   -0.4119   -2.9183   31.4221 H   0  0  0  0  0  0
   -1.7812   -3.1226   29.3801 H   0  0  0  0  0  0
   -3.8183   -1.7697   29.1010 H   0  0  0  0  0  0
    3.5411    4.7368   28.5926 H   0  0  0  0  0  0
    3.3770    3.0558   29.0815 H   0  0  0  0  0  0
    2.2611    3.7365   27.8937 H   0  0  0  0  0  0
   -1.0620   -0.5167   34.0688 H   0  0  0  0  0  0
    0.0287   -1.7231   33.4171 H   0  0  0  0  0  0
  1  2  2  0  0  0
  1  4  1  0  0  0
  1 31  1  0  0  0
  2  3  1  0  0  0
  2 18  1  0  0  0
  3  6  2  0  0  0
  3 32  1  0  0  0
  4  5  2  0  0  0
  4 17  1  0  0  0
  5  6  1  0  0  0
  5 10  1  0  0  0
  6  7  1  0  0  0
  7  8  2  0  0  0
  8  9  1  0  0  0
  8 33  1  0  0  0
  9 10  2  0  0  0
  9 11  1  0  0  0
 10 34  1  0  0  0
 11 12  1  0  0  0
 11 16  1  0  0  0
 12 13  1  0  0  0
 12 35  1  0  0  0
 12 36  1  0  0  0
 13 14  1  0  0  0
 13 37  1  0  0  0
 13 38  1  0  0  0
 14 15  1  0  0  0
 14 29  1  0  0  0
 15 16  1  0  0  0
 15 39  1  0  0  0
 15 40  1  0  0  0
 16 41  1  0  0  0
 16 42  1  0  0  0
 17 22  1  0  0  0
 17 43  1  0  0  0
 18 19  1  0  0  0
 18 20  1  0  0  0
 18 21  1  0  0  0
 22 23  1  0  0  0
 22 44  1  0  0  0
 22 45  1  0  0  0
 23 24  2  0  0  0
 23 28  1  0  0  0
 24 25  1  0  0  0
 24 46  1  0  0  0
 25 26  2  0  0  0
 25 30  1  0  0  0
 26 27  1  0  0  0
 26 47  1  0  0  0
 27 28  2  0  0  0
 27 48  1  0  0  0
 28 49  1  0  0  0
 29 50  1  0  0  0
 29 51  1  0  0  0
 29 52  1  0  0  0
 30 53  1  0  0  0
 30 54  1  0  0  0
M  END
> <s_m_entry_id>
10202

> <s_m_entry_name>
dock_pv.271

> <s_m_Source_Path>
/home/csk/Desktop/cluster/DUD-E-result/met

> <s_m_Source_File>
dock_pv.maegz

> <i_m_Source_File_Index>
271

> <chembl_id>
CHEMBL3221121

> <chembl_pref_name>
None

> <i_lp_mmshare_version>
53161

> <i_f3d_flags>
0

> <r_lp_tautomer_probability>
1

> <s_lp_Force_Field>
OPLS_2005

> <r_lp_Energy>
50.869435

> <b_lp_Chiralities_Consistent>
1

> <s_lp_Variant>
CHEMBL3717_lig1660-1

> <s_i_glide_gridfile>
glide-grid_3lq8

> <i_i_glide_lignum>
1914

> <i_i_glide_rotatable_bonds>
5

> <r_i_docking_score>
-7.80889305894863

> <r_i_glide_ligand_efficiency>
-0.260296435298288

> <r_i_glide_ligand_efficiency_sa>
-0.808801544025791

> <r_i_glide_ligand_efficiency_ln>
-1.77426558769776

> <r_i_glide_gscore>
-7.80889305894863

> <r_i_glide_lipo>
-3.98504372545442

> <r_i_glide_hbond>
-0.319192202105774

> <r_i_glide_metal>
0

> <r_i_glide_rewards>
-1.31452347327458

> <r_i_glide_evdw>
-45.268367767334

> <r_i_glide_ecoul>
-2.29378461837769

> <r_i_glide_erotb>
0.457627330747031

> <r_i_glide_esite>
-0.0402749077375411

> <r_i_glide_emodel>
-63.7621967918612

> <r_i_glide_energy>
-47.5621523857117

> <r_i_glide_einternal>
10.0824937820435

> <i_i_glide_confnum>
4

> <i_i_glide_posenum>
127

> <r_i_glide_eff_state_penalty>
0

> <s_user_duplicate_titles>
CHEMBL3717_lig1660

> <s_m_subgroup_title>
dock_pv

> <s_m_subgroupid>
dock_pv

> <b_m_subgroup_collapsed>
1

$$$$
CHEMBL3717_lig758
                    3D
 Schrodinger Suite 2021-1.
 48 51  0  0  1  0            999 V2000
    3.0510    3.5547   29.7471 S   0  0  0  0  0  0
    2.6011    2.7869   30.9121 O   0  0  0  0  0  0
    4.4774    3.7943   29.5171 O   0  0  0  0  0  0
   -2.2177    3.6792   31.0289 C   0  0  0  0  0  0
   -3.1463    6.6221   30.6081 C   0  0  0  0  0  0
   -4.3123    5.9575   30.6365 C   0  0  0  0  0  0
   -4.5966    4.5236   30.4929 C   0  0  0  0  0  0
   -3.6474    3.4947   30.6076 C   0  0  0  0  0  0
   -4.0980    2.1654   30.4911 C   0  0  0  0  0  0
   -5.4568    1.8788   30.2958 C   0  0  0  0  0  0
   -6.3228    2.9738   30.2078 C   0  0  0  0  0  0
   -5.9132    4.2641   30.2785 N   0  0  0  0  0  0
   -1.3388    4.8176   30.6082 C   0  0  0  0  0  0
   -1.7651    6.1460   30.4121 C   0  0  0  0  0  0
   -0.8226    7.0913   29.9917 C   0  0  0  0  0  0
    0.5112    6.7445   29.7983 C   0  0  0  0  0  0
    0.9481    5.4397   30.0201 C   0  0  0  0  0  0
    0.0183    4.4836   30.4290 C   0  0  0  0  0  0
   -1.6942    2.7568   31.6595 O   0  0  0  0  0  0
    2.3062    5.1568   29.8083 N   0  0  0  0  0  0
    2.3060    2.8386   28.1787 C   0  0  0  0  0  0
   -5.9472    0.5775   30.2205 N   0  0  0  0  0  0
   -5.1431   -0.5681   30.6899 C   0  0  0  0  0  0
   -5.9887   -1.8196   31.0010 C   0  0  0  0  0  0
   -6.8522   -2.2386   29.8080 C   0  0  0  0  0  0
   -7.6574   -1.0338   29.3095 C   0  0  0  0  0  0
   -6.7604    0.1945   29.0494 C   0  0  0  0  0  0
   -3.2205    7.6855   30.7805 H   0  0  0  0  0  0
   -5.1907    6.5682   30.8010 H   0  0  0  0  0  0
   -3.3997    1.3448   30.5805 H   0  0  0  0  0  0
   -7.3852    2.8300   30.0745 H   0  0  0  0  0  0
   -1.1163    8.1171   29.8189 H   0  0  0  0  0  0
    1.2031    7.5076   29.4748 H   0  0  0  0  0  0
    0.3490    3.4679   30.5822 H   0  0  0  0  0  0
    2.8942    5.9125   29.4963 H   0  0  0  0  0  0
    2.7156    1.8453   28.0182 H   0  0  0  0  0  0
    2.5575    3.4888   27.3434 H   0  0  0  0  0  0
    1.2248    2.7763   28.2953 H   0  0  0  0  0  0
   -4.3698   -0.7960   29.9534 H   0  0  0  0  0  0
   -4.6364   -0.2842   31.6142 H   0  0  0  0  0  0
   -5.3228   -2.6414   31.2670 H   0  0  0  0  0  0
   -6.5956   -1.6433   31.8904 H   0  0  0  0  0  0
   -7.5168   -3.0588   30.0827 H   0  0  0  0  0  0
   -6.2106   -2.6106   29.0084 H   0  0  0  0  0  0
   -8.4461   -0.7695   30.0156 H   0  0  0  0  0  0
   -8.1741   -1.3027   28.3874 H   0  0  0  0  0  0
   -7.4086    1.0189   28.7511 H   0  0  0  0  0  0
   -6.0926    0.0045   28.2075 H   0  0  0  0  0  0
  1  2  2  0  0  0
  1  3  2  0  0  0
  1 20  1  0  0  0
  1 21  1  0  0  0
  4 19  2  0  0  0
  4  8  1  0  0  0
  4 13  1  0  0  0
  5 14  1  0  0  0
  5  6  2  0  0  0
  5 28  1  0  0  0
  6  7  1  0  0  0
  6 29  1  0  0  0
  7  8  2  0  0  0
  7 12  1  0  0  0
  8  9  1  0  0  0
  9 10  2  0  0  0
  9 30  1  0  0  0
 10 22  1  0  0  0
 10 11  1  0  0  0
 11 12  2  0  0  0
 11 31  1  0  0  0
 13 14  2  0  0  0
 13 18  1  0  0  0
 14 15  1  0  0  0
 15 16  2  0  0  0
 15 32  1  0  0  0
 16 17  1  0  0  0
 16 33  1  0  0  0
 17 18  2  0  0  0
 17 20  1  0  0  0
 18 34  1  0  0  0
 20 35  1  0  0  0
 21 36  1  0  0  0
 21 37  1  0  0  0
 21 38  1  0  0  0
 22 23  1  0  0  0
 22 27  1  0  0  0
 23 24  1  0  0  0
 23 39  1  0  0  0
 23 40  1  0  0  0
 24 25  1  0  0  0
 24 41  1  0  0  0
 24 42  1  0  0  0
 25 26  1  0  0  0
 25 43  1  0  0  0
 25 44  1  0  0  0
 26 27  1  0  0  0
 26 45  1  0  0  0
 26 46  1  0  0  0
 27 47  1  0  0  0
 27 48  1  0  0  0
M  END
> <s_m_entry_id>
10203

> <s_m_entry_name>
dock_pv.272

> <s_m_Source_Path>
/home/csk/Desktop/cluster/DUD-E-result/met

> <s_m_Source_File>
dock_pv.maegz

> <i_m_Source_File_Index>
272

> <chembl_id>
CHEMBL1802585

> <chembl_pref_name>
None

> <i_lp_mmshare_version>
53161

> <i_f3d_flags>
0

> <r_lp_tautomer_probability>
1

> <s_lp_Force_Field>
OPLS_2005

> <r_lp_Energy>
35.651695

> <b_lp_Chiralities_Consistent>
1

> <s_lp_Variant>
CHEMBL3717_lig758-1

> <s_i_glide_gridfile>
glide-grid_3lq8

> <i_i_glide_lignum>
819

> <i_i_glide_rotatable_bonds>
3

> <r_i_docking_score>
-7.80195681558542

> <r_i_glide_ligand_efficiency>
-0.288961363540201

> <r_i_glide_ligand_efficiency_sa>
-0.866884089668233

> <r_i_glide_ligand_efficiency_ln>
-1.81616692135757

> <r_i_glide_gscore>
-7.80195681558542

> <r_i_glide_lipo>
-3.72412480746379

> <r_i_glide_hbond>
0

> <r_i_glide_metal>
0

> <r_i_glide_rewards>
-2.01749188401313

> <r_i_glide_evdw>
-47.0979347229004

> <r_i_glide_ecoul>
0.201678022742271

> <r_i_glide_erotb>
0.264304908625174

> <r_i_glide_esite>
0

> <r_i_glide_emodel>
-65.0591606776595

> <r_i_glide_energy>
-46.8962567001581

> <r_i_glide_einternal>
2.04385161399841

> <i_i_glide_confnum>
6

> <i_i_glide_posenum>
18

> <r_i_glide_eff_state_penalty>
0

> <s_user_duplicate_titles>
CHEMBL3717_lig758

> <s_m_subgroup_title>
dock_pv

> <s_m_subgroupid>
dock_pv

> <b_m_subgroup_collapsed>
1

$$$$
CHEMBL3717_lig2654
                    3D
 Schrodinger Suite 2021-1.
 48 51  0  0  1  0            999 V2000
   -6.8344   -3.0678   30.0394 C   0  0  0  0  0  0
   -5.6814   -2.0935   30.2373 C   0  0  0  0  0  0
   -5.6745   -1.0658   31.1234 C   0  0  0  0  0  0
   -6.8013   -0.8492   31.9745 C   0  0  0  0  0  0
   -7.7562   -0.6908   32.6083 N   0  0  0  0  0  0
   -4.4410   -0.1504   31.2489 C   0  0  1  0  0  0
   -3.1676   -0.8709   30.6619 C   0  0  1  0  0  0
   -2.4183   -1.5314   31.7453 C   0  0  0  0  0  0
   -1.8303   -2.0426   32.6005 N   0  0  0  0  0  0
   -3.4921   -1.9282   29.5921 C   0  0  0  0  0  0
   -4.6555   -2.4170   29.4083 N   0  0  0  0  0  0
   -2.3879   -2.4150   28.6740 C   0  0  0  0  0  0
   -4.5977    1.3116   30.7659 C   0  0  0  0  0  0
   -5.8571    1.8163   30.4168 C   0  0  0  0  0  0
   -6.0934    3.1719   30.2079 C   0  0  0  0  0  0
   -5.0000    4.0291   30.3201 C   0  0  0  0  0  0
   -4.9050    5.3955   30.2082 N   0  0  0  0  0  0
   -3.6555    5.8286   30.4030 N   0  0  0  0  0  0
   -2.8988    4.7894   30.6429 C   0  0  0  0  0  0
   -1.1967    5.0885   31.0082 S   0  0  0  0  0  0
   -0.4101    3.5029   30.6372 C   0  0  0  0  0  0
    1.0653    3.6854   30.3079 C   0  0  0  0  0  0
    1.9845    3.9675   31.3225 C   0  0  0  0  0  0
    3.3343    4.1191   31.0136 C   0  0  0  0  0  0
    3.7651    3.9733   29.6963 C   0  0  0  0  0  0
    2.8551    3.6866   28.6818 C   0  0  0  0  0  0
    1.5043    3.5501   28.9890 C   0  0  0  0  0  0
   -3.6885    3.5742   30.6079 C   0  0  0  0  0  0
   -3.4981    2.1906   30.8250 C   0  0  0  0  0  0
   -7.6831   -2.8606   30.6902 H   0  0  0  0  0  0
   -7.1942   -3.0245   29.0103 H   0  0  0  0  0  0
   -6.5085   -4.0887   30.2430 H   0  0  0  0  0  0
   -4.2878   -0.0106   32.3225 H   0  0  0  0  0  0
   -2.4937   -0.1505   30.2094 H   0  0  0  0  0  0
   -2.0240   -1.6050   28.0429 H   0  0  0  0  0  0
   -1.5529   -2.8018   29.2582 H   0  0  0  0  0  0
   -2.7229   -3.2145   28.0105 H   0  0  0  0  0  0
   -6.7135    1.1621   30.3544 H   0  0  0  0  0  0
   -7.0852    3.5357   29.9795 H   0  0  0  0  0  0
   -5.6380    6.0510   29.9575 H   0  0  0  0  0  0
   -0.5061    2.8418   31.4994 H   0  0  0  0  0  0
   -0.9294    3.0369   29.8014 H   0  0  0  0  0  0
    1.6523    4.0773   32.3448 H   0  0  0  0  0  0
    4.0427    4.3563   31.7936 H   0  0  0  0  0  0
    4.8128    4.0850   29.4571 H   0  0  0  0  0  0
    3.1944    3.5698   27.6632 H   0  0  0  0  0  0
    0.7989    3.3217   28.2060 H   0  0  0  0  0  0
   -2.5332    1.8224   31.1306 H   0  0  0  0  0  0
  1  2  1  0  0  0
  1 30  1  0  0  0
  1 31  1  0  0  0
  1 32  1  0  0  0
  2  3  2  0  0  0
  2 11  1  0  0  0
  3  4  1  0  0  0
  3  6  1  0  0  0
  4  5  3  0  0  0
  6  7  1  0  0  0
  6 13  1  0  0  0
  6 33  1  0  0  0
  7  8  1  0  0  0
  7 10  1  0  0  0
  7 34  1  0  0  0
  8  9  3  0  0  0
 10 11  2  0  0  0
 10 12  1  0  0  0
 12 35  1  0  0  0
 12 36  1  0  0  0
 12 37  1  0  0  0
 13 14  2  0  0  0
 13 29  1  0  0  0
 14 15  1  0  0  0
 14 38  1  0  0  0
 15 16  2  0  0  0
 15 39  1  0  0  0
 16 17  1  0  0  0
 16 28  1  0  0  0
 17 18  1  0  0  0
 17 40  1  0  0  0
 18 19  2  0  0  0
 19 20  1  0  0  0
 19 28  1  0  0  0
 20 21  1  0  0  0
 21 22  1  0  0  0
 21 41  1  0  0  0
 21 42  1  0  0  0
 22 23  2  0  0  0
 22 27  1  0  0  0
 23 24  1  0  0  0
 23 43  1  0  0  0
 24 25  2  0  0  0
 24 44  1  0  0  0
 25 26  1  0  0  0
 25 45  1  0  0  0
 26 27  2  0  0  0
 26 46  1  0  0  0
 27 47  1  0  0  0
 28 29  2  0  0  0
 29 48  1  0  0  0
M  END
> <s_m_entry_id>
10204

> <s_m_entry_name>
dock_pv.273

> <s_m_Source_Path>
/home/csk/Desktop/cluster/DUD-E-result/met

> <s_m_Source_File>
dock_pv.maegz

> <i_m_Source_File_Index>
273

> <chembl_id>
CHEMBL3648320

> <chembl_pref_name>
None

> <i_lp_mmshare_version>
53161

> <i_f3d_flags>
0

> <r_lp_tautomer_probability>
0.980392156862745

> <s_lp_Force_Field>
OPLS_2005

> <r_lp_Energy>
17.840087

> <b_lp_Chiralities_Consistent>
1

> <s_lp_Variant>
CHEMBL3717_lig2654-4

> <s_i_glide_gridfile>
glide-grid_3lq8

> <i_i_glide_lignum>
3024

> <i_i_glide_rotatable_bonds>
4

> <r_i_docking_score>
-7.79813751927683

> <r_i_glide_ligand_efficiency>
-0.268901293768167

> <r_i_glide_ligand_efficiency_sa>
-0.826149968365334

> <r_i_glide_ligand_efficiency_ln>
-1.7855757482087

> <r_i_glide_gscore>
-7.79813751927683

> <r_i_glide_lipo>
-3.61606462483153

> <r_i_glide_hbond>
-0.224113811367346

> <r_i_glide_metal>
0

> <r_i_glide_rewards>
-1.60322380888542

> <r_i_glide_evdw>
-45.9043655395508

> <r_i_glide_ecoul>
-3.44612908363342

> <r_i_glide_erotb>
0.495567498373856

> <r_i_glide_esite>
-0.0381651330438407

> <r_i_glide_emodel>
-64.2167172264945

> <r_i_glide_energy>
-49.3504946231842

> <r_i_glide_einternal>
5.04660320281982

> <i_i_glide_confnum>
39

> <i_i_glide_posenum>
36

> <r_i_glide_eff_state_penalty>
0

> <s_user_duplicate_titles>
CHEMBL3717_lig2654

> <s_m_subgroup_title>
dock_pv

> <s_m_subgroupid>
dock_pv

> <b_m_subgroup_collapsed>
1

$$$$
CHEMBL3717_lig3440
                    3D
 Schrodinger Suite 2021-1.
 40 43  0  0  1  0            999 V2000
    2.0758    4.3040   29.0943 S   0  0  0  0  0  0
   -7.0936    4.4454   30.1023 O   0  0  0  0  0  0
    1.1060    5.2353   28.5167 O   0  0  0  0  0  0
    3.4477    4.7569   29.3439 O   0  0  0  0  0  0
   -3.9080    2.6952   30.5273 N   0  0  0  0  0  0
    1.3735    3.7566   30.6216 N   0  0  1  0  0  0
   -4.9723    5.1569   30.2079 N   0  0  0  0  0  0
   -3.0082    3.7877   30.6114 C   0  0  0  0  0  0
   -5.2786    2.8613   30.3205 C   0  0  0  0  0  0
   -3.5898    5.0458   30.3914 C   0  0  0  0  0  0
   -5.9010    4.1761   30.2101 C   0  0  0  0  0  0
   -0.8486    4.8574   30.9504 C   0  0  0  0  0  0
   -1.6451    3.7059   30.9305 C   0  0  0  0  0  0
    2.0261    2.7010   31.4412 C   0  0  0  0  0  0
    0.6213    4.7951   31.3703 C   0  0  0  0  0  0
   -3.6554    1.3434   30.6069 C   0  0  0  0  0  0
   -2.7918    6.1872   30.3722 C   0  0  0  0  0  0
   -5.8496    1.5910   30.2990 C   0  0  0  0  0  0
   -1.4215    6.0859   30.6081 C   0  0  0  0  0  0
    3.5031    2.3569   31.2521 C   0  0  0  0  0  0
    3.0747    3.1643   32.4299 C   0  0  0  0  0  0
   -4.8386    0.6446   30.4626 C   0  0  0  0  0  0
    2.1258    2.7660   28.0126 C   0  0  0  0  0  0
   -5.3737    6.0669   30.0292 H   0  0  0  0  0  0
   -1.1972    2.7568   31.1725 H   0  0  0  0  0  0
    1.3786    1.8690   31.7023 H   0  0  0  0  0  0
    0.7040    4.6097   32.4419 H   0  0  0  0  0  0
    1.0972    5.7606   31.1882 H   0  0  0  0  0  0
   -2.6487    0.9852   30.7574 H   0  0  0  0  0  0
   -3.2265    7.1550   30.1871 H   0  0  0  0  0  0
   -6.9012    1.3735   30.1687 H   0  0  0  0  0  0
   -0.8179    6.9819   30.5973 H   0  0  0  0  0  0
    4.1294    2.8223   30.4957 H   0  0  0  0  0  0
    3.7987    1.3203   31.4080 H   0  0  0  0  0  0
    3.1060    2.6931   33.4077 H   0  0  0  0  0  0
    3.3255    4.2264   32.4725 H   0  0  0  0  0  0
   -4.9597   -0.4297   30.4785 H   0  0  0  0  0  0
    2.5843    3.0245   27.0599 H   0  0  0  0  0  0
    2.7045    1.9912   28.5112 H   0  0  0  0  0  0
    1.1066    2.4249   27.8513 H   0  0  0  0  0  0
  1  3  2  0  0  0
  1  4  2  0  0  0
  1  6  1  0  0  0
  1 23  1  0  0  0
  2 11  2  0  0  0
  5  8  1  0  0  0
  5  9  1  0  0  0
  5 16  1  0  0  0
  6 14  1  0  0  0
  6 15  1  0  0  0
  7 10  1  0  0  0
  7 11  1  0  0  0
  7 24  1  0  0  0
  8 10  1  0  0  0
  8 13  2  0  0  0
  9 11  1  0  0  0
  9 18  2  0  0  0
 10 17  2  0  0  0
 12 13  1  0  0  0
 12 15  1  0  0  0
 12 19  2  0  0  0
 13 25  1  0  0  0
 14 20  1  0  0  0
 14 21  1  0  0  0
 14 26  1  0  0  0
 15 27  1  0  0  0
 15 28  1  0  0  0
 16 22  2  0  0  0
 16 29  1  0  0  0
 17 19  1  0  0  0
 17 30  1  0  0  0
 18 22  1  0  0  0
 18 31  1  0  0  0
 19 32  1  0  0  0
 20 21  1  0  0  0
 20 33  1  0  0  0
 20 34  1  0  0  0
 21 35  1  0  0  0
 21 36  1  0  0  0
 22 37  1  0  0  0
 23 38  1  0  0  0
 23 39  1  0  0  0
 23 40  1  0  0  0
M  END
> <s_m_entry_id>
10206

> <s_m_entry_name>
dock_pv.275

> <s_m_Source_Path>
/home/csk/Desktop/cluster/DUD-E-result/met

> <s_m_Source_File>
dock_pv.maegz

> <i_m_Source_File_Index>
275

> <chembl_id>
CHEMBL1978448

> <chembl_pref_name>
None

> <i_lp_mmshare_version>
53161

> <i_f3d_flags>
0

> <r_lp_tautomer_probability>
1

> <s_lp_Force_Field>
OPLS_2005

> <r_lp_Energy>
23.272327

> <b_lp_Chiralities_Consistent>
1

> <s_lp_Variant>
CHEMBL3717_lig3440-1

> <s_i_glide_gridfile>
glide-grid_3lq8

> <i_i_glide_lignum>
4234

> <i_i_glide_rotatable_bonds>
4

> <r_i_docking_score>
-7.79416206063577

> <r_i_glide_ligand_efficiency>
-0.33887661133199

> <r_i_glide_ligand_efficiency_sa>
-0.963720004203793

> <r_i_glide_ligand_efficiency_ln>
-1.8846990598159

> <r_i_glide_gscore>
-7.79416206063577

> <r_i_glide_lipo>
-3.47681502680877

> <r_i_glide_hbond>
-0.192047871133818

> <r_i_glide_metal>
0

> <r_i_glide_rewards>
-2.5324236162365

> <r_i_glide_evdw>
-38.0550651550293

> <r_i_glide_ecoul>
-1.36171197891235

> <r_i_glide_erotb>
0.514134508131631

> <r_i_glide_esite>
0

> <r_i_glide_emodel>
-55.4349851007556

> <r_i_glide_energy>
-39.4167771339417

> <r_i_glide_einternal>
3.16899681091309

> <i_i_glide_confnum>
26

> <i_i_glide_posenum>
187

> <r_i_glide_eff_state_penalty>
0

> <s_user_duplicate_titles>
CHEMBL3717_lig3440

> <s_m_subgroup_title>
dock_pv

> <s_m_subgroupid>
dock_pv

> <b_m_subgroup_collapsed>
1

$$$$
CHEMBL3717_lig1083
                    3D
 Schrodinger Suite 2021-1.
 49 52  0  0  1  0            999 V2000
   -7.5406   -0.5778   31.6474 C   0  0  0  0  0  0
   -7.0227   -1.6005   32.4344 C   0  0  0  0  0  0
   -5.6474   -1.7177   32.6012 C   0  0  0  0  0  0
   -4.7809   -0.8125   31.9783 C   0  0  0  0  0  0
   -5.2944    0.2402   31.1847 C   0  0  0  0  0  0
   -6.6940    0.3358   31.0188 C   0  0  0  0  0  0
   -7.4415    1.5431   30.0260 Cl  0  0  0  0  0  0
   -5.1616   -2.7215   33.3675 F   0  0  0  0  0  0
   -3.0752   -1.0449   32.2080 Cl  0  0  0  0  0  0
   -4.3352    1.2254   30.4873 C   0  0  2  0  0  0
   -4.8096    2.5733   30.6079 O   0  0  0  0  0  0
   -4.1632    0.8631   29.0034 C   0  0  0  0  0  0
   -3.9456    3.6628   30.6034 C   0  0  0  0  0  0
   -4.5004    4.9561   30.6079 C   0  0  0  0  0  0
   -3.7558    6.0894   30.6079 N   0  0  0  0  0  0
   -2.4074    5.9639   30.6159 C   0  0  0  0  0  0
   -1.7553    4.7309   30.6176 C   0  0  0  0  0  0
   -2.5392    3.5734   30.6080 C   0  0  0  0  0  0
   -5.8801    5.1409   30.6079 N   0  0  0  0  0  0
   -0.2720    4.6517   30.5844 C   0  0  0  0  0  0
    0.5252    3.7348   29.9161 C   0  0  0  0  0  0
    1.8243    4.0843   30.1699 N   0  0  0  0  0  0
    1.9068    5.1575   30.9625 N   0  0  0  0  0  0
    0.6640    5.4984   31.1919 C   0  0  0  0  0  0
    3.0444    3.4187   29.7157 C   0  0  1  0  0  0
    4.0920    4.3577   29.1051 C   0  0  0  0  0  0
    5.2673    4.2941   30.0744 C   0  0  0  0  0  0
    5.2073    2.9474   30.6075 N   0  0  1  0  0  0
    3.7849    2.7570   30.8811 C   0  0  0  0  0  0
   -8.6100   -0.4975   31.5195 H   0  0  0  0  0  0
   -7.6838   -2.3021   32.9216 H   0  0  0  0  0  0
   -3.3741    1.1448   30.9815 H   0  0  0  0  0  0
   -3.7407   -0.1358   28.8877 H   0  0  0  0  0  0
   -5.1149    0.8764   28.4730 H   0  0  0  0  0  0
   -3.5015    1.5570   28.4895 H   0  0  0  0  0  0
   -1.8442    6.8851   30.6069 H   0  0  0  0  0  0
   -2.0255    2.6281   30.5917 H   0  0  0  0  0  0
   -6.4605    4.3203   30.5116 H   0  0  0  0  0  0
   -6.2271    6.0584   30.3614 H   0  0  0  0  0  0
    0.2891    2.8900   29.2870 H   0  0  0  0  0  0
    0.4394    6.3510   31.8072 H   0  0  0  0  0  0
    2.7020    2.6832   28.9854 H   0  0  0  0  0  0
    4.3944    4.0352   28.1080 H   0  0  0  0  0  0
    3.7362    5.3823   29.0081 H   0  0  0  0  0  0
    6.2179    4.4428   29.5613 H   0  0  0  0  0  0
    5.1804    5.0436   30.8622 H   0  0  0  0  0  0
    5.4916    2.3354   29.8474 H   0  0  0  0  0  0
    3.5262    3.2552   31.8179 H   0  0  0  0  0  0
    3.5122    1.7084   31.0083 H   0  0  0  0  0  0
  1  6  1  0  0  0
  1  2  2  0  0  0
  1 30  1  0  0  0
  2  3  1  0  0  0
  2 31  1  0  0  0
  3  4  2  0  0  0
  3  8  1  0  0  0
  4  9  1  0  0  0
  4  5  1  0  0  0
  5 10  1  0  0  0
  5  6  2  0  0  0
  6  7  1  0  0  0
 10 11  1  0  0  0
 10 12  1  0  0  0
 10 32  1  0  0  0
 11 13  1  0  0  0
 12 33  1  0  0  0
 12 34  1  0  0  0
 12 35  1  0  0  0
 13 18  1  0  0  0
 13 14  2  0  0  0
 14 15  1  0  0  0
 14 19  1  0  0  0
 15 16  2  0  0  0
 16 17  1  0  0  0
 16 36  1  0  0  0
 17 18  2  0  0  0
 17 20  1  0  0  0
 18 37  1  0  0  0
 19 38  1  0  0  0
 19 39  1  0  0  0
 20 21  2  0  0  0
 20 24  1  0  0  0
 21 22  1  0  0  0
 21 40  1  0  0  0
 22 23  1  0  0  0
 22 25  1  0  0  0
 23 24  2  0  0  0
 24 41  1  0  0  0
 25 26  1  0  0  0
 25 29  1  0  0  0
 25 42  1  0  0  0
 26 27  1  0  0  0
 26 43  1  0  0  0
 26 44  1  0  0  0
 27 28  1  0  0  0
 27 45  1  0  0  0
 27 46  1  0  0  0
 28 29  1  0  0  0
 28 47  1  0  0  0
 29 48  1  0  0  0
 29 49  1  0  0  0
M  END
> <s_m_entry_id>
10208

> <s_m_entry_name>
dock_pv.277

> <s_m_Source_Path>
/home/csk/Desktop/cluster/DUD-E-result/met

> <s_m_Source_File>
dock_pv.maegz

> <i_m_Source_File_Index>
277

> <chembl_id>
CHEMBL1825135

> <chembl_pref_name>
None

> <i_lp_mmshare_version>
53161

> <i_f3d_flags>
0

> <r_lp_tautomer_probability>
0.999999404453161

> <s_lp_Force_Field>
OPLS_2005

> <r_lp_Energy>
40.038346

> <b_lp_Chiralities_Consistent>
1

> <s_lp_Variant>
CHEMBL3717_lig1083-1

> <s_i_glide_gridfile>
glide-grid_3lq8

> <i_i_glide_lignum>
1231

> <i_i_glide_rotatable_bonds>
5

> <r_i_docking_score>
-7.79025627550994

> <r_i_glide_ligand_efficiency>
-0.268629526741722

> <r_i_glide_ligand_efficiency_sa>
-0.825315013958259

> <r_i_glide_ligand_efficiency_ln>
-1.78377114323718

> <r_i_glide_gscore>
-7.79025627550994

> <r_i_glide_lipo>
-3.69452307320702

> <r_i_glide_hbond>
-0.340016072836993

> <r_i_glide_metal>
0

> <r_i_glide_rewards>
-1.21526645996933

> <r_i_glide_evdw>
-42.8916435241699

> <r_i_glide_ecoul>
-6.11856317520142

> <r_i_glide_erotb>
0.523511135732746

> <r_i_glide_esite>
-0.00159515274063003

> <r_i_glide_emodel>
-69.5366749357721

> <r_i_glide_energy>
-49.0102066993713

> <r_i_glide_einternal>
3.62513303756714

> <i_i_glide_confnum>
46

> <i_i_glide_posenum>
153

> <r_i_glide_eff_state_penalty>
0

> <s_user_duplicate_titles>
CHEMBL3717_lig1083

> <s_m_subgroup_title>
dock_pv

> <s_m_subgroupid>
dock_pv

> <b_m_subgroup_collapsed>
1

$$$$
CHEMBL3717_lig1220
                    3D
 Schrodinger Suite 2021-1.
 56 61  0  0  1  0            999 V2000
   -6.1538    5.5568   30.7360 N   0  0  0  0  0  0
   -4.8507    5.9288   30.7920 C   0  0  0  0  0  0
   -3.7882    5.0463   30.6019 C   0  0  0  0  0  0
   -4.1049    3.7122   30.3523 C   0  0  0  0  0  0
   -5.4425    3.2913   30.2881 C   0  0  0  0  0  0
   -6.4403    4.2606   30.4752 C   0  0  0  0  0  0
   -2.3737    5.5059   30.6080 C   0  0  0  0  0  0
   -1.2129    4.8098   30.9283 C   0  0  0  0  0  0
   -0.1631    5.6694   30.6982 N   0  0  0  0  0  0
   -0.5881    6.8408   30.2052 N   0  0  0  0  0  0
   -1.8930    6.7560   30.2078 C   0  0  0  0  0  0
    1.2849    5.4206   30.7098 C   0  0  0  0  0  0
    1.7977    4.4678   31.8071 C   0  0  0  0  0  0
    1.7445    2.9842   31.4029 C   0  0  0  0  0  0
    2.3119    2.7571   30.0751 N   0  0  2  0  0  0
    1.6348    3.5201   29.0311 C   0  0  0  0  0  0
    1.8171    5.0086   29.3242 C   0  0  0  0  0  0
   -5.6846    1.8353   30.0954 C   0  0  0  0  0  0
   -4.7086    1.0285   30.5867 O   0  0  0  0  0  0
   -6.7265    1.2125   29.5745 N   0  0  0  0  0  0
   -7.7926    3.9452   30.4101 N   0  0  0  0  0  0
   -6.4180   -0.1133   29.7421 C   0  0  0  0  0  0
   -5.1763   -0.2216   30.3814 C   0  0  0  0  0  0
   -4.5615   -1.4257   30.7424 C   0  0  0  0  0  0
   -5.2753   -2.5802   30.3848 C   0  0  0  0  0  0
   -6.5177   -2.5114   29.7394 C   0  0  0  0  0  0
   -7.1118   -1.2850   29.4113 C   0  0  0  0  0  0
   -3.2611   -1.4416   31.4702 C   0  0  0  0  0  0
   -3.0359   -0.3989   32.3200 N   0  0  0  0  0  0
   -1.8709   -0.3488   33.0074 C   0  0  0  0  0  0
   -0.8949   -1.3319   32.8941 C   0  0  0  0  0  0
   -1.1146   -2.3884   32.0069 C   0  0  0  0  0  0
   -2.3056   -2.4429   31.2803 C   0  0  0  0  0  0
   -4.6717    6.9761   30.9796 H   0  0  0  0  0  0
   -3.3031    3.0016   30.2082 H   0  0  0  0  0  0
   -1.0538    3.7960   31.2582 H   0  0  0  0  0  0
   -2.4915    7.5763   29.8526 H   0  0  0  0  0  0
    1.6956    6.4080   30.9290 H   0  0  0  0  0  0
    1.2571    4.6379   32.7385 H   0  0  0  0  0  0
    2.8230    4.7339   32.0684 H   0  0  0  0  0  0
    0.7207    2.6142   31.4118 H   0  0  0  0  0  0
    2.3080    2.3856   32.1196 H   0  0  0  0  0  0
    2.2253    1.7732   29.8480 H   0  0  0  0  0  0
    0.5767    3.2537   29.0094 H   0  0  0  0  0  0
    2.0572    3.2630   28.0587 H   0  0  0  0  0  0
    2.8764    5.2489   29.2338 H   0  0  0  0  0  0
    1.3419    5.6074   28.5468 H   0  0  0  0  0  0
   -8.0543    3.0051   30.1449 H   0  0  0  0  0  0
   -8.4643    4.6978   30.4275 H   0  0  0  0  0  0
   -4.8724   -3.5559   30.6225 H   0  0  0  0  0  0
   -7.0282   -3.4303   29.4887 H   0  0  0  0  0  0
   -8.0692   -1.2442   28.9147 H   0  0  0  0  0  0
   -1.7401    0.4912   33.6740 H   0  0  0  0  0  0
    0.0195   -1.2564   33.4625 H   0  0  0  0  0  0
   -0.3653   -3.1553   31.8752 H   0  0  0  0  0  0
   -2.4810   -3.2421   30.5760 H   0  0  0  0  0  0
  1  6  1  0  0  0
  1  2  2  0  0  0
  2  3  1  0  0  0
  2 34  1  0  0  0
  3  7  1  0  0  0
  3  4  2  0  0  0
  4  5  1  0  0  0
  4 35  1  0  0  0
  5 18  1  0  0  0
  5  6  2  0  0  0
  6 21  1  0  0  0
  7 11  1  0  0  0
  7  8  2  0  0  0
  8  9  1  0  0  0
  8 36  1  0  0  0
  9 12  1  0  0  0
  9 10  1  0  0  0
 10 11  2  0  0  0
 11 37  1  0  0  0
 12 13  1  0  0  0
 12 17  1  0  0  0
 12 38  1  0  0  0
 13 14  1  0  0  0
 13 39  1  0  0  0
 13 40  1  0  0  0
 14 15  1  0  0  0
 14 41  1  0  0  0
 14 42  1  0  0  0
 15 16  1  0  0  0
 15 43  1  0  0  0
 16 17  1  0  0  0
 16 44  1  0  0  0
 16 45  1  0  0  0
 17 46  1  0  0  0
 17 47  1  0  0  0
 18 19  1  0  0  0
 18 20  2  0  0  0
 19 23  1  0  0  0
 20 22  1  0  0  0
 21 48  1  0  0  0
 21 49  1  0  0  0
 22 23  2  0  0  0
 22 27  1  0  0  0
 23 24  1  0  0  0
 24 25  2  0  0  0
 24 28  1  0  0  0
 25 26  1  0  0  0
 25 50  1  0  0  0
 26 27  2  0  0  0
 26 51  1  0  0  0
 27 52  1  0  0  0
 28 29  2  0  0  0
 28 33  1  0  0  0
 29 30  1  0  0  0
 30 31  2  0  0  0
 30 53  1  0  0  0
 31 32  1  0  0  0
 31 54  1  0  0  0
 32 33  2  0  0  0
 32 55  1  0  0  0
 33 56  1  0  0  0
M  END
> <s_m_entry_id>
10209

> <s_m_entry_name>
dock_pv.278

> <s_m_Source_Path>
/home/csk/Desktop/cluster/DUD-E-result/met

> <s_m_Source_File>
dock_pv.maegz

> <i_m_Source_File_Index>
278

> <chembl_id>
CHEMBL2032155

> <chembl_pref_name>
None

> <i_lp_mmshare_version>
53161

> <i_f3d_flags>
0

> <r_lp_tautomer_probability>
0.999999772200052

> <s_lp_Force_Field>
OPLS_2005

> <r_lp_Energy>
34.875188

> <b_lp_Chiralities_Consistent>
1

> <s_lp_Variant>
CHEMBL3717_lig1220-1

> <s_i_glide_gridfile>
glide-grid_3lq8

> <i_i_glide_lignum>
1396

> <i_i_glide_rotatable_bonds>
4

> <r_i_docking_score>
-7.78800467350702

> <r_i_glide_ligand_efficiency>
-0.236000141621425

> <r_i_glide_ligand_efficiency_sa>
-0.756978555252336

> <r_i_glide_ligand_efficiency_ln>
-1.73201191525786

> <r_i_glide_gscore>
-7.78800467350702

> <r_i_glide_lipo>
-4.31181464541195

> <r_i_glide_hbond>
0

> <r_i_glide_metal>
0

> <r_i_glide_rewards>
-1.18595340652769

> <r_i_glide_evdw>
-51.0070152282715

> <r_i_glide_ecoul>
-1.04424154758453

> <r_i_glide_erotb>
0.416750371983871

> <r_i_glide_esite>
0

> <r_i_glide_emodel>
-66.9450104459259

> <r_i_glide_energy>
-52.051256775856

> <r_i_glide_einternal>
5.52321624755859

> <i_i_glide_confnum>
1

> <i_i_glide_posenum>
27

> <r_i_glide_eff_state_penalty>
0

> <s_user_duplicate_titles>
CHEMBL3717_lig1220

> <s_m_subgroup_title>
dock_pv

> <s_m_subgroupid>
dock_pv

> <b_m_subgroup_collapsed>
1

$$$$
CHEMBL3717_lig2769
                    3D
 Schrodinger Suite 2021-1.
 53 57  0  0  1  0            999 V2000
   -6.0936   -4.1086   31.7614 C   0  0  0  0  0  0
   -6.2885   -3.3675   33.0899 C   0  0  0  0  0  0
   -5.7720   -3.6959   34.2129 N   0  0  0  0  0  0
   -4.8951   -4.8006   34.1649 O   0  0  0  0  0  0
   -7.0674   -2.1284   32.9747 C   0  0  0  0  0  0
   -8.1542   -1.8535   33.8187 C   0  0  0  0  0  0
   -8.8879   -0.6645   33.7153 C   0  0  0  0  0  0
   -8.4942    0.2881   32.7592 C   0  0  0  0  0  0
   -8.9704    1.5142   32.4455 N   0  0  0  0  0  0
   -8.1854    1.9895   31.4056 N   0  0  0  0  0  0
   -7.2623    1.0962   31.1066 C   0  0  0  0  0  0
   -6.0593    1.2205   29.8208 S   0  0  0  0  0  0
   -5.2237    2.7241   30.2305 C   0  0  0  0  0  0
   -5.9140    3.9355   30.2197 C   0  0  0  0  0  0
   -5.2316    5.1408   30.3685 C   0  0  0  0  0  0
   -3.8265    5.1493   30.5142 C   0  0  0  0  0  0
   -3.1784    6.3455   30.5302 N   0  0  0  0  0  0
   -1.8271    6.3379   30.6071 C   0  0  0  0  0  0
   -1.0604    5.1839   30.7760 C   0  0  0  0  0  0
    0.4443    5.3122   31.0086 C   0  0  0  0  0  0
    1.2473    4.2020   30.4860 N   0  0  0  0  0  0
    1.3042    4.2125   29.0141 C   0  0  0  0  0  0
    2.2855    3.1580   28.4547 C   0  0  0  0  0  0
    3.5659    3.3095   29.0567 O   0  0  0  0  0  0
    3.5117    3.1580   30.4709 C   0  0  0  0  0  0
    2.5903    4.2285   31.0827 C   0  0  0  0  0  0
   -1.7204    3.9498   30.7909 C   0  0  0  0  0  0
   -3.1259    3.9066   30.6066 C   0  0  0  0  0  0
   -3.8487    2.6943   30.4623 C   0  0  0  0  0  0
   -7.4039   -0.0021   31.9246 N   0  0  0  0  0  0
   -6.7147   -1.1816   32.0085 C   0  0  0  0  0  0
   -6.9511   -3.9745   31.1004 H   0  0  0  0  0  0
   -5.2225   -3.7184   31.2329 H   0  0  0  0  0  0
   -5.9448   -5.1818   31.8855 H   0  0  0  0  0  0
   -4.8506   -4.9990   33.2239 H   0  0  0  0  0  0
   -8.4384   -2.5748   34.5734 H   0  0  0  0  0  0
   -9.7201   -0.4674   34.3743 H   0  0  0  0  0  0
   -6.9735    3.9548   30.0186 H   0  0  0  0  0  0
   -5.7683    6.0762   30.3014 H   0  0  0  0  0  0
   -1.3572    7.3109   30.6039 H   0  0  0  0  0  0
    0.8057    6.2554   30.5935 H   0  0  0  0  0  0
    0.5812    5.3842   32.0893 H   0  0  0  0  0  0
    0.3063    4.0506   28.6080 H   0  0  0  0  0  0
    1.6146    5.1990   28.6660 H   0  0  0  0  0  0
    2.3881    3.2808   27.3763 H   0  0  0  0  0  0
    1.9072    2.1472   28.6132 H   0  0  0  0  0  0
    4.5203    3.2556   30.8713 H   0  0  0  0  0  0
    3.1645    2.1575   30.7391 H   0  0  0  0  0  0
    3.0426    5.2094   30.9342 H   0  0  0  0  0  0
    2.5153    4.0921   32.1624 H   0  0  0  0  0  0
   -1.1660    3.0281   30.9001 H   0  0  0  0  0  0
   -3.3163    1.7540   30.4799 H   0  0  0  0  0  0
   -5.8889   -1.3003   31.3215 H   0  0  0  0  0  0
  1  2  1  0  0  0
  1 32  1  0  0  0
  1 33  1  0  0  0
  1 34  1  0  0  0
  2  3  2  0  0  0
  2  5  1  0  0  0
  3  4  1  0  0  0
  4 35  1  0  0  0
  5  6  1  0  0  0
  5 31  2  0  0  0
  6  7  2  0  0  0
  6 36  1  0  0  0
  7  8  1  0  0  0
  7 37  1  0  0  0
  8  9  2  0  0  0
  8 30  1  0  0  0
  9 10  1  0  0  0
 10 11  2  0  0  0
 11 12  1  0  0  0
 11 30  1  0  0  0
 12 13  1  0  0  0
 13 14  2  0  0  0
 13 29  1  0  0  0
 14 15  1  0  0  0
 14 38  1  0  0  0
 15 16  2  0  0  0
 15 39  1  0  0  0
 16 17  1  0  0  0
 16 28  1  0  0  0
 17 18  2  0  0  0
 18 19  1  0  0  0
 18 40  1  0  0  0
 19 20  1  0  0  0
 19 27  2  0  0  0
 20 21  1  0  0  0
 20 41  1  0  0  0
 20 42  1  0  0  0
 21 22  1  0  0  0
 21 26  1  0  0  0
 22 23  1  0  0  0
 22 43  1  0  0  0
 22 44  1  0  0  0
 23 24  1  0  0  0
 23 45  1  0  0  0
 23 46  1  0  0  0
 24 25  1  0  0  0
 25 26  1  0  0  0
 25 47  1  0  0  0
 25 48  1  0  0  0
 26 49  1  0  0  0
 26 50  1  0  0  0
 27 28  1  0  0  0
 27 51  1  0  0  0
 28 29  2  0  0  0
 29 52  1  0  0  0
 30 31  1  0  0  0
 31 53  1  0  0  0
M  END
> <s_m_entry_id>
10210

> <s_m_entry_name>
dock_pv.279

> <s_m_Source_Path>
/home/csk/Desktop/cluster/DUD-E-result/met

> <s_m_Source_File>
dock_pv.maegz

> <i_m_Source_File_Index>
279

> <chembl_id>
CHEMBL3704010

> <chembl_pref_name>
None

> <i_lp_mmshare_version>
53161

> <i_f3d_flags>
0

> <r_lp_tautomer_probability>
1

> <s_lp_Force_Field>
OPLS_2005

> <r_lp_Energy>
36.301517

> <b_lp_Chiralities_Consistent>
1

> <s_lp_Variant>
CHEMBL3717_lig2769-1

> <s_i_glide_gridfile>
glide-grid_3lq8

> <i_i_glide_lignum>
3351

> <i_i_glide_rotatable_bonds>
6

> <r_i_docking_score>
-7.78608451468873

> <r_i_glide_ligand_efficiency>
-0.251164016602862

> <r_i_glide_ligand_efficiency_sa>
-0.789001781430001

> <r_i_glide_ligand_efficiency_ln>
-1.75600067289613

> <r_i_glide_gscore>
-7.78608451468873

> <r_i_glide_lipo>
-3.60674730225629

> <r_i_glide_hbond>
0

> <r_i_glide_metal>
0

> <r_i_glide_rewards>
-1.9724012480333

> <r_i_glide_evdw>
-44.7875900268555

> <r_i_glide_ecoul>
-3.63256573677063

> <r_i_glide_erotb>
0.632925391792002

> <r_i_glide_esite>
-0.0555969943327739

> <r_i_glide_emodel>
-68.6918011349952

> <r_i_glide_energy>
-48.4201557636261

> <r_i_glide_einternal>
2.79446721076965

> <i_i_glide_confnum>
7

> <i_i_glide_posenum>
11

> <r_i_glide_eff_state_penalty>
0

> <s_user_duplicate_titles>
CHEMBL3717_lig2769

> <s_m_subgroup_title>
dock_pv

> <s_m_subgroupid>
dock_pv

> <b_m_subgroup_collapsed>
1

$$$$
CHEMBL3717_lig3570
                    3D
 Schrodinger Suite 2021-1.
 46 48  0  0  1  0            999 V2000
   -4.7832    2.9557   30.5140 O   0  0  0  0  0  0
   -3.7768    6.4690   30.6093 N   0  0  0  0  0  0
    4.6896    3.9418   29.7300 N   0  0  0  0  0  0
   -4.4829   -0.5834   29.4082 N   0  0  0  0  0  0
   -3.9507    4.0521   30.5532 C   0  0  0  0  0  0
   -1.7665    5.1157   30.6310 C   0  0  0  0  0  0
   -2.5530    3.9582   30.6080 C   0  0  0  0  0  0
   -4.5155    5.3296   30.5841 C   0  0  0  0  0  0
   -2.4260    6.3492   30.6081 C   0  0  0  0  0  0
   -0.2938    5.0598   30.6081 C   0  0  0  0  0  0
    1.8870    4.0218   29.9262 C   0  0  0  0  0  0
   -4.8778    0.5277   30.2642 C   0  0  1  0  0  0
    0.4199    4.1066   29.9734 C   0  0  0  0  0  0
   -4.4395    1.8711   29.6427 C   0  0  0  0  0  0
   -7.3707    0.8927   29.5573 C   0  0  0  0  0  0
   -6.3817    0.4331   30.6285 C   0  0  0  0  0  0
    2.6868    4.4114   31.0047 C   0  0  0  0  0  0
    2.5060    3.5769   28.7536 C   0  0  0  0  0  0
   -8.0769    2.0871   29.7356 C   0  0  0  0  0  0
   -7.5921    0.1170   28.4138 C   0  0  0  0  0  0
    4.0765    4.3556   30.8650 C   0  0  0  0  0  0
    3.9012    3.5578   28.6952 C   0  0  0  0  0  0
   -8.9992    2.5042   28.7781 C   0  0  0  0  0  0
   -8.5071    0.5441   27.4523 C   0  0  0  0  0  0
   -9.2096    1.7311   27.6395 C   0  0  0  0  0  0
   -4.8940   -0.5365   28.4773 H   0  0  0  0  0  0
   -3.4840   -0.5941   29.2557 H   0  0  0  0  0  0
   -2.0734    2.9907   30.6372 H   0  0  0  0  0  0
   -5.5881    5.4530   30.5572 H   0  0  0  0  0  0
   -1.8700    7.2753   30.6026 H   0  0  0  0  0  0
    0.2236    5.8446   31.1443 H   0  0  0  0  0  0
   -4.3196    0.3980   31.1929 H   0  0  0  0  0  0
   -0.0996    3.3218   29.4416 H   0  0  0  0  0  0
   -4.9329    2.0256   28.6846 H   0  0  0  0  0  0
   -3.3779    1.8134   29.4076 H   0  0  0  0  0  0
   -6.6360   -0.5868   30.9250 H   0  0  0  0  0  0
   -6.5514    1.0283   31.5259 H   0  0  0  0  0  0
    2.2481    4.7594   31.9299 H   0  0  0  0  0  0
    1.9204    3.2620   27.9014 H   0  0  0  0  0  0
   -7.9127    2.6937   30.6147 H   0  0  0  0  0  0
   -7.0527   -0.8079   28.2687 H   0  0  0  0  0  0
    4.7255    4.6587   31.6738 H   0  0  0  0  0  0
    4.4098    3.2206   27.8055 H   0  0  0  0  0  0
   -9.5440    3.4278   28.9142 H   0  0  0  0  0  0
   -8.6714   -0.0429   26.5622 H   0  0  0  0  0  0
   -9.9150    2.0589   26.8904 H   0  0  0  0  0  0
  1  5  1  0  0  0
  1 14  1  0  0  0
  2  8  1  0  0  0
  2  9  2  0  0  0
  3 21  2  0  0  0
  3 22  1  0  0  0
  4 12  1  0  0  0
  4 26  1  0  0  0
  4 27  1  0  0  0
  5  7  1  0  0  0
  5  8  2  0  0  0
  6  7  2  0  0  0
  6  9  1  0  0  0
  6 10  1  0  0  0
  7 28  1  0  0  0
  8 29  1  0  0  0
  9 30  1  0  0  0
 10 13  2  3  0  0
 10 31  1  0  0  0
 11 13  1  0  0  0
 11 17  2  0  0  0
 11 18  1  0  0  0
 12 14  1  0  0  0
 12 16  1  0  0  0
 12 32  1  0  0  0
 13 33  1  0  0  0
 14 34  1  0  0  0
 14 35  1  0  0  0
 15 16  1  0  0  0
 15 19  2  0  0  0
 15 20  1  0  0  0
 16 36  1  0  0  0
 16 37  1  0  0  0
 17 21  1  0  0  0
 17 38  1  0  0  0
 18 22  2  0  0  0
 18 39  1  0  0  0
 19 23  1  0  0  0
 19 40  1  0  0  0
 20 24  2  0  0  0
 20 41  1  0  0  0
 21 42  1  0  0  0
 22 43  1  0  0  0
 23 25  2  0  0  0
 23 44  1  0  0  0
 24 25  1  0  0  0
 24 45  1  0  0  0
 25 46  1  0  0  0
M  END
> <s_m_entry_id>
10211

> <s_m_entry_name>
dock_pv.280

> <s_m_Source_Path>
/home/csk/Desktop/cluster/DUD-E-result/met

> <s_m_Source_File>
dock_pv.maegz

> <i_m_Source_File_Index>
280

> <chembl_id>
CHEMBL1991846

> <chembl_pref_name>
None

> <i_lp_mmshare_version>
53161

> <i_f3d_flags>
0

> <r_lp_tautomer_probability>
1

> <s_lp_Force_Field>
OPLS_2005

> <r_lp_Energy>
25.249314

> <b_lp_Chiralities_Consistent>
1

> <s_lp_Variant>
CHEMBL3717_lig3570-3

> <s_i_glide_gridfile>
glide-grid_3lq8

> <i_i_glide_lignum>
4430

> <i_i_glide_rotatable_bonds>
7

> <r_i_docking_score>
-7.77596276936993

> <r_i_glide_ligand_efficiency>
-0.311038510774797

> <r_i_glide_ligand_efficiency_sa>
-0.909482121796984

> <r_i_glide_ligand_efficiency_ln>
-1.84313620314076

> <r_i_glide_gscore>
-7.77596276936993

> <r_i_glide_lipo>
-4.00837091086028

> <r_i_glide_hbond>
-0.168005028840964

> <r_i_glide_metal>
0

> <r_i_glide_rewards>
-2.34282355846995

> <r_i_glide_evdw>
-40.2934074401855

> <r_i_glide_ecoul>
-1.80166447162628

> <r_i_glide_erotb>
1.02815677155448

> <r_i_glide_esite>
0

> <r_i_glide_emodel>
-56.0577913035031

> <r_i_glide_energy>
-42.0950719118118

> <r_i_glide_einternal>
9.50779438018799

> <i_i_glide_confnum>
6

> <i_i_glide_posenum>
127

> <r_i_glide_eff_state_penalty>
0

> <s_user_duplicate_titles>
CHEMBL3717_lig3570

> <s_m_subgroup_title>
dock_pv

> <s_m_subgroupid>
dock_pv

> <b_m_subgroup_collapsed>
1

$$$$
CHEMBL3717_lig3749
                    3D
 Schrodinger Suite 2021-1.
 41 44  0  0  1  0            999 V2000
   -3.2942    7.4606   30.6141 Cl  0  0  0  0  0  0
   -2.1033    3.1577   30.8242 N   0  0  0  0  0  0
   -5.3836    0.5028   29.9546 N   0  0  0  0  0  0
   -3.7972    4.8603   30.5565 N   0  0  0  0  0  0
   -7.7035    1.1504   29.7302 N   0  0  0  0  0  0
    0.1517    3.6900   31.1631 N   0  0  0  0  0  0
   -4.4181    2.5200   30.3533 C   0  0  0  0  0  0
   -5.8451    2.7009   30.1969 C   0  0  0  0  0  0
   -3.3825    3.5688   30.6079 C   0  0  0  0  0  0
   -6.4098    1.4157   29.9483 C   0  0  0  0  0  0
   -4.2013    1.1540   30.2072 C   0  0  0  0  0  0
   -1.1705    4.1309   31.0081 C   0  0  0  0  0  0
   -6.7373    3.7932   30.2082 C   0  0  0  0  0  0
   -2.8499    5.8082   30.7424 C   0  0  0  0  0  0
   -1.5183    5.4868   30.9910 C   0  0  0  0  0  0
   -8.0914    3.5449   29.9775 C   0  0  0  0  0  0
   -8.5201    2.2370   29.7504 C   0  0  0  0  0  0
    1.2878    4.6140   31.1668 C   0  0  0  0  0  0
    2.5453    3.8865   31.6975 C   0  0  0  0  0  0
    1.5464    5.1440   29.7349 C   0  0  0  0  0  0
    3.0548    2.7849   30.7383 C   0  0  0  0  0  0
    2.0019    4.0318   28.7629 C   0  0  0  0  0  0
    3.2499    3.3067   29.2967 C   0  0  0  0  0  0
   -5.4455   -0.4922   29.7941 H   0  0  0  0  0  0
    0.3334    2.7344   30.8957 H   0  0  0  0  0  0
   -3.2820    0.5875   30.2439 H   0  0  0  0  0  0
   -6.3918    4.8038   30.3731 H   0  0  0  0  0  0
   -0.7930    6.2739   31.1147 H   0  0  0  0  0  0
   -8.8000    4.3620   29.9653 H   0  0  0  0  0  0
   -9.5662    2.0379   29.5692 H   0  0  0  0  0  0
    1.0600    5.4535   31.8248 H   0  0  0  0  0  0
    3.3389    4.6182   31.8562 H   0  0  0  0  0  0
    2.3401    3.4554   32.6786 H   0  0  0  0  0  0
    0.6628    5.6377   29.3284 H   0  0  0  0  0  0
    2.3058    5.9219   29.7945 H   0  0  0  0  0  0
    3.9891    2.3646   31.1093 H   0  0  0  0  0  0
    2.3429    1.9610   30.7271 H   0  0  0  0  0  0
    2.2115    4.4533   27.7810 H   0  0  0  0  0  0
    1.1928    3.3140   28.6123 H   0  0  0  0  0  0
    4.1023    3.9871   29.2697 H   0  0  0  0  0  0
    3.5002    2.4864   28.6231 H   0  0  0  0  0  0
  1 14  1  0  0  0
  2  9  1  0  0  0
  2 12  2  0  0  0
  3 10  1  0  0  0
  3 11  1  0  0  0
  3 24  1  0  0  0
  4  9  2  0  0  0
  4 14  1  0  0  0
  5 10  2  0  0  0
  5 17  1  0  0  0
  6 12  1  0  0  0
  6 18  1  0  0  0
  6 25  1  0  0  0
  7  8  1  0  0  0
  7  9  1  0  0  0
  7 11  2  0  0  0
  8 10  1  0  0  0
  8 13  2  0  0  0
 11 26  1  0  0  0
 12 15  1  0  0  0
 13 16  1  0  0  0
 13 27  1  0  0  0
 14 15  2  0  0  0
 15 28  1  0  0  0
 16 17  2  0  0  0
 16 29  1  0  0  0
 17 30  1  0  0  0
 18 19  1  0  0  0
 18 20  1  0  0  0
 18 31  1  0  0  0
 19 21  1  0  0  0
 19 32  1  0  0  0
 19 33  1  0  0  0
 20 22  1  0  0  0
 20 34  1  0  0  0
 20 35  1  0  0  0
 21 23  1  0  0  0
 21 36  1  0  0  0
 21 37  1  0  0  0
 22 23  1  0  0  0
 22 38  1  0  0  0
 22 39  1  0  0  0
 23 40  1  0  0  0
 23 41  1  0  0  0
M  END
> <s_m_entry_id>
10212

> <s_m_entry_name>
dock_pv.281

> <s_m_Source_Path>
/home/csk/Desktop/cluster/DUD-E-result/met

> <s_m_Source_File>
dock_pv.maegz

> <i_m_Source_File_Index>
281

> <chembl_id>
CHEMBL1997846

> <chembl_pref_name>
None

> <i_lp_mmshare_version>
53161

> <i_f3d_flags>
0

> <r_lp_tautomer_probability>
0.999998015729938

> <s_lp_Force_Field>
OPLS_2005

> <r_lp_Energy>
6.52109

> <b_lp_Chiralities_Consistent>
1

> <s_lp_Variant>
CHEMBL3717_lig3749-1

> <s_i_glide_gridfile>
glide-grid_3lq8

> <i_i_glide_lignum>
4735

> <i_i_glide_rotatable_bonds>
3

> <r_i_docking_score>
-7.77551788523867

> <r_i_glide_ligand_efficiency>
-0.338065995010377

> <r_i_glide_ligand_efficiency_sa>
-0.961414719215838

> <r_i_glide_ligand_efficiency_ln>
-1.88019072914885

> <r_i_glide_gscore>
-7.77551788523867

> <r_i_glide_lipo>
-3.88693160189201

> <r_i_glide_hbond>
0

> <r_i_glide_metal>
0

> <r_i_glide_rewards>
-2.07352578624119

> <r_i_glide_evdw>
-39.7782135009766

> <r_i_glide_ecoul>
-2.33498001098633

> <r_i_glide_erotb>
0.524097179591306

> <r_i_glide_esite>
0

> <r_i_glide_emodel>
-60.4549455382115

> <r_i_glide_energy>
-42.1131935119629

> <r_i_glide_einternal>
2.71404886245728

> <i_i_glide_confnum>
13

> <i_i_glide_posenum>
291

> <r_i_glide_eff_state_penalty>
0

> <s_user_duplicate_titles>
CHEMBL3717_lig3749

> <s_m_subgroup_title>
dock_pv

> <s_m_subgroupid>
dock_pv

> <b_m_subgroup_collapsed>
1

$$$$
CHEMBL3717_lig1653
                    3D
 Schrodinger Suite 2021-1.
 61 64  0  0  1  0            999 V2000
   -5.9341    2.7818   30.2312 C   0  0  0  0  0  0
   -6.4933    4.0544   30.3801 C   0  0  0  0  0  0
   -5.6567    5.1563   30.5582 C   0  0  0  0  0  0
   -4.5491    2.5703   30.2762 C   0  0  0  0  0  0
   -3.6941    3.6922   30.5135 C   0  0  0  0  0  0
   -4.2577    4.9993   30.6062 C   0  0  0  0  0  0
   -3.4872    6.1127   30.7266 N   0  0  0  0  0  0
   -2.1440    5.9583   30.7915 C   0  0  0  0  0  0
   -1.4827    4.7315   30.7983 C   0  0  0  0  0  0
   -2.2772    3.5904   30.6474 C   0  0  0  0  0  0
   -0.0984    4.6508   30.9303 N   0  0  0  0  0  0
    0.8539    5.6776   30.4819 C   0  0  0  0  0  0
    1.9646    5.1512   29.5378 C   0  0  0  0  0  0
    2.5576    3.9062   30.0706 N   0  0  0  0  0  0
    1.5938    2.8639   30.4377 C   0  0  0  0  0  0
    0.6023    3.4726   31.4434 C   0  0  0  0  0  0
   -3.9719    1.3048   30.0558 N   0  0  0  0  0  0
   -8.0100    4.2296   30.3033 C   0  0  0  0  0  0
   -8.4981    3.5838   29.2437 F   0  0  0  0  0  0
   -8.5599    3.7262   31.4065 F   0  0  0  0  0  0
   -8.3609    5.5107   30.2088 F   0  0  0  0  0  0
   -4.6752    0.0309   29.9200 C   0  0  0  0  0  0
   -4.3249   -0.9447   31.0425 C   0  0  0  0  0  0
   -5.2766   -1.8909   31.4311 C   0  0  0  0  0  0
   -4.9744   -2.8348   32.4089 C   0  0  0  0  0  0
   -3.7113   -2.8509   32.9941 C   0  0  0  0  0  0
   -2.7235   -1.9351   32.6057 C   0  0  0  0  0  0
   -3.0471   -0.9868   31.6212 C   0  0  0  0  0  0
   -1.3907   -1.9341   33.2608 N   0  3  0  0  0  0
   -0.6215   -1.0105   33.0127 O   0  0  0  0  0  0
   -1.1265   -2.8292   34.0629 O   0  5  0  0  0  0
    3.8718    3.7472   30.3900 C   0  0  0  0  0  0
    4.7001    4.7149   29.9625 N   0  0  0  0  0  0
    4.3001    2.7582   30.9918 O   0  0  0  0  0  0
    6.0633    4.9391   30.4260 C   0  0  0  0  0  0
    7.0943    3.9562   29.8566 C   0  0  0  0  0  0
   -6.6122    1.9611   30.0620 H   0  0  0  0  0  0
   -6.0689    6.1550   30.6301 H   0  0  0  0  0  0
   -1.5886    6.8776   30.8871 H   0  0  0  0  0  0
   -1.8155    2.6177   30.5962 H   0  0  0  0  0  0
    0.3436    6.5041   29.9881 H   0  0  0  0  0  0
    1.3001    6.0782   31.3924 H   0  0  0  0  0  0
    2.6871    5.9517   29.4158 H   0  0  0  0  0  0
    1.5271    4.9297   28.5636 H   0  0  0  0  0  0
    1.0766    2.5230   29.5420 H   0  0  0  0  0  0
    2.0666    1.9897   30.8915 H   0  0  0  0  0  0
   -0.0932    2.7195   31.8023 H   0  0  0  0  0  0
    1.1357    3.7989   32.3378 H   0  0  0  0  0  0
   -2.9679    1.2599   30.0004 H   0  0  0  0  0  0
   -5.7542    0.1470   29.8639 H   0  0  0  0  0  0
   -4.3731   -0.4271   28.9781 H   0  0  0  0  0  0
   -6.2562   -1.9016   30.9750 H   0  0  0  0  0  0
   -5.7142   -3.5644   32.7013 H   0  0  0  0  0  0
   -3.5021   -3.5977   33.7472 H   0  0  0  0  0  0
   -2.2977   -0.2797   31.3059 H   0  0  0  0  0  0
    4.3219    5.4106   29.3412 H   0  0  0  0  0  0
    6.0964    4.9275   31.5164 H   0  0  0  0  0  0
    6.3195    5.9485   30.1275 H   0  0  0  0  0  0
    8.1019    4.2161   30.1847 H   0  0  0  0  0  0
    7.0983    3.9594   28.7659 H   0  0  0  0  0  0
    6.8968    2.9396   30.1970 H   0  0  0  0  0  0
  1  2  2  0  0  0
  1  4  1  0  0  0
  1 37  1  0  0  0
  2  3  1  0  0  0
  2 18  1  0  0  0
  3  6  2  0  0  0
  3 38  1  0  0  0
  4  5  2  0  0  0
  4 17  1  0  0  0
  5  6  1  0  0  0
  5 10  1  0  0  0
  6  7  1  0  0  0
  7  8  2  0  0  0
  8  9  1  0  0  0
  8 39  1  0  0  0
  9 10  2  0  0  0
  9 11  1  0  0  0
 10 40  1  0  0  0
 11 12  1  0  0  0
 11 16  1  0  0  0
 12 13  1  0  0  0
 12 41  1  0  0  0
 12 42  1  0  0  0
 13 14  1  0  0  0
 13 43  1  0  0  0
 13 44  1  0  0  0
 14 15  1  0  0  0
 14 32  1  0  0  0
 15 16  1  0  0  0
 15 45  1  0  0  0
 15 46  1  0  0  0
 16 47  1  0  0  0
 16 48  1  0  0  0
 17 22  1  0  0  0
 17 49  1  0  0  0
 18 19  1  0  0  0
 18 20  1  0  0  0
 18 21  1  0  0  0
 22 23  1  0  0  0
 22 50  1  0  0  0
 22 51  1  0  0  0
 23 24  2  0  0  0
 23 28  1  0  0  0
 24 25  1  0  0  0
 24 52  1  0  0  0
 25 26  2  0  0  0
 25 53  1  0  0  0
 26 27  1  0  0  0
 26 54  1  0  0  0
 27 28  2  0  0  0
 27 29  1  0  0  0
 28 55  1  0  0  0
 29 30  2  0  0  0
 29 31  1  0  0  0
 32 33  1  0  0  0
 32 34  2  0  0  0
 33 35  1  0  0  0
 33 56  1  0  0  0
 35 36  1  0  0  0
 35 57  1  0  0  0
 35 58  1  0  0  0
 36 59  1  0  0  0
 36 60  1  0  0  0
 36 61  1  0  0  0
M  CHG  2  29   1  31  -1
M  END
> <s_m_entry_id>
10213

> <s_m_entry_name>
dock_pv.282

> <s_m_Source_Path>
/home/csk/Desktop/cluster/DUD-E-result/met

> <s_m_Source_File>
dock_pv.maegz

> <i_m_Source_File_Index>
282

> <chembl_id>
CHEMBL3221107

> <chembl_pref_name>
None

> <i_lp_mmshare_version>
53161

> <i_f3d_flags>
0

> <r_lp_tautomer_probability>
1

> <s_lp_Force_Field>
OPLS_2005

> <r_lp_Energy>
59.972805

> <b_lp_Chiralities_Consistent>
1

> <s_lp_Variant>
CHEMBL3717_lig1653-1

> <s_i_glide_gridfile>
glide-grid_3lq8

> <i_i_glide_lignum>
1907

> <i_i_glide_rotatable_bonds>
9

> <r_i_docking_score>
-7.77407578406903

> <r_i_glide_ligand_efficiency>
-0.215946549557473

> <r_i_glide_ligand_efficiency_sa>
-0.713039795436864

> <r_i_glide_ligand_efficiency_ln>
-1.69609330482828

> <r_i_glide_gscore>
-7.77407578406903

> <r_i_glide_lipo>
-3.46133347038898

> <r_i_glide_hbond>
0

> <r_i_glide_metal>
0

> <r_i_glide_rewards>
-2.15464879854627

> <r_i_glide_evdw>
-51.7238388061523

> <r_i_glide_ecoul>
-0.153702989220619

> <r_i_glide_erotb>
0.485558764624733

> <r_i_glide_esite>
-0.0344048910678039

> <r_i_glide_emodel>
-72.3310045304628

> <r_i_glide_energy>
-51.877541795373

> <r_i_glide_einternal>
4.32024717330933

> <i_i_glide_confnum>
1

> <i_i_glide_posenum>
31

> <r_i_glide_eff_state_penalty>
0

> <s_user_duplicate_titles>
CHEMBL3717_lig1653

> <s_m_subgroup_title>
dock_pv

> <s_m_subgroupid>
dock_pv

> <b_m_subgroup_collapsed>
1

$$$$
CHEMBL3717_lig2578
                    3D
 Schrodinger Suite 2021-1.
 50 53  0  0  1  0            999 V2000
   -5.6444    0.8221   31.0953 C   0  0  0  0  0  0
   -4.1471    1.0663   30.8512 C   0  0  0  0  0  0
   -3.2925    0.1200   30.7641 N   0  0  0  0  0  0
   -3.8183   -1.1677   31.0312 O   0  0  0  0  0  0
   -2.8258   -2.1879   30.8201 C   0  0  0  0  0  0
   -1.5965   -2.0223   31.7676 C   0  0  0  0  0  0
   -0.4968   -2.8389   31.4084 O   0  0  0  0  0  0
   -2.5027   -2.3431   29.3103 C   0  0  0  0  0  0
   -3.6454   -2.7976   28.6083 O   0  0  0  0  0  0
   -3.7336    2.4883   30.6679 C   0  0  0  0  0  0
   -4.6319    3.4822   30.2473 C   0  0  0  0  0  0
   -4.2306    4.8171   30.1579 C   0  0  0  0  0  0
   -2.8927    5.1291   30.4395 C   0  0  0  0  0  0
   -2.2055    6.2934   30.3337 N   0  0  0  0  0  0
   -0.9665    5.9569   30.6272 C   0  0  0  0  0  0
   -0.8017    4.6194   31.0042 C   0  0  0  0  0  0
    0.4257    3.8229   31.4491 C   0  0  0  0  0  0
    1.6704    3.9901   30.5869 C   0  0  0  0  0  0
    1.5989    3.8485   29.2001 C   0  0  0  0  0  0
    2.7427    3.9566   28.4115 C   0  0  0  0  0  0
    3.9989    4.2206   29.0077 C   0  0  0  0  0  0
    5.0958    4.3570   28.2109 N   0  0  0  0  0  0
    6.2973    4.5559   28.8008 C   0  0  0  0  0  0
    6.4738    4.6820   30.1738 C   0  0  0  0  0  0
    5.3589    4.5931   30.9953 C   0  0  0  0  0  0
    4.0841    4.3422   30.4257 C   0  0  0  0  0  0
    2.9053    4.2228   31.1995 C   0  0  0  0  0  0
   -2.0625    4.0695   30.8500 N   0  0  0  0  0  0
   -2.4374    2.7812   31.0066 N   0  0  0  0  0  0
   -6.1033    1.6254   31.6697 H   0  0  0  0  0  0
   -6.1717    0.7505   30.1429 H   0  0  0  0  0  0
   -5.8432   -0.1054   31.6355 H   0  0  0  0  0  0
   -3.2983   -3.1260   31.1189 H   0  0  0  0  0  0
   -1.8877   -2.2628   32.7897 H   0  0  0  0  0  0
   -1.2368   -0.9964   31.8010 H   0  0  0  0  0  0
    0.2258   -2.6875   32.0330 H   0  0  0  0  0  0
   -2.1330   -1.4154   28.8741 H   0  0  0  0  0  0
   -1.7250   -3.0913   29.1562 H   0  0  0  0  0  0
   -3.9279   -2.1216   27.9764 H   0  0  0  0  0  0
   -5.6526    3.2344   29.9962 H   0  0  0  0  0  0
   -4.9197    5.5807   29.8216 H   0  0  0  0  0  0
   -0.1761    6.6943   30.6026 H   0  0  0  0  0  0
    0.7061    4.0812   32.4726 H   0  0  0  0  0  0
    0.2102    2.7569   31.4673 H   0  0  0  0  0  0
    0.6507    3.6388   28.7264 H   0  0  0  0  0  0
    2.6737    3.8442   27.3397 H   0  0  0  0  0  0
    7.1423    4.6316   28.1328 H   0  0  0  0  0  0
    7.4547    4.8757   30.5841 H   0  0  0  0  0  0
    5.4593    4.7570   32.0567 H   0  0  0  0  0  0
    2.9788    4.3158   32.2734 H   0  0  0  0  0  0
  1  2  1  0  0  0
  1 30  1  0  0  0
  1 31  1  0  0  0
  1 32  1  0  0  0
  2  3  2  0  0  0
  2 10  1  0  0  0
  3  4  1  0  0  0
  4  5  1  0  0  0
  5  6  1  0  0  0
  5  8  1  0  0  0
  5 33  1  0  0  0
  6  7  1  0  0  0
  6 34  1  0  0  0
  6 35  1  0  0  0
  7 36  1  0  0  0
  8  9  1  0  0  0
  8 37  1  0  0  0
  8 38  1  0  0  0
  9 39  1  0  0  0
 10 11  1  0  0  0
 10 29  2  0  0  0
 11 12  2  0  0  0
 11 40  1  0  0  0
 12 13  1  0  0  0
 12 41  1  0  0  0
 13 14  2  0  0  0
 13 28  1  0  0  0
 14 15  1  0  0  0
 15 16  2  0  0  0
 15 42  1  0  0  0
 16 17  1  0  0  0
 16 28  1  0  0  0
 17 18  1  0  0  0
 17 43  1  0  0  0
 17 44  1  0  0  0
 18 19  2  0  0  0
 18 27  1  0  0  0
 19 20  1  0  0  0
 19 45  1  0  0  0
 20 21  2  0  0  0
 20 46  1  0  0  0
 21 22  1  0  0  0
 21 26  1  0  0  0
 22 23  2  0  0  0
 23 24  1  0  0  0
 23 47  1  0  0  0
 24 25  2  0  0  0
 24 48  1  0  0  0
 25 26  1  0  0  0
 25 49  1  0  0  0
 26 27  2  0  0  0
 27 50  1  0  0  0
 28 29  1  0  0  0
M  END
> <s_m_entry_id>
10214

> <s_m_entry_name>
dock_pv.283

> <s_m_Source_Path>
/home/csk/Desktop/cluster/DUD-E-result/met

> <s_m_Source_File>
dock_pv.maegz

> <i_m_Source_File_Index>
283

> <chembl_id>
CHEMBL3648226

> <chembl_pref_name>
None

> <i_lp_mmshare_version>
53161

> <i_f3d_flags>
0

> <r_lp_tautomer_probability>
1

> <s_lp_Force_Field>
OPLS_2005

> <r_lp_Energy>
29.659663

> <b_lp_Chiralities_Consistent>
1

> <s_lp_Variant>
CHEMBL3717_lig2578-1

> <s_i_glide_gridfile>
glide-grid_3lq8

> <i_i_glide_lignum>
2926

> <i_i_glide_rotatable_bonds>
9

> <r_i_docking_score>
-7.77390770139849

> <r_i_glide_ligand_efficiency>
-0.268065782806845

> <r_i_glide_ligand_efficiency_sa>
-0.823583013983701

> <r_i_glide_ligand_efficiency_ln>
-1.78002773432973

> <r_i_glide_gscore>
-7.77390770139849

> <r_i_glide_lipo>
-3.99293129045293

> <r_i_glide_hbond>
-0.313365444058699

> <r_i_glide_metal>
0

> <r_i_glide_rewards>
-1.20030594154326

> <r_i_glide_evdw>
-42.6892127990723

> <r_i_glide_ecoul>
-6.82951927185059

> <r_i_glide_erotb>
0.891583505387595

> <r_i_glide_esite>
0

> <r_i_glide_emodel>
-67.4439135468524

> <r_i_glide_energy>
-49.5187320709229

> <r_i_glide_einternal>
8.18213653564453

> <i_i_glide_confnum>
40

> <i_i_glide_posenum>
321

> <r_i_glide_eff_state_penalty>
0

> <s_user_duplicate_titles>
CHEMBL3717_lig2578

> <s_m_subgroup_title>
dock_pv

> <s_m_subgroupid>
dock_pv

> <b_m_subgroup_collapsed>
1

$$$$
CHEMBL3717_lig2608
                    3D
 Schrodinger Suite 2021-1.
 45 48  0  0  1  0            999 V2000
   -4.5523    1.5367   29.6434 C   0  0  0  0  0  0
   -5.1072    2.8526   30.2081 C   0  0  0  0  0  0
   -6.3215    3.0409   30.5555 N   0  0  0  0  0  0
   -7.1697    1.9638   30.2471 O   0  0  0  0  0  0
   -8.5295    2.3503   30.4504 C   0  0  0  0  0  0
   -9.0622    3.3836   29.4246 C   0  0  0  0  0  0
   -8.7635    4.7566   29.8080 N   0  0  0  0  0  0
   -4.1513    3.9681   30.3577 C   0  0  0  0  0  0
   -4.5608    5.3071   30.2083 C   0  0  0  0  0  0
   -3.6977    6.3563   30.2089 N   0  0  0  0  0  0
   -2.4124    6.0301   30.3515 C   0  0  0  0  0  0
   -1.3150    6.8233   30.2324 N   0  0  0  0  0  0
   -0.2252    6.0388   30.5541 N   0  0  0  0  0  0
   -0.6411    4.7681   30.7712 N   0  0  0  0  0  0
    0.3048    3.7199   31.1338 C   0  0  0  0  0  0
    1.6276    3.7915   30.3896 C   0  0  0  0  0  0
    1.6449    3.6002   29.0091 C   0  0  0  0  0  0
    2.8177    3.7681   28.2837 C   0  0  0  0  0  0
    4.0122    4.1312   28.9481 C   0  0  0  0  0  0
    5.1279    4.3570   28.2080 N   0  0  0  0  0  0
    6.2851    4.6312   28.8493 C   0  0  0  0  0  0
    6.3904    4.7567   30.2274 C   0  0  0  0  0  0
    5.2463    4.5893   30.9952 C   0  0  0  0  0  0
    4.0165    4.2653   30.3679 C   0  0  0  0  0  0
    2.8047    4.0966   31.0777 C   0  0  0  0  0  0
   -2.0125    4.6968   30.6080 C   0  0  0  0  0  0
   -2.8461    3.6464   30.6187 N   0  0  0  0  0  0
   -3.8347    1.7117   28.8414 H   0  0  0  0  0  0
   -4.0450    0.9748   30.4288 H   0  0  0  0  0  0
   -5.3250    0.8766   29.2481 H   0  0  0  0  0  0
   -8.6965    2.6739   31.4803 H   0  0  0  0  0  0
   -9.1083    1.4337   30.3351 H   0  0  0  0  0  0
  -10.1462    3.2902   29.3385 H   0  0  0  0  0  0
   -8.6460    3.1800   28.4361 H   0  0  0  0  0  0
   -9.0912    5.4089   29.0993 H   0  0  0  0  0  0
   -9.2529    4.9990   30.6576 H   0  0  0  0  0  0
   -5.5964    5.5570   30.0173 H   0  0  0  0  0  0
    0.4730    3.7914   32.2076 H   0  0  0  0  0  0
   -0.1677    2.7572   30.9527 H   0  0  0  0  0  0
    0.7314    3.3490   28.4873 H   0  0  0  0  0  0
    2.8133    3.6430   27.2117 H   0  0  0  0  0  0
    7.1521    4.7568   28.2189 H   0  0  0  0  0  0
    7.3347    5.0107   30.6849 H   0  0  0  0  0  0
    5.2897    4.7550   32.0612 H   0  0  0  0  0  0
    2.7993    4.2371   32.1492 H   0  0  0  0  0  0
  1  2  1  0  0  0
  1 28  1  0  0  0
  1 29  1  0  0  0
  1 30  1  0  0  0
  2  3  2  0  0  0
  2  8  1  0  0  0
  3  4  1  0  0  0
  4  5  1  0  0  0
  5  6  1  0  0  0
  5 31  1  0  0  0
  5 32  1  0  0  0
  6  7  1  0  0  0
  6 33  1  0  0  0
  6 34  1  0  0  0
  7 35  1  0  0  0
  7 36  1  0  0  0
  8  9  2  0  0  0
  8 27  1  0  0  0
  9 10  1  0  0  0
  9 37  1  0  0  0
 10 11  2  0  0  0
 11 12  1  0  0  0
 11 26  1  0  0  0
 12 13  2  0  0  0
 13 14  1  0  0  0
 14 15  1  0  0  0
 14 26  1  0  0  0
 15 16  1  0  0  0
 15 38  1  0  0  0
 15 39  1  0  0  0
 16 17  2  0  0  0
 16 25  1  0  0  0
 17 18  1  0  0  0
 17 40  1  0  0  0
 18 19  2  0  0  0
 18 41  1  0  0  0
 19 20  1  0  0  0
 19 24  1  0  0  0
 20 21  2  0  0  0
 21 22  1  0  0  0
 21 42  1  0  0  0
 22 23  2  0  0  0
 22 43  1  0  0  0
 23 24  1  0  0  0
 23 44  1  0  0  0
 24 25  2  0  0  0
 25 45  1  0  0  0
 26 27  2  0  0  0
M  END
> <s_m_entry_id>
10215

> <s_m_entry_name>
dock_pv.284

> <s_m_Source_Path>
/home/csk/Desktop/cluster/DUD-E-result/met

> <s_m_Source_File>
dock_pv.maegz

> <i_m_Source_File_Index>
284

> <chembl_id>
CHEMBL3648254

> <chembl_pref_name>
None

> <i_lp_mmshare_version>
53161

> <i_f3d_flags>
0

> <r_lp_tautomer_probability>
1

> <s_lp_Force_Field>
OPLS_2005

> <r_lp_Energy>
30.737322

> <b_lp_Chiralities_Consistent>
1

> <s_lp_Variant>
CHEMBL3717_lig2608-1

> <s_i_glide_gridfile>
glide-grid_3lq8

> <i_i_glide_lignum>
2960

> <i_i_glide_rotatable_bonds>
6

> <r_i_docking_score>
-7.77387188653358

> <r_i_glide_ligand_efficiency>
-0.287921180982725

> <r_i_glide_ligand_efficiency_sa>
-0.863763541999235

> <r_i_glide_ligand_efficiency_ln>
-1.80962921289054

> <r_i_glide_gscore>
-7.77387188653358

> <r_i_glide_lipo>
-2.94679321366058

> <r_i_glide_hbond>
-0.412000767465415

> <r_i_glide_metal>
0

> <r_i_glide_rewards>
-2.54258717128062

> <r_i_glide_evdw>
-39.9291915893555

> <r_i_glide_ecoul>
-4.04729223251343

> <r_i_glide_erotb>
0.731062680217818

> <r_i_glide_esite>
0

> <r_i_glide_emodel>
-61.1131861532049

> <r_i_glide_energy>
-43.9764838218689

> <r_i_glide_einternal>
1.75030672550201

> <i_i_glide_confnum>
3

> <i_i_glide_posenum>
125

> <r_i_glide_eff_state_penalty>
0

> <s_user_duplicate_titles>
CHEMBL3717_lig2608

> <s_m_subgroup_title>
dock_pv

> <s_m_subgroupid>
dock_pv

> <b_m_subgroup_collapsed>
1

$$$$
CHEMBL3717_lig3493
                    3D
 Schrodinger Suite 2021-1.
 41 44  0  0  1  0            999 V2000
   -3.2938    7.5373   30.8027 Cl  0  0  0  0  0  0
   -2.2947    3.1785   30.8050 N   0  0  0  0  0  0
   -5.3662    0.4199   29.7473 N   0  0  0  0  0  0
   -1.6324    5.4814   31.0143 N   0  0  0  0  0  0
   -7.7221    0.8750   29.5392 N   0  0  0  0  0  0
   -0.0317    3.7094   31.0822 N   0  0  0  0  0  0
   -4.5718    2.4773   30.3180 C   0  0  0  0  0  0
   -6.0167    2.5412   30.1911 C   0  0  0  0  0  0
   -3.5869    3.5745   30.6080 C   0  0  0  0  0  0
   -6.4641    1.2400   29.8032 C   0  0  0  0  0  0
   -4.2525    1.1435   30.0778 C   0  0  0  0  0  0
   -1.3629    4.1491   30.9890 C   0  0  0  0  0  0
   -3.9341    4.9306   30.6065 C   0  0  0  0  0  0
   -7.0215    3.5235   30.3291 C   0  0  0  0  0  0
   -2.9177    5.8576   30.8208 C   0  0  0  0  0  0
   -8.3438    3.1722   30.0507 C   0  0  0  0  0  0
   -8.6399    1.8665   29.6653 C   0  0  0  0  0  0
    1.0917    4.6499   31.0212 C   0  0  0  0  0  0
    2.3669    3.9900   31.6023 C   0  0  0  0  0  0
    1.3207    5.1096   29.5591 C   0  0  0  0  0  0
    2.9581    2.8891   30.6942 C   0  0  0  0  0  0
    1.8639    3.9808   28.6556 C   0  0  0  0  0  0
    3.1522    3.3732   29.2405 C   0  0  0  0  0  0
   -5.3374   -0.5589   29.4973 H   0  0  0  0  0  0
    0.1427    2.7610   30.7843 H   0  0  0  0  0  0
   -3.2943    0.6470   30.0831 H   0  0  0  0  0  0
   -4.9280    5.2832   30.4070 H   0  0  0  0  0  0
   -6.8041    4.5317   30.6350 H   0  0  0  0  0  0
   -9.1304    3.9090   30.1309 H   0  0  0  0  0  0
   -9.6602    1.5882   29.4478 H   0  0  0  0  0  0
    0.8418    5.5288   31.6183 H   0  0  0  0  0  0
    3.1245    4.7572   31.7583 H   0  0  0  0  0  0
    2.1605    3.5816   32.5940 H   0  0  0  0  0  0
    0.3978    5.5007   29.1290 H   0  0  0  0  0  0
    2.0096    5.9544   29.5626 H   0  0  0  0  0  0
    3.9118    2.5465   31.0973 H   0  0  0  0  0  0
    2.3060    2.0175   30.7035 H   0  0  0  0  0  0
    2.0546    4.3576   27.6500 H   0  0  0  0  0  0
    1.1084    3.2010   28.5422 H   0  0  0  0  0  0
    3.9481    4.1193   29.2104 H   0  0  0  0  0  0
    3.4882    2.5499   28.6086 H   0  0  0  0  0  0
  1 15  1  0  0  0
  2  9  2  0  0  0
  2 12  1  0  0  0
  3 10  1  0  0  0
  3 11  1  0  0  0
  3 24  1  0  0  0
  4 12  2  0  0  0
  4 15  1  0  0  0
  5 10  2  0  0  0
  5 17  1  0  0  0
  6 12  1  0  0  0
  6 18  1  0  0  0
  6 25  1  0  0  0
  7  8  1  0  0  0
  7  9  1  0  0  0
  7 11  2  0  0  0
  8 10  1  0  0  0
  8 14  2  0  0  0
  9 13  1  0  0  0
 11 26  1  0  0  0
 13 15  2  0  0  0
 13 27  1  0  0  0
 14 16  1  0  0  0
 14 28  1  0  0  0
 16 17  2  0  0  0
 16 29  1  0  0  0
 17 30  1  0  0  0
 18 19  1  0  0  0
 18 20  1  0  0  0
 18 31  1  0  0  0
 19 21  1  0  0  0
 19 32  1  0  0  0
 19 33  1  0  0  0
 20 22  1  0  0  0
 20 34  1  0  0  0
 20 35  1  0  0  0
 21 23  1  0  0  0
 21 36  1  0  0  0
 21 37  1  0  0  0
 22 23  1  0  0  0
 22 38  1  0  0  0
 22 39  1  0  0  0
 23 40  1  0  0  0
 23 41  1  0  0  0
M  END
> <s_m_entry_id>
10216

> <s_m_entry_name>
dock_pv.285

> <s_m_Source_Path>
/home/csk/Desktop/cluster/DUD-E-result/met

> <s_m_Source_File>
dock_pv.maegz

> <i_m_Source_File_Index>
285

> <chembl_id>
CHEMBL2006439

> <chembl_pref_name>
None

> <i_lp_mmshare_version>
53161

> <i_f3d_flags>
0

> <r_lp_tautomer_probability>
0.999998420164496

> <s_lp_Force_Field>
OPLS_2005

> <r_lp_Energy>
4.270312

> <b_lp_Chiralities_Consistent>
1

> <s_lp_Variant>
CHEMBL3717_lig3493-1

> <s_i_glide_gridfile>
glide-grid_3lq8

> <i_i_glide_lignum>
4313

> <i_i_glide_rotatable_bonds>
3

> <r_i_docking_score>
-7.77042637923035

> <r_i_glide_ligand_efficiency>
-0.337844625183928

> <r_i_glide_ligand_efficiency_sa>
-0.960785172876723

> <r_i_glide_ligand_efficiency_ln>
-1.87895955682881

> <r_i_glide_gscore>
-7.77042637923035

> <r_i_glide_lipo>
-3.540519437406

> <r_i_glide_hbond>
0

> <r_i_glide_metal>
0

> <r_i_glide_rewards>
-2.3532593256164

> <r_i_glide_evdw>
-40.3921966552734

> <r_i_glide_ecoul>
-2.54089975357056

> <r_i_glide_erotb>
0.524097179591306

> <r_i_glide_esite>
0

> <r_i_glide_emodel>
-62.6010905505675

> <r_i_glide_energy>
-42.933096408844

> <r_i_glide_einternal>
0.881618797779083

> <i_i_glide_confnum>
18

> <i_i_glide_posenum>
258

> <r_i_glide_eff_state_penalty>
0

> <s_user_duplicate_titles>
CHEMBL3717_lig3493

> <s_m_subgroup_title>
dock_pv

> <s_m_subgroupid>
dock_pv

> <b_m_subgroup_collapsed>
1

$$$$
CHEMBL3717_lig3768
                    3D
 Schrodinger Suite 2021-1.
 34 36  0  0  1  0            999 V2000
    1.2419    5.0217   32.6077 F   0  0  0  0  0  0
   -6.1026    5.2402   30.6779 O   0  0  0  0  0  0
   -3.3316    7.1571   30.6081 O   0  0  0  0  0  0
   -4.1423    2.5269   30.2412 N   0  0  0  0  0  0
   -1.4614    4.4355   30.6091 N   0  0  0  0  0  0
   -7.6695    0.3494   29.4948 N   0  0  0  0  0  0
   -3.9317    3.8776   30.4607 C   0  0  0  0  0  0
   -2.8213    4.6517   30.6087 C   0  0  0  0  0  0
   -4.8886    5.0573   30.6076 C   0  0  0  0  0  0
   -3.5961    5.9564   30.6107 C   0  0  0  0  0  0
   -5.3405    1.8346   30.0131 C   0  0  0  0  0  0
   -0.4412    5.4380   30.3398 C   0  0  0  0  0  0
    0.9156    4.7633   30.2594 C   0  0  0  0  0  0
    1.6863    4.5819   31.4105 C   0  0  0  0  0  0
   -5.3158    0.7567   29.1241 C   0  0  0  0  0  0
   -6.5437    2.1440   30.6590 C   0  0  0  0  0  0
    1.4029    4.3109   29.0283 C   0  0  0  0  0  0
    2.9289    3.9572   31.3307 C   0  0  0  0  0  0
   -6.4938    0.0449   28.8917 C   0  0  0  0  0  0
   -7.6795    1.3865   30.3690 C   0  0  0  0  0  0
    2.6490    3.6879   28.9486 C   0  0  0  0  0  0
    3.4162    3.5153   30.1005 C   0  0  0  0  0  0
   -3.3348    1.9592   30.0282 H   0  0  0  0  0  0
   -1.0998    3.4920   30.6188 H   0  0  0  0  0  0
   -0.4440    6.1872   31.1329 H   0  0  0  0  0  0
   -0.6554    5.9612   29.4080 H   0  0  0  0  0  0
   -4.4094    0.4664   28.6116 H   0  0  0  0  0  0
   -6.6056    2.9324   31.3910 H   0  0  0  0  0  0
    0.8093    4.4298   28.1350 H   0  0  0  0  0  0
    3.5062    3.8282   32.2303 H   0  0  0  0  0  0
   -6.5022   -0.7923   28.2075 H   0  0  0  0  0  0
   -8.6218    1.5984   30.8527 H   0  0  0  0  0  0
    3.0167    3.3353   27.9956 H   0  0  0  0  0  0
    4.3822    3.0354   30.0373 H   0  0  0  0  0  0
  1 14  1  0  0  0
  2  9  2  0  0  0
  3 10  2  0  0  0
  4  7  1  0  0  0
  4 11  1  0  0  0
  4 23  1  0  0  0
  5  8  1  0  0  0
  5 12  1  0  0  0
  5 24  1  0  0  0
  6 19  2  0  0  0
  6 20  1  0  0  0
  7  8  2  0  0  0
  7  9  1  0  0  0
  8 10  1  0  0  0
  9 10  1  0  0  0
 11 15  2  0  0  0
 11 16  1  0  0  0
 12 13  1  0  0  0
 12 25  1  0  0  0
 12 26  1  0  0  0
 13 14  1  0  0  0
 13 17  2  0  0  0
 14 18  2  0  0  0
 15 19  1  0  0  0
 15 27  1  0  0  0
 16 20  2  0  0  0
 16 28  1  0  0  0
 17 21  1  0  0  0
 17 29  1  0  0  0
 18 22  1  0  0  0
 18 30  1  0  0  0
 19 31  1  0  0  0
 20 32  1  0  0  0
 21 22  2  0  0  0
 21 33  1  0  0  0
 22 34  1  0  0  0
M  END
> <s_m_entry_id>
10217

> <s_m_entry_name>
dock_pv.286

> <s_m_Source_Path>
/home/csk/Desktop/cluster/DUD-E-result/met

> <s_m_Source_File>
dock_pv.maegz

> <i_m_Source_File_Index>
286

> <chembl_id>
CHEMBL1982361

> <chembl_pref_name>
None

> <i_lp_mmshare_version>
53161

> <i_f3d_flags>
0

> <r_lp_tautomer_probability>
1

> <s_lp_Force_Field>
OPLS_2005

> <r_lp_Energy>
51.940165

> <b_lp_Chiralities_Consistent>
1

> <s_lp_Variant>
CHEMBL3717_lig3768-1

> <s_i_glide_gridfile>
glide-grid_3lq8

> <i_i_glide_lignum>
4767

> <i_i_glide_rotatable_bonds>
5

> <r_i_docking_score>
-7.76211165726198

> <r_i_glide_ligand_efficiency>
-0.352823257148272

> <r_i_glide_ligand_efficiency_sa>
-0.988624642280771

> <r_i_glide_ligand_efficiency_ln>
-1.8973432189368

> <r_i_glide_gscore>
-7.76211165726198

> <r_i_glide_lipo>
-3.44072426766677

> <r_i_glide_hbond>
-0.32

> <r_i_glide_metal>
0

> <r_i_glide_rewards>
-2.79212445249558

> <r_i_glide_evdw>
-38.2932052612305

> <r_i_glide_ecoul>
-2.21204209327698

> <r_i_glide_erotb>
1.03720363995343

> <r_i_glide_esite>
0

> <r_i_glide_emodel>
-56.8012173376682

> <r_i_glide_energy>
-40.5052473545074

> <r_i_glide_einternal>
4.57951784133911

> <i_i_glide_confnum>
23

> <i_i_glide_posenum>
80

> <r_i_glide_eff_state_penalty>
0

> <s_user_duplicate_titles>
CHEMBL3717_lig3768

> <s_m_subgroup_title>
dock_pv

> <s_m_subgroupid>
dock_pv

> <b_m_subgroup_collapsed>
1

$$$$
CHEMBL3717_lig1324
                    3D
 Schrodinger Suite 2021-1.
 38 42  0  0  1  0            999 V2000
   -3.2166    3.8362   30.6079 N   0  0  0  0  0  0
   -4.5525    4.0148   30.5850 N   0  0  0  0  0  0
   -5.2039    5.2396   30.7544 C   0  0  0  0  0  0
   -4.4940    6.3570   30.9285 N   0  0  0  0  0  0
   -3.1434    6.2245   30.9010 C   0  0  0  0  0  0
   -2.4963    4.9903   30.7396 C   0  0  0  0  0  0
   -6.7370    3.7061   30.4559 N   0  0  0  0  0  0
   -6.5419    5.0568   30.7046 N   0  0  0  0  0  0
   -5.5659    3.1052   30.3749 C   0  0  0  0  0  0
   -5.3382    1.6449   30.0695 C   0  0  0  0  0  0
   -4.4027    1.1279   31.0080 O   0  0  0  0  0  0
   -2.0707   -1.6818   31.3607 C   0  0  0  0  0  0
   -2.7605   -0.4648   31.6023 C   0  0  0  0  0  0
   -3.7769   -0.0641   30.7252 C   0  0  0  0  0  0
   -4.0551   -0.9025   29.6429 C   0  0  0  0  0  0
   -3.3017   -2.0550   29.4594 C   0  0  0  0  0  0
   -2.3111   -2.4430   30.2952 N   0  0  0  0  0  0
   -1.1044   -1.9748   32.3557 C   0  0  0  0  0  0
   -1.0094   -0.9786   33.3036 C   0  0  0  0  0  0
   -2.0940    0.3569   33.0082 S   0  0  0  0  0  0
   -1.0060    4.8700   30.6793 C   0  0  0  0  0  0
   -0.2185    5.9548   30.2647 C   0  0  0  0  0  0
    1.1656    5.8453   30.2008 C   0  0  0  0  0  0
    1.7852    4.6499   30.5466 C   0  0  0  0  0  0
    1.0248    3.5592   30.9509 C   0  0  0  0  0  0
   -0.3618    3.6677   31.0080 C   0  0  0  0  0  0
    3.1315    4.5476   30.4861 F   0  0  0  0  0  0
   -2.5914    7.1439   31.0079 H   0  0  0  0  0  0
   -4.9702    1.5559   29.0456 H   0  0  0  0  0  0
   -6.2728    1.0853   30.1461 H   0  0  0  0  0  0
   -4.8301   -0.6762   28.9272 H   0  0  0  0  0  0
   -3.4915   -2.7015   28.6139 H   0  0  0  0  0  0
   -0.4940   -2.8647   32.3428 H   0  0  0  0  0  0
   -0.3384   -0.9466   34.1499 H   0  0  0  0  0  0
   -0.6670    6.8927   29.9721 H   0  0  0  0  0  0
    1.7577    6.6862   29.8753 H   0  0  0  0  0  0
    1.5083    2.6297   31.2123 H   0  0  0  0  0  0
   -0.9350    2.8086   31.3244 H   0  0  0  0  0  0
  1  2  1  0  0  0
  1  6  2  0  0  0
  2  3  1  0  0  0
  2  9  1  0  0  0
  3  4  1  0  0  0
  3  8  2  0  0  0
  4  5  2  0  0  0
  5  6  1  0  0  0
  5 28  1  0  0  0
  6 21  1  0  0  0
  7  8  1  0  0  0
  7  9  2  0  0  0
  9 10  1  0  0  0
 10 11  1  0  0  0
 10 29  1  0  0  0
 10 30  1  0  0  0
 11 14  1  0  0  0
 12 13  1  0  0  0
 12 17  2  0  0  0
 12 18  1  0  0  0
 13 14  2  0  0  0
 13 20  1  0  0  0
 14 15  1  0  0  0
 15 16  2  0  0  0
 15 31  1  0  0  0
 16 17  1  0  0  0
 16 32  1  0  0  0
 18 19  2  0  0  0
 18 33  1  0  0  0
 19 20  1  0  0  0
 19 34  1  0  0  0
 21 22  1  0  0  0
 21 26  2  0  0  0
 22 23  2  0  0  0
 22 35  1  0  0  0
 23 24  1  0  0  0
 23 36  1  0  0  0
 24 25  2  0  0  0
 24 27  1  0  0  0
 25 26  1  0  0  0
 25 37  1  0  0  0
 26 38  1  0  0  0
M  END
> <s_m_entry_id>
10218

> <s_m_entry_name>
dock_pv.287

> <s_m_Source_Path>
/home/csk/Desktop/cluster/DUD-E-result/met

> <s_m_Source_File>
dock_pv.maegz

> <i_m_Source_File_Index>
287

> <chembl_id>
CHEMBL2170964

> <chembl_pref_name>
None

> <i_lp_mmshare_version>
53161

> <i_f3d_flags>
0

> <r_lp_tautomer_probability>
1

> <s_lp_Force_Field>
OPLS_2005

> <r_lp_Energy>
22.710954

> <b_lp_Chiralities_Consistent>
1

> <s_lp_Variant>
CHEMBL3717_lig1324-1

> <s_i_glide_gridfile>
glide-grid_3lq8

> <i_i_glide_lignum>
1510

> <i_i_glide_rotatable_bonds>
4

> <r_i_docking_score>
-7.74682131211618

> <r_i_glide_ligand_efficiency>
-0.286919307856155

> <r_i_glide_ligand_efficiency_sa>
-0.860757922622825

> <r_i_glide_ligand_efficiency_ln>
-1.80333228512974

> <r_i_glide_gscore>
-7.74682131211618

> <r_i_glide_lipo>
-3.48959746849227

> <r_i_glide_hbond>
0

> <r_i_glide_metal>
0

> <r_i_glide_rewards>
-2.77226712805211

> <r_i_glide_evdw>
-44.3350448608398

> <r_i_glide_ecoul>
1.26931571960449

> <r_i_glide_erotb>
0.541398169529523

> <r_i_glide_esite>
0

> <r_i_glide_emodel>
-62.5049041237275

> <r_i_glide_energy>
-43.0657291412354

> <r_i_glide_einternal>
3.67784881591797

> <i_i_glide_confnum>
27

> <i_i_glide_posenum>
6

> <r_i_glide_eff_state_penalty>
0

> <s_user_duplicate_titles>
CHEMBL3717_lig1324

> <s_m_subgroup_title>
dock_pv

> <s_m_subgroupid>
dock_pv

> <b_m_subgroup_collapsed>
1

$$$$
CHEMBL3717_lig1023
                    3D
 Schrodinger Suite 2021-1.
 48 51  0  0  1  0            999 V2000
   -0.9668    6.3530   30.3820 C   0  0  0  0  0  0
   -2.0674    7.1811   30.2080 C   0  0  0  0  0  0
   -3.3486    6.6492   30.2775 C   0  0  0  0  0  0
   -3.4978    5.2794   30.4042 C   0  0  0  0  0  0
   -2.4240    4.4228   30.6080 C   0  0  0  0  0  0
   -1.1105    4.9758   30.6080 C   0  0  0  0  0  0
    0.1786    4.2311   30.6693 C   0  0  0  0  0  0
    0.6907    3.6207   29.5173 C   0  0  0  0  0  0
    2.0045    3.1568   29.4699 C   0  0  0  0  0  0
    2.8169    3.2468   30.5969 C   0  0  0  0  0  0
    2.3264    3.8435   31.7559 C   0  0  0  0  0  0
    1.0282    4.3539   31.7787 C   0  0  0  0  0  0
    2.4959    2.6338   28.3246 F   0  0  0  0  0  0
   -3.0452    3.0898   30.7327 C   0  0  0  0  0  0
   -4.4700    3.2700   30.3620 C   0  0  0  0  0  0
   -4.6648    4.5827   30.2728 N   0  0  0  0  0  0
   -5.3320    2.4051   30.2091 O   0  0  0  0  0  0
   -2.4940    1.9973   31.1115 N   0  0  0  0  0  0
   -3.2280    0.8468   31.1858 N   0  0  0  0  0  0
   -2.8924   -0.1572   32.0237 C   0  0  0  0  0  0
   -3.5345   -1.5491   31.7727 C   0  0  1  0  0  0
   -3.4460   -2.0320   30.3171 C   0  0  0  0  0  0
   -4.4598   -2.8430   29.8048 C   0  0  0  0  0  0
   -4.2608   -3.5316   28.6080 C   0  0  0  0  0  0
   -3.0955   -3.3391   27.8751 C   0  0  0  0  0  0
   -2.1331   -2.4434   28.3193 C   0  0  0  0  0  0
   -2.2864   -1.8415   29.5610 C   0  0  0  0  0  0
   -2.8940   -4.0430   26.7196 O   0  0  0  0  0  0
   -2.9120   -2.6647   32.6524 C   0  0  0  0  0  0
   -2.0868   -0.0105   32.9500 O   0  0  0  0  0  0
    0.0197    6.7929   30.3288 H   0  0  0  0  0  0
   -1.9103    8.2370   30.0429 H   0  0  0  0  0  0
   -4.2216    7.2744   30.1717 H   0  0  0  0  0  0
    0.0913    3.5558   28.6231 H   0  0  0  0  0  0
    3.8309    2.8776   30.5581 H   0  0  0  0  0  0
    2.9644    3.9487   32.6202 H   0  0  0  0  0  0
    0.7060    4.8941   32.6532 H   0  0  0  0  0  0
   -5.5563    4.9921   30.0348 H   0  0  0  0  0  0
   -4.0306    0.7960   30.5713 H   0  0  0  0  0  0
   -4.5870   -1.4438   32.0417 H   0  0  0  0  0  0
   -5.3477   -3.0437   30.3856 H   0  0  0  0  0  0
   -4.9904   -4.2489   28.2744 H   0  0  0  0  0  0
   -1.2616   -2.2468   27.7206 H   0  0  0  0  0  0
   -1.4814   -1.2430   29.9495 H   0  0  0  0  0  0
   -2.1724   -4.6850   26.8058 H   0  0  0  0  0  0
   -1.8751   -2.8430   32.3627 H   0  0  0  0  0  0
   -2.8941   -2.4431   33.7140 H   0  0  0  0  0  0
   -3.4554   -3.6037   32.5364 H   0  0  0  0  0  0
  1  2  1  0  0  0
  1  6  2  0  0  0
  1 31  1  0  0  0
  2  3  2  0  0  0
  2 32  1  0  0  0
  3  4  1  0  0  0
  3 33  1  0  0  0
  4  5  2  0  0  0
  4 16  1  0  0  0
  5  6  1  0  0  0
  5 14  1  0  0  0
  6  7  1  0  0  0
  7  8  2  0  0  0
  7 12  1  0  0  0
  8  9  1  0  0  0
  8 34  1  0  0  0
  9 10  2  0  0  0
  9 13  1  0  0  0
 10 11  1  0  0  0
 10 35  1  0  0  0
 11 12  2  0  0  0
 11 36  1  0  0  0
 12 37  1  0  0  0
 14 15  1  0  0  0
 14 18  2  0  0  0
 15 16  1  0  0  0
 15 17  2  0  0  0
 16 38  1  0  0  0
 18 19  1  0  0  0
 19 20  1  0  0  0
 19 39  1  0  0  0
 20 21  1  0  0  0
 20 30  2  0  0  0
 21 22  1  0  0  0
 21 29  1  0  0  0
 21 40  1  0  0  0
 22 23  2  0  0  0
 22 27  1  0  0  0
 23 24  1  0  0  0
 23 41  1  0  0  0
 24 25  2  0  0  0
 24 42  1  0  0  0
 25 26  1  0  0  0
 25 28  1  0  0  0
 26 27  2  0  0  0
 26 43  1  0  0  0
 27 44  1  0  0  0
 28 45  1  0  0  0
 29 46  1  0  0  0
 29 47  1  0  0  0
 29 48  1  0  0  0
M  END
> <s_m_entry_id>
10219

> <s_m_entry_name>
dock_pv.288

> <s_m_Source_Path>
/home/csk/Desktop/cluster/DUD-E-result/met

> <s_m_Source_File>
dock_pv.maegz

> <i_m_Source_File_Index>
288

> <chembl_id>
CHEMBL1823256

> <chembl_pref_name>
None

> <i_lp_mmshare_version>
53161

> <i_f3d_flags>
0

> <r_lp_tautomer_probability>
0.999999999997365

> <s_lp_Force_Field>
OPLS_2005

> <r_lp_Energy>
44.269769

> <b_lp_Chiralities_Consistent>
1

> <s_lp_Variant>
CHEMBL3717_lig1023-2

> <s_i_glide_gridfile>
glide-grid_3lq8

> <i_i_glide_lignum>
1138

> <i_i_glide_rotatable_bonds>
6

> <r_i_docking_score>
-7.74634873222407

> <r_i_glide_ligand_efficiency>
-0.258211624407469

> <r_i_glide_ligand_efficiency_sa>
-0.802323551864416

> <r_i_glide_ligand_efficiency_ln>
-1.76005483519091

> <r_i_glide_gscore>
-7.74634873222407

> <r_i_glide_lipo>
-3.3223695417439

> <r_i_glide_hbond>
-0.16

> <r_i_glide_metal>
0

> <r_i_glide_rewards>
-2.69940713003241

> <r_i_glide_evdw>
-36.2362327575684

> <r_i_glide_ecoul>
-2.37320423126221

> <r_i_glide_erotb>
0.60322021211999

> <r_i_glide_esite>
0

> <r_i_glide_emodel>
-42.198235535023

> <r_i_glide_energy>
-38.6094369888306

> <r_i_glide_einternal>
11.4466495513916

> <i_i_glide_confnum>
4

> <i_i_glide_posenum>
194

> <r_i_glide_eff_state_penalty>
0

> <s_user_duplicate_titles>
CHEMBL3717_lig1023

> <s_m_subgroup_title>
dock_pv

> <s_m_subgroupid>
dock_pv

> <b_m_subgroup_collapsed>
1

$$$$
CHEMBL3717_lig3848
                    3D
 Schrodinger Suite 2021-1.
 34 37  0  0  1  0            999 V2000
   -4.3581    3.6951   30.4883 C   0  0  0  0  0  0
   -4.8312    2.3736   30.4415 C   0  0  0  0  0  0
   -6.1833    2.0727   30.2994 C   0  0  0  0  0  0
   -5.2567    4.7593   30.3720 C   0  0  0  0  0  0
   -6.6230    4.4820   30.2094 C   0  0  0  0  0  0
   -7.0901    3.1313   30.1826 C   0  0  0  0  0  0
   -8.4430    3.0465   30.0048 N   0  0  0  0  0  0
   -8.8147    4.3314   29.9098 N   0  0  0  0  0  0
   -7.7997    5.2458   30.0297 C   0  0  0  0  0  0
   -2.8958    3.9701   30.6823 C   0  0  0  0  0  0
   -2.1782    5.1675   30.6081 C   0  0  0  0  0  0
   -0.8687    4.8103   30.8257 N   0  0  0  0  0  0
   -0.7819    3.5111   31.1036 N   0  0  0  0  0  0
   -2.0574    3.0004   31.0086 N   0  0  0  0  0  0
    0.3410    5.6271   30.7930 C   0  0  0  0  0  0
    1.5522    4.9201   30.1836 C   0  0  0  0  0  0
    1.5515    4.6010   28.8237 C   0  0  0  0  0  0
    2.6405    3.9521   28.2532 C   0  0  0  0  0  0
    3.7399    3.6337   29.0461 C   0  0  0  0  0  0
    3.7410    3.9249   30.4075 C   0  0  0  0  0  0
    2.6405    4.5555   30.9810 C   0  0  0  0  0  0
   -4.1371    1.5504   30.5280 H   0  0  0  0  0  0
   -6.5183    1.0459   30.2697 H   0  0  0  0  0  0
   -4.9128    5.7834   30.3935 H   0  0  0  0  0  0
   -9.7780    4.5861   29.7444 H   0  0  0  0  0  0
   -8.0029    6.3046   29.9474 H   0  0  0  0  0  0
   -2.4565    6.1841   30.3796 H   0  0  0  0  0  0
    0.5567    5.9566   31.8081 H   0  0  0  0  0  0
    0.1311    6.5264   30.2112 H   0  0  0  0  0  0
    0.7030    4.8534   28.2087 H   0  0  0  0  0  0
    2.6343    3.7085   27.2013 H   0  0  0  0  0  0
    4.6006    3.1559   28.6052 H   0  0  0  0  0  0
    4.5972    3.6606   31.0091 H   0  0  0  0  0  0
    2.6425    4.7573   32.0412 H   0  0  0  0  0  0
  1  2  1  0  0  0
  1 10  1  0  0  0
  1  4  2  0  0  0
  2  3  2  0  0  0
  2 22  1  0  0  0
  3  6  1  0  0  0
  3 23  1  0  0  0
  4 24  1  0  0  0
  4  5  1  0  0  0
  5  6  1  0  0  0
  5  9  2  0  0  0
  6  7  2  0  0  0
  7  8  1  0  0  0
  8 25  1  0  0  0
  8  9  1  0  0  0
  9 26  1  0  0  0
 10 11  2  0  0  0
 10 14  1  0  0  0
 11 12  1  0  0  0
 11 27  1  0  0  0
 12 13  1  0  0  0
 12 15  1  0  0  0
 13 14  2  0  0  0
 15 16  1  0  0  0
 15 28  1  0  0  0
 15 29  1  0  0  0
 16 17  2  0  0  0
 16 21  1  0  0  0
 17 18  1  0  0  0
 17 30  1  0  0  0
 18 19  2  0  0  0
 18 31  1  0  0  0
 19 20  1  0  0  0
 19 32  1  0  0  0
 20 21  2  0  0  0
 20 33  1  0  0  0
 21 34  1  0  0  0
M  END
> <s_m_entry_id>
10220

> <s_m_entry_name>
dock_pv.289

> <s_m_Source_Path>
/home/csk/Desktop/cluster/DUD-E-result/met

> <s_m_Source_File>
dock_pv.maegz

> <i_m_Source_File_Index>
289

> <chembl_id>
CHEMBL1682345

> <chembl_pref_name>
None

> <i_lp_mmshare_version>
53161

> <i_f3d_flags>
0

> <r_lp_tautomer_probability>
0.0196078431372549

> <s_lp_Force_Field>
OPLS_2005

> <r_lp_Energy>
26.479724

> <b_lp_Chiralities_Consistent>
1

> <s_lp_Variant>
CHEMBL3717_lig3848-2

> <s_i_glide_gridfile>
glide-grid_3lq8

> <i_i_glide_lignum>
4876

> <i_i_glide_rotatable_bonds>
3

> <r_i_docking_score>
-7.74493244358377

> <r_i_glide_ligand_efficiency>
-0.368806306837323

> <r_i_glide_ligand_efficiency_sa>
-1.01750863530271

> <r_i_glide_ligand_efficiency_ln>
-1.9149188965665

> <r_i_glide_gscore>
-7.74493244358377

> <r_i_glide_lipo>
-3.71923508090647

> <r_i_glide_hbond>
0

> <r_i_glide_metal>
0

> <r_i_glide_rewards>
-2.6367838736348

> <r_i_glide_evdw>
-34.6144905090332

> <r_i_glide_ecoul>
-2.46356654167175

> <r_i_glide_erotb>
0.711346017659921

> <r_i_glide_esite>
0

> <r_i_glide_emodel>
-54.1484451549206

> <r_i_glide_energy>
-37.078057050705

> <r_i_glide_einternal>
1.76402318477631

> <i_i_glide_confnum>
3

> <i_i_glide_posenum>
100

> <r_i_glide_eff_state_penalty>
0

> <s_user_duplicate_titles>
CHEMBL3717_lig3848,CHEMBL3717_lig3848

> <s_m_subgroup_title>
dock_pv

> <s_m_subgroupid>
dock_pv

> <b_m_subgroup_collapsed>
1

$$$$
CHEMBL3717_lig4342
                    3D
 Schrodinger Suite 2021-1.
 49 53  0  0  1  0            999 V2000
   -9.7689    1.0704   26.3443 C   0  0  0  0  0  0
   -9.7332   -0.0433   27.2328 O   0  0  0  0  0  0
   -8.6925   -0.1201   28.1346 C   0  0  0  0  0  0
   -7.9801    0.9859   28.6077 C   0  0  0  0  0  0
   -6.9264    0.9025   29.4547 N   0  0  0  0  0  0
   -6.5284   -0.3309   29.8897 C   0  0  0  0  0  0
   -5.4118   -0.4862   30.7771 C   0  0  0  0  0  0
   -4.6129    0.5699   31.2456 N   0  0  0  0  0  0
   -3.9381    1.3970   30.2503 C   0  0  0  0  0  0
   -4.0939    2.8878   30.4867 C   0  0  0  0  0  0
   -5.2375    3.5472   30.4978 N   0  0  0  0  0  0
   -4.9838    4.9070   30.5905 N   0  0  0  0  0  0
   -3.6398    5.0418   30.6096 C   0  0  0  0  0  0
   -2.7871    6.1559   30.6213 C   0  0  0  0  0  0
   -1.4083    5.9239   30.6138 C   0  0  0  0  0  0
   -0.9228    4.6121   30.6080 C   0  0  0  0  0  0
   -1.7194    3.5086   30.6112 N   0  0  0  0  0  0
   -3.0406    3.7720   30.6079 N   0  0  0  0  0  0
    0.5195    4.3303   30.5867 C   0  0  0  0  0  0
    1.1284    3.7342   29.5355 C   0  0  0  0  0  0
    2.4703    3.4276   29.4499 N   0  0  0  0  0  0
    3.0414    2.8130   28.2454 C   0  0  0  0  0  0
    3.3098    3.6336   30.5286 C   0  0  0  0  0  0
    4.4790    3.2512   30.6074 O   0  0  0  0  0  0
    2.7018    4.3427   31.6524 C   0  0  0  0  0  0
    1.3893    4.6667   31.7032 C   0  0  0  0  0  0
   -5.0916   -1.7695   31.2213 C   0  0  0  0  0  0
   -5.8263   -2.8601   30.7686 C   0  0  0  0  0  0
   -6.8777   -2.7539   29.9225 N   0  0  0  0  0  0
   -7.2293   -1.5125   29.4904 C   0  0  0  0  0  0
   -8.3283   -1.3781   28.6082 C   0  0  0  0  0  0
  -10.5213    0.8942   25.5759 H   0  0  0  0  0  0
   -8.8132    1.2138   25.8370 H   0  0  0  0  0  0
  -10.0386    1.9902   26.8638 H   0  0  0  0  0  0
   -8.2416    1.9872   28.3036 H   0  0  0  0  0  0
   -4.0381    0.3442   32.0429 H   0  0  0  0  0  0
   -2.8938    1.0887   30.2334 H   0  0  0  0  0  0
   -4.2904    1.1570   29.2449 H   0  0  0  0  0  0
   -3.1875    7.1573   30.6308 H   0  0  0  0  0  0
   -0.7175    6.7555   30.6082 H   0  0  0  0  0  0
    0.5859    3.4038   28.6587 H   0  0  0  0  0  0
    2.7569    3.3902   27.3655 H   0  0  0  0  0  0
    4.1316    2.7575   28.2546 H   0  0  0  0  0  0
    2.6546    1.8032   28.1197 H   0  0  0  0  0  0
    3.3454    4.5976   32.4790 H   0  0  0  0  0  0
    0.9911    5.1816   32.5663 H   0  0  0  0  0  0
   -4.2599   -1.9344   31.8901 H   0  0  0  0  0  0
   -5.5656   -3.8625   31.0812 H   0  0  0  0  0  0
   -8.8580   -2.2606   28.2804 H   0  0  0  0  0  0
  1  2  1  0  0  0
  1 32  1  0  0  0
  1 33  1  0  0  0
  1 34  1  0  0  0
  2  3  1  0  0  0
  3  4  2  0  0  0
  3 31  1  0  0  0
  4  5  1  0  0  0
  4 35  1  0  0  0
  5  6  2  0  0  0
  6  7  1  0  0  0
  6 30  1  0  0  0
  7  8  1  0  0  0
  7 27  2  0  0  0
  8  9  1  0  0  0
  8 36  1  0  0  0
  9 10  1  0  0  0
  9 37  1  0  0  0
  9 38  1  0  0  0
 10 11  2  0  0  0
 10 18  1  0  0  0
 11 12  1  0  0  0
 12 13  2  0  0  0
 13 14  1  0  0  0
 13 18  1  0  0  0
 14 15  2  0  0  0
 14 39  1  0  0  0
 15 16  1  0  0  0
 15 40  1  0  0  0
 16 17  2  0  0  0
 16 19  1  0  0  0
 17 18  1  0  0  0
 19 20  2  0  0  0
 19 26  1  0  0  0
 20 21  1  0  0  0
 20 41  1  0  0  0
 21 22  1  0  0  0
 21 23  1  0  0  0
 22 42  1  0  0  0
 22 43  1  0  0  0
 22 44  1  0  0  0
 23 24  2  0  0  0
 23 25  1  0  0  0
 25 26  2  0  0  0
 25 45  1  0  0  0
 26 46  1  0  0  0
 27 28  1  0  0  0
 27 47  1  0  0  0
 28 29  2  0  0  0
 28 48  1  0  0  0
 29 30  1  0  0  0
 30 31  2  0  0  0
 31 49  1  0  0  0
M  END
> <s_m_entry_id>
10221

> <s_m_entry_name>
dock_pv.290

> <s_m_Source_Path>
/home/csk/Desktop/cluster/DUD-E-result/met

> <s_m_Source_File>
dock_pv.maegz

> <i_m_Source_File_Index>
290

> <chembl_id>
CHEMBL3668167

> <chembl_pref_name>
None

> <i_lp_mmshare_version>
53161

> <i_f3d_flags>
0

> <r_lp_tautomer_probability>
1

> <s_lp_Force_Field>
OPLS_2005

> <r_lp_Energy>
42.607072

> <b_lp_Chiralities_Consistent>
1

> <s_lp_Variant>
CHEMBL3717_lig4342-1

> <s_i_glide_gridfile>
glide-grid_3lq8

> <i_i_glide_lignum>
5567

> <i_i_glide_rotatable_bonds>
5

> <r_i_docking_score>
-7.74477034743121

> <r_i_glide_ligand_efficiency>
-0.249831301530039

> <r_i_glide_ligand_efficiency_sa>
-0.784815216089876

> <r_i_glide_ligand_efficiency_ln>
-1.74668306205238

> <r_i_glide_gscore>
-7.74477034743121

> <r_i_glide_lipo>
-3.26536901700532

> <r_i_glide_hbond>
0

> <r_i_glide_metal>
0

> <r_i_glide_rewards>
-2.52294253549705

> <r_i_glide_evdw>
-48.762809753418

> <r_i_glide_ecoul>
0.146594136953354

> <r_i_glide_erotb>
0.459692572199067

> <r_i_glide_esite>
0

> <r_i_glide_emodel>
-59.5708463255169

> <r_i_glide_energy>
-48.6162156164646

> <r_i_glide_einternal>
21.150074005127

> <i_i_glide_confnum>
3

> <i_i_glide_posenum>
30

> <r_i_glide_eff_state_penalty>
0

> <s_user_duplicate_titles>
CHEMBL3717_lig4342

> <s_m_subgroup_title>
dock_pv

> <s_m_subgroupid>
dock_pv

> <b_m_subgroup_collapsed>
1

$$$$
CHEMBL3717_lig1079
                    3D
 Schrodinger Suite 2021-1.
 55 58  0  0  1  0            999 V2000
    4.2461    3.5570   28.2074 C   0  0  0  0  0  0
    5.1644    4.0402   29.1237 C   0  0  0  0  0  0
    4.7472    4.3735   30.3953 C   0  0  0  0  0  0
    3.3920    4.2882   30.7285 C   0  0  0  0  0  0
    2.4397    3.8196   29.7906 C   0  0  0  0  0  0
    2.9043    3.4332   28.5216 C   0  0  0  0  0  0
    1.9055    2.7586   27.2908 Cl  0  0  0  0  0  0
    5.6817    4.7564   31.2959 F   0  0  0  0  0  0
    2.9471    4.7494   32.3260 Cl  0  0  0  0  0  0
    0.9433    3.7227   30.1439 C   0  0  2  0  0  0
    0.4857    5.0528   30.3572 O   0  0  0  0  0  0
    0.7271    2.8912   31.4082 C   0  0  0  0  0  0
   -0.8596    5.3772   30.4226 C   0  0  0  0  0  0
   -1.1938    6.7124   30.1842 C   0  0  0  0  0  0
   -2.4617    7.1786   30.2085 N   0  0  0  0  0  0
   -3.4675    6.3021   30.4280 C   0  0  0  0  0  0
   -3.2563    4.9320   30.5770 C   0  0  0  0  0  0
   -1.9294    4.4796   30.6082 C   0  0  0  0  0  0
   -0.2042    7.6112   29.8080 N   0  0  0  0  0  0
   -4.4110    3.9906   30.5977 C   0  0  0  0  0  0
   -4.3914    2.6016   30.5755 C   0  0  0  0  0  0
   -5.6976    2.1892   30.6084 N   0  0  0  0  0  0
   -6.5505    3.2214   30.6234 N   0  0  0  0  0  0
   -5.7859    4.2875   30.6079 C   0  0  0  0  0  0
   -6.1942    0.8163   30.6919 C   0  0  0  0  0  0
   -6.9895    0.3557   29.4427 C   0  0  0  0  0  0
   -7.2340   -1.1813   29.4625 C   0  0  0  0  0  0
   -8.3903   -1.6877   28.5865 C   0  0  0  0  0  0
   -9.5513   -0.9014   28.7992 O   0  0  0  0  0  0
   -9.3804    0.4259   28.3265 C   0  0  0  0  0  0
   -8.3038    1.1476   29.1569 C   0  0  0  0  0  0
   -6.3091    0.4934   28.2081 O   0  0  0  0  0  0
    4.5967    3.2025   27.2528 H   0  0  0  0  0  0
    6.2122    4.0930   28.8640 H   0  0  0  0  0  0
    0.3775    3.2756   29.3264 H   0  0  0  0  0  0
    1.4936    2.1247   31.5423 H   0  0  0  0  0  0
    0.7398    3.5570   32.2671 H   0  0  0  0  0  0
   -0.2395    2.4160   31.4853 H   0  0  0  0  0  0
   -4.4644    6.7187   30.3889 H   0  0  0  0  0  0
   -1.7696    3.4228   30.6839 H   0  0  0  0  0  0
    0.7491    7.2821   29.7745 H   0  0  0  0  0  0
   -0.4504    8.5764   29.6089 H   0  0  0  0  0  0
   -3.5852    1.8835   30.5618 H   0  0  0  0  0  0
   -6.2247    5.2745   30.6019 H   0  0  0  0  0  0
   -5.3410    0.1563   30.8552 H   0  0  0  0  0  0
   -6.8112    0.7411   31.5886 H   0  0  0  0  0  0
   -6.3207   -1.7448   29.2593 H   0  0  0  0  0  0
   -7.4824   -1.4618   30.4869 H   0  0  0  0  0  0
   -8.0971   -1.6431   27.5378 H   0  0  0  0  0  0
   -8.6142   -2.7321   28.8053 H   0  0  0  0  0  0
   -9.1173    0.4298   27.2662 H   0  0  0  0  0  0
  -10.3318    0.9533   28.4041 H   0  0  0  0  0  0
   -8.7572    1.3833   30.1199 H   0  0  0  0  0  0
   -8.0950    2.1252   28.7197 H   0  0  0  0  0  0
   -5.7785   -0.2929   28.0244 H   0  0  0  0  0  0
  1  6  1  0  0  0
  1  2  2  0  0  0
  1 33  1  0  0  0
  2  3  1  0  0  0
  2 34  1  0  0  0
  3  8  1  0  0  0
  3  4  2  0  0  0
  4  9  1  0  0  0
  4  5  1  0  0  0
  5 10  1  0  0  0
  5  6  2  0  0  0
  6  7  1  0  0  0
 10 11  1  0  0  0
 10 12  1  0  0  0
 10 35  1  0  0  0
 11 13  1  0  0  0
 12 36  1  0  0  0
 12 37  1  0  0  0
 12 38  1  0  0  0
 13 18  1  0  0  0
 13 14  2  0  0  0
 14 19  1  0  0  0
 14 15  1  0  0  0
 15 16  2  0  0  0
 16 17  1  0  0  0
 16 39  1  0  0  0
 17 18  2  0  0  0
 17 20  1  0  0  0
 18 40  1  0  0  0
 19 41  1  0  0  0
 19 42  1  0  0  0
 20 21  2  0  0  0
 20 24  1  0  0  0
 21 22  1  0  0  0
 21 43  1  0  0  0
 22 23  1  0  0  0
 22 25  1  0  0  0
 23 24  2  0  0  0
 24 44  1  0  0  0
 25 26  1  0  0  0
 25 45  1  0  0  0
 25 46  1  0  0  0
 26 27  1  0  0  0
 26 31  1  0  0  0
 26 32  1  0  0  0
 27 28  1  0  0  0
 27 47  1  0  0  0
 27 48  1  0  0  0
 28 29  1  0  0  0
 28 49  1  0  0  0
 28 50  1  0  0  0
 29 30  1  0  0  0
 30 31  1  0  0  0
 30 51  1  0  0  0
 30 52  1  0  0  0
 31 53  1  0  0  0
 31 54  1  0  0  0
 32 55  1  0  0  0
M  END
> <s_m_entry_id>
10222

> <s_m_entry_name>
dock_pv.291

> <s_m_Source_Path>
/home/csk/Desktop/cluster/DUD-E-result/met

> <s_m_Source_File>
dock_pv.maegz

> <i_m_Source_File_Index>
291

> <chembl_id>
CHEMBL1825131

> <chembl_pref_name>
None

> <i_lp_mmshare_version>
53161

> <i_f3d_flags>
0

> <r_lp_tautomer_probability>
0.999999404453161

> <s_lp_Force_Field>
OPLS_2005

> <r_lp_Energy>
24.611968

> <b_lp_Chiralities_Consistent>
1

> <s_lp_Variant>
CHEMBL3717_lig1079-1

> <s_i_glide_gridfile>
glide-grid_3lq8

> <i_i_glide_lignum>
1223

> <i_i_glide_rotatable_bonds>
7

> <r_i_docking_score>
-7.73938783151138

> <r_i_glide_ligand_efficiency>
-0.241855869734731

> <r_i_glide_ligand_efficiency_sa>
-0.767844523196142

> <r_i_glide_ligand_efficiency_ln>
-1.73305990321982

> <r_i_glide_gscore>
-7.73938783151138

> <r_i_glide_lipo>
-4.04110398382955

> <r_i_glide_hbond>
-0.755934052045076

> <r_i_glide_metal>
0

> <r_i_glide_rewards>
-0.434591415318493

> <r_i_glide_evdw>
-31.5369319915771

> <r_i_glide_ecoul>
-8.65757179260254

> <r_i_glide_erotb>
0.367723988150979

> <r_i_glide_esite>
0

> <r_i_glide_emodel>
-50.8549724114841

> <r_i_glide_energy>
-40.1945037841797

> <r_i_glide_einternal>
6.56295013427734

> <i_i_glide_confnum>
8

> <i_i_glide_posenum>
155

> <r_i_glide_eff_state_penalty>
0

> <s_user_duplicate_titles>
CHEMBL3717_lig1079

> <s_m_subgroup_title>
dock_pv

> <s_m_subgroupid>
dock_pv

> <b_m_subgroup_collapsed>
1

$$$$
CHEMBL3717_lig744
                    3D
 Schrodinger Suite 2021-1.
 40 43  0  0  1  0            999 V2000
    3.1223    3.5709   29.7129 S   0  0  0  0  0  0
    2.7074    2.7427   30.8481 O   0  0  0  0  0  0
    4.5400    3.8309   29.4527 O   0  0  0  0  0  0
   -2.1158    3.6141   31.1004 C   0  0  0  0  0  0
   -3.1255    6.4980   30.6081 C   0  0  0  0  0  0
   -4.2700    5.7946   30.6142 C   0  0  0  0  0  0
   -4.4963    4.3491   30.4586 C   0  0  0  0  0  0
   -3.5096    3.3596   30.6081 C   0  0  0  0  0  0
   -3.8974    2.0119   30.4959 C   0  0  0  0  0  0
   -5.2332    1.6759   30.2551 C   0  0  0  0  0  0
   -6.1463    2.7264   30.1277 C   0  0  0  0  0  0
   -5.7945    4.0335   30.2085 N   0  0  0  0  0  0
   -1.2644    4.7521   30.6454 C   0  0  0  0  0  0
   -1.7268    6.0629   30.4236 C   0  0  0  0  0  0
   -0.8068    7.0229   29.9874 C   0  0  0  0  0  0
    0.5369    6.7039   29.8084 C   0  0  0  0  0  0
    1.0058    5.4158   30.0679 C   0  0  0  0  0  0
    0.0990    4.4461   30.4901 C   0  0  0  0  0  0
   -1.5959    2.7508   31.8080 O   0  0  0  0  0  0
    2.3726    5.1571   29.8912 N   0  0  0  0  0  0
    2.3196    2.9557   28.1327 C   0  0  0  0  0  0
   -5.6633    0.2463   30.1814 C   0  0  0  0  0  0
   -4.8395   -0.8173   29.8078 C   0  0  0  0  0  0
   -5.6331   -2.3569   29.8320 S   0  0  0  0  0  0
   -7.0974   -1.5984   30.3520 C   0  0  0  0  0  0
   -6.9534   -0.2246   30.4923 C   0  0  0  0  0  0
   -3.2346    7.5568   30.7841 H   0  0  0  0  0  0
   -5.1733    6.3695   30.7739 H   0  0  0  0  0  0
   -3.1778    1.2178   30.6434 H   0  0  0  0  0  0
   -7.1927    2.5369   29.9383 H   0  0  0  0  0  0
   -1.1257    8.0371   29.7924 H   0  0  0  0  0  0
    1.2097    7.4784   29.4739 H   0  0  0  0  0  0
    0.4523    3.4451   30.6818 H   0  0  0  0  0  0
    2.9454    5.9261   29.5835 H   0  0  0  0  0  0
    2.8073    2.0373   27.8139 H   0  0  0  0  0  0
    2.4300    3.7227   27.3713 H   0  0  0  0  0  0
    1.2654    2.7731   28.3256 H   0  0  0  0  0  0
   -3.8059   -0.7744   29.4976 H   0  0  0  0  0  0
   -7.9807   -2.1938   30.5294 H   0  0  0  0  0  0
   -7.7608    0.4146   30.8191 H   0  0  0  0  0  0
  1  2  2  0  0  0
  1  3  2  0  0  0
  1 20  1  0  0  0
  1 21  1  0  0  0
  4 19  2  0  0  0
  4  8  1  0  0  0
  4 13  1  0  0  0
  5  6  2  0  0  0
  5 14  1  0  0  0
  5 27  1  0  0  0
  6  7  1  0  0  0
  6 28  1  0  0  0
  7  8  2  0  0  0
  7 12  1  0  0  0
  8  9  1  0  0  0
  9 10  2  0  0  0
  9 29  1  0  0  0
 10 22  1  0  0  0
 10 11  1  0  0  0
 11 12  2  0  0  0
 11 30  1  0  0  0
 13 14  2  0  0  0
 13 18  1  0  0  0
 14 15  1  0  0  0
 15 16  2  0  0  0
 15 31  1  0  0  0
 16 17  1  0  0  0
 16 32  1  0  0  0
 17 18  2  0  0  0
 17 20  1  0  0  0
 18 33  1  0  0  0
 20 34  1  0  0  0
 21 35  1  0  0  0
 21 36  1  0  0  0
 21 37  1  0  0  0
 22 23  2  0  0  0
 22 26  1  0  0  0
 23 24  1  0  0  0
 23 38  1  0  0  0
 24 25  1  0  0  0
 25 26  2  0  0  0
 25 39  1  0  0  0
 26 40  1  0  0  0
M  END
> <s_m_entry_id>
10223

> <s_m_entry_name>
dock_pv.292

> <s_m_Source_Path>
/home/csk/Desktop/cluster/DUD-E-result/met

> <s_m_Source_File>
dock_pv.maegz

> <i_m_Source_File_Index>
292

> <chembl_id>
CHEMBL1802599

> <chembl_pref_name>
None

> <i_lp_mmshare_version>
53161

> <i_f3d_flags>
0

> <r_lp_tautomer_probability>
1

> <s_lp_Force_Field>
OPLS_2005

> <r_lp_Energy>
22.569656

> <b_lp_Chiralities_Consistent>
1

> <s_lp_Variant>
CHEMBL3717_lig744-1

> <s_i_glide_gridfile>
glide-grid_3lq8

> <i_i_glide_lignum>
805

> <i_i_glide_rotatable_bonds>
3

> <r_i_docking_score>
-7.73895185441578

> <r_i_glide_ligand_efficiency>
-0.297651994400607

> <r_i_glide_ligand_efficiency_sa>
-0.881792862207755

> <r_i_glide_ligand_efficiency_ln>
-1.81746744943732

> <r_i_glide_gscore>
-7.73895185441578

> <r_i_glide_lipo>
-3.73991487287037

> <r_i_glide_hbond>
0

> <r_i_glide_metal>
0

> <r_i_glide_rewards>
-1.95142231818182

> <r_i_glide_evdw>
-45.9602355957031

> <r_i_glide_ecoul>
-0.101045273244381

> <r_i_glide_erotb>
0.265553907408222

> <r_i_glide_esite>
0

> <r_i_glide_emodel>
-63.2469971020603

> <r_i_glide_energy>
-46.0612808689475

> <r_i_glide_einternal>
0.605045974254608

> <i_i_glide_confnum>
4

> <i_i_glide_posenum>
10

> <r_i_glide_eff_state_penalty>
0

> <s_user_duplicate_titles>
CHEMBL3717_lig744

> <s_m_subgroup_title>
dock_pv

> <s_m_subgroupid>
dock_pv

> <b_m_subgroup_collapsed>
1

$$$$
CHEMBL3717_lig3843
                    3D
 Schrodinger Suite 2021-1.
 37 40  0  0  1  0            999 V2000
    3.9059    1.9563   31.4078 F   0  0  0  0  0  0
    2.9873    2.9184   31.1890 C   0  0  0  0  0  0
    2.4933    3.6446   32.2658 C   0  0  0  0  0  0
    1.4942    4.5944   32.0778 C   0  0  0  0  0  0
    0.9814    4.8173   30.8001 C   0  0  0  0  0  0
   -0.3583    5.9571   30.5943 S   0  0  0  0  0  0
   -1.8377    4.9211   30.7725 C   0  0  0  0  0  0
   -1.7559    3.4790   30.9495 C   0  0  0  0  0  0
   -2.8673    2.7140   30.8605 C   0  0  0  0  0  0
   -4.1595    3.3561   30.6043 C   0  0  0  0  0  0
   -5.3626    2.7165   30.4359 C   0  0  0  0  0  0
   -5.4771    1.2204   30.4577 C   0  0  0  0  0  0
   -6.2446    0.5489   31.4393 C   0  0  0  0  0  0
   -7.2285    1.3893   32.5964 Cl  0  0  0  0  0  0
   -6.2579   -0.8456   31.4967 C   0  0  0  0  0  0
   -5.5329   -1.5991   30.5803 C   0  0  0  0  0  0
   -4.8120   -0.9566   29.5815 C   0  0  0  0  0  0
   -4.7962    0.4360   29.5038 C   0  0  0  0  0  0
   -3.9046    1.1571   28.2097 Cl  0  0  0  0  0  0
   -6.5884    3.5221   30.2107 C   0  0  0  0  0  0
   -7.5997    2.9526   29.8080 O   0  0  0  0  0  0
   -6.4693    4.8994   30.4809 N   0  0  0  0  0  0
   -5.3179    5.4512   30.6080 C   0  0  0  0  0  0
   -4.1137    4.7596   30.6096 N   0  0  0  0  0  0
   -2.9856    5.5117   30.6559 N   0  0  0  0  0  0
    1.5285    4.1372   29.7037 C   0  0  0  0  0  0
    1.1060    4.3913   28.4480 F   0  0  0  0  0  0
    2.5229    3.1797   29.9022 C   0  0  0  0  0  0
    2.8664    3.4463   33.2578 H   0  0  0  0  0  0
    1.1056    5.1349   32.9286 H   0  0  0  0  0  0
   -0.8179    2.9851   31.1461 H   0  0  0  0  0  0
   -2.7992    1.6446   30.9945 H   0  0  0  0  0  0
   -6.8377   -1.3460   32.2587 H   0  0  0  0  0  0
   -5.5417   -2.6786   30.6310 H   0  0  0  0  0  0
   -4.2699   -1.5435   28.8530 H   0  0  0  0  0  0
   -5.2316    6.5293   30.7231 H   0  0  0  0  0  0
    2.9198    2.6325   29.0601 H   0  0  0  0  0  0
  1  2  1  0  0  0
  2  3  1  0  0  0
  2 28  2  0  0  0
  3  4  2  0  0  0
  3 29  1  0  0  0
  4  5  1  0  0  0
  4 30  1  0  0  0
  5  6  1  0  0  0
  5 26  2  0  0  0
  6  7  1  0  0  0
  7 25  2  0  0  0
  7  8  1  0  0  0
  8  9  2  0  0  0
  8 31  1  0  0  0
  9 10  1  0  0  0
  9 32  1  0  0  0
 10 11  2  0  0  0
 10 24  1  0  0  0
 11 20  1  0  0  0
 11 12  1  0  0  0
 12 13  1  0  0  0
 12 18  2  0  0  0
 13 14  1  0  0  0
 13 15  2  0  0  0
 15 16  1  0  0  0
 15 33  1  0  0  0
 16 17  2  0  0  0
 16 34  1  0  0  0
 17 18  1  0  0  0
 17 35  1  0  0  0
 18 19  1  0  0  0
 20 21  2  0  0  0
 20 22  1  0  0  0
 22 23  2  0  0  0
 23 24  1  0  0  0
 23 36  1  0  0  0
 24 25  1  0  0  0
 26 28  1  0  0  0
 26 27  1  0  0  0
 28 37  1  0  0  0
M  END
> <s_m_entry_id>
10225

> <s_m_entry_name>
dock_pv.294

> <s_m_Source_Path>
/home/csk/Desktop/cluster/DUD-E-result/met

> <s_m_Source_File>
dock_pv.maegz

> <i_m_Source_File_Index>
294

> <chembl_id>
CHEMBL119385

> <chembl_pref_name>
NEFLAMAPIMOD

> <i_lp_mmshare_version>
53161

> <i_f3d_flags>
0

> <r_lp_tautomer_probability>
1

> <s_lp_Force_Field>
OPLS_2005

> <r_lp_Energy>
36.732464

> <b_lp_Chiralities_Consistent>
1

> <s_lp_Variant>
CHEMBL3717_lig3843-1

> <s_i_glide_gridfile>
glide-grid_3lq8

> <i_i_glide_lignum>
4869

> <i_i_glide_rotatable_bonds>
3

> <r_i_docking_score>
-7.72683878705399

> <r_i_glide_ligand_efficiency>
-0.275958528109071

> <r_i_glide_ligand_efficiency_sa>
-0.83797262222028

> <r_i_glide_ligand_efficiency_ln>
-1.78358126189696

> <r_i_glide_gscore>
-7.72683878705399

> <r_i_glide_lipo>
-3.61154502546392

> <r_i_glide_hbond>
0

> <r_i_glide_metal>
0

> <r_i_glide_rewards>
-2.17653458404878

> <r_i_glide_evdw>
-42.5906600952148

> <r_i_glide_ecoul>
-0.822628498077393

> <r_i_glide_erotb>
0.314168101931062

> <r_i_glide_esite>
0

> <r_i_glide_emodel>
-57.5846306682975

> <r_i_glide_energy>
-43.4132885932922

> <r_i_glide_einternal>
5.89135122299194

> <i_i_glide_confnum>
6

> <i_i_glide_posenum>
134

> <r_i_glide_eff_state_penalty>
0

> <s_user_duplicate_titles>
CHEMBL3717_lig3843

> <s_m_subgroup_title>
dock_pv

> <s_m_subgroupid>
dock_pv

> <b_m_subgroup_collapsed>
1

$$$$
CHEMBL3717_lig735
                    3D
 Schrodinger Suite 2021-1.
 44 47  0  0  1  0            999 V2000
    3.0237    3.5735   29.9464 S   0  0  0  0  0  0
    2.6006    2.7586   31.0899 O   0  0  0  0  0  0
    4.4466    3.8497   29.7250 O   0  0  0  0  0  0
   -2.2284    3.4625   31.1168 C   0  0  0  0  0  0
   -3.3010    6.3536   30.6575 C   0  0  0  0  0  0
   -4.4265    5.6200   30.6075 C   0  0  0  0  0  0
   -4.6174    4.1665   30.4531 C   0  0  0  0  0  0
   -3.6146    3.1946   30.6080 C   0  0  0  0  0  0
   -3.9833    1.8403   30.5123 C   0  0  0  0  0  0
   -5.3135    1.4664   30.2892 C   0  0  0  0  0  0
   -6.2378    2.5069   30.1398 C   0  0  0  0  0  0
   -5.9092    3.8212   30.2087 N   0  0  0  0  0  0
   -1.3987    4.6463   30.7341 C   0  0  0  0  0  0
   -1.8823    5.9572   30.5578 C   0  0  0  0  0  0
   -0.9661    6.9552   30.2026 C   0  0  0  0  0  0
    0.3895    6.6743   30.0465 C   0  0  0  0  0  0
    0.8770    5.3862   30.2595 C   0  0  0  0  0  0
   -0.0236    4.3808   30.6090 C   0  0  0  0  0  0
   -1.6945    2.5880   31.8079 O   0  0  0  0  0  0
    2.2510    5.1570   30.0866 N   0  0  0  0  0  0
   -5.7208    0.0280   30.2696 C   0  0  0  0  0  0
   -4.8408   -0.9625   29.8089 C   0  0  0  0  0  0
   -5.2069   -2.3056   29.8154 C   0  0  0  0  0  0
   -6.4635   -2.6735   30.2837 C   0  0  0  0  0  0
   -7.3531   -1.7086   30.7459 C   0  0  0  0  0  0
   -6.9813   -0.3665   30.7398 C   0  0  0  0  0  0
    2.3260    2.8719   28.4469 C   0  0  0  0  0  0
    3.1028    2.5805   27.3930 C   0  0  0  0  0  0
   -3.4514    7.4121   30.8125 H   0  0  0  0  0  0
   -5.3480    6.1798   30.7072 H   0  0  0  0  0  0
   -3.2508    1.0620   30.6791 H   0  0  0  0  0  0
   -7.2820    2.3017   29.9550 H   0  0  0  0  0  0
   -1.2970    7.9699   30.0316 H   0  0  0  0  0  0
    1.0584    7.4738   29.7638 H   0  0  0  0  0  0
    0.3437    3.3777   30.7596 H   0  0  0  0  0  0
    2.8027    5.9272   29.7453 H   0  0  0  0  0  0
   -3.8670   -0.7018   29.4219 H   0  0  0  0  0  0
   -4.5186   -3.0580   29.4570 H   0  0  0  0  0  0
   -6.7468   -3.7159   30.2900 H   0  0  0  0  0  0
   -8.3249   -2.0006   31.1149 H   0  0  0  0  0  0
   -7.6788    0.3627   31.1235 H   0  0  0  0  0  0
    1.2614    2.6928   28.4570 H   0  0  0  0  0  0
    4.1661    2.7636   27.4080 H   0  0  0  0  0  0
    2.6810    2.1478   26.4971 H   0  0  0  0  0  0
  1  2  2  0  0  0
  1  3  2  0  0  0
  1 20  1  0  0  0
  1 27  1  0  0  0
  4 19  2  0  0  0
  4  8  1  0  0  0
  4 13  1  0  0  0
  5 14  1  0  0  0
  5  6  2  0  0  0
  5 29  1  0  0  0
  6  7  1  0  0  0
  6 30  1  0  0  0
  7  8  2  0  0  0
  7 12  1  0  0  0
  8  9  1  0  0  0
  9 10  2  0  0  0
  9 31  1  0  0  0
 10 11  1  0  0  0
 10 21  1  0  0  0
 11 12  2  0  0  0
 11 32  1  0  0  0
 13 14  2  0  0  0
 13 18  1  0  0  0
 14 15  1  0  0  0
 15 16  2  0  0  0
 15 33  1  0  0  0
 16 17  1  0  0  0
 16 34  1  0  0  0
 17 18  2  0  0  0
 17 20  1  0  0  0
 18 35  1  0  0  0
 20 36  1  0  0  0
 21 22  2  0  0  0
 21 26  1  0  0  0
 22 23  1  0  0  0
 22 37  1  0  0  0
 23 24  2  0  0  0
 23 38  1  0  0  0
 24 25  1  0  0  0
 24 39  1  0  0  0
 25 26  2  0  0  0
 25 40  1  0  0  0
 26 41  1  0  0  0
 27 28  2  0  0  0
 27 42  1  0  0  0
 28 43  1  0  0  0
 28 44  1  0  0  0
M  END
> <s_m_entry_id>
10226

> <s_m_entry_name>
dock_pv.295

> <s_m_Source_Path>
/home/csk/Desktop/cluster/DUD-E-result/met

> <s_m_Source_File>
dock_pv.maegz

> <i_m_Source_File_Index>
295

> <chembl_id>
CHEMBL1802823

> <chembl_pref_name>
None

> <i_lp_mmshare_version>
53161

> <i_f3d_flags>
0

> <r_lp_tautomer_probability>
1

> <s_lp_Force_Field>
OPLS_2005

> <r_lp_Energy>
26.262109

> <b_lp_Chiralities_Consistent>
1

> <s_lp_Variant>
CHEMBL3717_lig735-1

> <s_i_glide_gridfile>
glide-grid_3lq8

> <i_i_glide_lignum>
796

> <i_i_glide_rotatable_bonds>
4

> <r_i_docking_score>
-7.71902813321896

> <r_i_glide_ligand_efficiency>
-0.275679576186391

> <r_i_glide_ligand_efficiency_sa>
-0.837125559889128

> <r_i_glide_ligand_efficiency_ln>
-1.78177833366107

> <r_i_glide_gscore>
-7.71902813321896

> <r_i_glide_lipo>
-4.01150966602863

> <r_i_glide_hbond>
0

> <r_i_glide_metal>
0

> <r_i_glide_rewards>
-1.83798679331204

> <r_i_glide_evdw>
-45.5479125976562

> <r_i_glide_ecoul>
-0.724402844905853

> <r_i_glide_erotb>
0.516524382740404

> <r_i_glide_esite>
0

> <r_i_glide_emodel>
-63.7701246209493

> <r_i_glide_energy>
-46.2723154425621

> <r_i_glide_einternal>
0.972111701965332

> <i_i_glide_confnum>
4

> <i_i_glide_posenum>
400

> <r_i_glide_eff_state_penalty>
0

> <s_user_duplicate_titles>
CHEMBL3717_lig735

> <s_m_subgroup_title>
dock_pv

> <s_m_subgroupid>
dock_pv

> <b_m_subgroup_collapsed>
1

$$$$
CHEMBL3717_lig2342
                    3D
 Schrodinger Suite 2021-1.
 46 49  0  0  1  0            999 V2000
   -4.7060    1.0708   30.5116 C   0  0  0  0  0  0
   -6.5777    2.1039   30.4211 N   0  0  0  0  0  0
   -6.0013    0.8913   30.4108 N   0  0  0  0  0  0
   -5.6457    3.1149   30.5102 C   0  0  0  0  0  0
   -4.3883    2.4664   30.5509 C   0  0  0  0  0  0
   -3.2171    3.2389   30.6080 C   0  0  0  0  0  0
   -3.3172    4.6444   30.6234 C   0  0  0  0  0  0
   -4.5906    5.2382   30.6079 C   0  0  0  0  0  0
   -5.7736    4.5029   30.5545 C   0  0  0  0  0  0
   -3.7751   -0.0852   30.5504 C   0  0  0  0  0  0
   -2.9393   -0.3166   31.6489 C   0  0  0  0  0  0
   -2.0951   -1.4314   31.6234 C   0  0  0  0  0  0
   -2.0276   -2.2827   30.5667 N   0  0  0  0  0  0
   -2.8447   -2.0447   29.5068 C   0  0  0  0  0  0
   -3.7300   -0.9666   29.4676 C   0  0  0  0  0  0
   -2.0908    5.5392   30.6080 C   0  0  0  0  0  0
   -2.2330    6.7606   30.6062 O   0  0  0  0  0  0
   -0.8940    4.9318   30.4351 N   0  0  0  0  0  0
    0.3196    5.4505   29.7607 C   0  0  2  0  0  0
    1.5529    4.5921   30.0847 C   0  0  0  0  0  0
    2.3121    3.9455   29.0829 C   0  0  0  0  0  0
    3.4562    3.2395   29.4491 C   0  0  0  0  0  0
    3.8640    3.1006   30.7308 N   0  0  0  0  0  0
    3.1060    3.6812   31.6884 C   0  0  0  0  0  0
    1.9755    4.4360   31.4154 C   0  0  0  0  0  0
   -2.7469   -3.0060   28.3360 C   0  0  0  0  0  0
    0.6131    6.9462   29.9553 C   0  0  0  0  0  0
    1.1614    5.1571   32.7449 Cl  0  0  0  0  0  0
    1.9061    3.9571   27.4081 Cl  0  0  0  0  0  0
   -7.5822    2.1893   30.3630 H   0  0  0  0  0  0
   -2.2626    2.7347   30.6218 H   0  0  0  0  0  0
   -4.6844    6.3161   30.6131 H   0  0  0  0  0  0
   -6.7349    4.9949   30.5202 H   0  0  0  0  0  0
   -2.9538    0.3456   32.5023 H   0  0  0  0  0  0
   -1.4355   -1.6472   32.4509 H   0  0  0  0  0  0
   -4.3641   -0.8082   28.6083 H   0  0  0  0  0  0
   -0.8826    3.9348   30.5751 H   0  0  0  0  0  0
    0.1678    5.3805   28.6911 H   0  0  0  0  0  0
    4.0682    2.7571   28.7003 H   0  0  0  0  0  0
    3.4251    3.5587   32.7098 H   0  0  0  0  0  0
   -3.6982   -3.0697   27.8081 H   0  0  0  0  0  0
   -1.9921   -2.6617   27.6291 H   0  0  0  0  0  0
   -2.4936   -4.0188   28.6503 H   0  0  0  0  0  0
    1.5059    7.2482   29.4171 H   0  0  0  0  0  0
   -0.1830    7.5864   29.5761 H   0  0  0  0  0  0
    0.7423    7.1571   31.0079 H   0  0  0  0  0  0
  1  5  1  0  0  0
  1  3  2  0  0  0
  1 10  1  0  0  0
  2  4  1  0  0  0
  2  3  1  0  0  0
  2 30  1  0  0  0
  4  5  2  0  0  0
  4  9  1  0  0  0
  5  6  1  0  0  0
  6  7  2  0  0  0
  6 31  1  0  0  0
  7  8  1  0  0  0
  7 16  1  0  0  0
  8  9  2  0  0  0
  8 32  1  0  0  0
  9 33  1  0  0  0
 10 11  2  0  0  0
 10 15  1  0  0  0
 11 12  1  0  0  0
 11 34  1  0  0  0
 12 13  2  0  0  0
 12 35  1  0  0  0
 13 14  1  0  0  0
 14 15  2  0  0  0
 14 26  1  0  0  0
 15 36  1  0  0  0
 16 17  2  0  0  0
 16 18  1  0  0  0
 18 19  1  0  0  0
 18 37  1  0  0  0
 19 20  1  0  0  0
 19 27  1  0  0  0
 19 38  1  0  0  0
 20 21  2  0  0  0
 20 25  1  0  0  0
 21 22  1  0  0  0
 21 29  1  0  0  0
 22 23  2  0  0  0
 22 39  1  0  0  0
 23 24  1  0  0  0
 24 25  2  0  0  0
 24 40  1  0  0  0
 25 28  1  0  0  0
 26 41  1  0  0  0
 26 42  1  0  0  0
 26 43  1  0  0  0
 27 44  1  0  0  0
 27 45  1  0  0  0
 27 46  1  0  0  0
M  END
> <s_m_entry_id>
10227

> <s_m_entry_name>
dock_pv.296

> <s_m_Source_Path>
/home/csk/Desktop/cluster/DUD-E-result/met

> <s_m_Source_File>
dock_pv.maegz

> <i_m_Source_File_Index>
296

> <chembl_id>
CHEMBL3798257

> <chembl_pref_name>
None

> <i_lp_mmshare_version>
53161

> <i_f3d_flags>
0

> <r_lp_tautomer_probability>
0.980392156862745

> <s_lp_Force_Field>
OPLS_2005

> <r_lp_Energy>
15.775565

> <b_lp_Chiralities_Consistent>
1

> <s_lp_Variant>
CHEMBL3717_lig2342-1

> <s_i_glide_gridfile>
glide-grid_3lq8

> <i_i_glide_lignum>
2663

> <i_i_glide_rotatable_bonds>
5

> <r_i_docking_score>
-7.71853824401379

> <r_i_glide_ligand_efficiency>
-0.266156491172889

> <r_i_glide_ligand_efficiency_sa>
-0.817717065178143

> <r_i_glide_ligand_efficiency_ln>
-1.76734953263693

> <r_i_glide_gscore>
-7.71853824401379

> <r_i_glide_lipo>
-4.23930953939311

> <r_i_glide_hbond>
0

> <r_i_glide_metal>
0

> <r_i_glide_rewards>
-1.43851157368782

> <r_i_glide_evdw>
-43.2252044677734

> <r_i_glide_ecoul>
-2.10836911201477

> <r_i_glide_erotb>
0.436798459258024

> <r_i_glide_esite>
0

> <r_i_glide_emodel>
-59.6015316975466

> <r_i_glide_energy>
-45.3335735797882

> <r_i_glide_einternal>
9.48221111297607

> <i_i_glide_confnum>
11

> <i_i_glide_posenum>
126

> <r_i_glide_eff_state_penalty>
0

> <s_user_duplicate_titles>
CHEMBL3717_lig2342

> <s_m_subgroup_title>
dock_pv

> <s_m_subgroupid>
dock_pv

> <b_m_subgroup_collapsed>
1

$$$$
CHEMBL3717_lig3657
                    3D
 Schrodinger Suite 2021-1.
 48 51  0  0  1  0            999 V2000
   -8.6907    1.3047   31.3068 O   0  0  0  0  0  0
   -7.8440    4.5591   31.4307 O   0  0  0  0  0  0
    1.5538    5.6294   30.5557 O   0  0  0  0  0  0
   -5.6832    0.6159   29.9519 N   0  0  0  0  0  0
   -4.8588    3.8154   30.2080 N   0  0  0  0  0  0
   -6.9873   -3.3864   29.8081 N   0  0  0  0  0  0
   -6.3273    1.7582   30.3956 C   0  0  0  0  0  0
   -5.9739    3.0673   30.5080 C   0  0  0  0  0  0
   -7.7118    1.9831   30.9991 C   0  0  0  0  0  0
   -7.3184    3.5068   31.0643 C   0  0  0  0  0  0
   -6.1542   -0.7040   29.8909 C   0  0  0  0  0  0
   -4.8673    5.2222   29.8275 C   0  0  0  0  0  0
   -7.4845   -1.0296   29.5955 C   0  0  0  0  0  0
   -5.2406   -1.7408   30.1031 C   0  0  0  0  0  0
   -4.0935    6.1259   30.7920 C   0  0  0  0  0  0
   -2.5800    5.9787   30.7043 C   0  0  0  0  0  0
    0.1892    5.7420   30.6084 C   0  0  0  0  0  0
   -7.8593   -2.3741   29.5724 C   0  0  0  0  0  0
   -5.6939   -3.0597   30.0557 C   0  0  0  0  0  0
   -1.9629    4.8088   31.1520 C   0  0  0  0  0  0
   -1.8006    7.0273   30.2064 C   0  0  0  0  0  0
   -0.5801    4.6908   31.1039 C   0  0  0  0  0  0
   -0.4167    6.9079   30.1526 C   0  0  0  0  0  0
    2.1394    4.7538   29.6663 C   0  0  0  0  0  0
    1.4158    4.0538   28.6891 C   0  0  0  0  0  0
    3.5217    4.5897   29.7485 C   0  0  0  0  0  0
    2.0636    3.2052   27.8078 C   0  0  0  0  0  0
    4.1758    3.7462   28.8576 C   0  0  0  0  0  0
    3.4372    3.0657   27.8915 C   0  0  0  0  0  0
   -4.6889    0.6681   29.7870 H   0  0  0  0  0  0
   -3.9934    3.3444   29.9856 H   0  0  0  0  0  0
   -4.4935    5.3650   28.8154 H   0  0  0  0  0  0
   -5.9053    5.5569   29.8083 H   0  0  0  0  0  0
   -8.2158   -0.2680   29.3760 H   0  0  0  0  0  0
   -4.2001   -1.5379   30.3087 H   0  0  0  0  0  0
   -4.3724    7.1624   30.6038 H   0  0  0  0  0  0
   -4.4198    5.9254   31.8079 H   0  0  0  0  0  0
   -8.8773   -2.6597   29.3515 H   0  0  0  0  0  0
   -5.0082   -3.8804   30.2163 H   0  0  0  0  0  0
   -2.5425    3.9906   31.5481 H   0  0  0  0  0  0
   -2.2486    7.9451   29.8631 H   0  0  0  0  0  0
   -0.1000    3.7880   31.4522 H   0  0  0  0  0  0
    0.1842    7.7204   29.7699 H   0  0  0  0  0  0
    0.3456    4.1552   28.6026 H   0  0  0  0  0  0
    4.0850    5.1265   30.4976 H   0  0  0  0  0  0
    1.5067    2.6589   27.0608 H   0  0  0  0  0  0
    5.2465    3.6147   28.9172 H   0  0  0  0  0  0
    3.9061    2.3914   27.1952 H   0  0  0  0  0  0
  1  9  2  0  0  0
  2 10  2  0  0  0
  3 17  1  0  0  0
  3 24  1  0  0  0
  4  7  1  0  0  0
  4 11  1  0  0  0
  4 30  1  0  0  0
  5  8  1  0  0  0
  5 12  1  0  0  0
  5 31  1  0  0  0
  6 18  2  0  0  0
  6 19  1  0  0  0
  7  8  2  0  0  0
  7  9  1  0  0  0
  8 10  1  0  0  0
  9 10  1  0  0  0
 11 13  2  0  0  0
 11 14  1  0  0  0
 12 15  1  0  0  0
 12 32  1  0  0  0
 12 33  1  0  0  0
 13 18  1  0  0  0
 13 34  1  0  0  0
 14 19  2  0  0  0
 14 35  1  0  0  0
 15 16  1  0  0  0
 15 36  1  0  0  0
 15 37  1  0  0  0
 16 20  2  0  0  0
 16 21  1  0  0  0
 17 22  2  0  0  0
 17 23  1  0  0  0
 18 38  1  0  0  0
 19 39  1  0  0  0
 20 22  1  0  0  0
 20 40  1  0  0  0
 21 23  2  0  0  0
 21 41  1  0  0  0
 22 42  1  0  0  0
 23 43  1  0  0  0
 24 25  2  0  0  0
 24 26  1  0  0  0
 25 27  1  0  0  0
 25 44  1  0  0  0
 26 28  2  0  0  0
 26 45  1  0  0  0
 27 29  2  0  0  0
 27 46  1  0  0  0
 28 29  1  0  0  0
 28 47  1  0  0  0
 29 48  1  0  0  0
M  END
> <s_m_entry_id>
10228

> <s_m_entry_name>
dock_pv.297

> <s_m_Source_Path>
/home/csk/Desktop/cluster/DUD-E-result/met

> <s_m_Source_File>
dock_pv.maegz

> <i_m_Source_File_Index>
297

> <chembl_id>
CHEMBL1999321

> <chembl_pref_name>
None

> <i_lp_mmshare_version>
53161

> <i_f3d_flags>
0

> <r_lp_tautomer_probability>
1

> <s_lp_Force_Field>
OPLS_2005

> <r_lp_Energy>
55.928115

> <b_lp_Chiralities_Consistent>
1

> <s_lp_Variant>
CHEMBL3717_lig3657-1

> <s_i_glide_gridfile>
glide-grid_3lq8

> <i_i_glide_lignum>
4589

> <i_i_glide_rotatable_bonds>
8

> <r_i_docking_score>
-7.71751638709955

> <r_i_glide_ligand_efficiency>
-0.266121254727571

> <r_i_glide_ligand_efficiency_sa>
-0.817608807654434

> <r_i_glide_ligand_efficiency_ln>
-1.76711555331562

> <r_i_glide_gscore>
-7.71751638709955

> <r_i_glide_lipo>
-4.6964597314967

> <r_i_glide_hbond>
0

> <r_i_glide_metal>
0

> <r_i_glide_rewards>
-1.58771701758558

> <r_i_glide_evdw>
-42.0568580627441

> <r_i_glide_ecoul>
-2.52093839645386

> <r_i_glide_erotb>
1.04764402458803

> <r_i_glide_esite>
0

> <r_i_glide_emodel>
-63.5780018999736

> <r_i_glide_energy>
-44.577796459198

> <r_i_glide_einternal>
4.37054061889648

> <i_i_glide_confnum>
24

> <i_i_glide_posenum>
35

> <r_i_glide_eff_state_penalty>
0

> <s_user_duplicate_titles>
CHEMBL3717_lig3657

> <s_m_subgroup_title>
dock_pv

> <s_m_subgroupid>
dock_pv

> <b_m_subgroup_collapsed>
1

$$$$
CHEMBL3717_lig2570
                    3D
 Schrodinger Suite 2021-1.
 48 51  0  0  1  0            999 V2000
   -2.6392    0.3282   32.6855 C   0  0  0  0  0  0
   -3.0442    0.0490   31.2232 C   0  0  0  0  0  0
   -3.9626    1.1229   30.5516 C   0  0  0  0  0  0
   -5.0190    0.8459   29.8728 N   0  0  0  0  0  0
   -5.4306   -0.4394   29.8150 N   0  0  0  0  0  0
   -6.5569   -0.8103   29.1843 C   0  0  0  0  0  0
   -7.2929   -0.0772   28.5266 O   0  0  0  0  0  0
   -6.8658   -2.0841   29.4077 N   0  0  0  0  0  0
   -3.5537    2.5578   30.6084 C   0  0  0  0  0  0
   -4.4709    3.6034   30.3824 C   0  0  0  0  0  0
   -4.0483    4.9352   30.3548 C   0  0  0  0  0  0
   -2.6832    5.1948   30.5398 C   0  0  0  0  0  0
   -1.9700    6.3428   30.4482 N   0  0  0  0  0  0
   -0.7248    5.9573   30.6430 C   0  0  0  0  0  0
   -0.5891    4.6138   30.9960 C   0  0  0  0  0  0
    0.6008    3.7799   31.4528 C   0  0  0  0  0  0
    1.8983    3.9838   30.6790 C   0  0  0  0  0  0
    3.0785    4.2326   31.3874 C   0  0  0  0  0  0
    4.2843    4.3529   30.6828 C   0  0  0  0  0  0
    5.6547    4.5865   31.0079 C   0  0  0  0  0  0
    6.4092    4.6031   29.9544 N   0  0  0  0  0  0
    5.6011    4.3882   28.9071 N   0  0  0  0  0  0
    6.1769    4.3575   27.5851 C   0  0  0  0  0  0
    4.2795    4.2179   29.2794 C   0  0  0  0  0  0
    3.1100    3.9553   28.5584 C   0  0  0  0  0  0
    1.9288    3.8371   29.2882 C   0  0  0  0  0  0
    0.7911    3.5580   28.6186 F   0  0  0  0  0  0
   -1.8541    4.0933   30.8104 N   0  0  0  0  0  0
   -2.2338    2.8018   30.8555 N   0  0  0  0  0  0
   -1.9951   -0.4699   33.0530 H   0  0  0  0  0  0
   -2.0877    1.2576   32.8273 H   0  0  0  0  0  0
   -3.5122    0.3500   33.3358 H   0  0  0  0  0  0
   -3.4987   -0.9394   31.2175 H   0  0  0  0  0  0
   -2.1588   -0.0881   30.6082 H   0  0  0  0  0  0
   -4.8719   -1.1056   30.3199 H   0  0  0  0  0  0
   -7.7105   -2.4471   28.9964 H   0  0  0  0  0  0
   -6.2253   -2.7095   29.8721 H   0  0  0  0  0  0
   -5.5168    3.3872   30.2082 H   0  0  0  0  0  0
   -4.7449    5.7373   30.1579 H   0  0  0  0  0  0
    0.0854    6.6728   30.6077 H   0  0  0  0  0  0
    0.7808    3.9781   32.5094 H   0  0  0  0  0  0
    0.3794    2.7153   31.4056 H   0  0  0  0  0  0
    3.0646    4.3244   32.4623 H   0  0  0  0  0  0
    6.0952    4.7572   31.9736 H   0  0  0  0  0  0
    5.5705    3.6742   27.0080 H   0  0  0  0  0  0
    6.1447    5.3537   27.1455 H   0  0  0  0  0  0
    7.2058    3.9923   27.6149 H   0  0  0  0  0  0
    3.1032    3.8224   27.4879 H   0  0  0  0  0  0
  1  2  1  0  0  0
  1 30  1  0  0  0
  1 31  1  0  0  0
  1 32  1  0  0  0
  2  3  1  0  0  0
  2 33  1  0  0  0
  2 34  1  0  0  0
  3  4  2  0  0  0
  3  9  1  0  0  0
  4  5  1  0  0  0
  5  6  1  0  0  0
  5 35  1  0  0  0
  6  7  2  0  0  0
  6  8  1  0  0  0
  8 36  1  0  0  0
  8 37  1  0  0  0
  9 10  1  0  0  0
  9 29  2  0  0  0
 10 11  2  0  0  0
 10 38  1  0  0  0
 11 12  1  0  0  0
 11 39  1  0  0  0
 12 13  2  0  0  0
 12 28  1  0  0  0
 13 14  1  0  0  0
 14 15  2  0  0  0
 14 40  1  0  0  0
 15 16  1  0  0  0
 15 28  1  0  0  0
 16 17  1  0  0  0
 16 41  1  0  0  0
 16 42  1  0  0  0
 17 18  2  0  0  0
 17 26  1  0  0  0
 18 19  1  0  0  0
 18 43  1  0  0  0
 19 20  1  0  0  0
 19 24  2  0  0  0
 20 21  2  0  0  0
 20 44  1  0  0  0
 21 22  1  0  0  0
 22 23  1  0  0  0
 22 24  1  0  0  0
 23 45  1  0  0  0
 23 46  1  0  0  0
 23 47  1  0  0  0
 24 25  1  0  0  0
 25 26  2  0  0  0
 25 48  1  0  0  0
 26 27  1  0  0  0
 28 29  1  0  0  0
M  END
> <s_m_entry_id>
10229

> <s_m_entry_name>
dock_pv.298

> <s_m_Source_Path>
/home/csk/Desktop/cluster/DUD-E-result/met

> <s_m_Source_File>
dock_pv.maegz

> <i_m_Source_File_Index>
298

> <chembl_id>
CHEMBL3674555

> <chembl_pref_name>
None

> <i_lp_mmshare_version>
53161

> <i_f3d_flags>
0

> <r_lp_tautomer_probability>
1

> <s_lp_Force_Field>
OPLS_2005

> <r_lp_Energy>
21.155101

> <b_lp_Chiralities_Consistent>
1

> <s_lp_Variant>
CHEMBL3717_lig2570-1

> <s_i_glide_gridfile>
glide-grid_3lq8

> <i_i_glide_lignum>
2918

> <i_i_glide_rotatable_bonds>
6

> <r_i_docking_score>
-7.71586194429049

> <r_i_glide_ligand_efficiency>
-0.266064204975534

> <r_i_glide_ligand_efficiency_sa>
-0.817433532741548

> <r_i_glide_ligand_efficiency_ln>
-1.7667367278654

> <r_i_glide_gscore>
-7.71586194429049

> <r_i_glide_lipo>
-3.44212360626704

> <r_i_glide_hbond>
0

> <r_i_glide_metal>
0

> <r_i_glide_rewards>
-2.67911905353334

> <r_i_glide_evdw>
-43.4133682250977

> <r_i_glide_ecoul>
-0.0686755552887917

> <r_i_glide_erotb>
0.628217033963832

> <r_i_glide_esite>
-0.0418665739057378

> <r_i_glide_emodel>
-50.7430804070665

> <r_i_glide_energy>
-43.4820437803864

> <r_i_glide_einternal>
14.7641544342041

> <i_i_glide_confnum>
13

> <i_i_glide_posenum>
129

> <r_i_glide_eff_state_penalty>
0

> <s_user_duplicate_titles>
CHEMBL3717_lig2570

> <s_m_subgroup_title>
dock_pv

> <s_m_subgroupid>
dock_pv

> <b_m_subgroup_collapsed>
1

$$$$
CHEMBL3717_lig411
                    3D
 Schrodinger Suite 2021-1.
 28 30  0  0  1  0            999 V2000
    5.8590    4.6088   30.5346 C   0  0  0  0  0  0
    6.1326    4.5983   29.1703 C   0  0  0  0  0  0
    5.2085    4.3570   28.2080 N   0  0  0  0  0  0
    4.5610    4.3570   30.9779 C   0  0  0  0  0  0
    3.6120    4.0700   29.9941 C   0  0  0  0  0  0
    3.9822    4.0184   28.6205 C   0  0  0  0  0  0
    2.8442    3.5570   27.8874 C   0  0  0  0  0  0
    1.8181    3.4423   28.7942 C   0  0  0  0  0  0
    2.2569    3.8111   30.0459 N   0  0  0  0  0  0
    1.1908    3.9907   31.3679 S   0  0  0  0  0  0
    0.0706    5.2610   30.8562 C   0  0  0  0  0  0
    0.4205    2.7570   31.4080 O   0  0  0  0  0  0
    1.9569    4.4721   32.5208 O   0  0  0  0  0  0
    0.5650    6.4181   30.2562 C   0  0  0  0  0  0
   -0.3224    7.3897   29.8080 C   0  0  0  0  0  0
   -1.6939    7.2010   29.9705 C   0  0  0  0  0  0
   -2.1924    6.0502   30.5755 C   0  0  0  0  0  0
   -1.3065    5.0694   31.0080 C   0  0  0  0  0  0
   -3.8939    5.8439   30.7732 Cl  0  0  0  0  0  0
    6.6471    4.8262   31.2407 H   0  0  0  0  0  0
    7.1397    4.7570   28.8150 H   0  0  0  0  0  0
    4.3060    4.3812   32.0240 H   0  0  0  0  0  0
    2.7567    3.3455   26.8360 H   0  0  0  0  0  0
    0.7832    3.1583   28.6463 H   0  0  0  0  0  0
    1.6281    6.5581   30.1294 H   0  0  0  0  0  0
    0.0511    8.2895   29.3398 H   0  0  0  0  0  0
   -2.3713    7.9570   29.6272 H   0  0  0  0  0  0
   -1.6905    4.1677   31.4639 H   0  0  0  0  0  0
  1  4  1  0  0  0
  1  2  2  0  0  0
  1 20  1  0  0  0
  2  3  1  0  0  0
  2 21  1  0  0  0
  3  6  2  0  0  0
  4  5  2  0  0  0
  4 22  1  0  0  0
  5  9  1  0  0  0
  5  6  1  0  0  0
  6  7  1  0  0  0
  7  8  2  0  0  0
  7 23  1  0  0  0
  8  9  1  0  0  0
  8 24  1  0  0  0
  9 10  1  0  0  0
 10 11  1  0  0  0
 10 12  2  0  0  0
 10 13  2  0  0  0
 11 14  2  0  0  0
 11 18  1  0  0  0
 14 15  1  0  0  0
 14 25  1  0  0  0
 15 16  2  0  0  0
 15 26  1  0  0  0
 16 17  1  0  0  0
 16 27  1  0  0  0
 17 18  2  0  0  0
 17 19  1  0  0  0
 18 28  1  0  0  0
M  END
> <s_m_entry_id>
10230

> <s_m_entry_name>
dock_pv.299

> <s_m_Source_Path>
/home/csk/Desktop/cluster/DUD-E-result/met

> <s_m_Source_File>
dock_pv.maegz

> <i_m_Source_File_Index>
299

> <chembl_id>
CHEMBL562958

> <chembl_pref_name>
None

> <i_lp_mmshare_version>
53161

> <i_f3d_flags>
0

> <r_lp_tautomer_probability>
1

> <s_lp_Force_Field>
OPLS_2005

> <r_lp_Energy>
3.509126

> <b_lp_Chiralities_Consistent>
1

> <s_lp_Variant>
CHEMBL3717_lig411-1

> <s_i_glide_gridfile>
glide-grid_3lq8

> <i_i_glide_lignum>
435

> <i_i_glide_rotatable_bonds>
2

> <r_i_docking_score>
-7.70863920476139

> <r_i_glide_ligand_efficiency>
-0.405717852882178

> <r_i_glide_ligand_efficiency_sa>
-1.08261818648416

> <r_i_glide_ligand_efficiency_ln>
-1.95430560479615

> <r_i_glide_gscore>
-7.70863920476139

> <r_i_glide_lipo>
-3.84167000939349

> <r_i_glide_hbond>
0

> <r_i_glide_metal>
0

> <r_i_glide_rewards>
-2.80998829112522

> <r_i_glide_evdw>
-29.4401359558105

> <r_i_glide_ecoul>
-0.0744394138455391

> <r_i_glide_erotb>
0.426191805624683

> <r_i_glide_esite>
0

> <r_i_glide_emodel>
-38.3121879754342

> <r_i_glide_energy>
-29.5145753696561

> <r_i_glide_einternal>
4.66623878479004

> <i_i_glide_confnum>
4

> <i_i_glide_posenum>
318

> <r_i_glide_eff_state_penalty>
0

> <s_user_duplicate_titles>
CHEMBL3717_lig411

> <s_m_subgroup_title>
dock_pv

> <s_m_subgroupid>
dock_pv

> <b_m_subgroup_collapsed>
1

$$$$
CHEMBL3717_lig3833
                    3D
 Schrodinger Suite 2021-1.
 38 40  0  0  1  0            999 V2000
   -5.8858    2.6809   30.3162 N   0  0  0  0  0  0
   -4.6569    2.1215   30.4542 C   0  0  0  0  0  0
   -3.4926    2.8134   30.6080 N   0  0  0  0  0  0
   -3.5835    4.1739   30.6080 C   0  0  0  0  0  0
   -4.8137    4.8279   30.4989 C   0  0  0  0  0  0
   -5.9510    4.0348   30.3581 C   0  0  0  0  0  0
   -2.4440    4.9883   30.6560 N   0  0  0  0  0  0
   -1.0504    4.7785   30.6663 C   0  0  0  0  0  0
   -0.1651    5.8033   30.2470 C   0  0  0  0  0  0
    1.2162    5.5485   30.2451 C   0  0  0  0  0  0
    1.7294    4.3273   30.6591 C   0  0  0  0  0  0
    0.8611    3.3337   31.0812 C   0  0  0  0  0  0
   -0.5143    3.5570   31.0782 C   0  0  0  0  0  0
   -0.6462    7.1683   29.8080 C   0  0  0  0  0  0
    0.3060    7.9570   29.2463 O   0  0  0  0  0  0
   -1.8020    7.5570   29.9585 O   0  0  0  0  0  0
   -4.6391    0.7257   30.3680 N   0  0  0  0  0  0
   -3.6645   -0.2166   30.7191 C   0  0  0  0  0  0
   -2.8940   -0.0941   31.8809 C   0  0  0  0  0  0
   -1.9527   -1.0717   32.2080 C   0  0  0  0  0  0
   -1.7816   -2.1779   31.3793 C   0  0  0  0  0  0
   -2.5602   -2.3150   30.2300 C   0  0  0  0  0  0
   -3.5012   -1.3387   29.9041 C   0  0  0  0  0  0
   -1.1671   -0.9319   33.3208 O   0  0  0  0  0  0
   -4.8917    5.9057   30.4902 H   0  0  0  0  0  0
   -6.9297    4.4800   30.2467 H   0  0  0  0  0  0
   -2.6600    5.9656   30.5077 H   0  0  0  0  0  0
    1.9140    6.3052   29.9260 H   0  0  0  0  0  0
    2.7956    4.1539   30.6534 H   0  0  0  0  0  0
    1.2519    2.3813   31.4079 H   0  0  0  0  0  0
   -1.1539    2.7608   31.4233 H   0  0  0  0  0  0
   -0.0603    8.8457   29.1126 H   0  0  0  0  0  0
   -5.5312    0.3270   30.1190 H   0  0  0  0  0  0
   -3.0103    0.7570   32.5294 H   0  0  0  0  0  0
   -1.0518   -2.9372   31.6187 H   0  0  0  0  0  0
   -2.4405   -3.1834   29.5968 H   0  0  0  0  0  0
   -4.0955   -1.4555   29.0081 H   0  0  0  0  0  0
   -0.4700   -1.5937   33.3530 H   0  0  0  0  0  0
  1  6  1  0  0  0
  1  2  2  0  0  0
  2 17  1  0  0  0
  2  3  1  0  0  0
  3  4  2  0  0  0
  4  7  1  0  0  0
  4  5  1  0  0  0
  5  6  2  0  0  0
  5 25  1  0  0  0
  6 26  1  0  0  0
  7  8  1  0  0  0
  7 27  1  0  0  0
  8 13  1  0  0  0
  8  9  2  0  0  0
  9 14  1  0  0  0
  9 10  1  0  0  0
 10 11  2  0  0  0
 10 28  1  0  0  0
 11 12  1  0  0  0
 11 29  1  0  0  0
 12 13  2  0  0  0
 12 30  1  0  0  0
 13 31  1  0  0  0
 14 15  1  0  0  0
 14 16  2  0  0  0
 15 32  1  0  0  0
 17 18  1  0  0  0
 17 33  1  0  0  0
 18 19  2  0  0  0
 18 23  1  0  0  0
 19 20  1  0  0  0
 19 34  1  0  0  0
 20 21  2  0  0  0
 20 24  1  0  0  0
 21 22  1  0  0  0
 21 35  1  0  0  0
 22 23  2  0  0  0
 22 36  1  0  0  0
 23 37  1  0  0  0
 24 38  1  0  0  0
M  END
> <s_m_entry_id>
10231

> <s_m_entry_name>
dock_pv.300

> <s_m_Source_Path>
/home/csk/Desktop/cluster/DUD-E-result/met

> <s_m_Source_File>
dock_pv.maegz

> <i_m_Source_File_Index>
300

> <chembl_id>
CHEMBL243088

> <chembl_pref_name>
None

> <i_lp_mmshare_version>
53161

> <i_f3d_flags>
0

> <r_lp_tautomer_probability>
0.999999624730965

> <s_lp_Force_Field>
OPLS_2005

> <r_lp_Energy>
20.655625

> <b_lp_Chiralities_Consistent>
1

> <s_lp_Variant>
CHEMBL3717_lig3833-1

> <s_i_glide_gridfile>
glide-grid_3lq8

> <i_i_glide_lignum>
4859

> <i_i_glide_rotatable_bonds>
7

> <r_i_docking_score>
-7.70533790439548

> <r_i_glide_ligand_efficiency>
-0.321055746016478

> <r_i_glide_ligand_efficiency_sa>
-0.926085022492931

> <r_i_glide_ligand_efficiency_ln>
-1.84424093543902

> <r_i_glide_gscore>
-7.70533790439548

> <r_i_glide_lipo>
-2.80790278282643

> <r_i_glide_hbond>
-0.0864769037676708

> <r_i_glide_metal>
0

> <r_i_glide_rewards>
-2.33457330018264

> <r_i_glide_evdw>
-39.830982208252

> <r_i_glide_ecoul>
-9.23181438446045

> <r_i_glide_erotb>
0.899936350462925

> <r_i_glide_esite>
0

> <r_i_glide_emodel>
-68.4501272067407

> <r_i_glide_energy>
-49.0627965927124

> <r_i_glide_einternal>
4.43065547943115

> <i_i_glide_confnum>
2

> <i_i_glide_posenum>
133

> <r_i_glide_eff_state_penalty>
0

> <s_user_duplicate_titles>
CHEMBL3717_lig3833

> <s_m_subgroup_title>
dock_pv

> <s_m_subgroupid>
dock_pv

> <b_m_subgroup_collapsed>
1

$$$$
CHEMBL3717_lig2074
                    3D
 Schrodinger Suite 2021-1.
 41 45  0  0  1  0            999 V2000
    0.6271    3.0005   31.4080 F   0  0  0  0  0  0
    0.9952    4.2681   31.3248 C   0  0  0  0  0  0
    1.3296    4.6652   32.5551 F   0  0  0  0  0  0
   -3.5197    3.5828   30.6079 C   0  0  0  0  0  0
   -4.2073    4.7844   30.4211 C   0  0  0  0  0  0
   -3.5276    6.0006   30.3492 C   0  0  0  0  0  0
   -2.1395    3.6143   30.8158 C   0  0  0  0  0  0
   -1.4570    4.7990   30.6923 N   0  0  0  0  0  0
   -2.1238    6.0009   30.4008 C   0  0  0  0  0  0
   -1.2114    6.9807   30.2080 N   0  0  0  0  0  0
    0.0287    6.4183   30.4561 N   0  0  0  0  0  0
   -0.1249    5.1557   30.7988 C   0  0  0  0  0  0
   -4.2359    2.2765   30.5721 C   0  0  0  0  0  0
    2.2339    4.2208   30.4417 C   0  0  0  0  0  0
    2.1035    4.0455   29.0629 C   0  0  0  0  0  0
    3.2234    4.0316   28.2424 C   0  0  0  0  0  0
    3.5053    4.3008   31.0161 C   0  0  0  0  0  0
    4.6579    4.3083   30.2079 C   0  0  0  0  0  0
    4.5099    4.2409   28.7929 C   0  0  0  0  0  0
    5.5780    4.3570   27.9595 N   0  0  0  0  0  0
    6.8161    4.3570   28.5077 C   0  0  0  0  0  0
    7.0556    4.3570   29.8784 C   0  0  0  0  0  0
    5.9673    4.3775   30.7415 C   0  0  0  0  0  0
   -4.2108    7.1567   30.2080 F   0  0  0  0  0  0
   -3.5484    1.1677   30.9498 O   0  0  0  0  0  0
   -4.3713    0.0512   30.8050 N   0  0  0  0  0  0
   -5.5207    0.4962   30.3473 C   0  0  0  0  0  0
   -5.5045    1.8820   30.2028 C   0  0  0  0  0  0
   -6.6376   -0.4733   30.0488 C   0  0  0  0  0  0
   -5.2830    4.7856   30.3133 H   0  0  0  0  0  0
   -1.5670    2.7199   30.9960 H   0  0  0  0  0  0
    1.1250    3.9260   28.6181 H   0  0  0  0  0  0
    3.1057    3.9083   27.1784 H   0  0  0  0  0  0
    3.6266    4.3699   32.0873 H   0  0  0  0  0  0
    7.6418    4.3780   27.8112 H   0  0  0  0  0  0
    8.0679    4.3904   30.2545 H   0  0  0  0  0  0
    6.1138    4.4362   31.8079 H   0  0  0  0  0  0
   -6.3098    2.5065   29.8486 H   0  0  0  0  0  0
   -7.5352    0.0350   29.6969 H   0  0  0  0  0  0
   -6.3508   -1.1861   29.2745 H   0  0  0  0  0  0
   -6.9194   -1.0486   30.9310 H   0  0  0  0  0  0
  1  2  1  0  0  0
  2  3  1  0  0  0
  2 12  1  0  0  0
  2 14  1  0  0  0
  4  5  1  0  0  0
  4  7  2  0  0  0
  4 13  1  0  0  0
  5  6  2  0  0  0
  5 30  1  0  0  0
  6  9  1  0  0  0
  6 24  1  0  0  0
  7  8  1  0  0  0
  7 31  1  0  0  0
  8  9  1  0  0  0
  8 12  1  0  0  0
  9 10  2  0  0  0
 10 11  1  0  0  0
 11 12  2  0  0  0
 13 25  1  0  0  0
 13 28  2  0  0  0
 14 15  2  0  0  0
 14 17  1  0  0  0
 15 16  1  0  0  0
 15 32  1  0  0  0
 16 19  2  0  0  0
 16 33  1  0  0  0
 17 18  2  0  0  0
 17 34  1  0  0  0
 18 19  1  0  0  0
 18 23  1  0  0  0
 19 20  1  0  0  0
 20 21  2  0  0  0
 21 22  1  0  0  0
 21 35  1  0  0  0
 22 23  2  0  0  0
 22 36  1  0  0  0
 23 37  1  0  0  0
 25 26  1  0  0  0
 26 27  2  0  0  0
 27 28  1  0  0  0
 27 29  1  0  0  0
 28 38  1  0  0  0
 29 39  1  0  0  0
 29 40  1  0  0  0
 29 41  1  0  0  0
M  END
> <s_m_entry_id>
10232

> <s_m_entry_name>
dock_pv.301

> <s_m_Source_Path>
/home/csk/Desktop/cluster/DUD-E-result/met

> <s_m_Source_File>
dock_pv.maegz

> <i_m_Source_File_Index>
301

> <chembl_id>
CHEMBL3414736

> <chembl_pref_name>
None

> <i_lp_mmshare_version>
53161

> <i_f3d_flags>
0

> <r_lp_tautomer_probability>
1

> <s_lp_Force_Field>
OPLS_2005

> <r_lp_Energy>
15.004914

> <b_lp_Chiralities_Consistent>
1

> <s_lp_Variant>
CHEMBL3717_lig2074-1

> <s_i_glide_gridfile>
glide-grid_3lq8

> <i_i_glide_lignum>
2370

> <i_i_glide_rotatable_bonds>
3

> <r_i_docking_score>
-7.70528181559698

> <r_i_glide_ligand_efficiency>
-0.26569937295162

> <r_i_glide_ligand_efficiency_sa>
-0.816312653177186

> <r_i_glide_ligand_efficiency_ln>
-1.7643141466835

> <r_i_glide_gscore>
-7.70528181559698

> <r_i_glide_lipo>
-3.40609367525128

> <r_i_glide_hbond>
-0.0498407439560641

> <r_i_glide_metal>
0

> <r_i_glide_rewards>
-2.63015981630787

> <r_i_glide_evdw>
-36.7820053100586

> <r_i_glide_ecoul>
-0.759618699550629

> <r_i_glide_erotb>
0.375334373057981

> <r_i_glide_esite>
-0.0414788827042273

> <r_i_glide_emodel>
-48.3413653594205

> <r_i_glide_energy>
-37.5416240096092

> <r_i_glide_einternal>
3.47301769256592

> <i_i_glide_confnum>
8

> <i_i_glide_posenum>
52

> <r_i_glide_eff_state_penalty>
0

> <s_user_duplicate_titles>
CHEMBL3717_lig2074

> <s_m_subgroup_title>
dock_pv

> <s_m_subgroupid>
dock_pv

> <b_m_subgroup_collapsed>
1

$$$$
CHEMBL3717_lig2087
                    3D
 Schrodinger Suite 2021-1.
 42 46  0  0  1  0            999 V2000
   -1.3219    8.2228   30.0147 F   0  0  0  0  0  0
   -1.2061    6.8938   30.2083 C   0  0  0  0  0  0
    0.0498    6.2962   30.2766 C   0  0  0  0  0  0
    0.2170    4.9231   30.5172 C   0  0  0  0  0  0
   -0.9395    4.1412   30.6661 C   0  0  0  0  0  0
   -2.1830    4.7251   30.6080 N   0  0  0  0  0  0
   -3.4710    4.2220   30.6079 C   0  0  0  0  0  0
   -3.7819    2.7218   30.5693 C   0  0  0  0  0  0
   -5.2146    2.2487   30.2626 C   0  0  0  0  0  0
   -6.3546    2.9879   30.6080 C   0  0  0  0  0  0
   -7.6380    2.5236   30.3360 C   0  0  0  0  0  0
   -7.8218    1.2621   29.7364 C   0  0  0  0  0  0
   -9.0918    0.8256   29.5023 N   0  0  0  0  0  0
   -9.2561   -0.4040   28.9562 C   0  0  0  0  0  0
   -8.1978   -1.2457   28.6269 C   0  0  0  0  0  0
   -6.8943   -0.8081   28.8530 C   0  0  0  0  0  0
   -6.6763    0.4740   29.4143 C   0  0  0  0  0  0
   -5.3819    0.9897   29.6752 C   0  0  0  0  0  0
   -4.3310    5.2217   30.5466 N   0  0  0  0  0  0
   -3.6546    6.4206   30.4631 N   0  0  0  0  0  0
   -2.3427    6.1067   30.4214 C   0  0  0  0  0  0
    1.5857    4.3115   30.5780 C   0  0  0  0  0  0
    2.6659    4.9106   29.9212 C   0  0  0  0  0  0
    3.9366    4.3445   29.9231 C   0  0  0  0  0  0
    4.1458    3.1573   30.6076 C   0  0  0  0  0  0
    3.1007    2.5500   31.2966 C   0  0  0  0  0  0
    1.8332    3.1279   31.2799 C   0  0  0  0  0  0
    0.9046    6.9451   30.1663 H   0  0  0  0  0  0
   -0.9208    3.0705   30.7913 H   0  0  0  0  0  0
   -3.4533    2.2363   31.4844 H   0  0  0  0  0  0
   -3.1417    2.2780   29.8082 H   0  0  0  0  0  0
   -6.2807    3.9304   31.1204 H   0  0  0  0  0  0
   -8.5013    3.1154   30.6053 H   0  0  0  0  0  0
  -10.2774   -0.7156   28.7901 H   0  0  0  0  0  0
   -8.3825   -2.2228   28.2073 H   0  0  0  0  0  0
   -6.0504   -1.4370   28.6077 H   0  0  0  0  0  0
   -4.5240    0.3794   29.4264 H   0  0  0  0  0  0
    2.5261    5.8396   29.4080 H   0  0  0  0  0  0
    4.7481    4.8244   29.3968 H   0  0  0  0  0  0
    5.1243    2.7013   30.5995 H   0  0  0  0  0  0
    3.2641    1.6197   31.8207 H   0  0  0  0  0  0
    1.0356    2.6322   31.8073 H   0  0  0  0  0  0
  1  2  1  0  0  0
  2  3  2  0  0  0
  2 21  1  0  0  0
  3  4  1  0  0  0
  3 28  1  0  0  0
  4  5  2  0  0  0
  4 22  1  0  0  0
  5  6  1  0  0  0
  5 29  1  0  0  0
  6  7  1  0  0  0
  6 21  1  0  0  0
  7  8  1  0  0  0
  7 19  2  0  0  0
  8  9  1  0  0  0
  8 30  1  0  0  0
  8 31  1  0  0  0
  9 10  2  0  0  0
  9 18  1  0  0  0
 10 11  1  0  0  0
 10 32  1  0  0  0
 11 12  2  0  0  0
 11 33  1  0  0  0
 12 13  1  0  0  0
 12 17  1  0  0  0
 13 14  2  0  0  0
 14 15  1  0  0  0
 14 34  1  0  0  0
 15 16  2  0  0  0
 15 35  1  0  0  0
 16 17  1  0  0  0
 16 36  1  0  0  0
 17 18  2  0  0  0
 18 37  1  0  0  0
 19 20  1  0  0  0
 20 21  2  0  0  0
 22 23  2  0  0  0
 22 27  1  0  0  0
 23 24  1  0  0  0
 23 38  1  0  0  0
 24 25  2  0  0  0
 24 39  1  0  0  0
 25 26  1  0  0  0
 25 40  1  0  0  0
 26 27  2  0  0  0
 26 41  1  0  0  0
 27 42  1  0  0  0
M  END
> <s_m_entry_id>
10233

> <s_m_entry_name>
dock_pv.302

> <s_m_Source_Path>
/home/csk/Desktop/cluster/DUD-E-result/met

> <s_m_Source_File>
dock_pv.maegz

> <i_m_Source_File_Index>
302

> <chembl_id>
CHEMBL3414733

> <chembl_pref_name>
None

> <i_lp_mmshare_version>
53161

> <i_f3d_flags>
0

> <r_lp_tautomer_probability>
1

> <s_lp_Force_Field>
OPLS_2005

> <r_lp_Energy>
21.087053

> <b_lp_Chiralities_Consistent>
1

> <s_lp_Variant>
CHEMBL3717_lig2087-1

> <s_i_glide_gridfile>
glide-grid_3lq8

> <i_i_glide_lignum>
2383

> <i_i_glide_rotatable_bonds>
3

> <r_i_docking_score>
-7.70332577834579

> <r_i_glide_ligand_efficiency>
-0.285308362160955

> <r_i_glide_ligand_efficiency_sa>
-0.855925085542536

> <r_i_glide_ligand_efficiency_ln>
-1.79320724194791

> <r_i_glide_gscore>
-7.70332577834579

> <r_i_glide_lipo>
-3.52137093322817

> <r_i_glide_hbond>
0

> <r_i_glide_metal>
0

> <r_i_glide_rewards>
-2.676524344376

> <r_i_glide_evdw>
-39.2757377624512

> <r_i_glide_ecoul>
0.0126646542921662

> <r_i_glide_erotb>
0.456456689237115

> <r_i_glide_esite>
0

> <r_i_glide_emodel>
-54.5055239657191

> <r_i_glide_energy>
-39.263073108159

> <r_i_glide_einternal>
2.90141987800598

> <i_i_glide_confnum>
24

> <i_i_glide_posenum>
95

> <r_i_glide_eff_state_penalty>
0

> <s_user_duplicate_titles>
CHEMBL3717_lig2087

> <s_m_subgroup_title>
dock_pv

> <s_m_subgroupid>
dock_pv

> <b_m_subgroup_collapsed>
1

$$$$
CHEMBL3717_lig3469
                    3D
 Schrodinger Suite 2021-1.
 27 30  0  0  1  0            999 V2000
   -4.8914    4.3324   30.5528 C   0  0  0  0  0  0
   -6.0201    5.1569   30.6104 C   0  0  0  0  0  0
   -7.3111    4.6528   30.4659 C   0  0  0  0  0  0
   -5.0408    2.9543   30.3524 C   0  0  0  0  0  0
   -6.3282    2.4187   30.2079 C   0  0  0  0  0  0
   -7.4708    3.2754   30.2635 C   0  0  0  0  0  0
   -8.2337    1.3241   29.9309 N   0  0  0  0  0  0
   -6.8762    1.1297   29.9851 C   0  0  0  0  0  0
   -3.5107    4.9040   30.6255 C   0  0  0  0  0  0
   -3.2703    6.1498   30.2517 N   0  0  0  0  0  0
   -2.3389    4.2345   31.0072 C   0  0  0  0  0  0
   -1.3120    5.0862   30.7061 N   0  0  0  0  0  0
   -1.9210    6.2631   30.2370 C   0  0  0  0  0  0
   -1.1987    7.3044   29.8079 N   0  0  0  0  0  0
    0.1538    7.1619   29.8081 C   0  0  0  0  0  0
    0.8185    6.0251   30.2708 C   0  0  0  0  0  0
    0.0516    4.9622   30.7436 C   0  0  0  0  0  0
   -8.6430    2.5935   30.0905 N   0  0  0  0  0  0
   -5.8967    6.2243   30.7320 H   0  0  0  0  0  0
   -8.1644    5.3148   30.4896 H   0  0  0  0  0  0
   -4.1780    2.3086   30.2886 H   0  0  0  0  0  0
   -6.4553    0.1424   29.8607 H   0  0  0  0  0  0
   -2.1785    3.2286   31.3652 H   0  0  0  0  0  0
    0.7058    8.0113   29.4319 H   0  0  0  0  0  0
    1.8968    5.9683   30.2554 H   0  0  0  0  0  0
    0.4580    4.0288   31.1055 H   0  0  0  0  0  0
   -8.9002    0.5799   29.7794 H   0  0  0  0  0  0
  1  2  1  0  0  0
  1  9  1  0  0  0
  1  4  2  0  0  0
  2  3  2  0  0  0
  2 19  1  0  0  0
  3  6  1  0  0  0
  3 20  1  0  0  0
  4 21  1  0  0  0
  4  5  1  0  0  0
  5  6  1  0  0  0
  5  8  2  0  0  0
  6 18  2  0  0  0
  7 27  1  0  0  0
  7 18  1  0  0  0
  7  8  1  0  0  0
  8 22  1  0  0  0
  9 10  1  0  0  0
  9 11  2  0  0  0
 10 13  2  0  0  0
 11 12  1  0  0  0
 11 23  1  0  0  0
 12 13  1  0  0  0
 12 17  1  0  0  0
 13 14  1  0  0  0
 14 15  2  0  0  0
 15 16  1  0  0  0
 15 24  1  0  0  0
 16 17  2  0  0  0
 16 25  1  0  0  0
 17 26  1  0  0  0
M  END
> <s_m_entry_id>
10234

> <s_m_entry_name>
dock_pv.303

> <s_m_Source_Path>
/home/csk/Desktop/cluster/DUD-E-result/met

> <s_m_Source_File>
dock_pv.maegz

> <i_m_Source_File_Index>
303

> <chembl_id>
CHEMBL1682540

> <chembl_pref_name>
None

> <i_lp_mmshare_version>
53161

> <i_f3d_flags>
0

> <r_lp_tautomer_probability>
0.0196078431372549

> <s_lp_Force_Field>
OPLS_2005

> <r_lp_Energy>
23.665613

> <b_lp_Chiralities_Consistent>
1

> <s_lp_Variant>
CHEMBL3717_lig3469-2

> <s_i_glide_gridfile>
glide-grid_3lq8

> <i_i_glide_lignum>
4285

> <i_i_glide_rotatable_bonds>
1

> <r_i_docking_score>
-7.69397158670502

> <r_i_glide_ligand_efficiency>
-0.427442865928057

> <r_i_glide_ligand_efficiency_sa>
-1.12021721131766

> <r_i_glide_ligand_efficiency_ln>
-1.97769572306009

> <r_i_glide_gscore>
-7.69397158670502

> <r_i_glide_lipo>
-2.72154050355955

> <r_i_glide_hbond>
0

> <r_i_glide_metal>
0

> <r_i_glide_rewards>
-3.40032649729176

> <r_i_glide_evdw>
-31.440299987793

> <r_i_glide_ecoul>
-2.07166862487793

> <r_i_glide_erotb>
0.310660707267627

> <r_i_glide_esite>
0

> <r_i_glide_emodel>
-47.70804574831

> <r_i_glide_energy>
-33.5119686126709

> <r_i_glide_einternal>
0.15240752696991

> <i_i_glide_confnum>
1

> <i_i_glide_posenum>
25

> <r_i_glide_eff_state_penalty>
0

> <s_user_duplicate_titles>
CHEMBL3717_lig3469,CHEMBL3717_lig3469

> <s_m_subgroup_title>
dock_pv

> <s_m_subgroupid>
dock_pv

> <b_m_subgroup_collapsed>
1

$$$$
CHEMBL3717_lig4361
                    3D
 Schrodinger Suite 2021-1.
 47 51  0  0  1  0            999 V2000
   -9.3671   -2.6899   28.6141 C   0  0  0  0  0  0
   -8.9546   -1.3348   28.4683 O   0  0  0  0  0  0
   -7.7664   -0.9287   29.0431 C   0  0  0  0  0  0
   -7.4656    0.4278   28.9512 C   0  0  0  0  0  0
   -6.2972    0.9531   29.4974 C   0  0  0  0  0  0
   -5.3711    0.1045   30.1595 C   0  0  0  0  0  0
   -4.1535    0.5783   30.7304 C   0  0  0  0  0  0
   -3.8819    1.9330   30.6426 O   0  0  0  0  0  0
   -2.6485    2.4283   31.1548 C   0  0  0  0  0  0
   -2.5827    3.9246   30.9476 C   0  0  0  0  0  0
   -3.5974    4.7665   31.0047 N   0  0  0  0  0  0
   -3.1398    6.0522   30.7731 N   0  0  0  0  0  0
   -1.8109    5.9486   30.5424 C   0  0  0  0  0  0
   -0.8353    6.8966   30.2026 C   0  0  0  0  0  0
   -1.1651    8.2000   30.1071 F   0  0  0  0  0  0
    0.4772    6.4736   29.9786 C   0  0  0  0  0  0
    0.8290    5.1277   30.0905 C   0  0  0  0  0  0
   -0.1332    4.1895   30.4504 C   0  0  0  0  0  0
   -1.4238    4.6016   30.6528 N   0  0  0  0  0  0
    2.2030    4.6735   29.8070 C   0  0  0  0  0  0
    3.3421    4.7560   30.5960 C   0  0  0  0  0  0
    4.5175    4.3252   29.9611 C   0  0  0  0  0  0
    5.9097    4.4052   30.5476 C   0  0  0  0  0  0
    4.2322    3.9110   28.6672 C   0  0  0  0  0  0
    2.5480    3.9480   28.2749 S   0  0  0  0  0  0
   -3.3032   -0.3571   31.3420 C   0  0  0  0  0  0
   -3.6721   -1.6970   31.3810 C   0  0  0  0  0  0
   -4.8285   -2.1690   30.8622 N   0  0  0  0  0  0
   -5.6694   -1.2892   30.2534 C   0  0  0  0  0  0
   -6.8723   -1.7855   29.6974 C   0  0  0  0  0  0
  -10.3022   -2.8384   28.0755 H   0  0  0  0  0  0
   -8.6364   -3.3915   28.2077 H   0  0  0  0  0  0
   -9.5413   -2.9385   29.6607 H   0  0  0  0  0  0
   -8.1607    1.0852   28.4482 H   0  0  0  0  0  0
   -6.0854    2.0085   29.4133 H   0  0  0  0  0  0
   -1.8418    1.9589   30.6071 H   0  0  0  0  0  0
   -2.4974    2.1910   32.2085 H   0  0  0  0  0  0
    1.2205    7.2019   29.6961 H   0  0  0  0  0  0
    0.0812    3.1355   30.5356 H   0  0  0  0  0  0
    3.3217    5.1472   31.5991 H   0  0  0  0  0  0
    6.6426    4.7001   29.7888 H   0  0  0  0  0  0
    6.2380    3.4426   30.9382 H   0  0  0  0  0  0
    5.9955    5.1474   31.3403 H   0  0  0  0  0  0
    4.9412    3.5566   27.9327 H   0  0  0  0  0  0
   -2.3627   -0.0718   31.7818 H   0  0  0  0  0  0
   -3.0286   -2.4344   31.8395 H   0  0  0  0  0  0
   -7.0671   -2.8437   29.7822 H   0  0  0  0  0  0
  1  2  1  0  0  0
  1 31  1  0  0  0
  1 32  1  0  0  0
  1 33  1  0  0  0
  2  3  1  0  0  0
  3  4  2  0  0  0
  3 30  1  0  0  0
  4  5  1  0  0  0
  4 34  1  0  0  0
  5  6  2  0  0  0
  5 35  1  0  0  0
  6  7  1  0  0  0
  6 29  1  0  0  0
  7  8  1  0  0  0
  7 26  2  0  0  0
  8  9  1  0  0  0
  9 10  1  0  0  0
  9 36  1  0  0  0
  9 37  1  0  0  0
 10 11  2  0  0  0
 10 19  1  0  0  0
 11 12  1  0  0  0
 12 13  2  0  0  0
 13 14  1  0  0  0
 13 19  1  0  0  0
 14 15  1  0  0  0
 14 16  2  0  0  0
 16 17  1  0  0  0
 16 38  1  0  0  0
 17 18  2  0  0  0
 17 20  1  0  0  0
 18 19  1  0  0  0
 18 39  1  0  0  0
 20 21  2  0  0  0
 20 25  1  0  0  0
 21 22  1  0  0  0
 21 40  1  0  0  0
 22 23  1  0  0  0
 22 24  2  0  0  0
 23 41  1  0  0  0
 23 42  1  0  0  0
 23 43  1  0  0  0
 24 25  1  0  0  0
 24 44  1  0  0  0
 26 27  1  0  0  0
 26 45  1  0  0  0
 27 28  2  0  0  0
 27 46  1  0  0  0
 28 29  1  0  0  0
 29 30  2  0  0  0
 30 47  1  0  0  0
M  END
> <s_m_entry_id>
10236

> <s_m_entry_name>
dock_pv.305

> <s_m_Source_Path>
/home/csk/Desktop/cluster/DUD-E-result/met

> <s_m_Source_File>
dock_pv.maegz

> <i_m_Source_File_Index>
305

> <chembl_id>
CHEMBL3668185

> <chembl_pref_name>
None

> <i_lp_mmshare_version>
53161

> <i_f3d_flags>
0

> <r_lp_tautomer_probability>
1

> <s_lp_Force_Field>
OPLS_2005

> <r_lp_Energy>
22.9994

> <b_lp_Chiralities_Consistent>
1

> <s_lp_Variant>
CHEMBL3717_lig4361-1

> <s_i_glide_gridfile>
glide-grid_3lq8

> <i_i_glide_lignum>
5586

> <i_i_glide_rotatable_bonds>
5

> <r_i_docking_score>
-7.69214854334341

> <r_i_glide_ligand_efficiency>
-0.25640495144478

> <r_i_glide_ligand_efficiency_sa>
-0.796709798913487

> <r_i_glide_ligand_efficiency_ln>
-1.74773996171887

> <r_i_glide_gscore>
-7.69214854334341

> <r_i_glide_lipo>
-3.58446331521271

> <r_i_glide_hbond>
0

> <r_i_glide_metal>
0

> <r_i_glide_rewards>
-2.47603681898276

> <r_i_glide_evdw>
-43.5481605529785

> <r_i_glide_ecoul>
0.652863204479218

> <r_i_glide_erotb>
0.447830137829103

> <r_i_glide_esite>
0

> <r_i_glide_emodel>
-60.575630675523

> <r_i_glide_energy>
-42.8952973484993

> <r_i_glide_einternal>
3.36269068717957

> <i_i_glide_confnum>
4

> <i_i_glide_posenum>
22

> <r_i_glide_eff_state_penalty>
0

> <s_user_duplicate_titles>
CHEMBL3717_lig4361

> <s_m_subgroup_title>
dock_pv

> <s_m_subgroupid>
dock_pv

> <b_m_subgroup_collapsed>
1

$$$$
CHEMBL3717_lig2604
                    3D
 Schrodinger Suite 2021-1.
 55 59  0  0  1  0            999 V2000
   -6.5037    2.9495   30.4712 C   0  0  0  0  0  0
   -5.0074    2.7372   30.2080 C   0  0  0  0  0  0
   -4.4974    1.6327   29.8139 N   0  0  0  0  0  0
   -5.4345    0.5912   29.6768 O   0  0  0  0  0  0
   -4.7447   -0.6574   29.6554 C   0  0  0  0  0  0
   -4.7584   -1.3512   31.0432 C   0  0  0  0  0  0
   -3.8800   -2.6205   31.0686 C   0  0  0  0  0  0
   -2.3634   -2.3179   31.0974 C   0  0  0  0  0  0
   -2.0110   -1.4302   32.2073 N   0  0  2  0  0  0
   -2.7767   -0.1823   32.2101 C   0  0  0  0  0  0
   -4.2945   -0.4640   32.2199 C   0  0  0  0  0  0
   -4.1471    3.9307   30.3720 C   0  0  0  0  0  0
   -4.6166    5.2470   30.2083 C   0  0  0  0  0  0
   -3.7947    6.3341   30.2081 N   0  0  0  0  0  0
   -2.4935    6.0675   30.3429 C   0  0  0  0  0  0
   -1.4218    6.8976   30.2081 N   0  0  0  0  0  0
   -0.2977    6.1483   30.5151 N   0  0  0  0  0  0
   -0.6724    4.8700   30.7584 N   0  0  0  0  0  0
    0.2936    3.8456   31.1412 C   0  0  0  0  0  0
    1.6133    3.9042   30.3916 C   0  0  0  0  0  0
    1.6242    3.7039   29.0114 C   0  0  0  0  0  0
    2.8028    3.8327   28.2872 C   0  0  0  0  0  0
    4.0061    4.1642   28.9492 C   0  0  0  0  0  0
    5.1278    4.3570   28.2080 N   0  0  0  0  0  0
    6.2869    4.6291   28.8448 C   0  0  0  0  0  0
    6.3974    4.7548   30.2235 C   0  0  0  0  0  0
    5.2531    4.5993   30.9938 C   0  0  0  0  0  0
    4.0144    4.3073   30.3678 C   0  0  0  0  0  0
    2.7992    4.1793   31.0774 C   0  0  0  0  0  0
   -2.0393    4.7579   30.6081 C   0  0  0  0  0  0
   -2.8255    3.6799   30.6371 N   0  0  0  0  0  0
   -6.6725    3.6366   31.3000 H   0  0  0  0  0  0
   -6.9883    3.3672   29.5893 H   0  0  0  0  0  0
   -7.0314    2.0241   30.7028 H   0  0  0  0  0  0
   -3.7338   -0.5819   29.2461 H   0  0  0  0  0  0
   -5.2841   -1.2957   28.9570 H   0  0  0  0  0  0
   -5.7826   -1.6584   31.2638 H   0  0  0  0  0  0
   -4.1021   -3.2418   30.2003 H   0  0  0  0  0  0
   -4.1332   -3.2472   31.9246 H   0  0  0  0  0  0
   -2.0419   -1.8636   30.1596 H   0  0  0  0  0  0
   -1.7990   -3.2427   31.2073 H   0  0  0  0  0  0
   -1.0169   -1.2445   32.1909 H   0  0  0  0  0  0
   -2.4976    0.4008   31.3314 H   0  0  0  0  0  0
   -2.4970    0.4015   33.0876 H   0  0  0  0  0  0
   -4.5616   -0.9290   33.1675 H   0  0  0  0  0  0
   -4.8401    0.4780   32.2158 H   0  0  0  0  0  0
   -5.6550    5.4676   30.0054 H   0  0  0  0  0  0
    0.4676    3.9541   32.2080 H   0  0  0  0  0  0
   -0.1628    2.8663   30.9951 H   0  0  0  0  0  0
    0.7069    3.4732   28.4890 H   0  0  0  0  0  0
    2.7932    3.7011   27.2157 H   0  0  0  0  0  0
    7.1532    4.7554   28.2115 H   0  0  0  0  0  0
    7.3461    4.9986   30.6757 H   0  0  0  0  0  0
    5.3001    4.7570   32.0615 H   0  0  0  0  0  0
    2.7970    4.3208   32.1499 H   0  0  0  0  0  0
  1  2  1  0  0  0
  1 32  1  0  0  0
  1 33  1  0  0  0
  1 34  1  0  0  0
  2  3  2  0  0  0
  2 12  1  0  0  0
  3  4  1  0  0  0
  4  5  1  0  0  0
  5  6  1  0  0  0
  5 35  1  0  0  0
  5 36  1  0  0  0
  6  7  1  0  0  0
  6 11  1  0  0  0
  6 37  1  0  0  0
  7  8  1  0  0  0
  7 38  1  0  0  0
  7 39  1  0  0  0
  8  9  1  0  0  0
  8 40  1  0  0  0
  8 41  1  0  0  0
  9 10  1  0  0  0
  9 42  1  0  0  0
 10 11  1  0  0  0
 10 43  1  0  0  0
 10 44  1  0  0  0
 11 45  1  0  0  0
 11 46  1  0  0  0
 12 13  2  0  0  0
 12 31  1  0  0  0
 13 14  1  0  0  0
 13 47  1  0  0  0
 14 15  2  0  0  0
 15 16  1  0  0  0
 15 30  1  0  0  0
 16 17  2  0  0  0
 17 18  1  0  0  0
 18 19  1  0  0  0
 18 30  1  0  0  0
 19 20  1  0  0  0
 19 48  1  0  0  0
 19 49  1  0  0  0
 20 21  2  0  0  0
 20 29  1  0  0  0
 21 22  1  0  0  0
 21 50  1  0  0  0
 22 23  2  0  0  0
 22 51  1  0  0  0
 23 24  1  0  0  0
 23 28  1  0  0  0
 24 25  2  0  0  0
 25 26  1  0  0  0
 25 52  1  0  0  0
 26 27  2  0  0  0
 26 53  1  0  0  0
 27 28  1  0  0  0
 27 54  1  0  0  0
 28 29  2  0  0  0
 29 55  1  0  0  0
 30 31  2  0  0  0
M  END
> <s_m_entry_id>
10237

> <s_m_entry_name>
dock_pv.306

> <s_m_Source_Path>
/home/csk/Desktop/cluster/DUD-E-result/met

> <s_m_Source_File>
dock_pv.maegz

> <i_m_Source_File_Index>
306

> <chembl_id>
CHEMBL3648250

> <chembl_pref_name>
None

> <i_lp_mmshare_version>
53161

> <i_f3d_flags>
0

> <r_lp_tautomer_probability>
1

> <s_lp_Force_Field>
OPLS_2005

> <r_lp_Energy>
37.369771

> <b_lp_Chiralities_Consistent>
1

> <s_lp_Variant>
CHEMBL3717_lig2604-1

> <s_i_glide_gridfile>
glide-grid_3lq8

> <i_i_glide_lignum>
2956

> <i_i_glide_rotatable_bonds>
6

> <r_i_docking_score>
-7.68749633253414

> <r_i_glide_ligand_efficiency>
-0.247983752662392

> <r_i_glide_ligand_efficiency_sa>
-0.779011361829344

> <r_i_glide_ligand_efficiency_ln>
-1.73376601645533

> <r_i_glide_gscore>
-7.68749633253414

> <r_i_glide_lipo>
-3.21668198393377

> <r_i_glide_hbond>
-0.07688972772409

> <r_i_glide_metal>
0

> <r_i_glide_rewards>
-2.14461210245745

> <r_i_glide_evdw>
-46.2501907348633

> <r_i_glide_ecoul>
-3.375324010849

> <r_i_glide_erotb>
0.569495619951692

> <r_i_glide_esite>
0

> <r_i_glide_emodel>
-65.8492400712791

> <r_i_glide_energy>
-49.6255147457123

> <r_i_glide_einternal>
4.74256944656372

> <i_i_glide_confnum>
5

> <i_i_glide_posenum>
4

> <r_i_glide_eff_state_penalty>
0

> <s_user_duplicate_titles>
CHEMBL3717_lig2604

> <s_m_subgroup_title>
dock_pv

> <s_m_subgroupid>
dock_pv

> <b_m_subgroup_collapsed>
1

$$$$
CHEMBL3717_lig2881
                    3D
 Schrodinger Suite 2021-1.
 52 57  0  0  1  0            999 V2000
   -6.5468    3.1203   30.6192 C   0  0  0  0  0  0
   -7.0874    4.4085   30.6271 C   0  0  0  0  0  0
   -6.2696    5.5332   30.6198 C   0  0  0  0  0  0
   -5.1564    2.9688   30.5653 C   0  0  0  0  0  0
   -4.3003    4.0921   30.5894 C   0  0  0  0  0  0
   -4.8644    5.3978   30.6082 C   0  0  0  0  0  0
   -4.0873    6.5150   30.6082 N   0  0  0  0  0  0
   -2.7402    6.3593   30.6080 C   0  0  0  0  0  0
   -2.0977    5.1219   30.6171 C   0  0  0  0  0  0
   -2.8901    3.9732   30.6081 C   0  0  0  0  0  0
   -7.5010    1.9281   30.7831 C   0  0  1  0  0  0
   -7.1205    0.6743   30.1145 N   0  0  0  0  0  0
   -7.8016    1.6479   32.2710 C   0  0  0  0  0  0
   -7.8546    0.2326   29.0667 N   0  0  0  0  0  0
   -7.3611   -0.9833   28.6444 N   0  0  0  0  0  0
   -6.1130   -0.2434   30.3862 C   0  0  0  0  0  0
   -6.2997   -1.2791   29.4433 C   0  0  0  0  0  0
   -5.4955   -2.3450   29.4078 N   0  0  0  0  0  0
   -4.4602   -2.3251   30.2881 C   0  0  0  0  0  0
   -4.2639   -1.2867   31.2166 C   0  0  0  0  0  0
   -5.1390   -0.2378   31.3059 N   0  0  0  0  0  0
   -0.6107    5.0180   30.6101 C   0  0  0  0  0  0
    0.1754    3.9365   30.9813 C   0  0  0  0  0  0
    1.4762    4.3111   30.7757 N   0  0  0  0  0  0
    1.5764    5.5567   30.3035 N   0  0  0  0  0  0
    0.3365    5.9767   30.2082 C   0  0  0  0  0  0
    2.6815    3.5307   30.9943 C   0  0  0  0  0  0
   -3.0777   -1.2513   32.1221 C   0  0  0  0  0  0
   -2.4795   -2.4430   32.5490 C   0  0  0  0  0  0
   -1.3532   -2.4093   33.3718 C   0  0  0  0  0  0
   -0.8085   -1.2564   33.8101 N   0  0  0  0  0  0
   -1.3896   -0.1101   33.4078 C   0  0  0  0  0  0
   -2.5030   -0.0522   32.5671 C   0  0  0  0  0  0
   -8.1583    4.5496   30.6585 H   0  0  0  0  0  0
   -6.7050    6.5204   30.6073 H   0  0  0  0  0  0
   -4.6927    2.0002   30.5460 H   0  0  0  0  0  0
   -2.1648    7.2727   30.6086 H   0  0  0  0  0  0
   -2.4428    2.9905   30.5989 H   0  0  0  0  0  0
   -8.4499    2.2337   30.3351 H   0  0  0  0  0  0
   -8.2792    2.5045   32.7486 H   0  0  0  0  0  0
   -8.4733    0.7975   32.3887 H   0  0  0  0  0  0
   -6.8944    1.4300   32.8340 H   0  0  0  0  0  0
   -3.7766   -3.1587   30.2094 H   0  0  0  0  0  0
   -0.0677    2.9528   31.3521 H   0  0  0  0  0  0
    0.1204    6.9701   29.8414 H   0  0  0  0  0  0
    2.4235    2.5425   31.3784 H   0  0  0  0  0  0
    3.2146    3.4167   30.0488 H   0  0  0  0  0  0
    3.3210    4.0459   31.7138 H   0  0  0  0  0  0
   -2.8935   -3.3908   32.2414 H   0  0  0  0  0  0
   -0.8553   -3.3020   33.7117 H   0  0  0  0  0  0
   -0.9250    0.7628   33.8012 H   0  0  0  0  0  0
   -2.8953    0.9061   32.2626 H   0  0  0  0  0  0
  1  2  2  0  0  0
  1  4  1  0  0  0
  1 11  1  0  0  0
  2  3  1  0  0  0
  2 34  1  0  0  0
  3  6  2  0  0  0
  3 35  1  0  0  0
  4  5  2  0  0  0
  4 36  1  0  0  0
  5  6  1  0  0  0
  5 10  1  0  0  0
  6  7  1  0  0  0
  7  8  2  0  0  0
  8  9  1  0  0  0
  8 37  1  0  0  0
  9 10  2  0  0  0
  9 22  1  0  0  0
 10 38  1  0  0  0
 11 12  1  0  0  0
 11 13  1  0  0  0
 11 39  1  0  0  0
 12 14  1  0  0  0
 12 16  1  0  0  0
 13 40  1  0  0  0
 13 41  1  0  0  0
 13 42  1  0  0  0
 14 15  2  0  0  0
 15 17  1  0  0  0
 16 17  2  0  0  0
 16 21  1  0  0  0
 17 18  1  0  0  0
 18 19  2  0  0  0
 19 20  1  0  0  0
 19 43  1  0  0  0
 20 21  2  0  0  0
 20 28  1  0  0  0
 22 23  2  0  0  0
 22 26  1  0  0  0
 23 24  1  0  0  0
 23 44  1  0  0  0
 24 25  1  0  0  0
 24 27  1  0  0  0
 25 26  2  0  0  0
 26 45  1  0  0  0
 27 46  1  0  0  0
 27 47  1  0  0  0
 27 48  1  0  0  0
 28 29  2  0  0  0
 28 33  1  0  0  0
 29 30  1  0  0  0
 29 49  1  0  0  0
 30 31  2  0  0  0
 30 50  1  0  0  0
 31 32  1  0  0  0
 32 33  2  0  0  0
 32 51  1  0  0  0
 33 52  1  0  0  0
M  END
> <s_m_entry_id>
10238

> <s_m_entry_name>
dock_pv.307

> <s_m_Source_Path>
/home/csk/Desktop/cluster/DUD-E-result/met

> <s_m_Source_File>
dock_pv.maegz

> <i_m_Source_File_Index>
307

> <chembl_id>
CHEMBL4061378

> <chembl_pref_name>
None

> <i_lp_mmshare_version>
53161

> <i_f3d_flags>
0

> <r_lp_tautomer_probability>
1

> <s_lp_Force_Field>
OPLS_2005

> <r_lp_Energy>
31.579369

> <b_lp_Chiralities_Consistent>
1

> <s_lp_Variant>
CHEMBL3717_lig2881-2

> <s_i_glide_gridfile>
glide-grid_3lq8

> <i_i_glide_lignum>
3535

> <i_i_glide_rotatable_bonds>
4

> <r_i_docking_score>
-7.68662445963197

> <r_i_glide_ligand_efficiency>
-0.232928013928241

> <r_i_glide_ligand_efficiency_sa>
-0.747124600221805

> <r_i_glide_ligand_efficiency_ln>
-1.70946548061071

> <r_i_glide_gscore>
-7.68662445963197

> <r_i_glide_lipo>
-3.61079936421563

> <r_i_glide_hbond>
-0.0728498292909973

> <r_i_glide_metal>
0

> <r_i_glide_rewards>
-1.88776227109167

> <r_i_glide_evdw>
-47.5207748413086

> <r_i_glide_ecoul>
-0.943601071834564

> <r_i_glide_erotb>
0.423799785828571

> <r_i_glide_esite>
-0.0214338780216279

> <r_i_glide_emodel>
-64.153992102878

> <r_i_glide_energy>
-48.4643759131432

> <r_i_glide_einternal>
2.40488958358765

> <i_i_glide_confnum>
4

> <i_i_glide_posenum>
13

> <r_i_glide_eff_state_penalty>
0

> <s_user_duplicate_titles>
CHEMBL3717_lig2881

> <s_m_subgroup_title>
dock_pv

> <s_m_subgroupid>
dock_pv

> <b_m_subgroup_collapsed>
1

$$$$
CHEMBL3717_lig4296
                    3D
 Schrodinger Suite 2021-1.
 47 51  0  0  1  0            999 V2000
   -8.1353   -4.0182   29.3509 C   0  0  0  0  0  0
   -8.7131   -2.8534   29.9264 O   0  0  0  0  0  0
   -8.0389   -1.6500   29.8609 C   0  0  0  0  0  0
   -6.7179   -1.4918   29.4192 C   0  0  0  0  0  0
   -6.1056   -0.2381   29.4078 C   0  0  0  0  0  0
   -6.8214    0.9116   29.8261 C   0  0  0  0  0  0
   -6.2710    2.2261   29.8268 C   0  0  0  0  0  0
   -4.9737    2.4651   29.4254 O   0  0  0  0  0  0
   -4.0214    2.6199   30.4799 C   0  0  0  0  0  0
   -3.5469    4.0647   30.6080 C   0  0  0  0  0  0
   -4.3756    5.0913   30.6415 N   0  0  0  0  0  0
   -3.6839    6.2918   30.5768 N   0  0  0  0  0  0
   -2.3857    5.9528   30.4747 N   0  0  0  0  0  0
   -1.3547    6.8125   30.2084 C   0  0  0  0  0  0
   -0.0641    6.2975   30.1380 C   0  0  0  0  0  0
    0.1640    4.9277   30.3146 C   0  0  0  0  0  0
   -0.9016    4.0608   30.5977 C   0  0  0  0  0  0
   -2.2172    4.5653   30.6080 C   0  0  0  0  0  0
    1.5208    4.3898   30.0819 C   0  0  0  0  0  0
    1.7945    3.6787   28.9093 C   0  0  0  0  0  0
    3.0925    3.2644   28.6263 C   0  0  0  0  0  0
    4.1147    3.5563   29.5255 C   0  0  0  0  0  0
    3.8467    4.2268   30.7142 C   0  0  0  0  0  0
    2.5467    4.6364   30.9944 C   0  0  0  0  0  0
   -7.0877    3.2931   30.2089 C   0  0  0  0  0  0
   -8.3934    3.0465   30.6138 C   0  0  0  0  0  0
   -8.9372    1.8094   30.6574 N   0  0  0  0  0  0
   -8.1728    0.7548   30.2628 C   0  0  0  0  0  0
   -8.7534   -0.5321   30.2818 C   0  0  0  0  0  0
   -8.7646   -4.8767   29.5827 H   0  0  0  0  0  0
   -7.1417   -4.2326   29.7458 H   0  0  0  0  0  0
   -8.0939   -3.9355   28.2651 H   0  0  0  0  0  0
   -6.1407   -2.3383   29.0804 H   0  0  0  0  0  0
   -5.0873   -0.1370   29.0591 H   0  0  0  0  0  0
   -4.4294    2.2486   31.4083 H   0  0  0  0  0  0
   -3.1876    1.9531   30.2588 H   0  0  0  0  0  0
   -1.5924    7.8587   30.0782 H   0  0  0  0  0  0
    0.7612    6.9576   29.9075 H   0  0  0  0  0  0
   -0.7228    2.9986   30.6765 H   0  0  0  0  0  0
    1.0027    3.4683   28.2045 H   0  0  0  0  0  0
    3.3053    2.7247   27.7149 H   0  0  0  0  0  0
    5.1223    3.2364   29.3081 H   0  0  0  0  0  0
    4.6463    4.4334   31.4088 H   0  0  0  0  0  0
    2.3340    5.1564   31.9152 H   0  0  0  0  0  0
   -6.7267    4.3077   30.1779 H   0  0  0  0  0  0
   -9.0395    3.8607   30.9088 H   0  0  0  0  0  0
   -9.7731   -0.6446   30.6192 H   0  0  0  0  0  0
  1  2  1  0  0  0
  1 30  1  0  0  0
  1 31  1  0  0  0
  1 32  1  0  0  0
  2  3  1  0  0  0
  3  4  2  0  0  0
  3 29  1  0  0  0
  4  5  1  0  0  0
  4 33  1  0  0  0
  5  6  2  0  0  0
  5 34  1  0  0  0
  6  7  1  0  0  0
  6 28  1  0  0  0
  7  8  1  0  0  0
  7 25  2  0  0  0
  8  9  1  0  0  0
  9 10  1  0  0  0
  9 35  1  0  0  0
  9 36  1  0  0  0
 10 11  1  0  0  0
 10 18  2  0  0  0
 11 12  2  0  0  0
 12 13  1  0  0  0
 13 14  1  0  0  0
 13 18  1  0  0  0
 14 15  2  0  0  0
 14 37  1  0  0  0
 15 16  1  0  0  0
 15 38  1  0  0  0
 16 17  2  0  0  0
 16 19  1  0  0  0
 17 18  1  0  0  0
 17 39  1  0  0  0
 19 20  2  0  0  0
 19 24  1  0  0  0
 20 21  1  0  0  0
 20 40  1  0  0  0
 21 22  2  0  0  0
 21 41  1  0  0  0
 22 23  1  0  0  0
 22 42  1  0  0  0
 23 24  2  0  0  0
 23 43  1  0  0  0
 24 44  1  0  0  0
 25 26  1  0  0  0
 25 45  1  0  0  0
 26 27  2  0  0  0
 26 46  1  0  0  0
 27 28  1  0  0  0
 28 29  2  0  0  0
 29 47  1  0  0  0
M  END
> <s_m_entry_id>
10239

> <s_m_entry_name>
dock_pv.308

> <s_m_Source_Path>
/home/csk/Desktop/cluster/DUD-E-result/met

> <s_m_Source_File>
dock_pv.maegz

> <i_m_Source_File_Index>
308

> <chembl_id>
CHEMBL3663586

> <chembl_pref_name>
None

> <i_lp_mmshare_version>
53161

> <i_f3d_flags>
0

> <r_lp_tautomer_probability>
1

> <s_lp_Force_Field>
OPLS_2005

> <r_lp_Energy>
40.755941

> <b_lp_Chiralities_Consistent>
1

> <s_lp_Variant>
CHEMBL3717_lig4296-1

> <s_i_glide_gridfile>
glide-grid_3lq8

> <i_i_glide_lignum>
5518

> <i_i_glide_rotatable_bonds>
5

> <r_i_docking_score>
-7.68321942706835

> <r_i_glide_ligand_efficiency>
-0.264938600933391

> <r_i_glide_ligand_efficiency_sa>
-0.813975320507695

> <r_i_glide_ligand_efficiency_ln>
-1.75926241916434

> <r_i_glide_gscore>
-7.68321942706835

> <r_i_glide_lipo>
-3.77556379224221

> <r_i_glide_hbond>
0

> <r_i_glide_metal>
0

> <r_i_glide_rewards>
-2.11724495315714

> <r_i_glide_evdw>
-42.0306358337402

> <r_i_glide_ecoul>
-1.46729910373688

> <r_i_glide_erotb>
0.531215975578539

> <r_i_glide_esite>
0

> <r_i_glide_emodel>
-52.9904519910497

> <r_i_glide_energy>
-43.4979349374771

> <r_i_glide_einternal>
14.808687210083

> <i_i_glide_confnum>
8

> <i_i_glide_posenum>
147

> <r_i_glide_eff_state_penalty>
0

> <s_user_duplicate_titles>
CHEMBL3717_lig4296

> <s_m_subgroup_title>
dock_pv

> <s_m_subgroupid>
dock_pv

> <b_m_subgroup_collapsed>
1

$$$$
CHEMBL3717_lig4362
                    3D
 Schrodinger Suite 2021-1.
 32 35  0  0  1  0            999 V2000
   -0.4942   -1.0140   34.5723 Br  0  0  0  0  0  0
   -1.3578   -1.2379   32.8913 C   0  0  0  0  0  0
   -0.9015   -2.2407   32.0420 C   0  0  0  0  0  0
   -1.4773   -2.4432   30.7944 C   0  0  0  0  0  0
   -2.5523   -1.6439   30.4063 C   0  0  0  0  0  0
   -3.2938   -1.6617   29.2859 N   0  0  0  0  0  0
   -4.2019   -0.6322   29.4080 N   0  0  0  0  0  0
   -4.0030    0.0028   30.5370 C   0  0  0  0  0  0
   -4.8082    1.2220   30.9352 C   0  0  0  0  0  0
   -4.1724    2.5822   30.6108 C   0  0  0  0  0  0
   -5.0041    3.6783   30.3657 C   0  0  0  0  0  0
   -4.4893    4.9679   30.2453 C   0  0  0  0  0  0
   -3.0987    5.1928   30.3661 C   0  0  0  0  0  0
   -2.6162    6.4585   30.2080 N   0  0  0  0  0  0
   -1.2726    6.6424   30.2099 C   0  0  0  0  0  0
   -0.3610    5.6215   30.4721 C   0  0  0  0  0  0
   -0.8388    4.3286   30.6851 C   0  0  0  0  0  0
   -2.2344    4.0810   30.6084 C   0  0  0  0  0  0
   -2.7917    2.7833   30.7294 C   0  0  0  0  0  0
   -2.9974   -0.6191   31.2613 N   0  0  0  0  0  0
   -2.4206   -0.4166   32.4956 C   0  0  0  0  0  0
   -0.0941   -2.8883   32.3463 H   0  0  0  0  0  0
   -1.1378   -3.2412   30.1517 H   0  0  0  0  0  0
   -5.7682    1.1866   30.4158 H   0  0  0  0  0  0
   -5.0732    1.1572   31.9891 H   0  0  0  0  0  0
   -6.0737    3.5376   30.3009 H   0  0  0  0  0  0
   -5.1507    5.8030   30.0623 H   0  0  0  0  0  0
   -0.9292    7.6546   30.0436 H   0  0  0  0  0  0
    0.6993    5.8265   30.4972 H   0  0  0  0  0  0
   -0.1566    3.5111   30.8689 H   0  0  0  0  0  0
   -2.1290    1.9581   30.9381 H   0  0  0  0  0  0
   -2.8189    0.3786   33.1056 H   0  0  0  0  0  0
  1  2  1  0  0  0
  2  3  1  0  0  0
  2 21  2  0  0  0
  3  4  2  0  0  0
  3 22  1  0  0  0
  4  5  1  0  0  0
  4 23  1  0  0  0
  5  6  2  0  0  0
  5 20  1  0  0  0
  6  7  1  0  0  0
  7  8  2  0  0  0
  8  9  1  0  0  0
  8 20  1  0  0  0
  9 10  1  0  0  0
  9 24  1  0  0  0
  9 25  1  0  0  0
 10 11  2  0  0  0
 10 19  1  0  0  0
 11 12  1  0  0  0
 11 26  1  0  0  0
 12 13  2  0  0  0
 12 27  1  0  0  0
 13 14  1  0  0  0
 13 18  1  0  0  0
 14 15  2  0  0  0
 15 16  1  0  0  0
 15 28  1  0  0  0
 16 17  2  0  0  0
 16 29  1  0  0  0
 17 18  1  0  0  0
 17 30  1  0  0  0
 18 19  2  0  0  0
 19 31  1  0  0  0
 20 21  1  0  0  0
 21 32  1  0  0  0
M  END
> <s_m_entry_id>
10240

> <s_m_entry_name>
dock_pv.309

> <s_m_Source_Path>
/home/csk/Desktop/cluster/DUD-E-result/met

> <s_m_Source_File>
dock_pv.maegz

> <i_m_Source_File_Index>
309

> <chembl_id>
CHEMBL3668186

> <chembl_pref_name>
None

> <i_lp_mmshare_version>
53161

> <i_f3d_flags>
0

> <r_lp_tautomer_probability>
1

> <s_lp_Force_Field>
OPLS_2005

> <r_lp_Energy>
9.925927

> <b_lp_Chiralities_Consistent>
1

> <s_lp_Variant>
CHEMBL3717_lig4362-1

> <s_i_glide_gridfile>
glide-grid_3lq8

> <i_i_glide_lignum>
5587

> <i_i_glide_rotatable_bonds>
2

> <r_i_docking_score>
-7.67925614469849

> <r_i_glide_ligand_efficiency>
-0.365678864033261

> <r_i_glide_ligand_efficiency_sa>
-1.0088802577491

> <r_i_glide_ligand_efficiency_ln>
-1.89868056437857

> <r_i_glide_gscore>
-7.67925614469849

> <r_i_glide_lipo>
-3.21643367939783

> <r_i_glide_hbond>
0

> <r_i_glide_metal>
0

> <r_i_glide_rewards>
-2.79662297918899

> <r_i_glide_evdw>
-31.5642375946045

> <r_i_glide_ecoul>
-2.25294947624207

> <r_i_glide_erotb>
0.328928947053839

> <r_i_glide_esite>
-0.0789741319989734

> <r_i_glide_emodel>
-47.7829727423223

> <r_i_glide_energy>
-33.8171870708466

> <r_i_glide_einternal>
1.77893471717834

> <i_i_glide_confnum>
3

> <i_i_glide_posenum>
36

> <r_i_glide_eff_state_penalty>
0

> <s_user_duplicate_titles>
CHEMBL3717_lig4362

> <s_m_subgroup_title>
dock_pv

> <s_m_subgroupid>
dock_pv

> <b_m_subgroup_collapsed>
1

$$$$
CHEMBL3717_lig743
                    3D
 Schrodinger Suite 2021-1.
 39 42  0  0  1  0            999 V2000
    3.0570    3.5778   29.7392 S   0  0  0  0  0  0
    2.6280    2.7566   30.8749 O   0  0  0  0  0  0
    4.4768    3.8545   29.5084 O   0  0  0  0  0  0
   -2.2167    3.5774   31.0740 C   0  0  0  0  0  0
   -3.2225    6.4758   30.6080 C   0  0  0  0  0  0
   -4.3689    5.7761   30.6172 C   0  0  0  0  0  0
   -4.6028    4.3322   30.4616 C   0  0  0  0  0  0
   -3.6220    3.3360   30.6080 C   0  0  0  0  0  0
   -4.0215    1.9910   30.4981 C   0  0  0  0  0  0
   -5.3614    1.6659   30.2673 C   0  0  0  0  0  0
   -6.2667    2.7220   30.1376 C   0  0  0  0  0  0
   -5.9039    4.0262   30.2118 N   0  0  0  0  0  0
   -1.3645    4.7209   30.6206 C   0  0  0  0  0  0
   -1.8261    6.0365   30.4168 C   0  0  0  0  0  0
   -0.9073    7.0025   29.9914 C   0  0  0  0  0  0
    0.4362    6.6890   29.8079 C   0  0  0  0  0  0
    0.9089    5.3998   30.0535 C   0  0  0  0  0  0
    0.0020    4.4210   30.4627 C   0  0  0  0  0  0
   -1.6939    2.7058   31.7751 O   0  0  0  0  0  0
    2.2800    5.1571   29.8755 N   0  0  0  0  0  0
    2.3056    2.9284   28.1479 C   0  0  0  0  0  0
   -5.8036    0.2416   30.2060 C   0  0  0  0  0  0
   -5.0243   -0.8371   29.8088 C   0  0  0  0  0  0
   -5.9193   -2.3131   29.9078 S   0  0  0  0  0  0
   -7.3291   -1.5317   30.4633 N   0  0  0  0  0  0
   -7.0740   -0.2452   30.5525 C   0  0  0  0  0  0
   -3.3296    7.5364   30.7857 H   0  0  0  0  0  0
   -5.2681    6.3560   30.7799 H   0  0  0  0  0  0
   -3.3099    1.1883   30.6399 H   0  0  0  0  0  0
   -7.3152    2.5390   29.9529 H   0  0  0  0  0  0
   -1.2265    8.0191   29.8086 H   0  0  0  0  0  0
    1.1065    7.4694   29.4817 H   0  0  0  0  0  0
    0.3571    3.4178   30.6433 H   0  0  0  0  0  0
    2.8475    5.9325   29.5733 H   0  0  0  0  0  0
    2.7697    1.9797   27.8898 H   0  0  0  0  0  0
    2.4796    3.6587   27.3629 H   0  0  0  0  0  0
    1.2374    2.7899   28.2975 H   0  0  0  0  0  0
   -4.0041   -0.8461   29.4544 H   0  0  0  0  0  0
   -7.8765    0.3839   30.9082 H   0  0  0  0  0  0
  1  2  2  0  0  0
  1  3  2  0  0  0
  1 20  1  0  0  0
  1 21  1  0  0  0
  4 19  2  0  0  0
  4  8  1  0  0  0
  4 13  1  0  0  0
  5  6  2  0  0  0
  5 14  1  0  0  0
  5 27  1  0  0  0
  6  7  1  0  0  0
  6 28  1  0  0  0
  7  8  2  0  0  0
  7 12  1  0  0  0
  8  9  1  0  0  0
  9 10  2  0  0  0
  9 29  1  0  0  0
 10 22  1  0  0  0
 10 11  1  0  0  0
 11 12  2  0  0  0
 11 30  1  0  0  0
 13 14  2  0  0  0
 13 18  1  0  0  0
 14 15  1  0  0  0
 15 16  2  0  0  0
 15 31  1  0  0  0
 16 17  1  0  0  0
 16 32  1  0  0  0
 17 18  2  0  0  0
 17 20  1  0  0  0
 18 33  1  0  0  0
 20 34  1  0  0  0
 21 35  1  0  0  0
 21 36  1  0  0  0
 21 37  1  0  0  0
 22 23  2  0  0  0
 22 26  1  0  0  0
 23 24  1  0  0  0
 23 38  1  0  0  0
 24 25  1  0  0  0
 25 26  2  0  0  0
 26 39  1  0  0  0
M  END
> <s_m_entry_id>
10241

> <s_m_entry_name>
dock_pv.310

> <s_m_Source_Path>
/home/csk/Desktop/cluster/DUD-E-result/met

> <s_m_Source_File>
dock_pv.maegz

> <i_m_Source_File_Index>
310

> <chembl_id>
CHEMBL1802600

> <chembl_pref_name>
None

> <i_lp_mmshare_version>
53161

> <i_f3d_flags>
0

> <r_lp_tautomer_probability>
1

> <s_lp_Force_Field>
OPLS_2005

> <r_lp_Energy>
21.927106

> <b_lp_Chiralities_Consistent>
1

> <s_lp_Variant>
CHEMBL3717_lig743-1

> <s_i_glide_gridfile>
glide-grid_3lq8

> <i_i_glide_lignum>
804

> <i_i_glide_rotatable_bonds>
3

> <r_i_docking_score>
-7.67866710759556

> <r_i_glide_ligand_efficiency>
-0.295333350292137

> <r_i_glide_ligand_efficiency_sa>
-0.874923888159837

> <r_i_glide_ligand_efficiency_ln>
-1.80330977445698

> <r_i_glide_gscore>
-7.67866710759556

> <r_i_glide_lipo>
-3.71609056174416

> <r_i_glide_hbond>
0

> <r_i_glide_metal>
0

> <r_i_glide_rewards>
-1.90839973172069

> <r_i_glide_evdw>
-45.6607780456543

> <r_i_glide_ecoul>
-0.236441373825073

> <r_i_glide_erotb>
0.264328294225768

> <r_i_glide_esite>
0

> <r_i_glide_emodel>
-63.1589604259295

> <r_i_glide_energy>
-45.8972194194794

> <r_i_glide_einternal>
0.598767817020416

> <i_i_glide_confnum>
6

> <i_i_glide_posenum>
23

> <r_i_glide_eff_state_penalty>
0

> <s_user_duplicate_titles>
CHEMBL3717_lig743

> <s_m_subgroup_title>
dock_pv

> <s_m_subgroupid>
dock_pv

> <b_m_subgroup_collapsed>
1

$$$$
CHEMBL3717_lig2562
                    3D
 Schrodinger Suite 2021-1.
 42 45  0  0  1  0            999 V2000
   -2.9826   -1.7119   31.4989 C   0  0  0  0  0  0
   -3.3086   -1.1289   30.1166 C   0  0  0  0  0  0
   -3.2445   -1.7690   29.0081 N   0  0  0  0  0  0
   -3.3087   -3.1183   29.0682 N   0  0  0  0  0  0
   -3.3074   -3.9181   27.9859 C   0  0  0  0  0  0
   -2.8929   -3.6422   26.8639 O   0  0  0  0  0  0
   -3.9779   -5.0441   28.2079 N   0  0  0  0  0  0
   -3.8176    0.2540   30.1103 C   0  0  0  0  0  0
   -5.0315    0.5675   29.4738 C   0  0  0  0  0  0
   -5.5425    1.8271   29.4341 N   0  0  0  0  0  0
   -4.7717    2.7725   29.9813 C   0  0  0  0  0  0
   -5.0072    4.1096   30.0993 N   0  0  0  0  0  0
   -3.8649    4.6814   30.6081 N   0  0  0  0  0  0
   -2.9903    3.6993   30.9128 N   0  0  0  0  0  0
   -1.8321    4.0179   31.7185 C   0  0  0  0  0  0
   -0.5102    4.3008   31.0087 C   0  0  0  0  0  0
    0.5495    3.4215   31.2226 C   0  0  0  0  0  0
    1.8352    3.6804   30.7143 C   0  0  0  0  0  0
    2.9424    2.8278   30.9563 C   0  0  0  0  0  0
    4.1848    3.1575   30.4198 C   0  0  0  0  0  0
    4.2991    4.3097   29.6515 C   0  0  0  0  0  0
    3.2609    5.1445   29.4090 N   0  0  0  0  0  0
    2.0403    4.8532   29.9358 C   0  0  0  0  0  0
    0.9550    5.7425   29.7259 C   0  0  0  0  0  0
   -0.2970    5.4716   30.2771 C   0  0  0  0  0  0
   -1.3010    6.3632   30.1094 F   0  0  0  0  0  0
   -3.5236    2.4651   30.5656 C   0  0  0  0  0  0
   -3.0515    1.2179   30.7133 N   0  0  0  0  0  0
   -3.8975   -2.0354   31.9960 H   0  0  0  0  0  0
   -2.3332   -2.5850   31.4354 H   0  0  0  0  0  0
   -2.4936   -0.9847   32.1476 H   0  0  0  0  0  0
   -3.5356   -3.5047   29.9730 H   0  0  0  0  0  0
   -4.0450   -5.6970   27.4460 H   0  0  0  0  0  0
   -4.0139   -5.3831   29.1783 H   0  0  0  0  0  0
   -5.6162   -0.1975   28.9809 H   0  0  0  0  0  0
   -2.0940    4.8662   32.3553 H   0  0  0  0  0  0
   -1.7134    3.1566   32.3769 H   0  0  0  0  0  0
    0.4036    2.5295   31.8074 H   0  0  0  0  0  0
    2.8149    1.9323   31.5469 H   0  0  0  0  0  0
    5.0418    2.5194   30.5776 H   0  0  0  0  0  0
    5.2462    4.5821   29.2072 H   0  0  0  0  0  0
    1.1055    6.6459   29.1538 H   0  0  0  0  0  0
  1  2  1  0  0  0
  1 29  1  0  0  0
  1 30  1  0  0  0
  1 31  1  0  0  0
  2  3  2  0  0  0
  2  8  1  0  0  0
  3  4  1  0  0  0
  4  5  1  0  0  0
  4 32  1  0  0  0
  5  6  2  0  0  0
  5  7  1  0  0  0
  7 33  1  0  0  0
  7 34  1  0  0  0
  8  9  2  0  0  0
  8 28  1  0  0  0
  9 10  1  0  0  0
  9 35  1  0  0  0
 10 11  2  0  0  0
 11 12  1  0  0  0
 11 27  1  0  0  0
 12 13  2  0  0  0
 13 14  1  0  0  0
 14 15  1  0  0  0
 14 27  1  0  0  0
 15 16  1  0  0  0
 15 36  1  0  0  0
 15 37  1  0  0  0
 16 17  2  0  0  0
 16 25  1  0  0  0
 17 18  1  0  0  0
 17 38  1  0  0  0
 18 19  2  0  0  0
 18 23  1  0  0  0
 19 20  1  0  0  0
 19 39  1  0  0  0
 20 21  2  0  0  0
 20 40  1  0  0  0
 21 22  1  0  0  0
 21 41  1  0  0  0
 22 23  2  0  0  0
 23 24  1  0  0  0
 24 25  2  0  0  0
 24 42  1  0  0  0
 25 26  1  0  0  0
 27 28  2  0  0  0
M  END
> <s_m_entry_id>
10242

> <s_m_entry_name>
dock_pv.311

> <s_m_Source_Path>
/home/csk/Desktop/cluster/DUD-E-result/met

> <s_m_Source_File>
dock_pv.maegz

> <i_m_Source_File_Index>
311

> <chembl_id>
CHEMBL3674547

> <chembl_pref_name>
None

> <i_lp_mmshare_version>
53161

> <i_f3d_flags>
0

> <r_lp_tautomer_probability>
1

> <s_lp_Force_Field>
OPLS_2005

> <r_lp_Energy>
21.989804

> <b_lp_Chiralities_Consistent>
1

> <s_lp_Variant>
CHEMBL3717_lig2562-1

> <s_i_glide_gridfile>
glide-grid_3lq8

> <i_i_glide_lignum>
2910

> <i_i_glide_rotatable_bonds>
5

> <r_i_docking_score>
-7.67592104069805

> <r_i_glide_ligand_efficiency>
-0.274140037167788

> <r_i_glide_ligand_efficiency_sa>
-0.832450612688656

> <r_i_glide_ligand_efficiency_ln>
-1.77182795102801

> <r_i_glide_gscore>
-7.67592104069805

> <r_i_glide_lipo>
-2.69483496809936

> <r_i_glide_hbond>
-0.215755802571984

> <r_i_glide_metal>
0

> <r_i_glide_rewards>
-2.90338640135185

> <r_i_glide_evdw>
-30.360746383667

> <r_i_glide_ecoul>
-4.44235849380493

> <r_i_glide_erotb>
0.538928152021674

> <r_i_glide_esite>
-0.216480927442442

> <r_i_glide_emodel>
-44.5160233195305

> <r_i_glide_energy>
-34.8031048774719

> <r_i_glide_einternal>
12.7628936767578

> <i_i_glide_confnum>
2

> <i_i_glide_posenum>
85

> <r_i_glide_eff_state_penalty>
0

> <s_user_duplicate_titles>
CHEMBL3717_lig2562

> <s_m_subgroup_title>
dock_pv

> <s_m_subgroupid>
dock_pv

> <b_m_subgroup_collapsed>
1

$$$$
CHEMBL3717_lig2779
                    3D
 Schrodinger Suite 2021-1.
 40 44  0  0  1  0            999 V2000
    5.3792    3.8702   29.9693 C   0  0  0  0  0  0
    3.9630    3.7746   30.2679 N   0  0  0  0  0  0
    2.9818    4.6753   29.9584 C   0  0  0  0  0  0
    1.8082    4.1966   30.5199 C   0  0  0  0  0  0
    2.2249    3.0112   31.1479 C   0  0  0  0  0  0
    3.5060    2.7604   31.0080 N   0  0  0  0  0  0
    0.4480    4.8003   30.4757 C   0  0  0  0  0  0
    0.2883    6.1683   30.2388 C   0  0  0  0  0  0
   -0.9764    6.7570   30.2080 C   0  0  0  0  0  0
   -1.1071    8.0810   30.0000 F   0  0  0  0  0  0
   -2.1089    5.9579   30.4238 C   0  0  0  0  0  0
   -3.4273    6.2480   30.4532 N   0  0  0  0  0  0
   -4.0839    5.0356   30.5428 N   0  0  0  0  0  0
   -3.2080    4.0508   30.6080 C   0  0  0  0  0  0
   -3.5297    2.3052   30.6080 S   0  0  0  0  0  0
   -5.2422    2.0734   30.1823 C   0  0  0  0  0  0
   -6.2601    2.9327   30.6080 C   0  0  0  0  0  0
   -7.5935    2.6782   30.2971 C   0  0  0  0  0  0
   -7.9449    1.5101   29.5851 C   0  0  0  0  0  0
   -9.2604    1.2643   29.3289 N   0  0  0  0  0  0
   -9.5839    0.1111   28.6940 C   0  0  0  0  0  0
   -8.6452   -0.8321   28.2864 C   0  0  0  0  0  0
   -7.2949   -0.5801   28.5154 C   0  0  0  0  0  0
   -6.9140    0.6098   29.1787 C   0  0  0  0  0  0
   -5.5655    0.9207   29.4679 C   0  0  0  0  0  0
   -1.9329    4.5785   30.6080 N   0  0  0  0  0  0
   -0.6861    4.0047   30.6511 C   0  0  0  0  0  0
    5.5270    4.4576   29.0626 H   0  0  0  0  0  0
    5.7940    2.8752   29.8133 H   0  0  0  0  0  0
    5.8902    4.3546   30.8013 H   0  0  0  0  0  0
    3.2064    5.5569   29.3819 H   0  0  0  0  0  0
    1.5903    2.3399   31.7059 H   0  0  0  0  0  0
    1.1543    6.7965   30.0917 H   0  0  0  0  0  0
   -6.0504    3.7931   31.2202 H   0  0  0  0  0  0
   -8.3702    3.3528   30.6281 H   0  0  0  0  0  0
  -10.6359   -0.0576   28.5223 H   0  0  0  0  0  0
   -8.9583   -1.7476   27.8078 H   0  0  0  0  0  0
   -6.5371   -1.2868   28.2080 H   0  0  0  0  0  0
   -4.7917    0.2320   29.1569 H   0  0  0  0  0  0
   -0.6492    2.9343   30.7821 H   0  0  0  0  0  0
  1  2  1  0  0  0
  1 28  1  0  0  0
  1 29  1  0  0  0
  1 30  1  0  0  0
  2  3  1  0  0  0
  2  6  1  0  0  0
  3  4  2  0  0  0
  3 31  1  0  0  0
  4  5  1  0  0  0
  4  7  1  0  0  0
  5  6  2  0  0  0
  5 32  1  0  0  0
  7  8  1  0  0  0
  7 27  2  0  0  0
  8  9  2  0  0  0
  8 33  1  0  0  0
  9 10  1  0  0  0
  9 11  1  0  0  0
 11 12  2  0  0  0
 11 26  1  0  0  0
 12 13  1  0  0  0
 13 14  2  0  0  0
 14 15  1  0  0  0
 14 26  1  0  0  0
 15 16  1  0  0  0
 16 17  2  0  0  0
 16 25  1  0  0  0
 17 18  1  0  0  0
 17 34  1  0  0  0
 18 19  2  0  0  0
 18 35  1  0  0  0
 19 20  1  0  0  0
 19 24  1  0  0  0
 20 21  2  0  0  0
 21 22  1  0  0  0
 21 36  1  0  0  0
 22 23  2  0  0  0
 22 37  1  0  0  0
 23 24  1  0  0  0
 23 38  1  0  0  0
 24 25  2  0  0  0
 25 39  1  0  0  0
 26 27  1  0  0  0
 27 40  1  0  0  0
M  END
> <s_m_entry_id>
10243

> <s_m_entry_name>
dock_pv.312

> <s_m_Source_Path>
/home/csk/Desktop/cluster/DUD-E-result/met

> <s_m_Source_File>
dock_pv.maegz

> <i_m_Source_File_Index>
312

> <chembl_id>
CHEMBL3704022

> <chembl_pref_name>
None

> <i_lp_mmshare_version>
53161

> <i_f3d_flags>
0

> <r_lp_tautomer_probability>
1

> <s_lp_Force_Field>
OPLS_2005

> <r_lp_Energy>
16.506658

> <b_lp_Chiralities_Consistent>
1

> <s_lp_Variant>
CHEMBL3717_lig2779-1

> <s_i_glide_gridfile>
glide-grid_3lq8

> <i_i_glide_lignum>
3362

> <i_i_glide_rotatable_bonds>
3

> <r_i_docking_score>
-7.67567606927393

> <r_i_glide_ligand_efficiency>
-0.284284298861997

> <r_i_glide_ligand_efficiency_sa>
-0.852852895649037

> <r_i_glide_ligand_efficiency_ln>
-1.78677084551706

> <r_i_glide_gscore>
-7.67567606927393

> <r_i_glide_lipo>
-3.29027624823121

> <r_i_glide_hbond>
0

> <r_i_glide_metal>
0

> <r_i_glide_rewards>
-2.49092167009592

> <r_i_glide_evdw>
-43.5790901184082

> <r_i_glide_ecoul>
-0.835937917232513

> <r_i_glide_erotb>
0.409867042558498

> <r_i_glide_esite>
0

> <r_i_glide_emodel>
-61.5591741331229

> <r_i_glide_energy>
-44.4150280356407

> <r_i_glide_einternal>
1.07040953636169

> <i_i_glide_confnum>
2

> <i_i_glide_posenum>
20

> <r_i_glide_eff_state_penalty>
0

> <s_user_duplicate_titles>
CHEMBL3717_lig2779

> <s_m_subgroup_title>
dock_pv

> <s_m_subgroupid>
dock_pv

> <b_m_subgroup_collapsed>
1

$$$$
CHEMBL3717_lig4230
                    3D
 Schrodinger Suite 2021-1.
 39 42  0  0  1  0            999 V2000
   -4.2202    4.3414   30.5176 C   0  0  0  0  0  0
   -4.2473    2.9490   30.3779 C   0  0  0  0  0  0
   -5.4400    2.2377   30.2307 C   0  0  0  0  0  0
   -5.4108    5.0757   30.5184 C   0  0  0  0  0  0
   -6.6238    4.3971   30.3387 C   0  0  0  0  0  0
   -6.6193    2.9874   30.2082 C   0  0  0  0  0  0
   -7.9446    2.6335   30.0542 N   0  0  0  0  0  0
   -8.7573    3.7057   30.0498 N   0  0  0  0  0  0
   -7.9975    4.7576   30.2088 C   0  0  0  0  0  0
   -2.9098    5.0407   30.6092 C   0  0  0  0  0  0
   -1.6367    4.6659   30.9873 C   0  0  0  0  0  0
   -0.8235    5.7633   30.6964 C   0  0  0  0  0  0
   -1.5335    6.7588   30.2079 N   0  0  0  0  0  0
   -2.8609    6.3349   30.2078 O   0  0  0  0  0  0
    0.6744    5.9534   30.9021 C   0  0  0  0  0  0
    1.5474    5.0114   30.1913 N   0  0  0  0  0  0
    1.7620    3.7332   30.8821 C   0  0  0  0  0  0
    2.9115    2.9401   30.2229 C   0  0  0  0  0  0
    2.7160    2.7690   28.7054 C   0  0  0  0  0  0
    2.3972    4.1184   28.0518 C   0  0  0  0  0  0
    1.2456    4.8489   28.7636 C   0  0  0  0  0  0
   -3.3185    2.3966   30.3740 H   0  0  0  0  0  0
   -5.4415    1.1628   30.1216 H   0  0  0  0  0  0
   -5.3968    6.1523   30.6083 H   0  0  0  0  0  0
   -8.3263    1.7065   29.9367 H   0  0  0  0  0  0
   -8.4246    5.7492   30.2071 H   0  0  0  0  0  0
   -1.3303    3.7104   31.3818 H   0  0  0  0  0  0
    0.9095    5.9257   31.9667 H   0  0  0  0  0  0
    0.9707    6.9527   30.5799 H   0  0  0  0  0  0
    0.8374    3.1570   30.9217 H   0  0  0  0  0  0
    2.0445    3.9408   31.9152 H   0  0  0  0  0  0
    2.9766    1.9574   30.6911 H   0  0  0  0  0  0
    3.8640    3.4237   30.4440 H   0  0  0  0  0  0
    3.6115    2.3570   28.2421 H   0  0  0  0  0  0
    1.9057    2.0653   28.5138 H   0  0  0  0  0  0
    3.2813    4.7563   28.0410 H   0  0  0  0  0  0
    2.1319    3.9575   27.0071 H   0  0  0  0  0  0
    0.3060    4.3133   28.6416 H   0  0  0  0  0  0
    1.1083    5.8316   28.3091 H   0  0  0  0  0  0
  1 10  1  0  0  0
  1  2  2  0  0  0
  1  4  1  0  0  0
  2  3  1  0  0  0
  2 22  1  0  0  0
  3  6  2  0  0  0
  3 23  1  0  0  0
  4  5  2  0  0  0
  4 24  1  0  0  0
  5  6  1  0  0  0
  5  9  1  0  0  0
  6  7  1  0  0  0
  7  8  1  0  0  0
  7 25  1  0  0  0
  8  9  2  0  0  0
  9 26  1  0  0  0
 10 11  2  0  0  0
 10 14  1  0  0  0
 11 12  1  0  0  0
 11 27  1  0  0  0
 12 13  2  0  0  0
 12 15  1  0  0  0
 13 14  1  0  0  0
 15 16  1  0  0  0
 15 28  1  0  0  0
 15 29  1  0  0  0
 16 17  1  0  0  0
 16 21  1  0  0  0
 17 18  1  0  0  0
 17 30  1  0  0  0
 17 31  1  0  0  0
 18 19  1  0  0  0
 18 32  1  0  0  0
 18 33  1  0  0  0
 19 20  1  0  0  0
 19 34  1  0  0  0
 19 35  1  0  0  0
 20 21  1  0  0  0
 20 36  1  0  0  0
 20 37  1  0  0  0
 21 38  1  0  0  0
 21 39  1  0  0  0
M  END
> <s_m_entry_id>
10244

> <s_m_entry_name>
dock_pv.313

> <s_m_Source_Path>
/home/csk/Desktop/cluster/DUD-E-result/met

> <s_m_Source_File>
dock_pv.maegz

> <i_m_Source_File_Index>
313

> <chembl_id>
CHEMBL1682360

> <chembl_pref_name>
None

> <i_lp_mmshare_version>
53161

> <i_f3d_flags>
0

> <r_lp_tautomer_probability>
0.980392156862745

> <s_lp_Force_Field>
OPLS_2005

> <r_lp_Energy>
17.406278

> <b_lp_Chiralities_Consistent>
1

> <s_lp_Variant>
CHEMBL3717_lig4230-1

> <s_i_glide_gridfile>
glide-grid_3lq8

> <i_i_glide_lignum>
5431

> <i_i_glide_rotatable_bonds>
3

> <r_i_docking_score>
-7.67306173013746

> <r_i_glide_ligand_efficiency>
-0.365383891911308

> <r_i_glide_ligand_efficiency_sa>
-1.00806645203131

> <r_i_glide_ligand_efficiency_ln>
-1.89714900789535

> <r_i_glide_gscore>
-7.67306173013746

> <r_i_glide_lipo>
-3.92356002233188

> <r_i_glide_hbond>
0

> <r_i_glide_metal>
0

> <r_i_glide_rewards>
-2.25384976481762

> <r_i_glide_evdw>
-36.9276542663574

> <r_i_glide_ecoul>
-2.20092964172363

> <r_i_glide_erotb>
0.680870216588459

> <r_i_glide_esite>
0

> <r_i_glide_emodel>
-54.8103074123836

> <r_i_glide_energy>
-39.1285839080811

> <r_i_glide_einternal>
2.72047209739685

> <i_i_glide_confnum>
22

> <i_i_glide_posenum>
9

> <r_i_glide_eff_state_penalty>
0

> <s_user_duplicate_titles>
CHEMBL3717_lig4230,CHEMBL3717_lig4230

> <s_m_subgroup_title>
dock_pv

> <s_m_subgroupid>
dock_pv

> <b_m_subgroup_collapsed>
1

$$$$
CHEMBL3717_lig4183
                    3D
 Schrodinger Suite 2021-1.
 52 55  0  0  1  0            999 V2000
   -2.6484    5.3674   30.5053 O   0  0  0  0  0  0
   -6.0274   -2.7506   29.8068 N   0  0  0  0  0  0
   -4.8936   -3.0799   30.4485 N   0  0  0  0  0  0
   -6.2887    5.0690   30.6467 N   0  0  0  0  0  0
   -0.6144    7.1568   29.6878 N   0  0  0  0  0  0
   -4.8460   -0.8787   30.5013 C   0  0  0  0  0  0
   -5.9971   -1.3840   29.8254 C   0  0  0  0  0  0
   -5.5906    1.3855   30.0768 C   0  0  0  0  0  0
   -4.6563    0.5008   30.6285 C   0  0  0  0  0  0
   -4.1264   -2.0312   30.8975 C   0  0  0  0  0  0
   -5.3828    2.8528   30.2255 C   0  0  0  0  0  0
   -6.9321   -0.4978   29.2743 C   0  0  0  0  0  0
   -6.7112    0.8728   29.4099 C   0  0  0  0  0  0
   -4.0946    3.4062   30.2082 C   0  0  0  0  0  0
   -3.8923    4.7704   30.4617 C   0  0  0  0  0  0
   -6.4489    3.7369   30.4483 C   0  0  0  0  0  0
   -5.0246    5.5592   30.6459 C   0  0  0  0  0  0
   -2.8112   -2.2019   31.6219 C   0  0  0  0  0  0
   -1.6008    4.6998   31.2219 C   0  0  0  0  0  0
   -0.2344    4.8338   30.5017 C   0  0  2  0  0  0
    0.8247    3.8789   31.1092 C   0  0  0  0  0  0
    2.1147    3.8397   30.2986 C   0  0  0  0  0  0
    0.2976    6.2893   30.4113 C   0  0  0  0  0  0
    3.2941    4.3572   30.8352 C   0  0  0  0  0  0
    2.0986    3.3393   28.9923 C   0  0  0  0  0  0
    4.4444    4.4171   30.0547 C   0  0  0  0  0  0
    3.2464    3.4015   28.2089 C   0  0  0  0  0  0
    4.4091    3.9558   28.7421 C   0  0  0  0  0  0
   -4.6175   -4.0503   30.5692 H   0  0  0  0  0  0
   -1.5502    7.0228   30.0538 H   0  0  0  0  0  0
   -0.3817    8.1355   29.8082 H   0  0  0  0  0  0
   -3.7927    0.8707   31.1603 H   0  0  0  0  0  0
   -7.8020   -0.8672   28.7518 H   0  0  0  0  0  0
   -7.4368    1.5505   28.9829 H   0  0  0  0  0  0
   -3.2446    2.7685   30.0200 H   0  0  0  0  0  0
   -7.4695    3.3811   30.4889 H   0  0  0  0  0  0
   -4.9287    6.6229   30.8080 H   0  0  0  0  0  0
   -2.8072   -1.6713   32.5754 H   0  0  0  0  0  0
   -2.5859   -3.2428   31.8381 H   0  0  0  0  0  0
   -1.9801   -1.8135   31.0329 H   0  0  0  0  0  0
   -1.8105    3.6447   31.4052 H   0  0  0  0  0  0
   -1.5498    5.1580   32.2081 H   0  0  0  0  0  0
   -0.3804    4.4742   29.4873 H   0  0  0  0  0  0
    0.4379    2.8602   31.1498 H   0  0  0  0  0  0
    1.0340    4.1540   32.1440 H   0  0  0  0  0  0
    0.4841    6.6865   31.4070 H   0  0  0  0  0  0
    1.2529    6.3221   29.8846 H   0  0  0  0  0  0
    3.3150    4.7529   31.8403 H   0  0  0  0  0  0
    1.1936    2.9225   28.5731 H   0  0  0  0  0  0
    5.3545    4.8392   30.4555 H   0  0  0  0  0  0
    3.2325    3.0228   27.1978 H   0  0  0  0  0  0
    5.3026    4.0042   28.1373 H   0  0  0  0  0  0
  1 15  1  0  0  0
  1 19  1  0  0  0
  2  3  1  0  0  0
  2  7  2  0  0  0
  3 29  1  0  0  0
  3 10  1  0  0  0
  4 16  1  0  0  0
  4 17  2  0  0  0
  5 23  1  0  0  0
  5 30  1  0  0  0
  5 31  1  0  0  0
  6  9  1  0  0  0
  6  7  1  0  0  0
  6 10  2  0  0  0
  7 12  1  0  0  0
  8 13  1  0  0  0
  8 11  1  0  0  0
  8  9  2  0  0  0
  9 32  1  0  0  0
 10 18  1  0  0  0
 11 14  1  0  0  0
 11 16  2  0  0  0
 12 33  1  0  0  0
 12 13  2  0  0  0
 13 34  1  0  0  0
 14 15  2  0  0  0
 14 35  1  0  0  0
 15 17  1  0  0  0
 16 36  1  0  0  0
 17 37  1  0  0  0
 18 38  1  0  0  0
 18 39  1  0  0  0
 18 40  1  0  0  0
 19 20  1  0  0  0
 19 41  1  0  0  0
 19 42  1  0  0  0
 20 21  1  0  0  0
 20 23  1  0  0  0
 20 43  1  0  0  0
 21 22  1  0  0  0
 21 44  1  0  0  0
 21 45  1  0  0  0
 22 24  2  0  0  0
 22 25  1  0  0  0
 23 46  1  0  0  0
 23 47  1  0  0  0
 24 26  1  0  0  0
 24 48  1  0  0  0
 25 27  2  0  0  0
 25 49  1  0  0  0
 26 28  2  0  0  0
 26 50  1  0  0  0
 27 28  1  0  0  0
 27 51  1  0  0  0
 28 52  1  0  0  0
M  END
> <s_m_entry_id>
10245

> <s_m_entry_name>
dock_pv.314

> <s_m_Source_Path>
/home/csk/Desktop/cluster/DUD-E-result/met

> <s_m_Source_File>
dock_pv.maegz

> <i_m_Source_File_Index>
314

> <chembl_id>
CHEMBL2000271

> <chembl_pref_name>
None

> <i_lp_mmshare_version>
53161

> <i_f3d_flags>
0

> <r_lp_tautomer_probability>
0.0196078431372549

> <s_lp_Force_Field>
OPLS_2005

> <r_lp_Energy>
39.881668

> <b_lp_Chiralities_Consistent>
1

> <s_lp_Variant>
CHEMBL3717_lig4183-3

> <s_i_glide_gridfile>
glide-grid_3lq8

> <i_i_glide_lignum>
5367

> <i_i_glide_rotatable_bonds>
7

> <r_i_docking_score>
-7.67262520410399

> <r_i_glide_ligand_efficiency>
-0.274022328718

> <r_i_glide_ligand_efficiency_sa>
-0.832093180508531

> <r_i_glide_ligand_efficiency_ln>
-1.77106717517214

> <r_i_glide_gscore>
-7.67262520410399

> <r_i_glide_lipo>
-4.2236608792264

> <r_i_glide_hbond>
-0.251498870747331

> <r_i_glide_metal>
0

> <r_i_glide_rewards>
-1.13307202049388

> <r_i_glide_evdw>
-43.5227165222168

> <r_i_glide_ecoul>
-3.48883628845215

> <r_i_glide_erotb>
0.696122130034739

> <r_i_glide_esite>
-0.0610542942924528

> <r_i_glide_emodel>
-64.7992698405067

> <r_i_glide_energy>
-47.0115528106689

> <r_i_glide_einternal>
4.71493577957153

> <i_i_glide_confnum>
32

> <i_i_glide_posenum>
285

> <r_i_glide_eff_state_penalty>
0

> <s_user_duplicate_titles>
CHEMBL3717_lig4183,CHEMBL3717_lig4183

> <s_m_subgroup_title>
dock_pv

> <s_m_subgroupid>
dock_pv

> <b_m_subgroup_collapsed>
1

$$$$
CHEMBL3717_lig3782
                    3D
 Schrodinger Suite 2021-1.
 41 44  0  0  1  0            999 V2000
   -0.9388   -1.6431   33.7185 F   0  0  0  0  0  0
   -5.2727    0.9960   29.4568 O   0  0  0  0  0  0
    2.8215    3.1566   28.4016 N   0  0  0  0  0  0
    4.0679    3.1614   28.8948 N   0  0  0  0  0  0
   -4.6516    3.0134   30.2080 N   0  0  0  0  0  0
   -3.7414    1.1603   31.1367 N   0  0  0  0  0  0
    0.1231    4.4197   30.6225 C   0  0  0  0  0  0
    2.0876    3.6411   29.4462 C   0  0  0  0  0  0
    2.8882    3.9440   30.5875 C   0  0  0  0  0  0
   -1.3318    4.7219   30.6458 C   0  0  0  0  0  0
    0.7056    3.8545   29.4807 C   0  0  0  0  0  0
    0.9238    4.7197   31.7275 C   0  0  0  0  0  0
    2.2915    4.4567   31.7415 C   0  0  0  0  0  0
   -2.2811    3.6956   30.6080 C   0  0  0  0  0  0
   -3.6592    3.9793   30.4997 C   0  0  0  0  0  0
    4.2021    3.6086   30.1834 C   0  0  0  0  0  0
   -1.7792    6.0453   30.6277 C   0  0  0  0  0  0
   -4.0783    5.3111   30.5274 C   0  0  0  0  0  0
   -4.5773    1.6659   30.2145 C   0  0  0  0  0  0
   -3.1423    6.3393   30.6081 C   0  0  0  0  0  0
   -3.1890   -0.1127   31.2774 C   0  0  0  0  0  0
   -2.4464   -0.3161   32.4448 C   0  0  0  0  0  0
   -1.6931   -1.4749   32.6079 C   0  0  0  0  0  0
   -3.2285   -1.1110   30.2924 C   0  0  0  0  0  0
   -1.6972   -2.4430   31.6088 C   0  0  0  0  0  0
   -2.4800   -2.2753   30.4644 C   0  0  0  0  0  0
    4.8503    2.8244   28.3437 H   0  0  0  0  0  0
   -5.4905    3.3876   29.7930 H   0  0  0  0  0  0
   -3.4231    1.8262   31.8211 H   0  0  0  0  0  0
    0.1059    3.6006   28.6203 H   0  0  0  0  0  0
    0.4764    5.1571   32.6064 H   0  0  0  0  0  0
    2.8868    4.6945   32.6082 H   0  0  0  0  0  0
   -1.9060    2.6867   30.5431 H   0  0  0  0  0  0
    5.1725    3.6461   30.6530 H   0  0  0  0  0  0
   -1.0637    6.8547   30.6311 H   0  0  0  0  0  0
   -5.1261    5.5624   30.4410 H   0  0  0  0  0  0
   -3.4714    7.3662   30.6168 H   0  0  0  0  0  0
   -2.4028    0.4416   33.2136 H   0  0  0  0  0  0
   -3.7846   -0.9807   29.3748 H   0  0  0  0  0  0
   -1.0849   -3.3215   31.7244 H   0  0  0  0  0  0
   -2.4905   -3.0432   29.7031 H   0  0  0  0  0  0
  1 23  1  0  0  0
  2 19  2  0  0  0
  3  4  1  0  0  0
  3  8  2  0  0  0
  4 27  1  0  0  0
  4 16  1  0  0  0
  5 15  1  0  0  0
  5 19  1  0  0  0
  5 28  1  0  0  0
  6 19  1  0  0  0
  6 21  1  0  0  0
  6 29  1  0  0  0
  7 11  2  0  0  0
  7 10  1  0  0  0
  7 12  1  0  0  0
  8 11  1  0  0  0
  8  9  1  0  0  0
  9 13  1  0  0  0
  9 16  2  0  0  0
 10 14  2  0  0  0
 10 17  1  0  0  0
 11 30  1  0  0  0
 12 31  1  0  0  0
 12 13  2  0  0  0
 13 32  1  0  0  0
 14 15  1  0  0  0
 14 33  1  0  0  0
 15 18  2  0  0  0
 16 34  1  0  0  0
 17 20  2  0  0  0
 17 35  1  0  0  0
 18 20  1  0  0  0
 18 36  1  0  0  0
 20 37  1  0  0  0
 21 22  2  0  0  0
 21 24  1  0  0  0
 22 23  1  0  0  0
 22 38  1  0  0  0
 23 25  2  0  0  0
 24 26  2  0  0  0
 24 39  1  0  0  0
 25 26  1  0  0  0
 25 40  1  0  0  0
 26 41  1  0  0  0
M  END
> <s_m_entry_id>
10246

> <s_m_entry_name>
dock_pv.315

> <s_m_Source_Path>
/home/csk/Desktop/cluster/DUD-E-result/met

> <s_m_Source_File>
dock_pv.maegz

> <i_m_Source_File_Index>
315

> <chembl_id>
CHEMBL1983393

> <chembl_pref_name>
None

> <i_lp_mmshare_version>
53161

> <i_f3d_flags>
0

> <r_lp_tautomer_probability>
0.0196078431372549

> <s_lp_Force_Field>
OPLS_2005

> <r_lp_Energy>
42.204514

> <b_lp_Chiralities_Consistent>
1

> <s_lp_Variant>
CHEMBL3717_lig3782-2

> <s_i_glide_gridfile>
glide-grid_3lq8

> <i_i_glide_lignum>
4788

> <i_i_glide_rotatable_bonds>
5

> <r_i_docking_score>
-7.66478041147666

> <r_i_glide_ligand_efficiency>
-0.294799246595256

> <r_i_glide_ligand_efficiency_sa>
-0.873341608059424

> <r_i_glide_ligand_efficiency_ln>
-1.80004852943942

> <r_i_glide_gscore>
-7.66478041147666

> <r_i_glide_lipo>
-4.18988574721944

> <r_i_glide_hbond>
-0.32

> <r_i_glide_metal>
0

> <r_i_glide_rewards>
-1.56556515402091

> <r_i_glide_evdw>
-42.6464576721191

> <r_i_glide_ecoul>
-0.606019258499146

> <r_i_glide_erotb>
0.63389626214452

> <r_i_glide_esite>
0

> <r_i_glide_emodel>
-53.2233320042722

> <r_i_glide_energy>
-43.2524769306183

> <r_i_glide_einternal>
8.30240440368652

> <i_i_glide_confnum>
3

> <i_i_glide_posenum>
207

> <r_i_glide_eff_state_penalty>
0

> <s_user_duplicate_titles>
CHEMBL3717_lig3782

> <s_m_subgroup_title>
dock_pv

> <s_m_subgroupid>
dock_pv

> <b_m_subgroup_collapsed>
1

$$$$
CHEMBL3717_lig434
                    3D
 Schrodinger Suite 2021-1.
 51 56  0  0  1  0            999 V2000
   -3.7845    4.8305   30.6088 C   0  0  0  0  0  0
   -4.7754    5.7483   30.9576 C   0  0  0  0  0  0
   -6.0999    5.4687   31.0085 N   0  0  0  0  0  0
   -4.1497    3.5241   30.2684 C   0  0  0  0  0  0
   -5.5228    3.2375   30.2670 C   0  0  0  0  0  0
   -6.4681    4.2329   30.6622 C   0  0  0  0  0  0
   -7.7668    3.6453   30.6208 C   0  0  0  0  0  0
   -7.5908    2.3518   30.1773 C   0  0  0  0  0  0
   -6.2573    2.1162   29.9133 N   0  0  0  0  0  0
   -5.6820    0.6393   29.2507 S   0  0  0  0  0  0
   -5.5149   -0.4938   30.6279 C   0  0  0  0  0  0
   -6.7805    0.1512   28.4086 O   0  0  0  0  0  0
   -4.3578    0.9356   28.6922 O   0  0  0  0  0  0
   -6.6682   -1.0877   31.1512 C   0  0  0  0  0  0
   -6.6036   -2.0380   32.1694 C   0  0  0  0  0  0
   -5.3821   -2.4447   32.7072 C   0  0  0  0  0  0
   -4.2737   -0.8724   31.1807 C   0  0  0  0  0  0
   -4.2119   -1.8544   32.2061 C   0  0  0  0  0  0
   -2.9216   -2.0920   32.5639 N   0  0  0  0  0  0
   -2.2074   -1.2078   31.7502 O   0  0  0  0  0  0
   -3.0122   -0.4490   30.8934 N   0  0  0  0  0  0
   -2.3677    5.2747   30.5950 C   0  0  0  0  0  0
   -1.8587    6.5263   30.2081 C   0  0  0  0  0  0
   -0.5500    6.5844   30.2063 N   0  0  0  0  0  0
   -0.1572    5.3837   30.6422 N   0  0  0  0  0  0
   -1.2245    4.5401   30.8542 C   0  0  0  0  0  0
    1.2725    5.0622   30.6253 C   0  0  0  0  0  0
    1.6167    4.2559   31.8958 C   0  0  0  0  0  0
    2.9913    3.5811   31.8079 C   0  0  0  0  0  0
    3.0908    2.7570   30.6079 N   0  0  2  0  0  0
    2.9615    3.5681   29.3985 C   0  0  0  0  0  0
    1.5671    4.2269   29.3538 C   0  0  0  0  0  0
   -4.4938    6.7571   31.2156 H   0  0  0  0  0  0
   -3.4129    2.7788   30.0120 H   0  0  0  0  0  0
   -8.7114    4.1080   30.8628 H   0  0  0  0  0  0
   -8.3224    1.5797   29.9804 H   0  0  0  0  0  0
   -7.6340   -0.8216   30.7458 H   0  0  0  0  0  0
   -7.5204   -2.4784   32.5386 H   0  0  0  0  0  0
   -5.3376   -3.1954   33.4825 H   0  0  0  0  0  0
   -2.4420    7.3767   29.9001 H   0  0  0  0  0  0
   -1.0848    3.5050   31.1266 H   0  0  0  0  0  0
    1.8275    6.0029   30.5986 H   0  0  0  0  0  0
    0.8458    3.5570   32.2080 H   0  0  0  0  0  0
    1.6774    4.9594   32.7256 H   0  0  0  0  0  0
    3.1065    2.9238   32.6712 H   0  0  0  0  0  0
    3.7972    4.3170   31.8362 H   0  0  0  0  0  0
    2.3139    2.1078   30.6103 H   0  0  0  0  0  0
    3.0920    2.9128   28.5347 H   0  0  0  0  0  0
    3.7562    4.3164   29.3595 H   0  0  0  0  0  0
    1.5816    4.9080   28.5031 H   0  0  0  0  0  0
    0.7825    3.5139   29.0968 H   0  0  0  0  0  0
  1  4  1  0  0  0
  1 22  1  0  0  0
  1  2  2  0  0  0
  2  3  1  0  0  0
  2 33  1  0  0  0
  3  6  2  0  0  0
  4  5  2  0  0  0
  4 34  1  0  0  0
  5  9  1  0  0  0
  5  6  1  0  0  0
  6  7  1  0  0  0
  7  8  2  0  0  0
  7 35  1  0  0  0
  8  9  1  0  0  0
  8 36  1  0  0  0
  9 10  1  0  0  0
 10 11  1  0  0  0
 10 12  2  0  0  0
 10 13  2  0  0  0
 11 17  1  0  0  0
 11 14  2  0  0  0
 14 15  1  0  0  0
 14 37  1  0  0  0
 15 16  2  0  0  0
 15 38  1  0  0  0
 16 18  1  0  0  0
 16 39  1  0  0  0
 17 18  1  0  0  0
 17 21  2  0  0  0
 18 19  2  0  0  0
 19 20  1  0  0  0
 20 21  1  0  0  0
 22 23  1  0  0  0
 22 26  2  0  0  0
 23 24  2  0  0  0
 23 40  1  0  0  0
 24 25  1  0  0  0
 25 26  1  0  0  0
 25 27  1  0  0  0
 26 41  1  0  0  0
 27 28  1  0  0  0
 27 32  1  0  0  0
 27 42  1  0  0  0
 28 29  1  0  0  0
 28 43  1  0  0  0
 28 44  1  0  0  0
 29 30  1  0  0  0
 29 45  1  0  0  0
 29 46  1  0  0  0
 30 31  1  0  0  0
 30 47  1  0  0  0
 31 32  1  0  0  0
 31 48  1  0  0  0
 31 49  1  0  0  0
 32 50  1  0  0  0
 32 51  1  0  0  0
M  END
> <s_m_entry_id>
10247

> <s_m_entry_name>
dock_pv.316

> <s_m_Source_Path>
/home/csk/Desktop/cluster/DUD-E-result/met

> <s_m_Source_File>
dock_pv.maegz

> <i_m_Source_File_Index>
316

> <chembl_id>
CHEMBL554497

> <chembl_pref_name>
None

> <i_lp_mmshare_version>
53161

> <i_f3d_flags>
0

> <r_lp_tautomer_probability>
1

> <s_lp_Force_Field>
OPLS_2005

> <r_lp_Energy>
19.965233

> <b_lp_Chiralities_Consistent>
1

> <s_lp_Variant>
CHEMBL3717_lig434-1

> <s_i_glide_gridfile>
glide-grid_3lq8

> <i_i_glide_lignum>
458

> <i_i_glide_rotatable_bonds>
4

> <r_i_docking_score>
-7.66047229692953

> <r_i_glide_ligand_efficiency>
-0.239389759279048

> <r_i_glide_ligand_efficiency_sa>
-0.760015110541945

> <r_i_glide_ligand_efficiency_ln>
-1.71538856387072

> <r_i_glide_gscore>
-7.66047229692953

> <r_i_glide_lipo>
-4.02066042300169

> <r_i_glide_hbond>
0

> <r_i_glide_metal>
0

> <r_i_glide_rewards>
-1.26894266069474

> <r_i_glide_evdw>
-52.9930152893066

> <r_i_glide_ecoul>
-0.607113659381866

> <r_i_glide_erotb>
0.396782139734922

> <r_i_glide_esite>
-0.0269335395954033

> <r_i_glide_emodel>
-74.1856450621682

> <r_i_glide_energy>
-53.6001289486885

> <r_i_glide_einternal>
4.45785284042358

> <i_i_glide_confnum>
6

> <i_i_glide_posenum>
201

> <r_i_glide_eff_state_penalty>
0

> <s_user_duplicate_titles>
CHEMBL3717_lig434,560417

> <s_m_subgroup_title>
dock_pv

> <s_m_subgroupid>
dock_pv

> <b_m_subgroup_collapsed>
1

$$$$
CHEMBL3717_lig1523
                    3D
 Schrodinger Suite 2021-1.
 48 52  0  0  1  0            999 V2000
   -0.9475    4.3253   30.6103 C   0  0  0  0  0  0
   -1.5013    5.6102   30.6350 C   0  0  0  0  0  0
   -2.8886    5.7755   30.6294 C   0  0  0  0  0  0
   -1.6955    3.1844   30.6083 N   0  0  0  0  0  0
   -3.0307    3.3762   30.6080 N   0  0  0  0  0  0
   -3.6844    4.6215   30.6080 C   0  0  0  0  0  0
   -5.0194    4.4346   30.6026 N   0  0  0  0  0  0
   -5.2146    3.0652   30.6079 N   0  0  0  0  0  0
   -4.0507    2.4349   30.6051 C   0  0  0  0  0  0
   -3.8530    0.9032   30.6215 C   0  0  2  0  0  0
   -5.1230    0.0810   30.2905 C   0  0  0  0  0  0
   -5.4559   -1.0815   31.0002 C   0  0  0  0  0  0
   -6.6235   -1.7915   30.7326 C   0  0  0  0  0  0
   -5.9620    0.4879   29.2444 C   0  0  0  0  0  0
    0.5216    4.1345   30.5392 C   0  0  0  0  0  0
    1.1057    3.5568   29.4069 C   0  0  0  0  0  0
    2.4856    3.3747   29.3182 C   0  0  0  0  0  0
    3.3121    3.7850   30.3724 C   0  0  0  0  0  0
    2.7346    4.3566   31.5069 C   0  0  0  0  0  0
    1.3549    4.5503   31.5826 C   0  0  0  0  0  0
    4.6728    3.5886   30.3521 O   0  0  0  0  0  0
   -7.1762   -0.1849   28.9735 C   0  0  0  0  0  0
   -7.5140   -1.3440   29.7330 C   0  0  0  0  0  0
   -8.6752   -2.0280   29.5311 N   0  0  0  0  0  0
   -9.5351   -1.5663   28.5912 C   0  0  0  0  0  0
   -9.2889   -0.4403   27.8104 C   0  0  0  0  0  0
   -8.0946    0.2548   27.9863 C   0  0  0  0  0  0
    3.0077    2.7912   28.2140 F   0  0  0  0  0  0
   -3.0929    0.4222   31.8830 C   0  0  0  0  0  0
    5.3818    4.3969   29.4193 C   0  0  0  0  0  0
   -0.8559    6.4775   30.6318 H   0  0  0  0  0  0
   -3.3418    6.7554   30.6409 H   0  0  0  0  0  0
   -3.1887    0.6676   29.7986 H   0  0  0  0  0  0
   -4.8218   -1.4543   31.7892 H   0  0  0  0  0  0
   -6.8653   -2.6771   31.3033 H   0  0  0  0  0  0
   -5.7111    1.3528   28.6502 H   0  0  0  0  0  0
    0.4795    3.2223   28.5930 H   0  0  0  0  0  0
    3.3644    4.6602   32.3289 H   0  0  0  0  0  0
    0.9314    5.0061   32.4658 H   0  0  0  0  0  0
  -10.4481   -2.1300   28.4663 H   0  0  0  0  0  0
  -10.0086   -0.1165   27.0723 H   0  0  0  0  0  0
   -7.8756    1.1313   27.3919 H   0  0  0  0  0  0
   -3.7483    0.3559   32.7508 H   0  0  0  0  0  0
   -2.6686   -0.5703   31.7261 H   0  0  0  0  0  0
   -2.2628    1.0752   32.1496 H   0  0  0  0  0  0
    6.4525    4.2268   29.5320 H   0  0  0  0  0  0
    5.1213    4.1567   28.3879 H   0  0  0  0  0  0
    5.1961    5.4594   29.5869 H   0  0  0  0  0  0
  1  2  1  0  0  0
  1  4  2  0  0  0
  1 15  1  0  0  0
  2  3  2  0  0  0
  2 31  1  0  0  0
  3  6  1  0  0  0
  3 32  1  0  0  0
  4  5  1  0  0  0
  5  6  1  0  0  0
  5  9  1  0  0  0
  6  7  2  0  0  0
  7  8  1  0  0  0
  8  9  2  0  0  0
  9 10  1  0  0  0
 10 11  1  0  0  0
 10 29  1  0  0  0
 10 33  1  0  0  0
 11 12  2  0  0  0
 11 14  1  0  0  0
 12 13  1  0  0  0
 12 34  1  0  0  0
 13 23  2  0  0  0
 13 35  1  0  0  0
 14 22  2  0  0  0
 14 36  1  0  0  0
 15 16  2  0  0  0
 15 20  1  0  0  0
 16 17  1  0  0  0
 16 37  1  0  0  0
 17 18  2  0  0  0
 17 28  1  0  0  0
 18 19  1  0  0  0
 18 21  1  0  0  0
 19 20  2  0  0  0
 19 38  1  0  0  0
 20 39  1  0  0  0
 21 30  1  0  0  0
 22 23  1  0  0  0
 22 27  1  0  0  0
 23 24  1  0  0  0
 24 25  2  0  0  0
 25 26  1  0  0  0
 25 40  1  0  0  0
 26 27  2  0  0  0
 26 41  1  0  0  0
 27 42  1  0  0  0
 29 43  1  0  0  0
 29 44  1  0  0  0
 29 45  1  0  0  0
 30 46  1  0  0  0
 30 47  1  0  0  0
 30 48  1  0  0  0
M  END
> <s_m_entry_id>
10248

> <s_m_entry_name>
dock_pv.317

> <s_m_Source_Path>
/home/csk/Desktop/cluster/DUD-E-result/met

> <s_m_Source_File>
dock_pv.maegz

> <i_m_Source_File_Index>
317

> <chembl_id>
CHEMBL2431823

> <chembl_pref_name>
None

> <i_lp_mmshare_version>
53161

> <i_f3d_flags>
0

> <r_lp_tautomer_probability>
1

> <s_lp_Force_Field>
OPLS_2005

> <r_lp_Energy>
28.601727

> <b_lp_Chiralities_Consistent>
1

> <s_lp_Variant>
CHEMBL3717_lig1523-1

> <s_i_glide_gridfile>
glide-grid_3lq8

> <i_i_glide_lignum>
1749

> <i_i_glide_rotatable_bonds>
4

> <r_i_docking_score>
-7.65829970535071

> <r_i_glide_ligand_efficiency>
-0.255276656845024

> <r_i_glide_ligand_efficiency_sa>
-0.793203925260805

> <r_i_glide_ligand_efficiency_ln>
-1.7400491369143

> <r_i_glide_gscore>
-7.65829970535071

> <r_i_glide_lipo>
-3.41406302023444

> <r_i_glide_hbond>
0

> <r_i_glide_metal>
0

> <r_i_glide_rewards>
-2.61512752033991

> <r_i_glide_evdw>
-44.6357917785645

> <r_i_glide_ecoul>
1.56146597862244

> <r_i_glide_erotb>
0.368460527358504

> <r_i_glide_esite>
0

> <r_i_glide_emodel>
-56.2104136257396

> <r_i_glide_energy>
-43.074325799942

> <r_i_glide_einternal>
11.3678684234619

> <i_i_glide_confnum>
1

> <i_i_glide_posenum>
51

> <r_i_glide_eff_state_penalty>
0

> <s_user_duplicate_titles>
CHEMBL3717_lig1523

> <s_m_subgroup_title>
dock_pv

> <s_m_subgroupid>
dock_pv

> <b_m_subgroup_collapsed>
1

$$$$
CHEMBL3717_lig2492
                    3D
 Schrodinger Suite 2021-1.
 51 55  0  0  1  0            999 V2000
    3.0568    4.1930   29.5578 C   0  0  0  0  0  0
    1.6258    4.2301   29.8412 N   0  0  0  0  0  0
    0.9662    5.2893   30.3450 C   0  0  0  0  0  0
    1.5059    6.3551   30.6086 O   0  0  0  0  0  0
   -0.5210    5.1226   30.5281 C   0  0  0  0  0  0
   -1.0178    3.8790   30.9347 C   0  0  0  0  0  0
   -2.3828    3.6398   30.9634 C   0  0  0  0  0  0
   -3.3005    4.6357   30.6084 C   0  0  0  0  0  0
   -2.8134    5.9074   30.3002 C   0  0  0  0  0  0
   -1.4386    6.1640   30.2442 C   0  0  0  0  0  0
   -1.0011    7.5565   29.8080 C   0  0  0  0  0  0
   -4.7546    4.3325   30.5716 C   0  0  0  0  0  0
   -5.7370    5.2271   31.0089 C   0  0  0  0  0  0
   -7.0501    4.8834   31.1239 N   0  0  0  0  0  0
   -7.3640    3.6249   30.7860 C   0  0  0  0  0  0
   -8.5666    3.0058   30.8558 N   0  0  0  0  0  0
   -8.3223    1.7900   30.4085 C   0  0  0  0  0  0
   -6.9949    1.5628   30.0288 C   0  0  0  0  0  0
   -6.3181    0.3630   29.3738 C   0  0  0  0  0  0
   -5.1409   -0.3372   30.0660 C   0  0  0  0  0  0
   -4.7512   -1.5711   29.5427 C   0  0  0  0  0  0
   -3.6666   -2.2716   30.0548 C   0  0  0  0  0  0
   -2.9149   -1.7266   31.1139 C   0  0  0  0  0  0
   -1.8708   -2.4429   31.6038 N   0  0  0  0  0  0
   -1.1696   -1.9410   32.6419 C   0  0  0  0  0  0
   -1.3888   -0.6797   33.1741 C   0  0  0  0  0  0
   -2.4354    0.0821   32.6629 C   0  0  0  0  0  0
   -3.2707   -0.4530   31.6454 C   0  0  0  0  0  0
   -4.4165    0.2093   31.1360 C   0  0  0  0  0  0
   -6.3718    2.7611   30.2935 N   0  0  0  0  0  0
   -5.0783    3.0822   30.1477 N   0  0  0  0  0  0
    3.4792    3.2508   29.9067 H   0  0  0  0  0  0
    3.6051    5.0041   30.0401 H   0  0  0  0  0  0
    3.2257    4.2626   28.4826 H   0  0  0  0  0  0
    1.0918    3.4141   29.5814 H   0  0  0  0  0  0
   -0.3505    3.0685   31.1909 H   0  0  0  0  0  0
   -2.7272    2.6544   31.2379 H   0  0  0  0  0  0
   -3.5138    6.6891   30.0473 H   0  0  0  0  0  0
   -1.8394    8.1833   29.5139 H   0  0  0  0  0  0
   -0.4686    8.0686   30.6076 H   0  0  0  0  0  0
   -0.3244    7.4959   28.9556 H   0  0  0  0  0  0
   -5.4750    6.2242   31.3268 H   0  0  0  0  0  0
   -9.1203    1.0652   30.3292 H   0  0  0  0  0  0
   -7.0777   -0.3976   29.1843 H   0  0  0  0  0  0
   -5.9647    0.6522   28.3824 H   0  0  0  0  0  0
   -5.2941   -1.9980   28.7113 H   0  0  0  0  0  0
   -3.3947   -3.2360   29.6473 H   0  0  0  0  0  0
   -0.4073   -2.5861   33.0440 H   0  0  0  0  0  0
   -0.7722   -0.3060   33.9768 H   0  0  0  0  0  0
   -2.5784    1.0737   33.0516 H   0  0  0  0  0  0
   -4.7053    1.1370   31.5975 H   0  0  0  0  0  0
  1  2  1  0  0  0
  1 32  1  0  0  0
  1 33  1  0  0  0
  1 34  1  0  0  0
  2  3  1  0  0  0
  2 35  1  0  0  0
  3  4  2  0  0  0
  3  5  1  0  0  0
  5  6  2  0  0  0
  5 10  1  0  0  0
  6  7  1  0  0  0
  6 36  1  0  0  0
  7  8  2  0  0  0
  7 37  1  0  0  0
  8  9  1  0  0  0
  8 12  1  0  0  0
  9 10  2  0  0  0
  9 38  1  0  0  0
 10 11  1  0  0  0
 11 39  1  0  0  0
 11 40  1  0  0  0
 11 41  1  0  0  0
 12 13  1  0  0  0
 12 31  2  0  0  0
 13 14  2  0  0  0
 13 42  1  0  0  0
 14 15  1  0  0  0
 15 16  2  0  0  0
 15 30  1  0  0  0
 16 17  1  0  0  0
 17 18  2  0  0  0
 17 43  1  0  0  0
 18 19  1  0  0  0
 18 30  1  0  0  0
 19 20  1  0  0  0
 19 44  1  0  0  0
 19 45  1  0  0  0
 20 21  2  0  0  0
 20 29  1  0  0  0
 21 22  1  0  0  0
 21 46  1  0  0  0
 22 23  2  0  0  0
 22 47  1  0  0  0
 23 24  1  0  0  0
 23 28  1  0  0  0
 24 25  2  0  0  0
 25 26  1  0  0  0
 25 48  1  0  0  0
 26 27  2  0  0  0
 26 49  1  0  0  0
 27 28  1  0  0  0
 27 50  1  0  0  0
 28 29  2  0  0  0
 29 51  1  0  0  0
 30 31  1  0  0  0
M  END
> <s_m_entry_id>
10249

> <s_m_entry_name>
dock_pv.318

> <s_m_Source_Path>
/home/csk/Desktop/cluster/DUD-E-result/met

> <s_m_Source_File>
dock_pv.maegz

> <i_m_Source_File_Index>
318

> <chembl_id>
CHEMBL3659624

> <chembl_pref_name>
None

> <i_lp_mmshare_version>
53161

> <i_f3d_flags>
0

> <r_lp_tautomer_probability>
1

> <s_lp_Force_Field>
OPLS_2005

> <r_lp_Energy>
32.978581

> <b_lp_Chiralities_Consistent>
1

> <s_lp_Variant>
CHEMBL3717_lig2492-1

> <s_i_glide_gridfile>
glide-grid_3lq8

> <i_i_glide_lignum>
2822

> <i_i_glide_rotatable_bonds>
5

> <r_i_docking_score>
-7.65801410132201

> <r_i_glide_ligand_efficiency>
-0.247032712945871

> <r_i_glide_ligand_efficiency_sa>
-0.776023784067632

> <r_i_glide_ligand_efficiency_ln>
-1.72711686979512

> <r_i_glide_gscore>
-7.65801410132201

> <r_i_glide_lipo>
-3.77432917346121

> <r_i_glide_hbond>
0

> <r_i_glide_metal>
0

> <r_i_glide_rewards>
-1.85712516180232

> <r_i_glide_evdw>
-46.0081367492676

> <r_i_glide_ecoul>
-1.32020056247711

> <r_i_glide_erotb>
0.471877155776458

> <r_i_glide_esite>
0

> <r_i_glide_emodel>
-65.671964852319

> <r_i_glide_energy>
-47.3283373117447

> <r_i_glide_einternal>
2.90494179725647

> <i_i_glide_confnum>
6

> <i_i_glide_posenum>
4

> <r_i_glide_eff_state_penalty>
0

> <s_user_duplicate_titles>
CHEMBL3717_lig2492

> <s_m_subgroup_title>
dock_pv

> <s_m_subgroupid>
dock_pv

> <b_m_subgroup_collapsed>
1

$$$$
CHEMBL3717_lig3328 
                    3D
 Schrodinger Suite 2021-1.
 41 45  0  0  1  0            999 V2000
   -4.9098    5.5568   30.9938 C   0  0  0  0  0  0
   -3.8595    4.7104   30.6061 C   0  0  0  0  0  0
   -4.0948    3.4274   30.2045 N   0  0  0  0  0  0
   -6.2147    5.1624   31.0073 N   0  0  0  0  0  0
   -6.4464    3.9069   30.6092 C   0  0  0  0  0  0
   -5.3817    3.0643   30.2078 C   0  0  0  0  0  0
   -5.9832    1.8795   29.8267 N   0  0  0  0  0  0
   -7.3295    2.0704   30.0698 C   0  0  0  0  0  0
   -7.6475    3.2577   30.5275 N   0  0  0  0  0  0
   -5.3735    0.6930   29.2220 C   0  0  0  0  0  0
   -4.3885   -0.1278   30.0562 C   0  0  0  0  0  0
   -4.0535   -1.4047   29.5985 C   0  0  0  0  0  0
   -3.1088   -2.1849   30.2553 C   0  0  0  0  0  0
   -3.7816    0.3637   31.2166 C   0  0  0  0  0  0
   -2.7936   -0.3879   31.8863 C   0  0  0  0  0  0
   -2.4582   -1.6857   31.4024 C   0  0  0  0  0  0
   -1.5164   -2.4526   32.0113 N   0  0  0  0  0  0
   -0.8942   -1.9684   33.1093 C   0  0  0  0  0  0
   -1.1246   -0.7007   33.6222 C   0  0  0  0  0  0
   -2.0901    0.1034   33.0124 C   0  0  0  0  0  0
   -2.4317    5.1441   30.6152 C   0  0  0  0  0  0
   -2.0803    6.4382   30.2112 C   0  0  0  0  0  0
   -0.7460    6.8362   30.1752 C   0  0  0  0  0  0
    0.2513    5.9423   30.5544 C   0  0  0  0  0  0
   -0.0768    4.6568   30.9766 C   0  0  0  0  0  0
   -1.4125    4.2623   31.0078 C   0  0  0  0  0  0
   -4.7176    6.5695   31.3122 H   0  0  0  0  0  0
   -8.0285    1.2771   29.8522 H   0  0  0  0  0  0
   -4.8513    1.0215   28.3244 H   0  0  0  0  0  0
   -6.1753    0.0371   28.8773 H   0  0  0  0  0  0
   -4.5156   -1.7972   28.7034 H   0  0  0  0  0  0
   -2.8603   -3.1707   29.8834 H   0  0  0  0  0  0
   -4.0291    1.3283   31.6198 H   0  0  0  0  0  0
   -0.1801   -2.6257   33.5828 H   0  0  0  0  0  0
   -0.5526   -0.3754   34.4816 H   0  0  0  0  0  0
   -2.2923    1.0951   33.3885 H   0  0  0  0  0  0
   -2.8408    7.1399   29.9036 H   0  0  0  0  0  0
   -0.4836    7.8338   29.8505 H   0  0  0  0  0  0
    1.2860    6.2507   30.5289 H   0  0  0  0  0  0
    0.6979    3.9653   31.2741 H   0  0  0  0  0  0
   -1.6516    3.2588   31.3282 H   0  0  0  0  0  0
  1  2  2  0  0  0
  1  4  1  0  0  0
  1 27  1  0  0  0
  2  3  1  0  0  0
  2 21  1  0  0  0
  3  6  2  0  0  0
  4  5  2  0  0  0
  5  6  1  0  0  0
  5  9  1  0  0  0
  6  7  1  0  0  0
  7  8  1  0  0  0
  7 10  1  0  0  0
  8  9  2  0  0  0
  8 28  1  0  0  0
 10 11  1  0  0  0
 10 29  1  0  0  0
 10 30  1  0  0  0
 11 12  2  0  0  0
 11 14  1  0  0  0
 12 13  1  0  0  0
 12 31  1  0  0  0
 13 16  2  0  0  0
 13 32  1  0  0  0
 14 15  2  0  0  0
 14 33  1  0  0  0
 15 16  1  0  0  0
 15 20  1  0  0  0
 16 17  1  0  0  0
 17 18  2  0  0  0
 18 19  1  0  0  0
 18 34  1  0  0  0
 19 20  2  0  0  0
 19 35  1  0  0  0
 20 36  1  0  0  0
 21 22  2  0  0  0
 21 26  1  0  0  0
 22 23  1  0  0  0
 22 37  1  0  0  0
 23 24  2  0  0  0
 23 38  1  0  0  0
 24 25  1  0  0  0
 24 39  1  0  0  0
 25 26  2  0  0  0
 25 40  1  0  0  0
 26 41  1  0  0  0
M  END
> <s_m_entry_id>
10250

> <s_m_entry_name>
dock_pv.319

> <s_m_Source_Path>
/home/csk/Desktop/cluster/DUD-E-result/met

> <s_m_Source_File>
dock_pv.maegz

> <i_m_Source_File_Index>
319

> <chembl_id>
CHEMBL4522638

> <chembl_pref_name>
None

> <i_lp_mmshare_version>
53161

> <i_f3d_flags>
0

> <r_lp_tautomer_probability>
1

> <s_lp_Force_Field>
OPLS_2005

> <r_lp_Energy>
27.23206

> <b_lp_Chiralities_Consistent>
1

> <s_lp_Variant>
CHEMBL3717_lig3328 -1

> <s_i_glide_gridfile>
glide-grid_3lq8

> <i_i_glide_lignum>
4051

> <i_i_glide_rotatable_bonds>
3

> <r_i_docking_score>
-7.65788114578804

> <r_i_glide_ligand_efficiency>
-0.294533890222617

> <r_i_glide_ligand_efficiency_sa>
-0.872555490849608

> <r_i_glide_ligand_efficiency_ln>
-1.79842825953079

> <r_i_glide_gscore>
-7.65788114578804

> <r_i_glide_lipo>
-3.50297299938146

> <r_i_glide_hbond>
0

> <r_i_glide_metal>
0

> <r_i_glide_rewards>
-2.3769297780449

> <r_i_glide_evdw>
-41.5537071228027

> <r_i_glide_ecoul>
-1.3226101398468

> <r_i_glide_erotb>
0.49809850875548

> <r_i_glide_esite>
0

> <r_i_glide_emodel>
-59.4188811822642

> <r_i_glide_energy>
-42.8763172626495

> <r_i_glide_einternal>
1.80391621589661

> <i_i_glide_confnum>
16

> <i_i_glide_posenum>
194

> <r_i_glide_eff_state_penalty>
0

> <s_user_duplicate_titles>
CHEMBL3717_lig3328 

> <s_m_subgroup_title>
dock_pv

> <s_m_subgroupid>
dock_pv

> <b_m_subgroup_collapsed>
1

$$$$
CHEMBL3717_lig4177
                    3D
 Schrodinger Suite 2021-1.
 42 46  0  0  1  0            999 V2000
   -0.7933    3.4429   30.9155 O   0  0  0  0  0  0
   -3.7566    0.0523   30.6041 O   0  0  0  0  0  0
   -7.2955    4.7569   30.0278 N   0  0  0  0  0  0
   -2.4774    4.9919   30.7576 N   0  0  0  0  0  0
   -5.9131   -0.1435   30.0304 N   0  0  0  0  0  0
   -7.2675    0.0577   29.8272 N   0  0  0  0  0  0
   -6.0618    2.8851   30.2077 C   0  0  0  0  0  0
   -4.8987    2.1286   30.3795 C   0  0  0  0  0  0
   -6.0089    4.3088   30.2420 C   0  0  0  0  0  0
   -7.4067    2.5133   29.9583 C   0  0  0  0  0  0
   -0.2150    5.7814   31.0077 C   0  0  1  0  0  0
    1.2176    5.7616   30.4978 C   0  0  1  0  0  0
   -3.6536    4.2404   30.6037 C   0  0  0  0  0  0
   -3.7014    2.8370   30.5854 C   0  0  0  0  0  0
   -4.8148    5.0011   30.4437 C   0  0  0  0  0  0
   -1.1901    4.6042   30.8794 C   0  0  0  0  0  0
   -4.8245    0.6116   30.3514 C   0  0  0  0  0  0
    0.9434    5.5421   31.9583 C   0  0  0  0  0  0
   -8.1370    3.6851   29.8623 C   0  0  0  0  0  0
    1.9228    4.6870   29.7040 C   0  0  0  0  0  0
   -7.8962    1.1671   29.8048 C   0  0  0  0  0  0
    3.2326    4.3393   30.0345 C   0  0  0  0  0  0
    1.3000    4.1071   28.6076 C   0  0  0  0  0  0
    3.9059    3.3987   29.2640 C   0  0  0  0  0  0
    1.9625    3.1570   27.8444 C   0  0  0  0  0  0
    3.2569    2.8023   28.1836 C   0  0  0  0  0  0
   -7.6102    5.7162   29.9613 H   0  0  0  0  0  0
   -2.6289    5.9871   30.7663 H   0  0  0  0  0  0
   -5.7322   -1.1356   29.9795 H   0  0  0  0  0  0
   -0.6979    6.7572   31.0075 H   0  0  0  0  0  0
    1.5702    6.7557   30.2237 H   0  0  0  0  0  0
   -2.7913    2.2733   30.7169 H   0  0  0  0  0  0
   -4.7969    6.0819   30.4483 H   0  0  0  0  0  0
    1.1063    6.3253   32.6924 H   0  0  0  0  0  0
    1.1203    4.5521   32.3839 H   0  0  0  0  0  0
   -9.1880    3.8530   29.6671 H   0  0  0  0  0  0
   -8.9657    1.0763   29.6363 H   0  0  0  0  0  0
    3.7291    4.8055   30.8728 H   0  0  0  0  0  0
    0.3060    4.4012   28.3337 H   0  0  0  0  0  0
    4.9248    3.1282   29.4993 H   0  0  0  0  0  0
    1.4873    2.6982   26.9912 H   0  0  0  0  0  0
    3.7636    2.0724   27.5783 H   0  0  0  0  0  0
  1 16  2  0  0  0
  2 17  2  0  0  0
  3  9  1  0  0  0
  3 19  1  0  0  0
  3 27  1  0  0  0
  4 13  1  0  0  0
  4 16  1  0  0  0
  4 28  1  0  0  0
  5  6  1  0  0  0
  5 17  1  0  0  0
  5 29  1  0  0  0
  6 21  2  0  0  0
  7  8  2  0  0  0
  7  9  1  0  0  0
  7 10  1  0  0  0
  8 14  1  0  0  0
  8 17  1  0  0  0
  9 15  2  0  0  0
 10 19  2  0  0  0
 10 21  1  0  0  0
 11 12  1  0  0  0
 11 16  1  0  0  0
 11 18  1  0  0  0
 11 30  1  0  0  0
 12 18  1  0  0  0
 12 20  1  0  0  0
 12 31  1  0  0  0
 13 14  2  0  0  0
 13 15  1  0  0  0
 14 32  1  0  0  0
 15 33  1  0  0  0
 18 34  1  0  0  0
 18 35  1  0  0  0
 19 36  1  0  0  0
 20 22  2  0  0  0
 20 23  1  0  0  0
 21 37  1  0  0  0
 22 24  1  0  0  0
 22 38  1  0  0  0
 23 25  2  0  0  0
 23 39  1  0  0  0
 24 26  2  0  0  0
 24 40  1  0  0  0
 25 26  1  0  0  0
 25 41  1  0  0  0
 26 42  1  0  0  0
M  END
> <s_m_entry_id>
10251

> <s_m_entry_name>
dock_pv.320

> <s_m_Source_Path>
/home/csk/Desktop/cluster/DUD-E-result/met

> <s_m_Source_File>
dock_pv.maegz

> <i_m_Source_File_Index>
320

> <chembl_id>
CHEMBL1969502

> <chembl_pref_name>
None

> <i_lp_mmshare_version>
53161

> <i_f3d_flags>
0

> <r_lp_tautomer_probability>
1

> <s_lp_Force_Field>
OPLS_2005

> <r_lp_Energy>
46.691957

> <b_lp_Chiralities_Consistent>
1

> <s_lp_Variant>
CHEMBL3717_lig4177-4

> <s_i_glide_gridfile>
glide-grid_3lq8

> <i_i_glide_lignum>
5356

> <i_i_glide_rotatable_bonds>
4

> <r_i_docking_score>
-7.65707965145521

> <r_i_glide_ligand_efficiency>
-0.294503063517508

> <r_i_glide_ligand_efficiency_sa>
-0.87246416685702

> <r_i_glide_ligand_efficiency_ln>
-1.79824003121664

> <r_i_glide_gscore>
-7.65707965145521

> <r_i_glide_lipo>
-4.02451587669581

> <r_i_glide_hbond>
0

> <r_i_glide_metal>
0

> <r_i_glide_rewards>
-2.27508063594684

> <r_i_glide_evdw>
-35.7006072998047

> <r_i_glide_ecoul>
-1.40270006656647

> <r_i_glide_erotb>
0.640418036685048

> <r_i_glide_esite>
-0.00246580052239961

> <r_i_glide_emodel>
-51.6584526758688

> <r_i_glide_energy>
-37.1033073663712

> <r_i_glide_einternal>
3.12567782402039

> <i_i_glide_confnum>
1

> <i_i_glide_posenum>
235

> <r_i_glide_eff_state_penalty>
0

> <s_user_duplicate_titles>
CHEMBL3717_lig4177

> <s_m_subgroup_title>
dock_pv

> <s_m_subgroupid>
dock_pv

> <b_m_subgroup_collapsed>
1

$$$$
CHEMBL3717_lig1190
                    3D
 Schrodinger Suite 2021-1.
 52 56  0  0  1  0            999 V2000
   -6.7608    3.2710   30.5708 N   0  0  0  0  0  0
   -5.7546    4.1824   30.6078 C   0  0  0  0  0  0
   -4.4053    3.8194   30.6055 C   0  0  0  0  0  0
   -4.1047    2.4596   30.5342 C   0  0  0  0  0  0
   -5.1120    1.4936   30.4522 C   0  0  0  0  0  0
   -6.4401    1.9536   30.4896 C   0  0  0  0  0  0
   -3.2826    4.7936   30.6187 C   0  0  0  0  0  0
   -1.9350    4.5333   30.8338 C   0  0  0  0  0  0
   -1.2644    5.7032   30.6035 N   0  0  0  0  0  0
   -2.1117    6.6985   30.2863 N   0  0  0  0  0  0
   -3.3101    6.1714   30.3852 C   0  0  0  0  0  0
   -4.6617    0.0814   30.2259 C   0  0  0  0  0  0
   -5.5686   -0.9441   30.2769 O   0  0  0  0  0  0
   -3.4542   -0.2605   29.8247 N   0  0  0  0  0  0
   -7.5186    1.0806   30.4076 N   0  0  0  0  0  0
   -3.5977   -1.5440   29.4080 C   0  0  0  0  0  0
   -4.8900   -1.9872   29.7203 C   0  0  0  0  0  0
   -5.3510   -3.2635   29.4000 C   0  0  0  0  0  0
   -4.4939   -4.0442   28.6081 C   0  0  0  0  0  0
   -3.2068   -3.6120   28.2747 C   0  0  0  0  0  0
   -2.7141   -2.3796   28.7134 C   0  0  0  0  0  0
    0.1793    5.9194   30.4409 C   0  0  0  0  0  0
   -5.0259   -5.5959   28.0644 Cl  0  0  0  0  0  0
    1.0998    5.2187   31.4536 C   0  0  0  0  0  0
    1.4722    3.7600   31.1028 C   0  0  0  0  0  0
    2.0421    3.7912   29.7431 N   0  0  0  0  0  0
    1.1059    4.2257   28.6952 C   0  0  0  0  0  0
    0.6826    5.6875   29.0081 C   0  0  0  0  0  0
    3.3767    3.7566   29.4927 C   0  0  0  0  0  0
    4.3323    3.3198   30.6022 C   0  0  0  0  0  0
    3.8549    3.9574   28.3763 O   0  0  0  0  0  0
   -6.0544    5.2201   30.6429 H   0  0  0  0  0  0
   -3.0707    2.1517   30.5025 H   0  0  0  0  0  0
   -1.4082    3.6171   31.0385 H   0  0  0  0  0  0
   -4.1990    6.7573   30.2080 H   0  0  0  0  0  0
   -7.3309    0.0886   30.3470 H   0  0  0  0  0  0
   -8.4562    1.4510   30.4273 H   0  0  0  0  0  0
   -6.3475   -3.5892   29.6534 H   0  0  0  0  0  0
   -2.5719   -4.2586   27.6922 H   0  0  0  0  0  0
   -1.7224   -2.0448   28.4550 H   0  0  0  0  0  0
    0.2690    6.9929   30.6307 H   0  0  0  0  0  0
    0.7184    5.3249   32.4699 H   0  0  0  0  0  0
    2.0125    5.8071   31.4204 H   0  0  0  0  0  0
    0.5919    3.1225   31.0614 H   0  0  0  0  0  0
    2.1110    3.2703   31.8378 H   0  0  0  0  0  0
    1.4906    4.0674   27.6855 H   0  0  0  0  0  0
    0.2428    3.5632   28.7613 H   0  0  0  0  0  0
    1.5060    6.3569   28.8807 H   0  0  0  0  0  0
   -0.0289    6.0712   28.2781 H   0  0  0  0  0  0
    4.0306    2.3580   31.0154 H   0  0  0  0  0  0
    4.3534    4.0659   31.3967 H   0  0  0  0  0  0
    5.3441    3.2108   30.2082 H   0  0  0  0  0  0
  1  2  2  0  0  0
  1  6  1  0  0  0
  2  3  1  0  0  0
  2 32  1  0  0  0
  3  4  2  0  0  0
  3  7  1  0  0  0
  4  5  1  0  0  0
  4 33  1  0  0  0
  5 12  1  0  0  0
  5  6  2  0  0  0
  6 15  1  0  0  0
  7 11  1  0  0  0
  7  8  2  0  0  0
  8  9  1  0  0  0
  8 34  1  0  0  0
  9 10  1  0  0  0
  9 22  1  0  0  0
 10 11  2  0  0  0
 11 35  1  0  0  0
 12 13  1  0  0  0
 12 14  2  0  0  0
 13 17  1  0  0  0
 14 16  1  0  0  0
 15 36  1  0  0  0
 15 37  1  0  0  0
 16 17  2  0  0  0
 16 21  1  0  0  0
 17 18  1  0  0  0
 18 19  2  0  0  0
 18 38  1  0  0  0
 19 20  1  0  0  0
 19 23  1  0  0  0
 20 21  2  0  0  0
 20 39  1  0  0  0
 21 40  1  0  0  0
 22 24  1  0  0  0
 22 28  1  0  0  0
 22 41  1  0  0  0
 24 25  1  0  0  0
 24 42  1  0  0  0
 24 43  1  0  0  0
 25 26  1  0  0  0
 25 44  1  0  0  0
 25 45  1  0  0  0
 26 27  1  0  0  0
 26 29  1  0  0  0
 27 28  1  0  0  0
 27 46  1  0  0  0
 27 47  1  0  0  0
 28 48  1  0  0  0
 28 49  1  0  0  0
 29 30  1  0  0  0
 29 31  2  0  0  0
 30 50  1  0  0  0
 30 51  1  0  0  0
 30 52  1  0  0  0
M  END
> <s_m_entry_id>
10252

> <s_m_entry_name>
dock_pv.321

> <s_m_Source_Path>
/home/csk/Desktop/cluster/DUD-E-result/met

> <s_m_Source_File>
dock_pv.maegz

> <i_m_Source_File_Index>
321

> <chembl_id>
CHEMBL2032294

> <chembl_pref_name>
None

> <i_lp_mmshare_version>
53161

> <i_f3d_flags>
0

> <r_lp_tautomer_probability>
0.999999772200052

> <s_lp_Force_Field>
OPLS_2005

> <r_lp_Energy>
39.889646

> <b_lp_Chiralities_Consistent>
1

> <s_lp_Variant>
CHEMBL3717_lig1190-1

> <s_i_glide_gridfile>
glide-grid_3lq8

> <i_i_glide_lignum>
1366

> <i_i_glide_rotatable_bonds>
4

> <r_i_docking_score>
-7.65667595769734

> <r_i_glide_ligand_efficiency>
-0.246989547022495

> <r_i_glide_ligand_efficiency_sa>
-0.775888183471249

> <r_i_glide_ligand_efficiency_ln>
-1.72681507739858

> <r_i_glide_gscore>
-7.65667595769734

> <r_i_glide_lipo>
-3.21807604996363

> <r_i_glide_hbond>
0

> <r_i_glide_metal>
0

> <r_i_glide_rewards>
-2.25941393315074

> <r_i_glide_evdw>
-44.991081237793

> <r_i_glide_ecoul>
-1.61984717845917

> <r_i_glide_erotb>
0.313345164075558

> <r_i_glide_esite>
0

> <r_i_glide_emodel>
-56.4247292213836

> <r_i_glide_energy>
-46.6109284162521

> <r_i_glide_einternal>
4.79824447631836

> <i_i_glide_confnum>
4

> <i_i_glide_posenum>
18

> <r_i_glide_eff_state_penalty>
0

> <s_user_duplicate_titles>
CHEMBL3717_lig1190

> <s_m_subgroup_title>
dock_pv

> <s_m_subgroupid>
dock_pv

> <b_m_subgroup_collapsed>
1

$$$$
CHEMBL3717_lig667
                    3D
 Schrodinger Suite 2021-1.
 53 56  0  0  1  0            999 V2000
   -6.6416    2.3555   30.2017 C   0  0  0  0  0  0
   -7.3110    3.5669   30.3574 C   0  0  0  0  0  0
   -6.6066    4.7546   30.5301 C   0  0  0  0  0  0
   -5.2424    2.2891   30.2071 C   0  0  0  0  0  0
   -4.5082    3.4906   30.4595 C   0  0  0  0  0  0
   -5.1965    4.7358   30.5915 C   0  0  0  0  0  0
   -4.5356    5.9124   30.7715 N   0  0  0  0  0  0
   -3.1855    5.8888   30.8630 C   0  0  0  0  0  0
   -2.4155    4.7244   30.8166 C   0  0  0  0  0  0
   -3.0948    3.5204   30.6081 C   0  0  0  0  0  0
   -1.0336    4.7495   30.9729 N   0  0  0  0  0  0
   -0.2039    5.8613   30.4824 C   0  0  0  0  0  0
    0.9635    5.3959   29.5835 C   0  0  0  0  0  0
    1.8066    4.4325   30.3306 N   0  0  0  0  0  0
    1.2407    3.7870   31.5362 C   0  0  0  0  0  0
   -0.2550    3.5315   31.2560 C   0  0  0  0  0  0
   -4.5380    1.1001   29.9240 N   0  0  0  0  0  0
    2.9355    3.9608   29.7365 C   0  0  0  0  0  0
   -5.1149   -0.2360   29.7825 C   0  0  0  0  0  0
   -4.7441   -1.1378   30.9570 C   0  0  0  0  0  0
   -3.4352   -1.1711   31.4605 C   0  0  0  0  0  0
   -3.0721   -2.0508   32.4930 C   0  0  0  0  0  0
   -4.0493   -2.9212   33.0003 C   0  0  0  0  0  0
   -5.3504   -2.9011   32.5008 C   0  0  0  0  0  0
   -5.6943   -2.0184   31.4786 C   0  0  0  0  0  0
   -1.6958   -2.0436   33.0498 N   0  3  0  0  0  0
   -0.8917   -1.2322   32.6084 O   0  0  0  0  0  0
   -1.4199   -2.8270   33.9566 O   0  5  0  0  0  0
    3.8918    3.0674   30.5332 C   0  0  0  0  0  0
    3.3013    4.3188   28.6170 O   0  0  0  0  0  0
   -7.2433    1.4772   30.0354 H   0  0  0  0  0  0
   -8.3906    3.5884   30.3165 H   0  0  0  0  0  0
   -7.1302    5.6974   30.6147 H   0  0  0  0  0  0
   -2.7230    6.8517   31.0084 H   0  0  0  0  0  0
   -2.5481    2.5924   30.5521 H   0  0  0  0  0  0
   -0.7933    6.6002   29.9400 H   0  0  0  0  0  0
    0.1936    6.3591   31.3669 H   0  0  0  0  0  0
    1.5125    6.3024   29.3482 H   0  0  0  0  0  0
    0.5566    4.9469   28.6760 H   0  0  0  0  0  0
    1.6730    2.8080   31.7334 H   0  0  0  0  0  0
    1.3796    4.4000   32.4273 H   0  0  0  0  0  0
   -0.2963    2.9130   30.3572 H   0  0  0  0  0  0
   -0.6967    2.9782   32.0857 H   0  0  0  0  0  0
   -3.6439    1.2212   29.4727 H   0  0  0  0  0  0
   -6.1931   -0.2221   29.6364 H   0  0  0  0  0  0
   -4.6958   -0.6904   28.8846 H   0  0  0  0  0  0
   -2.6944   -0.5065   31.0401 H   0  0  0  0  0  0
   -3.8050   -3.6233   33.7838 H   0  0  0  0  0  0
   -6.0896   -3.5810   32.8984 H   0  0  0  0  0  0
   -6.7015   -2.0272   31.0886 H   0  0  0  0  0  0
    3.4132    2.1416   30.8525 H   0  0  0  0  0  0
    4.2523    3.6067   31.4076 H   0  0  0  0  0  0
    4.7508    2.7824   29.9223 H   0  0  0  0  0  0
  1  4  1  0  0  0
  1  2  2  0  0  0
  1 31  1  0  0  0
  2  3  1  0  0  0
  2 32  1  0  0  0
  3  6  2  0  0  0
  3 33  1  0  0  0
  4 17  1  0  0  0
  4  5  2  0  0  0
  5 10  1  0  0  0
  5  6  1  0  0  0
  6  7  1  0  0  0
  7  8  2  0  0  0
  8  9  1  0  0  0
  8 34  1  0  0  0
  9 10  2  0  0  0
  9 11  1  0  0  0
 10 35  1  0  0  0
 11 16  1  0  0  0
 11 12  1  0  0  0
 12 13  1  0  0  0
 12 36  1  0  0  0
 12 37  1  0  0  0
 13 14  1  0  0  0
 13 38  1  0  0  0
 13 39  1  0  0  0
 14 15  1  0  0  0
 14 18  1  0  0  0
 15 16  1  0  0  0
 15 40  1  0  0  0
 15 41  1  0  0  0
 16 42  1  0  0  0
 16 43  1  0  0  0
 17 19  1  0  0  0
 17 44  1  0  0  0
 18 29  1  0  0  0
 18 30  2  0  0  0
 19 20  1  0  0  0
 19 45  1  0  0  0
 19 46  1  0  0  0
 20 21  2  0  0  0
 20 25  1  0  0  0
 21 22  1  0  0  0
 21 47  1  0  0  0
 22 23  2  0  0  0
 22 26  1  0  0  0
 23 24  1  0  0  0
 23 48  1  0  0  0
 24 25  2  0  0  0
 24 49  1  0  0  0
 25 50  1  0  0  0
 26 27  2  0  0  0
 26 28  1  0  0  0
 29 51  1  0  0  0
 29 52  1  0  0  0
 29 53  1  0  0  0
M  CHG  2  26   1  28  -1
M  END
> <s_m_entry_id>
10253

> <s_m_entry_name>
dock_pv.322

> <s_m_Source_Path>
/home/csk/Desktop/cluster/DUD-E-result/met

> <s_m_Source_File>
dock_pv.maegz

> <i_m_Source_File_Index>
322

> <chembl_id>
CHEMBL1766514

> <chembl_pref_name>
None

> <i_lp_mmshare_version>
53161

> <i_f3d_flags>
0

> <r_lp_tautomer_probability>
1

> <s_lp_Force_Field>
OPLS_2005

> <r_lp_Energy>
52.662096

> <b_lp_Chiralities_Consistent>
1

> <s_lp_Variant>
CHEMBL3717_lig667-1

> <s_i_glide_gridfile>
glide-grid_3lq8

> <i_i_glide_lignum>
725

> <i_i_glide_rotatable_bonds>
6

> <r_i_docking_score>
-7.65432075482325

> <r_i_glide_ligand_efficiency>
-0.255144025160775

> <r_i_glide_ligand_efficiency_sa>
-0.792791807780655

> <r_i_glide_ligand_efficiency_ln>
-1.73914507600032

> <r_i_glide_gscore>
-7.65432075482325

> <r_i_glide_lipo>
-3.23613432059528

> <r_i_glide_hbond>
0

> <r_i_glide_metal>
0

> <r_i_glide_rewards>
-2.62086665349958

> <r_i_glide_evdw>
-47.4681777954102

> <r_i_glide_ecoul>
0.652582764625549

> <r_i_glide_erotb>
0.478201694348281

> <r_i_glide_esite>
0

> <r_i_glide_emodel>
-62.6549424422925

> <r_i_glide_energy>
-46.8155950307846

> <r_i_glide_einternal>
8.43192291259766

> <i_i_glide_confnum>
26

> <i_i_glide_posenum>
343

> <r_i_glide_eff_state_penalty>
0

> <s_user_duplicate_titles>
CHEMBL3717_lig667

> <s_m_subgroup_title>
dock_pv

> <s_m_subgroupid>
dock_pv

> <b_m_subgroup_collapsed>
1

$$$$
CHEMBL3717_lig4012
                    3D
 Schrodinger Suite 2021-1.
 34 36  0  0  1  0            999 V2000
    3.6786    3.1586   27.8080 Cl  0  0  0  0  0  0
    5.3056    4.3191   30.3209 Cl  0  0  0  0  0  0
   -6.0484    5.2573   30.6088 O   0  0  0  0  0  0
   -3.3052    7.2022   30.6082 O   0  0  0  0  0  0
   -4.0408    2.5510   30.3810 N   0  0  0  0  0  0
   -1.3935    4.5994   30.7050 N   0  0  0  0  0  0
   -7.4998    0.3141   29.4829 N   0  0  0  0  0  0
   -3.8517    3.9151   30.5323 C   0  0  0  0  0  0
   -2.7593    4.7224   30.6539 C   0  0  0  0  0  0
   -4.8316    5.0854   30.5940 C   0  0  0  0  0  0
   -3.5560    6.0010   30.6199 C   0  0  0  0  0  0
   -5.2175    1.8369   30.1064 C   0  0  0  0  0  0
   -0.6572    3.3540   30.6695 C   0  0  0  0  0  0
    0.8332    3.6298   30.5723 C   0  0  0  0  0  0
    1.5113    3.3600   29.3807 C   0  0  0  0  0  0
    2.8872    3.5604   29.2871 C   0  0  0  0  0  0
    1.5403    4.1420   31.6637 C   0  0  0  0  0  0
   -6.4727    2.1794   30.6256 C   0  0  0  0  0  0
   -5.1188    0.7045   29.2942 C   0  0  0  0  0  0
    3.5962    4.0612   30.3859 C   0  0  0  0  0  0
    2.9150    4.3567   31.5667 C   0  0  0  0  0  0
   -7.5815    1.4012   30.2892 C   0  0  0  0  0  0
   -6.2749   -0.0246   29.0083 C   0  0  0  0  0  0
   -3.2182    1.9813   30.2471 H   0  0  0  0  0  0
   -0.8089    5.4247   30.7453 H   0  0  0  0  0  0
   -0.9894    2.7632   29.8150 H   0  0  0  0  0  0
   -0.8652    2.7710   31.5689 H   0  0  0  0  0  0
    0.9742    2.9622   28.5292 H   0  0  0  0  0  0
    1.0306    4.3674   32.5896 H   0  0  0  0  0  0
   -6.5963    3.0066   31.3036 H   0  0  0  0  0  0
   -4.1731    0.3900   28.8737 H   0  0  0  0  0  0
    3.4523    4.7544   32.4138 H   0  0  0  0  0  0
   -8.5623    1.6382   30.6758 H   0  0  0  0  0  0
   -6.2291   -0.8949   28.3695 H   0  0  0  0  0  0
  1 16  1  0  0  0
  2 20  1  0  0  0
  3 10  2  0  0  0
  4 11  2  0  0  0
  5  8  1  0  0  0
  5 12  1  0  0  0
  5 24  1  0  0  0
  6  9  1  0  0  0
  6 13  1  0  0  0
  6 25  1  0  0  0
  7 22  2  0  0  0
  7 23  1  0  0  0
  8  9  2  0  0  0
  8 10  1  0  0  0
  9 11  1  0  0  0
 10 11  1  0  0  0
 12 18  2  0  0  0
 12 19  1  0  0  0
 13 14  1  0  0  0
 13 26  1  0  0  0
 13 27  1  0  0  0
 14 15  1  0  0  0
 14 17  2  0  0  0
 15 16  2  0  0  0
 15 28  1  0  0  0
 16 20  1  0  0  0
 17 21  1  0  0  0
 17 29  1  0  0  0
 18 22  1  0  0  0
 18 30  1  0  0  0
 19 23  2  0  0  0
 19 31  1  0  0  0
 20 21  2  0  0  0
 21 32  1  0  0  0
 22 33  1  0  0  0
 23 34  1  0  0  0
M  END
> <s_m_entry_id>
10254

> <s_m_entry_name>
dock_pv.323

> <s_m_Source_Path>
/home/csk/Desktop/cluster/DUD-E-result/met

> <s_m_Source_File>
dock_pv.maegz

> <i_m_Source_File_Index>
323

> <chembl_id>
CHEMBL1975900

> <chembl_pref_name>
None

> <i_lp_mmshare_version>
53161

> <i_f3d_flags>
0

> <r_lp_tautomer_probability>
1

> <s_lp_Force_Field>
OPLS_2005

> <r_lp_Energy>
51.802746

> <b_lp_Chiralities_Consistent>
1

> <s_lp_Variant>
CHEMBL3717_lig4012-1

> <s_i_glide_gridfile>
glide-grid_3lq8

> <i_i_glide_lignum>
5107

> <i_i_glide_rotatable_bonds>
5

> <r_i_docking_score>
-7.64839852263284

> <r_i_glide_ligand_efficiency>
-0.332539066201428

> <r_i_glide_ligand_efficiency_sa>
-0.945696868892506

> <r_i_glide_ligand_efficiency_ln>
-1.84945211461611

> <r_i_glide_gscore>
-7.64839852263284

> <r_i_glide_lipo>
-3.61616972706381

> <r_i_glide_hbond>
-0.32

> <r_i_glide_metal>
0

> <r_i_glide_rewards>
-2.1021092942906

> <r_i_glide_evdw>
-40.296314239502

> <r_i_glide_ecoul>
-2.535404920578

> <r_i_glide_erotb>
0.785006948783365

> <r_i_glide_esite>
0

> <r_i_glide_emodel>
-60.1204108309349

> <r_i_glide_energy>
-42.83171916008

> <r_i_glide_einternal>
4.73186922073364

> <i_i_glide_confnum>
4

> <i_i_glide_posenum>
15

> <r_i_glide_eff_state_penalty>
0

> <s_user_duplicate_titles>
CHEMBL3717_lig4012

> <s_m_subgroup_title>
dock_pv

> <s_m_subgroupid>
dock_pv

> <b_m_subgroup_collapsed>
1

$$$$
CHEMBL3717_lig3726
                    3D
 Schrodinger Suite 2021-1.
 41 43  0  0  1  0            999 V2000
   -3.1109    7.1291   30.2119 O   0  0  0  0  0  0
   -5.6941   -3.4878   29.4080 O   0  0  0  0  0  0
   -3.6035   -2.8430   30.1071 O   0  0  0  0  0  0
   -0.8619    6.8569   30.0376 N   0  0  0  0  0  0
   -2.4940    2.0084   31.4069 N   0  0  0  0  0  0
   -2.0044    4.9957   30.5401 C   0  0  0  0  0  0
   -0.5606    4.7219   30.6395 C   0  0  0  0  0  0
   -3.3919    2.8336   30.7924 C   0  0  0  0  0  0
    0.0733    5.8808   30.2530 C   0  0  0  0  0  0
   -2.1076    6.4206   30.2585 C   0  0  0  0  0  0
   -4.5324    2.0662   30.5474 C   0  0  0  0  0  0
   -3.1419    4.2579   30.6079 C   0  0  0  0  0  0
   -4.2772    0.7578   31.0080 C   0  0  0  0  0  0
   -2.9965    0.7443   31.5469 C   0  0  0  0  0  0
    0.2242    3.6194   30.9897 C   0  0  0  0  0  0
    1.4536    5.9571   30.1375 C   0  0  0  0  0  0
   -5.2256   -0.4189   30.9374 C   0  0  0  0  0  0
    1.6157    3.6762   30.8955 C   0  0  0  0  0  0
    2.2332    4.8441   30.4517 C   0  0  0  0  0  0
   -5.8394    2.5424   29.9538 C   0  0  0  0  0  0
   -2.2002   -0.3583   32.2080 C   0  0  0  0  0  0
   -5.1544   -1.1215   29.5599 C   0  0  0  0  0  0
   -4.8711   -2.6157   29.6707 C   0  0  0  0  0  0
   -3.4753   -3.8009   30.2081 H   0  0  0  0  0  0
   -0.6498    7.8181   29.8144 H   0  0  0  0  0  0
   -1.5996    2.3112   31.7588 H   0  0  0  0  0  0
   -4.0784    4.7819   30.4672 H   0  0  0  0  0  0
   -0.1976    2.7173   31.3601 H   0  0  0  0  0  0
    1.9058    6.8763   29.8084 H   0  0  0  0  0  0
   -6.2542   -0.1193   31.1410 H   0  0  0  0  0  0
   -5.0064   -1.1075   31.7562 H   0  0  0  0  0  0
    2.2109    2.8148   31.1626 H   0  0  0  0  0  0
    3.3094    4.8921   30.3690 H   0  0  0  0  0  0
   -5.8941    3.6207   29.8081 H   0  0  0  0  0  0
   -6.0374    2.0396   29.0078 H   0  0  0  0  0  0
   -6.6774    2.2734   30.5969 H   0  0  0  0  0  0
   -2.8423   -1.0290   32.7775 H   0  0  0  0  0  0
   -1.6936   -0.9759   31.4667 H   0  0  0  0  0  0
   -1.4479    0.0175   32.9027 H   0  0  0  0  0  0
   -4.3508   -0.7137   28.9444 H   0  0  0  0  0  0
   -6.0744   -0.9683   28.9953 H   0  0  0  0  0  0
  1 10  2  0  0  0
  2 23  2  0  0  0
  3 23  1  0  0  0
  3 24  1  0  0  0
  4  9  1  0  0  0
  4 10  1  0  0  0
  4 25  1  0  0  0
  5  8  1  0  0  0
  5 14  1  0  0  0
  5 26  1  0  0  0
  6  7  1  0  0  0
  6 10  1  0  0  0
  6 12  2  3  0  0
  7  9  1  0  0  0
  7 15  2  0  0  0
  8 11  2  0  0  0
  8 12  1  0  0  0
  9 16  2  0  0  0
 11 13  1  0  0  0
 11 20  1  0  0  0
 12 27  1  0  0  0
 13 14  2  0  0  0
 13 17  1  0  0  0
 14 21  1  0  0  0
 15 18  1  0  0  0
 15 28  1  0  0  0
 16 19  1  0  0  0
 16 29  1  0  0  0
 17 22  1  0  0  0
 17 30  1  0  0  0
 17 31  1  0  0  0
 18 19  2  0  0  0
 18 32  1  0  0  0
 19 33  1  0  0  0
 20 34  1  0  0  0
 20 35  1  0  0  0
 20 36  1  0  0  0
 21 37  1  0  0  0
 21 38  1  0  0  0
 21 39  1  0  0  0
 22 23  1  0  0  0
 22 40  1  0  0  0
 22 41  1  0  0  0
M  END
> <s_m_entry_id>
10255

> <s_m_entry_name>
dock_pv.324

> <s_m_Source_Path>
/home/csk/Desktop/cluster/DUD-E-result/met

> <s_m_Source_File>
dock_pv.maegz

> <i_m_Source_File_Index>
324

> <chembl_id>
CHEMBL2007064

> <chembl_pref_name>
None

> <i_lp_mmshare_version>
53161

> <i_f3d_flags>
0

> <r_lp_tautomer_probability>
1

> <s_lp_Force_Field>
OPLS_2005

> <r_lp_Energy>
28.688211

> <b_lp_Chiralities_Consistent>
1

> <s_lp_Variant>
CHEMBL3717_lig3726-2

> <s_i_glide_gridfile>
glide-grid_3lq8

> <i_i_glide_lignum>
4698

> <i_i_glide_rotatable_bonds>
5

> <r_i_docking_score>
-7.64601017566451

> <r_i_glide_ligand_efficiency>
-0.332435225028892

> <r_i_glide_ligand_efficiency_sa>
-0.94540155841109

> <r_i_glide_ligand_efficiency_ln>
-1.84887459066283

> <r_i_glide_gscore>
-7.64601017566451

> <r_i_glide_lipo>
-2.91287616397742

> <r_i_glide_hbond>
-0.304

> <r_i_glide_metal>
0

> <r_i_glide_rewards>
-2.83669850422816

> <r_i_glide_evdw>
-26.3856334686279

> <r_i_glide_ecoul>
-6.74778747558594

> <r_i_glide_erotb>
0.769532500312959

> <r_i_glide_esite>
-0.0305182130025938

> <r_i_glide_emodel>
-49.1186659780125

> <r_i_glide_energy>
-33.1334209442139

> <r_i_glide_einternal>
4.805260181427

> <i_i_glide_confnum>
38

> <i_i_glide_posenum>
68

> <r_i_glide_eff_state_penalty>
0

> <s_user_duplicate_titles>
CHEMBL3717_lig3726

> <s_m_subgroup_title>
dock_pv

> <s_m_subgroupid>
dock_pv

> <b_m_subgroup_collapsed>
1

$$$$
CHEMBL3717_lig4335
                    3D
 Schrodinger Suite 2021-1.
 39 43  0  0  1  0            999 V2000
   -2.4976    2.7840   31.1491 C   0  0  0  0  0  0
   -3.7360    2.2839   30.6446 O   0  0  0  0  0  0
   -4.0160    0.9300   30.7472 C   0  0  0  0  0  0
   -3.1695    0.0029   31.3734 C   0  0  0  0  0  0
   -3.5197   -1.3419   31.4020 C   0  0  0  0  0  0
   -4.6577   -1.8288   30.8577 N   0  0  0  0  0  0
   -5.5083   -0.9554   30.2548 C   0  0  0  0  0  0
   -6.7013   -1.4647   29.6883 C   0  0  0  0  0  0
   -7.6039   -0.6044   29.0682 C   0  0  0  0  0  0
   -7.3470    0.7598   29.0021 C   0  0  0  0  0  0
   -6.1787    1.2896   29.5440 C   0  0  0  0  0  0
   -5.2315    0.4453   30.1802 C   0  0  0  0  0  0
   -2.4240    4.2852   30.9402 C   0  0  0  0  0  0
   -3.4162    5.1571   30.9453 N   0  0  0  0  0  0
   -2.9218    6.4101   30.6061 N   0  0  0  0  0  0
   -1.5995    6.2469   30.3699 C   0  0  0  0  0  0
   -0.5767    7.0953   29.9148 C   0  0  0  0  0  0
    0.7042    6.5492   29.7713 C   0  0  0  0  0  0
    0.9355    5.2081   30.1018 C   0  0  0  0  0  0
   -0.0261    4.3698   30.5561 N   0  0  0  0  0  0
   -1.2443    4.9176   30.6439 N   0  0  0  0  0  0
    2.2645    4.5681   29.9630 C   0  0  0  0  0  0
    3.0165    4.3570   28.8144 C   0  0  0  0  0  0
    4.2607    3.7794   29.0667 C   0  0  0  0  0  0
    4.4565    3.5064   30.4090 C   0  0  0  0  0  0
    3.0880    3.9566   31.3728 S   0  0  0  0  0  0
   -1.6939    2.3092   30.5992 H   0  0  0  0  0  0
   -2.3787    2.5571   32.2080 H   0  0  0  0  0  0
   -2.2400    0.3007   31.8309 H   0  0  0  0  0  0
   -2.8717   -2.0710   31.8678 H   0  0  0  0  0  0
   -6.9025   -2.5248   29.7379 H   0  0  0  0  0  0
   -8.5108   -1.0011   28.6365 H   0  0  0  0  0  0
   -8.0594    1.4122   28.5217 H   0  0  0  0  0  0
   -5.9868    2.3512   29.4831 H   0  0  0  0  0  0
   -0.7750    8.1303   29.6762 H   0  0  0  0  0  0
    1.5059    7.1706   29.4084 H   0  0  0  0  0  0
    2.6785    4.6270   27.8261 H   0  0  0  0  0  0
    4.9868    3.5574   28.2989 H   0  0  0  0  0  0
    5.3231    3.0530   30.8618 H   0  0  0  0  0  0
  1  2  1  0  0  0
  1 13  1  0  0  0
  1 27  1  0  0  0
  1 28  1  0  0  0
  2  3  1  0  0  0
  3  4  2  0  0  0
  3 12  1  0  0  0
  4  5  1  0  0  0
  4 29  1  0  0  0
  5  6  2  0  0  0
  5 30  1  0  0  0
  6  7  1  0  0  0
  7  8  2  0  0  0
  7 12  1  0  0  0
  8  9  1  0  0  0
  8 31  1  0  0  0
  9 10  2  0  0  0
  9 32  1  0  0  0
 10 11  1  0  0  0
 10 33  1  0  0  0
 11 12  2  0  0  0
 11 34  1  0  0  0
 13 14  2  0  0  0
 13 21  1  0  0  0
 14 15  1  0  0  0
 15 16  2  0  0  0
 16 17  1  0  0  0
 16 21  1  0  0  0
 17 18  2  0  0  0
 17 35  1  0  0  0
 18 19  1  0  0  0
 18 36  1  0  0  0
 19 20  2  0  0  0
 19 22  1  0  0  0
 20 21  1  0  0  0
 22 23  2  0  0  0
 22 26  1  0  0  0
 23 24  1  0  0  0
 23 37  1  0  0  0
 24 25  2  0  0  0
 24 38  1  0  0  0
 25 26  1  0  0  0
 25 39  1  0  0  0
M  END
> <s_m_entry_id>
10256

> <s_m_entry_name>
dock_pv.325

> <s_m_Source_Path>
/home/csk/Desktop/cluster/DUD-E-result/met

> <s_m_Source_File>
dock_pv.maegz

> <i_m_Source_File_Index>
325

> <chembl_id>
CHEMBL3668160

> <chembl_pref_name>
None

> <i_lp_mmshare_version>
53161

> <i_f3d_flags>
0

> <r_lp_tautomer_probability>
1

> <s_lp_Force_Field>
OPLS_2005

> <r_lp_Energy>
18.635632

> <b_lp_Chiralities_Consistent>
1

> <s_lp_Variant>
CHEMBL3717_lig4335-1

> <s_i_glide_gridfile>
glide-grid_3lq8

> <i_i_glide_lignum>
5560

> <i_i_glide_rotatable_bonds>
4

> <r_i_docking_score>
-7.64314363569425

> <r_i_glide_ligand_efficiency>
-0.293967062911317

> <r_i_glide_ligand_efficiency_sa>
-0.87087626717024

> <r_i_glide_ligand_efficiency_ln>
-1.79496720364297

> <r_i_glide_gscore>
-7.64314363569425

> <r_i_glide_lipo>
-3.19689417755378

> <r_i_glide_hbond>
0

> <r_i_glide_metal>
0

> <r_i_glide_rewards>
-2.83034929540084

> <r_i_glide_evdw>
-43.0131759643555

> <r_i_glide_ecoul>
-0.391833364963531

> <r_i_glide_erotb>
0.593533640222677

> <r_i_glide_esite>
0

> <r_i_glide_emodel>
-58.5664378761035

> <r_i_glide_energy>
-43.405009329319

> <r_i_glide_einternal>
5.72954797744751

> <i_i_glide_confnum>
5

> <i_i_glide_posenum>
343

> <r_i_glide_eff_state_penalty>
0

> <s_user_duplicate_titles>
CHEMBL3717_lig4335

> <s_m_subgroup_title>
dock_pv

> <s_m_subgroupid>
dock_pv

> <b_m_subgroup_collapsed>
1

$$$$
CHEMBL3717_lig74
                    3D
 Schrodinger Suite 2021-1.
 48 52  0  0  1  0            999 V2000
    1.1053    6.3514   31.0076 O   0  0  0  0  0  0
    0.6322    5.3248   30.5220 C   0  0  0  0  0  0
    1.3664    4.4021   29.8746 N   0  0  0  0  0  0
    2.8121    4.4576   29.6904 C   0  0  0  0  0  0
   -0.8449    5.0290   30.6096 C   0  0  0  0  0  0
   -1.2954    3.7164   30.8104 C   0  0  0  0  0  0
   -2.6564    3.4226   30.8011 C   0  0  0  0  0  0
   -3.6173    4.4280   30.6080 C   0  0  0  0  0  0
   -5.0796    4.1123   30.5846 C   0  0  0  0  0  0
   -5.4227    2.8542   30.1844 N   0  0  0  0  0  0
   -6.7478    2.6095   30.1709 N   0  0  0  0  0  0
   -7.7394    3.5309   30.5433 C   0  0  0  0  0  0
   -7.3951    4.7585   30.9500 N   0  0  0  0  0  0
   -6.0631    5.0387   30.9624 C   0  0  0  0  0  0
   -8.9806    2.9994   30.4288 N   0  0  0  0  0  0
   -8.7635    1.7757   29.9912 C   0  0  0  0  0  0
   -7.4149    1.4564   29.8096 C   0  0  0  0  0  0
   -6.7179    0.1883   29.3230 C   0  0  0  0  0  0
   -5.5867   -0.3203   30.2160 C   0  0  0  0  0  0
   -5.5757   -0.0646   31.5857 C   0  0  0  0  0  0
   -4.4935   -0.4430   32.3661 C   0  0  0  0  0  0
   -3.3898   -1.1130   31.8073 C   0  0  0  0  0  0
   -2.3384   -1.4400   32.6079 N   0  0  0  0  0  0
   -1.2940   -2.0951   32.0519 C   0  0  0  0  0  0
   -1.2352   -2.4430   30.7059 C   0  0  0  0  0  0
   -2.3030   -2.1120   29.8738 C   0  0  0  0  0  0
   -3.4150   -1.4282   30.4196 C   0  0  0  0  0  0
   -4.5323   -1.0374   29.6502 C   0  0  0  0  0  0
   -3.1615    5.7421   30.4424 C   0  0  0  0  0  0
   -1.7996    6.0447   30.4344 C   0  0  0  0  0  0
   -1.4307    7.3280   30.2075 F   0  0  0  0  0  0
    0.8859    3.6293   29.4382 H   0  0  0  0  0  0
    3.2440    3.4714   29.8629 H   0  0  0  0  0  0
    3.2972    5.1563   30.3730 H   0  0  0  0  0  0
    3.0479    4.7543   28.6683 H   0  0  0  0  0  0
   -0.5954    2.9067   30.9593 H   0  0  0  0  0  0
   -2.9641    2.3964   30.9483 H   0  0  0  0  0  0
   -5.8002    6.0320   31.2877 H   0  0  0  0  0  0
   -9.5896    1.1050   29.8008 H   0  0  0  0  0  0
   -7.4369   -0.6242   29.2131 H   0  0  0  0  0  0
   -6.3187    0.3585   28.3213 H   0  0  0  0  0  0
   -6.3937    0.4620   32.0557 H   0  0  0  0  0  0
   -4.4938   -0.1983   33.4080 H   0  0  0  0  0  0
   -0.4939   -2.3572   32.7250 H   0  0  0  0  0  0
   -0.3784   -2.9697   30.3151 H   0  0  0  0  0  0
   -2.2932   -2.3719   28.8248 H   0  0  0  0  0  0
   -4.5424   -1.2847   28.6080 H   0  0  0  0  0  0
   -3.8649    6.5440   30.2768 H   0  0  0  0  0  0
  1  2  2  0  0  0
  2  3  1  0  0  0
  2  5  1  0  0  0
  3  4  1  0  0  0
  3 32  1  0  0  0
  4 33  1  0  0  0
  4 34  1  0  0  0
  4 35  1  0  0  0
  5  6  2  0  0  0
  5 30  1  0  0  0
  6  7  1  0  0  0
  6 36  1  0  0  0
  7  8  2  0  0  0
  7 37  1  0  0  0
  8  9  1  0  0  0
  8 29  1  0  0  0
  9 10  2  0  0  0
  9 14  1  0  0  0
 10 11  1  0  0  0
 11 12  1  0  0  0
 11 17  1  0  0  0
 12 13  1  0  0  0
 12 15  2  0  0  0
 13 14  2  0  0  0
 14 38  1  0  0  0
 15 16  1  0  0  0
 16 17  2  0  0  0
 16 39  1  0  0  0
 17 18  1  0  0  0
 18 19  1  0  0  0
 18 40  1  0  0  0
 18 41  1  0  0  0
 19 20  2  0  0  0
 19 28  1  0  0  0
 20 21  1  0  0  0
 20 42  1  0  0  0
 21 22  2  0  0  0
 21 43  1  0  0  0
 22 23  1  0  0  0
 22 27  1  0  0  0
 23 24  2  0  0  0
 24 25  1  0  0  0
 24 44  1  0  0  0
 25 26  2  0  0  0
 25 45  1  0  0  0
 26 27  1  0  0  0
 26 46  1  0  0  0
 27 28  2  0  0  0
 28 47  1  0  0  0
 29 30  2  0  0  0
 29 48  1  0  0  0
 30 31  1  0  0  0
M  END
> <s_m_entry_id>
10257

> <s_m_entry_name>
dock_pv.326

> <s_m_Source_Path>
/home/csk/Desktop/cluster/DUD-E-result/met

> <s_m_Source_File>
dock_pv.maegz

> <i_m_Source_File_Index>
326

> <chembl_id>
CHEMBL3188267

> <chembl_pref_name>
CAPMATINIB

> <i_lp_mmshare_version>
53161

> <i_f3d_flags>
0

> <r_lp_tautomer_probability>
1

> <s_lp_Force_Field>
OPLS_2005

> <r_lp_Energy>
30.182563

> <b_lp_Chiralities_Consistent>
1

> <s_lp_Variant>
CHEMBL3717_lig74-1

> <s_i_glide_gridfile>
glide-grid_3lq8

> <i_i_glide_lignum>
78

> <i_i_glide_rotatable_bonds>
5

> <r_i_docking_score>
-7.63882046910878

> <r_i_glide_ligand_efficiency>
-0.246413563519638

> <r_i_glide_ligand_efficiency_sa>
-0.774078800041349

> <r_i_glide_ligand_efficiency_ln>
-1.72278811751685

> <r_i_glide_gscore>
-7.63882046910878

> <r_i_glide_lipo>
-3.04658467648036

> <r_i_glide_hbond>
0

> <r_i_glide_metal>
0

> <r_i_glide_rewards>
-2.44060226141525

> <r_i_glide_evdw>
-44.0382194519043

> <r_i_glide_ecoul>
-2.75632786750793

> <r_i_glide_erotb>
0.463726621508242

> <r_i_glide_esite>
0

> <r_i_glide_emodel>
-67.1735305973417

> <r_i_glide_energy>
-46.7945473194122

> <r_i_glide_einternal>
1.18872952461243

> <i_i_glide_confnum>
7

> <i_i_glide_posenum>
11

> <r_i_glide_eff_state_penalty>
0

> <s_user_duplicate_titles>
CHEMBL3717_lig74

> <s_m_subgroup_title>
dock_pv

> <s_m_subgroupid>
dock_pv

> <b_m_subgroup_collapsed>
1

$$$$
CHEMBL3717_lig1035
                    3D
 Schrodinger Suite 2021-1.
 38 40  0  0  1  0            999 V2000
   -7.7128    4.6304   30.3838 C   0  0  0  0  0  0
   -7.8953    3.2507   30.2551 C   0  0  0  0  0  0
   -6.7957    2.3834   30.2737 C   0  0  0  0  0  0
   -5.5189    2.9378   30.4145 C   0  0  0  0  0  0
   -5.3253    4.3008   30.5361 C   0  0  0  0  0  0
   -6.4284    5.1570   30.5326 C   0  0  0  0  0  0
   -3.8954    4.5350   30.6080 C   0  0  0  0  0  0
   -3.2878    3.1849   30.6080 C   0  0  0  0  0  0
   -4.2943    2.3138   30.4606 N   0  0  0  0  0  0
   -2.0940    2.9047   30.7078 O   0  0  0  0  0  0
   -3.3081    5.6772   30.6613 N   0  0  0  0  0  0
   -1.9527    5.7036   30.6048 N   0  0  0  0  0  0
   -1.2904    6.8085   30.2080 C   0  0  0  0  0  0
    0.1584    6.6911   29.7164 C   0  0  0  0  0  0
    0.9069    5.4437   30.1653 C   0  0  0  0  0  0
    1.3816    4.5363   29.2177 C   0  0  0  0  0  0
    2.1236    3.4266   29.6143 C   0  0  0  0  0  0
    2.3861    3.2135   30.9757 C   0  0  0  0  0  0
    1.9060    4.1138   31.9234 C   0  0  0  0  0  0
    1.1657    5.2214   31.5199 C   0  0  0  0  0  0
    3.1145    2.1389   31.4080 O   0  0  0  0  0  0
    2.7060    2.3570   28.3904 Cl  0  0  0  0  0  0
   -1.7919    7.9286   30.2080 O   0  0  0  0  0  0
   -7.0105    0.8865   30.1258 C   0  0  0  0  0  0
   -8.5654    5.2944   30.3529 H   0  0  0  0  0  0
   -8.8958    2.8601   30.1368 H   0  0  0  0  0  0
   -6.3005    6.2280   30.6080 H   0  0  0  0  0  0
   -4.1574    1.3149   30.4258 H   0  0  0  0  0  0
   -1.5098    4.7920   30.6058 H   0  0  0  0  0  0
    0.7060    7.5583   30.0856 H   0  0  0  0  0  0
    0.1549    6.7749   28.6287 H   0  0  0  0  0  0
    1.1902    4.6954   28.1670 H   0  0  0  0  0  0
    2.1091    3.9570   32.9727 H   0  0  0  0  0  0
    0.8149    5.9238   32.2593 H   0  0  0  0  0  0
    3.3310    1.5532   30.6792 H   0  0  0  0  0  0
   -8.0442    0.6382   29.8819 H   0  0  0  0  0  0
   -6.3795    0.4941   29.3272 H   0  0  0  0  0  0
   -6.7323    0.3727   31.0467 H   0  0  0  0  0  0
  1  2  1  0  0  0
  1  6  2  0  0  0
  1 25  1  0  0  0
  2  3  2  0  0  0
  2 26  1  0  0  0
  3  4  1  0  0  0
  3 24  1  0  0  0
  4  5  2  0  0  0
  4  9  1  0  0  0
  5  6  1  0  0  0
  5  7  1  0  0  0
  6 27  1  0  0  0
  7  8  1  0  0  0
  7 11  2  0  0  0
  8  9  1  0  0  0
  8 10  2  0  0  0
  9 28  1  0  0  0
 11 12  1  0  0  0
 12 13  1  0  0  0
 12 29  1  0  0  0
 13 14  1  0  0  0
 13 23  2  0  0  0
 14 15  1  0  0  0
 14 30  1  0  0  0
 14 31  1  0  0  0
 15 16  1  0  0  0
 15 20  2  0  0  0
 16 17  2  0  0  0
 16 32  1  0  0  0
 17 18  1  0  0  0
 17 22  1  0  0  0
 18 19  2  0  0  0
 18 21  1  0  0  0
 19 20  1  0  0  0
 19 33  1  0  0  0
 20 34  1  0  0  0
 21 35  1  0  0  0
 24 36  1  0  0  0
 24 37  1  0  0  0
 24 38  1  0  0  0
M  END
> <s_m_entry_id>
10258

> <s_m_entry_name>
dock_pv.327

> <s_m_Source_Path>
/home/csk/Desktop/cluster/DUD-E-result/met

> <s_m_Source_File>
dock_pv.maegz

> <i_m_Source_File_Index>
327

> <chembl_id>
CHEMBL1823268

> <chembl_pref_name>
None

> <i_lp_mmshare_version>
53161

> <i_f3d_flags>
0

> <r_lp_tautomer_probability>
0.999999999997365

> <s_lp_Force_Field>
OPLS_2005

> <r_lp_Energy>
38.648381

> <b_lp_Chiralities_Consistent>
1

> <s_lp_Variant>
CHEMBL3717_lig1035-1

> <s_i_glide_gridfile>
glide-grid_3lq8

> <i_i_glide_lignum>
1153

> <i_i_glide_rotatable_bonds>
5

> <r_i_docking_score>
-7.63534068592449

> <r_i_glide_ligand_efficiency>
-0.318139195246854

> <r_i_glide_ligand_efficiency_sa>
-0.917672234313302

> <r_i_glide_ligand_efficiency_ln>
-1.82748738909585

> <r_i_glide_gscore>
-7.63534068592449

> <r_i_glide_lipo>
-3.35474169060236

> <r_i_glide_hbond>
-0.113593634884159

> <r_i_glide_metal>
0

> <r_i_glide_rewards>
-2.34570807152407

> <r_i_glide_evdw>
-42.0275802612305

> <r_i_glide_ecoul>
-2.41553354263306

> <r_i_glide_erotb>
0.642411755542586

> <r_i_glide_esite>
0

> <r_i_glide_emodel>
-59.5606786963719

> <r_i_glide_energy>
-44.4431138038635

> <r_i_glide_einternal>
5.7246789932251

> <i_i_glide_confnum>
9

> <i_i_glide_posenum>
51

> <r_i_glide_eff_state_penalty>
0

> <s_user_duplicate_titles>
CHEMBL3717_lig1035

> <s_m_subgroup_title>
dock_pv

> <s_m_subgroupid>
dock_pv

> <b_m_subgroup_collapsed>
1

$$$$
CHEMBL3717_lig3486
                    3D
 Schrodinger Suite 2021-1.
 24 26  0  0  1  0            999 V2000
   -7.6048    4.3090   29.9560 I   0  0  0  0  0  0
   -3.1356    7.4338   30.6080 O   0  0  0  0  0  0
   -1.5351    3.4718   30.9198 N   0  0  0  0  0  0
   -1.2435    6.3487   30.2080 N   0  0  0  0  0  0
   -3.7101    2.6956   30.6080 N   0  0  0  0  0  0
   -5.0274    2.8393   30.4008 N   0  0  0  0  0  0
   -3.3625    5.0713   30.4922 C   0  0  0  0  0  0
   -2.8682    3.7646   30.6549 C   0  0  0  0  0  0
   -2.5615    6.3570   30.4690 C   0  0  0  0  0  0
   -0.3037    4.1111   30.7815 C   0  0  0  0  0  0
   -0.1753    5.4575   30.3708 C   0  0  0  0  0  0
   -4.7502    5.2147   30.3274 C   0  0  0  0  0  0
   -5.5507    4.0810   30.2754 C   0  0  0  0  0  0
    0.8612    3.3691   31.0080 C   0  0  0  0  0  0
    1.1060    5.9530   30.1025 C   0  0  0  0  0  0
    2.1241    3.8689   30.7304 C   0  0  0  0  0  0
    2.2409    5.1570   30.2420 C   0  0  0  0  0  0
   -1.4274    2.4859   31.1017 H   0  0  0  0  0  0
   -0.9270    7.2975   30.0761 H   0  0  0  0  0  0
   -5.2187    6.1833   30.2080 H   0  0  0  0  0  0
    0.7915    2.3570   31.3737 H   0  0  0  0  0  0
    1.2302    6.9719   29.7643 H   0  0  0  0  0  0
    3.0007    3.2542   30.8739 H   0  0  0  0  0  0
    3.2147    5.5497   29.9946 H   0  0  0  0  0  0
  1 13  1  0  0  0
  2  9  2  0  0  0
  3  8  1  0  0  0
  3 10  1  0  0  0
  3 18  1  0  0  0
  4  9  1  0  0  0
  4 11  1  0  0  0
  4 19  1  0  0  0
  5  6  2  0  0  0
  5  8  1  0  0  0
  6 13  1  0  0  0
  7  8  2  0  0  0
  7  9  1  0  0  0
  7 12  1  0  0  0
 10 11  1  0  0  0
 10 14  2  0  0  0
 11 15  2  0  0  0
 12 13  2  0  0  0
 12 20  1  0  0  0
 14 16  1  0  0  0
 14 21  1  0  0  0
 15 17  1  0  0  0
 15 22  1  0  0  0
 16 17  2  0  0  0
 16 23  1  0  0  0
 17 24  1  0  0  0
M  END
> <s_m_entry_id>
10259

> <s_m_entry_name>
dock_pv.328

> <s_m_Source_Path>
/home/csk/Desktop/cluster/DUD-E-result/met

> <s_m_Source_File>
dock_pv.maegz

> <i_m_Source_File_Index>
328

> <chembl_id>
CHEMBL1977346

> <chembl_pref_name>
None

> <i_lp_mmshare_version>
53161

> <i_f3d_flags>
0

> <r_lp_tautomer_probability>
0.999989120118012

> <s_lp_Force_Field>
OPLS_2005

> <r_lp_Energy>
29.924697

> <b_lp_Chiralities_Consistent>
1

> <s_lp_Variant>
CHEMBL3717_lig3486-1

> <s_i_glide_gridfile>
glide-grid_3lq8

> <i_i_glide_lignum>
4306

> <i_i_glide_rotatable_bonds>
0

> <r_i_docking_score>
-7.63408607740632

> <r_i_glide_ligand_efficiency>
-0.449063886906254

> <r_i_glide_ligand_efficiency_sa>
-1.15466970434101

> <r_i_glide_ligand_efficiency_ln>
-1.99156305485677

> <r_i_glide_gscore>
-7.63408607740632

> <r_i_glide_lipo>
-2.73060274345958

> <r_i_glide_hbond>
-0.32

> <r_i_glide_metal>
0

> <r_i_glide_rewards>
-2.5161537364736

> <r_i_glide_evdw>
-27.9967041015625

> <r_i_glide_ecoul>
-4.4499626159668

> <r_i_glide_erotb>
0

> <r_i_glide_esite>
0

> <r_i_glide_emodel>
-44.909473282047

> <r_i_glide_energy>
-32.4466667175293

> <r_i_glide_einternal>
0

> <i_i_glide_confnum>
1

> <i_i_glide_posenum>
142

> <r_i_glide_eff_state_penalty>
0

> <s_user_duplicate_titles>
CHEMBL3717_lig3486

> <s_m_subgroup_title>
dock_pv

> <s_m_subgroupid>
dock_pv

> <b_m_subgroup_collapsed>
1

$$$$
CHEMBL3717_lig2363
                    3D
 Schrodinger Suite 2021-1.
 40 44  0  0  1  0            999 V2000
   -9.3672    0.7990   29.5487 N   0  0  0  0  0  0
   -9.4860   -0.4347   28.9988 C   0  0  0  0  0  0
   -8.3956   -1.2192   28.6312 C   0  0  0  0  0  0
   -7.1102   -0.7173   28.8183 C   0  0  0  0  0  0
   -6.9423    0.5681   29.3883 C   0  0  0  0  0  0
   -5.6700    1.1413   29.6205 C   0  0  0  0  0  0
   -5.5465    2.3955   30.2255 C   0  0  0  0  0  0
   -6.7043    3.0833   30.6070 C   0  0  0  0  0  0
   -7.9725    2.5620   30.3619 C   0  0  0  0  0  0
   -8.1147    1.2963   29.7530 C   0  0  0  0  0  0
   -4.1301    2.9090   30.5164 C   0  0  0  0  0  0
   -1.3893    4.2861   30.6082 N   0  0  0  0  0  0
   -2.5735    4.9307   30.6079 N   0  0  0  0  0  0
   -2.7386    6.3173   30.4612 C   0  0  0  0  0  0
   -1.6884    7.1090   30.2081 N   0  0  0  0  0  0
   -0.4750    6.4925   30.2072 C   0  0  0  0  0  0
   -0.3243    5.1161   30.4264 C   0  0  0  0  0  0
   -4.7164    5.4150   30.6206 N   0  0  0  0  0  0
   -4.0441    6.6266   30.5788 N   0  0  0  0  0  0
   -3.8528    4.4150   30.6051 C   0  0  0  0  0  0
    1.0064    4.4860   30.4698 C   0  0  0  0  0  0
    1.8283    4.7139   31.5716 C   0  0  0  0  0  0
    3.1048    4.1674   31.6139 C   0  0  0  0  0  0
    3.5659    3.4009   30.5496 C   0  0  0  0  0  0
    2.7485    3.1602   29.4463 C   0  0  0  0  0  0
    1.4657    3.7008   29.4082 C   0  0  0  0  0  0
    5.1647    2.7573   30.6078 Cl  0  0  0  0  0  0
  -10.4934   -0.8007   28.8616 H   0  0  0  0  0  0
   -8.5405   -2.2008   28.2065 H   0  0  0  0  0  0
   -6.2404   -1.2983   28.5431 H   0  0  0  0  0  0
   -4.7929    0.5741   29.3388 H   0  0  0  0  0  0
   -6.6540    4.0248   31.1268 H   0  0  0  0  0  0
   -8.8545    3.1104   30.6607 H   0  0  0  0  0  0
   -3.7828    2.3988   31.4074 H   0  0  0  0  0  0
   -3.4828    2.4964   29.7436 H   0  0  0  0  0  0
    0.3844    7.1262   30.0406 H   0  0  0  0  0  0
    1.4786    5.3184   32.3959 H   0  0  0  0  0  0
    3.7381    4.3574   32.4652 H   0  0  0  0  0  0
    3.1043    2.5600   28.6215 H   0  0  0  0  0  0
    0.8330    3.5148   28.5511 H   0  0  0  0  0  0
  1  2  2  0  0  0
  1 10  1  0  0  0
  2  3  1  0  0  0
  2 28  1  0  0  0
  3  4  2  0  0  0
  3 29  1  0  0  0
  4  5  1  0  0  0
  4 30  1  0  0  0
  5  6  2  0  0  0
  5 10  1  0  0  0
  6  7  1  0  0  0
  6 31  1  0  0  0
  7  8  2  0  0  0
  7 11  1  0  0  0
  8  9  1  0  0  0
  8 32  1  0  0  0
  9 10  2  0  0  0
  9 33  1  0  0  0
 11 20  1  0  0  0
 11 34  1  0  0  0
 11 35  1  0  0  0
 12 13  1  0  0  0
 12 17  2  0  0  0
 13 14  1  0  0  0
 13 20  1  0  0  0
 14 15  1  0  0  0
 14 19  2  0  0  0
 15 16  2  0  0  0
 16 17  1  0  0  0
 16 36  1  0  0  0
 17 21  1  0  0  0
 18 19  1  0  0  0
 18 20  2  0  0  0
 21 22  1  0  0  0
 21 26  2  0  0  0
 22 23  2  0  0  0
 22 37  1  0  0  0
 23 24  1  0  0  0
 23 38  1  0  0  0
 24 25  2  0  0  0
 24 27  1  0  0  0
 25 26  1  0  0  0
 25 39  1  0  0  0
 26 40  1  0  0  0
M  END
> <s_m_entry_id>
10260

> <s_m_entry_name>
dock_pv.329

> <s_m_Source_Path>
/home/csk/Desktop/cluster/DUD-E-result/met

> <s_m_Source_File>
dock_pv.maegz

> <i_m_Source_File_Index>
329

> <chembl_id>
CHEMBL3797307

> <chembl_pref_name>
None

> <i_lp_mmshare_version>
53161

> <i_f3d_flags>
0

> <r_lp_tautomer_probability>
1

> <s_lp_Force_Field>
OPLS_2005

> <r_lp_Energy>
27.265705

> <b_lp_Chiralities_Consistent>
1

> <s_lp_Variant>
CHEMBL3717_lig2363-1

> <s_i_glide_gridfile>
glide-grid_3lq8

> <i_i_glide_lignum>
2687

> <i_i_glide_rotatable_bonds>
3

> <r_i_docking_score>
-7.63281975886373

> <r_i_glide_ligand_efficiency>
-0.282697028106064

> <r_i_glide_ligand_efficiency_sa>
-0.848091083386469

> <r_i_glide_ligand_efficiency_ln>
-1.77679460299507

> <r_i_glide_gscore>
-7.63281975886373

> <r_i_glide_lipo>
-3.05738148489558

> <r_i_glide_hbond>
0

> <r_i_glide_metal>
0

> <r_i_glide_rewards>
-2.66923072120087

> <r_i_glide_evdw>
-44.1189613342285

> <r_i_glide_ecoul>
-0.781581580638885

> <r_i_glide_erotb>
0.416977751039978

> <r_i_glide_esite>
0

> <r_i_glide_emodel>
-60.8873140450138

> <r_i_glide_energy>
-44.9005429148674

> <r_i_glide_einternal>
3.74298787117004

> <i_i_glide_confnum>
3

> <i_i_glide_posenum>
113

> <r_i_glide_eff_state_penalty>
0

> <s_user_duplicate_titles>
CHEMBL3717_lig2363

> <s_m_subgroup_title>
dock_pv

> <s_m_subgroupid>
dock_pv

> <b_m_subgroup_collapsed>
1

$$$$
CHEMBL3717_lig1871
                    3D
 Schrodinger Suite 2021-1.
 42 46  0  0  1  0            999 V2000
   -3.4858    2.2599   30.7265 C   0  0  0  0  0  0
   -4.5107    3.0849   30.2300 C   0  0  0  0  0  0
   -4.3577    4.4339   30.0669 N   0  0  0  0  0  0
   -2.2643    2.7568   31.0690 N   0  0  0  0  0  0
   -2.1257    4.0634   30.8528 C   0  0  0  0  0  0
   -3.1404    4.9107   30.3550 C   0  0  0  0  0  0
   -2.6337    6.1688   30.2088 N   0  0  0  0  0  0
   -1.3078    6.1202   30.6080 N   0  0  0  0  0  0
   -1.0293    4.8718   31.0463 N   0  0  0  0  0  0
   -3.6582    0.8031   30.9998 C   0  0  0  0  0  0
   -4.5826   -0.0800   30.4628 C   0  0  0  0  0  0
   -4.3137   -1.3071   31.0178 N   0  0  0  0  0  0
   -3.2888   -1.2700   31.8746 N   0  0  0  0  0  0
   -2.9093   -0.0150   31.8705 C   0  0  0  0  0  0
    0.2675    4.5233   31.6204 C   0  0  0  0  0  0
    1.3998    4.2619   30.6494 C   0  0  0  0  0  0
   -4.9603   -2.5828   30.7318 C   0  0  0  0  0  0
    1.1799    3.8155   29.3433 C   0  0  0  0  0  0
    2.2363    3.6566   28.4460 C   0  0  0  0  0  0
    2.7034    4.4559   31.0996 C   0  0  0  0  0  0
    3.7390    4.3297   30.2209 N   0  0  0  0  0  0
    3.5376    3.9572   28.8821 C   0  0  0  0  0  0
    4.7062    3.9599   28.2082 N   0  0  0  0  0  0
    5.6055    4.3569   29.0841 C   0  0  0  0  0  0
    5.0905    4.5079   30.3647 C   0  0  0  0  0  0
   -4.7278   -3.0419   29.2815 C   0  0  0  0  0  0
   -3.3563   -3.2433   29.0081 O   0  0  0  0  0  0
   -5.4843    2.6816   29.9983 H   0  0  0  0  0  0
   -5.3667    0.0394   29.7303 H   0  0  0  0  0  0
   -2.0941    0.3141   32.4972 H   0  0  0  0  0  0
    0.5459    5.3127   32.3188 H   0  0  0  0  0  0
    0.1495    3.6140   32.2074 H   0  0  0  0  0  0
   -6.0284   -2.4294   30.8830 H   0  0  0  0  0  0
   -4.6876   -3.3545   31.4530 H   0  0  0  0  0  0
    0.1797    3.5856   29.0099 H   0  0  0  0  0  0
    2.0555    3.3290   27.4327 H   0  0  0  0  0  0
    2.9537    4.7553   32.1052 H   0  0  0  0  0  0
    6.6450    4.4566   28.8052 H   0  0  0  0  0  0
    5.5632    4.7570   31.3007 H   0  0  0  0  0  0
   -5.0563   -2.2522   28.6091 H   0  0  0  0  0  0
   -5.3104   -3.9322   29.0458 H   0  0  0  0  0  0
   -3.0853   -4.0705   29.4367 H   0  0  0  0  0  0
  1  2  1  0  0  0
  1  4  2  0  0  0
  1 10  1  0  0  0
  2  3  2  0  0  0
  2 28  1  0  0  0
  3  6  1  0  0  0
  4  5  1  0  0  0
  5  6  2  0  0  0
  5  9  1  0  0  0
  6  7  1  0  0  0
  7  8  2  0  0  0
  8  9  1  0  0  0
  9 15  1  0  0  0
 10 11  2  0  0  0
 10 14  1  0  0  0
 11 12  1  0  0  0
 11 29  1  0  0  0
 12 13  1  0  0  0
 12 17  1  0  0  0
 13 14  2  0  0  0
 14 30  1  0  0  0
 15 16  1  0  0  0
 15 31  1  0  0  0
 15 32  1  0  0  0
 16 18  1  0  0  0
 16 20  2  0  0  0
 17 26  1  0  0  0
 17 33  1  0  0  0
 17 34  1  0  0  0
 18 19  2  0  0  0
 18 35  1  0  0  0
 19 22  1  0  0  0
 19 36  1  0  0  0
 20 21  1  0  0  0
 20 37  1  0  0  0
 21 22  1  0  0  0
 21 25  1  0  0  0
 22 23  2  0  0  0
 23 24  1  0  0  0
 24 25  2  0  0  0
 24 38  1  0  0  0
 25 39  1  0  0  0
 26 27  1  0  0  0
 26 40  1  0  0  0
 26 41  1  0  0  0
 27 42  1  0  0  0
M  END
> <s_m_entry_id>
10261

> <s_m_entry_name>
dock_pv.330

> <s_m_Source_Path>
/home/csk/Desktop/cluster/DUD-E-result/met

> <s_m_Source_File>
dock_pv.maegz

> <i_m_Source_File_Index>
330

> <chembl_id>
CHEMBL3334550

> <chembl_pref_name>
None

> <i_lp_mmshare_version>
53161

> <i_f3d_flags>
0

> <r_lp_tautomer_probability>
1

> <s_lp_Force_Field>
OPLS_2005

> <r_lp_Energy>
19.9064

> <b_lp_Chiralities_Consistent>
1

> <s_lp_Variant>
CHEMBL3717_lig1871-1

> <s_i_glide_gridfile>
glide-grid_3lq8

> <i_i_glide_lignum>
2160

> <i_i_glide_rotatable_bonds>
6

> <r_i_docking_score>
-7.63275944041414

> <r_i_glide_ligand_efficiency>
-0.282694794089413

> <r_i_glide_ligand_efficiency_sa>
-0.848084381336522

> <r_i_glide_ligand_efficiency_ln>
-1.77678056185443

> <r_i_glide_gscore>
-7.63275944041414

> <r_i_glide_lipo>
-2.42269988406853

> <r_i_glide_hbond>
-0.184317884404927

> <r_i_glide_metal>
0

> <r_i_glide_rewards>
-3.15360128787879

> <r_i_glide_evdw>
-43.5979843139648

> <r_i_glide_ecoul>
-2.84677672386169

> <r_i_glide_erotb>
0.734775340215608

> <r_i_glide_esite>
0

> <r_i_glide_emodel>
-64.4113927716249

> <r_i_glide_energy>
-46.4447610378265

> <r_i_glide_einternal>
5.38397121429443

> <i_i_glide_confnum>
1

> <i_i_glide_posenum>
326

> <r_i_glide_eff_state_penalty>
0

> <s_user_duplicate_titles>
CHEMBL3717_lig1871

> <s_m_subgroup_title>
dock_pv

> <s_m_subgroupid>
dock_pv

> <b_m_subgroup_collapsed>
1

$$$$
CHEMBL3717_lig3751
                    3D
 Schrodinger Suite 2021-1.
 49 53  0  0  1  0            999 V2000
   -4.0916    6.7570   30.6080 S   0  0  0  0  0  0
   -1.4043   -0.4666   33.5164 F   0  0  0  0  0  0
    4.2547    3.2923   30.2251 F   0  0  0  0  0  0
   -3.5103    4.2776   30.6422 N   0  0  0  0  0  0
   -5.2111   -0.9135   30.9847 N   0  0  0  0  0  0
   -1.6092    5.4694   30.6336 N   0  0  0  0  0  0
   -3.6325   -1.9631   32.2082 N   0  0  0  0  0  0
   -5.4674   -3.2442   31.5400 N   0  0  0  0  0  0
   -2.4741    3.3850   30.8392 C   0  0  0  0  0  0
   -2.8103    1.9673   31.1753 C   0  0  0  0  0  0
   -1.2993    4.1954   30.7301 C   0  0  0  0  0  0
   -4.1653   -0.0124   31.1165 C   0  0  0  0  0  0
   -2.9096    5.5081   30.6126 C   0  0  0  0  0  0
   -3.2864   -0.6545   32.0248 C   0  0  0  0  0  0
   -3.8984    1.2738   30.6229 C   0  0  0  0  0  0
   -2.2463    0.0782   32.6078 C   0  0  0  0  0  0
   -2.0940    1.4082   32.2236 C   0  0  0  0  0  0
    0.1738    3.9169   30.6639 C   0  0  0  0  0  0
   -4.7680   -2.0800   31.5829 C   0  0  0  0  0  0
   -4.8996    4.2962   30.6082 C   0  0  0  0  0  0
   -5.3806    5.5733   30.6079 C   0  0  0  0  0  0
   -6.5590   -0.6677   30.4567 C   0  0  0  0  0  0
    0.7061    3.5272   29.4354 C   0  0  0  0  0  0
    1.0556    4.1797   31.7205 C   0  0  0  0  0  0
   -6.6844   -0.7940   28.9244 C   0  0  0  0  0  0
    2.0737    3.3077   29.2812 C   0  0  0  0  0  0
    2.4237    3.9596   31.5776 C   0  0  0  0  0  0
    2.9278    3.5143   30.3602 C   0  0  0  0  0  0
   -6.1777    0.4651   28.2072 C   0  0  0  0  0  0
   -8.1405   -1.0820   28.5156 C   0  0  0  0  0  0
   -4.9506   -4.1144   31.6273 H   0  0  0  0  0  0
   -6.3410   -3.3108   31.0439 H   0  0  0  0  0  0
   -4.5190    1.7275   29.8739 H   0  0  0  0  0  0
   -1.3032    1.9821   32.6843 H   0  0  0  0  0  0
   -5.4922    3.3984   30.6661 H   0  0  0  0  0  0
   -6.4105    5.9059   30.5893 H   0  0  0  0  0  0
   -6.8805    0.3179   30.7986 H   0  0  0  0  0  0
   -7.2377   -1.3670   30.9478 H   0  0  0  0  0  0
    0.0427    3.3458   28.6080 H   0  0  0  0  0  0
    0.7061    4.5790   32.6520 H   0  0  0  0  0  0
   -6.0857   -1.6454   28.5974 H   0  0  0  0  0  0
    2.4675    2.9686   28.3348 H   0  0  0  0  0  0
    3.0939    4.1508   32.4019 H   0  0  0  0  0  0
   -6.5602    1.3695   28.6786 H   0  0  0  0  0  0
   -6.4940    0.4903   27.1635 H   0  0  0  0  0  0
   -5.0896    0.5003   28.2078 H   0  0  0  0  0  0
   -8.8123   -0.2855   28.8366 H   0  0  0  0  0  0
   -8.2316   -1.1754   27.4332 H   0  0  0  0  0  0
   -8.4994   -2.0159   28.9492 H   0  0  0  0  0  0
  1 13  1  0  0  0
  1 21  1  0  0  0
  2 16  1  0  0  0
  3 28  1  0  0  0
  4  9  1  0  0  0
  4 13  1  0  0  0
  4 20  1  0  0  0
  5 12  1  0  0  0
  5 19  1  0  0  0
  5 22  1  0  0  0
  6 11  1  0  0  0
  6 13  2  0  0  0
  7 14  1  0  0  0
  7 19  2  0  0  0
  8 19  1  0  0  0
  8 31  1  0  0  0
  8 32  1  0  0  0
  9 10  1  0  0  0
  9 11  2  0  0  0
 10 15  1  0  0  0
 10 17  2  0  0  0
 11 18  1  0  0  0
 12 14  1  0  0  0
 12 15  2  0  0  0
 14 16  2  0  0  0
 15 33  1  0  0  0
 16 17  1  0  0  0
 17 34  1  0  0  0
 18 23  2  0  0  0
 18 24  1  0  0  0
 20 21  2  0  0  0
 20 35  1  0  0  0
 21 36  1  0  0  0
 22 25  1  0  0  0
 22 37  1  0  0  0
 22 38  1  0  0  0
 23 26  1  0  0  0
 23 39  1  0  0  0
 24 27  2  0  0  0
 24 40  1  0  0  0
 25 29  1  0  0  0
 25 30  1  0  0  0
 25 41  1  0  0  0
 26 28  2  0  0  0
 26 42  1  0  0  0
 27 28  1  0  0  0
 27 43  1  0  0  0
 29 44  1  0  0  0
 29 45  1  0  0  0
 29 46  1  0  0  0
 30 47  1  0  0  0
 30 48  1  0  0  0
 30 49  1  0  0  0
M  END
> <s_m_entry_id>
10262

> <s_m_entry_name>
dock_pv.331

> <s_m_Source_Path>
/home/csk/Desktop/cluster/DUD-E-result/met

> <s_m_Source_File>
dock_pv.maegz

> <i_m_Source_File_Index>
331

> <chembl_id>
CHEMBL2004419

> <chembl_pref_name>
None

> <i_lp_mmshare_version>
53161

> <i_f3d_flags>
0

> <r_lp_tautomer_probability>
1

> <s_lp_Force_Field>
OPLS_2005

> <r_lp_Energy>
23.279408

> <b_lp_Chiralities_Consistent>
1

> <s_lp_Variant>
CHEMBL3717_lig3751-1

> <s_i_glide_gridfile>
glide-grid_3lq8

> <i_i_glide_lignum>
4737

> <i_i_glide_rotatable_bonds>
4

> <r_i_docking_score>
-7.63244306547688

> <r_i_glide_ligand_efficiency>
-0.254414768849229

> <r_i_glide_ligand_efficiency_sa>
-0.790525838866818

> <r_i_glide_ligand_efficiency_ln>
-1.73417422660431

> <r_i_glide_gscore>
-7.63244306547688

> <r_i_glide_lipo>
-3.55536632474604

> <r_i_glide_hbond>
-0.0872575067268621

> <r_i_glide_metal>
0

> <r_i_glide_rewards>
-2.37632469187594

> <r_i_glide_evdw>
-31.3145618438721

> <r_i_glide_ecoul>
-2.15934371948242

> <r_i_glide_erotb>
0.331550418617652

> <r_i_glide_esite>
-0.0554153106297261

> <r_i_glide_emodel>
-54.5922873657475

> <r_i_glide_energy>
-33.4739055633545

> <r_i_glide_einternal>
5.91038084030151

> <i_i_glide_confnum>
11

> <i_i_glide_posenum>
90

> <r_i_glide_eff_state_penalty>
0

> <s_user_duplicate_titles>
CHEMBL3717_lig3751

> <s_m_subgroup_title>
dock_pv

> <s_m_subgroupid>
dock_pv

> <b_m_subgroup_collapsed>
1

$$$$
CHEMBL3717_lig4086
                    3D
 Schrodinger Suite 2021-1.
 33 35  0  0  1  0            999 V2000
   -8.2850    4.2557   31.5310 O   0  0  0  0  0  0
   -7.1903    1.7014   30.1751 N   0  0  0  0  0  0
   -7.6940    5.5568   29.8082 N   0  0  0  0  0  0
    1.1700    4.4498   31.3292 N   0  0  0  0  0  0
   -6.0596    2.4640   30.3052 C   0  0  0  0  0  0
   -6.1414    3.8768   30.5341 C   0  0  0  0  0  0
   -4.7670    1.8676   30.1894 C   0  0  0  0  0  0
   -3.6942    4.0514   30.5319 C   0  0  0  0  0  0
   -4.9640    4.6305   30.6185 C   0  0  0  0  0  0
   -3.6153    2.6703   30.3168 C   0  0  0  0  0  0
   -2.4453    4.8793   30.6082 C   0  0  0  0  0  0
   -7.4672    4.5736   30.6724 C   0  0  0  0  0  0
   -4.6801    0.4753   29.9353 C   0  0  0  0  0  0
   -1.2213    4.3144   31.0080 C   0  0  0  0  0  0
   -2.4395    6.2255   30.2081 C   0  0  0  0  0  0
   -7.0701    0.3742   29.9331 C   0  0  0  0  0  0
   -5.8463   -0.2716   29.8058 C   0  0  0  0  0  0
   -0.0319    5.0414   30.9490 C   0  0  0  0  0  0
   -1.2521    6.9547   30.1406 C   0  0  0  0  0  0
   -0.0447    6.3568   30.4947 C   0  0  0  0  0  0
   -6.9625    5.9057   29.2001 H   0  0  0  0  0  0
   -8.5851    6.0330   29.8240 H   0  0  0  0  0  0
    2.0294    4.9417   31.1337 H   0  0  0  0  0  0
    1.1849    3.4512   31.4753 H   0  0  0  0  0  0
   -5.0460    5.6936   30.7949 H   0  0  0  0  0  0
   -2.6569    2.1865   30.2085 H   0  0  0  0  0  0
   -3.7138    0.0016   29.8346 H   0  0  0  0  0  0
   -1.1817    3.2924   31.3528 H   0  0  0  0  0  0
   -3.3509    6.7064   29.8885 H   0  0  0  0  0  0
   -7.9937   -0.1776   29.8370 H   0  0  0  0  0  0
   -5.7998   -1.3318   29.6023 H   0  0  0  0  0  0
   -1.2644    7.9818   29.8063 H   0  0  0  0  0  0
    0.8710    6.9262   30.4343 H   0  0  0  0  0  0
  1 12  2  0  0  0
  2  5  2  0  0  0
  2 16  1  0  0  0
  3 12  1  0  0  0
  3 21  1  0  0  0
  3 22  1  0  0  0
  4 18  1  0  0  0
  4 23  1  0  0  0
  4 24  1  0  0  0
  5  6  1  0  0  0
  5  7  1  0  0  0
  6  9  2  0  0  0
  6 12  1  0  0  0
  7 10  1  0  0  0
  7 13  2  0  0  0
  8  9  1  0  0  0
  8 10  2  0  0  0
  8 11  1  0  0  0
  9 25  1  0  0  0
 10 26  1  0  0  0
 11 14  1  0  0  0
 11 15  2  0  0  0
 13 17  1  0  0  0
 13 27  1  0  0  0
 14 18  2  0  0  0
 14 28  1  0  0  0
 15 19  1  0  0  0
 15 29  1  0  0  0
 16 17  2  0  0  0
 16 30  1  0  0  0
 17 31  1  0  0  0
 18 20  1  0  0  0
 19 20  2  0  0  0
 19 32  1  0  0  0
 20 33  1  0  0  0
M  END
> <s_m_entry_id>
10263

> <s_m_entry_name>
dock_pv.332

> <s_m_Source_Path>
/home/csk/Desktop/cluster/DUD-E-result/met

> <s_m_Source_File>
dock_pv.maegz

> <i_m_Source_File_Index>
332

> <chembl_id>
CHEMBL1970314

> <chembl_pref_name>
None

> <i_lp_mmshare_version>
53161

> <i_f3d_flags>
0

> <r_lp_tautomer_probability>
1

> <s_lp_Force_Field>
OPLS_2005

> <r_lp_Energy>
23.802917

> <b_lp_Chiralities_Consistent>
1

> <s_lp_Variant>
CHEMBL3717_lig4086-1

> <s_i_glide_gridfile>
glide-grid_3lq8

> <i_i_glide_lignum>
5214

> <i_i_glide_rotatable_bonds>
2

> <r_i_docking_score>
-7.62951763377419

> <r_i_glide_ligand_efficiency>
-0.381475881688709

> <r_i_glide_ligand_efficiency_sa>
-1.0354848525279

> <r_i_glide_ligand_efficiency_ln>
-1.90941662540072

> <r_i_glide_gscore>
-7.62951763377419

> <r_i_glide_lipo>
-2.8238327471497

> <r_i_glide_hbond>
-0.383502272961654

> <r_i_glide_metal>
0

> <r_i_glide_rewards>
-2.42255065498259

> <r_i_glide_evdw>
-29.4084911346436

> <r_i_glide_ecoul>
-5.18720865249634

> <r_i_glide_erotb>
0.256133936522098

> <r_i_glide_esite>
-0.00726004059571629

> <r_i_glide_emodel>
-49.181228355448

> <r_i_glide_energy>
-34.5956997871399

> <r_i_glide_einternal>
1.14410054683685

> <i_i_glide_confnum>
1

> <i_i_glide_posenum>
102

> <r_i_glide_eff_state_penalty>
0

> <s_user_duplicate_titles>
CHEMBL3717_lig4086

> <s_m_subgroup_title>
dock_pv

> <s_m_subgroupid>
dock_pv

> <b_m_subgroup_collapsed>
1

$$$$
CHEMBL3717_lig435
                    3D
 Schrodinger Suite 2021-1.
 31 34  0  0  1  0            999 V2000
    5.8572    4.5928   30.5212 C   0  0  0  0  0  0
    6.1153    4.5909   29.1566 C   0  0  0  0  0  0
    5.1807    4.3568   28.2080 N   0  0  0  0  0  0
    4.5594    4.3570   30.9788 C   0  0  0  0  0  0
    3.6008    4.0682   30.0022 C   0  0  0  0  0  0
    3.9596    4.0149   28.6257 C   0  0  0  0  0  0
    2.8199    3.5565   27.8944 C   0  0  0  0  0  0
    1.7954    3.4619   28.8025 C   0  0  0  0  0  0
    2.2412    3.8306   30.0523 N   0  0  0  0  0  0
    1.1656    4.0455   31.3582 S   0  0  0  0  0  0
    0.1141    5.3506   30.7914 C   0  0  0  0  0  0
    0.3760    2.8237   31.4080 O   0  0  0  0  0  0
    1.9296    4.5329   32.5096 O   0  0  0  0  0  0
    0.7059    6.4785   30.2295 C   0  0  0  0  0  0
   -0.0598    7.5247   29.7388 C   0  0  0  0  0  0
   -1.4483    7.4958   29.8080 C   0  0  0  0  0  0
   -1.2892    5.2789   30.8241 C   0  0  0  0  0  0
   -2.0677    6.3577   30.3384 C   0  0  0  0  0  0
   -3.3917    6.0924   30.4756 N   0  0  0  0  0  0
   -3.3893    4.8009   31.0079 O   0  0  0  0  0  0
   -2.1105    4.2873   31.2536 N   0  0  0  0  0  0
    6.8971    4.8488   31.4080 N   0  0  0  0  0  0
    7.1141    4.7576   28.7828 H   0  0  0  0  0  0
    4.3061    4.3829   32.0249 H   0  0  0  0  0  0
    2.7271    3.3458   26.8428 H   0  0  0  0  0  0
    0.7560    3.1932   28.6572 H   0  0  0  0  0  0
    1.7825    6.5419   30.1665 H   0  0  0  0  0  0
    0.4407    8.3705   29.2975 H   0  0  0  0  0  0
   -2.0209    8.3280   29.4367 H   0  0  0  0  0  0
    6.6442    5.1586   32.3350 H   0  0  0  0  0  0
    7.7606    5.1813   30.9990 H   0  0  0  0  0  0
  1  2  2  0  0  0
  1  4  1  0  0  0
  1 22  1  0  0  0
  2  3  1  0  0  0
  2 23  1  0  0  0
  3  6  2  0  0  0
  4  5  2  0  0  0
  4 24  1  0  0  0
  5  6  1  0  0  0
  5  9  1  0  0  0
  6  7  1  0  0  0
  7  8  2  0  0  0
  7 25  1  0  0  0
  8  9  1  0  0  0
  8 26  1  0  0  0
  9 10  1  0  0  0
 10 11  1  0  0  0
 10 12  2  0  0  0
 10 13  2  0  0  0
 11 14  2  0  0  0
 11 17  1  0  0  0
 14 15  1  0  0  0
 14 27  1  0  0  0
 15 16  2  0  0  0
 15 28  1  0  0  0
 16 18  1  0  0  0
 16 29  1  0  0  0
 17 18  1  0  0  0
 17 21  2  0  0  0
 18 19  2  0  0  0
 19 20  1  0  0  0
 20 21  1  0  0  0
 22 30  1  0  0  0
 22 31  1  0  0  0
M  END
> <s_m_entry_id>
10264

> <s_m_entry_name>
dock_pv.333

> <s_m_Source_Path>
/home/csk/Desktop/cluster/DUD-E-result/met

> <s_m_Source_File>
dock_pv.maegz

> <i_m_Source_File_Index>
333

> <chembl_id>
CHEMBL562063

> <chembl_pref_name>
None

> <i_lp_mmshare_version>
53161

> <i_f3d_flags>
0

> <r_lp_tautomer_probability>
1

> <s_lp_Force_Field>
OPLS_2005

> <r_lp_Energy>
5.611013

> <b_lp_Chiralities_Consistent>
1

> <s_lp_Variant>
CHEMBL3717_lig435-1

> <s_i_glide_gridfile>
glide-grid_3lq8

> <i_i_glide_lignum>
459

> <i_i_glide_rotatable_bonds>
2

> <r_i_docking_score>
-7.62890634969333

> <r_i_glide_ligand_efficiency>
-0.346768470440606

> <r_i_glide_ligand_efficiency_sa>
-0.971658891804642

> <r_i_glide_ligand_efficiency_ln>
-1.86478298298538

> <r_i_glide_gscore>
-7.62890634969333

> <r_i_glide_lipo>
-3.38267993964726

> <r_i_glide_hbond>
0

> <r_i_glide_metal>
0

> <r_i_glide_rewards>
-2.78182137677665

> <r_i_glide_evdw>
-33.7648010253906

> <r_i_glide_ecoul>
-1.00235497951508

> <r_i_glide_erotb>
0.374188264927368

> <r_i_glide_esite>
0

> <r_i_glide_emodel>
-48.757152802447

> <r_i_glide_energy>
-34.7671560049057

> <r_i_glide_einternal>
1.819575548172

> <i_i_glide_confnum>
1

> <i_i_glide_posenum>
70

> <r_i_glide_eff_state_penalty>
0

> <s_user_duplicate_titles>
CHEMBL3717_lig435,555160

> <s_m_subgroup_title>
dock_pv

> <s_m_subgroupid>
dock_pv

> <b_m_subgroup_collapsed>
1

$$$$
CHEMBL3717_lig3463
                    3D
 Schrodinger Suite 2021-1.
 31 33  0  0  1  0            999 V2000
    0.6916    4.5391   30.8390 N   0  0  0  0  0  0
   -0.1859    6.7029   30.2080 N   0  0  0  0  0  0
   -2.6217    6.8483   30.2080 N   0  0  0  0  0  0
   -4.0121    5.0387   30.6486 N   0  0  0  0  0  0
   -1.5764    4.7770   30.8203 C   0  0  0  0  0  0
   -0.3292    5.4390   30.6080 C   0  0  0  0  0  0
   -1.2771    3.4263   31.1680 C   0  0  0  0  0  0
    0.1038    3.3578   31.2112 C   0  0  0  0  0  0
   -2.7247    5.5571   30.5821 C   0  0  0  0  0  0
    2.1140    4.7538   30.5587 C   0  0  0  0  0  0
   -2.2132    2.3372   31.3566 C   0  0  0  0  0  0
   -1.3698    7.3318   30.0485 C   0  0  0  0  0  0
    3.1059    3.9435   31.4110 C   0  0  0  0  0  0
    2.4665    4.3570   29.1166 C   0  0  0  0  0  0
    4.3986    3.9571   30.5892 C   0  0  0  0  0  0
    3.9633    4.0094   29.1187 C   0  0  0  0  0  0
   -2.9729    1.3832   31.4080 C   0  0  0  0  0  0
   -4.1415    4.0677   30.8950 H   0  0  0  0  0  0
   -4.7906    5.6400   30.4195 H   0  0  0  0  0  0
    0.7412    2.5150   31.4080 H   0  0  0  0  0  0
    2.3060    5.8168   30.7106 H   0  0  0  0  0  0
   -1.3035    8.3570   29.7902 H   0  0  0  0  0  0
    2.8072    2.9021   31.5238 H   0  0  0  0  0  0
    3.2408    4.3624   32.4086 H   0  0  0  0  0  0
    2.2206    5.1530   28.4140 H   0  0  0  0  0  0
    1.9117    3.4653   28.8142 H   0  0  0  0  0  0
    5.0261    3.0884   30.7940 H   0  0  0  0  0  0
    4.9863    4.8438   30.8328 H   0  0  0  0  0  0
    4.1376    3.0528   28.6225 H   0  0  0  0  0  0
    4.5440    4.7570   28.5764 H   0  0  0  0  0  0
   -3.6309    0.5432   31.4389 H   0  0  0  0  0  0
  1  6  1  0  0  0
  1  8  1  0  0  0
  1 10  1  0  0  0
  2  6  1  0  0  0
  2 12  2  0  0  0
  3  9  2  0  0  0
  3 12  1  0  0  0
  4  9  1  0  0  0
  4 18  1  0  0  0
  4 19  1  0  0  0
  5  6  2  0  0  0
  5  7  1  0  0  0
  5  9  1  0  0  0
  7  8  2  0  0  0
  7 11  1  0  0  0
  8 20  1  0  0  0
 10 13  1  0  0  0
 10 14  1  0  0  0
 10 21  1  0  0  0
 11 17  3  0  0  0
 12 22  1  0  0  0
 13 15  1  0  0  0
 13 23  1  0  0  0
 13 24  1  0  0  0
 14 16  1  0  0  0
 14 25  1  0  0  0
 14 26  1  0  0  0
 15 16  1  0  0  0
 15 27  1  0  0  0
 15 28  1  0  0  0
 16 29  1  0  0  0
 16 30  1  0  0  0
 17 31  1  0  0  0
M  END
> <s_m_entry_id>
10265

> <s_m_entry_name>
dock_pv.334

> <s_m_Source_Path>
/home/csk/Desktop/cluster/DUD-E-result/met

> <s_m_Source_File>
dock_pv.maegz

> <i_m_Source_File_Index>
334

> <chembl_id>
CHEMBL1993877

> <chembl_pref_name>
None

> <i_lp_mmshare_version>
53161

> <i_f3d_flags>
0

> <r_lp_tautomer_probability>
1

> <s_lp_Force_Field>
OPLS_2005

> <r_lp_Energy>
26.828746

> <b_lp_Chiralities_Consistent>
1

> <s_lp_Variant>
CHEMBL3717_lig3463-1

> <s_i_glide_gridfile>
glide-grid_3lq8

> <i_i_glide_lignum>
4275

> <i_i_glide_rotatable_bonds>
2

> <r_i_docking_score>
-7.62524361935156

> <r_i_glide_ligand_efficiency>
-0.448543742314798

> <r_i_glide_ligand_efficiency_sa>
-1.15333226612978

> <r_i_glide_ligand_efficiency_ln>
-1.98925625446214

> <r_i_glide_gscore>
-7.62524361935156

> <r_i_glide_lipo>
-2.73686971396936

> <r_i_glide_hbond>
-0.200798371349669

> <r_i_glide_metal>
0

> <r_i_glide_rewards>
-3.48133799934897

> <r_i_glide_evdw>
-28.2923393249512

> <r_i_glide_ecoul>
-3.03544187545776

> <r_i_glide_erotb>
0.663695712882668

> <r_i_glide_esite>
0

> <r_i_glide_emodel>
-43.4549834186114

> <r_i_glide_energy>
-31.3277812004089

> <r_i_glide_einternal>
1.19754958152771

> <i_i_glide_confnum>
6

> <i_i_glide_posenum>
54

> <r_i_glide_eff_state_penalty>
0

> <s_user_duplicate_titles>
CHEMBL3717_lig3463

> <s_m_subgroup_title>
dock_pv

> <s_m_subgroupid>
dock_pv

> <b_m_subgroup_collapsed>
1

$$$$
CHEMBL3717_lig2086
                    3D
 Schrodinger Suite 2021-1.
 42 46  0  0  1  0            999 V2000
   -5.0552    0.8351   28.2254 F   0  0  0  0  0  0
   -5.6466    0.3739   29.3278 C   0  0  0  0  0  0
   -6.5393   -0.5384   28.9344 F   0  0  0  0  0  0
   -4.1830    4.5176   30.6073 C   0  0  0  0  0  0
   -5.2193    5.3094   31.1054 C   0  0  0  0  0  0
   -6.5142    4.8166   31.2721 C   0  0  0  0  0  0
   -4.4973    3.2286   30.1696 C   0  0  0  0  0  0
   -5.7765    2.7463   30.2967 N   0  0  0  0  0  0
   -6.8083    3.5133   30.8527 C   0  0  0  0  0  0
   -7.9393    2.7743   30.9035 N   0  0  0  0  0  0
   -7.6261    1.5371   30.3710 N   0  0  0  0  0  0
   -6.3568    1.5271   30.0168 C   0  0  0  0  0  0
   -2.7745    5.0078   30.6080 C   0  0  0  0  0  0
   -1.7224    4.1457   30.9504 C   0  0  0  0  0  0
   -0.4020    4.5874   30.9201 C   0  0  0  0  0  0
   -0.1220    5.8982   30.5430 C   0  0  0  0  0  0
   -1.1537    6.7709   30.2074 C   0  0  0  0  0  0
   -2.4740    6.3295   30.2536 C   0  0  0  0  0  0
   -4.5514   -0.3439   30.1378 C   0  0  0  0  0  0
   -4.1067   -1.5909   29.6899 C   0  0  0  0  0  0
   -3.1021   -2.2863   30.3512 C   0  0  0  0  0  0
   -3.9557    0.2158   31.2783 C   0  0  0  0  0  0
   -2.8845   -0.4324   31.9332 C   0  0  0  0  0  0
   -2.4829   -1.7265   31.4866 C   0  0  0  0  0  0
   -1.5073   -2.4333   32.1167 N   0  0  0  0  0  0
   -0.8940   -1.8610   33.1767 C   0  0  0  0  0  0
   -1.1443   -0.5742   33.6170 C   0  0  0  0  0  0
   -2.1609    0.1539   33.0080 C   0  0  0  0  0  0
   -7.4480    5.5568   31.8998 F   0  0  0  0  0  0
   -4.9977    6.3031   31.4570 H   0  0  0  0  0  0
   -3.7635    2.5500   29.7601 H   0  0  0  0  0  0
   -1.9235    3.1245   31.2397 H   0  0  0  0  0  0
    0.4001    3.9131   31.1819 H   0  0  0  0  0  0
    0.9018    6.2420   30.5123 H   0  0  0  0  0  0
   -0.9304    7.7887   29.9190 H   0  0  0  0  0  0
   -3.2646    7.0125   29.9884 H   0  0  0  0  0  0
   -4.5442   -2.0360   28.8059 H   0  0  0  0  0  0
   -2.7869   -3.2549   29.9924 H   0  0  0  0  0  0
   -4.2759    1.1603   31.6779 H   0  0  0  0  0  0
   -0.1134   -2.4235   33.6616 H   0  0  0  0  0  0
   -0.5386   -0.1821   34.4193 H   0  0  0  0  0  0
   -2.4017    1.1500   33.3443 H   0  0  0  0  0  0
  1  2  1  0  0  0
  2  3  1  0  0  0
  2 12  1  0  0  0
  2 19  1  0  0  0
  4  5  1  0  0  0
  4  7  2  0  0  0
  4 13  1  0  0  0
  5  6  2  0  0  0
  5 30  1  0  0  0
  6  9  1  0  0  0
  6 29  1  0  0  0
  7  8  1  0  0  0
  7 31  1  0  0  0
  8  9  1  0  0  0
  8 12  1  0  0  0
  9 10  2  0  0  0
 10 11  1  0  0  0
 11 12  2  0  0  0
 13 14  2  0  0  0
 13 18  1  0  0  0
 14 15  1  0  0  0
 14 32  1  0  0  0
 15 16  2  0  0  0
 15 33  1  0  0  0
 16 17  1  0  0  0
 16 34  1  0  0  0
 17 18  2  0  0  0
 17 35  1  0  0  0
 18 36  1  0  0  0
 19 20  2  0  0  0
 19 22  1  0  0  0
 20 21  1  0  0  0
 20 37  1  0  0  0
 21 24  2  0  0  0
 21 38  1  0  0  0
 22 23  2  0  0  0
 22 39  1  0  0  0
 23 24  1  0  0  0
 23 28  1  0  0  0
 24 25  1  0  0  0
 25 26  2  0  0  0
 26 27  1  0  0  0
 26 40  1  0  0  0
 27 28  2  0  0  0
 27 41  1  0  0  0
 28 42  1  0  0  0
M  END
> <s_m_entry_id>
10266

> <s_m_entry_name>
dock_pv.335

> <s_m_Source_Path>
/home/csk/Desktop/cluster/DUD-E-result/met

> <s_m_Source_File>
dock_pv.maegz

> <i_m_Source_File_Index>
335

> <chembl_id>
CHEMBL3414734

> <chembl_pref_name>
None

> <i_lp_mmshare_version>
53161

> <i_f3d_flags>
0

> <r_lp_tautomer_probability>
1

> <s_lp_Force_Field>
OPLS_2005

> <r_lp_Energy>
24.147164

> <b_lp_Chiralities_Consistent>
1

> <s_lp_Variant>
CHEMBL3717_lig2086-1

> <s_i_glide_gridfile>
glide-grid_3lq8

> <i_i_glide_lignum>
2382

> <i_i_glide_rotatable_bonds>
3

> <r_i_docking_score>
-7.62214896985222

> <r_i_glide_ligand_efficiency>
-0.262832723098352

> <r_i_glide_ligand_efficiency_sa>
-0.807505396609527

> <r_i_glide_ligand_efficiency_ln>
-1.74527883307503

> <r_i_glide_gscore>
-7.62214896985222

> <r_i_glide_lipo>
-3.87300373463484

> <r_i_glide_hbond>
0

> <r_i_glide_metal>
0

> <r_i_glide_rewards>
-1.91055575224386

> <r_i_glide_evdw>
-36.4217948913574

> <r_i_glide_ecoul>
-2.00192356109619

> <r_i_glide_erotb>
0.383977464482045

> <r_i_glide_esite>
-0.10118866872327

> <r_i_glide_emodel>
-53.8407663708622

> <r_i_glide_energy>
-38.4237184524536

> <r_i_glide_einternal>
1.72609722614288

> <i_i_glide_confnum>
16

> <i_i_glide_posenum>
323

> <r_i_glide_eff_state_penalty>
0

> <s_user_duplicate_titles>
CHEMBL3717_lig2086

> <s_m_subgroup_title>
dock_pv

> <s_m_subgroupid>
dock_pv

> <b_m_subgroup_collapsed>
1

$$$$
CHEMBL3717_lig557
                    3D
 Schrodinger Suite 2021-1.
 51 55  0  0  1  0            999 V2000
   -5.0003    0.9269   28.8224 C   0  0  0  0  0  0
   -4.4942    2.0758   29.3078 N   0  0  0  0  0  0
   -5.2552    2.8781   30.0976 C   0  0  0  0  0  0
   -6.5872    2.5235   30.4418 C   0  0  0  0  0  0
   -7.0966    1.3284   29.8864 C   0  0  0  0  0  0
   -6.3077    0.5262   29.0668 C   0  0  0  0  0  0
   -4.6402    4.0835   30.5065 N   0  0  0  0  0  0
   -3.2668    4.3423   30.6391 C   0  0  0  0  0  0
   -2.7477    5.6297   30.4471 C   0  0  0  0  0  0
   -1.3622    5.8523   30.5284 C   0  0  0  0  0  0
   -0.4967    4.8038   30.8749 C   0  0  0  0  0  0
   -1.0330    3.5508   31.1466 C   0  0  0  0  0  0
   -2.3923    3.3132   31.0083 C   0  0  0  0  0  0
   -7.4382    3.3262   31.4076 C   0  0  0  0  0  0
   -7.2919    4.5433   31.5414 O   0  0  0  0  0  0
   -8.2659    2.5632   32.1607 N   0  0  0  0  0  0
   -0.8689    7.0721   30.2142 F   0  0  0  0  0  0
    0.8767    4.9268   30.8883 O   0  0  0  0  0  0
    1.6262    4.2670   29.9278 C   0  0  0  0  0  0
    3.3092    3.1569   27.8866 N   0  0  0  0  0  0
    1.9568    3.1660   27.7969 C   0  0  0  0  0  0
    1.1062    3.7048   28.7581 C   0  0  0  0  0  0
   -9.0247    2.8992   33.2895 C   0  0  0  0  0  0
   -9.4713    4.2040   33.5627 C   0  0  0  0  0  0
  -10.1739    4.4683   34.7374 C   0  0  0  0  0  0
  -10.4125    3.4535   35.6627 C   0  0  0  0  0  0
   -9.9981    2.1535   35.3864 C   0  0  0  0  0  0
   -9.3256    1.8665   34.1986 C   0  0  0  0  0  0
    3.7819    3.6132   29.0467 C   0  0  0  0  0  0
    3.0124    4.1358   30.1251 C   0  0  0  0  0  0
    3.9366    4.3646   31.1842 C   0  0  0  0  0  0
    5.2073    4.1634   30.6789 C   0  0  0  0  0  0
    5.1053    3.6730   29.4091 N   0  0  0  0  0  0
   -8.8937    0.2198   33.8791 Cl  0  0  0  0  0  0
   -4.3308    0.3521   28.1970 H   0  0  0  0  0  0
   -8.1078    1.0078   30.0794 H   0  0  0  0  0  0
   -6.6871   -0.3939   28.6449 H   0  0  0  0  0  0
   -5.2646    4.7088   30.9993 H   0  0  0  0  0  0
   -3.4082    6.4308   30.1725 H   0  0  0  0  0  0
   -0.3639    2.7569   31.4259 H   0  0  0  0  0  0
   -2.7701    2.3214   31.2051 H   0  0  0  0  0  0
   -8.2185    1.5746   31.9889 H   0  0  0  0  0  0
    1.5490    2.7537   26.8851 H   0  0  0  0  0  0
    0.0436    3.6676   28.6081 H   0  0  0  0  0  0
   -9.2951    5.0059   32.8702 H   0  0  0  0  0  0
  -10.5333    5.4666   34.9332 H   0  0  0  0  0  0
  -10.9199    3.6652   36.5858 H   0  0  0  0  0  0
  -10.1992    1.3649   36.0940 H   0  0  0  0  0  0
    3.6995    4.7277   32.1751 H   0  0  0  0  0  0
    6.1812    4.2810   31.1364 H   0  0  0  0  0  0
    5.8938    3.3591   28.8559 H   0  0  0  0  0  0
  1  6  1  0  0  0
  1  2  2  0  0  0
  1 35  1  0  0  0
  2  3  1  0  0  0
  3  7  1  0  0  0
  3  4  2  0  0  0
  4  5  1  0  0  0
  4 14  1  0  0  0
  5  6  2  0  0  0
  5 36  1  0  0  0
  6 37  1  0  0  0
  7  8  1  0  0  0
  7 38  1  0  0  0
  8  9  2  0  0  0
  8 13  1  0  0  0
  9 10  1  0  0  0
  9 39  1  0  0  0
 10 17  1  0  0  0
 10 11  2  0  0  0
 11 18  1  0  0  0
 11 12  1  0  0  0
 12 13  2  0  0  0
 12 40  1  0  0  0
 13 41  1  0  0  0
 14 15  2  0  0  0
 14 16  1  0  0  0
 16 23  1  0  0  0
 16 42  1  0  0  0
 18 19  1  0  0  0
 19 30  2  0  0  0
 19 22  1  0  0  0
 20 29  2  0  0  0
 20 21  1  0  0  0
 21 22  2  0  0  0
 21 43  1  0  0  0
 22 44  1  0  0  0
 23 24  2  0  0  0
 23 28  1  0  0  0
 24 25  1  0  0  0
 24 45  1  0  0  0
 25 26  2  0  0  0
 25 46  1  0  0  0
 26 27  1  0  0  0
 26 47  1  0  0  0
 27 28  2  0  0  0
 27 48  1  0  0  0
 28 34  1  0  0  0
 29 30  1  0  0  0
 29 33  1  0  0  0
 30 31  1  0  0  0
 31 32  2  0  0  0
 31 49  1  0  0  0
 32 33  1  0  0  0
 32 50  1  0  0  0
 33 51  1  0  0  0
M  END
> <s_m_entry_id>
10267

> <s_m_entry_name>
dock_pv.336

> <s_m_Source_Path>
/home/csk/Desktop/cluster/DUD-E-result/met

> <s_m_Source_File>
dock_pv.maegz

> <i_m_Source_File_Index>
336

> <chembl_id>
CHEMBL1099175

> <chembl_pref_name>
None

> <i_lp_mmshare_version>
53161

> <i_f3d_flags>
0

> <r_lp_tautomer_probability>
0.999999772200052

> <s_lp_Force_Field>
OPLS_2005

> <r_lp_Energy>
37.204035

> <b_lp_Chiralities_Consistent>
1

> <s_lp_Variant>
CHEMBL3717_lig557-1

> <s_i_glide_gridfile>
glide-grid_3lq8

> <i_i_glide_lignum>
611

> <i_i_glide_rotatable_bonds>
7

> <r_i_docking_score>
-7.62102118821932

> <r_i_glide_ligand_efficiency>
-0.224147682006451

> <r_i_glide_ligand_efficiency_sa>
-0.726151475003533

> <r_i_glide_ligand_efficiency_ln>
-1.68369734288136

> <r_i_glide_gscore>
-7.62102118821932

> <r_i_glide_lipo>
-3.52255073059416

> <r_i_glide_hbond>
-0.224136430506301

> <r_i_glide_metal>
0

> <r_i_glide_rewards>
-1.53595289188252

> <r_i_glide_evdw>
-42.0306129455566

> <r_i_glide_ecoul>
-5.78310823440552

> <r_i_glide_erotb>
0.630615747202315

> <r_i_glide_esite>
0

> <r_i_glide_emodel>
-60.2041519880918

> <r_i_glide_energy>
-47.8137211799622

> <r_i_glide_einternal>
10.6442403793335

> <i_i_glide_confnum>
5

> <i_i_glide_posenum>
7

> <r_i_glide_eff_state_penalty>
0

> <s_user_duplicate_titles>
CHEMBL3717_lig557,627171

> <s_m_subgroup_title>
dock_pv

> <s_m_subgroupid>
dock_pv

> <b_m_subgroup_collapsed>
1

$$$$
CHEMBL3717_lig4129
                    3D
 Schrodinger Suite 2021-1.
 46 49  0  0  1  0            999 V2000
   -7.1487    2.8834   30.2978 C   0  0  0  0  0  0
   -7.3133    4.2561   30.4987 C   0  0  0  0  0  0
   -6.2614    5.1079   30.6080 N   0  0  0  0  0  0
   -5.0235    4.5664   30.4886 C   0  0  0  0  0  0
   -4.7737    3.2463   30.2691 N   0  0  0  0  0  0
   -5.8389    2.4016   30.1916 C   0  0  0  0  0  0
   -3.9600    5.4769   30.5808 N   0  0  0  0  0  0
   -2.5661    5.2965   30.6079 C   0  0  0  0  0  0
   -1.7482    6.3571   30.2080 C   0  0  0  0  0  0
   -0.3596    6.2141   30.2086 C   0  0  0  0  0  0
    0.2271    5.0239   30.6512 C   0  0  0  0  0  0
   -0.5946    3.9568   31.0138 C   0  0  0  0  0  0
   -1.9760    4.0946   31.0092 C   0  0  0  0  0  0
   -5.5351    0.9372   30.0521 C   0  0  0  0  0  0
   -4.0285    0.2649   30.6507 S   0  0  0  0  0  0
   -4.5729   -1.3069   30.1830 C   0  0  0  0  0  0
   -5.7442   -1.3289   29.6092 N   0  0  0  0  0  0
   -6.2774   -0.1223   29.4988 C   0  0  0  0  0  0
   -7.6065   -0.0746   28.7747 C   0  0  0  0  0  0
   -3.7973   -2.4049   30.4287 N   0  0  0  0  0  0
    1.6075    4.9054   30.6864 N   0  0  0  0  0  0
    2.3564    4.7571   29.4311 C   0  0  0  0  0  0
    2.6804    3.2825   29.1225 C   0  0  0  0  0  0
    3.4322    2.7573   30.2102 O   0  0  0  0  0  0
    2.7068    2.7645   31.4310 C   0  0  0  0  0  0
    2.3224    4.2186   31.7783 C   0  0  0  0  0  0
   -8.0028    2.2255   30.2553 H   0  0  0  0  0  0
   -8.2984    4.6914   30.5869 H   0  0  0  0  0  0
   -4.2761    6.4318   30.6399 H   0  0  0  0  0  0
   -2.1782    7.2922   29.8828 H   0  0  0  0  0  0
    0.2617    7.0426   29.8998 H   0  0  0  0  0  0
   -0.1715    3.0203   31.3373 H   0  0  0  0  0  0
   -2.5668    3.2577   31.3445 H   0  0  0  0  0  0
   -8.4346   -0.3184   29.4396 H   0  0  0  0  0  0
   -7.8077    0.9075   28.3483 H   0  0  0  0  0  0
   -7.6457   -0.7765   27.9400 H   0  0  0  0  0  0
   -4.0946   -3.3483   30.2031 H   0  0  0  0  0  0
   -2.8551   -2.3186   30.7766 H   0  0  0  0  0  0
    1.8084    5.2089   28.6040 H   0  0  0  0  0  0
    3.2896    5.3144   29.5122 H   0  0  0  0  0  0
    3.2781    3.2084   28.2133 H   0  0  0  0  0  0
    1.7729    2.6990   28.9527 H   0  0  0  0  0  0
    3.3477    2.3482   32.2079 H   0  0  0  0  0  0
    1.8373    2.1114   31.3731 H   0  0  0  0  0  0
    3.2414    4.7628   31.9902 H   0  0  0  0  0  0
    1.7381    4.2618   32.6987 H   0  0  0  0  0  0
  1  2  2  0  0  0
  1  6  1  0  0  0
  1 27  1  0  0  0
  2  3  1  0  0  0
  2 28  1  0  0  0
  3  4  2  0  0  0
  4  7  1  0  0  0
  4  5  1  0  0  0
  5  6  2  0  0  0
  6 14  1  0  0  0
  7  8  1  0  0  0
  7 29  1  0  0  0
  8 13  1  0  0  0
  8  9  2  0  0  0
  9 10  1  0  0  0
  9 30  1  0  0  0
 10 11  2  0  0  0
 10 31  1  0  0  0
 11 21  1  0  0  0
 11 12  1  0  0  0
 12 13  2  0  0  0
 12 32  1  0  0  0
 13 33  1  0  0  0
 14 15  1  0  0  0
 14 18  2  0  0  0
 15 16  1  0  0  0
 16 17  2  0  0  0
 16 20  1  0  0  0
 17 18  1  0  0  0
 18 19  1  0  0  0
 19 34  1  0  0  0
 19 35  1  0  0  0
 19 36  1  0  0  0
 20 37  1  0  0  0
 20 38  1  0  0  0
 21 22  1  0  0  0
 21 26  1  0  0  0
 22 23  1  0  0  0
 22 39  1  0  0  0
 22 40  1  0  0  0
 23 24  1  0  0  0
 23 41  1  0  0  0
 23 42  1  0  0  0
 24 25  1  0  0  0
 25 26  1  0  0  0
 25 43  1  0  0  0
 25 44  1  0  0  0
 26 45  1  0  0  0
 26 46  1  0  0  0
M  END
> <s_m_entry_id>
10268

> <s_m_entry_name>
dock_pv.337

> <s_m_Source_Path>
/home/csk/Desktop/cluster/DUD-E-result/met

> <s_m_Source_File>
dock_pv.maegz

> <i_m_Source_File_Index>
337

> <chembl_id>
CHEMBL482967

> <chembl_pref_name>
CYC-116

> <i_lp_mmshare_version>
53161

> <i_f3d_flags>
0

> <r_lp_tautomer_probability>
0.999999987636

> <s_lp_Force_Field>
OPLS_2005

> <r_lp_Energy>
20.731247

> <b_lp_Chiralities_Consistent>
1

> <s_lp_Variant>
CHEMBL3717_lig4129-1

> <s_i_glide_gridfile>
glide-grid_3lq8

> <i_i_glide_lignum>
5283

> <i_i_glide_rotatable_bonds>
4

> <r_i_docking_score>
-7.61880496528406

> <r_i_glide_ligand_efficiency>
-0.293030960203233

> <r_i_glide_ligand_efficiency_sa>
-0.868103066580926

> <r_i_glide_ligand_efficiency_ln>
-1.78925134675883

> <r_i_glide_gscore>
-7.61880496528406

> <r_i_glide_lipo>
-3.88299260758757

> <r_i_glide_hbond>
-0.0140986163224657

> <r_i_glide_metal>
0

> <r_i_glide_rewards>
-1.68295549122434

> <r_i_glide_evdw>
-48.4654655456543

> <r_i_glide_ecoul>
-0.873534500598907

> <r_i_glide_erotb>
0.567766195258309

> <r_i_glide_esite>
-0.0522209930354345

> <r_i_glide_emodel>
-70.0196991451397

> <r_i_glide_energy>
-49.3390000462532

> <r_i_glide_einternal>
3.822270154953

> <i_i_glide_confnum>
35

> <i_i_glide_posenum>
64

> <r_i_glide_eff_state_penalty>
0

> <s_user_duplicate_titles>
CHEMBL3717_lig4129

> <s_m_subgroup_title>
dock_pv

> <s_m_subgroupid>
dock_pv

> <b_m_subgroup_collapsed>
1

$$$$
CHEMBL3717_lig2452
                    3D
 Schrodinger Suite 2021-1.
 52 54  0  0  1  0            999 V2000
   -8.0490   -0.6250   31.9090 O   0  0  0  0  0  0
   -7.3952    0.0922   30.8089 S   0  0  0  0  0  0
   -7.7153    1.5032   30.5758 O   0  0  0  0  0  0
   -2.8221    4.9503   30.8730 C   0  0  0  0  0  0
   -3.2539    3.6876   30.6080 N   0  0  0  0  0  0
   -4.5833    3.5126   30.3841 C   0  0  0  0  0  0
   -5.4510    4.6194   30.3482 C   0  0  0  0  0  0
   -4.9017    5.8755   30.6095 C   0  0  0  0  0  0
   -3.5924    6.0621   30.8993 N   0  0  0  0  0  0
   -5.1188    2.2111   30.3271 N   0  0  0  0  0  0
   -4.6730    0.9498   30.7784 C   0  0  0  0  0  0
   -5.6120   -0.0701   31.0581 C   0  0  0  0  0  0
   -5.1776   -1.2933   31.5848 C   0  0  0  0  0  0
   -3.8276   -1.5392   31.8031 C   0  0  0  0  0  0
   -2.8941   -0.5541   31.5101 C   0  0  0  0  0  0
   -3.3131    0.6778   31.0083 C   0  0  0  0  0  0
   -1.4731    5.1571   31.1564 N   0  0  0  0  0  0
   -0.4584    4.3809   30.6061 N   0  0  0  0  0  0
    0.7280    4.8088   30.7214 C   0  0  0  0  0  0
    1.8205    4.2847   29.9018 C   0  0  0  0  0  0
    1.5590    3.6022   28.7032 C   0  0  0  0  0  0
    2.5930    3.2096   27.8633 C   0  0  0  0  0  0
    3.9058    3.4829   28.2232 C   0  0  0  0  0  0
    4.2060    4.0938   29.4433 C   0  0  0  0  0  0
    3.1537    4.5076   30.2692 C   0  0  0  0  0  0
   -7.1451    4.4958   30.0199 Cl  0  0  0  0  0  0
   -7.7328   -0.8640   29.1969 C   0  0  0  0  0  0
   -9.1651   -0.5565   28.7288 C   0  0  0  0  0  0
   -7.5153   -2.3724   29.4253 C   0  0  0  0  0  0
    5.6606    4.2753   29.8711 C   0  0  0  0  0  0
    6.4793    4.3572   28.8229 F   0  0  0  0  0  0
    5.8335    5.3672   30.6075 F   0  0  0  0  0  0
    6.0116    3.2221   30.6078 F   0  0  0  0  0  0
   -5.5277    6.7567   30.6079 H   0  0  0  0  0  0
   -6.1314    2.2279   30.2312 H   0  0  0  0  0  0
   -5.8904   -2.0710   31.8229 H   0  0  0  0  0  0
   -3.5081   -2.4968   32.1894 H   0  0  0  0  0  0
   -1.8445   -0.7491   31.6732 H   0  0  0  0  0  0
   -2.5464    1.4016   30.7916 H   0  0  0  0  0  0
   -1.1828    6.0832   31.4322 H   0  0  0  0  0  0
    0.9930    5.6286   31.3861 H   0  0  0  0  0  0
    0.5444    3.3916   28.3972 H   0  0  0  0  0  0
    2.3764    2.6959   26.9374 H   0  0  0  0  0  0
    4.6995    3.1587   27.5684 H   0  0  0  0  0  0
    3.3792    5.0057   31.2017 H   0  0  0  0  0  0
   -7.0185   -0.4905   28.4608 H   0  0  0  0  0  0
   -9.3946   -1.0659   27.7926 H   0  0  0  0  0  0
   -9.9022   -0.8687   29.4697 H   0  0  0  0  0  0
   -9.3023    0.5122   28.5607 H   0  0  0  0  0  0
   -7.9091   -2.9687   28.6063 H   0  0  0  0  0  0
   -6.4574   -2.6151   29.5195 H   0  0  0  0  0  0
   -8.0176   -2.7172   30.3293 H   0  0  0  0  0  0
  1  2  2  0  0  0
  2  3  2  0  0  0
  2 12  1  0  0  0
  2 27  1  0  0  0
  4  5  1  0  0  0
  4  9  2  0  0  0
  4 17  1  0  0  0
  5  6  2  0  0  0
  6  7  1  0  0  0
  6 10  1  0  0  0
  7  8  2  0  0  0
  7 26  1  0  0  0
  8  9  1  0  0  0
  8 34  1  0  0  0
 10 11  1  0  0  0
 10 35  1  0  0  0
 11 12  1  0  0  0
 11 16  2  0  0  0
 12 13  2  0  0  0
 13 14  1  0  0  0
 13 36  1  0  0  0
 14 15  2  0  0  0
 14 37  1  0  0  0
 15 16  1  0  0  0
 15 38  1  0  0  0
 16 39  1  0  0  0
 17 18  1  0  0  0
 17 40  1  0  0  0
 18 19  2  0  0  0
 19 20  1  0  0  0
 19 41  1  0  0  0
 20 21  1  0  0  0
 20 25  2  0  0  0
 21 22  2  0  0  0
 21 42  1  0  0  0
 22 23  1  0  0  0
 22 43  1  0  0  0
 23 24  2  0  0  0
 23 44  1  0  0  0
 24 25  1  0  0  0
 24 30  1  0  0  0
 25 45  1  0  0  0
 27 28  1  0  0  0
 27 29  1  0  0  0
 27 46  1  0  0  0
 28 47  1  0  0  0
 28 48  1  0  0  0
 28 49  1  0  0  0
 29 50  1  0  0  0
 29 51  1  0  0  0
 29 52  1  0  0  0
 30 31  1  0  0  0
 30 32  1  0  0  0
 30 33  1  0  0  0
M  END
> <s_m_entry_id>
10269

> <s_m_entry_name>
dock_pv.338

> <s_m_Source_Path>
/home/csk/Desktop/cluster/DUD-E-result/met

> <s_m_Source_File>
dock_pv.maegz

> <i_m_Source_File_Index>
338

> <chembl_id>
CHEMBL3934594

> <chembl_pref_name>
None

> <i_lp_mmshare_version>
53161

> <i_f3d_flags>
0

> <r_lp_tautomer_probability>
1

> <s_lp_Force_Field>
OPLS_2005

> <r_lp_Energy>
20.703635

> <b_lp_Chiralities_Consistent>
1

> <s_lp_Variant>
CHEMBL3717_lig2452-1

> <s_i_glide_gridfile>
glide-grid_3lq8

> <i_i_glide_lignum>
2781

> <i_i_glide_rotatable_bonds>
8

> <r_i_docking_score>
-7.61473747769594

> <r_i_glide_ligand_efficiency>
-0.230749620536241

> <r_i_glide_ligand_efficiency_sa>
-0.74013732864087

> <r_i_glide_ligand_efficiency_ln>
-1.69347818803901

> <r_i_glide_gscore>
-7.61473747769594

> <r_i_glide_lipo>
-3.54022166579888

> <r_i_glide_hbond>
0

> <r_i_glide_metal>
0

> <r_i_glide_rewards>
-1.8628760218656

> <r_i_glide_evdw>
-48.6990013122559

> <r_i_glide_ecoul>
-1.07084679603577

> <r_i_glide_erotb>
0.49375539665867

> <r_i_glide_esite>
-0.10981810167197

> <r_i_glide_emodel>
-66.161878648512

> <r_i_glide_energy>
-49.7698481082916

> <r_i_glide_einternal>
11.4238367080688

> <i_i_glide_confnum>
4

> <i_i_glide_posenum>
160

> <r_i_glide_eff_state_penalty>
0

> <s_user_duplicate_titles>
CHEMBL3717_lig2452

> <s_m_subgroup_title>
dock_pv

> <s_m_subgroupid>
dock_pv

> <b_m_subgroup_collapsed>
1

$$$$
CHEMBL3717_lig3683
                    3D
 Schrodinger Suite 2021-1.
 46 49  0  0  1  0            999 V2000
   -7.3373    2.3783   30.7499 S   0  0  0  0  0  0
   -9.3160    1.1742   28.6245 O   0  0  0  0  0  0
   -4.0854    6.4635   30.6095 N   0  0  0  0  0  0
   -2.7495    6.6093   30.6079 N   0  0  0  0  0  0
   -7.8314    0.3570   27.1227 N   0  0  0  0  0  0
    2.1714    4.5420   30.7805 N   0  0  0  0  0  0
   -3.2372    4.4164   30.6081 C   0  0  0  0  0  0
   -4.4528    5.1429   30.6064 C   0  0  0  0  0  0
   -2.1995    5.4160   30.6082 C   0  0  0  0  0  0
   -5.7343    3.1350   30.6079 C   0  0  0  0  0  0
   -5.7062    4.5299   30.6080 C   0  0  0  0  0  0
   -3.2977    3.0118   30.6079 C   0  0  0  0  0  0
   -7.0770    0.6215   30.6106 C   0  0  0  0  0  0
   -4.5476    2.3906   30.5731 C   0  0  0  0  0  0
   -7.4892   -0.1081   29.4733 C   0  0  0  0  0  0
   -0.7535    5.2346   30.5357 C   0  0  0  0  0  0
   -8.3021    0.5233   28.3682 C   0  0  0  0  0  0
   -6.4310   -0.0350   31.6635 C   0  0  0  0  0  0
   -7.1614   -1.4706   29.3940 C   0  0  0  0  0  0
   -0.1077    4.1947   29.9678 C   0  0  0  0  0  0
   -6.1278   -1.3916   31.5728 C   0  0  0  0  0  0
   -6.4799   -2.1062   30.4312 C   0  0  0  0  0  0
    1.3461    4.0102   29.8371 C   0  0  0  0  0  0
    1.8382    3.3105   28.7292 C   0  0  0  0  0  0
    3.5094    4.3563   30.6335 C   0  0  0  0  0  0
    3.2153    3.1574   28.5807 C   0  0  0  0  0  0
   -8.4410    0.9839   25.9538 C   0  0  0  0  0  0
    4.0704    3.6810   29.5490 C   0  0  0  0  0  0
   -4.7031    7.2629   30.6176 H   0  0  0  0  0  0
   -6.9977   -0.1969   26.9805 H   0  0  0  0  0  0
   -6.6192    5.1075   30.6240 H   0  0  0  0  0  0
   -2.3983    2.4152   30.6167 H   0  0  0  0  0  0
   -4.5657    1.3131   30.5534 H   0  0  0  0  0  0
   -0.1803    6.0394   30.9741 H   0  0  0  0  0  0
   -6.1391    0.5150   32.5473 H   0  0  0  0  0  0
   -7.4548   -2.0559   28.5345 H   0  0  0  0  0  0
   -0.6966    3.4101   29.5188 H   0  0  0  0  0  0
   -5.6140   -1.8859   32.3845 H   0  0  0  0  0  0
   -6.2383   -3.1570   30.3563 H   0  0  0  0  0  0
    1.1668    2.8967   27.9897 H   0  0  0  0  0  0
    4.1406    4.7570   31.4106 H   0  0  0  0  0  0
    3.6143    2.6243   27.7301 H   0  0  0  0  0  0
   -7.6938    1.1559   25.1815 H   0  0  0  0  0  0
   -9.2257    0.3577   25.5337 H   0  0  0  0  0  0
   -8.8896    1.9464   26.2077 H   0  0  0  0  0  0
    5.1401    3.5572   29.4587 H   0  0  0  0  0  0
  1 10  1  0  0  0
  1 13  1  0  0  0
  2 17  2  0  0  0
  3  4  1  0  0  0
  3  8  1  0  0  0
  3 29  1  0  0  0
  4  9  2  0  0  0
  5 17  1  0  0  0
  5 27  1  0  0  0
  5 30  1  0  0  0
  6 23  1  0  0  0
  6 25  2  0  0  0
  7  8  1  0  0  0
  7  9  1  0  0  0
  7 12  2  0  0  0
  8 11  2  0  0  0
  9 16  1  0  0  0
 10 11  1  0  0  0
 10 14  2  0  0  0
 11 31  1  0  0  0
 12 14  1  0  0  0
 12 32  1  0  0  0
 13 15  1  0  0  0
 13 18  2  0  0  0
 14 33  1  0  0  0
 15 17  1  0  0  0
 15 19  2  0  0  0
 16 20  2  3  0  0
 16 34  1  0  0  0
 18 21  1  0  0  0
 18 35  1  0  0  0
 19 22  1  0  0  0
 19 36  1  0  0  0
 20 23  1  0  0  0
 20 37  1  0  0  0
 21 22  2  0  0  0
 21 38  1  0  0  0
 22 39  1  0  0  0
 23 24  2  0  0  0
 24 26  1  0  0  0
 24 40  1  0  0  0
 25 28  1  0  0  0
 25 41  1  0  0  0
 26 28  2  0  0  0
 26 42  1  0  0  0
 27 43  1  0  0  0
 27 44  1  0  0  0
 27 45  1  0  0  0
 28 46  1  0  0  0
M  END
> <s_m_entry_id>
10271

> <s_m_entry_name>
dock_pv.340

> <s_m_Source_Path>
/home/csk/Desktop/cluster/DUD-E-result/met

> <s_m_Source_File>
dock_pv.maegz

> <i_m_Source_File_Index>
340

> <chembl_id>
CHEMBL1988437

> <chembl_pref_name>
None

> <i_lp_mmshare_version>
53161

> <i_f3d_flags>
0

> <r_lp_tautomer_probability>
1

> <s_lp_Force_Field>
OPLS_2005

> <r_lp_Energy>
20.354649

> <b_lp_Chiralities_Consistent>
1

> <s_lp_Variant>
CHEMBL3717_lig3683-1

> <s_i_glide_gridfile>
glide-grid_3lq8

> <i_i_glide_lignum>
4628

> <i_i_glide_rotatable_bonds>
6

> <r_i_docking_score>
-7.60414584666619

> <r_i_glide_ligand_efficiency>
-0.271576637380935

> <r_i_glide_ligand_efficiency_sa>
-0.824666621174038

> <r_i_glide_ligand_efficiency_ln>
-1.75526012883419

> <r_i_glide_gscore>
-7.60414584666619

> <r_i_glide_lipo>
-3.64935447879982

> <r_i_glide_hbond>
0

> <r_i_glide_metal>
0

> <r_i_glide_rewards>
-1.77104769652284

> <r_i_glide_evdw>
-45.4343376159668

> <r_i_glide_ecoul>
-3.75733304023743

> <r_i_glide_erotb>
0.651573165490425

> <r_i_glide_esite>
0

> <r_i_glide_emodel>
-67.3501978464428

> <r_i_glide_energy>
-49.1916706562042

> <r_i_glide_einternal>
8.26839542388916

> <i_i_glide_confnum>
3

> <i_i_glide_posenum>
199

> <r_i_glide_eff_state_penalty>
0

> <s_user_duplicate_titles>
CHEMBL3717_lig3683

> <s_m_subgroup_title>
dock_pv

> <s_m_subgroupid>
dock_pv

> <b_m_subgroup_collapsed>
1

$$$$
CHEMBL3717_lig3779
                    3D
 Schrodinger Suite 2021-1.
 48 52  0  0  1  0            999 V2000
    0.9768    3.9290   31.3995 F   0  0  0  0  0  0
    0.2421    4.9504   30.9052 C   0  0  0  0  0  0
    0.8730    6.0333   30.3008 C   0  0  0  0  0  0
    0.1204    7.0965   29.8039 C   0  0  0  0  0  0
   -1.2706    7.0724   29.9055 C   0  0  0  0  0  0
   -1.9247    5.9777   30.4951 C   0  0  0  0  0  0
   -1.1481    4.9230   31.0079 C   0  0  0  0  0  0
   -3.4313    5.9344   30.5418 C   0  0  0  0  0  0
   -4.0917    6.9690   30.6081 O   0  0  0  0  0  0
   -3.9497    4.7011   30.4144 N   0  0  0  0  0  0
   -5.2831    4.3553   30.4158 C   0  0  0  0  0  0
   -6.3790    5.1573   30.2081 N   0  0  0  0  0  0
   -7.5652    4.5235   30.2507 N   0  0  0  0  0  0
   -7.2108    3.2253   30.5089 C   0  0  0  0  0  0
   -8.0573    2.1182   30.6899 C   0  0  0  0  0  0
   -7.4832    0.8812   30.9952 C   0  0  0  0  0  0
   -6.0949    0.7152   31.0941 C   0  0  0  0  0  0
   -5.2464    1.7952   30.8399 C   0  0  0  0  0  0
   -5.7985    3.0554   30.5928 C   0  0  0  0  0  0
   -5.4986   -0.5827   31.5410 C   0  0  0  0  0  0
   -6.1392   -1.7655   31.8958 C   0  0  0  0  0  0
   -5.1336   -2.6036   32.3059 N   0  0  0  0  0  0
   -5.2264   -3.9533   32.8400 C   0  0  0  0  0  0
   -5.5032   -4.0365   34.3384 C   0  0  0  0  0  0
   -6.6352   -3.4165   34.8813 C   0  0  0  0  0  0
   -6.8946   -3.5097   36.2457 C   0  0  0  0  0  0
   -6.0225   -4.2214   37.0663 C   0  0  0  0  0  0
   -4.8949   -4.8453   36.5337 C   0  0  0  0  0  0
   -4.6361   -4.7546   35.1685 C   0  0  0  0  0  0
   -3.9437   -2.0054   32.2079 N   0  0  0  0  0  0
   -4.1908   -0.7412   31.7168 N   0  0  0  0  0  0
    1.9473    6.0455   30.2237 H   0  0  0  0  0  0
    0.6064    7.9428   29.3437 H   0  0  0  0  0  0
   -1.8329    7.9046   29.5041 H   0  0  0  0  0  0
   -1.6039    4.0647   31.4861 H   0  0  0  0  0  0
   -3.2985    3.9330   30.3699 H   0  0  0  0  0  0
   -6.3125    6.1448   29.9854 H   0  0  0  0  0  0
   -9.1308    2.2272   30.6272 H   0  0  0  0  0  0
   -8.1391    0.0420   31.1800 H   0  0  0  0  0  0
   -4.1739    1.6872   30.9229 H   0  0  0  0  0  0
   -7.1730   -2.0690   31.9231 H   0  0  0  0  0  0
   -5.9956   -4.4911   32.2869 H   0  0  0  0  0  0
   -4.2813   -4.4445   32.6106 H   0  0  0  0  0  0
   -7.3159   -2.8591   34.2490 H   0  0  0  0  0  0
   -7.7696   -3.0292   36.6628 H   0  0  0  0  0  0
   -6.2275   -4.2950   38.1254 H   0  0  0  0  0  0
   -4.2236   -5.3985   37.1767 H   0  0  0  0  0  0
   -3.7625   -5.2446   34.7602 H   0  0  0  0  0  0
  1  2  1  0  0  0
  2  3  2  0  0  0
  2  7  1  0  0  0
  3  4  1  0  0  0
  3 32  1  0  0  0
  4  5  2  0  0  0
  4 33  1  0  0  0
  5  6  1  0  0  0
  5 34  1  0  0  0
  6  7  2  0  0  0
  6  8  1  0  0  0
  7 35  1  0  0  0
  8  9  2  0  0  0
  8 10  1  0  0  0
 10 36  1  0  0  0
 10 11  1  0  0  0
 11 19  2  0  0  0
 11 12  1  0  0  0
 12 37  1  0  0  0
 12 13  1  0  0  0
 13 14  2  0  0  0
 14 15  1  0  0  0
 14 19  1  0  0  0
 15 38  1  0  0  0
 15 16  2  0  0  0
 16 39  1  0  0  0
 16 17  1  0  0  0
 17 20  1  0  0  0
 17 18  2  0  0  0
 18 40  1  0  0  0
 18 19  1  0  0  0
 20 21  2  0  0  0
 20 31  1  0  0  0
 21 22  1  0  0  0
 21 41  1  0  0  0
 22 23  1  0  0  0
 22 30  1  0  0  0
 23 24  1  0  0  0
 23 42  1  0  0  0
 23 43  1  0  0  0
 24 25  2  0  0  0
 24 29  1  0  0  0
 25 26  1  0  0  0
 25 44  1  0  0  0
 26 27  2  0  0  0
 26 45  1  0  0  0
 27 28  1  0  0  0
 27 46  1  0  0  0
 28 29  2  0  0  0
 28 47  1  0  0  0
 29 48  1  0  0  0
 30 31  2  0  0  0
M  END
> <s_m_entry_id>
10272

> <s_m_entry_name>
dock_pv.341

> <s_m_Source_Path>
/home/csk/Desktop/cluster/DUD-E-result/met

> <s_m_Source_File>
dock_pv.maegz

> <i_m_Source_File_Index>
341

> <chembl_id>
CHEMBL2003638

> <chembl_pref_name>
None

> <i_lp_mmshare_version>
53161

> <i_f3d_flags>
0

> <r_lp_tautomer_probability>
0.0196078431372549

> <s_lp_Force_Field>
OPLS_2005

> <r_lp_Energy>
37.373591

> <b_lp_Chiralities_Consistent>
1

> <s_lp_Variant>
CHEMBL3717_lig3779-2

> <s_i_glide_gridfile>
glide-grid_3lq8

> <i_i_glide_lignum>
4784

> <i_i_glide_rotatable_bonds>
6

> <r_i_docking_score>
-7.60191715450549

> <r_i_glide_ligand_efficiency>
-0.245223134016306

> <r_i_glide_ligand_efficiency_sa>
-0.770339207835828

> <r_i_glide_ligand_efficiency_ln>
-1.71446528912304

> <r_i_glide_gscore>
-7.60191715450549

> <r_i_glide_lipo>
-2.71046060027058

> <r_i_glide_hbond>
-0.527667845843648

> <r_i_glide_metal>
0

> <r_i_glide_rewards>
-2.05436240911265

> <r_i_glide_evdw>
-43.6497840881348

> <r_i_glide_ecoul>
-5.28699541091919

> <r_i_glide_erotb>
0.695589932262363

> <r_i_glide_esite>
-0.0294777154963652

> <r_i_glide_emodel>
-68.8075385254149

> <r_i_glide_energy>
-48.936779499054

> <r_i_glide_einternal>
2.59665751457214

> <i_i_glide_confnum>
21

> <i_i_glide_posenum>
235

> <r_i_glide_eff_state_penalty>
0

> <s_user_duplicate_titles>
CHEMBL3717_lig3779

> <s_m_subgroup_title>
dock_pv

> <s_m_subgroupid>
dock_pv

> <b_m_subgroup_collapsed>
1

$$$$
CHEMBL3717_lig414
                    3D
 Schrodinger Suite 2021-1.
 28 30  0  0  1  0            999 V2000
   -4.0958    6.5909   30.6081 C   0  0  0  0  0  0
   -4.9015    5.4548   30.5981 C   0  0  0  0  0  0
   -4.4229    4.1871   30.6069 N   0  0  0  0  0  0
   -2.7077    6.4751   30.6079 C   0  0  0  0  0  0
   -2.2062    5.1714   30.6532 C   0  0  0  0  0  0
   -3.0953    4.0538   30.6744 C   0  0  0  0  0  0
   -2.3086    2.8832   30.8700 C   0  0  0  0  0  0
   -1.0019    3.3151   30.9505 C   0  0  0  0  0  0
   -0.9198    4.6603   30.6759 N   0  0  0  0  0  0
    0.5478    5.5358   30.7864 S   0  0  0  0  0  0
    1.7635    4.5603   29.9216 C   0  0  0  0  0  0
    0.3461    6.7713   30.0218 O   0  0  0  0  0  0
    0.8661    5.5561   32.2080 O   0  0  0  0  0  0
    1.4420    4.2393   28.6079 C   0  0  0  0  0  0
    2.3404    3.5569   27.8035 C   0  0  0  0  0  0
    3.5955    3.2396   28.3019 C   0  0  0  0  0  0
    3.9330    3.5355   29.6229 C   0  0  0  0  0  0
    2.9999    4.1559   30.4595 C   0  0  0  0  0  0
    3.4060    4.3570   32.1297 Cl  0  0  0  0  0  0
    5.5061    3.1110   30.2088 Cl  0  0  0  0  0  0
   -4.5727    7.5572   30.6067 H   0  0  0  0  0  0
   -5.9777    5.5551   30.5656 H   0  0  0  0  0  0
   -2.0621    7.3413   30.5985 H   0  0  0  0  0  0
   -2.6535    1.8667   30.9856 H   0  0  0  0  0  0
   -0.0932    2.7575   31.1346 H   0  0  0  0  0  0
    0.4833    4.5274   28.2079 H   0  0  0  0  0  0
    2.0743    3.3053   26.7871 H   0  0  0  0  0  0
    4.3060    2.7570   27.6546 H   0  0  0  0  0  0
  1  4  1  0  0  0
  1  2  2  0  0  0
  1 21  1  0  0  0
  2  3  1  0  0  0
  2 22  1  0  0  0
  3  6  2  0  0  0
  4  5  2  0  0  0
  4 23  1  0  0  0
  5  6  1  0  0  0
  5  9  1  0  0  0
  6  7  1  0  0  0
  7  8  2  0  0  0
  7 24  1  0  0  0
  8  9  1  0  0  0
  8 25  1  0  0  0
  9 10  1  0  0  0
 10 11  1  0  0  0
 10 12  2  0  0  0
 10 13  2  0  0  0
 11 14  2  0  0  0
 11 18  1  0  0  0
 14 15  1  0  0  0
 14 26  1  0  0  0
 15 16  2  0  0  0
 15 27  1  0  0  0
 16 17  1  0  0  0
 16 28  1  0  0  0
 17 18  2  0  0  0
 17 20  1  0  0  0
 18 19  1  0  0  0
M  END
> <s_m_entry_id>
10273

> <s_m_entry_name>
dock_pv.342

> <s_m_Source_Path>
/home/csk/Desktop/cluster/DUD-E-result/met

> <s_m_Source_File>
dock_pv.maegz

> <i_m_Source_File_Index>
342

> <chembl_id>
CHEMBL564828

> <chembl_pref_name>
None

> <i_lp_mmshare_version>
53161

> <i_f3d_flags>
0

> <r_lp_tautomer_probability>
1

> <s_lp_Force_Field>
OPLS_2005

> <r_lp_Energy>
5.678306

> <b_lp_Chiralities_Consistent>
1

> <s_lp_Variant>
CHEMBL3717_lig414-1

> <s_i_glide_gridfile>
glide-grid_3lq8

> <i_i_glide_lignum>
438

> <i_i_glide_rotatable_bonds>
2

> <r_i_docking_score>
-7.60088609176746

> <r_i_glide_ligand_efficiency>
-0.380044304588373

> <r_i_glide_ligand_efficiency_sa>
-1.03159895443111

> <r_i_glide_ligand_efficiency_ln>
-1.90225109476789

> <r_i_glide_gscore>
-7.60088609176746

> <r_i_glide_lipo>
-3.36742622252965

> <r_i_glide_hbond>
0

> <r_i_glide_metal>
0

> <r_i_glide_rewards>
-2.72944382435387

> <r_i_glide_evdw>
-34.4514617919922

> <r_i_glide_ecoul>
-0.880135297775269

> <r_i_glide_erotb>
0.350577339381968

> <r_i_glide_esite>
0

> <r_i_glide_emodel>
-46.2212594384525

> <r_i_glide_energy>
-35.3315970897675

> <r_i_glide_einternal>
6.07173585891724

> <i_i_glide_confnum>
5

> <i_i_glide_posenum>
153

> <r_i_glide_eff_state_penalty>
0

> <s_user_duplicate_titles>
CHEMBL3717_lig414,558580

> <s_m_subgroup_title>
dock_pv

> <s_m_subgroupid>
dock_pv

> <b_m_subgroup_collapsed>
1

$$$$
CHEMBL3717_lig4354
                    3D
 Schrodinger Suite 2021-1.
 45 49  0  0  1  0            999 V2000
   -9.2561   -2.4695   28.6088 C   0  0  0  0  0  0
   -8.8725   -1.1062   28.4718 O   0  0  0  0  0  0
   -7.6973   -0.6778   29.0563 C   0  0  0  0  0  0
   -7.4051    0.6804   28.9495 C   0  0  0  0  0  0
   -6.2497    1.2234   29.5078 C   0  0  0  0  0  0
   -5.3295    0.3979   30.1984 C   0  0  0  0  0  0
   -4.1271    0.8927   30.7849 C   0  0  0  0  0  0
   -3.8473    2.2486   30.6780 O   0  0  0  0  0  0
   -2.6185    2.7393   31.2094 C   0  0  0  0  0  0
   -2.4956    4.2388   31.0020 C   0  0  0  0  0  0
   -3.4632    5.1365   30.9751 N   0  0  0  0  0  0
   -2.9328    6.3657   30.6078 N   0  0  0  0  0  0
   -1.6102    6.1708   30.3963 C   0  0  0  0  0  0
   -0.5848    7.0194   29.9427 C   0  0  0  0  0  0
    0.7055    6.4965   29.8085 C   0  0  0  0  0  0
    0.9922    5.1650   30.1253 C   0  0  0  0  0  0
   -0.0250    4.3386   30.5853 C   0  0  0  0  0  0
   -1.2964    4.8331   30.6912 N   0  0  0  0  0  0
    2.3544    4.6220   29.9849 C   0  0  0  0  0  0
    2.9148    4.3568   28.7343 C   0  0  0  0  0  0
    4.2413    3.9308   28.6870 C   0  0  0  0  0  0
    4.9838    3.7467   29.8076 N   0  0  0  0  0  0
    4.4302    3.9570   31.0079 N   0  0  0  0  0  0
    3.1380    4.3572   31.1059 C   0  0  0  0  0  0
   -3.2934   -0.0298   31.4405 C   0  0  0  0  0  0
   -3.6547   -1.3718   31.4967 C   0  0  0  0  0  0
   -4.7892   -1.8599   30.9534 N   0  0  0  0  0  0
   -5.6192   -0.9971   30.3099 C   0  0  0  0  0  0
   -6.8049   -1.5151   29.7392 C   0  0  0  0  0  0
  -10.1808   -2.6410   28.0578 H   0  0  0  0  0  0
   -8.5000   -3.1460   28.2085 H   0  0  0  0  0  0
   -9.4388   -2.7257   29.6530 H   0  0  0  0  0  0
   -8.0956    1.3250   28.4254 H   0  0  0  0  0  0
   -6.0464    2.2801   29.4112 H   0  0  0  0  0  0
   -1.8216    2.2474   30.6536 H   0  0  0  0  0  0
   -2.4939    2.4981   32.2631 H   0  0  0  0  0  0
   -0.7908    8.0526   29.7048 H   0  0  0  0  0  0
    1.5001    7.1445   29.4695 H   0  0  0  0  0  0
    0.1369    3.2976   30.8260 H   0  0  0  0  0  0
    2.3464    4.4998   27.8264 H   0  0  0  0  0  0
    4.7354    3.7130   27.7540 H   0  0  0  0  0  0
    2.7616    4.5287   32.1036 H   0  0  0  0  0  0
   -2.3684    0.2680   31.9043 H   0  0  0  0  0  0
   -3.0205   -2.0941   31.9902 H   0  0  0  0  0  0
   -6.9926   -2.5734   29.8430 H   0  0  0  0  0  0
  1  2  1  0  0  0
  1 30  1  0  0  0
  1 31  1  0  0  0
  1 32  1  0  0  0
  2  3  1  0  0  0
  3  4  2  0  0  0
  3 29  1  0  0  0
  4  5  1  0  0  0
  4 33  1  0  0  0
  5  6  2  0  0  0
  5 34  1  0  0  0
  6  7  1  0  0  0
  6 28  1  0  0  0
  7  8  1  0  0  0
  7 25  2  0  0  0
  8  9  1  0  0  0
  9 10  1  0  0  0
  9 35  1  0  0  0
  9 36  1  0  0  0
 10 11  2  0  0  0
 10 18  1  0  0  0
 11 12  1  0  0  0
 12 13  2  0  0  0
 13 14  1  0  0  0
 13 18  1  0  0  0
 14 15  2  0  0  0
 14 37  1  0  0  0
 15 16  1  0  0  0
 15 38  1  0  0  0
 16 17  2  0  0  0
 16 19  1  0  0  0
 17 18  1  0  0  0
 17 39  1  0  0  0
 19 20  2  0  0  0
 19 24  1  0  0  0
 20 21  1  0  0  0
 20 40  1  0  0  0
 21 22  2  0  0  0
 21 41  1  0  0  0
 22 23  1  0  0  0
 23 24  2  0  0  0
 24 42  1  0  0  0
 25 26  1  0  0  0
 25 43  1  0  0  0
 26 27  2  0  0  0
 26 44  1  0  0  0
 27 28  1  0  0  0
 28 29  2  0  0  0
 29 45  1  0  0  0
M  END
> <s_m_entry_id>
10274

> <s_m_entry_name>
dock_pv.343

> <s_m_Source_Path>
/home/csk/Desktop/cluster/DUD-E-result/met

> <s_m_Source_File>
dock_pv.maegz

> <i_m_Source_File_Index>
343

> <chembl_id>
CHEMBL3668178

> <chembl_pref_name>
None

> <i_lp_mmshare_version>
53161

> <i_f3d_flags>
0

> <r_lp_tautomer_probability>
1

> <s_lp_Force_Field>
OPLS_2005

> <r_lp_Energy>
28.194183

> <b_lp_Chiralities_Consistent>
1

> <s_lp_Variant>
CHEMBL3717_lig4354-1

> <s_i_glide_gridfile>
glide-grid_3lq8

> <i_i_glide_lignum>
5579

> <i_i_glide_rotatable_bonds>
5

> <r_i_docking_score>
-7.60019684058844

> <r_i_glide_ligand_efficiency>
-0.262075753123739

> <r_i_glide_ligand_efficiency_sa>
-0.805179745022595

> <r_i_glide_ligand_efficiency_ln>
-1.74025235213159

> <r_i_glide_gscore>
-7.60019684058844

> <r_i_glide_lipo>
-3.27025337982382

> <r_i_glide_hbond>
0

> <r_i_glide_metal>
0

> <r_i_glide_rewards>
-2.6237836874704

> <r_i_glide_evdw>
-43.9427528381348

> <r_i_glide_ecoul>
-0.235674425959587

> <r_i_glide_erotb>
0.526329032506459

> <r_i_glide_esite>
0

> <r_i_glide_emodel>
-60.6384214288383

> <r_i_glide_energy>
-44.1784272640944

> <r_i_glide_einternal>
4.08387899398804

> <i_i_glide_confnum>
4

> <i_i_glide_posenum>
18

> <r_i_glide_eff_state_penalty>
0

> <s_user_duplicate_titles>
CHEMBL3717_lig4354

> <s_m_subgroup_title>
dock_pv

> <s_m_subgroupid>
dock_pv

> <b_m_subgroup_collapsed>
1

$$$$
CHEMBL3717_lig2503
                    3D
 Schrodinger Suite 2021-1.
 47 51  0  0  1  0            999 V2000
   -5.7513    1.2878   31.2470 C   0  0  0  0  0  0
   -4.3468    1.4567   30.6372 C   0  0  0  0  0  0
   -3.6347    0.4716   30.2225 N   0  0  0  0  0  0
   -4.0770   -0.7972   30.4477 N   0  0  0  0  0  0
   -4.8244   -1.4607   29.5455 C   0  0  0  0  0  0
   -4.7846   -2.7340   29.9047 C   0  0  0  0  0  0
   -5.2940   -3.8887   29.4081 O   0  0  0  0  0  0
   -4.0035   -2.8429   30.9803 N   0  0  0  0  0  0
   -3.5127   -1.6453   31.3465 C   0  0  0  0  0  0
   -2.7232   -1.4108   32.2628 O   0  0  0  0  0  0
   -3.8144    2.8415   30.6039 C   0  0  0  0  0  0
   -4.6229    3.9192   30.2137 C   0  0  0  0  0  0
   -4.0987    5.2083   30.1392 C   0  0  0  0  0  0
   -2.7363    5.3865   30.4114 C   0  0  0  0  0  0
   -1.9473    6.4803   30.2938 N   0  0  0  0  0  0
   -0.7496    6.0367   30.6080 C   0  0  0  0  0  0
   -0.7087    4.6968   31.0038 C   0  0  0  0  0  0
    0.4492    3.8099   31.4564 C   0  0  0  0  0  0
    1.7147    3.9709   30.6216 C   0  0  0  0  0  0
    2.9443    4.2226   31.2369 C   0  0  0  0  0  0
    4.1186    4.3494   30.4540 C   0  0  0  0  0  0
    5.3978    4.6040   31.0080 C   0  0  0  0  0  0
    6.5007    4.7033   30.1734 C   0  0  0  0  0  0
    6.3061    4.5759   28.8028 C   0  0  0  0  0  0
    5.1061    4.3570   28.2250 N   0  0  0  0  0  0
    4.0268    4.2233   29.0353 C   0  0  0  0  0  0
    2.7819    3.9547   28.4419 C   0  0  0  0  0  0
    1.6553    3.8224   29.2360 C   0  0  0  0  0  0
    0.4855    3.5435   28.6435 F   0  0  0  0  0  0
   -2.0075    4.2530   30.8196 N   0  0  0  0  0  0
   -2.4946    2.9980   30.9424 N   0  0  0  0  0  0
   -6.2682    2.2317   31.4080 H   0  0  0  0  0  0
   -6.3953    0.6782   30.6131 H   0  0  0  0  0  0
   -5.6859    0.8115   32.2259 H   0  0  0  0  0  0
   -5.2941   -0.9452   28.7197 H   0  0  0  0  0  0
   -4.8186   -4.6288   29.8158 H   0  0  0  0  0  0
   -3.6938   -3.7413   31.3367 H   0  0  0  0  0  0
   -5.6573    3.7678   29.9385 H   0  0  0  0  0  0
   -4.7140    6.0329   29.8096 H   0  0  0  0  0  0
    0.1047    6.6991   30.5856 H   0  0  0  0  0  0
    0.7060    4.0080   32.4976 H   0  0  0  0  0  0
    0.1760    2.7570   31.4101 H   0  0  0  0  0  0
    3.0150    4.3235   32.3102 H   0  0  0  0  0  0
    5.5070    4.7570   32.0706 H   0  0  0  0  0  0
    7.4858    4.9037   30.5699 H   0  0  0  0  0  0
    7.1444    4.6583   28.1270 H   0  0  0  0  0  0
    2.7052    3.8412   27.3707 H   0  0  0  0  0  0
  1  2  1  0  0  0
  1 32  1  0  0  0
  1 33  1  0  0  0
  1 34  1  0  0  0
  2  3  2  0  0  0
  2 11  1  0  0  0
  3  4  1  0  0  0
  4  5  1  0  0  0
  4  9  1  0  0  0
  5  6  2  0  0  0
  5 35  1  0  0  0
  6  7  1  0  0  0
  6  8  1  0  0  0
  7 36  1  0  0  0
  8  9  1  0  0  0
  8 37  1  0  0  0
  9 10  2  0  0  0
 11 12  1  0  0  0
 11 31  2  0  0  0
 12 13  2  0  0  0
 12 38  1  0  0  0
 13 14  1  0  0  0
 13 39  1  0  0  0
 14 15  2  0  0  0
 14 30  1  0  0  0
 15 16  1  0  0  0
 16 17  2  0  0  0
 16 40  1  0  0  0
 17 18  1  0  0  0
 17 30  1  0  0  0
 18 19  1  0  0  0
 18 41  1  0  0  0
 18 42  1  0  0  0
 19 20  2  0  0  0
 19 28  1  0  0  0
 20 21  1  0  0  0
 20 43  1  0  0  0
 21 22  2  0  0  0
 21 26  1  0  0  0
 22 23  1  0  0  0
 22 44  1  0  0  0
 23 24  2  0  0  0
 23 45  1  0  0  0
 24 25  1  0  0  0
 24 46  1  0  0  0
 25 26  2  0  0  0
 26 27  1  0  0  0
 27 28  2  0  0  0
 27 47  1  0  0  0
 28 29  1  0  0  0
 30 31  1  0  0  0
M  END
> <s_m_entry_id>
10275

> <s_m_entry_name>
dock_pv.344

> <s_m_Source_Path>
/home/csk/Desktop/cluster/DUD-E-result/met

> <s_m_Source_File>
dock_pv.maegz

> <i_m_Source_File_Index>
344

> <chembl_id>
CHEMBL3974451

> <chembl_pref_name>
None

> <i_lp_mmshare_version>
53161

> <i_f3d_flags>
0

> <r_lp_tautomer_probability>
1

> <s_lp_Force_Field>
OPLS_2005

> <r_lp_Energy>
68.458573

> <b_lp_Chiralities_Consistent>
1

> <s_lp_Variant>
CHEMBL3717_lig2503-1

> <s_i_glide_gridfile>
glide-grid_3lq8

> <i_i_glide_lignum>
2836

> <i_i_glide_rotatable_bonds>
5

> <r_i_docking_score>
-7.59990033780418

> <r_i_glide_ligand_efficiency>
-0.245158075413038

> <r_i_glide_ligand_efficiency_sa>
-0.770134833998483

> <r_i_glide_ligand_efficiency_ln>
-1.71401043514889

> <r_i_glide_gscore>
-7.59990033780418

> <r_i_glide_lipo>
-3.45595527598467

> <r_i_glide_hbond>
-0.285023091883306

> <r_i_glide_metal>
0

> <r_i_glide_rewards>
-1.14597271080043

> <r_i_glide_evdw>
-38.5877799987793

> <r_i_glide_ecoul>
-7.63502264022827

> <r_i_glide_erotb>
0.45379010438645

> <r_i_glide_esite>
-0.092096967549009

> <r_i_glide_emodel>
-61.6738048037929

> <r_i_glide_energy>
-46.2228026390076

> <r_i_glide_einternal>
10.0930833816528

> <i_i_glide_confnum>
13

> <i_i_glide_posenum>
52

> <r_i_glide_eff_state_penalty>
0

> <s_user_duplicate_titles>
CHEMBL3717_lig2503

> <s_m_subgroup_title>
dock_pv

> <s_m_subgroupid>
dock_pv

> <b_m_subgroup_collapsed>
1

$$$$
CHEMBL3717_lig3448
                    3D
 Schrodinger Suite 2021-1.
 42 45  0  0  1  0            999 V2000
   -5.7304    4.8451   30.6344 O   0  0  0  0  0  0
   -3.2937    7.1569   30.6080 O   0  0  0  0  0  0
    5.0912    4.3571   28.8061 O   0  0  0  0  0  0
   -3.3399    2.4237   30.6080 N   0  0  0  0  0  0
   -1.0175    4.7722   30.6111 N   0  0  0  0  0  0
   -6.7337   -1.7752   29.4228 N   0  0  0  0  0  0
   -5.9806   -2.8205   29.8088 N   0  0  0  0  0  0
   -3.3706    3.8110   30.6079 C   0  0  0  0  0  0
   -2.3944    4.7619   30.6240 C   0  0  0  0  0  0
   -4.5008    4.8395   30.6080 C   0  0  0  0  0  0
   -3.3619    5.9286   30.6083 C   0  0  0  0  0  0
   -4.3063    1.4508   30.3001 C   0  0  0  0  0  0
   -4.8465   -0.9039   30.2100 C   0  0  0  0  0  0
   -6.0971   -0.5698   29.6389 C   0  0  0  0  0  0
   -3.9490    0.1209   30.5470 C   0  0  0  0  0  0
   -5.5493    1.7419   29.7270 C   0  0  0  0  0  0
   -6.4744    0.7514   29.3918 C   0  0  0  0  0  0
   -0.1923    3.5851   30.7639 C   0  0  0  0  0  0
   -4.8620   -2.3301   30.2765 C   0  0  0  0  0  0
    1.2229    3.8443   30.2830 C   0  0  0  0  0  0
    1.5059    3.7361   28.9210 C   0  0  0  0  0  0
    2.2454    4.1273   31.1891 C   0  0  0  0  0  0
    3.8364    4.1967   29.3577 C   0  0  0  0  0  0
    2.8063    3.9117   28.4645 C   0  0  0  0  0  0
    3.5484    4.3049   30.7273 C   0  0  0  0  0  0
    6.2003    4.6051   29.6613 C   0  0  0  0  0  0
   -2.4568    1.9927   30.8362 H   0  0  0  0  0  0
   -0.5024    5.6421   30.5871 H   0  0  0  0  0  0
   -7.6433   -1.9298   29.0148 H   0  0  0  0  0  0
   -2.9896   -0.1273   30.9762 H   0  0  0  0  0  0
   -5.8212    2.7548   29.4930 H   0  0  0  0  0  0
   -7.4259    1.0004   28.9457 H   0  0  0  0  0  0
   -0.6139    2.7628   30.1846 H   0  0  0  0  0  0
   -0.1890    3.2670   31.8077 H   0  0  0  0  0  0
   -4.0876   -2.9925   30.6395 H   0  0  0  0  0  0
    0.7209    3.5021   28.2159 H   0  0  0  0  0  0
    2.0356    4.2039   32.2464 H   0  0  0  0  0  0
    3.0186    3.8192   27.4094 H   0  0  0  0  0  0
    4.3229    4.5258   31.4434 H   0  0  0  0  0  0
    7.1067    4.6582   29.0591 H   0  0  0  0  0  0
    6.3361    3.8012   30.3861 H   0  0  0  0  0  0
    6.0958    5.5549   30.1892 H   0  0  0  0  0  0
  1 10  2  0  0  0
  2 11  2  0  0  0
  3 23  1  0  0  0
  3 26  1  0  0  0
  4  8  1  0  0  0
  4 12  1  0  0  0
  4 27  1  0  0  0
  5  9  1  0  0  0
  5 18  1  0  0  0
  5 28  1  0  0  0
  6  7  1  0  0  0
  6 14  1  0  0  0
  6 29  1  0  0  0
  7 19  2  0  0  0
  8  9  2  0  0  0
  8 10  1  0  0  0
  9 11  1  0  0  0
 10 11  1  0  0  0
 12 15  1  0  0  0
 12 16  2  0  0  0
 13 14  1  0  0  0
 13 15  2  0  0  0
 13 19  1  0  0  0
 14 17  2  0  0  0
 15 30  1  0  0  0
 16 17  1  0  0  0
 16 31  1  0  0  0
 17 32  1  0  0  0
 18 20  1  0  0  0
 18 33  1  0  0  0
 18 34  1  0  0  0
 19 35  1  0  0  0
 20 21  2  0  0  0
 20 22  1  0  0  0
 21 24  1  0  0  0
 21 36  1  0  0  0
 22 25  2  0  0  0
 22 37  1  0  0  0
 23 24  2  0  0  0
 23 25  1  0  0  0
 24 38  1  0  0  0
 25 39  1  0  0  0
 26 40  1  0  0  0
 26 41  1  0  0  0
 26 42  1  0  0  0
M  END
> <s_m_entry_id>
10276

> <s_m_entry_name>
dock_pv.345

> <s_m_Source_Path>
/home/csk/Desktop/cluster/DUD-E-result/met

> <s_m_Source_File>
dock_pv.maegz

> <i_m_Source_File_Index>
345

> <chembl_id>
CHEMBL1992536

> <chembl_pref_name>
None

> <i_lp_mmshare_version>
53161

> <i_f3d_flags>
0

> <r_lp_tautomer_probability>
1

> <s_lp_Force_Field>
OPLS_2005

> <r_lp_Energy>
52.826037

> <b_lp_Chiralities_Consistent>
1

> <s_lp_Variant>
CHEMBL3717_lig3448-1

> <s_i_glide_gridfile>
glide-grid_3lq8

> <i_i_glide_lignum>
4251

> <i_i_glide_rotatable_bonds>
6

> <r_i_docking_score>
-7.59322344757731

> <r_i_glide_ligand_efficiency>
-0.29204705567605

> <r_i_glide_ligand_efficiency_sa>
-0.865188253290625

> <r_i_glide_ligand_efficiency_ln>
-1.78324361126521

> <r_i_glide_gscore>
-7.59322344757731

> <r_i_glide_lipo>
-3.4452585764353

> <r_i_glide_hbond>
-0.32

> <r_i_glide_metal>
0

> <r_i_glide_rewards>
-2.01725373272685

> <r_i_glide_evdw>
-45.3334808349609

> <r_i_glide_ecoul>
-2.16335320472717

> <r_i_glide_erotb>
0.78431635227386

> <r_i_glide_esite>
-0.00385046823189093

> <r_i_glide_emodel>
-65.4049885061393

> <r_i_glide_energy>
-47.4968340396881

> <r_i_glide_einternal>
6.97601699829102

> <i_i_glide_confnum>
6

> <i_i_glide_posenum>
256

> <r_i_glide_eff_state_penalty>
0

> <s_user_duplicate_titles>
CHEMBL3717_lig3448

> <s_m_subgroup_title>
dock_pv

> <s_m_subgroupid>
dock_pv

> <b_m_subgroup_collapsed>
1

$$$$
CHEMBL3717_lig936
                    3D
 Schrodinger Suite 2021-1.
 35 37  0  0  1  0            999 V2000
   -8.0171    4.3883   30.0326 C   0  0  0  0  0  0
   -8.2398    3.0088   29.9893 C   0  0  0  0  0  0
   -7.1701    2.1203   30.1281 C   0  0  0  0  0  0
   -5.8845    2.6366   30.3091 C   0  0  0  0  0  0
   -5.6531    3.9977   30.3629 C   0  0  0  0  0  0
   -6.7247    4.8851   30.2225 C   0  0  0  0  0  0
   -4.2245    4.1897   30.5368 C   0  0  0  0  0  0
   -3.6586    2.8268   30.6046 C   0  0  0  0  0  0
   -4.6849    1.9788   30.4505 N   0  0  0  0  0  0
   -2.4811    2.5190   30.7727 O   0  0  0  0  0  0
   -3.6105    5.3150   30.6080 N   0  0  0  0  0  0
   -2.2480    5.3376   30.6083 N   0  0  0  0  0  0
   -1.6003    6.4536   30.2082 C   0  0  0  0  0  0
   -0.1532    6.3804   29.6863 C   0  0  0  0  0  0
    0.6891    5.2119   30.1806 C   0  0  0  0  0  0
    1.1350    4.2384   29.2825 C   0  0  0  0  0  0
    1.9659    3.2145   29.7273 C   0  0  0  0  0  0
    2.3403    3.1647   31.0673 C   0  0  0  0  0  0
    1.8940    4.1272   31.9682 C   0  0  0  0  0  0
    1.0655    5.1515   31.5228 C   0  0  0  0  0  0
    3.1518    2.1586   31.5075 O   0  0  0  0  0  0
   -2.1377    7.5571   30.2074 O   0  0  0  0  0  0
   -7.4486    0.4173   30.0573 Cl  0  0  0  0  0  0
   -8.8422    5.0760   29.9071 H   0  0  0  0  0  0
   -9.2408    2.6310   29.8380 H   0  0  0  0  0  0
   -6.5675    5.9551   30.2381 H   0  0  0  0  0  0
   -4.5776    0.9753   30.4533 H   0  0  0  0  0  0
   -1.8002    4.4290   30.6119 H   0  0  0  0  0  0
    0.3531    7.2993   29.9874 H   0  0  0  0  0  0
   -0.1751    6.4028   28.5962 H   0  0  0  0  0  0
    0.8556    4.2766   28.2393 H   0  0  0  0  0  0
    2.3107    2.4571   29.0380 H   0  0  0  0  0  0
    2.1839    4.0871   33.0075 H   0  0  0  0  0  0
    0.7157    5.9051   32.2116 H   0  0  0  0  0  0
    3.2405    2.1589   32.4614 H   0  0  0  0  0  0
  1  2  1  0  0  0
  1  6  2  0  0  0
  1 24  1  0  0  0
  2  3  2  0  0  0
  2 25  1  0  0  0
  3  4  1  0  0  0
  3 23  1  0  0  0
  4  5  2  0  0  0
  4  9  1  0  0  0
  5  6  1  0  0  0
  5  7  1  0  0  0
  6 26  1  0  0  0
  7  8  1  0  0  0
  7 11  2  0  0  0
  8  9  1  0  0  0
  8 10  2  0  0  0
  9 27  1  0  0  0
 11 12  1  0  0  0
 12 13  1  0  0  0
 12 28  1  0  0  0
 13 14  1  0  0  0
 13 22  2  0  0  0
 14 15  1  0  0  0
 14 29  1  0  0  0
 14 30  1  0  0  0
 15 16  1  0  0  0
 15 20  2  0  0  0
 16 17  2  0  0  0
 16 31  1  0  0  0
 17 18  1  0  0  0
 17 32  1  0  0  0
 18 19  2  0  0  0
 18 21  1  0  0  0
 19 20  1  0  0  0
 19 33  1  0  0  0
 20 34  1  0  0  0
 21 35  1  0  0  0
M  END
> <s_m_entry_id>
10277

> <s_m_entry_name>
dock_pv.346

> <s_m_Source_Path>
/home/csk/Desktop/cluster/DUD-E-result/met

> <s_m_Source_File>
dock_pv.maegz

> <i_m_Source_File_Index>
346

> <chembl_id>
CHEMBL1822586

> <chembl_pref_name>
None

> <i_lp_mmshare_version>
53161

> <i_f3d_flags>
0

> <r_lp_tautomer_probability>
0.999999999997365

> <s_lp_Force_Field>
OPLS_2005

> <r_lp_Energy>
36.740092

> <b_lp_Chiralities_Consistent>
1

> <s_lp_Variant>
CHEMBL3717_lig936-1

> <s_i_glide_gridfile>
glide-grid_3lq8

> <i_i_glide_lignum>
1023

> <i_i_glide_rotatable_bonds>
5

> <r_i_docking_score>
-7.59313808324134

> <r_i_glide_ligand_efficiency>
-0.330136438401797

> <r_i_glide_ligand_efficiency_sa>
-0.938864115035404

> <r_i_glide_ligand_efficiency_ln>
-1.83608963929728

> <r_i_glide_gscore>
-7.59313808324134

> <r_i_glide_lipo>
-3.06339282764444

> <r_i_glide_hbond>
-0.239857173774242

> <r_i_glide_metal>
0

> <r_i_glide_rewards>
-2.54655680423491

> <r_i_glide_evdw>
-39.3603401184082

> <r_i_glide_ecoul>
-3.11275696754456

> <r_i_glide_erotb>
0.691599273464345

> <r_i_glide_esite>
0

> <r_i_glide_emodel>
-55.9431436387729

> <r_i_glide_energy>
-42.4730970859528

> <r_i_glide_einternal>
5.52980756759644

> <i_i_glide_confnum>
6

> <i_i_glide_posenum>
115

> <r_i_glide_eff_state_penalty>
0

> <s_user_duplicate_titles>
CHEMBL3717_lig936

> <s_m_subgroup_title>
dock_pv

> <s_m_subgroupid>
dock_pv

> <b_m_subgroup_collapsed>
1

$$$$
CHEMBL3717_lig2663
                    3D
 Schrodinger Suite 2021-1.
 32 35  0  0  1  0            999 V2000
   -0.8935   -0.8559   34.1876 N   0  0  0  0  0  0
   -1.4682   -1.1177   32.9590 C   0  0  0  0  0  0
   -0.9281   -2.1568   32.2721 N   0  0  0  0  0  0
   -1.4559   -2.4359   31.0534 C   0  0  0  0  0  0
   -2.4943   -1.6508   30.5420 C   0  0  0  0  0  0
   -3.1765   -1.6643   29.3678 N   0  0  0  0  0  0
   -4.0606   -0.6074   29.4083 N   0  0  0  0  0  0
   -3.9504    0.0177   30.5972 N   0  0  0  0  0  0
   -4.7739    1.1950   30.8606 C   0  0  0  0  0  0
   -4.1293    2.5623   30.6079 C   0  0  0  0  0  0
   -4.9549    3.6551   30.3314 C   0  0  0  0  0  0
   -4.4371    4.9436   30.2137 C   0  0  0  0  0  0
   -3.0484    5.1677   30.3559 C   0  0  0  0  0  0
   -2.5618    6.4326   30.2072 N   0  0  0  0  0  0
   -1.2173    6.6132   30.2214 C   0  0  0  0  0  0
   -0.3087    5.5895   30.4851 C   0  0  0  0  0  0
   -0.7926    4.2979   30.6919 C   0  0  0  0  0  0
   -2.1891    4.0550   30.6092 C   0  0  0  0  0  0
   -2.7517    2.7620   30.7464 C   0  0  0  0  0  0
   -2.9623   -0.5956   31.3574 C   0  0  0  0  0  0
   -2.4854   -0.2961   32.5763 N   0  0  0  0  0  0
   -1.1786   -0.0242   34.6795 H   0  0  0  0  0  0
   -0.0413   -1.3499   34.4052 H   0  0  0  0  0  0
   -1.0263   -3.2430   30.4835 H   0  0  0  0  0  0
   -5.6946    1.1017   30.2804 H   0  0  0  0  0  0
   -5.0851    1.1417   31.9033 H   0  0  0  0  0  0
   -6.0228    3.5127   30.2357 H   0  0  0  0  0  0
   -5.0933    5.7781   30.0114 H   0  0  0  0  0  0
   -0.8715    7.6253   30.0590 H   0  0  0  0  0  0
    0.7521    5.7917   30.5177 H   0  0  0  0  0  0
   -0.1152    3.4773   30.8829 H   0  0  0  0  0  0
   -2.0941    1.9389   30.9709 H   0  0  0  0  0  0
  1  2  1  0  0  0
  1 22  1  0  0  0
  1 23  1  0  0  0
  2  3  2  0  0  0
  2 21  1  0  0  0
  3  4  1  0  0  0
  4  5  2  0  0  0
  4 24  1  0  0  0
  5  6  1  0  0  0
  5 20  1  0  0  0
  6  7  2  0  0  0
  7  8  1  0  0  0
  8  9  1  0  0  0
  8 20  1  0  0  0
  9 10  1  0  0  0
  9 25  1  0  0  0
  9 26  1  0  0  0
 10 11  2  0  0  0
 10 19  1  0  0  0
 11 12  1  0  0  0
 11 27  1  0  0  0
 12 13  2  0  0  0
 12 28  1  0  0  0
 13 14  1  0  0  0
 13 18  1  0  0  0
 14 15  2  0  0  0
 15 16  1  0  0  0
 15 29  1  0  0  0
 16 17  2  0  0  0
 16 30  1  0  0  0
 17 18  1  0  0  0
 17 31  1  0  0  0
 18 19  2  0  0  0
 19 32  1  0  0  0
 20 21  2  0  0  0
M  END
> <s_m_entry_id>
10278

> <s_m_entry_name>
dock_pv.347

> <s_m_Source_Path>
/home/csk/Desktop/cluster/DUD-E-result/met

> <s_m_Source_File>
dock_pv.maegz

> <i_m_Source_File_Index>
347

> <chembl_id>
CHEMBL3660145

> <chembl_pref_name>
None

> <i_lp_mmshare_version>
53161

> <i_f3d_flags>
0

> <r_lp_tautomer_probability>
1

> <s_lp_Force_Field>
OPLS_2005

> <r_lp_Energy>
13.148763

> <b_lp_Chiralities_Consistent>
1

> <s_lp_Variant>
CHEMBL3717_lig2663-1

> <s_i_glide_gridfile>
glide-grid_3lq8

> <i_i_glide_lignum>
3082

> <i_i_glide_rotatable_bonds>
2

> <r_i_docking_score>
-7.59298165183456

> <r_i_glide_ligand_efficiency>
-0.361570554849265

> <r_i_glide_ligand_efficiency_sa>
-0.997545744228822

> <r_i_glide_ligand_efficiency_ln>
-1.87734937035199

> <r_i_glide_gscore>
-7.59298165183456

> <r_i_glide_lipo>
-2.56798679372783

> <r_i_glide_hbond>
0

> <r_i_glide_metal>
0

> <r_i_glide_rewards>
-3.54881013924316

> <r_i_glide_evdw>
-32.9165534973145

> <r_i_glide_ecoul>
-1.58138680458069

> <r_i_glide_erotb>
0.468384778587684

> <r_i_glide_esite>
-0.0615338018984251

> <r_i_glide_emodel>
-47.6623234498914

> <r_i_glide_energy>
-34.4979403018951

> <r_i_glide_einternal>
1.6906533241272

> <i_i_glide_confnum>
3

> <i_i_glide_posenum>
244

> <r_i_glide_eff_state_penalty>
0

> <s_user_duplicate_titles>
CHEMBL3717_lig2663

> <s_m_subgroup_title>
dock_pv

> <s_m_subgroupid>
dock_pv

> <b_m_subgroup_collapsed>
1

$$$$
CHEMBL3717_lig4089
                    3D
 Schrodinger Suite 2021-1.
 44 46  0  0  1  0            999 V2000
    3.0604    2.7572   28.2769 Cl  0  0  0  0  0  0
    3.5277    2.1221   31.4079 Cl  0  0  0  0  0  0
   -1.3062    6.6326   30.6057 O   0  0  0  0  0  0
   -4.0745   -0.7615   32.0497 O   0  0  0  0  0  0
   -6.3362   -0.4924   32.2080 O   0  0  0  0  0  0
   -5.3199    1.5916   29.4699 N   0  0  2  0  0  0
   -5.3525   -0.5037   29.9758 C   0  0  0  0  0  0
   -4.2444    3.6225   30.5647 C   0  0  0  0  0  0
   -6.3694    0.5589   29.5288 C   0  0  0  0  0  0
   -4.3510    0.4814   29.3674 C   0  0  0  0  0  0
   -5.2951    2.5101   30.6172 C   0  0  0  0  0  0
   -4.5936    4.9875   30.5825 C   0  0  0  0  0  0
   -2.2362    5.6093   30.6065 C   0  0  0  0  0  0
   -5.1701   -0.6130   31.5138 C   0  0  0  0  0  0
   -2.8920    3.2762   30.6205 C   0  0  0  0  0  0
   -3.5868    5.9611   30.6078 C   0  0  0  0  0  0
    0.8637    5.5482   30.1187 C   0  0  0  0  0  0
   -1.9037    4.2504   30.6355 C   0  0  0  0  0  0
    2.3321    3.7119   29.5210 C   0  0  0  0  0  0
    2.5676    3.4590   30.8806 C   0  0  0  0  0  0
    1.4780    4.7507   29.1485 C   0  0  0  0  0  0
   -0.1769    6.5874   29.7184 C   0  0  0  0  0  0
    1.1573    5.3311   31.4651 C   0  0  0  0  0  0
    1.9950    4.2856   31.8463 C   0  0  0  0  0  0
   -6.0458    5.4425   30.6077 C   0  0  0  0  0  0
   -6.1631   -0.4468   33.1569 H   0  0  0  0  0  0
   -5.4218   -1.4855   29.5077 H   0  0  0  0  0  0
   -6.7769    0.3575   28.5351 H   0  0  0  0  0  0
   -7.1956    0.7889   30.2052 H   0  0  0  0  0  0
   -3.4076    0.6080   29.8917 H   0  0  0  0  0  0
   -4.1288    0.2609   28.3207 H   0  0  0  0  0  0
   -6.2918    2.9333   30.7281 H   0  0  0  0  0  0
   -5.1179    1.9555   31.5325 H   0  0  0  0  0  0
   -2.5801    2.2488   30.6871 H   0  0  0  0  0  0
   -3.8531    7.0068   30.6206 H   0  0  0  0  0  0
   -0.8881    3.9031   30.6812 H   0  0  0  0  0  0
    1.2673    4.9091   28.1019 H   0  0  0  0  0  0
   -0.5048    6.4336   28.6901 H   0  0  0  0  0  0
    0.3002    7.5682   29.7356 H   0  0  0  0  0  0
    0.7053    5.9536   32.2183 H   0  0  0  0  0  0
    2.1807    4.1030   32.8951 H   0  0  0  0  0  0
   -6.1394    6.5282   30.6079 H   0  0  0  0  0  0
   -6.5776    5.0631   29.7348 H   0  0  0  0  0  0
   -6.5489    5.0643   31.4975 H   0  0  0  0  0  0
  1 19  1  0  0  0
  2 20  1  0  0  0
  3 13  1  0  0  0
  3 22  1  0  0  0
  4 14  2  0  0  0
  5 14  1  0  0  0
  5 26  1  0  0  0
  6  9  1  0  0  0
  6 10  1  0  0  0
  6 11  1  0  0  0
  7  9  1  0  0  0
  7 10  1  0  0  0
  7 14  1  0  0  0
  7 27  1  0  0  0
  8 11  1  0  0  0
  8 12  1  0  0  0
  8 15  2  0  0  0
  9 28  1  0  0  0
  9 29  1  0  0  0
 10 30  1  0  0  0
 10 31  1  0  0  0
 11 32  1  0  0  0
 11 33  1  0  0  0
 12 16  2  0  0  0
 12 25  1  0  0  0
 13 16  1  0  0  0
 13 18  2  0  0  0
 15 18  1  0  0  0
 15 34  1  0  0  0
 16 35  1  0  0  0
 17 21  1  0  0  0
 17 22  1  0  0  0
 17 23  2  0  0  0
 18 36  1  0  0  0
 19 20  1  0  0  0
 19 21  2  0  0  0
 20 24  2  0  0  0
 21 37  1  0  0  0
 22 38  1  0  0  0
 22 39  1  0  0  0
 23 24  1  0  0  0
 23 40  1  0  0  0
 24 41  1  0  0  0
 25 42  1  0  0  0
 25 43  1  0  0  0
 25 44  1  0  0  0
M  END
> <s_m_entry_id>
10279

> <s_m_entry_name>
dock_pv.348

> <s_m_Source_Path>
/home/csk/Desktop/cluster/DUD-E-result/met

> <s_m_Source_File>
dock_pv.maegz

> <i_m_Source_File_Index>
348

> <chembl_id>
CHEMBL1990223

> <chembl_pref_name>
None

> <i_lp_mmshare_version>
53161

> <i_f3d_flags>
0

> <r_lp_tautomer_probability>
1

> <s_lp_Force_Field>
OPLS_2005

> <r_lp_Energy>
23.958943

> <b_lp_Chiralities_Consistent>
1

> <s_lp_Variant>
CHEMBL3717_lig4089-1

> <s_i_glide_gridfile>
glide-grid_3lq8

> <i_i_glide_lignum>
5218

> <i_i_glide_rotatable_bonds>
7

> <r_i_docking_score>
-7.58968471664643

> <r_i_glide_ligand_efficiency>
-0.303587388665857

> <r_i_glide_ligand_efficiency_sa>
-0.88769490860423

> <r_i_glide_ligand_efficiency_ln>
-1.79898272234252

> <r_i_glide_gscore>
-7.58968471664643

> <r_i_glide_lipo>
-4.3049567928614

> <r_i_glide_hbond>
0

> <r_i_glide_metal>
0

> <r_i_glide_rewards>
-1.17907033746766

> <r_i_glide_evdw>
-41.6271133422852

> <r_i_glide_ecoul>
-5.52812671661377

> <r_i_glide_erotb>
0.804917088288951

> <r_i_glide_esite>
0

> <r_i_glide_emodel>
-65.1347251310298

> <r_i_glide_energy>
-47.1552400588989

> <r_i_glide_einternal>
5.14357995986938

> <i_i_glide_confnum>
74

> <i_i_glide_posenum>
69

> <r_i_glide_eff_state_penalty>
0

> <s_user_duplicate_titles>
CHEMBL3717_lig4089

> <s_m_subgroup_title>
dock_pv

> <s_m_subgroupid>
dock_pv

> <b_m_subgroup_collapsed>
1

$$$$
CHEMBL3717_lig3566
                    3D
 Schrodinger Suite 2021-1.
 32 34  0  0  1  0            999 V2000
   -3.9084    6.7011   30.5604 O   0  0  0  0  0  0
   -1.6652    6.8469   30.2080 N   0  0  0  0  0  0
   -5.5789    4.4979   30.4158 N   0  0  0  0  0  0
   -2.4114    4.7763   30.6029 C   0  0  0  0  0  0
   -0.9540    4.7764   30.6081 C   0  0  0  0  0  0
   -0.5500    6.0500   30.2895 C   0  0  0  0  0  0
   -2.8009    6.1761   30.4773 C   0  0  0  0  0  0
   -4.6685    3.4757   30.5350 C   0  0  0  0  0  0
   -3.2274    3.6949   30.6462 C   0  0  0  0  0  0
   -5.3862    2.2768   30.4753 C   0  0  0  0  0  0
   -0.0088    3.7619   30.7617 C   0  0  0  0  0  0
    0.7927    6.3572   30.0887 C   0  0  0  0  0  0
   -6.8538    4.0107   30.3044 C   0  0  0  0  0  0
   -6.7364    2.6359   30.3742 C   0  0  0  0  0  0
    1.3447    4.0469   30.5756 C   0  0  0  0  0  0
    1.7418    5.3403   30.2285 C   0  0  0  0  0  0
   -4.8409    0.8722   30.6037 C   0  0  0  0  0  0
   -8.0493    4.9114   30.1423 C   0  0  0  0  0  0
   -1.6345    7.8438   30.0592 H   0  0  0  0  0  0
   -5.3298    5.4809   30.3971 H   0  0  0  0  0  0
   -2.7152    2.7505   30.7558 H   0  0  0  0  0  0
   -0.3125    2.7570   31.0008 H   0  0  0  0  0  0
    1.1063    7.3545   29.8171 H   0  0  0  0  0  0
   -7.5612    1.9399   30.3334 H   0  0  0  0  0  0
    2.0807    3.2628   30.6794 H   0  0  0  0  0  0
    2.7873    5.5523   30.0659 H   0  0  0  0  0  0
   -4.0097    0.8262   31.3077 H   0  0  0  0  0  0
   -5.5898    0.1758   30.9826 H   0  0  0  0  0  0
   -4.4736    0.4905   29.6506 H   0  0  0  0  0  0
   -8.9720    4.3455   30.0118 H   0  0  0  0  0  0
   -7.9484    5.5571   29.2705 H   0  0  0  0  0  0
   -8.1879    5.5569   31.0067 H   0  0  0  0  0  0
  1  7  2  0  0  0
  2  6  1  0  0  0
  2  7  1  0  0  0
  2 19  1  0  0  0
  3  8  1  0  0  0
  3 13  1  0  0  0
  3 20  1  0  0  0
  4  5  1  0  0  0
  4  7  1  0  0  0
  4  9  2  3  0  0
  5  6  1  0  0  0
  5 11  2  0  0  0
  6 12  2  0  0  0
  8  9  1  0  0  0
  8 10  2  0  0  0
  9 21  1  0  0  0
 10 14  1  0  0  0
 10 17  1  0  0  0
 11 15  1  0  0  0
 11 22  1  0  0  0
 12 16  1  0  0  0
 12 23  1  0  0  0
 13 14  2  0  0  0
 13 18  1  0  0  0
 14 24  1  0  0  0
 15 16  2  0  0  0
 15 25  1  0  0  0
 16 26  1  0  0  0
 17 27  1  0  0  0
 17 28  1  0  0  0
 17 29  1  0  0  0
 18 30  1  0  0  0
 18 31  1  0  0  0
 18 32  1  0  0  0
M  END
> <s_m_entry_id>
10280

> <s_m_entry_name>
dock_pv.349

> <s_m_Source_Path>
/home/csk/Desktop/cluster/DUD-E-result/met

> <s_m_Source_File>
dock_pv.maegz

> <i_m_Source_File_Index>
349

> <chembl_id>
CHEMBL2002702

> <chembl_pref_name>
None

> <i_lp_mmshare_version>
53161

> <i_f3d_flags>
0

> <r_lp_tautomer_probability>
1

> <s_lp_Force_Field>
OPLS_2005

> <r_lp_Energy>
28.188332

> <b_lp_Chiralities_Consistent>
1

> <s_lp_Variant>
CHEMBL3717_lig3566-2

> <s_i_glide_gridfile>
glide-grid_3lq8

> <i_i_glide_lignum>
4420

> <i_i_glide_rotatable_bonds>
1

> <r_i_docking_score>
-7.58567861076986

> <r_i_glide_ligand_efficiency>
-0.421426589487215

> <r_i_glide_ligand_efficiency_sa>
-1.10445010662533

> <r_i_glide_ligand_efficiency_ln>
-1.94985957199937

> <r_i_glide_gscore>
-7.58567861076986

> <r_i_glide_lipo>
-2.80345851730688

> <r_i_glide_hbond>
-0.233914326299298

> <r_i_glide_metal>
0

> <r_i_glide_rewards>
-3.07772791917248

> <r_i_glide_evdw>
-30.8514213562012

> <r_i_glide_ecoul>
-1.54631400108337

> <r_i_glide_erotb>
0.303940319981362

> <r_i_glide_esite>
0

> <r_i_glide_emodel>
-44.9529394558325

> <r_i_glide_energy>
-32.3977353572845

> <r_i_glide_einternal>
0.00680199079215527

> <i_i_glide_confnum>
2

> <i_i_glide_posenum>
17

> <r_i_glide_eff_state_penalty>
0

> <s_user_duplicate_titles>
CHEMBL3717_lig3566

> <s_m_subgroup_title>
dock_pv

> <s_m_subgroupid>
dock_pv

> <b_m_subgroup_collapsed>
1

$$$$
CHEMBL3717_lig3694
                    3D
 Schrodinger Suite 2021-1.
 38 41  0  0  1  0            999 V2000
    1.9060    4.4734   32.8157 Cl  0  0  0  0  0  0
    5.5338    4.3842   28.8433 Cl  0  0  0  0  0  0
   -5.6948    4.8230   30.6280 O   0  0  0  0  0  0
   -3.2787    7.1570   30.6080 O   0  0  0  0  0  0
   -3.2941    2.4252   30.6081 N   0  0  0  0  0  0
   -0.9766    4.7734   30.6238 N   0  0  0  0  0  0
   -7.0575   -1.4284   29.3459 N   0  0  0  0  0  0
   -8.0235   -0.7053   28.7513 N   0  0  0  0  0  0
   -3.3281    3.8114   30.6080 C   0  0  0  0  0  0
   -2.3561    4.7668   30.6322 C   0  0  0  0  0  0
   -4.4651    4.8300   30.6080 C   0  0  0  0  0  0
   -3.3339    5.9278   30.6124 C   0  0  0  0  0  0
   -4.2698    1.4526   30.3360 C   0  0  0  0  0  0
   -6.3613    0.6803   29.4117 C   0  0  0  0  0  0
   -6.0060   -0.6411   29.7700 C   0  0  0  0  0  0
   -5.4850    1.7353   29.7049 C   0  0  0  0  0  0
   -0.1762    3.5577   30.6530 C   0  0  0  0  0  0
   -3.9503    0.1336   30.6748 C   0  0  0  0  0  0
    1.2670    3.8032   30.2367 C   0  0  0  0  0  0
   -4.8017   -0.9411   30.4096 C   0  0  0  0  0  0
   -7.6351    0.5430   28.7842 C   0  0  0  0  0  0
    2.2603    4.1968   31.1473 C   0  0  0  0  0  0
    1.6206    3.5574   28.9053 C   0  0  0  0  0  0
    3.5769    4.3570   30.7113 C   0  0  0  0  0  0
    3.9132    4.1343   29.3775 C   0  0  0  0  0  0
    2.9355    3.7217   28.4754 C   0  0  0  0  0  0
   -2.4130    1.9984   30.8496 H   0  0  0  0  0  0
   -0.4524    5.6383   30.6310 H   0  0  0  0  0  0
   -7.1461   -2.4309   29.4212 H   0  0  0  0  0  0
   -5.7467    2.7342   29.4080 H   0  0  0  0  0  0
   -0.6167    2.8330   29.9680 H   0  0  0  0  0  0
   -0.2147    3.1038   31.6438 H   0  0  0  0  0  0
   -3.0059   -0.0813   31.1541 H   0  0  0  0  0  0
   -4.5300   -1.9532   30.6736 H   0  0  0  0  0  0
   -8.2506    1.3234   28.3632 H   0  0  0  0  0  0
    0.8719    3.2293   28.1990 H   0  0  0  0  0  0
    4.3398    4.6696   31.4079 H   0  0  0  0  0  0
    3.1912    3.5326   27.4431 H   0  0  0  0  0  0
  1 22  1  0  0  0
  2 25  1  0  0  0
  3 11  2  0  0  0
  4 12  2  0  0  0
  5  9  1  0  0  0
  5 13  1  0  0  0
  5 27  1  0  0  0
  6 10  1  0  0  0
  6 17  1  0  0  0
  6 28  1  0  0  0
  7  8  1  0  0  0
  7 15  1  0  0  0
  7 29  1  0  0  0
  8 21  2  0  0  0
  9 10  2  0  0  0
  9 11  1  0  0  0
 10 12  1  0  0  0
 11 12  1  0  0  0
 13 16  1  0  0  0
 13 18  2  0  0  0
 14 15  1  0  0  0
 14 16  2  0  0  0
 14 21  1  0  0  0
 15 20  2  0  0  0
 16 30  1  0  0  0
 17 19  1  0  0  0
 17 31  1  0  0  0
 17 32  1  0  0  0
 18 20  1  0  0  0
 18 33  1  0  0  0
 19 22  1  0  0  0
 19 23  2  0  0  0
 20 34  1  0  0  0
 21 35  1  0  0  0
 22 24  2  0  0  0
 23 26  1  0  0  0
 23 36  1  0  0  0
 24 25  1  0  0  0
 24 37  1  0  0  0
 25 26  2  0  0  0
 26 38  1  0  0  0
M  END
> <s_m_entry_id>
10281

> <s_m_entry_name>
dock_pv.350

> <s_m_Source_Path>
/home/csk/Desktop/cluster/DUD-E-result/met

> <s_m_Source_File>
dock_pv.maegz

> <i_m_Source_File_Index>
350

> <chembl_id>
CHEMBL1979554

> <chembl_pref_name>
None

> <i_lp_mmshare_version>
53161

> <i_f3d_flags>
0

> <r_lp_tautomer_probability>
1

> <s_lp_Force_Field>
OPLS_2005

> <r_lp_Energy>
53.532245

> <b_lp_Chiralities_Consistent>
1

> <s_lp_Variant>
CHEMBL3717_lig3694-1

> <s_i_glide_gridfile>
glide-grid_3lq8

> <i_i_glide_lignum>
4653

> <i_i_glide_rotatable_bonds>
5

> <r_i_docking_score>
-7.58444265848422

> <r_i_glide_ligand_efficiency>
-0.291709333018624

> <r_i_glide_ligand_efficiency_sa>
-0.864187751246874

> <r_i_glide_ligand_efficiency_ln>
-1.78118147175882

> <r_i_glide_gscore>
-7.58444265848422

> <r_i_glide_lipo>
-3.54905019806149

> <r_i_glide_hbond>
-0.32

> <r_i_glide_metal>
0

> <r_i_glide_rewards>
-1.72439362566548

> <r_i_glide_evdw>
-46.0831909179688

> <r_i_glide_ecoul>
-2.24102878570557

> <r_i_glide_erotb>
0.649315028997026

> <r_i_glide_esite>
0

> <r_i_glide_emodel>
-68.1312901736255

> <r_i_glide_energy>
-48.3242197036743

> <r_i_glide_einternal>
4.13685703277588

> <i_i_glide_confnum>
49

> <i_i_glide_posenum>
159

> <r_i_glide_eff_state_penalty>
0

> <s_user_duplicate_titles>
CHEMBL3717_lig3694

> <s_m_subgroup_title>
dock_pv

> <s_m_subgroupid>
dock_pv

> <b_m_subgroup_collapsed>
1

$$$$
CHEMBL3717_lig3659
                    3D
 Schrodinger Suite 2021-1.
 41 44  0  0  1  0            999 V2000
   -8.5245    4.3442   30.0381 C   0  0  0  0  0  0
   -8.9775    3.0350   29.8816 C   0  0  0  0  0  0
   -8.1774    1.9391   29.8821 N   0  0  0  0  0  0
   -7.1605    4.5809   30.2129 C   0  0  0  0  0  0
   -4.8398    3.2696   30.3146 C   0  0  0  0  0  0
   -6.2741    3.4807   30.2082 C   0  0  0  0  0  0
   -6.8755    2.1942   30.0398 C   0  0  0  0  0  0
   -4.6692    1.8924   30.2084 C   0  0  0  0  0  0
   -3.7317    4.2692   30.4901 C   0  0  0  0  0  0
   -2.4876    3.7386   30.6888 N   0  0  0  0  0  0
   -1.4514    4.6029   30.8379 C   0  0  0  0  0  0
   -1.5668    5.9567   30.7988 N   0  0  0  0  0  0
   -2.8058    6.4642   30.6080 C   0  0  0  0  0  0
   -3.9258    5.6545   30.4460 C   0  0  0  0  0  0
   -5.8724    1.2575   30.0471 N   0  0  0  0  0  0
   -0.1830    4.0222   31.0086 N   0  0  0  0  0  0
    1.0409    4.8330   30.9869 C   0  0  0  0  0  0
    2.2065    4.0698   31.6620 C   0  0  0  0  0  0
    2.7041    2.8615   30.8388 C   0  0  0  0  0  0
    3.0202    3.2434   29.3745 C   0  0  0  0  0  0
    1.8524    3.9791   28.6955 C   0  0  0  0  0  0
    1.4056    5.1971   29.5292 C   0  0  0  0  0  0
   -9.2236    5.1701   30.0118 H   0  0  0  0  0  0
  -10.0312    2.8443   29.7411 H   0  0  0  0  0  0
   -6.8280    5.5983   30.3248 H   0  0  0  0  0  0
   -3.7628    1.3033   30.2310 H   0  0  0  0  0  0
   -2.8818    7.5414   30.5921 H   0  0  0  0  0  0
   -4.8806    6.1114   30.2687 H   0  0  0  0  0  0
   -5.9631    0.2564   29.9455 H   0  0  0  0  0  0
   -0.1022    3.0454   30.7712 H   0  0  0  0  0  0
    0.8582    5.7602   31.5344 H   0  0  0  0  0  0
    3.0385    4.7567   31.8188 H   0  0  0  0  0  0
    1.9097    3.7397   32.6585 H   0  0  0  0  0  0
    3.5858    2.4253   31.3090 H   0  0  0  0  0  0
    1.9421    2.0850   30.8576 H   0  0  0  0  0  0
    3.9109    3.8738   29.3473 H   0  0  0  0  0  0
    3.2591    2.3571   28.7900 H   0  0  0  0  0  0
    2.1447    4.2959   27.6938 H   0  0  0  0  0  0
    1.0139    3.2932   28.5578 H   0  0  0  0  0  0
    0.5720    5.6943   29.0315 H   0  0  0  0  0  0
    2.2105    5.9289   29.5536 H   0  0  0  0  0  0
  1  2  1  0  0  0
  1  4  2  0  0  0
  1 23  1  0  0  0
  2  3  2  0  0  0
  2 24  1  0  0  0
  3  7  1  0  0  0
  4  6  1  0  0  0
  4 25  1  0  0  0
  5  8  2  0  0  0
  5  9  1  0  0  0
  5  6  1  0  0  0
  6  7  2  0  0  0
  7 15  1  0  0  0
  8 15  1  0  0  0
  8 26  1  0  0  0
  9 10  2  0  0  0
  9 14  1  0  0  0
 10 11  1  0  0  0
 11 12  2  0  0  0
 11 16  1  0  0  0
 12 13  1  0  0  0
 13 14  2  0  0  0
 13 27  1  0  0  0
 14 28  1  0  0  0
 15 29  1  0  0  0
 16 17  1  0  0  0
 16 30  1  0  0  0
 17 18  1  0  0  0
 17 22  1  0  0  0
 17 31  1  0  0  0
 18 19  1  0  0  0
 18 32  1  0  0  0
 18 33  1  0  0  0
 19 20  1  0  0  0
 19 34  1  0  0  0
 19 35  1  0  0  0
 20 21  1  0  0  0
 20 36  1  0  0  0
 20 37  1  0  0  0
 21 22  1  0  0  0
 21 38  1  0  0  0
 21 39  1  0  0  0
 22 40  1  0  0  0
 22 41  1  0  0  0
M  END
> <s_m_entry_id>
10282

> <s_m_entry_name>
dock_pv.351

> <s_m_Source_Path>
/home/csk/Desktop/cluster/DUD-E-result/met

> <s_m_Source_File>
dock_pv.maegz

> <i_m_Source_File_Index>
351

> <chembl_id>
CHEMBL385478

> <chembl_pref_name>
None

> <i_lp_mmshare_version>
53161

> <i_f3d_flags>
0

> <r_lp_tautomer_probability>
0.999998420164496

> <s_lp_Force_Field>
OPLS_2005

> <r_lp_Energy>
4.882916

> <b_lp_Chiralities_Consistent>
1

> <s_lp_Variant>
CHEMBL3717_lig3659-1

> <s_i_glide_gridfile>
glide-grid_3lq8

> <i_i_glide_lignum>
4592

> <i_i_glide_rotatable_bonds>
3

> <r_i_docking_score>
-7.57961853948636

> <r_i_glide_ligand_efficiency>
-0.344528115431198

> <r_i_glide_ligand_efficiency_sa>
-0.965381328960119

> <r_i_glide_ligand_efficiency_ln>
-1.85273524435423

> <r_i_glide_gscore>
-7.57961853948636

> <r_i_glide_lipo>
-3.50508594826669

> <r_i_glide_hbond>
0

> <r_i_glide_metal>
0

> <r_i_glide_rewards>
-2.60363621978303

> <r_i_glide_evdw>
-38.8874473571777

> <r_i_glide_ecoul>
-1.08957958221436

> <r_i_glide_erotb>
0.636912933754392

> <r_i_glide_esite>
0

> <r_i_glide_emodel>
-57.9665836726803

> <r_i_glide_energy>
-39.9770269393921

> <r_i_glide_einternal>
0.696191608905792

> <i_i_glide_confnum>
18

> <i_i_glide_posenum>
63

> <r_i_glide_eff_state_penalty>
0

> <s_user_duplicate_titles>
CHEMBL3717_lig3659

> <s_m_subgroup_title>
dock_pv

> <s_m_subgroupid>
dock_pv

> <b_m_subgroup_collapsed>
1

$$$$
CHEMBL3717_lig3681
                    3D
 Schrodinger Suite 2021-1.
 30 31  0  0  1  0            999 V2000
   -6.0659    5.1570   31.0079 S   0  0  0  0  0  0
   -3.4630    2.4646   30.2079 O   0  0  0  0  0  0
   -1.6922    7.5570   29.9131 O   0  0  0  0  0  0
    2.2732    4.9937   29.9182 O   0  0  0  0  0  0
   -5.6735    2.7713   30.3324 N   0  0  0  0  0  0
   -7.9578    3.3344   30.5874 N   0  0  0  0  0  0
   -4.4009    4.6182   30.7656 C   0  0  0  0  0  0
   -4.4123    3.2131   30.4077 C   0  0  0  0  0  0
   -1.8543    5.2745   30.7016 C   0  0  0  0  0  0
   -3.3267    5.4419   30.8734 C   0  0  0  0  0  0
   -6.7205    3.5640   30.5967 C   0  0  0  0  0  0
   -1.1026    6.3570   30.2080 C   0  0  0  0  0  0
   -1.1664    4.0928   31.0080 C   0  0  0  0  0  0
    0.9261    5.0363   30.2166 C   0  0  0  0  0  0
    0.2673    6.2390   29.9809 C   0  0  0  0  0  0
    0.2002    3.9665   30.7554 C   0  0  0  0  0  0
    2.8922    3.7459   29.6034 C   0  0  0  0  0  0
    2.3588    3.1569   28.2863 C   0  0  0  0  0  0
   -1.0573    8.2250   29.6354 H   0  0  0  0  0  0
   -5.8208    1.8046   30.0887 H   0  0  0  0  0  0
   -8.1911    2.3853   30.3349 H   0  0  0  0  0  0
   -3.5928    6.4515   31.1543 H   0  0  0  0  0  0
   -1.6691    3.2587   31.4692 H   0  0  0  0  0  0
    0.8275    7.0743   29.5870 H   0  0  0  0  0  0
    0.6834    3.0319   30.9923 H   0  0  0  0  0  0
    3.9606    3.9361   29.4957 H   0  0  0  0  0  0
    2.8035    3.0330   30.4239 H   0  0  0  0  0  0
    2.9107    2.2582   28.0100 H   0  0  0  0  0  0
    1.3064    2.8819   28.3606 H   0  0  0  0  0  0
    2.4582    3.8716   27.4689 H   0  0  0  0  0  0
  1  7  1  0  0  0
  1 11  1  0  0  0
  2  8  2  0  0  0
  3 12  1  0  0  0
  3 19  1  0  0  0
  4 14  1  0  0  0
  4 17  1  0  0  0
  5  8  1  0  0  0
  5 11  1  0  0  0
  5 20  1  0  0  0
  6 11  2  0  0  0
  6 21  1  0  0  0
  7  8  1  0  0  0
  7 10  2  3  0  0
  9 10  1  0  0  0
  9 12  1  0  0  0
  9 13  2  0  0  0
 10 22  1  0  0  0
 12 15  2  0  0  0
 13 16  1  0  0  0
 13 23  1  0  0  0
 14 15  1  0  0  0
 14 16  2  0  0  0
 15 24  1  0  0  0
 16 25  1  0  0  0
 17 18  1  0  0  0
 17 26  1  0  0  0
 17 27  1  0  0  0
 18 28  1  0  0  0
 18 29  1  0  0  0
 18 30  1  0  0  0
M  END
> <s_m_entry_id>
10283

> <s_m_entry_name>
dock_pv.352

> <s_m_Source_Path>
/home/csk/Desktop/cluster/DUD-E-result/met

> <s_m_Source_File>
dock_pv.maegz

> <i_m_Source_File_Index>
352

> <chembl_id>
CHEMBL1971289

> <chembl_pref_name>
None

> <i_lp_mmshare_version>
53161

> <i_f3d_flags>
0

> <r_lp_tautomer_probability>
1

> <s_lp_Force_Field>
OPLS_2005

> <r_lp_Energy>
14.033962

> <b_lp_Chiralities_Consistent>
1

> <s_lp_Variant>
CHEMBL3717_lig3681-1

> <s_i_glide_gridfile>
glide-grid_3lq8

> <i_i_glide_lignum>
4625

> <i_i_glide_rotatable_bonds>
4

> <r_i_docking_score>
-7.57651792209813

> <r_i_glide_ligand_efficiency>
-0.420917662338785

> <r_i_glide_ligand_efficiency_sa>
-1.10311634018209

> <r_i_glide_ligand_efficiency_ln>
-1.94750486421261

> <r_i_glide_gscore>
-7.57651792209813

> <r_i_glide_lipo>
-3.3499641735832

> <r_i_glide_hbond>
-0.196367422363437

> <r_i_glide_metal>
0

> <r_i_glide_rewards>
-2.33273847100015

> <r_i_glide_evdw>
-35.6400680541992

> <r_i_glide_ecoul>
-2.82899165153503

> <r_i_glide_erotb>
0.508904295288877

> <r_i_glide_esite>
0

> <r_i_glide_emodel>
-52.3748087091286

> <r_i_glide_energy>
-38.4690597057343

> <r_i_glide_einternal>
6.51514720916748

> <i_i_glide_confnum>
1

> <i_i_glide_posenum>
7

> <r_i_glide_eff_state_penalty>
0

> <s_user_duplicate_titles>
CHEMBL3717_lig3681,CHEMBL3717_lig3681

> <s_m_subgroup_title>
dock_pv

> <s_m_subgroupid>
dock_pv

> <b_m_subgroup_collapsed>
1

$$$$
CHEMBL3717_lig1041
                    3D
 Schrodinger Suite 2021-1.
 35 37  0  0  1  0            999 V2000
   -7.7866    4.1617   30.2082 C   0  0  0  0  0  0
   -7.8914    2.7686   30.1424 C   0  0  0  0  0  0
   -6.7452    1.9729   30.2216 C   0  0  0  0  0  0
   -5.5054    2.5942   30.3685 C   0  0  0  0  0  0
   -5.3886    3.9685   30.4413 C   0  0  0  0  0  0
   -6.5350    4.7642   30.3591 C   0  0  0  0  0  0
   -3.9773    4.2761   30.5693 C   0  0  0  0  0  0
   -3.2991    2.9625   30.6080 C   0  0  0  0  0  0
   -4.2549    2.0336   30.4657 N   0  0  0  0  0  0
   -2.0941    2.7571   30.7428 O   0  0  0  0  0  0
   -3.4522    5.4465   30.6254 N   0  0  0  0  0  0
   -2.0975    5.5529   30.6064 N   0  0  0  0  0  0
   -1.5058    6.6966   30.2080 C   0  0  0  0  0  0
   -0.0418    6.6929   29.7434 C   0  0  0  0  0  0
    0.7846    5.4851   30.1660 C   0  0  0  0  0  0
    1.2626    4.5934   29.2049 C   0  0  0  0  0  0
    2.0667    3.5188   29.5761 C   0  0  0  0  0  0
    2.3892    3.3258   30.9260 C   0  0  0  0  0  0
    1.9062    4.2067   31.8891 C   0  0  0  0  0  0
    1.1059    5.2801   31.5097 C   0  0  0  0  0  0
    3.1801    2.2880   31.3313 O   0  0  0  0  0  0
    2.7052    2.3572   28.2080 Br  0  0  0  0  0  0
   -2.0939    7.7710   30.2080 O   0  0  0  0  0  0
   -8.6724    4.7763   30.1319 H   0  0  0  0  0  0
   -8.8605    2.3064   30.0236 H   0  0  0  0  0  0
   -6.8326    0.8975   30.1664 H   0  0  0  0  0  0
   -6.4663    5.8429   30.3918 H   0  0  0  0  0  0
   -4.0650    1.0427   30.4549 H   0  0  0  0  0  0
   -1.5985    4.6710   30.6186 H   0  0  0  0  0  0
    0.4385    7.5853   30.1475 H   0  0  0  0  0  0
   -0.0311    6.8094   28.6588 H   0  0  0  0  0  0
    1.0264    4.7365   28.1622 H   0  0  0  0  0  0
    2.1523    4.0595   32.9305 H   0  0  0  0  0  0
    0.7451    5.9600   32.2625 H   0  0  0  0  0  0
    3.3914    1.7076   30.5972 H   0  0  0  0  0  0
  1  2  1  0  0  0
  1  6  2  0  0  0
  1 24  1  0  0  0
  2  3  2  0  0  0
  2 25  1  0  0  0
  3  4  1  0  0  0
  3 26  1  0  0  0
  4  5  2  0  0  0
  4  9  1  0  0  0
  5  6  1  0  0  0
  5  7  1  0  0  0
  6 27  1  0  0  0
  7  8  1  0  0  0
  7 11  2  0  0  0
  8  9  1  0  0  0
  8 10  2  0  0  0
  9 28  1  0  0  0
 11 12  1  0  0  0
 12 13  1  0  0  0
 12 29  1  0  0  0
 13 14  1  0  0  0
 13 23  2  0  0  0
 14 15  1  0  0  0
 14 30  1  0  0  0
 14 31  1  0  0  0
 15 16  2  0  0  0
 15 20  1  0  0  0
 16 17  1  0  0  0
 16 32  1  0  0  0
 17 18  2  0  0  0
 17 22  1  0  0  0
 18 19  1  0  0  0
 18 21  1  0  0  0
 19 20  2  0  0  0
 19 33  1  0  0  0
 20 34  1  0  0  0
 21 35  1  0  0  0
M  END
> <s_m_entry_id>
10284

> <s_m_entry_name>
dock_pv.353

> <s_m_Source_Path>
/home/csk/Desktop/cluster/DUD-E-result/met

> <s_m_Source_File>
dock_pv.maegz

> <i_m_Source_File_Index>
353

> <chembl_id>
CHEMBL1823475

> <chembl_pref_name>
None

> <i_lp_mmshare_version>
53161

> <i_f3d_flags>
0

> <r_lp_tautomer_probability>
0.999999999997365

> <s_lp_Force_Field>
OPLS_2005

> <r_lp_Energy>
38.769015

> <b_lp_Chiralities_Consistent>
1

> <s_lp_Variant>
CHEMBL3717_lig1041-1

> <s_i_glide_gridfile>
glide-grid_3lq8

> <i_i_glide_lignum>
1160

> <i_i_glide_rotatable_bonds>
5

> <r_i_docking_score>
-7.57175455803043

> <r_i_glide_ligand_efficiency>
-0.329206719914366

> <r_i_glide_ligand_efficiency_sa>
-0.936220119331205

> <r_i_glide_ligand_efficiency_ln>
-1.83091890900619

> <r_i_glide_gscore>
-7.57175455803043

> <r_i_glide_lipo>
-3.30194367618267

> <r_i_glide_hbond>
-0.216068573830409

> <r_i_glide_metal>
0

> <r_i_glide_rewards>
-2.08044072875618

> <r_i_glide_evdw>
-41.1474227905273

> <r_i_glide_ecoul>
-3.12161254882812

> <r_i_glide_erotb>
0.552311442589422

> <r_i_glide_esite>
0

> <r_i_glide_emodel>
-59.0689058597075

> <r_i_glide_energy>
-44.2690353393555

> <r_i_glide_einternal>
5.6230731010437

> <i_i_glide_confnum>
13

> <i_i_glide_posenum>
149

> <r_i_glide_eff_state_penalty>
0

> <s_user_duplicate_titles>
CHEMBL3717_lig1041

> <s_m_subgroup_title>
dock_pv

> <s_m_subgroupid>
dock_pv

> <b_m_subgroup_collapsed>
1

$$$$
CHEMBL3717_lig929
                    3D
 Schrodinger Suite 2021-1.
 35 37  0  0  1  0            999 V2000
   -8.0134    4.4164   30.1783 C   0  0  0  0  0  0
   -8.2375    3.0376   30.1166 C   0  0  0  0  0  0
   -7.1653    2.1465   30.2113 C   0  0  0  0  0  0
   -5.8774    2.6593   30.3629 C   0  0  0  0  0  0
   -5.6415    4.0185   30.4277 C   0  0  0  0  0  0
   -6.7154    4.9089   30.3376 C   0  0  0  0  0  0
   -4.2079    4.2035   30.5565 C   0  0  0  0  0  0
   -3.6486    2.8365   30.6079 C   0  0  0  0  0  0
   -4.6812    1.9938   30.4678 N   0  0  0  0  0  0
   -2.4698    2.5218   30.7511 O   0  0  0  0  0  0
   -3.5857    5.3256   30.6095 N   0  0  0  0  0  0
   -2.2235    5.3371   30.6047 N   0  0  0  0  0  0
   -1.5634    6.4474   30.2090 C   0  0  0  0  0  0
   -0.1041    6.3556   29.7187 C   0  0  0  0  0  0
    0.7262    5.1974   30.2672 C   0  0  0  0  0  0
    1.1053    5.1925   31.6101 C   0  0  0  0  0  0
    1.9067    4.1764   32.1136 C   0  0  0  0  0  0
    2.3338    3.1591   31.2674 C   0  0  0  0  0  0
    1.9722    3.1574   29.9222 C   0  0  0  0  0  0
    1.1597    4.1724   29.4212 C   0  0  0  0  0  0
    3.1057    2.1502   31.7733 O   0  0  0  0  0  0
   -2.0941    7.5569   30.2078 O   0  0  0  0  0  0
   -8.8423    5.1046   30.0900 H   0  0  0  0  0  0
   -9.2421    2.6611   29.9907 H   0  0  0  0  0  0
   -7.3443    1.0821   30.1607 H   0  0  0  0  0  0
   -6.5532    5.9772   30.3671 H   0  0  0  0  0  0
   -4.5773    0.9905   30.4646 H   0  0  0  0  0  0
   -1.7837    4.4246   30.6159 H   0  0  0  0  0  0
    0.3987    7.2806   30.0077 H   0  0  0  0  0  0
   -0.1003    6.3543   28.6281 H   0  0  0  0  0  0
    0.7857    5.9856   32.2636 H   0  0  0  0  0  0
    2.1875    4.1846   33.1558 H   0  0  0  0  0  0
    2.3036    2.3586   29.2738 H   0  0  0  0  0  0
    0.8805    4.1613   28.3775 H   0  0  0  0  0  0
    3.1769    2.1971   32.7279 H   0  0  0  0  0  0
  1  2  1  0  0  0
  1  6  2  0  0  0
  1 23  1  0  0  0
  2  3  2  0  0  0
  2 24  1  0  0  0
  3  4  1  0  0  0
  3 25  1  0  0  0
  4  5  2  0  0  0
  4  9  1  0  0  0
  5  6  1  0  0  0
  5  7  1  0  0  0
  6 26  1  0  0  0
  7  8  1  0  0  0
  7 11  2  0  0  0
  8  9  1  0  0  0
  8 10  2  0  0  0
  9 27  1  0  0  0
 11 12  1  0  0  0
 12 13  1  0  0  0
 12 28  1  0  0  0
 13 14  1  0  0  0
 13 22  2  0  0  0
 14 15  1  0  0  0
 14 29  1  0  0  0
 14 30  1  0  0  0
 15 16  1  0  0  0
 15 20  2  0  0  0
 16 17  2  0  0  0
 16 31  1  0  0  0
 17 18  1  0  0  0
 17 32  1  0  0  0
 18 19  2  0  0  0
 18 21  1  0  0  0
 19 20  1  0  0  0
 19 33  1  0  0  0
 20 34  1  0  0  0
 21 35  1  0  0  0
M  END
> <s_m_entry_id>
10285

> <s_m_entry_name>
dock_pv.354

> <s_m_Source_Path>
/home/csk/Desktop/cluster/DUD-E-result/met

> <s_m_Source_File>
dock_pv.maegz

> <i_m_Source_File_Index>
354

> <chembl_id>
CHEMBL1822579

> <chembl_pref_name>
None

> <i_lp_mmshare_version>
53161

> <i_f3d_flags>
0

> <r_lp_tautomer_probability>
0.999999999997365

> <s_lp_Force_Field>
OPLS_2005

> <r_lp_Energy>
37.986704

> <b_lp_Chiralities_Consistent>
1

> <s_lp_Variant>
CHEMBL3717_lig929-1

> <s_i_glide_gridfile>
glide-grid_3lq8

> <i_i_glide_lignum>
1016

> <i_i_glide_rotatable_bonds>
5

> <r_i_docking_score>
-7.56960372993988

> <r_i_glide_ligand_efficiency>
-0.344072896815449

> <r_i_glide_ligand_efficiency_sa>
-0.964105788496057

> <r_i_glide_ligand_efficiency_ln>
-1.85028725960202

> <r_i_glide_gscore>
-7.56960372993988

> <r_i_glide_lipo>
-2.99739151263774

> <r_i_glide_hbond>
-0.215650464376203

> <r_i_glide_metal>
0

> <r_i_glide_rewards>
-2.76500897350413

> <r_i_glide_evdw>
-38.7349967956543

> <r_i_glide_ecoul>
-3.29578876495361

> <r_i_glide_erotb>
0.83956537510395

> <r_i_glide_esite>
0

> <r_i_glide_emodel>
-54.515821941171

> <r_i_glide_energy>
-42.0307855606079

> <r_i_glide_einternal>
4.49515724182129

> <i_i_glide_confnum>
11

> <i_i_glide_posenum>
110

> <r_i_glide_eff_state_penalty>
0

> <s_user_duplicate_titles>
CHEMBL3717_lig929

> <s_m_subgroup_title>
dock_pv

> <s_m_subgroupid>
dock_pv

> <b_m_subgroup_collapsed>
1

$$$$
CHEMBL3717_lig3499
                    3D
 Schrodinger Suite 2021-1.
 42 45  0  0  1  0            999 V2000
   -7.4073    5.5569   30.5183 Cl  0  0  0  0  0  0
   -5.2941   -3.5198   31.1391 O   0  0  0  0  0  0
   -3.5367    3.3269   30.6079 N   0  0  0  0  0  0
   -0.8260    7.1227   30.1016 N   0  0  0  0  0  0
   -4.7486    5.4162   30.6077 N   0  0  0  0  0  0
    1.2666    5.9499   30.3736 N   0  0  0  0  0  0
   -4.7569    1.2455   30.6585 N   0  0  0  0  0  0
   -2.3104    5.4440   30.5262 C   0  0  0  0  0  0
   -0.9626    4.9375   30.6784 C   0  0  0  0  0  0
   -3.6017    4.6862   30.6079 C   0  0  0  0  0  0
   -0.0688    6.0109   30.3800 C   0  0  0  0  0  0
   -2.1525    6.7898   30.2081 C   0  0  0  0  0  0
   -4.7208    2.6481   30.6079 C   0  0  0  0  0  0
   -0.3731    3.7028   31.0081 C   0  0  0  0  0  0
   -5.9114    4.7143   30.5878 C   0  0  0  0  0  0
   -5.9420    3.3205   30.5932 C   0  0  0  0  0  0
   -3.5626    0.4075   30.6072 C   0  0  2  0  0  0
    1.0214    3.6097   31.0111 C   0  0  0  0  0  0
    1.7831    4.7350   30.6908 C   0  0  0  0  0  0
   -3.6816   -0.5522   29.4079 C   0  0  0  0  0  0
   -3.3491   -0.3428   31.9381 C   0  0  0  0  0  0
   -4.4085   -2.4429   30.9357 C   0  0  1  0  0  0
   -4.7009   -1.6895   29.6284 C   0  0  0  0  0  0
   -4.3562   -1.4954   32.1491 C   0  0  0  0  0  0
   -4.7735   -4.3313   31.0082 H   0  0  0  0  0  0
   -0.5008    8.0514   29.8594 H   0  0  0  0  0  0
   -5.6499    0.7810   30.7322 H   0  0  0  0  0  0
   -2.8935    7.5510   30.0277 H   0  0  0  0  0  0
   -0.9809    2.8438   31.2472 H   0  0  0  0  0  0
   -6.8836    2.7899   30.5847 H   0  0  0  0  0  0
   -2.6844    1.0314   30.4571 H   0  0  0  0  0  0
    1.5068    2.6759   31.2527 H   0  0  0  0  0  0
    2.8612    4.6696   30.6828 H   0  0  0  0  0  0
   -3.9391    0.0054   28.5083 H   0  0  0  0  0  0
   -2.7031   -0.9881   29.2034 H   0  0  0  0  0  0
   -2.3354   -0.7490   31.9504 H   0  0  0  0  0  0
   -3.3938    0.3558   32.7750 H   0  0  0  0  0  0
   -3.4270   -2.9080   30.8317 H   0  0  0  0  0  0
   -4.6657   -2.3797   28.7825 H   0  0  0  0  0  0
   -5.7143   -1.2877   29.6482 H   0  0  0  0  0  0
   -4.0681   -2.0748   33.0205 H   0  0  0  0  0  0
   -5.3494   -1.0923   32.3544 H   0  0  0  0  0  0
  1 15  1  0  0  0
  2 22  1  0  0  0
  2 25  1  0  0  0
  3 10  2  0  0  0
  3 13  1  0  0  0
  4 11  1  0  0  0
  4 12  1  0  0  0
  4 26  1  0  0  0
  5 10  1  0  0  0
  5 15  2  0  0  0
  6 11  2  0  0  0
  6 19  1  0  0  0
  7 13  1  0  0  0
  7 17  1  0  0  0
  7 27  1  0  0  0
  8  9  1  0  0  0
  8 10  1  0  0  0
  8 12  2  0  0  0
  9 11  1  0  0  0
  9 14  2  0  0  0
 12 28  1  0  0  0
 13 16  2  0  0  0
 14 18  1  0  0  0
 14 29  1  0  0  0
 15 16  1  0  0  0
 16 30  1  0  0  0
 17 20  1  0  0  0
 17 21  1  0  0  0
 17 31  1  0  0  0
 18 19  2  0  0  0
 18 32  1  0  0  0
 19 33  1  0  0  0
 20 23  1  0  0  0
 20 34  1  0  0  0
 20 35  1  0  0  0
 21 24  1  0  0  0
 21 36  1  0  0  0
 21 37  1  0  0  0
 22 23  1  0  0  0
 22 24  1  0  0  0
 22 38  1  0  0  0
 23 39  1  0  0  0
 23 40  1  0  0  0
 24 41  1  0  0  0
 24 42  1  0  0  0
M  END
> <s_m_entry_id>
10286

> <s_m_entry_name>
dock_pv.355

> <s_m_Source_Path>
/home/csk/Desktop/cluster/DUD-E-result/met

> <s_m_Source_File>
dock_pv.maegz

> <i_m_Source_File_Index>
355

> <chembl_id>
CHEMBL1991674

> <chembl_pref_name>
None

> <i_lp_mmshare_version>
53161

> <i_f3d_flags>
0

> <r_lp_tautomer_probability>
0.999998015729938

> <s_lp_Force_Field>
OPLS_2005

> <r_lp_Energy>
5.514423

> <b_lp_Chiralities_Consistent>
1

> <s_lp_Variant>
CHEMBL3717_lig3499-2

> <s_i_glide_gridfile>
glide-grid_3lq8

> <i_i_glide_lignum>
4324

> <i_i_glide_rotatable_bonds>
4

> <r_i_docking_score>
-7.56682761555153

> <r_i_glide_ligand_efficiency>
-0.315284483981314

> <r_i_glide_ligand_efficiency_sa>
-0.909437822129871

> <r_i_glide_ligand_efficiency_ln>
-1.81108906749566

> <r_i_glide_gscore>
-7.56682761555153

> <r_i_glide_lipo>
-2.51391663032559

> <r_i_glide_hbond>
-0.185614956870796

> <r_i_glide_metal>
0

> <r_i_glide_rewards>
-3.12881104581905

> <r_i_glide_evdw>
-36.3353309631348

> <r_i_glide_ecoul>
-2.68941307067871

> <r_i_glide_erotb>
0.481693526222459

> <r_i_glide_esite>
0

> <r_i_glide_emodel>
-55.2322714441782

> <r_i_glide_energy>
-39.0247440338135

> <r_i_glide_einternal>
2.14727592468262

> <i_i_glide_confnum>
10

> <i_i_glide_posenum>
144

> <r_i_glide_eff_state_penalty>
0

> <s_user_duplicate_titles>
CHEMBL3717_lig3499

> <s_m_subgroup_title>
dock_pv

> <s_m_subgroupid>
dock_pv

> <b_m_subgroup_collapsed>
1

$$$$
CHEMBL3717_lig3424
                    3D
 Schrodinger Suite 2021-1.
 41 43  0  0  1  0            999 V2000
    4.1457    3.6171   30.4361 S   0  0  0  0  0  0
    3.6677    2.3570   31.0071 O   0  0  0  0  0  0
    5.4905    4.1102   30.7485 O   0  0  0  0  0  0
   -6.7425    4.4092   30.2762 N   0  0  0  0  0  0
   -6.9180    3.0802   30.1485 N   0  0  0  0  0  0
    3.0499    4.8533   31.0184 N   0  0  0  0  0  0
   -5.5237    1.1893   30.0814 N   0  0  0  0  0  0
   -4.7143    3.5114   30.4395 C   0  0  0  0  0  0
   -5.4152    4.7364   30.4692 C   0  0  0  0  0  0
   -2.6420    4.7306   30.7890 C   0  0  0  0  0  0
   -5.7315    2.5317   30.2152 C   0  0  0  0  0  0
   -3.3210    3.5145   30.6078 C   0  0  0  0  0  0
   -1.1498    4.7619   30.8919 C   0  0  0  0  0  0
   -4.7671    5.9557   30.6532 C   0  0  0  0  0  0
   -3.3866    5.9187   30.8313 C   0  0  0  0  0  0
    1.6545    4.7900   30.9947 C   0  0  0  0  0  0
   -0.4248    5.8927   30.4862 C   0  0  0  0  0  0
   -0.4359    3.6507   31.3575 C   0  0  0  0  0  0
    0.9617    5.9151   30.5568 C   0  0  0  0  0  0
    0.9517    3.6631   31.4089 C   0  0  0  0  0  0
    3.9419    3.6908   28.5431 C   0  0  0  0  0  0
    2.5136    3.9397   28.0413 C   0  0  0  0  0  0
    1.5885    2.7577   28.2936 C   0  0  0  0  0  0
   -7.5316    5.0382   30.2176 H   0  0  0  0  0  0
    3.4493    5.7791   30.9912 H   0  0  0  0  0  0
   -4.6699    0.8292   29.6763 H   0  0  0  0  0  0
   -6.3159    0.5672   30.0091 H   0  0  0  0  0  0
   -2.7862    2.5788   30.5543 H   0  0  0  0  0  0
   -5.3060    6.8912   30.6399 H   0  0  0  0  0  0
   -2.8864    6.8618   30.9892 H   0  0  0  0  0  0
   -0.9244    6.7662   30.0962 H   0  0  0  0  0  0
   -0.9492    2.7646   31.6979 H   0  0  0  0  0  0
    1.4959    6.7967   30.2360 H   0  0  0  0  0  0
    1.4638    2.7925   31.7877 H   0  0  0  0  0  0
    4.3070    2.7538   28.1466 H   0  0  0  0  0  0
    4.6101    4.4790   28.2025 H   0  0  0  0  0  0
    2.5330    4.1172   26.9723 H   0  0  0  0  0  0
    2.1065    4.8577   28.4491 H   0  0  0  0  0  0
    0.5439    3.0454   28.2081 H   0  0  0  0  0  0
    1.7183    2.3540   29.2898 H   0  0  0  0  0  0
    1.8021    1.9576   27.5844 H   0  0  0  0  0  0
  1  2  2  0  0  0
  1  3  2  0  0  0
  1  6  1  0  0  0
  1 21  1  0  0  0
  4  5  1  0  0  0
  4  9  1  0  0  0
  4 24  1  0  0  0
  5 11  2  0  0  0
  6 16  1  0  0  0
  6 25  1  0  0  0
  7 11  1  0  0  0
  7 26  1  0  0  0
  7 27  1  0  0  0
  8  9  1  0  0  0
  8 11  1  0  0  0
  8 12  2  0  0  0
  9 14  2  0  0  0
 10 12  1  0  0  0
 10 13  1  0  0  0
 10 15  2  0  0  0
 12 28  1  0  0  0
 13 17  2  0  0  0
 13 18  1  0  0  0
 14 15  1  0  0  0
 14 29  1  0  0  0
 15 30  1  0  0  0
 16 19  2  0  0  0
 16 20  1  0  0  0
 17 19  1  0  0  0
 17 31  1  0  0  0
 18 20  2  0  0  0
 18 32  1  0  0  0
 19 33  1  0  0  0
 20 34  1  0  0  0
 21 22  1  0  0  0
 21 35  1  0  0  0
 21 36  1  0  0  0
 22 23  1  0  0  0
 22 37  1  0  0  0
 22 38  1  0  0  0
 23 39  1  0  0  0
 23 40  1  0  0  0
 23 41  1  0  0  0
M  END
> <s_m_entry_id>
10287

> <s_m_entry_name>
dock_pv.356

> <s_m_Source_Path>
/home/csk/Desktop/cluster/DUD-E-result/met

> <s_m_Source_File>
dock_pv.maegz

> <i_m_Source_File_Index>
356

> <chembl_id>
CHEMBL1992342

> <chembl_pref_name>
None

> <i_lp_mmshare_version>
53161

> <i_f3d_flags>
0

> <r_lp_tautomer_probability>
1

> <s_lp_Force_Field>
OPLS_2005

> <r_lp_Energy>
5.873344

> <b_lp_Chiralities_Consistent>
1

> <s_lp_Variant>
CHEMBL3717_lig3424-1

> <s_i_glide_gridfile>
glide-grid_3lq8

> <i_i_glide_lignum>
4210

> <i_i_glide_rotatable_bonds>
5

> <r_i_docking_score>
-7.5663481435568

> <r_i_glide_ligand_efficiency>
-0.328971658415513

> <r_i_glide_ligand_efficiency_sa>
-0.93555163569708

> <r_i_glide_ligand_efficiency_ln>
-1.82961158896382

> <r_i_glide_gscore>
-7.5663481435568

> <r_i_glide_lipo>
-3.90729949184847

> <r_i_glide_hbond>
0

> <r_i_glide_metal>
0

> <r_i_glide_rewards>
-2.23416890765854

> <r_i_glide_evdw>
-36.8745574951172

> <r_i_glide_ecoul>
-1.80187201499939

> <r_i_glide_erotb>
0.68912893295598

> <r_i_glide_esite>
0

> <r_i_glide_emodel>
-54.3007798754337

> <r_i_glide_energy>
-38.6764295101166

> <r_i_glide_einternal>
4.50965785980225

> <i_i_glide_confnum>
4

> <i_i_glide_posenum>
6

> <r_i_glide_eff_state_penalty>
0

> <s_user_duplicate_titles>
CHEMBL3717_lig3424

> <s_m_subgroup_title>
dock_pv

> <s_m_subgroupid>
dock_pv

> <b_m_subgroup_collapsed>
1

$$$$
CHEMBL3717_lig1857
                    3D
 Schrodinger Suite 2021-1.
 42 46  0  0  1  0            999 V2000
   -5.8836    4.0530   30.3436 C   0  0  0  0  0  0
   -7.1417    4.6812   30.3073 C   0  0  0  0  0  0
   -8.2956    4.0112   30.0297 N   0  0  0  0  0  0
   -5.7337    2.7161   30.1145 N   0  0  0  0  0  0
   -6.8767    2.0887   29.8080 C   0  0  0  0  0  0
   -8.1470    2.7080   29.7681 C   0  0  0  0  0  0
   -9.0859    1.7873   29.4114 N   0  0  0  0  0  0
   -8.4231    0.5920   29.2003 N   0  0  0  0  0  0
   -7.1058    0.7743   29.4381 N   0  0  0  0  0  0
   -4.6189    4.8236   30.5258 C   0  0  0  0  0  0
   -3.3025    4.3825   30.6080 C   0  0  0  0  0  0
   -2.5091    5.5037   30.6080 N   0  0  0  0  0  0
   -3.2395    6.6233   30.6579 N   0  0  0  0  0  0
   -4.4802    6.2117   30.6122 C   0  0  0  0  0  0
   -6.1517   -0.3167   29.2632 C   0  0  0  0  0  0
   -5.2857   -0.5317   30.4905 C   0  0  0  0  0  0
   -1.0423    5.5607   30.6140 C   0  0  0  0  0  0
   -0.4246    6.6671   29.7156 C   0  0  0  0  0  0
   -0.7099    7.9570   30.2080 O   0  0  0  0  0  0
   -5.5499   -0.1444   31.7935 C   0  0  0  0  0  0
   -4.4940   -0.4430   32.6080 N   0  0  0  0  0  0
   -4.0026   -1.1825   30.5486 C   0  0  0  0  0  0
   -3.5225   -1.0805   31.8855 C   0  0  0  0  0  0
   -2.3525   -1.5293   32.3510 N   0  0  0  0  0  0
   -1.5816   -2.1501   31.4225 C   0  0  0  0  0  0
   -1.9466   -2.3276   30.0876 C   0  0  0  0  0  0
   -3.1705   -1.8400   29.6321 C   0  0  0  0  0  0
   -7.2468    5.7448   30.4502 H   0  0  0  0  0  0
   -2.8725    3.3916   30.5966 H   0  0  0  0  0  0
   -5.2931    6.9164   30.6080 H   0  0  0  0  0  0
   -6.6812   -1.2297   28.9845 H   0  0  0  0  0  0
   -5.5367   -0.0430   28.4064 H   0  0  0  0  0  0
   -0.7106    4.6045   30.2080 H   0  0  0  0  0  0
   -0.6551    5.5738   31.6323 H   0  0  0  0  0  0
   -0.8627    6.6354   28.7193 H   0  0  0  0  0  0
    0.6487    6.5235   29.5845 H   0  0  0  0  0  0
   -0.4940    8.6382   29.5576 H   0  0  0  0  0  0
   -6.4106    0.3633   32.2079 H   0  0  0  0  0  0
   -4.5076   -0.2270   33.5954 H   0  0  0  0  0  0
   -0.6324   -2.5268   31.7761 H   0  0  0  0  0  0
   -1.2940   -2.8430   29.4080 H   0  0  0  0  0  0
   -3.4724   -1.9747   28.6080 H   0  0  0  0  0  0
  1  2  1  0  0  0
  1  4  2  0  0  0
  1 10  1  0  0  0
  2  3  2  0  0  0
  2 28  1  0  0  0
  3  6  1  0  0  0
  4  5  1  0  0  0
  5  6  2  0  0  0
  5  9  1  0  0  0
  6  7  1  0  0  0
  7  8  2  0  0  0
  8  9  1  0  0  0
  9 15  1  0  0  0
 10 11  2  0  0  0
 10 14  1  0  0  0
 11 12  1  0  0  0
 11 29  1  0  0  0
 12 13  1  0  0  0
 12 17  1  0  0  0
 13 14  2  0  0  0
 14 30  1  0  0  0
 15 16  1  0  0  0
 15 31  1  0  0  0
 15 32  1  0  0  0
 16 20  2  0  0  0
 16 22  1  0  0  0
 17 18  1  0  0  0
 17 33  1  0  0  0
 17 34  1  0  0  0
 18 19  1  0  0  0
 18 35  1  0  0  0
 18 36  1  0  0  0
 19 37  1  0  0  0
 20 21  1  0  0  0
 20 38  1  0  0  0
 21 23  1  0  0  0
 21 39  1  0  0  0
 22 23  2  0  0  0
 22 27  1  0  0  0
 23 24  1  0  0  0
 24 25  2  0  0  0
 25 26  1  0  0  0
 25 40  1  0  0  0
 26 27  2  0  0  0
 26 41  1  0  0  0
 27 42  1  0  0  0
M  END
> <s_m_entry_id>
10288

> <s_m_entry_name>
dock_pv.357

> <s_m_Source_Path>
/home/csk/Desktop/cluster/DUD-E-result/met

> <s_m_Source_File>
dock_pv.maegz

> <i_m_Source_File_Index>
357

> <chembl_id>
CHEMBL3334556

> <chembl_pref_name>
None

> <i_lp_mmshare_version>
53161

> <i_f3d_flags>
0

> <r_lp_tautomer_probability>
0.999998432528457

> <s_lp_Force_Field>
OPLS_2005

> <r_lp_Energy>
18.2562

> <b_lp_Chiralities_Consistent>
1

> <s_lp_Variant>
CHEMBL3717_lig1857-1

> <s_i_glide_gridfile>
glide-grid_3lq8

> <i_i_glide_lignum>
2143

> <i_i_glide_rotatable_bonds>
6

> <r_i_docking_score>
-7.56118206844315

> <r_i_glide_ligand_efficiency>
-0.280043780312709

> <r_i_glide_ligand_efficiency_sa>
-0.84013134001515

> <r_i_glide_ligand_efficiency_ln>
-1.76011852970479

> <r_i_glide_gscore>
-7.56118206844315

> <r_i_glide_lipo>
-1.92849699355079

> <r_i_glide_hbond>
-0.529682938008304

> <r_i_glide_metal>
0

> <r_i_glide_rewards>
-2.74136324484563

> <r_i_glide_evdw>
-36.8420257568359

> <r_i_glide_ecoul>
-8.36208629608154

> <r_i_glide_erotb>
0.734775340215608

> <r_i_glide_esite>
0

> <r_i_glide_emodel>
-64.4310131029548

> <r_i_glide_energy>
-45.2041120529175

> <r_i_glide_einternal>
3.74427056312561

> <i_i_glide_confnum>
26

> <i_i_glide_posenum>
153

> <r_i_glide_eff_state_penalty>
0

> <s_user_duplicate_titles>
CHEMBL3717_lig1857

> <s_m_subgroup_title>
dock_pv

> <s_m_subgroupid>
dock_pv

> <b_m_subgroup_collapsed>
1

$$$$
CHEMBL3717_lig1034
                    3D
 Schrodinger Suite 2021-1.
 35 37  0  0  1  0            999 V2000
   -7.7212    4.6237   30.4381 C   0  0  0  0  0  0
   -7.9015    3.2405   30.3410 C   0  0  0  0  0  0
   -6.7965    2.3854   30.3555 C   0  0  0  0  0  0
   -5.5208    2.9392   30.4598 C   0  0  0  0  0  0
   -5.3283    4.3037   30.5548 C   0  0  0  0  0  0
   -6.4348    5.1570   30.5541 C   0  0  0  0  0  0
   -3.8977    4.5374   30.6080 C   0  0  0  0  0  0
   -3.2899    3.1859   30.6080 C   0  0  0  0  0  0
   -4.2994    2.3124   30.4912 N   0  0  0  0  0  0
   -2.0940    2.9070   30.6894 O   0  0  0  0  0  0
   -3.3101    5.6798   30.6500 N   0  0  0  0  0  0
   -1.9550    5.7056   30.5947 N   0  0  0  0  0  0
   -1.2893    6.8115   30.2080 C   0  0  0  0  0  0
    0.1607    6.6940   29.7205 C   0  0  0  0  0  0
    0.9075    5.4449   30.1681 C   0  0  0  0  0  0
    1.3815    4.5377   29.2198 C   0  0  0  0  0  0
    2.1231    3.4272   29.6157 C   0  0  0  0  0  0
    2.3856    3.2136   30.9769 C   0  0  0  0  0  0
    1.9060    4.1135   31.9252 C   0  0  0  0  0  0
    1.1660    5.2214   31.5224 C   0  0  0  0  0  0
    3.1141    2.1386   31.4080 O   0  0  0  0  0  0
    2.7060    2.3570   28.3920 Cl  0  0  0  0  0  0
   -1.7899    7.9320   30.2080 O   0  0  0  0  0  0
   -8.5764    5.2844   30.4108 H   0  0  0  0  0  0
   -8.8977    2.8324   30.2504 H   0  0  0  0  0  0
   -6.9423    1.3175   30.2815 H   0  0  0  0  0  0
   -6.3087    6.2295   30.6080 H   0  0  0  0  0  0
   -4.1631    1.3131   30.4633 H   0  0  0  0  0  0
   -1.5115    4.7943   30.5950 H   0  0  0  0  0  0
    0.7060    7.5604   30.0945 H   0  0  0  0  0  0
    0.1609    6.7811   28.6331 H   0  0  0  0  0  0
    1.1903    4.6976   28.1692 H   0  0  0  0  0  0
    2.1097    3.9569   32.9744 H   0  0  0  0  0  0
    0.8160    5.9238   32.2623 H   0  0  0  0  0  0
    3.3302    1.5534   30.6786 H   0  0  0  0  0  0
  1  2  1  0  0  0
  1  6  2  0  0  0
  1 24  1  0  0  0
  2  3  2  0  0  0
  2 25  1  0  0  0
  3  4  1  0  0  0
  3 26  1  0  0  0
  4  5  2  0  0  0
  4  9  1  0  0  0
  5  6  1  0  0  0
  5  7  1  0  0  0
  6 27  1  0  0  0
  7  8  1  0  0  0
  7 11  2  0  0  0
  8  9  1  0  0  0
  8 10  2  0  0  0
  9 28  1  0  0  0
 11 12  1  0  0  0
 12 13  1  0  0  0
 12 29  1  0  0  0
 13 14  1  0  0  0
 13 23  2  0  0  0
 14 15  1  0  0  0
 14 30  1  0  0  0
 14 31  1  0  0  0
 15 16  2  0  0  0
 15 20  1  0  0  0
 16 17  1  0  0  0
 16 32  1  0  0  0
 17 18  2  0  0  0
 17 22  1  0  0  0
 18 19  1  0  0  0
 18 21  1  0  0  0
 19 20  2  0  0  0
 19 33  1  0  0  0
 20 34  1  0  0  0
 21 35  1  0  0  0
M  END
> <s_m_entry_id>
10289

> <s_m_entry_name>
dock_pv.358

> <s_m_Source_Path>
/home/csk/Desktop/cluster/DUD-E-result/met

> <s_m_Source_File>
dock_pv.maegz

> <i_m_Source_File_Index>
358

> <chembl_id>
CHEMBL1823267

> <chembl_pref_name>
None

> <i_lp_mmshare_version>
53161

> <i_f3d_flags>
0

> <r_lp_tautomer_probability>
0.999999999997365

> <s_lp_Force_Field>
OPLS_2005

> <r_lp_Energy>
38.930393

> <b_lp_Chiralities_Consistent>
1

> <s_lp_Variant>
CHEMBL3717_lig1034-1

> <s_i_glide_gridfile>
glide-grid_3lq8

> <i_i_glide_lignum>
1152

> <i_i_glide_rotatable_bonds>
5

> <r_i_docking_score>
-7.55835452075303

> <r_i_glide_ligand_efficiency>
-0.328624109597958

> <r_i_glide_ligand_efficiency_sa>
-0.934563253091982

> <r_i_glide_ligand_efficiency_ln>
-1.8276786584877

> <r_i_glide_gscore>
-7.55835452075303

> <r_i_glide_lipo>
-3.28605699929854

> <r_i_glide_hbond>
-0.112931972318795

> <r_i_glide_metal>
0

> <r_i_glide_rewards>
-2.43881352169291

> <r_i_glide_evdw>
-41.1925621032715

> <r_i_glide_ecoul>
-2.35015463829041

> <r_i_glide_erotb>
0.691599273464345

> <r_i_glide_esite>
0

> <r_i_glide_emodel>
-58.1543909597938

> <r_i_glide_energy>
-43.5427167415619

> <r_i_glide_einternal>
5.33063411712646

> <i_i_glide_confnum>
14

> <i_i_glide_posenum>
134

> <r_i_glide_eff_state_penalty>
0

> <s_user_duplicate_titles>
CHEMBL3717_lig1034

> <s_m_subgroup_title>
dock_pv

> <s_m_subgroupid>
dock_pv

> <b_m_subgroup_collapsed>
1

$$$$
CHEMBL3717_lig3868
                    3D
 Schrodinger Suite 2021-1.
 42 44  0  0  1  0            999 V2000
   -2.0940    6.8300   30.2080 S   0  0  0  0  0  0
    0.5429    7.2105   29.8045 O   0  0  0  0  0  0
   -2.0800   -1.0239   32.4166 O   0  0  0  0  0  0
   -0.1894    5.1536   30.7116 N   0  0  0  0  0  0
   -4.0543    3.3759   30.3376 N   0  0  0  0  0  0
   -6.4394    3.6720   30.3456 N   0  0  0  0  0  0
   -5.5392    1.5452   29.9998 N   0  0  0  0  0  0
   -2.4808    5.1856   30.6730 C   0  0  0  0  0  0
   -1.3650    4.4737   30.9402 C   0  0  0  0  0  0
   -3.8859    4.7026   30.6078 C   0  0  0  0  0  0
   -0.3309    6.4416   30.1987 C   0  0  0  0  0  0
   -5.3237    2.9073   30.2406 C   0  0  0  0  0  0
   -4.9859    5.5549   30.7603 C   0  0  0  0  0  0
    1.1729    4.6102   30.8434 C   0  0  0  0  0  0
   -1.3044    3.0330   31.4124 C   0  0  0  0  0  0
   -6.2552    4.9914   30.6080 C   0  0  0  0  0  0
   -4.7292    0.4134   30.2014 C   0  0  0  0  0  0
   -3.7467    0.3459   31.1993 C   0  0  0  0  0  0
   -3.0246   -0.8416   31.4242 C   0  0  0  0  0  0
   -4.9771   -0.7130   29.4188 C   0  0  0  0  0  0
    1.5965    3.7455   29.6433 C   0  0  0  0  0  0
   -3.2758   -1.9431   30.6064 C   0  0  0  0  0  0
   -4.2459   -1.8840   29.6093 C   0  0  0  0  0  0
   -1.8712   -0.0132   33.3942 C   0  0  0  0  0  0
   -6.5093    1.3216   29.8320 H   0  0  0  0  0  0
   -4.8712    6.6096   30.9560 H   0  0  0  0  0  0
    1.2721    4.0557   31.7755 H   0  0  0  0  0  0
    1.8917    5.4274   30.9387 H   0  0  0  0  0  0
   -2.0368    2.8862   32.2058 H   0  0  0  0  0  0
   -1.5569    2.3577   30.5965 H   0  0  0  0  0  0
   -0.3358    2.7461   31.8076 H   0  0  0  0  0  0
   -7.1454    5.6017   30.6698 H   0  0  0  0  0  0
   -3.5737    1.2110   31.8079 H   0  0  0  0  0  0
   -5.7292   -0.6880   28.6424 H   0  0  0  0  0  0
    2.6026    3.3530   29.7905 H   0  0  0  0  0  0
    1.6088    4.3285   28.7222 H   0  0  0  0  0  0
    0.9327    2.8934   29.5008 H   0  0  0  0  0  0
   -2.7285   -2.8625   30.7555 H   0  0  0  0  0  0
   -4.4352   -2.7458   28.9860 H   0  0  0  0  0  0
   -1.2916   -0.4310   34.2166 H   0  0  0  0  0  0
   -1.3011    0.8193   32.9914 H   0  0  0  0  0  0
   -2.8067    0.3599   33.8079 H   0  0  0  0  0  0
  1  8  1  0  0  0
  1 11  1  0  0  0
  2 11  2  0  0  0
  3 19  1  0  0  0
  3 24  1  0  0  0
  4  9  1  0  0  0
  4 11  1  0  0  0
  4 14  1  0  0  0
  5 10  1  0  0  0
  5 12  2  0  0  0
  6 12  1  0  0  0
  6 16  2  0  0  0
  7 12  1  0  0  0
  7 17  1  0  0  0
  7 25  1  0  0  0
  8  9  2  0  0  0
  8 10  1  0  0  0
  9 15  1  0  0  0
 10 13  2  0  0  0
 13 16  1  0  0  0
 13 26  1  0  0  0
 14 21  1  0  0  0
 14 27  1  0  0  0
 14 28  1  0  0  0
 15 29  1  0  0  0
 15 30  1  0  0  0
 15 31  1  0  0  0
 16 32  1  0  0  0
 17 18  1  0  0  0
 17 20  2  0  0  0
 18 19  2  0  0  0
 18 33  1  0  0  0
 19 22  1  0  0  0
 20 23  1  0  0  0
 20 34  1  0  0  0
 21 35  1  0  0  0
 21 36  1  0  0  0
 21 37  1  0  0  0
 22 23  2  0  0  0
 22 38  1  0  0  0
 23 39  1  0  0  0
 24 40  1  0  0  0
 24 41  1  0  0  0
 24 42  1  0  0  0
M  END
> <s_m_entry_id>
10290

> <s_m_entry_name>
dock_pv.359

> <s_m_Source_Path>
/home/csk/Desktop/cluster/DUD-E-result/met

> <s_m_Source_File>
dock_pv.maegz

> <i_m_Source_File_Index>
359

> <chembl_id>
CHEMBL1986263

> <chembl_pref_name>
None

> <i_lp_mmshare_version>
53161

> <i_f3d_flags>
0

> <r_lp_tautomer_probability>
0.999999987636

> <s_lp_Force_Field>
OPLS_2005

> <r_lp_Energy>
16.526991

> <b_lp_Chiralities_Consistent>
1

> <s_lp_Variant>
CHEMBL3717_lig3868-1

> <s_i_glide_gridfile>
glide-grid_3lq8

> <i_i_glide_lignum>
4911

> <i_i_glide_rotatable_bonds>
5

> <r_i_docking_score>
-7.53930275867325

> <r_i_glide_ligand_efficiency>
-0.314137614944719

> <r_i_glide_ligand_efficiency_sa>
-0.906129679382919

> <r_i_glide_ligand_efficiency_ln>
-1.8045011062113

> <r_i_glide_gscore>
-7.53930275867325

> <r_i_glide_lipo>
-3.40696101284928

> <r_i_glide_hbond>
0

> <r_i_glide_metal>
0

> <r_i_glide_rewards>
-2.38184258493816

> <r_i_glide_evdw>
-42.7066268920898

> <r_i_glide_ecoul>
-0.668975234031677

> <r_i_glide_erotb>
0.485178468823439

> <r_i_glide_esite>
0

> <r_i_glide_emodel>
-61.097481093137

> <r_i_glide_energy>
-43.3756021261215

> <r_i_glide_einternal>
4.8212423324585

> <i_i_glide_confnum>
1

> <i_i_glide_posenum>
65

> <r_i_glide_eff_state_penalty>
0

> <s_user_duplicate_titles>
CHEMBL3717_lig3868

> <s_m_subgroup_title>
dock_pv

> <s_m_subgroupid>
dock_pv

> <b_m_subgroup_collapsed>
1

$$$$
CHEMBL3717_lig3888
                    3D
 Schrodinger Suite 2021-1.
 40 42  0  0  1  0            999 V2000
   -5.7295    4.2916   30.2083 O   0  0  0  0  0  0
   -4.0117    7.1570   30.6080 O   0  0  0  0  0  0
   -2.8819    2.5815   30.6788 N   0  0  0  0  0  0
   -1.2597    5.5168   31.0390 N   0  0  0  0  0  0
   -5.2106   -0.8884   30.1849 N   0  0  0  0  0  0
   -3.2171    3.9214   30.6080 C   0  0  0  0  0  0
   -2.5379    5.0948   30.7600 C   0  0  0  0  0  0
   -4.5596    4.6159   30.4052 C   0  0  0  0  0  0
   -3.7637    5.9570   30.5923 C   0  0  0  0  0  0
   -3.6940    1.4512   30.5065 C   0  0  0  0  0  0
   -0.1955    4.6909   31.5859 C   0  0  0  0  0  0
    0.8825    4.3984   30.5851 C   0  0  0  0  0  0
   -4.6980    1.3827   29.5339 C   0  0  0  0  0  0
   -3.4432    0.3260   31.2986 C   0  0  0  0  0  0
    2.2151    4.6944   30.8741 C   0  0  0  0  0  0
    3.2238    4.3569   29.9715 C   0  0  0  0  0  0
    0.5549    3.7418   29.4080 C   0  0  0  0  0  0
    2.8710    3.7095   28.7778 C   0  0  0  0  0  0
    1.5427    3.4112   28.4986 C   0  0  0  0  0  0
   -5.4312    0.2016   29.4080 C   0  0  0  0  0  0
   -4.2236   -0.8164   31.1122 C   0  0  0  0  0  0
    4.6764    4.6420   30.3326 C   0  0  0  0  0  0
    3.9060    3.2339   27.8080 C   0  0  0  0  0  0
   -1.9827    2.3486   31.0726 H   0  0  0  0  0  0
   -1.0603    6.5074   31.0703 H   0  0  0  0  0  0
   -0.6009    3.7170   31.8567 H   0  0  0  0  0  0
    0.2402    5.1570   32.4708 H   0  0  0  0  0  0
   -4.8940    2.2123   28.8744 H   0  0  0  0  0  0
   -2.6658    0.3312   32.0481 H   0  0  0  0  0  0
    2.4704    5.1570   31.8134 H   0  0  0  0  0  0
   -0.4677    3.4635   29.2055 H   0  0  0  0  0  0
    1.2741    2.8795   27.5973 H   0  0  0  0  0  0
   -6.2017    0.1036   28.6566 H   0  0  0  0  0  0
   -4.0613   -1.7044   31.7063 H   0  0  0  0  0  0
    4.8065    4.7570   31.4080 H   0  0  0  0  0  0
    5.3221    3.8134   30.0402 H   0  0  0  0  0  0
    5.0300    5.5426   29.8292 H   0  0  0  0  0  0
    4.3060    2.3570   28.2775 H   0  0  0  0  0  0
    3.4914    2.9439   26.8444 H   0  0  0  0  0  0
    4.7099    3.9570   27.6752 H   0  0  0  0  0  0
  1  8  2  0  0  0
  2  9  2  0  0  0
  3  6  1  0  0  0
  3 10  1  0  0  0
  3 24  1  0  0  0
  4  7  1  0  0  0
  4 11  1  0  0  0
  4 25  1  0  0  0
  5 20  2  0  0  0
  5 21  1  0  0  0
  6  7  2  0  0  0
  6  8  1  0  0  0
  7  9  1  0  0  0
  8  9  1  0  0  0
 10 13  2  0  0  0
 10 14  1  0  0  0
 11 12  1  0  0  0
 11 26  1  0  0  0
 11 27  1  0  0  0
 12 15  1  0  0  0
 12 17  2  0  0  0
 13 20  1  0  0  0
 13 28  1  0  0  0
 14 21  2  0  0  0
 14 29  1  0  0  0
 15 16  2  0  0  0
 15 30  1  0  0  0
 16 18  1  0  0  0
 16 22  1  0  0  0
 17 19  1  0  0  0
 17 31  1  0  0  0
 18 19  2  0  0  0
 18 23  1  0  0  0
 19 32  1  0  0  0
 20 33  1  0  0  0
 21 34  1  0  0  0
 22 35  1  0  0  0
 22 36  1  0  0  0
 22 37  1  0  0  0
 23 38  1  0  0  0
 23 39  1  0  0  0
 23 40  1  0  0  0
M  END
> <s_m_entry_id>
10292

> <s_m_entry_name>
dock_pv.361

> <s_m_Source_Path>
/home/csk/Desktop/cluster/DUD-E-result/met

> <s_m_Source_File>
dock_pv.maegz

> <i_m_Source_File_Index>
361

> <chembl_id>
CHEMBL1983449

> <chembl_pref_name>
None

> <i_lp_mmshare_version>
53161

> <i_f3d_flags>
0

> <r_lp_tautomer_probability>
1

> <s_lp_Force_Field>
OPLS_2005

> <r_lp_Energy>
51.586812

> <b_lp_Chiralities_Consistent>
1

> <s_lp_Variant>
CHEMBL3717_lig3888-1

> <s_i_glide_gridfile>
glide-grid_3lq8

> <i_i_glide_lignum>
4935

> <i_i_glide_rotatable_bonds>
5

> <r_i_docking_score>
-7.53620103386958

> <r_i_glide_ligand_efficiency>
-0.327660914516068

> <r_i_glide_ligand_efficiency_sa>
-0.931824054406304

> <r_i_glide_ligand_efficiency_ln>
-1.82232174448257

> <r_i_glide_gscore>
-7.53620103386958

> <r_i_glide_lipo>
-3.98483669649873

> <r_i_glide_hbond>
-0.32

> <r_i_glide_metal>
0

> <r_i_glide_rewards>
-2.37126180017204

> <r_i_glide_evdw>
-34.6616439819336

> <r_i_glide_ecoul>
-0.703214287757874

> <r_i_glide_erotb>
0.978461805061551

> <r_i_glide_esite>
0

> <r_i_glide_emodel>
-46.3290805101203

> <r_i_glide_energy>
-35.3648582696915

> <r_i_glide_einternal>
6.33895063400269

> <i_i_glide_confnum>
26

> <i_i_glide_posenum>
172

> <r_i_glide_eff_state_penalty>
0

> <s_user_duplicate_titles>
CHEMBL3717_lig3888

> <s_m_subgroup_title>
dock_pv

> <s_m_subgroupid>
dock_pv

> <b_m_subgroup_collapsed>
1

$$$$
CHEMBL3717_lig3922
                    3D
 Schrodinger Suite 2021-1.
 33 34  0  0  1  0            999 V2000
   -3.1392    6.8169   30.2297 O   0  0  0  0  0  0
    0.4349    7.1689   29.7508 N   0  0  0  0  0  0
    4.9237    4.3568   28.6233 N   0  0  0  0  0  0
   -5.5982    4.0262   30.5159 N   0  0  0  0  0  0
    0.0867    5.0216   30.8214 C   0  0  0  0  0  0
   -1.8093    6.4600   30.3010 C   0  0  0  0  0  0
   -1.2912    5.2725   30.8477 C   0  0  0  0  0  0
    0.9033    6.0039   30.2491 C   0  0  0  0  0  0
    0.5981    3.7656   31.4077 C   0  0  0  0  0  0
   -0.8970    7.3843   29.8073 C   0  0  0  0  0  0
    2.8770    3.5715   30.3669 C   0  0  0  0  0  0
    1.7921    3.1570   31.2517 C   0  0  0  0  0  0
    2.8630    3.1577   29.0362 C   0  0  0  0  0  0
    3.9382    4.3553   30.8299 C   0  0  0  0  0  0
   -4.1375    5.9846   30.8049 C   0  0  0  0  0  0
    3.9063    3.5570   28.2081 C   0  0  0  0  0  0
    4.9303    4.7401   29.9244 C   0  0  0  0  0  0
   -4.3960    4.6891   30.0374 C   0  0  0  0  0  0
   -5.8084    3.2156   29.9499 H   0  0  0  0  0  0
   -5.4652    3.6861   31.4573 H   0  0  0  0  0  0
   -1.9403    4.5415   31.3008 H   0  0  0  0  0  0
    1.9723    5.9125   30.1980 H   0  0  0  0  0  0
   -0.0932    3.2756   32.0762 H   0  0  0  0  0  0
   -1.2400    8.3276   29.4088 H   0  0  0  0  0  0
    1.9791    2.2496   31.8073 H   0  0  0  0  0  0
    2.0754    2.5204   28.6587 H   0  0  0  0  0  0
    3.9697    4.6826   31.8579 H   0  0  0  0  0  0
   -3.8553    5.7364   31.8080 H   0  0  0  0  0  0
   -5.0526    6.5754   30.8665 H   0  0  0  0  0  0
    3.9505    3.1689   27.2008 H   0  0  0  0  0  0
    5.7527    5.3688   30.2339 H   0  0  0  0  0  0
   -4.4955    4.9772   29.0079 H   0  0  0  0  0  0
   -3.5567    3.9979   30.0791 H   0  0  0  0  0  0
  1  6  1  0  0  0
  1 15  1  0  0  0
  2  8  2  0  0  0
  2 10  1  0  0  0
  3 16  2  0  0  0
  3 17  1  0  0  0
  4 18  1  0  0  0
  4 19  1  0  0  0
  4 20  1  0  0  0
  5  7  2  0  0  0
  5  8  1  0  0  0
  5  9  1  0  0  0
  6  7  1  0  0  0
  6 10  2  0  0  0
  7 21  1  0  0  0
  8 22  1  0  0  0
  9 12  2  3  0  0
  9 23  1  0  0  0
 10 24  1  0  0  0
 11 12  1  0  0  0
 11 13  2  0  0  0
 11 14  1  0  0  0
 12 25  1  0  0  0
 13 16  1  0  0  0
 13 26  1  0  0  0
 14 17  2  0  0  0
 14 27  1  0  0  0
 15 18  1  0  0  0
 15 28  1  0  0  0
 15 29  1  0  0  0
 16 30  1  0  0  0
 17 31  1  0  0  0
 18 32  1  0  0  0
 18 33  1  0  0  0
M  END
> <s_m_entry_id>
10293

> <s_m_entry_name>
dock_pv.362

> <s_m_Source_Path>
/home/csk/Desktop/cluster/DUD-E-result/met

> <s_m_Source_File>
dock_pv.maegz

> <i_m_Source_File_Index>
362

> <chembl_id>
CHEMBL1989518

> <chembl_pref_name>
None

> <i_lp_mmshare_version>
53161

> <i_f3d_flags>
0

> <r_lp_tautomer_probability>
1

> <s_lp_Force_Field>
OPLS_2005

> <r_lp_Energy>
21.162814

> <b_lp_Chiralities_Consistent>
1

> <s_lp_Variant>
CHEMBL3717_lig3922-2

> <s_i_glide_gridfile>
glide-grid_3lq8

> <i_i_glide_lignum>
4982

> <i_i_glide_rotatable_bonds>
5

> <r_i_docking_score>
-7.53298472621439

> <r_i_glide_ligand_efficiency>
-0.418499151456355

> <r_i_glide_ligand_efficiency_sa>
-1.09677804860627

> <r_i_glide_ligand_efficiency_ln>
-1.93631488068587

> <r_i_glide_gscore>
-7.53298472621439

> <r_i_glide_lipo>
-4.07645473424337

> <r_i_glide_hbond>
-0.32

> <r_i_glide_metal>
0

> <r_i_glide_rewards>
-2.46355088394923

> <r_i_glide_evdw>
-34.2000045776367

> <r_i_glide_ecoul>
-1.0202454328537

> <r_i_glide_erotb>
1.19005793578811

> <r_i_glide_esite>
0

> <r_i_glide_emodel>
-48.003621954107

> <r_i_glide_energy>
-35.2202500104904

> <r_i_glide_einternal>
5.93552541732788

> <i_i_glide_confnum>
62

> <i_i_glide_posenum>
225

> <r_i_glide_eff_state_penalty>
0

> <s_user_duplicate_titles>
CHEMBL3717_lig3922,CHEMBL3717_lig3922

> <s_m_subgroup_title>
dock_pv

> <s_m_subgroupid>
dock_pv

> <b_m_subgroup_collapsed>
1

$$$$
CHEMBL3717_lig1687
                    3D
 Schrodinger Suite 2021-1.
 56 59  0  0  1  0            999 V2000
   -0.2130    4.0847   31.0085 C   0  0  0  0  0  0
   -0.9648    5.1933   30.6082 C   0  0  0  0  0  0
   -0.3083    6.2832   30.0533 C   0  0  0  0  0  0
    1.0623    6.2408   29.8485 C   0  0  0  0  0  0
   -2.3573    5.2970   30.7404 N   0  0  0  0  0  0
   -3.3974    4.3714   30.6076 C   0  0  0  0  0  0
   -3.1475    3.0335   30.6056 N   0  0  0  0  0  0
   -4.2097    2.2038   30.3978 C   0  0  0  0  0  0
   -5.5060    2.7087   30.2077 C   0  0  0  0  0  0
   -5.6633    4.0942   30.2590 C   0  0  0  0  0  0
   -4.6203    4.9366   30.4595 N   0  0  0  0  0  0
   -6.8803    1.6945   29.9252 Cl  0  0  0  0  0  0
   -4.0065    0.8155   30.4094 N   0  0  0  0  0  0
   -3.1905   -0.0252   31.1922 C   0  0  0  0  0  0
   -3.0389   -1.3965   30.8727 C   0  0  0  0  0  0
   -2.1929   -2.1915   31.6668 C   0  0  0  0  0  0
   -1.5114   -1.6599   32.7546 C   0  0  0  0  0  0
   -1.6655   -0.3178   33.0678 C   0  0  0  0  0  0
   -2.4933    0.4885   32.2930 C   0  0  0  0  0  0
   -3.7437   -2.0366   29.6969 C   0  0  0  0  0  0
   -3.0039   -2.9192   29.0081 N   0  0  0  0  0  0
   -3.4910   -3.7571   27.9239 C   0  0  0  0  0  0
   -4.9044   -1.7392   29.4084 O   0  0  0  0  0  0
    1.8357    5.1350   30.2289 C   0  0  0  0  0  0
    1.1878    4.0621   30.8764 C   0  0  0  0  0  0
    1.9998    2.9467   31.5356 C   0  0  1  0  0  0
    3.3573    5.1574   30.0195 C   0  0  0  0  0  0
    3.0060    2.2154   30.6462 C   0  0  0  0  0  0
    4.0935    3.9649   29.4279 C   0  0  0  0  0  0
    4.2574    2.8967   30.3770 N   0  0  2  0  0  0
    2.6676    3.4604   32.8249 C   0  0  0  0  0  0
   -0.7107    3.2585   31.4924 H   0  0  0  0  0  0
   -0.8561    7.1641   29.7488 H   0  0  0  0  0  0
    1.5036    7.1153   29.4102 H   0  0  0  0  0  0
   -2.6966    6.2451   30.7139 H   0  0  0  0  0  0
   -6.6336    4.5505   30.1231 H   0  0  0  0  0  0
   -4.7001    0.2921   29.8874 H   0  0  0  0  0  0
   -2.0609   -3.2425   31.4504 H   0  0  0  0  0  0
   -0.8580   -2.2856   33.3460 H   0  0  0  0  0  0
   -1.1245    0.1063   33.9001 H   0  0  0  0  0  0
   -2.4955    1.5365   32.5424 H   0  0  0  0  0  0
   -2.0936   -3.1552   29.3685 H   0  0  0  0  0  0
   -2.8939   -4.6679   27.8705 H   0  0  0  0  0  0
   -3.4186   -3.2433   26.9657 H   0  0  0  0  0  0
   -4.5234   -4.0546   28.0997 H   0  0  0  0  0  0
    1.2802    2.1767   31.8043 H   0  0  0  0  0  0
    3.6001    5.9412   29.3404 H   0  0  0  0  0  0
    3.8365    5.4556   30.9453 H   0  0  0  0  0  0
    2.5241    1.9560   29.7016 H   0  0  0  0  0  0
    3.2643    1.2811   31.1451 H   0  0  0  0  0  0
    3.6127    3.6194   28.5103 H   0  0  0  0  0  0
    5.0961    4.2861   29.1399 H   0  0  0  0  0  0
    4.9437    2.2506   30.0077 H   0  0  0  0  0  0
    1.9437    3.9848   33.4448 H   0  0  0  0  0  0
    3.1051    2.6450   33.4016 H   0  0  0  0  0  0
    3.4672    4.1649   32.6077 H   0  0  0  0  0  0
  1 25  2  0  0  0
  1  2  1  0  0  0
  1 32  1  0  0  0
  2  3  2  0  0  0
  2  5  1  0  0  0
  3  4  1  0  0  0
  3 33  1  0  0  0
  4 24  2  0  0  0
  4 34  1  0  0  0
  5  6  1  0  0  0
  5 35  1  0  0  0
  6  7  2  0  0  0
  6 11  1  0  0  0
  7  8  1  0  0  0
  8  9  2  0  0  0
  8 13  1  0  0  0
  9 10  1  0  0  0
  9 12  1  0  0  0
 10 11  2  0  0  0
 10 36  1  0  0  0
 13 14  1  0  0  0
 13 37  1  0  0  0
 14 15  2  0  0  0
 14 19  1  0  0  0
 15 16  1  0  0  0
 15 20  1  0  0  0
 16 17  2  0  0  0
 16 38  1  0  0  0
 17 18  1  0  0  0
 17 39  1  0  0  0
 18 19  2  0  0  0
 18 40  1  0  0  0
 19 41  1  0  0  0
 20 21  1  0  0  0
 20 23  2  0  0  0
 21 22  1  0  0  0
 21 42  1  0  0  0
 22 43  1  0  0  0
 22 44  1  0  0  0
 22 45  1  0  0  0
 24 25  1  0  0  0
 24 27  1  0  0  0
 25 26  1  0  0  0
 26 28  1  0  0  0
 26 31  1  0  0  0
 26 46  1  0  0  0
 27 29  1  0  0  0
 27 47  1  0  0  0
 27 48  1  0  0  0
 28 30  1  0  0  0
 28 49  1  0  0  0
 28 50  1  0  0  0
 29 30  1  0  0  0
 29 51  1  0  0  0
 29 52  1  0  0  0
 30 53  1  0  0  0
 31 54  1  0  0  0
 31 55  1  0  0  0
 31 56  1  0  0  0
M  END
> <s_m_entry_id>
10294

> <s_m_entry_name>
dock_pv.363

> <s_m_Source_Path>
/home/csk/Desktop/cluster/DUD-E-result/met

> <s_m_Source_File>
dock_pv.maegz

> <i_m_Source_File_Index>
363

> <chembl_id>
CHEMBL3263979

> <chembl_pref_name>
None

> <i_lp_mmshare_version>
53161

> <i_f3d_flags>
0

> <r_lp_tautomer_probability>
0.999999624730965

> <s_lp_Force_Field>
OPLS_2005

> <r_lp_Energy>
34.675531

> <b_lp_Chiralities_Consistent>
1

> <s_lp_Variant>
CHEMBL3717_lig1687-2

> <s_i_glide_gridfile>
glide-grid_3lq8

> <i_i_glide_lignum>
1945

> <i_i_glide_rotatable_bonds>
6

> <r_i_docking_score>
-7.5327502085593

> <r_i_glide_ligand_efficiency>
-0.24299194221159

> <r_i_glide_ligand_efficiency_sa>
-0.763330185076742

> <r_i_glide_ligand_efficiency_ln>
-1.69886602309985

> <r_i_glide_gscore>
-7.5327502085593

> <r_i_glide_lipo>
-4.62926003517391

> <r_i_glide_hbond>
0

> <r_i_glide_metal>
0

> <r_i_glide_rewards>
-1.32033574780222

> <r_i_glide_evdw>
-38.7186470031738

> <r_i_glide_ecoul>
-0.584018647670746

> <r_i_glide_erotb>
0.522148595939068

> <r_i_glide_esite>
-0.0817678742129445

> <r_i_glide_emodel>
-45.1687001489047

> <r_i_glide_energy>
-39.3026656508446

> <r_i_glide_einternal>
12.7958822250366

> <i_i_glide_confnum>
36

> <i_i_glide_posenum>
40

> <r_i_glide_eff_state_penalty>
0

> <s_user_duplicate_titles>
CHEMBL3717_lig1687

> <s_m_subgroup_title>
dock_pv

> <s_m_subgroupid>
dock_pv

> <b_m_subgroup_collapsed>
1

$$$$
CHEMBL3717_lig641
                    3D
 Schrodinger Suite 2021-1.
 58 61  0  0  1  0            999 V2000
   -2.9301   -0.5903   31.5715 N   0  0  0  0  0  0
   -3.8200    0.3171   30.9890 C   0  0  0  0  0  0
   -5.0507   -0.0684   30.3909 C   0  0  0  0  0  0
   -5.5079   -1.5593   30.3871 C   0  0  0  0  0  0
   -4.4888   -2.5106   29.6767 C   0  0  0  0  0  0
   -2.9793   -2.2047   29.7777 C   0  0  0  0  0  0
   -2.4486   -1.7646   31.1435 C   0  0  0  0  0  0
   -5.8557    0.9666   29.8744 C   0  0  0  0  0  0
   -5.4826    2.3073   29.9531 C   0  0  0  0  0  0
   -4.2648    2.6682   30.5167 C   0  0  0  0  0  0
   -3.4432    1.6575   31.0080 C   0  0  0  0  0  0
   -1.6873   -2.4430   31.8240 O   0  0  0  0  0  0
   -3.9287    4.0323   30.6071 N   0  0  0  0  0  0
    2.5968    3.2004   27.7972 C   0  0  0  0  0  0
    3.0069    3.5631   29.1788 C   0  0  0  0  0  0
    2.0689    3.8549   30.1975 C   0  0  0  0  0  0
    2.5442    4.2203   31.4573 C   0  0  0  0  0  0
    3.9059    4.3570   31.6573 C   0  0  0  0  0  0
    4.8298    4.1250   30.6476 C   0  0  0  0  0  0
    4.3775    3.7090   29.4128 C   0  0  0  0  0  0
    1.9060    3.9570   27.1524 O   0  0  0  0  0  0
    3.1060    2.0787   27.3035 N   0  0  0  0  0  0
    0.6837    3.7025   30.0220 N   0  0  0  0  0  0
   -2.6837    4.6785   30.6081 C   0  0  0  0  0  0
   -2.7276    6.0262   30.4575 N   0  0  0  0  0  0
   -1.5409    6.6502   30.2402 C   0  0  0  0  0  0
   -0.3264    5.9628   30.1875 C   0  0  0  0  0  0
   -0.3706    4.5654   30.3588 C   0  0  0  0  0  0
   -1.5444    3.9362   30.6080 N   0  0  0  0  0  0
    1.1060    6.8428   29.8080 Cl  0  0  0  0  0  0
    2.8441    1.5332   25.9867 C   0  0  0  0  0  0
    1.7044    4.4685   32.4912 F   0  0  0  0  0  0
   -5.7753   -2.0267   31.8461 C   0  0  0  0  0  0
   -6.8609   -1.7599   29.6438 C   0  0  0  0  0  0
   -2.5687   -0.3337   32.4762 H   0  0  0  0  0  0
   -4.7044   -2.5357   28.6080 H   0  0  0  0  0  0
   -4.6617   -3.5378   30.0035 H   0  0  0  0  0  0
   -2.7409   -1.4107   29.0678 H   0  0  0  0  0  0
   -2.4109   -3.0709   29.4347 H   0  0  0  0  0  0
   -6.8113    0.7555   29.4215 H   0  0  0  0  0  0
   -6.1522    3.0633   29.5704 H   0  0  0  0  0  0
   -2.5135    1.9049   31.4938 H   0  0  0  0  0  0
   -4.7063    4.6678   30.5127 H   0  0  0  0  0  0
    4.2442    4.7334   32.6080 H   0  0  0  0  0  0
    5.8850    4.2806   30.8189 H   0  0  0  0  0  0
    5.1032    3.5570   28.6247 H   0  0  0  0  0  0
    3.6982    1.5176   27.8977 H   0  0  0  0  0  0
    0.3895    2.7878   29.7104 H   0  0  0  0  0  0
   -1.5727    7.7207   30.0927 H   0  0  0  0  0  0
    3.1060    0.4788   25.9840 H   0  0  0  0  0  0
    3.5060    1.9570   25.2502 H   0  0  0  0  0  0
    1.8046    1.6581   25.6790 H   0  0  0  0  0  0
   -6.1917   -3.0348   31.8742 H   0  0  0  0  0  0
   -4.8829   -2.0534   32.4670 H   0  0  0  0  0  0
   -6.4880   -1.3709   32.3486 H   0  0  0  0  0  0
   -7.1551   -2.8107   29.6212 H   0  0  0  0  0  0
   -7.6783   -1.2185   30.1222 H   0  0  0  0  0  0
   -6.8053   -1.4291   28.6053 H   0  0  0  0  0  0
  1  7  1  0  0  0
  1  2  1  0  0  0
  1 35  1  0  0  0
  2 11  2  0  0  0
  2  3  1  0  0  0
  3  8  2  0  0  0
  3  4  1  0  0  0
  4  5  1  0  0  0
  4 33  1  0  0  0
  4 34  1  0  0  0
  5  6  1  0  0  0
  5 36  1  0  0  0
  5 37  1  0  0  0
  6  7  1  0  0  0
  6 38  1  0  0  0
  6 39  1  0  0  0
  7 12  2  0  0  0
  8  9  1  0  0  0
  8 40  1  0  0  0
  9 10  2  0  0  0
  9 41  1  0  0  0
 10 11  1  0  0  0
 10 13  1  0  0  0
 11 42  1  0  0  0
 13 24  1  0  0  0
 13 43  1  0  0  0
 14 15  1  0  0  0
 14 21  2  0  0  0
 14 22  1  0  0  0
 15 16  1  0  0  0
 15 20  2  0  0  0
 16 17  2  0  0  0
 16 23  1  0  0  0
 17 18  1  0  0  0
 17 32  1  0  0  0
 18 19  2  0  0  0
 18 44  1  0  0  0
 19 20  1  0  0  0
 19 45  1  0  0  0
 20 46  1  0  0  0
 22 31  1  0  0  0
 22 47  1  0  0  0
 23 28  1  0  0  0
 23 48  1  0  0  0
 24 25  1  0  0  0
 24 29  2  0  0  0
 25 26  2  0  0  0
 26 27  1  0  0  0
 26 49  1  0  0  0
 27 28  2  0  0  0
 27 30  1  0  0  0
 28 29  1  0  0  0
 31 50  1  0  0  0
 31 51  1  0  0  0
 31 52  1  0  0  0
 33 53  1  0  0  0
 33 54  1  0  0  0
 33 55  1  0  0  0
 34 56  1  0  0  0
 34 57  1  0  0  0
 34 58  1  0  0  0
M  END
> <s_m_entry_id>
10295

> <s_m_entry_name>
dock_pv.364

> <s_m_Source_Path>
/home/csk/Desktop/cluster/DUD-E-result/met

> <s_m_Source_File>
dock_pv.maegz

> <i_m_Source_File_Index>
364

> <chembl_id>
CHEMBL1644811

> <chembl_pref_name>
None

> <i_lp_mmshare_version>
53161

> <i_f3d_flags>
0

> <r_lp_tautomer_probability>
0.999999624730965

> <s_lp_Force_Field>
OPLS_2005

> <r_lp_Energy>
41.737629

> <b_lp_Chiralities_Consistent>
1

> <s_lp_Variant>
CHEMBL3717_lig641-1

> <s_i_glide_gridfile>
glide-grid_3lq8

> <i_i_glide_lignum>
699

> <i_i_glide_rotatable_bonds>
6

> <r_i_docking_score>
-7.52828070598164

> <r_i_glide_ligand_efficiency>
-0.221420020764166

> <r_i_glide_ligand_efficiency_sa>
-0.717314911463527

> <r_i_glide_ligand_efficiency_ln>
-1.66320836907264

> <r_i_glide_gscore>
-7.52828070598164

> <r_i_glide_lipo>
-3.36244876877898

> <r_i_glide_hbond>
0

> <r_i_glide_metal>
0

> <r_i_glide_rewards>
-2.21947927556606

> <r_i_glide_evdw>
-37.8118553161621

> <r_i_glide_ecoul>
-3.27262735366821

> <r_i_glide_erotb>
0.435134207221743

> <r_i_glide_esite>
0

> <r_i_glide_emodel>
-41.498290083155

> <r_i_glide_energy>
-41.0844826698303

> <r_i_glide_einternal>
14.137336730957

> <i_i_glide_confnum>
14

> <i_i_glide_posenum>
188

> <r_i_glide_eff_state_penalty>
0

> <s_user_duplicate_titles>
CHEMBL3717_lig641

> <s_m_subgroup_title>
dock_pv

> <s_m_subgroupid>
dock_pv

> <b_m_subgroup_collapsed>
1

$$$$
CHEMBL3717_lig400
                    3D
 Schrodinger Suite 2021-1.
 40 41  0  0  1  0            999 V2000
    1.4230    4.0685   30.8426 C   0  0  0  0  0  0
    1.8479    5.3360   30.4390 C   0  0  0  0  0  0
    0.9157    6.3413   30.1720 C   0  0  0  0  0  0
    0.0591    3.7787   30.9144 C   0  0  0  0  0  0
   -0.8674    4.7888   30.6471 C   0  0  0  0  0  0
   -0.4357    6.0511   30.3135 C   0  0  0  0  0  0
   -1.5313    6.8737   30.2080 N   0  0  0  0  0  0
   -2.6809    6.2318   30.4809 C   0  0  0  0  0  0
   -2.3236    4.8361   30.6317 C   0  0  0  0  0  0
   -3.7880    6.7572   30.5599 O   0  0  0  0  0  0
   -3.2539    3.8700   30.7457 C   0  0  0  0  0  0
   -3.0120    2.5263   30.8679 N   0  0  0  0  0  0
   -4.0093    1.4814   31.0073 C   0  0  0  0  0  0
   -4.2379    0.6593   29.7243 C   0  0  0  0  0  0
   -4.8871   -0.7213   29.9767 C   0  0  0  0  0  0
   -4.1324   -1.6320   30.9793 C   0  0  0  0  0  0
   -2.6467   -1.8810   30.6116 C   0  0  2  0  0  0
   -2.5168   -2.8425   29.4968 N   0  0  0  0  0  0
   -1.7442   -2.3021   31.8040 C   0  0  0  0  0  0
   -0.4940   -2.6722   31.4065 O   0  0  0  0  0  0
   -2.0937   -2.2149   32.9786 O   0  0  0  0  0  0
    2.7063    2.7568   31.3401 Br  0  0  0  0  0  0
    2.9022    5.5481   30.3669 H   0  0  0  0  0  0
    1.2472    7.3267   29.8849 H   0  0  0  0  0  0
   -0.2570    2.7921   31.2141 H   0  0  0  0  0  0
   -1.4801    7.8684   30.0515 H   0  0  0  0  0  0
   -4.3127    4.0974   30.7420 H   0  0  0  0  0  0
   -2.0683    2.1828   30.7707 H   0  0  0  0  0  0
   -4.9535    1.8540   31.4061 H   0  0  0  0  0  0
   -3.6167    0.8390   31.7940 H   0  0  0  0  0  0
   -3.2963    0.5165   29.1943 H   0  0  0  0  0  0
   -4.8544    1.2370   29.0342 H   0  0  0  0  0  0
   -4.9843   -1.2436   29.0226 H   0  0  0  0  0  0
   -5.9073   -0.5754   30.3342 H   0  0  0  0  0  0
   -4.6529   -2.5901   31.0467 H   0  0  0  0  0  0
   -4.2284   -1.2020   31.9774 H   0  0  0  0  0  0
   -2.1954   -0.9386   30.3089 H   0  0  0  0  0  0
   -1.5604   -3.1526   29.4123 H   0  0  0  0  0  0
   -3.0500   -3.6894   29.6805 H   0  0  0  0  0  0
    0.1013   -2.7907   32.1571 H   0  0  0  0  0  0
  1  2  2  0  0  0
  1 22  1  0  0  0
  1  4  1  0  0  0
  2  3  1  0  0  0
  2 23  1  0  0  0
  3  6  2  0  0  0
  3 24  1  0  0  0
  4  5  2  0  0  0
  4 25  1  0  0  0
  5  6  1  0  0  0
  5  9  1  0  0  0
  6  7  1  0  0  0
  7  8  1  0  0  0
  7 26  1  0  0  0
  8  9  1  0  0  0
  8 10  2  0  0  0
  9 11  2  0  0  0
 11 12  1  0  0  0
 11 27  1  0  0  0
 12 13  1  0  0  0
 12 28  1  0  0  0
 13 14  1  0  0  0
 13 29  1  0  0  0
 13 30  1  0  0  0
 14 15  1  0  0  0
 14 31  1  0  0  0
 14 32  1  0  0  0
 15 16  1  0  0  0
 15 33  1  0  0  0
 15 34  1  0  0  0
 16 17  1  0  0  0
 16 35  1  0  0  0
 16 36  1  0  0  0
 17 18  1  0  0  0
 17 19  1  0  0  0
 17 37  1  0  0  0
 18 38  1  0  0  0
 18 39  1  0  0  0
 19 20  1  0  0  0
 19 21  2  0  0  0
 20 40  1  0  0  0
M  END
> <s_m_entry_id>
10296

> <s_m_entry_name>
dock_pv.365

> <s_m_Source_Path>
/home/csk/Desktop/cluster/DUD-E-result/met

> <s_m_Source_File>
dock_pv.maegz

> <i_m_Source_File_Index>
365

> <chembl_id>
CHEMBL458441

> <chembl_pref_name>
None

> <i_lp_mmshare_version>
53161

> <i_f3d_flags>
0

> <r_lp_tautomer_probability>
0.499999999999422

> <s_lp_Force_Field>
OPLS_2005

> <r_lp_Energy>
25.449048

> <b_lp_Chiralities_Consistent>
1

> <s_lp_Variant>
CHEMBL3717_lig400-2

> <s_i_glide_gridfile>
glide-grid_3lq8

> <i_i_glide_lignum>
422

> <i_i_glide_rotatable_bonds>
8

> <r_i_docking_score>
-7.52665258741444

> <r_i_glide_ligand_efficiency>
-0.342120572155202

> <r_i_glide_ligand_efficiency_sa>
-0.958635298017473

> <r_i_glide_ligand_efficiency_ln>
-1.83978843368781

> <r_i_glide_gscore>
-7.52665258741444

> <r_i_glide_lipo>
-2.6559592806848

> <r_i_glide_hbond>
-0.336977605894194

> <r_i_glide_metal>
0

> <r_i_glide_rewards>
-2.69879476057075

> <r_i_glide_evdw>
-37.4906730651855

> <r_i_glide_ecoul>
-6.36728858947754

> <r_i_glide_erotb>
0.994706001416211

> <r_i_glide_esite>
0

> <r_i_glide_emodel>
-60.6804630957659

> <r_i_glide_energy>
-43.8579616546631

> <r_i_glide_einternal>
6.66605138778687

> <i_i_glide_confnum>
102

> <i_i_glide_posenum>
174

> <r_i_glide_eff_state_penalty>
0

> <s_user_duplicate_titles>
CHEMBL3717_lig400

> <s_m_subgroup_title>
dock_pv

> <s_m_subgroupid>
dock_pv

> <b_m_subgroup_collapsed>
1

$$$$
CHEMBL3717_lig930
                    3D
 Schrodinger Suite 2021-1.
 38 40  0  0  1  0            999 V2000
    0.9584    3.6068   30.7808 C   0  0  0  0  0  0
    1.6094    4.8053   30.4731 C   0  0  0  0  0  0
    0.8692    5.9701   30.2557 C   0  0  0  0  0  0
   -0.5200    5.9101   30.3538 C   0  0  0  0  0  0
   -1.1759    4.7305   30.6463 C   0  0  0  0  0  0
   -0.4369    3.5677   30.8609 C   0  0  0  0  0  0
   -2.6004    5.0018   30.6077 C   0  0  0  0  0  0
   -2.6855    6.4658   30.4982 C   0  0  0  0  0  0
   -1.4515    6.9069   30.2081 N   0  0  0  0  0  0
   -3.6937    7.1570   30.6079 O   0  0  0  0  0  0
   -3.5607    4.1438   30.6084 N   0  0  0  0  0  0
   -4.8394    4.6056   30.6078 N   0  0  0  0  0  0
   -5.9226    3.8157   30.4976 C   0  0  0  0  0  0
   -5.7856    2.3578   30.0169 C   0  0  0  0  0  0
   -5.7269    1.3329   31.1656 C   0  0  0  0  0  0
   -5.5961   -0.1039   30.6790 C   0  0  0  0  0  0
   -4.4362   -0.8371   30.9514 C   0  0  0  0  0  0
   -4.3309   -2.1588   30.5232 C   0  0  0  0  0  0
   -5.3825   -2.7413   29.8194 C   0  0  0  0  0  0
   -6.5364   -2.0137   29.5398 C   0  0  0  0  0  0
   -6.6461   -0.6952   29.9715 C   0  0  0  0  0  0
   -5.2940   -4.0433   29.4081 O   0  0  0  0  0  0
   -7.0420    4.2606   30.7390 O   0  0  0  0  0  0
    1.5335    2.7080   30.9481 H   0  0  0  0  0  0
    2.6869    4.8328   30.4057 H   0  0  0  0  0  0
    1.3770    6.8941   30.0222 H   0  0  0  0  0  0
   -0.9518    2.6547   31.1002 H   0  0  0  0  0  0
   -1.2329    7.8795   30.0501 H   0  0  0  0  0  0
   -4.9385    5.5997   30.7766 H   0  0  0  0  0  0
   -4.9158    2.2467   29.3680 H   0  0  0  0  0  0
   -6.6461    2.1391   29.3851 H   0  0  0  0  0  0
   -6.6172    1.4012   31.7943 H   0  0  0  0  0  0
   -4.8790    1.5562   31.8077 H   0  0  0  0  0  0
   -3.6186   -0.3911   31.4983 H   0  0  0  0  0  0
   -3.4379   -2.7287   30.7361 H   0  0  0  0  0  0
   -7.3466   -2.4751   28.9955 H   0  0  0  0  0  0
   -7.5470   -0.1383   29.7586 H   0  0  0  0  0  0
   -4.5846   -4.5425   29.8501 H   0  0  0  0  0  0
  1  2  1  0  0  0
  1  6  2  0  0  0
  1 24  1  0  0  0
  2  3  2  0  0  0
  2 25  1  0  0  0
  3  4  1  0  0  0
  3 26  1  0  0  0
  4  5  2  0  0  0
  4  9  1  0  0  0
  5  6  1  0  0  0
  5  7  1  0  0  0
  6 27  1  0  0  0
  7  8  1  0  0  0
  7 11  2  0  0  0
  8  9  1  0  0  0
  8 10  2  0  0  0
  9 28  1  0  0  0
 11 12  1  0  0  0
 12 13  1  0  0  0
 12 29  1  0  0  0
 13 14  1  0  0  0
 13 23  2  0  0  0
 14 15  1  0  0  0
 14 30  1  0  0  0
 14 31  1  0  0  0
 15 16  1  0  0  0
 15 32  1  0  0  0
 15 33  1  0  0  0
 16 17  2  0  0  0
 16 21  1  0  0  0
 17 18  1  0  0  0
 17 34  1  0  0  0
 18 19  2  0  0  0
 18 35  1  0  0  0
 19 20  1  0  0  0
 19 22  1  0  0  0
 20 21  2  0  0  0
 20 36  1  0  0  0
 21 37  1  0  0  0
 22 38  1  0  0  0
M  END
> <s_m_entry_id>
10297

> <s_m_entry_name>
dock_pv.366

> <s_m_Source_Path>
/home/csk/Desktop/cluster/DUD-E-result/met

> <s_m_Source_File>
dock_pv.maegz

> <i_m_Source_File_Index>
366

> <chembl_id>
CHEMBL1822580

> <chembl_pref_name>
None

> <i_lp_mmshare_version>
53161

> <i_f3d_flags>
0

> <r_lp_tautomer_probability>
0.999999999997365

> <s_lp_Force_Field>
OPLS_2005

> <r_lp_Energy>
36.909202

> <b_lp_Chiralities_Consistent>
1

> <s_lp_Variant>
CHEMBL3717_lig930-1

> <s_i_glide_gridfile>
glide-grid_3lq8

> <i_i_glide_lignum>
1017

> <i_i_glide_rotatable_bonds>
6

> <r_i_docking_score>
-7.5210203811164

> <r_i_glide_ligand_efficiency>
-0.327000886135496

> <r_i_glide_ligand_efficiency_sa>
-0.92994702149099

> <r_i_glide_ligand_efficiency_ln>
-1.8186509249963

> <r_i_glide_gscore>
-7.5210203811164

> <r_i_glide_lipo>
-1.956900331122

> <r_i_glide_hbond>
-0.456

> <r_i_glide_metal>
0

> <r_i_glide_rewards>
-3.34007265603243

> <r_i_glide_evdw>
-33.0532493591309

> <r_i_glide_ecoul>
-7.21946859359741

> <r_i_glide_erotb>
0.967535363034184

> <r_i_glide_esite>
0

> <r_i_glide_emodel>
-53.6911220739643

> <r_i_glide_energy>
-40.2727179527283

> <r_i_glide_einternal>
6.67445707321167

> <i_i_glide_confnum>
69

> <i_i_glide_posenum>
359

> <r_i_glide_eff_state_penalty>
0

> <s_user_duplicate_titles>
CHEMBL3717_lig930

> <s_m_subgroup_title>
dock_pv

> <s_m_subgroupid>
dock_pv

> <b_m_subgroup_collapsed>
1

$$$$
CHEMBL3717_lig222
                    3D
 Schrodinger Suite 2021-1.
 56 58  0  0  1  0            999 V2000
   -7.1456    0.3247   27.5952 C   0  0  0  0  0  0
   -7.1824   -0.8451   28.5962 C   0  0  0  0  0  0
   -8.5378   -1.3533   28.8484 N   0  0  0  0  0  0
   -8.4548   -2.6349   29.5637 C   0  0  0  0  0  0
   -9.8072   -3.3633   29.6745 C   0  0  0  0  0  0
   -9.4422   -0.3493   29.4506 C   0  0  0  0  0  0
   -9.0937    0.1515   30.8819 C   0  0  0  0  0  0
   -7.9966    1.1219   30.9425 N   0  0  0  0  0  0
   -8.0378    2.3681   30.4453 C   0  0  0  0  0  0
   -9.0574    2.8438   29.9449 O   0  0  0  0  0  0
   -6.7950    3.1245   30.5035 C   0  0  0  0  0  0
   -6.7263    4.5081   30.3158 C   0  0  0  0  0  0
   -7.7731    5.5595   30.0431 C   0  0  0  0  0  0
   -5.4147    4.8652   30.3973 N   0  0  0  0  0  0
   -4.6165    3.7756   30.5861 C   0  0  0  0  0  0
   -3.1605    3.8849   30.6774 C   0  0  0  0  0  0
   -2.2677    4.9017   30.6079 C   0  0  0  0  0  0
   -2.5509    6.3243   30.4550 C   0  0  0  0  0  0
   -3.6205    6.9262   30.5124 O   0  0  0  0  0  0
   -1.3651    6.9103   30.2080 N   0  0  0  0  0  0
   -0.3118    6.0320   30.3144 C   0  0  0  0  0  0
    1.0571    6.2355   30.1598 C   0  0  0  0  0  0
    1.9232    5.1572   30.3654 C   0  0  0  0  0  0
    1.4229    3.9070   30.7290 C   0  0  0  0  0  0
    2.2708    2.8782   30.9573 F   0  0  0  0  0  0
    0.0457    3.7236   30.8523 C   0  0  0  0  0  0
   -0.8173    4.7965   30.6314 C   0  0  0  0  0  0
   -5.4487    2.6490   30.6079 C   0  0  0  0  0  0
   -4.9472    1.2254   30.8191 C   0  0  0  0  0  0
   -6.1329    0.7140   27.4971 H   0  0  0  0  0  0
   -7.4804    0.0108   26.6080 H   0  0  0  0  0  0
   -7.7727    1.1569   27.9005 H   0  0  0  0  0  0
   -6.7175   -0.5587   29.5369 H   0  0  0  0  0  0
   -6.5513   -1.6431   28.2053 H   0  0  0  0  0  0
   -7.7861   -3.2953   29.0068 H   0  0  0  0  0  0
   -8.0054   -2.5082   30.5506 H   0  0  0  0  0  0
   -9.6625   -4.3744   30.0586 H   0  0  0  0  0  0
  -10.4909   -2.8556   30.3573 H   0  0  0  0  0  0
  -10.2951   -3.4462   28.7027 H   0  0  0  0  0  0
  -10.4113   -0.8432   29.5136 H   0  0  0  0  0  0
   -9.6305    0.4824   28.7741 H   0  0  0  0  0  0
   -8.8200   -0.6885   31.5197 H   0  0  0  0  0  0
   -9.9860    0.5740   31.3465 H   0  0  0  0  0  0
   -7.1465    0.8169   31.3918 H   0  0  0  0  0  0
   -8.0942    5.5102   29.0063 H   0  0  0  0  0  0
   -8.6657    5.4319   30.6549 H   0  0  0  0  0  0
   -7.4079    6.5728   30.2078 H   0  0  0  0  0  0
   -5.0690    5.8152   30.3060 H   0  0  0  0  0  0
   -2.7122    2.9130   30.8035 H   0  0  0  0  0  0
   -1.2626    7.9030   30.0601 H   0  0  0  0  0  0
    1.4551    7.1989   29.8822 H   0  0  0  0  0  0
    2.9892    5.2827   30.2543 H   0  0  0  0  0  0
   -0.3393    2.7569   31.1210 H   0  0  0  0  0  0
   -5.5738    0.6389   31.4887 H   0  0  0  0  0  0
   -4.8696    0.6814   29.8781 H   0  0  0  0  0  0
   -3.9684    1.1904   31.2940 H   0  0  0  0  0  0
  1  2  1  0  0  0
  1 30  1  0  0  0
  1 31  1  0  0  0
  1 32  1  0  0  0
  2  3  1  0  0  0
  2 33  1  0  0  0
  2 34  1  0  0  0
  3  4  1  0  0  0
  3  6  1  0  0  0
  4  5  1  0  0  0
  4 35  1  0  0  0
  4 36  1  0  0  0
  5 37  1  0  0  0
  5 38  1  0  0  0
  5 39  1  0  0  0
  6  7  1  0  0  0
  6 40  1  0  0  0
  6 41  1  0  0  0
  7  8  1  0  0  0
  7 42  1  0  0  0
  7 43  1  0  0  0
  8  9  1  0  0  0
  8 44  1  0  0  0
  9 10  2  0  0  0
  9 11  1  0  0  0
 11 12  2  0  0  0
 11 28  1  0  0  0
 12 13  1  0  0  0
 12 14  1  0  0  0
 13 45  1  0  0  0
 13 46  1  0  0  0
 13 47  1  0  0  0
 14 15  1  0  0  0
 14 48  1  0  0  0
 15 16  1  0  0  0
 15 28  2  0  0  0
 16 17  2  0  0  0
 16 49  1  0  0  0
 17 18  1  0  0  0
 17 27  1  0  0  0
 18 19  2  0  0  0
 18 20  1  0  0  0
 20 21  1  0  0  0
 20 50  1  0  0  0
 21 22  2  0  0  0
 21 27  1  0  0  0
 22 23  1  0  0  0
 22 51  1  0  0  0
 23 24  2  0  0  0
 23 52  1  0  0  0
 24 25  1  0  0  0
 24 26  1  0  0  0
 26 27  2  0  0  0
 26 53  1  0  0  0
 28 29  1  0  0  0
 29 54  1  0  0  0
 29 55  1  0  0  0
 29 56  1  0  0  0
M  END
> <s_m_entry_id>
10298

> <s_m_entry_name>
dock_pv.367

> <s_m_Source_Path>
/home/csk/Desktop/cluster/DUD-E-result/met

> <s_m_Source_File>
dock_pv.maegz

> <i_m_Source_File_Index>
367

> <chembl_id>
CHEMBL535

> <chembl_pref_name>
SUNITINIB

> <i_lp_mmshare_version>
53161

> <i_f3d_flags>
0

> <r_lp_tautomer_probability>
1

> <s_lp_Force_Field>
OPLS_2005

> <r_lp_Energy>
39.004723

> <b_lp_Chiralities_Consistent>
1

> <s_lp_Variant>
CHEMBL3717_lig222-1

> <s_i_glide_gridfile>
glide-grid_3lq8

> <i_i_glide_lignum>
233

> <i_i_glide_rotatable_bonds>
8

> <r_i_docking_score>
-7.51914523781804

> <r_i_glide_ligand_efficiency>
-0.259280870269587

> <r_i_glide_ligand_efficiency_sa>
-0.796592979413601

> <r_i_glide_ligand_efficiency_ln>
-1.72169359038848

> <r_i_glide_gscore>
-7.51914523781804

> <r_i_glide_lipo>
-2.77185386955697

> <r_i_glide_hbond>
-0.32

> <r_i_glide_metal>
0

> <r_i_glide_rewards>
-2.79620092916562

> <r_i_glide_evdw>
-38.3204689025879

> <r_i_glide_ecoul>
-3.03427457809448

> <r_i_glide_erotb>
0.740074192748125

> <r_i_glide_esite>
0

> <r_i_glide_emodel>
-55.262449487811

> <r_i_glide_energy>
-41.3547434806824

> <r_i_glide_einternal>
3.6101245880127

> <i_i_glide_confnum>
8

> <i_i_glide_posenum>
103

> <r_i_glide_eff_state_penalty>
0

> <s_user_duplicate_titles>
CHEMBL3717_lig222,CHEMBL3717_lig3700

> <s_m_subgroup_title>
dock_pv

> <s_m_subgroupid>
dock_pv

> <b_m_subgroup_collapsed>
1

$$$$
CHEMBL3717_lig2974
                    3D
 Schrodinger Suite 2021-1.
 38 42  0  0  1  0            999 V2000
   -3.1455    6.5212   30.6075 N   0  0  0  0  0  0
   -4.0986    5.5087   30.6440 N   0  0  0  0  0  0
   -3.4839    4.3447   30.6081 C   0  0  0  0  0  0
   -1.9847    5.9162   30.5114 C   0  0  0  0  0  0
   -2.1173    4.5493   30.6081 N   0  0  0  0  0  0
   -0.9329    3.8348   30.5895 C   0  0  0  0  0  0
    0.1447    4.6534   30.3213 C   0  0  0  0  0  0
   -0.3133    6.3570   30.2081 S   0  0  0  0  0  0
   -4.1043    2.9630   30.5297 C   0  0  0  0  0  0
   -5.5250    3.0508   30.4534 O   0  0  0  0  0  0
   -6.2403    1.9388   30.0534 C   0  0  0  0  0  0
   -5.6747    0.6548   29.8577 C   0  0  0  0  0  0
   -6.4488   -0.4155   29.3906 C   0  0  0  0  0  0
   -7.6080    2.1317   29.8078 C   0  0  0  0  0  0
   -8.3530    1.0537   29.3417 C   0  0  0  0  0  0
   -7.7921   -0.1736   29.1351 C   0  0  0  0  0  0
   -8.7269   -1.0199   28.6297 O   0  0  0  0  0  0
   -9.9463   -0.3327   28.7201 C   0  0  0  0  0  0
   -9.6604    1.0175   28.9748 O   0  0  0  0  0  0
    1.5455    4.2766   30.0284 C   0  0  0  0  0  0
    1.8750    3.8534   28.7364 C   0  0  0  0  0  0
    3.2000    3.5674   28.4085 C   0  0  0  0  0  0
    4.2023    3.7199   29.3660 C   0  0  0  0  0  0
    3.8707    4.0986   30.6658 C   0  0  0  0  0  0
    2.5422    4.3571   31.0052 C   0  0  0  0  0  0
    2.2273    4.6947   32.2768 F   0  0  0  0  0  0
   -0.9353    2.7571   30.6540 H   0  0  0  0  0  0
   -3.8255    2.3811   31.4079 H   0  0  0  0  0  0
   -3.7004    2.4525   29.6543 H   0  0  0  0  0  0
   -4.6300    0.4664   30.0490 H   0  0  0  0  0  0
   -6.0030   -1.3837   29.2137 H   0  0  0  0  0  0
   -8.0535    3.1052   29.9454 H   0  0  0  0  0  0
  -10.5232   -0.7402   29.5523 H   0  0  0  0  0  0
  -10.5089   -0.4343   27.7914 H   0  0  0  0  0  0
    1.1062    3.7625   27.9815 H   0  0  0  0  0  0
    3.4521    3.2493   27.4080 H   0  0  0  0  0  0
    5.2345    3.5440   29.1012 H   0  0  0  0  0  0
    4.6457    4.2059   31.4079 H   0  0  0  0  0  0
  1  2  1  0  0  0
  1  4  2  0  0  0
  2  3  2  0  0  0
  3  5  1  0  0  0
  3  9  1  0  0  0
  4  5  1  0  0  0
  4  8  1  0  0  0
  5  6  1  0  0  0
  6  7  2  0  0  0
  6 27  1  0  0  0
  7  8  1  0  0  0
  7 20  1  0  0  0
  9 10  1  0  0  0
  9 28  1  0  0  0
  9 29  1  0  0  0
 10 11  1  0  0  0
 11 12  2  0  0  0
 11 14  1  0  0  0
 12 13  1  0  0  0
 12 30  1  0  0  0
 13 16  2  0  0  0
 13 31  1  0  0  0
 14 15  2  0  0  0
 14 32  1  0  0  0
 15 16  1  0  0  0
 15 19  1  0  0  0
 16 17  1  0  0  0
 17 18  1  0  0  0
 18 19  1  0  0  0
 18 33  1  0  0  0
 18 34  1  0  0  0
 20 21  2  0  0  0
 20 25  1  0  0  0
 21 22  1  0  0  0
 21 35  1  0  0  0
 22 23  2  0  0  0
 22 36  1  0  0  0
 23 24  1  0  0  0
 23 37  1  0  0  0
 24 25  2  0  0  0
 24 38  1  0  0  0
 25 26  1  0  0  0
M  END
> <s_m_entry_id>
10299

> <s_m_entry_name>
dock_pv.368

> <s_m_Source_Path>
/home/csk/Desktop/cluster/DUD-E-result/met

> <s_m_Source_File>
dock_pv.maegz

> <i_m_Source_File_Index>
368

> <chembl_id>
CHEMBL4173269

> <chembl_pref_name>
None

> <i_lp_mmshare_version>
53161

> <i_f3d_flags>
0

> <r_lp_tautomer_probability>
1

> <s_lp_Force_Field>
OPLS_2005

> <r_lp_Energy>
42.670587

> <b_lp_Chiralities_Consistent>
1

> <s_lp_Variant>
CHEMBL3717_lig2974-1

> <s_i_glide_gridfile>
glide-grid_3lq8

> <i_i_glide_lignum>
3651

> <i_i_glide_rotatable_bonds>
4

> <r_i_docking_score>
-7.51859609434664

> <r_i_glide_ligand_efficiency>
-0.289176772859486

> <r_i_glide_ligand_efficiency_sa>
-0.856685051740572

> <r_i_glide_ligand_efficiency_ln>
-1.7657176222313

> <r_i_glide_gscore>
-7.51859609434664

> <r_i_glide_lipo>
-3.07388097661104

> <r_i_glide_hbond>
0

> <r_i_glide_metal>
0

> <r_i_glide_rewards>
-2.77451876665228

> <r_i_glide_evdw>
-40.9921798706055

> <r_i_glide_ecoul>
-1.23897933959961

> <r_i_glide_erotb>
0.56525954338689

> <r_i_glide_esite>
0

> <r_i_glide_emodel>
-54.5506531004978

> <r_i_glide_energy>
-42.2311592102051

> <r_i_glide_einternal>
6.16147041320801

> <i_i_glide_confnum>
38

> <i_i_glide_posenum>
163

> <r_i_glide_eff_state_penalty>
0

> <s_user_duplicate_titles>
CHEMBL3717_lig2974

> <s_m_subgroup_title>
dock_pv

> <s_m_subgroupid>
dock_pv

> <b_m_subgroup_collapsed>
1

$$$$
CHEMBL3717_lig1210
                    3D
 Schrodinger Suite 2021-1.
 48 52  0  0  1  0            999 V2000
   -5.9169    5.0013   30.6080 N   0  0  0  0  0  0
   -4.6603    5.5111   30.6123 C   0  0  0  0  0  0
   -3.5145    4.7126   30.6082 C   0  0  0  0  0  0
   -3.6927    3.3269   30.5863 C   0  0  0  0  0  0
   -4.9747    2.7667   30.5323 C   0  0  0  0  0  0
   -6.0661    3.6550   30.5585 C   0  0  0  0  0  0
   -2.1409    5.2822   30.6123 C   0  0  0  0  0  0
   -0.9524    4.6542   30.9615 C   0  0  0  0  0  0
    0.0537    5.5571   30.7326 N   0  0  0  0  0  0
   -0.4191    6.6992   30.2080 N   0  0  0  0  0  0
   -1.7214    6.5565   30.2080 C   0  0  0  0  0  0
    1.5060    5.3574   30.7680 C   0  0  0  0  0  0
    2.0341    4.3887   31.8521 C   0  0  0  0  0  0
    2.0643    2.9127   31.4102 C   0  0  0  0  0  0
    2.6858    2.7570   30.0975 N   0  0  2  0  0  0
    1.9913    3.5083   29.0580 C   0  0  0  0  0  0
    2.0738    5.0019   29.3846 C   0  0  0  0  0  0
   -5.0711    1.2769   30.4173 C   0  0  0  0  0  0
   -3.9956    0.6269   29.8724 O   0  0  0  0  0  0
   -6.0926    0.5054   30.7377 N   0  0  0  0  0  0
   -7.3810    3.2062   30.5027 N   0  0  0  0  0  0
   -5.6924   -0.7412   30.3421 C   0  0  0  0  0  0
   -4.3964   -0.6679   29.8083 C   0  0  0  0  0  0
   -3.7129   -1.7650   29.2810 C   0  0  0  0  0  0
   -4.4198   -2.9653   29.2384 C   0  0  0  0  0  0
   -5.6941   -3.0819   29.8080 C   0  0  0  0  0  0
   -6.3504   -1.9800   30.3744 C   0  0  0  0  0  0
   -3.8594   -4.0430   28.6080 O   0  0  0  0  0  0
   -4.5908    6.5884   30.6234 H   0  0  0  0  0  0
   -2.8262    2.6815   30.5765 H   0  0  0  0  0  0
   -0.7416    3.6566   31.3105 H   0  0  0  0  0  0
   -2.3554    7.3496   29.8497 H   0  0  0  0  0  0
    1.8709    6.3570   31.0080 H   0  0  0  0  0  0
    1.4644    4.5058   32.7745 H   0  0  0  0  0  0
    3.0410    4.6823   32.1517 H   0  0  0  0  0  0
    1.0663    2.4777   31.4042 H   0  0  0  0  0  0
    2.6493    2.3324   32.1251 H   0  0  0  0  0  0
    2.6575    1.7780   29.8419 H   0  0  0  0  0  0
    0.9517    3.1792   28.9998 H   0  0  0  0  0  0
    2.4539    3.3005   28.0921 H   0  0  0  0  0  0
    3.1073    5.3406   29.3044 H   0  0  0  0  0  0
    1.5572    5.5647   28.6079 H   0  0  0  0  0  0
   -7.5536    2.2099   30.4865 H   0  0  0  0  0  0
   -8.1297    3.8818   30.4790 H   0  0  0  0  0  0
   -2.7352   -1.6688   28.8363 H   0  0  0  0  0  0
   -6.1944   -4.0391   29.7816 H   0  0  0  0  0  0
   -7.3442   -2.0719   30.7869 H   0  0  0  0  0  0
   -3.6939   -4.7518   29.2547 H   0  0  0  0  0  0
  1  2  2  0  0  0
  1  6  1  0  0  0
  2  3  1  0  0  0
  2 29  1  0  0  0
  3  4  2  0  0  0
  3  7  1  0  0  0
  4  5  1  0  0  0
  4 30  1  0  0  0
  5 18  1  0  0  0
  5  6  2  0  0  0
  6 21  1  0  0  0
  7 11  1  0  0  0
  7  8  2  0  0  0
  8  9  1  0  0  0
  8 31  1  0  0  0
  9 12  1  0  0  0
  9 10  1  0  0  0
 10 11  2  0  0  0
 11 32  1  0  0  0
 12 17  1  0  0  0
 12 13  1  0  0  0
 12 33  1  0  0  0
 13 14  1  0  0  0
 13 34  1  0  0  0
 13 35  1  0  0  0
 14 15  1  0  0  0
 14 36  1  0  0  0
 14 37  1  0  0  0
 15 16  1  0  0  0
 15 38  1  0  0  0
 16 17  1  0  0  0
 16 39  1  0  0  0
 16 40  1  0  0  0
 17 41  1  0  0  0
 17 42  1  0  0  0
 18 19  1  0  0  0
 18 20  2  0  0  0
 19 23  1  0  0  0
 20 22  1  0  0  0
 21 43  1  0  0  0
 21 44  1  0  0  0
 22 23  2  0  0  0
 22 27  1  0  0  0
 23 24  1  0  0  0
 24 25  2  0  0  0
 24 45  1  0  0  0
 25 26  1  0  0  0
 25 28  1  0  0  0
 26 27  2  0  0  0
 26 46  1  0  0  0
 27 47  1  0  0  0
 28 48  1  0  0  0
M  END
> <s_m_entry_id>
10300

> <s_m_entry_name>
dock_pv.369

> <s_m_Source_Path>
/home/csk/Desktop/cluster/DUD-E-result/met

> <s_m_Source_File>
dock_pv.maegz

> <i_m_Source_File_Index>
369

> <chembl_id>
CHEMBL2032274

> <chembl_pref_name>
None

> <i_lp_mmshare_version>
53161

> <i_f3d_flags>
0

> <r_lp_tautomer_probability>
0.999999772200052

> <s_lp_Force_Field>
OPLS_2005

> <r_lp_Energy>
28.775607

> <b_lp_Chiralities_Consistent>
1

> <s_lp_Variant>
CHEMBL3717_lig1210-1

> <s_i_glide_gridfile>
glide-grid_3lq8

> <i_i_glide_lignum>
1386

> <i_i_glide_rotatable_bonds>
4

> <r_i_docking_score>
-7.51843476785084

> <r_i_glide_ligand_efficiency>
-0.268515527423244

> <r_i_glide_ligand_efficiency_sa>
-0.81537128844514

> <r_i_glide_ligand_efficiency_ln>
-1.73547549525698

> <r_i_glide_gscore>
-7.51843476785084

> <r_i_glide_lipo>
-3.42029266000222

> <r_i_glide_hbond>
-0.16

> <r_i_glide_metal>
0

> <r_i_glide_rewards>
-1.60931348484848

> <r_i_glide_evdw>
-42.9179229736328

> <r_i_glide_ecoul>
-3.95198798179626

> <r_i_glide_erotb>
0.409865722950944

> <r_i_glide_esite>
0

> <r_i_glide_emodel>
-58.9921533609677

> <r_i_glide_energy>
-46.8699109554291

> <r_i_glide_einternal>
9.42167472839355

> <i_i_glide_confnum>
5

> <i_i_glide_posenum>
45

> <r_i_glide_eff_state_penalty>
0

> <s_user_duplicate_titles>
CHEMBL3717_lig1210

> <s_m_subgroup_title>
dock_pv

> <s_m_subgroupid>
dock_pv

> <b_m_subgroup_collapsed>
1

$$$$
CHEMBL3717_lig3384 
                    3D
 Schrodinger Suite 2021-1.
 54 58  0  0  1  0            999 V2000
   -1.6746    5.5984   30.6765 C   0  0  0  0  0  0
   -1.1302    4.3056   30.6465 C   0  0  0  0  0  0
   -1.9199    3.1891   30.6179 N   0  0  0  0  0  0
   -3.0143    5.8402   30.6583 N   0  0  0  0  0  0
   -3.7956    4.7549   30.6183 C   0  0  0  0  0  0
   -3.2389    3.4483   30.6072 C   0  0  0  0  0  0
   -4.3286    2.5913   30.5300 N   0  0  0  0  0  0
   -5.4318    3.4303   30.5442 C   0  0  0  0  0  0
   -5.1598    4.7120   30.6034 N   0  0  0  0  0  0
   -4.2760    1.1250   30.3732 C   0  0  2  0  0  0
   -3.9416    0.7392   28.9126 C   0  0  0  0  0  0
   -5.4491    0.2898   30.9164 C   0  0  0  0  0  0
   -6.7298    0.3402   30.3432 C   0  0  0  0  0  0
   -7.7528   -0.4886   30.7942 C   0  0  0  0  0  0
   -5.1901   -0.6466   31.9225 C   0  0  0  0  0  0
   -6.2005   -1.5280   32.3734 C   0  0  0  0  0  0
   -7.5096   -1.4360   31.8119 C   0  0  0  0  0  0
   -8.5280   -2.2449   32.2184 N   0  0  0  0  0  0
   -8.2715   -3.1643   33.1815 C   0  0  0  0  0  0
   -7.0224   -3.3294   33.7739 C   0  0  0  0  0  0
   -5.9715   -2.5089   33.3703 C   0  0  0  0  0  0
   -3.3016   -0.6601   28.8250 C   0  0  0  0  0  0
    0.3411    4.1023   30.6028 C   0  0  0  0  0  0
    1.1422    4.4945   31.6806 C   0  0  0  0  0  0
    2.5277    4.3602   31.6278 C   0  0  0  0  0  0
    3.1470    3.8695   30.4751 C   0  0  0  0  0  0
    2.3567    3.4730   29.3877 C   0  0  0  0  0  0
    0.9658    3.5804   29.4620 C   0  0  0  0  0  0
    4.6400    3.7703   30.4205 C   0  0  0  0  0  0
    5.3052    4.9199   30.2608 N   0  0  0  0  0  0
    5.1965    2.6902   30.6016 O   0  0  0  0  0  0
    6.7611    4.9918   30.3106 C   0  0  0  0  0  0
    2.9215    2.9969   28.2517 F   0  0  0  0  0  0
   -6.9942    1.1720   29.3112 F   0  0  0  0  0  0
   -1.0334    6.4665   30.6884 H   0  0  0  0  0  0
   -6.4290    3.0266   30.5113 H   0  0  0  0  0  0
   -3.4014    0.8516   30.9683 H   0  0  0  0  0  0
   -4.8340    0.7528   28.2871 H   0  0  0  0  0  0
   -3.2945    1.4802   28.4522 H   0  0  0  0  0  0
   -8.7332   -0.4295   30.3441 H   0  0  0  0  0  0
   -4.2030   -0.7316   32.3550 H   0  0  0  0  0  0
   -9.1045   -3.7855   33.4769 H   0  0  0  0  0  0
   -6.8710   -4.0823   34.5331 H   0  0  0  0  0  0
   -4.9899   -2.6133   33.8092 H   0  0  0  0  0  0
   -2.8739   -0.8327   27.8374 H   0  0  0  0  0  0
   -2.4954   -0.8003   29.5459 H   0  0  0  0  0  0
   -4.0345   -1.4470   29.0042 H   0  0  0  0  0  0
    0.7002    4.9045   32.5752 H   0  0  0  0  0  0
    3.1118    4.6522   32.4910 H   0  0  0  0  0  0
    0.3714    3.2699   28.6139 H   0  0  0  0  0  0
    4.7955    5.7710   30.0661 H   0  0  0  0  0  0
    7.0948    5.9843   30.6098 H   0  0  0  0  0  0
    7.1842    4.2870   31.0284 H   0  0  0  0  0  0
    7.1709    4.7496   29.3295 H   0  0  0  0  0  0
  1  2  2  0  0  0
  1  4  1  0  0  0
  1 35  1  0  0  0
  2  3  1  0  0  0
  2 23  1  0  0  0
  3  6  2  0  0  0
  4  5  2  0  0  0
  5  6  1  0  0  0
  5  9  1  0  0  0
  6  7  1  0  0  0
  7  8  1  0  0  0
  7 10  1  0  0  0
  8  9  2  0  0  0
  8 36  1  0  0  0
 10 11  1  0  0  0
 10 12  1  0  0  0
 10 37  1  0  0  0
 11 22  1  0  0  0
 11 38  1  0  0  0
 11 39  1  0  0  0
 12 13  2  0  0  0
 12 15  1  0  0  0
 13 14  1  0  0  0
 13 34  1  0  0  0
 14 17  2  0  0  0
 14 40  1  0  0  0
 15 16  2  0  0  0
 15 41  1  0  0  0
 16 17  1  0  0  0
 16 21  1  0  0  0
 17 18  1  0  0  0
 18 19  2  0  0  0
 19 20  1  0  0  0
 19 42  1  0  0  0
 20 21  2  0  0  0
 20 43  1  0  0  0
 21 44  1  0  0  0
 22 45  1  0  0  0
 22 46  1  0  0  0
 22 47  1  0  0  0
 23 24  2  0  0  0
 23 28  1  0  0  0
 24 25  1  0  0  0
 24 48  1  0  0  0
 25 26  2  0  0  0
 25 49  1  0  0  0
 26 27  1  0  0  0
 26 29  1  0  0  0
 27 28  2  0  0  0
 27 33  1  0  0  0
 28 50  1  0  0  0
 29 30  1  0  0  0
 29 31  2  0  0  0
 30 32  1  0  0  0
 30 51  1  0  0  0
 32 52  1  0  0  0
 32 53  1  0  0  0
 32 54  1  0  0  0
M  END
> <s_m_entry_id>
10301

> <s_m_entry_name>
dock_pv.370

> <s_m_Source_Path>
/home/csk/Desktop/cluster/DUD-E-result/met

> <s_m_Source_File>
dock_pv.maegz

> <i_m_Source_File_Index>
370

> <chembl_id>
CHEMBL4563384

> <chembl_pref_name>
None

> <i_lp_mmshare_version>
53161

> <i_f3d_flags>
0

> <r_lp_tautomer_probability>
1

> <s_lp_Force_Field>
OPLS_2005

> <r_lp_Energy>
38.190403

> <b_lp_Chiralities_Consistent>
1

> <s_lp_Variant>
CHEMBL3717_lig3384 -1

> <s_i_glide_gridfile>
glide-grid_3lq8

> <i_i_glide_lignum>
4156

> <i_i_glide_rotatable_bonds>
6

> <r_i_docking_score>
-7.51683264567344

> <r_i_glide_ligand_efficiency>
-0.221083313108042

> <r_i_glide_ligand_efficiency_sa>
-0.716224109368451

> <r_i_glide_ligand_efficiency_ln>
-1.66067917144335

> <r_i_glide_gscore>
-7.51683264567344

> <r_i_glide_lipo>
-2.74394850448297

> <r_i_glide_hbond>
-0.0302002733936082

> <r_i_glide_metal>
0

> <r_i_glide_rewards>
-2.75062613665472

> <r_i_glide_evdw>
-45.9698066711426

> <r_i_glide_ecoul>
-0.508857190608978

> <r_i_glide_erotb>
0.382761181006326

> <r_i_glide_esite>
0

> <r_i_glide_emodel>
-58.5842558301969

> <r_i_glide_energy>
-46.4786638617516

> <r_i_glide_einternal>
11.9851322174072

> <i_i_glide_confnum>
5

> <i_i_glide_posenum>
28

> <r_i_glide_eff_state_penalty>
0

> <s_user_duplicate_titles>
CHEMBL3717_lig3384 

> <s_m_subgroup_title>
dock_pv

> <s_m_subgroupid>
dock_pv

> <b_m_subgroup_collapsed>
1

$$$$
CHEMBL3717_lig3168 
                    3D
 Schrodinger Suite 2021-1.
 40 42  0  0  1  0            999 V2000
   -4.2098   -1.6332   30.0819 C   0  0  0  0  0  0
   -3.4434   -1.5989   31.2021 C   0  0  0  0  0  0
   -2.8948   -0.3740   31.7512 C   0  0  0  0  0  0
   -4.5956   -0.4782   29.4080 N   0  0  0  0  0  0
   -4.1938    0.7481   29.9181 C   0  0  0  0  0  0
   -3.3307    0.7573   30.9900 N   0  0  0  0  0  0
   -2.9697    2.0265   31.2027 N   0  0  0  0  0  0
   -3.6721    2.7002   30.3083 C   0  0  0  0  0  0
   -4.3931    1.9593   29.4715 N   0  0  0  0  0  0
   -4.7675   -2.9061   29.4803 C   0  0  0  0  0  0
   -2.1401   -0.2398   32.7158 O   0  0  0  0  0  0
   -3.6946    4.4767   30.2081 S   0  0  0  0  0  0
   -2.3644    4.9930   31.3506 C   0  0  0  0  0  0
   -0.9405    4.8621   30.8183 C   0  0  0  0  0  0
   -0.2258    3.6770   31.0081 C   0  0  0  0  0  0
    1.0940    3.5712   30.5906 C   0  0  0  0  0  0
    1.7320    4.6624   30.0005 C   0  0  0  0  0  0
    1.0258    5.8589   29.8298 C   0  0  0  0  0  0
   -0.3070    5.9568   30.2251 C   0  0  0  0  0  0
    3.1908    4.5460   29.5494 C   0  0  0  0  0  0
    3.3025    3.7980   28.2081 C   0  0  0  0  0  0
    4.1086    3.9166   30.6179 C   0  0  0  0  0  0
   -3.1860   -2.5238   31.6972 H   0  0  0  0  0  0
   -4.9301   -0.5646   28.4527 H   0  0  0  0  0  0
   -4.1189   -3.2631   28.6791 H   0  0  0  0  0  0
   -4.8451   -3.6867   30.2356 H   0  0  0  0  0  0
   -5.7679   -2.7543   29.0728 H   0  0  0  0  0  0
   -2.4350    4.3974   32.2452 H   0  0  0  0  0  0
   -2.5608    6.0181   31.6606 H   0  0  0  0  0  0
   -0.6679    2.8324   31.5085 H   0  0  0  0  0  0
    1.6184    2.6388   30.7372 H   0  0  0  0  0  0
    1.5064    6.7257   29.4081 H   0  0  0  0  0  0
   -0.8346    6.8910   30.0945 H   0  0  0  0  0  0
    3.5696    5.5568   29.4011 H   0  0  0  0  0  0
    2.6937    4.2715   27.4367 H   0  0  0  0  0  0
    2.9691    2.7631   28.2990 H   0  0  0  0  0  0
    4.3325    3.7786   27.8502 H   0  0  0  0  0  0
    3.9757    4.3996   31.5865 H   0  0  0  0  0  0
    3.9152    2.8512   30.7480 H   0  0  0  0  0  0
    5.1579    4.0210   30.3398 H   0  0  0  0  0  0
  1  2  2  0  0  0
  1  4  1  0  0  0
  1 10  1  0  0  0
  2  3  1  0  0  0
  2 23  1  0  0  0
  3  6  1  0  0  0
  3 11  2  0  0  0
  4  5  1  0  0  0
  4 24  1  0  0  0
  5  6  1  0  0  0
  5  9  2  0  0  0
  6  7  1  0  0  0
  7  8  2  0  0  0
  8  9  1  0  0  0
  8 12  1  0  0  0
 10 25  1  0  0  0
 10 26  1  0  0  0
 10 27  1  0  0  0
 12 13  1  0  0  0
 13 14  1  0  0  0
 13 28  1  0  0  0
 13 29  1  0  0  0
 14 15  2  0  0  0
 14 19  1  0  0  0
 15 16  1  0  0  0
 15 30  1  0  0  0
 16 17  2  0  0  0
 16 31  1  0  0  0
 17 18  1  0  0  0
 17 20  1  0  0  0
 18 19  2  0  0  0
 18 32  1  0  0  0
 19 33  1  0  0  0
 20 21  1  0  0  0
 20 22  1  0  0  0
 20 34  1  0  0  0
 21 35  1  0  0  0
 21 36  1  0  0  0
 21 37  1  0  0  0
 22 38  1  0  0  0
 22 39  1  0  0  0
 22 40  1  0  0  0
M  END
> <s_m_entry_id>
10302

> <s_m_entry_name>
dock_pv.371

> <s_m_Source_Path>
/home/csk/Desktop/cluster/DUD-E-result/met

> <s_m_Source_File>
dock_pv.maegz

> <i_m_Source_File_Index>
371

> <chembl_id>
CHEMBL4456976

> <chembl_pref_name>
None

> <i_lp_mmshare_version>
53161

> <i_f3d_flags>
0

> <r_lp_tautomer_probability>
1

> <s_lp_Force_Field>
OPLS_2005

> <r_lp_Energy>
15.197518

> <b_lp_Chiralities_Consistent>
1

> <s_lp_Variant>
CHEMBL3717_lig3168 -1

> <s_i_glide_gridfile>
glide-grid_3lq8

> <i_i_glide_lignum>
3889

> <i_i_glide_rotatable_bonds>
4

> <r_i_docking_score>
-7.5156877448671

> <r_i_glide_ligand_efficiency>
-0.341622170221232

> <r_i_glide_ligand_efficiency_sa>
-0.957238756197452

> <r_i_glide_ligand_efficiency_ln>
-1.83710822621689

> <r_i_glide_gscore>
-7.5156877448671

> <r_i_glide_lipo>
-3.2259074429398

> <r_i_glide_hbond>
-0.137407555498068

> <r_i_glide_metal>
0

> <r_i_glide_rewards>
-2.49747304435367

> <r_i_glide_evdw>
-34.4721717834473

> <r_i_glide_ecoul>
-2.90729999542236

> <r_i_glide_erotb>
0.564117667611538

> <r_i_glide_esite>
-0.0593137812013802

> <r_i_glide_emodel>
-53.7154185132047

> <r_i_glide_energy>
-37.3794717788696

> <r_i_glide_einternal>
0.934329509735107

> <i_i_glide_confnum>
2

> <i_i_glide_posenum>
360

> <r_i_glide_eff_state_penalty>
0

> <s_user_duplicate_titles>
CHEMBL3717_lig3168 

> <s_m_subgroup_title>
dock_pv

> <s_m_subgroupid>
dock_pv

> <b_m_subgroup_collapsed>
1

$$$$
CHEMBL3717_lig3883
                    3D
 Schrodinger Suite 2021-1.
 40 43  0  0  1  0            999 V2000
   -8.4167    1.8654   30.4526 Cl  0  0  0  0  0  0
   -3.9352    6.8555   30.6080 O   0  0  0  0  0  0
   -2.8806   -2.6907   32.0484 O   0  0  0  0  0  0
   -3.3095    2.7570   30.7707 N   0  0  0  0  0  0
   -0.9449    3.1570   30.9553 N   0  0  0  0  0  0
    0.0364    5.3187   30.6714 N   0  0  0  0  0  0
   -1.2037    7.1805   30.2080 N   0  0  0  0  0  0
    1.3689    3.4522   31.0080 N   0  0  0  0  0  0
   -2.2059    3.6563   30.8192 C   0  0  0  0  0  0
   -2.3805    5.0538   30.6626 C   0  0  0  0  0  0
   -4.6313    3.2679   30.6080 C   0  0  0  0  0  0
   -4.8618    4.6634   30.5325 C   0  0  0  0  0  0
   -3.7446    5.6362   30.6080 C   0  0  0  0  0  0
   -3.1237    1.3714   31.0080 C   0  0  0  0  0  0
   -1.2028    5.8327   30.5490 C   0  0  0  0  0  0
   -5.7772    2.4380   30.6080 C   0  0  0  0  0  0
   -6.1726    5.1570   30.4211 C   0  0  0  0  0  0
   -3.5616    0.3633   30.1094 C   0  0  0  0  0  0
    0.1042    3.9971   30.8831 C   0  0  0  0  0  0
   -7.0671    2.9398   30.4747 C   0  0  0  0  0  0
   -2.4940    0.9400   32.1963 C   0  0  0  0  0  0
   -7.2663    4.3060   30.3722 C   0  0  0  0  0  0
   -3.4771   -0.9900   30.4601 C   0  0  0  0  0  0
   -2.4064   -0.4084   32.5323 C   0  0  0  0  0  0
   -2.9260   -1.3733   31.6792 C   0  0  0  0  0  0
   -4.0675    0.6803   28.7043 C   0  0  0  0  0  0
   -3.2476   -3.3124   31.4080 H   0  0  0  0  0  0
   -2.0941    7.6507   30.1500 H   0  0  0  0  0  0
   -0.3281    7.6734   30.1204 H   0  0  0  0  0  0
    1.4538    2.4493   31.0635 H   0  0  0  0  0  0
    2.1650    4.0572   30.8867 H   0  0  0  0  0  0
   -5.7087    1.3729   30.7445 H   0  0  0  0  0  0
   -6.3622    6.2206   30.3600 H   0  0  0  0  0  0
   -2.0940    1.6655   32.8909 H   0  0  0  0  0  0
   -8.2636    4.7092   30.2684 H   0  0  0  0  0  0
   -3.8319   -1.7450   29.7724 H   0  0  0  0  0  0
   -1.9390   -0.7025   33.4590 H   0  0  0  0  0  0
   -4.0939    1.7414   28.4646 H   0  0  0  0  0  0
   -3.4082    0.2080   27.9760 H   0  0  0  0  0  0
   -5.0682    0.2711   28.5632 H   0  0  0  0  0  0
  1 20  1  0  0  0
  2 13  2  0  0  0
  3 25  1  0  0  0
  3 27  1  0  0  0
  4  9  1  0  0  0
  4 11  1  0  0  0
  4 14  1  0  0  0
  5  9  2  0  0  0
  5 19  1  0  0  0
  6 15  1  0  0  0
  6 19  2  0  0  0
  7 15  1  0  0  0
  7 28  1  0  0  0
  7 29  1  0  0  0
  8 19  1  0  0  0
  8 30  1  0  0  0
  8 31  1  0  0  0
  9 10  1  0  0  0
 10 13  1  0  0  0
 10 15  2  0  0  0
 11 12  1  0  0  0
 11 16  2  0  0  0
 12 13  1  0  0  0
 12 17  2  0  0  0
 14 18  1  0  0  0
 14 21  2  0  0  0
 16 20  1  0  0  0
 16 32  1  0  0  0
 17 22  1  0  0  0
 17 33  1  0  0  0
 18 23  2  0  0  0
 18 26  1  0  0  0
 20 22  2  0  0  0
 21 24  1  0  0  0
 21 34  1  0  0  0
 22 35  1  0  0  0
 23 25  1  0  0  0
 23 36  1  0  0  0
 24 25  2  0  0  0
 24 37  1  0  0  0
 26 38  1  0  0  0
 26 39  1  0  0  0
 26 40  1  0  0  0
M  END
> <s_m_entry_id>
10304

> <s_m_entry_name>
dock_pv.373

> <s_m_Source_Path>
/home/csk/Desktop/cluster/DUD-E-result/met

> <s_m_Source_File>
dock_pv.maegz

> <i_m_Source_File_Index>
373

> <chembl_id>
CHEMBL1995592

> <chembl_pref_name>
None

> <i_lp_mmshare_version>
53161

> <i_f3d_flags>
0

> <r_lp_tautomer_probability>
1

> <s_lp_Force_Field>
OPLS_2005

> <r_lp_Energy>
20.496291

> <b_lp_Chiralities_Consistent>
1

> <s_lp_Variant>
CHEMBL3717_lig3883-1

> <s_i_glide_gridfile>
glide-grid_3lq8

> <i_i_glide_lignum>
4930

> <i_i_glide_rotatable_bonds>
2

> <r_i_docking_score>
-7.50997538894895

> <r_i_glide_ligand_efficiency>
-0.288845207267267

> <r_i_glide_ligand_efficiency_sa>
-0.855702789978271

> <r_i_glide_ligand_efficiency_ln>
-1.7636930778555

> <r_i_glide_gscore>
-7.50997538894895

> <r_i_glide_lipo>
-2.62456434714733

> <r_i_glide_hbond>
-0.359900398036282

> <r_i_glide_metal>
0

> <r_i_glide_rewards>
-2.37117504942644

> <r_i_glide_evdw>
-33.2517242431641

> <r_i_glide_ecoul>
-4.22767972946167

> <r_i_glide_erotb>
0.142402577238549

> <r_i_glide_esite>
0

> <r_i_glide_emodel>
-50.3140001230756

> <r_i_glide_energy>
-37.4794039726257

> <r_i_glide_einternal>
0.895452558994293

> <i_i_glide_confnum>
2

> <i_i_glide_posenum>
7

> <r_i_glide_eff_state_penalty>
0

> <s_user_duplicate_titles>
CHEMBL3717_lig3883

> <s_m_subgroup_title>
dock_pv

> <s_m_subgroupid>
dock_pv

> <b_m_subgroup_collapsed>
1

$$$$
CHEMBL3717_lig3889
                    3D
 Schrodinger Suite 2021-1.
 20 22  0  0  1  0            999 V2000
   -3.7250    5.0247   31.0080 Cl  0  0  0  0  0  0
    1.8952    5.9570   29.8080 O   0  0  0  0  0  0
    4.7377    4.9464   29.4113 O   0  0  0  0  0  0
    1.8683    2.7642   31.4080 N   0  0  0  0  0  0
    4.0264    3.1570   30.6080 N   0  0  0  0  0  0
    1.5168    3.9560   30.8355 C   0  0  0  0  0  0
    0.2525    4.6303   30.7084 C   0  0  0  0  0  0
    2.4422    4.7764   30.1934 C   0  0  0  0  0  0
    0.5720    5.8774   30.1134 C   0  0  0  0  0  0
    3.8306    4.3679   30.0034 C   0  0  0  0  0  0
   -1.0958    4.3639   31.0080 C   0  0  0  0  0  0
   -0.3731    6.8770   29.8633 C   0  0  0  0  0  0
   -2.0543    5.3483   30.7353 C   0  0  0  0  0  0
    3.1060    2.4040   31.3148 C   0  0  0  0  0  0
   -1.6927    6.5884   30.2080 C   0  0  0  0  0  0
    4.9583    2.7940   30.4824 H   0  0  0  0  0  0
   -1.3877    3.4128   31.4289 H   0  0  0  0  0  0
   -0.0938    7.8235   29.4204 H   0  0  0  0  0  0
    3.4609    1.4887   31.7687 H   0  0  0  0  0  0
   -2.4593    7.3247   30.0203 H   0  0  0  0  0  0
  1 13  1  0  0  0
  2  8  1  0  0  0
  2  9  1  0  0  0
  3 10  2  0  0  0
  4  6  1  0  0  0
  4 14  2  0  0  0
  5 10  1  0  0  0
  5 14  1  0  0  0
  5 16  1  0  0  0
  6  7  1  0  0  0
  6  8  2  0  0  0
  7  9  1  0  0  0
  7 11  2  0  0  0
  8 10  1  0  0  0
  9 12  2  0  0  0
 11 13  1  0  0  0
 11 17  1  0  0  0
 12 15  1  0  0  0
 12 18  1  0  0  0
 13 15  2  0  0  0
 14 19  1  0  0  0
 15 20  1  0  0  0
M  END
> <s_m_entry_id>
10305

> <s_m_entry_name>
dock_pv.374

> <s_m_Source_Path>
/home/csk/Desktop/cluster/DUD-E-result/met

> <s_m_Source_File>
dock_pv.maegz

> <i_m_Source_File_Index>
374

> <chembl_id>
CHEMBL1992323

> <chembl_pref_name>
None

> <i_lp_mmshare_version>
53161

> <i_f3d_flags>
0

> <r_lp_tautomer_probability>
1

> <s_lp_Force_Field>
OPLS_2005

> <r_lp_Energy>
20.344558

> <b_lp_Chiralities_Consistent>
1

> <s_lp_Variant>
CHEMBL3717_lig3889-1

> <s_i_glide_gridfile>
glide-grid_3lq8

> <i_i_glide_lignum>
4936

> <i_i_glide_rotatable_bonds>
0

> <r_i_docking_score>
-7.5089431747795

> <r_i_glide_ligand_efficiency>
-0.500596211651966

> <r_i_glide_ligand_efficiency_sa>
-1.23457642042574

> <r_i_glide_ligand_efficiency_ln>
-2.02503816494919

> <r_i_glide_gscore>
-7.5089431747795

> <r_i_glide_lipo>
-3.19732226808525

> <r_i_glide_hbond>
0

> <r_i_glide_metal>
0

> <r_i_glide_rewards>
-3.02608311246188

> <r_i_glide_evdw>
-28.1847763061523

> <r_i_glide_ecoul>
0.824673473834991

> <r_i_glide_erotb>
0

> <r_i_glide_esite>
0

> <r_i_glide_emodel>
-38.8019274650805

> <r_i_glide_energy>
-27.3601028323174

> <r_i_glide_einternal>
0

> <i_i_glide_confnum>
1

> <i_i_glide_posenum>
43

> <r_i_glide_eff_state_penalty>
0

> <s_user_duplicate_titles>
CHEMBL3717_lig3889

> <s_m_subgroup_title>
dock_pv

> <s_m_subgroupid>
dock_pv

> <b_m_subgroup_collapsed>
1

$$$$
CHEMBL3717_lig1301
                    3D
 Schrodinger Suite 2021-1.
 32 35  0  0  1  0            999 V2000
   -2.5893    6.4344   30.2082 N   0  0  0  0  0  0
   -1.2442    6.6128   30.2266 C   0  0  0  0  0  0
   -0.3395    5.5864   30.4912 C   0  0  0  0  0  0
   -0.8263    4.2964   30.6990 C   0  0  0  0  0  0
   -2.2219    4.0556   30.6084 C   0  0  0  0  0  0
   -2.7867    2.7630   30.7428 C   0  0  0  0  0  0
   -4.1658    2.5660   30.6083 C   0  0  0  0  0  0
   -4.9888    3.6603   30.3298 C   0  0  0  0  0  0
   -4.4677    4.9484   30.2115 C   0  0  0  0  0  0
   -3.0782    5.1702   30.3545 C   0  0  0  0  0  0
   -4.8147    1.2075   30.9018 C   0  0  0  0  0  0
   -2.5621   -1.6401   30.4299 C   0  0  0  0  0  0
   -3.0082   -0.6129   31.2990 C   0  0  0  0  0  0
   -1.5456   -2.4429   30.7475 N   0  0  0  0  0  0
   -2.4800   -0.3696   32.5072 N   0  0  0  0  0  0
   -1.4414   -1.1991   32.8204 C   0  0  0  0  0  0
   -0.9828   -2.2046   31.9607 C   0  0  0  0  0  0
   -4.0206    0.0235   30.5957 N   0  0  0  0  0  0
   -4.1882   -0.5814   29.4064 N   0  0  0  0  0  0
   -3.2942   -1.6240   29.2889 N   0  0  0  0  0  0
   -0.8055   -1.0160   34.0406 N   0  0  0  0  0  0
   -0.8953    7.6237   30.0684 H   0  0  0  0  0  0
    0.7219    5.7840   30.5276 H   0  0  0  0  0  0
   -0.1499    3.4744   30.8911 H   0  0  0  0  0  0
   -2.1283    1.9402   30.9691 H   0  0  0  0  0  0
   -6.0572    3.5213   30.2416 H   0  0  0  0  0  0
   -5.1219    5.7853   30.0108 H   0  0  0  0  0  0
   -5.7657    1.1261   30.3703 H   0  0  0  0  0  0
   -5.0743    1.1525   31.9573 H   0  0  0  0  0  0
   -0.1362   -2.8289   32.2080 H   0  0  0  0  0  0
    0.0126   -1.5738   34.2437 H   0  0  0  0  0  0
   -1.0974   -0.2606   34.6433 H   0  0  0  0  0  0
  1  2  2  0  0  0
  1 10  1  0  0  0
  2  3  1  0  0  0
  2 22  1  0  0  0
  3  4  2  0  0  0
  3 23  1  0  0  0
  4  5  1  0  0  0
  4 24  1  0  0  0
  5  6  2  0  0  0
  5 10  1  0  0  0
  6  7  1  0  0  0
  6 25  1  0  0  0
  7  8  2  0  0  0
  7 11  1  0  0  0
  8  9  1  0  0  0
  8 26  1  0  0  0
  9 10  2  0  0  0
  9 27  1  0  0  0
 11 18  1  0  0  0
 11 28  1  0  0  0
 11 29  1  0  0  0
 12 13  1  0  0  0
 12 14  2  0  0  0
 12 20  1  0  0  0
 13 15  2  0  0  0
 13 18  1  0  0  0
 14 17  1  0  0  0
 15 16  1  0  0  0
 16 17  2  0  0  0
 16 21  1  0  0  0
 17 30  1  0  0  0
 18 19  1  0  0  0
 19 20  2  0  0  0
 21 31  1  0  0  0
 21 32  1  0  0  0
M  END
> <s_m_entry_id>
10306

> <s_m_entry_name>
dock_pv.375

> <s_m_Source_Path>
/home/csk/Desktop/cluster/DUD-E-result/met

> <s_m_Source_File>
dock_pv.maegz

> <i_m_Source_File_Index>
375

> <chembl_id>
CHEMBL2170953

> <chembl_pref_name>
None

> <i_lp_mmshare_version>
53161

> <i_f3d_flags>
0

> <r_lp_tautomer_probability>
1

> <s_lp_Force_Field>
OPLS_2005

> <r_lp_Energy>
21.324508

> <b_lp_Chiralities_Consistent>
1

> <s_lp_Variant>
CHEMBL3717_lig1301-1

> <s_i_glide_gridfile>
glide-grid_3lq8

> <i_i_glide_lignum>
1487

> <i_i_glide_rotatable_bonds>
2

> <r_i_docking_score>
-7.50818878286674

> <r_i_glide_ligand_efficiency>
-0.35753279918413

> <r_i_glide_ligand_efficiency_sa>
-0.986405882517269

> <r_i_glide_ligand_efficiency_ln>
-1.85638450483982

> <r_i_glide_gscore>
-7.50818878286674

> <r_i_glide_lipo>
-2.66976093192833

> <r_i_glide_hbond>
0

> <r_i_glide_metal>
0

> <r_i_glide_rewards>
-3.22994104584511

> <r_i_glide_evdw>
-31.7439250946045

> <r_i_glide_ecoul>
-2.74101066589355

> <r_i_glide_erotb>
0.468384778587684

> <r_i_glide_esite>
-0.0785237290667297

> <r_i_glide_emodel>
-47.399973136144

> <r_i_glide_energy>
-34.484935760498

> <r_i_glide_einternal>
1.51914846897125

> <i_i_glide_confnum>
4

> <i_i_glide_posenum>
85

> <r_i_glide_eff_state_penalty>
0

> <s_user_duplicate_titles>
CHEMBL3717_lig1301

> <s_m_subgroup_title>
dock_pv

> <s_m_subgroupid>
dock_pv

> <b_m_subgroup_collapsed>
1

$$$$
CHEMBL3717_lig1223
                    3D
 Schrodinger Suite 2021-1.
 54 58  0  0  1  0            999 V2000
   -5.8940    4.9295   30.6246 N   0  0  0  0  0  0
   -4.6598    5.4917   30.6371 C   0  0  0  0  0  0
   -3.4827    4.7407   30.6353 C   0  0  0  0  0  0
   -3.6036    3.3480   30.6075 C   0  0  0  0  0  0
   -4.8597    2.7346   30.5478 C   0  0  0  0  0  0
   -5.9871    3.5780   30.5749 C   0  0  0  0  0  0
   -2.1308    5.3571   30.6088 C   0  0  0  0  0  0
   -0.9113    4.7439   30.8507 C   0  0  0  0  0  0
    0.0624    5.6590   30.5482 N   0  0  0  0  0  0
   -0.4661    6.8120   30.1110 N   0  0  0  0  0  0
   -1.7630    6.6486   30.2079 C   0  0  0  0  0  0
    1.5049    5.4438   30.4017 C   0  0  0  0  0  0
    2.1612    4.6492   31.5523 C   0  0  0  0  0  0
    2.1187    3.1242   31.3717 C   0  0  0  0  0  0
    2.5841    2.7557   30.0360 N   0  0  2  0  0  0
    1.7758    3.3357   28.9652 C   0  0  0  0  0  0
    1.8828    4.8623   29.0202 C   0  0  0  0  0  0
   -4.8939    1.2429   30.4137 C   0  0  0  0  0  0
   -3.7816    0.6383   29.8874 O   0  0  0  0  0  0
   -5.9034    0.4348   30.6719 N   0  0  0  0  0  0
   -7.2821    3.0764   30.5143 N   0  0  0  0  0  0
   -5.4629   -0.7813   30.2290 C   0  0  0  0  0  0
   -4.1524   -0.6604   29.7465 C   0  0  0  0  0  0
   -3.4399   -1.7153   29.1695 C   0  0  0  0  0  0
   -4.1288   -2.9266   29.0078 C   0  0  0  0  0  0
   -5.4220   -3.0771   29.5458 C   0  0  0  0  0  0
   -6.1027   -2.0241   30.1681 C   0  0  0  0  0  0
   -3.4639   -4.0544   28.2003 C   0  0  1  0  0  0
   -4.1791   -5.2833   28.2080 O   0  0  0  0  0  0
   -3.1604   -3.7015   26.7403 C   0  0  0  0  0  0
   -4.6349    6.5709   30.6402 H   0  0  0  0  0  0
   -2.7127    2.7375   30.5913 H   0  0  0  0  0  0
   -0.6639    3.7340   31.1299 H   0  0  0  0  0  0
   -2.4363    7.4353   29.9153 H   0  0  0  0  0  0
    1.8999    6.4586   30.4429 H   0  0  0  0  0  0
    3.2036    4.9476   31.6599 H   0  0  0  0  0  0
    1.7231    4.9380   32.5088 H   0  0  0  0  0  0
    2.7727    2.6480   32.1034 H   0  0  0  0  0  0
    1.1211    2.7212   31.5341 H   0  0  0  0  0  0
    2.5392    1.7490   29.9413 H   0  0  0  0  0  0
    2.1296    2.9609   28.0035 H   0  0  0  0  0  0
    0.7373    3.0181   29.0745 H   0  0  0  0  0  0
    1.2815    5.3205   28.2325 H   0  0  0  0  0  0
    2.8989    5.1554   28.7568 H   0  0  0  0  0  0
   -7.4107    2.0729   30.5012 H   0  0  0  0  0  0
   -8.0594    3.7193   30.5020 H   0  0  0  0  0  0
   -2.4502   -1.5686   28.7675 H   0  0  0  0  0  0
   -5.9357   -4.0222   29.4463 H   0  0  0  0  0  0
   -7.1081   -2.1510   30.5401 H   0  0  0  0  0  0
   -2.4946   -4.2452   28.6434 H   0  0  0  0  0  0
   -4.0895   -5.6166   29.1264 H   0  0  0  0  0  0
   -2.6302   -2.7544   26.6527 H   0  0  0  0  0  0
   -4.0770   -3.6432   26.1542 H   0  0  0  0  0  0
   -2.5324   -4.4451   26.2598 H   0  0  0  0  0  0
  1  6  1  0  0  0
  1  2  2  0  0  0
  2  3  1  0  0  0
  2 31  1  0  0  0
  3  7  1  0  0  0
  3  4  2  0  0  0
  4  5  1  0  0  0
  4 32  1  0  0  0
  5 18  1  0  0  0
  5  6  2  0  0  0
  6 21  1  0  0  0
  7 11  1  0  0  0
  7  8  2  0  0  0
  8  9  1  0  0  0
  8 33  1  0  0  0
  9 12  1  0  0  0
  9 10  1  0  0  0
 10 11  2  0  0  0
 11 34  1  0  0  0
 12 17  1  0  0  0
 12 13  1  0  0  0
 12 35  1  0  0  0
 13 14  1  0  0  0
 13 36  1  0  0  0
 13 37  1  0  0  0
 14 15  1  0  0  0
 14 38  1  0  0  0
 14 39  1  0  0  0
 15 16  1  0  0  0
 15 40  1  0  0  0
 16 17  1  0  0  0
 16 41  1  0  0  0
 16 42  1  0  0  0
 17 43  1  0  0  0
 17 44  1  0  0  0
 18 19  1  0  0  0
 18 20  2  0  0  0
 19 23  1  0  0  0
 20 22  1  0  0  0
 21 45  1  0  0  0
 21 46  1  0  0  0
 22 23  2  0  0  0
 22 27  1  0  0  0
 23 24  1  0  0  0
 24 25  2  0  0  0
 24 47  1  0  0  0
 25 26  1  0  0  0
 25 28  1  0  0  0
 26 27  2  0  0  0
 26 48  1  0  0  0
 27 49  1  0  0  0
 28 29  1  0  0  0
 28 30  1  0  0  0
 28 50  1  0  0  0
 29 51  1  0  0  0
 30 52  1  0  0  0
 30 53  1  0  0  0
 30 54  1  0  0  0
M  END
> <s_m_entry_id>
10308

> <s_m_entry_name>
dock_pv.377

> <s_m_Source_Path>
/home/csk/Desktop/cluster/DUD-E-result/met

> <s_m_Source_File>
dock_pv.maegz

> <i_m_Source_File_Index>
377

> <chembl_id>
CHEMBL2032152

> <chembl_pref_name>
None

> <i_lp_mmshare_version>
53161

> <i_f3d_flags>
0

> <r_lp_tautomer_probability>
0.999999772200052

> <s_lp_Force_Field>
OPLS_2005

> <r_lp_Energy>
29.30967

> <b_lp_Chiralities_Consistent>
1

> <s_lp_Variant>
CHEMBL3717_lig1223-2

> <s_i_glide_gridfile>
glide-grid_3lq8

> <i_i_glide_lignum>
1401

> <i_i_glide_rotatable_bonds>
5

> <r_i_docking_score>
-7.50020714318509

> <r_i_glide_ligand_efficiency>
-0.250006904772836

> <r_i_glide_ligand_efficiency_sa>
-0.776829580342351

> <r_i_glide_ligand_efficiency_ln>
-1.70412878423384

> <r_i_glide_gscore>
-7.50020714318509

> <r_i_glide_lipo>
-3.44801753601754

> <r_i_glide_hbond>
-0.16

> <r_i_glide_metal>
0

> <r_i_glide_rewards>
-1.41804193939394

> <r_i_glide_evdw>
-41.3540191650391

> <r_i_glide_ecoul>
-5.91165637969971

> <r_i_glide_erotb>
0.480301747433302

> <r_i_glide_esite>
0

> <r_i_glide_emodel>
-60.8858876312531

> <r_i_glide_energy>
-47.2656755447388

> <r_i_glide_einternal>
7.81898832321167

> <i_i_glide_confnum>
5

> <i_i_glide_posenum>
8

> <r_i_glide_eff_state_penalty>
0

> <s_user_duplicate_titles>
CHEMBL3717_lig1223

> <s_m_subgroup_title>
dock_pv

> <s_m_subgroupid>
dock_pv

> <b_m_subgroup_collapsed>
1

$$$$
CHEMBL3717_lig1262
                    3D
 Schrodinger Suite 2021-1.
 54 57  0  0  1  0            999 V2000
   -5.5913    4.9921   30.6539 C   0  0  0  0  0  0
   -4.9686    3.7322   30.5355 C   0  0  0  0  0  0
   -3.5634    3.7232   30.6068 C   0  0  0  0  0  0
   -2.8294    4.9105   30.7558 C   0  0  0  0  0  0
   -3.5444    6.0955   30.8786 C   0  0  0  0  0  0
   -4.8932    6.1396   30.8266 N   0  0  0  0  0  0
   -5.7480    2.4450   30.3087 C   0  0  0  0  0  0
   -6.8724    2.4557   29.8068 O   0  0  0  0  0  0
   -5.1493    1.3097   30.7145 N   0  0  0  0  0  0
    0.6395    4.1331   30.0233 N   0  0  0  0  0  0
    0.7339    5.4645   29.8763 N   0  0  0  0  0  0
   -0.4539    5.9205   30.2263 C   0  0  0  0  0  0
   -1.3495    4.9003   30.6079 C   0  0  0  0  0  0
   -0.5471    3.7851   30.6078 C   0  0  0  0  0  0
    4.2809    4.1432   30.7831 O   0  0  0  0  0  0
    3.8961    4.5790   29.4729 C   0  0  0  0  0  0
    2.8706    3.6457   28.8073 C   0  0  0  0  0  0
    1.7610    3.2080   29.7886 C   0  0  0  0  0  0
    2.3688    2.7863   31.1286 C   0  0  0  0  0  0
    3.1818    3.9573   31.6781 C   0  0  0  0  0  0
   -5.7063   -0.0506   30.6987 C   0  0  2  0  0  0
   -6.2660   -0.4296   32.0763 C   0  0  0  0  0  0
   -4.7368   -1.1371   30.1862 C   0  0  0  0  0  0
   -5.2612   -2.2776   29.5402 C   0  0  0  0  0  0
   -4.4038   -3.2436   29.0081 C   0  0  0  0  0  0
   -3.0286   -3.0547   29.0370 C   0  0  0  0  0  0
   -2.4957   -1.9948   29.7591 C   0  0  0  0  0  0
   -3.3359   -1.0663   30.3750 C   0  0  0  0  0  0
   -4.8935   -4.3972   28.4957 F   0  0  0  0  0  0
   -2.5844    0.0798   31.4350 Cl  0  0  0  0  0  0
   -6.9709   -2.5468   29.4076 Cl  0  0  0  0  0  0
   -6.9722    5.1623   30.6037 N   0  0  0  0  0  0
   -3.0296    2.7954   30.4684 H   0  0  0  0  0  0
   -3.0404    7.0451   30.9766 H   0  0  0  0  0  0
   -4.2715    1.3967   31.2034 H   0  0  0  0  0  0
   -0.6969    6.9665   30.1064 H   0  0  0  0  0  0
   -0.7649    2.7572   30.8257 H   0  0  0  0  0  0
    4.7856    4.6817   28.8507 H   0  0  0  0  0  0
    3.4492    5.5572   29.5402 H   0  0  0  0  0  0
    3.3780    2.7545   28.4357 H   0  0  0  0  0  0
    2.4406    4.0820   27.9046 H   0  0  0  0  0  0
    1.2720    2.3581   29.3180 H   0  0  0  0  0  0
    1.5911    2.4552   31.8081 H   0  0  0  0  0  0
    2.9739    1.8877   31.0063 H   0  0  0  0  0  0
    3.5059    3.7355   32.6873 H   0  0  0  0  0  0
    2.5886    4.8675   31.7685 H   0  0  0  0  0  0
   -6.5392   -0.0238   29.9923 H   0  0  0  0  0  0
   -6.8194   -1.3676   32.0461 H   0  0  0  0  0  0
   -5.4616   -0.5476   32.8037 H   0  0  0  0  0  0
   -6.9458    0.3345   32.4550 H   0  0  0  0  0  0
   -2.3818   -3.8057   28.6062 H   0  0  0  0  0  0
   -1.4245   -1.9217   29.8799 H   0  0  0  0  0  0
   -7.5112    4.3598   30.3002 H   0  0  0  0  0  0
   -7.3080    6.0999   30.4319 H   0  0  0  0  0  0
  1  2  1  0  0  0
  1  6  2  0  0  0
  1 32  1  0  0  0
  2  3  2  0  0  0
  2  7  1  0  0  0
  3  4  1  0  0  0
  3 33  1  0  0  0
  4  5  2  0  0  0
  4 13  1  0  0  0
  5  6  1  0  0  0
  5 34  1  0  0  0
  7  8  2  0  0  0
  7  9  1  0  0  0
  9 21  1  0  0  0
  9 35  1  0  0  0
 10 11  1  0  0  0
 10 14  1  0  0  0
 10 18  1  0  0  0
 11 12  2  0  0  0
 12 13  1  0  0  0
 12 36  1  0  0  0
 13 14  2  0  0  0
 14 37  1  0  0  0
 15 16  1  0  0  0
 15 20  1  0  0  0
 16 17  1  0  0  0
 16 38  1  0  0  0
 16 39  1  0  0  0
 17 18  1  0  0  0
 17 40  1  0  0  0
 17 41  1  0  0  0
 18 19  1  0  0  0
 18 42  1  0  0  0
 19 20  1  0  0  0
 19 43  1  0  0  0
 19 44  1  0  0  0
 20 45  1  0  0  0
 20 46  1  0  0  0
 21 22  1  0  0  0
 21 23  1  0  0  0
 21 47  1  0  0  0
 22 48  1  0  0  0
 22 49  1  0  0  0
 22 50  1  0  0  0
 23 24  1  0  0  0
 23 28  2  0  0  0
 24 25  2  0  0  0
 24 31  1  0  0  0
 25 26  1  0  0  0
 25 29  1  0  0  0
 26 27  2  0  0  0
 26 51  1  0  0  0
 27 28  1  0  0  0
 27 52  1  0  0  0
 28 30  1  0  0  0
 32 53  1  0  0  0
 32 54  1  0  0  0
M  END
> <s_m_entry_id>
10309

> <s_m_entry_name>
dock_pv.378

> <s_m_Source_Path>
/home/csk/Desktop/cluster/DUD-E-result/met

> <s_m_Source_File>
dock_pv.maegz

> <i_m_Source_File_Index>
378

> <chembl_id>
CHEMBL2071450

> <chembl_pref_name>
None

> <i_lp_mmshare_version>
53161

> <i_f3d_flags>
0

> <r_lp_tautomer_probability>
0.999999772200052

> <s_lp_Force_Field>
OPLS_2005

> <r_lp_Energy>
28.073924

> <b_lp_Chiralities_Consistent>
1

> <s_lp_Variant>
CHEMBL3717_lig1262-1

> <s_i_glide_gridfile>
glide-grid_3lq8

> <i_i_glide_lignum>
1442

> <i_i_glide_rotatable_bonds>
6

> <r_i_docking_score>
-7.50013544594011

> <r_i_glide_ligand_efficiency>
-0.234379232685628

> <r_i_glide_ligand_efficiency_sa>
-0.744107680189705

> <r_i_glide_ligand_efficiency_ln>
-1.6794847723167

> <r_i_glide_gscore>
-7.50013544594011

> <r_i_glide_lipo>
-3.5795678273259

> <r_i_glide_hbond>
0

> <r_i_glide_metal>
0

> <r_i_glide_rewards>
-1.59146434390321

> <r_i_glide_evdw>
-42.4222297668457

> <r_i_glide_ecoul>
-3.7196409702301

> <r_i_glide_erotb>
0.442798256533922

> <r_i_glide_esite>
-0.0928438973681213

> <r_i_glide_emodel>
-49.3062232168761

> <r_i_glide_energy>
-46.1418707370758

> <r_i_glide_einternal>
13.0723838806152

> <i_i_glide_confnum>
41

> <i_i_glide_posenum>
389

> <r_i_glide_eff_state_penalty>
0

> <s_user_duplicate_titles>
CHEMBL3717_lig1262

> <s_m_subgroup_title>
dock_pv

> <s_m_subgroupid>
dock_pv

> <b_m_subgroup_collapsed>
1

$$$$
CHEMBL3717_lig3550
                    3D
 Schrodinger Suite 2021-1.
 50 53  0  0  1  0            999 V2000
   -5.2540    3.3633   30.6060 O   0  0  0  0  0  0
   -8.9602    4.7412   30.5511 N   0  0  0  0  0  0
   -3.9361    6.7542   30.6081 N   0  0  0  0  0  0
   -5.6780   -0.2944   30.1887 N   0  0  0  0  0  0
    4.3064    3.5593   29.8435 N   0  0  0  0  0  0
   -8.5081    2.9081   31.7798 C   0  0  0  0  0  0
   -8.0589    2.6653   30.4286 C   0  0  0  0  0  0
   -9.0820    4.2171   31.8196 C   0  0  0  0  0  0
   -8.3553    3.8234   29.7279 C   0  0  0  0  0  0
   -8.4940    2.1516   32.9643 C   0  0  0  0  0  0
   -7.3973    1.4066   29.8911 C   0  0  0  0  0  0
   -9.6426    4.7566   32.9846 C   0  0  0  0  0  0
   -6.0525    1.0595   30.5766 C   0  0  2  0  0  0
   -9.0509    2.6867   34.1237 C   0  0  0  0  0  0
   -9.6185    3.9572   34.1273 C   0  0  0  0  0  0
   -4.3050    4.3608   30.6048 C   0  0  0  0  0  0
   -2.0429    5.2460   30.6087 C   0  0  0  0  0  0
   -4.8875    2.0272   30.2710 C   0  0  0  0  0  0
   -2.9173    4.1542   30.6081 C   0  0  0  0  0  0
   -4.7582    5.6781   30.6106 C   0  0  0  0  0  0
   -2.6018    6.5244   30.6080 C   0  0  0  0  0  0
   -0.5834    5.0856   30.5686 C   0  0  0  0  0  0
    1.5228    3.8870   29.9643 C   0  0  0  0  0  0
    0.0676    4.0589   29.9898 C   0  0  0  0  0  0
    2.3318    4.2720   31.0412 C   0  0  0  0  0  0
    2.1252    3.3452   28.8251 C   0  0  0  0  0  0
    3.7087    4.0835   30.9430 C   0  0  0  0  0  0
    3.5108    3.2055   28.8014 C   0  0  0  0  0  0
   -9.2628    5.6474   30.2202 H   0  0  0  0  0  0
   -5.5544   -0.3670   29.1850 H   0  0  0  0  0  0
   -4.7958   -0.5562   30.6053 H   0  0  0  0  0  0
   -8.1867    4.0712   28.6886 H   0  0  0  0  0  0
   -8.0657    1.1601   32.9771 H   0  0  0  0  0  0
   -7.2517    1.4792   28.8118 H   0  0  0  0  0  0
   -8.0956    0.5760   30.0263 H   0  0  0  0  0  0
  -10.0976    5.7371   32.9987 H   0  0  0  0  0  0
   -6.2074    1.0478   31.6544 H   0  0  0  0  0  0
   -9.0494    2.0982   35.0317 H   0  0  0  0  0  0
  -10.0682    4.3258   35.0393 H   0  0  0  0  0  0
   -4.6076    1.9833   29.2157 H   0  0  0  0  0  0
   -4.0260    1.6992   30.8525 H   0  0  0  0  0  0
   -2.5093    3.1581   30.6119 H   0  0  0  0  0  0
   -5.8198    5.8875   30.6029 H   0  0  0  0  0  0
   -1.9730    7.4037   30.5907 H   0  0  0  0  0  0
   -0.0093    5.8626   31.0556 H   0  0  0  0  0  0
   -0.4968    3.2761   29.5006 H   0  0  0  0  0  0
    1.9036    4.6932   31.9372 H   0  0  0  0  0  0
    1.5313    3.0407   27.9724 H   0  0  0  0  0  0
    4.3560    4.3595   31.7619 H   0  0  0  0  0  0
    4.0041    2.7864   27.9371 H   0  0  0  0  0  0
  1 16  1  0  0  0
  1 18  1  0  0  0
  2  8  1  0  0  0
  2  9  1  0  0  0
  2 29  1  0  0  0
  3 20  1  0  0  0
  3 21  2  0  0  0
  4 13  1  0  0  0
  4 30  1  0  0  0
  4 31  1  0  0  0
  5 27  2  0  0  0
  5 28  1  0  0  0
  6  7  1  0  0  0
  6  8  1  0  0  0
  6 10  2  0  0  0
  7  9  2  0  0  0
  7 11  1  0  0  0
  8 12  2  0  0  0
  9 32  1  0  0  0
 10 14  1  0  0  0
 10 33  1  0  0  0
 11 13  1  0  0  0
 11 34  1  0  0  0
 11 35  1  0  0  0
 12 15  1  0  0  0
 12 36  1  0  0  0
 13 18  1  0  0  0
 13 37  1  0  0  0
 14 15  2  0  0  0
 14 38  1  0  0  0
 15 39  1  0  0  0
 16 19  1  0  0  0
 16 20  2  0  0  0
 17 19  2  0  0  0
 17 21  1  0  0  0
 17 22  1  0  0  0
 18 40  1  0  0  0
 18 41  1  0  0  0
 19 42  1  0  0  0
 20 43  1  0  0  0
 21 44  1  0  0  0
 22 24  2  3  0  0
 22 45  1  0  0  0
 23 24  1  0  0  0
 23 25  2  0  0  0
 23 26  1  0  0  0
 24 46  1  0  0  0
 25 27  1  0  0  0
 25 47  1  0  0  0
 26 28  2  0  0  0
 26 48  1  0  0  0
 27 49  1  0  0  0
 28 50  1  0  0  0
M  END
> <s_m_entry_id>
10310

> <s_m_entry_name>
dock_pv.379

> <s_m_Source_Path>
/home/csk/Desktop/cluster/DUD-E-result/met

> <s_m_Source_File>
dock_pv.maegz

> <i_m_Source_File_Index>
379

> <chembl_id>
CHEMBL1974935

> <chembl_pref_name>
None

> <i_lp_mmshare_version>
53161

> <i_f3d_flags>
0

> <r_lp_tautomer_probability>
1

> <s_lp_Force_Field>
OPLS_2005

> <r_lp_Energy>
23.240838

> <b_lp_Chiralities_Consistent>
1

> <s_lp_Variant>
CHEMBL3717_lig3550-1

> <s_i_glide_gridfile>
glide-grid_3lq8

> <i_i_glide_lignum>
4389

> <i_i_glide_rotatable_bonds>
7

> <r_i_docking_score>
-7.49475984612302

> <r_i_glide_ligand_efficiency>
-0.267669994504394

> <r_i_glide_ligand_efficiency_sa>
-0.812803752511251

> <r_i_glide_ligand_efficiency_ln>
-1.73001062819629

> <r_i_glide_gscore>
-7.49475984612302

> <r_i_glide_lipo>
-3.58564333867617

> <r_i_glide_hbond>
-0.250331640012268

> <r_i_glide_metal>
0

> <r_i_glide_rewards>
-1.88440435126736

> <r_i_glide_evdw>
-41.8364410400391

> <r_i_glide_ecoul>
-3.35661721229553

> <r_i_glide_erotb>
0.843491268241451

> <r_i_glide_esite>
-0.0225571505623929

> <r_i_glide_emodel>
-63.7760187284858

> <r_i_glide_energy>
-45.1930582523346

> <r_i_glide_einternal>
3.28317999839783

> <i_i_glide_confnum>
8

> <i_i_glide_posenum>
82

> <r_i_glide_eff_state_penalty>
0

> <s_user_duplicate_titles>
CHEMBL3717_lig3550

> <s_m_subgroup_title>
dock_pv

> <s_m_subgroupid>
dock_pv

> <b_m_subgroup_collapsed>
1

$$$$
CHEMBL3717_lig2772
                    3D
 Schrodinger Suite 2021-1.
 57 61  0  0  1  0            999 V2000
    4.4765    3.9593   28.8312 C   0  0  0  0  0  0
    3.0247    3.7655   28.8796 N   0  0  0  0  0  0
    2.6955    2.7157   27.9144 C   0  0  0  0  0  0
    2.5954    3.4155   30.2514 C   0  0  1  0  0  0
    2.7420    4.5704   31.2411 C   0  0  0  0  0  0
    1.5049    5.4297   31.0035 C   0  0  0  0  0  0
    0.4349    4.5051   30.6465 N   0  0  0  0  0  0
    1.0723    3.2071   30.4264 C   0  0  0  0  0  0
   -0.9333    4.7986   30.6295 C   0  0  0  0  0  0
   -1.3588    6.1283   30.6076 C   0  0  0  0  0  0
   -2.6524    6.5176   30.6063 N   0  0  0  0  0  0
   -3.6060    5.5535   30.6099 C   0  0  0  0  0  0
   -4.9527    5.9570   30.6085 C   0  0  0  0  0  0
   -5.9714    5.0146   30.6020 C   0  0  0  0  0  0
   -5.6831    3.6529   30.6079 C   0  0  0  0  0  0
   -7.0065    2.4713   30.6082 S   0  0  0  0  0  0
   -7.9060    2.9020   32.0808 C   0  0  0  0  0  0
   -8.1612    4.1250   32.5097 N   0  0  0  0  0  0
   -8.8423    4.0794   33.7132 N   0  0  0  0  0  0
   -9.0252    2.7698   33.9876 C   0  0  0  0  0  0
   -9.6544    2.1211   35.0612 C   0  0  0  0  0  0
   -9.6851    0.7239   35.0737 C   0  0  0  0  0  0
   -9.1109   -0.0479   34.0506 C   0  0  0  0  0  0
   -8.4946    0.6241   32.9845 C   0  0  0  0  0  0
   -8.4498    1.9940   32.9665 N   0  0  0  0  0  0
   -9.1449   -1.5247   34.1059 C   0  0  0  0  0  0
  -10.1810   -2.1173   34.5707 N   0  0  0  0  0  0
  -10.1473   -3.5255   34.5089 O   0  0  0  0  0  0
   -7.9161   -2.2464   33.5264 C   0  0  0  0  0  0
   -4.3534    3.2167   30.5929 C   0  0  0  0  0  0
   -3.2912    4.1619   30.6080 C   0  0  0  0  0  0
   -1.9171    3.8008   30.6191 C   0  0  0  0  0  0
    4.8387    4.0444   27.8081 H   0  0  0  0  0  0
    4.7746    4.8810   29.3260 H   0  0  0  0  0  0
    5.0131    3.1405   29.3099 H   0  0  0  0  0  0
    3.0937    2.9556   26.9308 H   0  0  0  0  0  0
    3.1053    1.7512   28.2062 H   0  0  0  0  0  0
    1.6212    2.6056   27.7797 H   0  0  0  0  0  0
    3.0864    2.5143   30.6267 H   0  0  0  0  0  0
    3.6406    5.1568   31.0787 H   0  0  0  0  0  0
    2.8251    4.2184   32.2718 H   0  0  0  0  0  0
    1.6790    6.1595   30.2121 H   0  0  0  0  0  0
    1.2401    5.9355   31.9318 H   0  0  0  0  0  0
    0.8605    2.5650   31.2822 H   0  0  0  0  0  0
    0.6132    2.7581   29.5478 H   0  0  0  0  0  0
   -0.6431    6.9365   30.5912 H   0  0  0  0  0  0
   -5.1991    7.0090   30.6070 H   0  0  0  0  0  0
   -6.9941    5.3575   30.5670 H   0  0  0  0  0  0
  -10.1035    2.6883   35.8619 H   0  0  0  0  0  0
  -10.1680    0.2316   35.9085 H   0  0  0  0  0  0
   -8.0241    0.1279   32.1481 H   0  0  0  0  0  0
   -9.3067   -3.6965   34.0779 H   0  0  0  0  0  0
   -8.0979   -2.5368   32.4916 H   0  0  0  0  0  0
   -7.0315   -1.6091   33.5194 H   0  0  0  0  0  0
   -7.6499   -3.1394   34.0910 H   0  0  0  0  0  0
   -4.1242    2.1605   30.5910 H   0  0  0  0  0  0
   -1.6465    2.7557   30.6220 H   0  0  0  0  0  0
  1  2  1  0  0  0
  1 33  1  0  0  0
  1 34  1  0  0  0
  1 35  1  0  0  0
  2  3  1  0  0  0
  2  4  1  0  0  0
  3 36  1  0  0  0
  3 37  1  0  0  0
  3 38  1  0  0  0
  4  5  1  0  0  0
  4  8  1  0  0  0
  4 39  1  0  0  0
  5  6  1  0  0  0
  5 40  1  0  0  0
  5 41  1  0  0  0
  6  7  1  0  0  0
  6 42  1  0  0  0
  6 43  1  0  0  0
  7  8  1  0  0  0
  7  9  1  0  0  0
  8 44  1  0  0  0
  8 45  1  0  0  0
  9 10  2  0  0  0
  9 32  1  0  0  0
 10 11  1  0  0  0
 10 46  1  0  0  0
 11 12  2  0  0  0
 12 13  1  0  0  0
 12 31  1  0  0  0
 13 14  2  0  0  0
 13 47  1  0  0  0
 14 15  1  0  0  0
 14 48  1  0  0  0
 15 16  1  0  0  0
 15 30  2  0  0  0
 16 17  1  0  0  0
 17 18  2  0  0  0
 17 25  1  0  0  0
 18 19  1  0  0  0
 19 20  2  0  0  0
 20 21  1  0  0  0
 20 25  1  0  0  0
 21 22  2  0  0  0
 21 49  1  0  0  0
 22 23  1  0  0  0
 22 50  1  0  0  0
 23 24  2  0  0  0
 23 26  1  0  0  0
 24 25  1  0  0  0
 24 51  1  0  0  0
 26 27  2  0  0  0
 26 29  1  0  0  0
 27 28  1  0  0  0
 28 52  1  0  0  0
 29 53  1  0  0  0
 29 54  1  0  0  0
 29 55  1  0  0  0
 30 31  1  0  0  0
 30 56  1  0  0  0
 31 32  2  0  0  0
 32 57  1  0  0  0
M  END
> <s_m_entry_id>
10311

> <s_m_entry_name>
dock_pv.380

> <s_m_Source_Path>
/home/csk/Desktop/cluster/DUD-E-result/met

> <s_m_Source_File>
dock_pv.maegz

> <i_m_Source_File_Index>
380

> <chembl_id>
CHEMBL3704013

> <chembl_pref_name>
None

> <i_lp_mmshare_version>
53161

> <i_f3d_flags>
0

> <r_lp_tautomer_probability>
1

> <s_lp_Force_Field>
OPLS_2005

> <r_lp_Energy>
52.715463

> <b_lp_Chiralities_Consistent>
1

> <s_lp_Variant>
CHEMBL3717_lig2772-1

> <s_i_glide_gridfile>
glide-grid_3lq8

> <i_i_glide_lignum>
3354

> <i_i_glide_rotatable_bonds>
6

> <r_i_docking_score>
-7.49057186075777

> <r_i_glide_ligand_efficiency>
-0.23408037064868

> <r_i_glide_ligand_efficiency_sa>
-0.743158852367111

> <r_i_glide_ligand_efficiency_ln>
-1.67734322490089

> <r_i_glide_gscore>
-7.49057186075777

> <r_i_glide_lipo>
-3.49540181631361

> <r_i_glide_hbond>
0

> <r_i_glide_metal>
0

> <r_i_glide_rewards>
-1.83465954942584

> <r_i_glide_evdw>
-42.0411148071289

> <r_i_glide_ecoul>
-3.65104031562805

> <r_i_glide_erotb>
0.499871729369011

> <r_i_glide_esite>
-0.0106704366866764

> <r_i_glide_emodel>
-65.9537260758368

> <r_i_glide_energy>
-45.692155122757

> <r_i_glide_einternal>
1.36136400699615

> <i_i_glide_confnum>
6

> <i_i_glide_posenum>
27

> <r_i_glide_eff_state_penalty>
0

> <s_user_duplicate_titles>
CHEMBL3717_lig2772

> <s_m_subgroup_title>
dock_pv

> <s_m_subgroupid>
dock_pv

> <b_m_subgroup_collapsed>
1

$$$$
CHEMBL3717_lig3478
                    3D
 Schrodinger Suite 2021-1.
 53 55  0  0  1  0            999 V2000
   -2.8452    5.9457   30.7995 N   0  0  0  0  0  0
   -2.2038    4.7547   30.6961 C   0  0  0  0  0  0
   -2.8267    3.5499   30.6080 N   0  0  0  0  0  0
   -4.1834    3.5281   30.5737 C   0  0  0  0  0  0
   -4.9253    4.7117   30.6833 C   0  0  0  0  0  0
   -4.2038    5.9049   30.7999 C   0  0  0  0  0  0
   -4.8295    2.2870   30.4394 N   0  0  0  0  0  0
   -4.0793    1.0626   30.1758 C   0  0  0  0  0  0
   -4.9501   -0.2037   30.1011 C   0  0  2  0  0  0
   -5.5379   -0.6170   31.4721 C   0  0  0  0  0  0
   -6.4613   -1.8479   31.3219 C   0  0  0  0  0  0
   -5.7447   -3.0555   30.6566 C   0  0  2  0  0  0
   -5.0526   -2.6113   29.3413 C   0  0  0  0  0  0
   -4.1348   -1.3948   29.5560 C   0  0  0  0  0  0
   -6.7173   -4.2471   30.4783 C   0  0  0  0  0  0
   -6.0942   -5.3759   29.8079 N   0  0  0  0  0  0
   -0.8011    4.7927   30.6080 N   0  0  0  0  0  0
   -0.0609    3.5565   30.3524 C   0  0  0  0  0  0
   -6.3908    4.7098   30.7483 N   0  3  0  0  0  0
   -6.9050    5.1570   31.7670 O   0  0  0  0  0  0
   -7.0112    4.2278   29.8082 O   0  5  0  0  0  0
    1.4043    3.7677   29.9945 C   0  0  0  0  0  0
    1.8267    3.4910   28.6891 C   0  0  0  0  0  0
    3.1762    3.5657   28.3501 C   0  0  0  0  0  0
    4.1146    3.9532   29.3045 C   0  0  0  0  0  0
    3.7049    4.2260   30.6083 C   0  0  0  0  0  0
    2.3583    4.1155   30.9610 C   0  0  0  0  0  0
    1.9061    4.3571   32.6080 Cl  0  0  0  0  0  0
   -4.7175    6.8508   30.8967 H   0  0  0  0  0  0
   -5.8347    2.2732   30.3371 H   0  0  0  0  0  0
   -3.5483    1.1924   29.2327 H   0  0  0  0  0  0
   -3.2933    0.9405   30.9230 H   0  0  0  0  0  0
   -5.7754   -0.0178   29.4105 H   0  0  0  0  0  0
   -4.7364   -0.8175   32.1852 H   0  0  0  0  0  0
   -6.0908    0.2140   31.9121 H   0  0  0  0  0  0
   -7.3265   -1.5700   30.7177 H   0  0  0  0  0  0
   -6.8753   -2.1391   32.2873 H   0  0  0  0  0  0
   -4.9423   -3.3581   31.3327 H   0  0  0  0  0  0
   -5.8182   -2.3589   28.6081 H   0  0  0  0  0  0
   -4.4936   -3.4360   28.8970 H   0  0  0  0  0  0
   -3.6693   -1.1218   28.6083 H   0  0  0  0  0  0
   -3.2978   -1.6328   30.2147 H   0  0  0  0  0  0
   -7.0755   -4.5772   31.4538 H   0  0  0  0  0  0
   -7.5944   -3.9454   29.9039 H   0  0  0  0  0  0
   -5.1583   -5.5317   30.2060 H   0  0  0  0  0  0
   -6.6216   -6.2183   29.9816 H   0  0  0  0  0  0
   -0.3101    5.6708   30.6848 H   0  0  0  0  0  0
   -0.5457    3.0223   29.5343 H   0  0  0  0  0  0
   -0.1293    2.9044   31.2252 H   0  0  0  0  0  0
    1.1102    3.1826   27.9404 H   0  0  0  0  0  0
    3.4949    3.3158   27.3504 H   0  0  0  0  0  0
    5.1607    4.0146   29.0400 H   0  0  0  0  0  0
    4.4379    4.4981   31.3527 H   0  0  0  0  0  0
  1  6  1  0  0  0
  1  2  2  0  0  0
  2 17  1  0  0  0
  2  3  1  0  0  0
  3  4  2  0  0  0
  4  7  1  0  0  0
  4  5  1  0  0  0
  5 19  1  0  0  0
  5  6  2  0  0  0
  6 29  1  0  0  0
  7  8  1  0  0  0
  7 30  1  0  0  0
  8  9  1  0  0  0
  8 31  1  0  0  0
  8 32  1  0  0  0
  9 10  1  0  0  0
  9 14  1  0  0  0
  9 33  1  0  0  0
 10 11  1  0  0  0
 10 34  1  0  0  0
 10 35  1  0  0  0
 11 12  1  0  0  0
 11 36  1  0  0  0
 11 37  1  0  0  0
 12 13  1  0  0  0
 12 15  1  0  0  0
 12 38  1  0  0  0
 13 14  1  0  0  0
 13 39  1  0  0  0
 13 40  1  0  0  0
 14 41  1  0  0  0
 14 42  1  0  0  0
 15 16  1  0  0  0
 15 43  1  0  0  0
 15 44  1  0  0  0
 16 45  1  0  0  0
 16 46  1  0  0  0
 17 18  1  0  0  0
 17 47  1  0  0  0
 18 22  1  0  0  0
 18 48  1  0  0  0
 18 49  1  0  0  0
 19 20  2  0  0  0
 19 21  1  0  0  0
 22 23  2  0  0  0
 22 27  1  0  0  0
 23 24  1  0  0  0
 23 50  1  0  0  0
 24 25  2  0  0  0
 24 51  1  0  0  0
 25 26  1  0  0  0
 25 52  1  0  0  0
 26 27  2  0  0  0
 26 53  1  0  0  0
 27 28  1  0  0  0
M  CHG  2  19   1  21  -1
M  END
> <s_m_entry_id>
10312

> <s_m_entry_name>
dock_pv.381

> <s_m_Source_Path>
/home/csk/Desktop/cluster/DUD-E-result/met

> <s_m_Source_File>
dock_pv.maegz

> <i_m_Source_File_Index>
381

> <chembl_id>
CHEMBL246970

> <chembl_pref_name>
None

> <i_lp_mmshare_version>
53161

> <i_f3d_flags>
0

> <r_lp_tautomer_probability>
0.999999624730965

> <s_lp_Force_Field>
OPLS_2005

> <r_lp_Energy>
19.608908

> <b_lp_Chiralities_Consistent>
1

> <s_lp_Variant>
CHEMBL3717_lig3478-1

> <s_i_glide_gridfile>
glide-grid_3lq8

> <i_i_glide_lignum>
4296

> <i_i_glide_rotatable_bonds>
8

> <r_i_docking_score>
-7.48957891383332

> <r_i_glide_ligand_efficiency>
-0.267484961208333

> <r_i_glide_ligand_efficiency_sa>
-0.812241882445627

> <r_i_glide_ligand_efficiency_ln>
-1.72881471690505

> <r_i_glide_gscore>
-7.48957891383332

> <r_i_glide_lipo>
-3.02257567496248

> <r_i_glide_hbond>
-0.16

> <r_i_glide_metal>
0

> <r_i_glide_rewards>
-1.96468859728107

> <r_i_glide_evdw>
-41.8853797912598

> <r_i_glide_ecoul>
-6.44749927520752

> <r_i_glide_erotb>
0.719079239254349

> <r_i_glide_esite>
0

> <r_i_glide_emodel>
-64.5992657891708

> <r_i_glide_energy>
-48.3328790664673

> <r_i_glide_einternal>
9.30618190765381

> <i_i_glide_confnum>
16

> <i_i_glide_posenum>
252

> <r_i_glide_eff_state_penalty>
0

> <s_user_duplicate_titles>
CHEMBL3717_lig3478

> <s_m_subgroup_title>
dock_pv

> <s_m_subgroupid>
dock_pv

> <b_m_subgroup_collapsed>
1

$$$$
CHEMBL3717_lig595
                    3D
 Schrodinger Suite 2021-1.
 39 42  0  0  1  0            999 V2000
   -3.7913    6.1032   30.6081 N   0  0  0  0  0  0
   -2.4374    6.0718   30.6083 C   0  0  0  0  0  0
   -1.7010    4.8862   30.6484 C   0  0  0  0  0  0
   -2.4100    3.6850   30.6577 C   0  0  0  0  0  0
   -3.8107    3.6729   30.6071 C   0  0  0  0  0  0
   -4.4608    4.9238   30.6080 C   0  0  0  0  0  0
   -4.4832    2.3353   30.4818 C   0  0  0  0  0  0
   -3.6972    1.2196   30.6134 O   0  0  0  0  0  0
   -5.7497    2.0955   30.1952 N   0  0  0  0  0  0
   -0.2139    4.8782   30.6076 C   0  0  0  0  0  0
   -5.8146    0.7318   30.1122 C   0  0  0  0  0  0
   -4.5469    0.1884   30.3714 C   0  0  0  0  0  0
   -4.2758   -1.1827   30.3567 C   0  0  0  0  0  0
   -5.3557   -2.0210   30.0656 C   0  0  0  0  0  0
   -6.6322   -1.5056   29.8037 C   0  0  0  0  0  0
   -6.8850   -0.1275   29.8216 C   0  0  0  0  0  0
   -5.8463    5.0388   30.6033 N   0  0  0  0  0  0
    0.6663    3.8722   30.9897 C   0  0  0  0  0  0
    1.9305    4.3325   30.7336 N   0  0  0  0  0  0
    1.9061    5.5574   30.2080 N   0  0  0  0  0  0
    0.6396    5.8844   30.1370 C   0  0  0  0  0  0
    3.2123    3.7061   31.0586 C   0  0  0  0  0  0
    4.1626    3.6820   29.8424 C   0  0  0  0  0  0
    5.4236    3.1568   30.2080 O   0  0  0  0  0  0
   -1.9415    7.0303   30.5778 H   0  0  0  0  0  0
   -1.8570    2.7577   30.6512 H   0  0  0  0  0  0
   -3.2869   -1.5710   30.5499 H   0  0  0  0  0  0
   -5.1985   -3.0908   30.0377 H   0  0  0  0  0  0
   -7.4372   -2.1916   29.5760 H   0  0  0  0  0  0
   -7.8705    0.2623   29.6139 H   0  0  0  0  0  0
   -6.3854    4.1917   30.4835 H   0  0  0  0  0  0
   -6.2327    5.9410   30.3570 H   0  0  0  0  0  0
    0.5101    2.8923   31.4081 H   0  0  0  0  0  0
    0.3371    6.8417   29.7361 H   0  0  0  0  0  0
    2.9942    2.6898   31.3887 H   0  0  0  0  0  0
    3.6329    4.2955   31.8741 H   0  0  0  0  0  0
    4.2994    4.6818   29.4275 H   0  0  0  0  0  0
    3.7204    3.1098   29.0255 H   0  0  0  0  0  0
    5.8792    2.8655   29.4036 H   0  0  0  0  0  0
  1  6  1  0  0  0
  1  2  2  0  0  0
  2  3  1  0  0  0
  2 25  1  0  0  0
  3  4  2  0  0  0
  3 10  1  0  0  0
  4  5  1  0  0  0
  4 26  1  0  0  0
  5  6  2  0  0  0
  5  7  1  0  0  0
  6 17  1  0  0  0
  7  8  1  0  0  0
  7  9  2  0  0  0
  8 12  1  0  0  0
  9 11  1  0  0  0
 10 18  2  0  0  0
 10 21  1  0  0  0
 11 12  2  0  0  0
 11 16  1  0  0  0
 12 13  1  0  0  0
 13 14  2  0  0  0
 13 27  1  0  0  0
 14 15  1  0  0  0
 14 28  1  0  0  0
 15 16  2  0  0  0
 15 29  1  0  0  0
 16 30  1  0  0  0
 17 31  1  0  0  0
 17 32  1  0  0  0
 18 19  1  0  0  0
 18 33  1  0  0  0
 19 20  1  0  0  0
 19 22  1  0  0  0
 20 21  2  0  0  0
 21 34  1  0  0  0
 22 23  1  0  0  0
 22 35  1  0  0  0
 22 36  1  0  0  0
 23 24  1  0  0  0
 23 37  1  0  0  0
 23 38  1  0  0  0
 24 39  1  0  0  0
M  END
> <s_m_entry_id>
10313

> <s_m_entry_name>
dock_pv.382

> <s_m_Source_Path>
/home/csk/Desktop/cluster/DUD-E-result/met

> <s_m_Source_File>
dock_pv.maegz

> <i_m_Source_File_Index>
382

> <chembl_id>
CHEMBL1171224

> <chembl_pref_name>
None

> <i_lp_mmshare_version>
53161

> <i_f3d_flags>
0

> <r_lp_tautomer_probability>
0.999999772200052

> <s_lp_Force_Field>
OPLS_2005

> <r_lp_Energy>
19.973857

> <b_lp_Chiralities_Consistent>
1

> <s_lp_Variant>
CHEMBL3717_lig595-1

> <s_i_glide_gridfile>
glide-grid_3lq8

> <i_i_glide_lignum>
649

> <i_i_glide_rotatable_bonds>
5

> <r_i_docking_score>
-7.48800879874384

> <r_i_glide_ligand_efficiency>
-0.312000366614327

> <r_i_glide_ligand_efficiency_sa>
-0.899964788417154

> <r_i_glide_ligand_efficiency_ln>
-1.79222410787375

> <r_i_glide_gscore>
-7.48800879874384

> <r_i_glide_lipo>
-2.8668022190099

> <r_i_glide_hbond>
-0.35643102118141

> <r_i_glide_metal>
0

> <r_i_glide_rewards>
-2.11486196940924

> <r_i_glide_evdw>
-39.6509246826172

> <r_i_glide_ecoul>
-5.94140434265137

> <r_i_glide_erotb>
0.72384329638528

> <r_i_glide_esite>
0

> <r_i_glide_emodel>
-63.2793156280668

> <r_i_glide_energy>
-45.5923290252686

> <r_i_glide_einternal>
3.44320011138916

> <i_i_glide_confnum>
20

> <i_i_glide_posenum>
87

> <r_i_glide_eff_state_penalty>
0

> <s_user_duplicate_titles>
CHEMBL3717_lig595

> <s_m_subgroup_title>
dock_pv

> <s_m_subgroupid>
dock_pv

> <b_m_subgroup_collapsed>
1

$$$$
CHEMBL3717_lig3325 
                    3D
 Schrodinger Suite 2021-1.
 49 53  0  0  1  0            999 V2000
   -4.1740    5.8994   30.9346 C   0  0  0  0  0  0
   -3.0988    5.0083   30.7595 C   0  0  0  0  0  0
   -3.3113    3.6641   30.6063 N   0  0  0  0  0  0
   -5.4779    5.5179   30.8673 N   0  0  0  0  0  0
   -5.6874    4.2234   30.6102 C   0  0  0  0  0  0
   -4.6015    3.3157   30.4992 C   0  0  0  0  0  0
   -5.1901    2.0897   30.2587 N   0  0  0  0  0  0
   -6.5498    2.3465   30.2085 C   0  0  0  0  0  0
   -6.8871    3.5931   30.4339 N   0  0  0  0  0  0
   -4.5256    0.8131   30.0053 C   0  0  0  0  0  0
   -5.3375   -0.4174   30.3969 C   0  0  0  0  0  0
   -6.0813   -1.0976   29.4289 C   0  0  0  0  0  0
   -6.8183   -2.2319   29.7576 C   0  0  0  0  0  0
   -5.3380   -0.8683   31.7216 C   0  0  0  0  0  0
   -6.0753   -2.0230   32.0847 C   0  0  0  0  0  0
   -6.8246   -2.7167   31.0858 C   0  0  0  0  0  0
   -7.5542   -3.8318   31.3720 N   0  0  0  0  0  0
   -7.5557   -4.2909   32.6470 C   0  0  0  0  0  0
   -6.8609   -3.6765   33.6845 C   0  0  0  0  0  0
   -6.1126   -2.5330   33.4088 C   0  0  0  0  0  0
   -1.6874    5.4824   30.6079 C   0  0  0  0  0  0
   -1.4440    6.7657   30.1036 C   0  0  0  0  0  0
   -0.1575    7.2003   29.8122 C   0  0  0  0  0  0
    0.9185    6.3510   30.0243 C   0  0  0  0  0  0
    0.7359    5.0507   30.5112 C   0  0  0  0  0  0
   -0.5782    4.6451   30.8151 C   0  0  0  0  0  0
    1.8379    4.1652   30.6527 N   0  0  0  0  0  0
    1.7724    3.1078   31.6534 C   0  0  0  0  0  0
    3.1664    4.5116   30.1502 C   0  0  0  0  0  0
   -4.0218    6.9541   31.0898 H   0  0  0  0  0  0
   -7.2414    1.5420   30.0025 H   0  0  0  0  0  0
   -3.5807    0.8042   30.5505 H   0  0  0  0  0  0
   -4.2709    0.7791   28.9455 H   0  0  0  0  0  0
   -6.0885   -0.7506   28.4053 H   0  0  0  0  0  0
   -7.3864   -2.7512   29.0005 H   0  0  0  0  0  0
   -4.7742   -0.3436   32.4814 H   0  0  0  0  0  0
   -8.1497   -5.1750   32.8306 H   0  0  0  0  0  0
   -6.9060   -4.0735   34.6869 H   0  0  0  0  0  0
   -5.5709   -2.0384   34.2021 H   0  0  0  0  0  0
   -2.2558    7.4408   29.8891 H   0  0  0  0  0  0
    0.0042    8.1955   29.4201 H   0  0  0  0  0  0
    1.9050    6.7266   29.8092 H   0  0  0  0  0  0
   -0.7561    3.6406   31.1654 H   0  0  0  0  0  0
    1.5163    3.5574   32.6104 H   0  0  0  0  0  0
    1.0088    2.3716   31.4094 H   0  0  0  0  0  0
    2.7225    2.5840   31.7724 H   0  0  0  0  0  0
    3.6898    5.1544   30.8576 H   0  0  0  0  0  0
    3.7665    3.6136   29.9959 H   0  0  0  0  0  0
    3.1147    5.0252   29.1870 H   0  0  0  0  0  0
  1  2  2  0  0  0
  1  4  1  0  0  0
  1 30  1  0  0  0
  2  3  1  0  0  0
  2 21  1  0  0  0
  3  6  2  0  0  0
  4  5  2  0  0  0
  5  6  1  0  0  0
  5  9  1  0  0  0
  6  7  1  0  0  0
  7  8  1  0  0  0
  7 10  1  0  0  0
  8  9  2  0  0  0
  8 31  1  0  0  0
 10 11  1  0  0  0
 10 32  1  0  0  0
 10 33  1  0  0  0
 11 12  2  0  0  0
 11 14  1  0  0  0
 12 13  1  0  0  0
 12 34  1  0  0  0
 13 16  2  0  0  0
 13 35  1  0  0  0
 14 15  2  0  0  0
 14 36  1  0  0  0
 15 16  1  0  0  0
 15 20  1  0  0  0
 16 17  1  0  0  0
 17 18  2  0  0  0
 18 19  1  0  0  0
 18 37  1  0  0  0
 19 20  2  0  0  0
 19 38  1  0  0  0
 20 39  1  0  0  0
 21 22  2  0  0  0
 21 26  1  0  0  0
 22 23  1  0  0  0
 22 40  1  0  0  0
 23 24  2  0  0  0
 23 41  1  0  0  0
 24 25  1  0  0  0
 24 42  1  0  0  0
 25 26  2  0  0  0
 25 27  1  0  0  0
 26 43  1  0  0  0
 27 28  1  0  0  0
 27 29  1  0  0  0
 28 44  1  0  0  0
 28 45  1  0  0  0
 28 46  1  0  0  0
 29 47  1  0  0  0
 29 48  1  0  0  0
 29 49  1  0  0  0
M  END
> <s_m_entry_id>
10314

> <s_m_entry_name>
dock_pv.383

> <s_m_Source_Path>
/home/csk/Desktop/cluster/DUD-E-result/met

> <s_m_Source_File>
dock_pv.maegz

> <i_m_Source_File_Index>
383

> <chembl_id>
CHEMBL4565038

> <chembl_pref_name>
None

> <i_lp_mmshare_version>
53161

> <i_f3d_flags>
0

> <r_lp_tautomer_probability>
1

> <s_lp_Force_Field>
OPLS_2005

> <r_lp_Energy>
34.44102

> <b_lp_Chiralities_Consistent>
1

> <s_lp_Variant>
CHEMBL3717_lig3325 -1

> <s_i_glide_gridfile>
glide-grid_3lq8

> <i_i_glide_lignum>
4048

> <i_i_glide_rotatable_bonds>
4

> <r_i_docking_score>
-7.48640019996494

> <r_i_glide_ligand_efficiency>
-0.258151731033274

> <r_i_glide_ligand_efficiency_sa>
-0.793123905943227

> <r_i_glide_ligand_efficiency_ln>
-1.71419580706263

> <r_i_glide_gscore>
-7.48640019996494

> <r_i_glide_lipo>
-3.22037133500488

> <r_i_glide_hbond>
0

> <r_i_glide_metal>
0

> <r_i_glide_rewards>
-2.65922508485734

> <r_i_glide_evdw>
-41.2299995422363

> <r_i_glide_ecoul>
0.350533276796341

> <r_i_glide_erotb>
0.402116205489646

> <r_i_glide_esite>
0

> <r_i_glide_emodel>
-53.1352645711456

> <r_i_glide_energy>
-40.87946626544

> <r_i_glide_einternal>
4.84113502502441

> <i_i_glide_confnum>
7

> <i_i_glide_posenum>
47

> <r_i_glide_eff_state_penalty>
0

> <s_user_duplicate_titles>
CHEMBL3717_lig3325 

> <s_m_subgroup_title>
dock_pv

> <s_m_subgroupid>
dock_pv

> <b_m_subgroup_collapsed>
1

$$$$
CHEMBL3717_lig1316
                    3D
 Schrodinger Suite 2021-1.
 40 44  0  0  1  0            999 V2000
    5.1058    4.3567   28.2083 N   0  0  0  0  0  0
    6.2619    4.6319   28.8491 C   0  0  0  0  0  0
    6.3657    4.7552   30.2279 C   0  0  0  0  0  0
    5.2205    4.5915   30.9948 C   0  0  0  0  0  0
    3.9871    4.2774   30.3677 C   0  0  0  0  0  0
    2.7716    4.1160   31.0778 C   0  0  0  0  0  0
    1.5923    3.8146   30.3888 C   0  0  0  0  0  0
    1.6126    3.6242   29.0084 C   0  0  0  0  0  0
    2.7880    3.7855   28.2842 C   0  0  0  0  0  0
    3.9858    4.1413   28.9474 C   0  0  0  0  0  0
    0.2686    3.7301   31.1337 C   0  0  0  0  0  0
   -2.4945    5.9920   30.3475 C   0  0  0  0  0  0
   -2.0700    4.6688   30.6081 C   0  0  0  0  0  0
   -3.7861    6.2939   30.2083 N   0  0  0  0  0  0
   -2.8862    3.6066   30.6270 N   0  0  0  0  0  0
   -4.2015    3.9019   30.3746 C   0  0  0  0  0  0
   -4.6345    5.2297   30.2132 C   0  0  0  0  0  0
   -0.6980    4.7626   30.7664 N   0  0  0  0  0  0
   -0.3038    6.0364   30.5325 N   0  0  0  0  0  0
   -1.4084    6.8018   30.2100 N   0  0  0  0  0  0
   -5.1307    2.7444   30.2083 C   0  0  0  0  0  0
   -4.6953    1.5515   29.6102 C   0  0  0  0  0  0
   -5.5748    0.4921   29.4085 C   0  0  0  0  0  0
   -6.9007    0.6111   29.8106 C   0  0  0  0  0  0
   -7.3513    1.7817   30.4127 C   0  0  0  0  0  0
   -6.4712    2.8431   30.6074 C   0  0  0  0  0  0
   -7.7591   -0.4149   29.6135 F   0  0  0  0  0  0
    7.1311    4.7565   28.2203 H   0  0  0  0  0  0
    7.3116    5.0058   30.6872 H   0  0  0  0  0  0
    5.2656    4.7563   32.0597 H   0  0  0  0  0  0
    2.7653    4.2537   32.1498 H   0  0  0  0  0  0
    0.7025    3.3744   28.4810 H   0  0  0  0  0  0
    2.7839    3.6584   27.2110 H   0  0  0  0  0  0
   -0.1849    2.7574   30.9542 H   0  0  0  0  0  0
    0.4354    3.8094   32.2069 H   0  0  0  0  0  0
   -5.6680    5.4735   30.0114 H   0  0  0  0  0  0
   -3.6751    1.4477   29.2751 H   0  0  0  0  0  0
   -5.2356   -0.4172   28.9308 H   0  0  0  0  0  0
   -8.3804    1.8638   30.7264 H   0  0  0  0  0  0
   -6.8409    3.7435   31.0746 H   0  0  0  0  0  0
  1  2  2  0  0  0
  1 10  1  0  0  0
  2  3  1  0  0  0
  2 28  1  0  0  0
  3  4  2  0  0  0
  3 29  1  0  0  0
  4  5  1  0  0  0
  4 30  1  0  0  0
  5  6  2  0  0  0
  5 10  1  0  0  0
  6  7  1  0  0  0
  6 31  1  0  0  0
  7  8  2  0  0  0
  7 11  1  0  0  0
  8  9  1  0  0  0
  8 32  1  0  0  0
  9 10  2  0  0  0
  9 33  1  0  0  0
 11 18  1  0  0  0
 11 34  1  0  0  0
 11 35  1  0  0  0
 12 13  1  0  0  0
 12 14  2  0  0  0
 12 20  1  0  0  0
 13 15  2  0  0  0
 13 18  1  0  0  0
 14 17  1  0  0  0
 15 16  1  0  0  0
 16 17  2  0  0  0
 16 21  1  0  0  0
 17 36  1  0  0  0
 18 19  1  0  0  0
 19 20  2  0  0  0
 21 22  1  0  0  0
 21 26  2  0  0  0
 22 23  2  0  0  0
 22 37  1  0  0  0
 23 24  1  0  0  0
 23 38  1  0  0  0
 24 25  2  0  0  0
 24 27  1  0  0  0
 25 26  1  0  0  0
 25 39  1  0  0  0
 26 40  1  0  0  0
M  END
> <s_m_entry_id>
10315

> <s_m_entry_name>
dock_pv.384

> <s_m_Source_Path>
/home/csk/Desktop/cluster/DUD-E-result/met

> <s_m_Source_File>
dock_pv.maegz

> <i_m_Source_File_Index>
384

> <chembl_id>
CHEMBL2169896

> <chembl_pref_name>
None

> <i_lp_mmshare_version>
53161

> <i_f3d_flags>
0

> <r_lp_tautomer_probability>
1

> <s_lp_Force_Field>
OPLS_2005

> <r_lp_Energy>
27.527454

> <b_lp_Chiralities_Consistent>
1

> <s_lp_Variant>
CHEMBL3717_lig1316-1

> <s_i_glide_gridfile>
glide-grid_3lq8

> <i_i_glide_lignum>
1502

> <i_i_glide_rotatable_bonds>
3

> <r_i_docking_score>
-7.48575217112329

> <r_i_glide_ligand_efficiency>
-0.277250080411974

> <r_i_glide_ligand_efficiency_sa>
-0.83175024032215

> <r_i_glide_ligand_efficiency_ln>
-1.74255969316777

> <r_i_glide_gscore>
-7.48575217112329

> <r_i_glide_lipo>
-3.26913843430346

> <r_i_glide_hbond>
-0.0460381862838514

> <r_i_glide_metal>
0

> <r_i_glide_rewards>
-2.35612662170564

> <r_i_glide_evdw>
-39.6329498291016

> <r_i_glide_ecoul>
-1.89840877056122

> <r_i_glide_erotb>
0.451959878208927

> <r_i_glide_esite>
0

> <r_i_glide_emodel>
-58.4658175215801

> <r_i_glide_energy>
-41.5313585996628

> <r_i_glide_einternal>
1.00192165374756

> <i_i_glide_confnum>
6

> <i_i_glide_posenum>
116

> <r_i_glide_eff_state_penalty>
0

> <s_user_duplicate_titles>
CHEMBL3717_lig1316

> <s_m_subgroup_title>
dock_pv

> <s_m_subgroupid>
dock_pv

> <b_m_subgroup_collapsed>
1

$$$$
CHEMBL3717_lig443
                    3D
 Schrodinger Suite 2021-1.
 29 32  0  0  1  0            999 V2000
    5.6125    4.5368   30.5399 C   0  0  0  0  0  0
    5.9129    4.5415   29.1845 C   0  0  0  0  0  0
    4.9983    4.3570   28.2080 N   0  0  0  0  0  0
    4.2898    4.3570   30.9647 C   0  0  0  0  0  0
    3.3278    4.2612   29.9504 C   0  0  0  0  0  0
    3.7290    4.1905   28.5885 C   0  0  0  0  0  0
    2.5671    3.9116   27.8080 C   0  0  0  0  0  0
    1.5060    3.9454   28.6714 C   0  0  0  0  0  0
    1.9417    4.2444   29.9392 N   0  0  0  0  0  0
    0.8758    4.2665   31.2587 S   0  0  0  0  0  0
    0.4894    2.8707   31.4080 O   0  0  0  0  0  0
    1.5060    5.0309   32.3363 O   0  0  0  0  0  0
   -0.5792    5.1788   30.7203 C   0  0  0  0  0  0
   -1.9981    6.7728   30.0440 N   0  0  0  0  0  0
   -0.7295    6.4590   30.2080 C   0  0  0  0  0  0
   -2.6601    5.6654   30.2903 C   0  0  0  0  0  0
   -1.8426    4.6224   30.6847 N   0  0  0  0  0  0
   -2.4940    3.4176   30.8949 C   0  0  0  0  0  0
   -3.8429    3.5168   30.6080 C   0  0  0  0  0  0
   -4.3360    5.1570   30.2080 S   0  0  0  0  0  0
    0.5200    7.5570   29.8080 Cl  0  0  0  0  0  0
    6.6259    4.7570   31.4285 O   0  0  0  0  0  0
    6.9284    4.6815   28.8428 H   0  0  0  0  0  0
    4.0153    4.3914   32.0073 H   0  0  0  0  0  0
    2.4878    3.7259   26.7506 H   0  0  0  0  0  0
    0.4525    3.7822   28.4896 H   0  0  0  0  0  0
   -1.9464    2.5386   31.2024 H   0  0  0  0  0  0
   -4.5878    2.7332   30.6628 H   0  0  0  0  0  0
    7.4323    5.0475   30.9930 H   0  0  0  0  0  0
  1  2  2  0  0  0
  1  4  1  0  0  0
  1 22  1  0  0  0
  2  3  1  0  0  0
  2 23  1  0  0  0
  3  6  2  0  0  0
  4  5  2  0  0  0
  4 24  1  0  0  0
  5  6  1  0  0  0
  5  9  1  0  0  0
  6  7  1  0  0  0
  7  8  2  0  0  0
  7 25  1  0  0  0
  8  9  1  0  0  0
  8 26  1  0  0  0
  9 10  1  0  0  0
 10 11  2  0  0  0
 10 12  2  0  0  0
 10 13  1  0  0  0
 13 17  1  0  0  0
 13 15  2  0  0  0
 14 16  2  0  0  0
 14 15  1  0  0  0
 15 21  1  0  0  0
 16 17  1  0  0  0
 16 20  1  0  0  0
 17 18  1  0  0  0
 18 19  2  0  0  0
 18 27  1  0  0  0
 19 20  1  0  0  0
 19 28  1  0  0  0
 22 29  1  0  0  0
M  END
> <s_m_entry_id>
10316

> <s_m_entry_name>
dock_pv.385

> <s_m_Source_Path>
/home/csk/Desktop/cluster/DUD-E-result/met

> <s_m_Source_File>
dock_pv.maegz

> <i_m_Source_File_Index>
385

> <chembl_id>
CHEMBL561058

> <chembl_pref_name>
None

> <i_lp_mmshare_version>
53161

> <i_f3d_flags>
0

> <r_lp_tautomer_probability>
1

> <s_lp_Force_Field>
OPLS_2005

> <r_lp_Energy>
2.738177

> <b_lp_Chiralities_Consistent>
1

> <s_lp_Variant>
CHEMBL3717_lig443-1

> <s_i_glide_gridfile>
glide-grid_3lq8

> <i_i_glide_lignum>
467

> <i_i_glide_rotatable_bonds>
3

> <r_i_docking_score>
-7.48426496336244

> <r_i_glide_ligand_efficiency>
-0.34019386197102

> <r_i_glide_ligand_efficiency_sa>
-0.953236580308183

> <r_i_glide_ligand_efficiency_ln>
-1.82942735224335

> <r_i_glide_gscore>
-7.48426496336244

> <r_i_glide_lipo>
-3.13389114480411

> <r_i_glide_hbond>
0

> <r_i_glide_metal>
0

> <r_i_glide_rewards>
-2.53684728772833

> <r_i_glide_evdw>
-34.7889862060547

> <r_i_glide_ecoul>
-2.51833295822144

> <r_i_glide_erotb>
0.30367272320595

> <r_i_glide_esite>
0

> <r_i_glide_emodel>
-49.5991867563013

> <r_i_glide_energy>
-37.3073191642761

> <r_i_glide_einternal>
2.62889051437378

> <i_i_glide_confnum>
2

> <i_i_glide_posenum>
148

> <r_i_glide_eff_state_penalty>
0

> <s_user_duplicate_titles>
CHEMBL3717_lig443,555044

> <s_m_subgroup_title>
dock_pv

> <s_m_subgroupid>
dock_pv

> <b_m_subgroup_collapsed>
1

$$$$
CHEMBL3717_lig3612
                    3D
 Schrodinger Suite 2021-1.
 39 42  0  0  1  0            999 V2000
   -4.4939    6.8714   30.6080 Cl  0  0  0  0  0  0
   -4.6499   -0.0778   29.4123 N   0  0  0  0  0  0
   -3.7867   -1.8662   30.7962 N   0  0  0  0  0  0
   -2.1708    5.6968   30.9407 N   0  0  0  0  0  0
   -0.0334    4.9443   31.4063 N   0  0  0  0  0  0
   -3.6834    1.7195   30.3997 C   0  0  0  0  0  0
   -3.3045    0.5262   31.1218 C   0  0  0  0  0  0
   -3.1860    3.1090   30.6080 C   0  0  0  0  0  0
   -3.9177   -0.5785   30.4628 C   0  0  0  0  0  0
   -4.5434    1.2925   29.3982 C   0  0  0  0  0  0
   -1.8471    3.3191   30.9537 C   0  0  0  0  0  0
   -4.0209    4.2212   30.4676 C   0  0  0  0  0  0
   -1.3599    4.6254   31.0835 C   0  0  0  0  0  0
   -2.5012    0.2305   32.2417 C   0  0  0  0  0  0
   -3.4789    5.4924   30.6637 C   0  0  0  0  0  0
   -2.3321   -1.1084   32.6047 C   0  0  0  0  0  0
   -2.9840   -2.0996   31.8668 C   0  0  0  0  0  0
    1.0161    3.9665   31.6802 C   0  0  0  0  0  0
    2.0618    3.9648   30.5774 C   0  0  0  0  0  0
    3.3685    4.3567   30.8752 C   0  0  0  0  0  0
    1.7289    3.5581   29.2818 C   0  0  0  0  0  0
    4.3406    4.3564   29.8802 C   0  0  0  0  0  0
    2.7012    3.5532   28.2865 C   0  0  0  0  0  0
    3.9999    3.9566   28.5922 C   0  0  0  0  0  0
   -5.1601   -0.6036   28.7134 H   0  0  0  0  0  0
    0.2091    5.9232   31.4447 H   0  0  0  0  0  0
   -5.0373    1.8514   28.6175 H   0  0  0  0  0  0
   -1.2060    2.4684   31.0685 H   0  0  0  0  0  0
   -5.0684    4.1017   30.2338 H   0  0  0  0  0  0
   -2.0119    1.0165   32.7971 H   0  0  0  0  0  0
   -1.7025   -1.3775   33.4413 H   0  0  0  0  0  0
   -2.8731   -3.1414   32.1325 H   0  0  0  0  0  0
    0.6372    2.9558   31.8076 H   0  0  0  0  0  0
    1.4822    4.2310   32.6312 H   0  0  0  0  0  0
    3.6311    4.6677   31.8750 H   0  0  0  0  0  0
    0.7220    3.2416   29.0479 H   0  0  0  0  0  0
    5.3515    4.6633   30.1043 H   0  0  0  0  0  0
    2.4484    3.2363   27.2846 H   0  0  0  0  0  0
    4.7577    3.9470   27.8225 H   0  0  0  0  0  0
  1 15  1  0  0  0
  2  9  1  0  0  0
  2 10  1  0  0  0
  2 25  1  0  0  0
  3  9  2  0  0  0
  3 17  1  0  0  0
  4 13  2  0  0  0
  4 15  1  0  0  0
  5 13  1  0  0  0
  5 18  1  0  0  0
  5 26  1  0  0  0
  6  7  1  0  0  0
  6  8  1  0  0  0
  6 10  2  0  0  0
  7  9  1  0  0  0
  7 14  2  0  0  0
  8 11  2  0  0  0
  8 12  1  0  0  0
 10 27  1  0  0  0
 11 13  1  0  0  0
 11 28  1  0  0  0
 12 15  2  0  0  0
 12 29  1  0  0  0
 14 16  1  0  0  0
 14 30  1  0  0  0
 16 17  2  0  0  0
 16 31  1  0  0  0
 17 32  1  0  0  0
 18 19  1  0  0  0
 18 33  1  0  0  0
 18 34  1  0  0  0
 19 20  2  0  0  0
 19 21  1  0  0  0
 20 22  1  0  0  0
 20 35  1  0  0  0
 21 23  2  0  0  0
 21 36  1  0  0  0
 22 24  2  0  0  0
 22 37  1  0  0  0
 23 24  1  0  0  0
 23 38  1  0  0  0
 24 39  1  0  0  0
M  END
> <s_m_entry_id>
10317

> <s_m_entry_name>
dock_pv.386

> <s_m_Source_Path>
/home/csk/Desktop/cluster/DUD-E-result/met

> <s_m_Source_File>
dock_pv.maegz

> <i_m_Source_File_Index>
386

> <chembl_id>
CHEMBL1969588

> <chembl_pref_name>
None

> <i_lp_mmshare_version>
53161

> <i_f3d_flags>
0

> <r_lp_tautomer_probability>
0.999998204729223

> <s_lp_Force_Field>
OPLS_2005

> <r_lp_Energy>
11.361185

> <b_lp_Chiralities_Consistent>
1

> <s_lp_Variant>
CHEMBL3717_lig3612-1

> <s_i_glide_gridfile>
glide-grid_3lq8

> <i_i_glide_lignum>
4493

> <i_i_glide_rotatable_bonds>
4

> <r_i_docking_score>
-7.4842044285995

> <r_i_glide_ligand_efficiency>
-0.311841851191646

> <r_i_glide_ligand_efficiency_sa>
-0.899507550817141

> <r_i_glide_ligand_efficiency_ln>
-1.79131354752704

> <r_i_glide_gscore>
-7.4842044285995

> <r_i_glide_lipo>
-4.07718935013883

> <r_i_glide_hbond>
-0.0187360732852823

> <r_i_glide_metal>
0

> <r_i_glide_rewards>
-1.96093809133509

> <r_i_glide_evdw>
-41.0924530029297

> <r_i_glide_ecoul>
0.0345312915742397

> <r_i_glide_erotb>
0.673204063195951

> <r_i_glide_esite>
-0.0511020206258956

> <r_i_glide_emodel>
-56.1537995394348

> <r_i_glide_energy>
-41.0579217113554

> <r_i_glide_einternal>
5.85857057571411

> <i_i_glide_confnum>
31

> <i_i_glide_posenum>
94

> <r_i_glide_eff_state_penalty>
0

> <s_user_duplicate_titles>
CHEMBL3717_lig3612

> <s_m_subgroup_title>
dock_pv

> <s_m_subgroupid>
dock_pv

> <b_m_subgroup_collapsed>
1

$$$$
CHEMBL3717_lig3499
                    3D
 Schrodinger Suite 2021-1.
 42 45  0  0  1  0            999 V2000
   -5.8312    5.1117   30.2080 Cl  0  0  0  0  0  0
    4.5980    3.1578   30.2699 O   0  0  0  0  0  0
   -2.1019    2.7759   31.0081 N   0  0  0  0  0  0
   -3.8784   -1.4687   30.7776 N   0  0  0  0  0  0
   -4.4624    2.8522   30.5027 N   0  0  0  0  0  0
   -2.3926   -2.4430   32.4228 N   0  0  0  0  0  0
   -0.7901    4.7707   31.0017 N   0  0  0  0  0  0
   -3.3795    0.7266   31.0248 C   0  0  0  0  0  0
   -2.6257   -0.0409   31.9897 C   0  0  0  0  0  0
   -3.3135    2.1994   30.8141 C   0  0  0  0  0  0
   -2.9326   -1.4097   31.7735 C   0  0  0  0  0  0
   -4.1659   -0.1970   30.3443 C   0  0  0  0  0  0
   -2.0320    4.1269   30.8750 C   0  0  0  0  0  0
   -1.6952    0.2463   33.0080 C   0  0  0  0  0  0
   -4.3816    4.2094   30.4403 C   0  0  0  0  0  0
   -3.1717    4.8915   30.6079 C   0  0  0  0  0  0
    0.4737    4.0318   30.9288 C   0  0  2  0  0  0
   -1.0945   -0.8200   33.6840 C   0  0  0  0  0  0
   -1.4625   -2.1215   33.3622 C   0  0  0  0  0  0
    1.5107    4.7445   31.8038 C   0  0  0  0  0  0
    0.9511    3.9585   29.4601 C   0  0  0  0  0  0
    3.3997    3.9098   30.2776 C   0  0  2  0  0  0
    2.8767    4.0363   31.7265 C   0  0  0  0  0  0
    2.3433    3.2992   29.3279 C   0  0  0  0  0  0
    4.8174    2.9160   29.3641 H   0  0  0  0  0  0
   -4.2995   -2.2995   30.3842 H   0  0  0  0  0  0
   -0.7599    5.7540   30.7814 H   0  0  0  0  0  0
   -4.8769   -0.0527   29.5420 H   0  0  0  0  0  0
   -1.4211    1.2648   33.2334 H   0  0  0  0  0  0
   -3.1312    5.9680   30.5377 H   0  0  0  0  0  0
    0.3324    3.0160   31.3007 H   0  0  0  0  0  0
   -0.3597   -0.6468   34.4547 H   0  0  0  0  0  0
   -1.0034   -2.9566   33.8718 H   0  0  0  0  0  0
    1.6139    5.7815   31.4783 H   0  0  0  0  0  0
    1.1726    4.7807   32.8405 H   0  0  0  0  0  0
    0.2335    3.3903   28.8676 H   0  0  0  0  0  0
    0.9807    4.9582   29.0239 H   0  0  0  0  0  0
    3.6699    4.9094   29.9315 H   0  0  0  0  0  0
    2.7941    3.0449   32.1752 H   0  0  0  0  0  0
    3.5997    4.5817   32.3314 H   0  0  0  0  0  0
    2.2527    2.2315   29.5320 H   0  0  0  0  0  0
    2.6831    3.3757   28.2940 H   0  0  0  0  0  0
  1 15  1  0  0  0
  2 22  1  0  0  0
  2 25  1  0  0  0
  3 10  2  0  0  0
  3 13  1  0  0  0
  4 11  1  0  0  0
  4 12  1  0  0  0
  4 26  1  0  0  0
  5 10  1  0  0  0
  5 15  2  0  0  0
  6 11  2  0  0  0
  6 19  1  0  0  0
  7 13  1  0  0  0
  7 17  1  0  0  0
  7 27  1  0  0  0
  8  9  1  0  0  0
  8 10  1  0  0  0
  8 12  2  0  0  0
  9 11  1  0  0  0
  9 14  2  0  0  0
 12 28  1  0  0  0
 13 16  2  0  0  0
 14 18  1  0  0  0
 14 29  1  0  0  0
 15 16  1  0  0  0
 16 30  1  0  0  0
 17 20  1  0  0  0
 17 21  1  0  0  0
 17 31  1  0  0  0
 18 19  2  0  0  0
 18 32  1  0  0  0
 19 33  1  0  0  0
 20 23  1  0  0  0
 20 34  1  0  0  0
 20 35  1  0  0  0
 21 24  1  0  0  0
 21 36  1  0  0  0
 21 37  1  0  0  0
 22 23  1  0  0  0
 22 24  1  0  0  0
 22 38  1  0  0  0
 23 39  1  0  0  0
 23 40  1  0  0  0
 24 41  1  0  0  0
 24 42  1  0  0  0
M  END
> <s_m_entry_id>
10318

> <s_m_entry_name>
dock_pv.387

> <s_m_Source_Path>
/home/csk/Desktop/cluster/DUD-E-result/met

> <s_m_Source_File>
dock_pv.maegz

> <i_m_Source_File_Index>
387

> <chembl_id>
CHEMBL1991674

> <chembl_pref_name>
None

> <i_lp_mmshare_version>
53161

> <i_f3d_flags>
0

> <r_lp_tautomer_probability>
0.999998015729938

> <s_lp_Force_Field>
OPLS_2005

> <r_lp_Energy>
6.694858

> <b_lp_Chiralities_Consistent>
1

> <s_lp_Variant>
CHEMBL3717_lig3499-1

> <s_i_glide_gridfile>
glide-grid_3lq8

> <i_i_glide_lignum>
4323

> <i_i_glide_rotatable_bonds>
4

> <r_i_docking_score>
-7.47565076632312

> <r_i_glide_ligand_efficiency>
-0.311485448596796

> <r_i_glide_ligand_efficiency_sa>
-0.898479507839675

> <r_i_glide_ligand_efficiency_ln>
-1.78926626364231

> <r_i_glide_gscore>
-7.47565076632312

> <r_i_glide_lipo>
-3.91440638787945

> <r_i_glide_hbond>
-0.0722262077165758

> <r_i_glide_metal>
0

> <r_i_glide_rewards>
-1.55159335883469

> <r_i_glide_evdw>
-41.5453109741211

> <r_i_glide_ecoul>
-2.26186275482178

> <r_i_glide_erotb>
0.481693526222459

> <r_i_glide_esite>
-0.00257337618552968

> <r_i_glide_emodel>
-61.2900171880829

> <r_i_glide_energy>
-43.8071737289429

> <r_i_glide_einternal>
3.91382312774658

> <i_i_glide_confnum>
3

> <i_i_glide_posenum>
37

> <r_i_glide_eff_state_penalty>
0

> <s_user_duplicate_titles>
CHEMBL3717_lig3499

> <s_m_subgroup_title>
dock_pv

> <s_m_subgroupid>
dock_pv

> <b_m_subgroup_collapsed>
1

$$$$
CHEMBL3717_lig2654
                    3D
 Schrodinger Suite 2021-1.
 48 51  0  0  1  0            999 V2000
   -3.8496   -3.2847   28.3692 C   0  0  0  0  0  0
   -3.7304   -2.2178   29.4438 C   0  0  0  0  0  0
   -4.7602   -1.4668   29.9157 C   0  0  0  0  0  0
   -6.0871   -1.5858   29.4023 C   0  0  0  0  0  0
   -7.1794   -1.6406   29.0223 N   0  0  0  0  0  0
   -4.5420   -0.5452   31.1115 C   0  0  1  0  0  0
   -3.3243   -1.0842   31.9827 C   0  0  2  0  0  0
   -2.6418   -0.0541   32.7858 C   0  0  0  0  0  0
   -2.0940    0.7507   33.4079 N   0  0  0  0  0  0
   -2.2614   -1.8233   31.1418 C   0  0  0  0  0  0
   -2.4679   -2.2172   29.9488 N   0  0  0  0  0  0
   -0.8956   -2.1445   31.7331 C   0  0  0  0  0  0
   -4.5577    0.9527   30.7402 C   0  0  0  0  0  0
   -5.7758    1.6341   30.6081 C   0  0  0  0  0  0
   -5.8336    3.0213   30.4277 C   0  0  0  0  0  0
   -4.6335    3.7513   30.4611 C   0  0  0  0  0  0
   -4.4542    5.1083   30.4227 N   0  0  0  0  0  0
   -3.1229    5.2428   30.5838 N   0  0  0  0  0  0
   -2.4131    4.0697   30.6751 C   0  0  0  0  0  0
   -0.7066    3.8471   31.0080 S   0  0  0  0  0  0
    0.1318    5.2458   30.2362 C   0  0  0  0  0  0
    1.4847    4.7296   29.7838 C   0  0  0  0  0  0
    2.5716    4.7533   30.6609 C   0  0  0  0  0  0
    3.7895    4.2020   30.2762 C   0  0  0  0  0  0
    3.9058    3.6059   29.0240 C   0  0  0  0  0  0
    2.8220    3.5570   28.1526 C   0  0  0  0  0  0
    1.6117    4.1266   28.5325 C   0  0  0  0  0  0
   -3.3956    3.0594   30.5805 C   0  0  0  0  0  0
   -3.3672    1.6635   30.6101 C   0  0  0  0  0  0
   -4.8901   -3.5491   28.2080 H   0  0  0  0  0  0
   -3.4093   -2.9386   27.4339 H   0  0  0  0  0  0
   -3.3363   -4.2060   28.6497 H   0  0  0  0  0  0
   -5.4165   -0.6517   31.7579 H   0  0  0  0  0  0
   -3.7192   -1.8163   32.6871 H   0  0  0  0  0  0
   -0.9974   -2.7849   32.6083 H   0  0  0  0  0  0
   -0.2461   -2.6646   31.0268 H   0  0  0  0  0  0
   -0.3712   -1.2430   32.0448 H   0  0  0  0  0  0
   -6.7033    1.0831   30.6727 H   0  0  0  0  0  0
   -6.7861    3.5227   30.3390 H   0  0  0  0  0  0
   -2.6961    6.1549   30.6425 H   0  0  0  0  0  0
   -0.4364    5.6657   29.4085 H   0  0  0  0  0  0
    0.2569    6.0397   30.9736 H   0  0  0  0  0  0
    2.4628    5.1572   31.6551 H   0  0  0  0  0  0
    4.6311    4.2174   30.9522 H   0  0  0  0  0  0
    4.8421    3.1600   28.7327 H   0  0  0  0  0  0
    2.9163    3.0712   27.1925 H   0  0  0  0  0  0
    0.7620    4.0655   27.8701 H   0  0  0  0  0  0
   -2.4227    1.1542   30.6579 H   0  0  0  0  0  0
  1  2  1  0  0  0
  1 30  1  0  0  0
  1 31  1  0  0  0
  1 32  1  0  0  0
  2  3  2  0  0  0
  2 11  1  0  0  0
  3  4  1  0  0  0
  3  6  1  0  0  0
  4  5  3  0  0  0
  6  7  1  0  0  0
  6 33  1  0  0  0
  6 13  1  0  0  0
  7  8  1  0  0  0
  7 10  1  0  0  0
  7 34  1  0  0  0
  8  9  3  0  0  0
 10 11  2  0  0  0
 10 12  1  0  0  0
 12 35  1  0  0  0
 12 36  1  0  0  0
 12 37  1  0  0  0
 13 14  1  0  0  0
 13 29  2  0  0  0
 14 15  2  0  0  0
 14 38  1  0  0  0
 15 16  1  0  0  0
 15 39  1  0  0  0
 16 17  2  0  0  0
 16 28  1  0  0  0
 17 18  1  0  0  0
 18 40  1  0  0  0
 18 19  1  0  0  0
 19 28  2  0  0  0
 19 20  1  0  0  0
 20 21  1  0  0  0
 21 22  1  0  0  0
 21 41  1  0  0  0
 21 42  1  0  0  0
 22 23  2  0  0  0
 22 27  1  0  0  0
 23 24  1  0  0  0
 23 43  1  0  0  0
 24 25  2  0  0  0
 24 44  1  0  0  0
 25 26  1  0  0  0
 25 45  1  0  0  0
 26 27  2  0  0  0
 26 46  1  0  0  0
 27 47  1  0  0  0
 28 29  1  0  0  0
 29 48  1  0  0  0
M  END
> <s_m_entry_id>
10319

> <s_m_entry_name>
dock_pv.388

> <s_m_Source_Path>
/home/csk/Desktop/cluster/DUD-E-result/met

> <s_m_Source_File>
dock_pv.maegz

> <i_m_Source_File_Index>
388

> <chembl_id>
CHEMBL3648320

> <chembl_pref_name>
None

> <i_lp_mmshare_version>
53161

> <i_f3d_flags>
0

> <r_lp_tautomer_probability>
0.0196078431372549

> <s_lp_Force_Field>
OPLS_2005

> <r_lp_Energy>
35.807116

> <b_lp_Chiralities_Consistent>
1

> <s_lp_Variant>
CHEMBL3717_lig2654-6

> <s_i_glide_gridfile>
glide-grid_3lq8

> <i_i_glide_lignum>
3026

> <i_i_glide_rotatable_bonds>
4

> <r_i_docking_score>
-7.47442950777452

> <r_i_glide_ligand_efficiency>
-0.257738948543949

> <r_i_glide_ligand_efficiency_sa>
-0.791855707357349

> <r_i_glide_ligand_efficiency_ln>
-1.71145482210159

> <r_i_glide_gscore>
-7.47442950777452

> <r_i_glide_lipo>
-3.73547619391451

> <r_i_glide_hbond>
0

> <r_i_glide_metal>
0

> <r_i_glide_rewards>
-2.02559289330166

> <r_i_glide_evdw>
-43.1167831420898

> <r_i_glide_ecoul>
-0.197336688637733

> <r_i_glide_erotb>
0.495567498373856

> <r_i_glide_esite>
-0.0234882585320514

> <r_i_glide_emodel>
-57.8403213140121

> <r_i_glide_energy>
-43.3141198307276

> <r_i_glide_einternal>
7.79697132110596

> <i_i_glide_confnum>
18

> <i_i_glide_posenum>
8

> <r_i_glide_eff_state_penalty>
0

> <s_user_duplicate_titles>
CHEMBL3717_lig2654

> <s_m_subgroup_title>
dock_pv

> <s_m_subgroupid>
dock_pv

> <b_m_subgroup_collapsed>
1

$$$$
CHEMBL3717_lig1199
                    3D
 Schrodinger Suite 2021-1.
 49 53  0  0  1  0            999 V2000
   -5.9844    5.1573   30.6301 N   0  0  0  0  0  0
   -4.7309    5.6777   30.6171 C   0  0  0  0  0  0
   -3.5787    4.8910   30.6158 C   0  0  0  0  0  0
   -3.7490    3.5048   30.6079 C   0  0  0  0  0  0
   -5.0270    2.9343   30.5798 C   0  0  0  0  0  0
   -6.1248    3.8110   30.6074 C   0  0  0  0  0  0
   -2.2041    5.4607   30.6080 C   0  0  0  0  0  0
   -1.0240    4.8079   30.9336 C   0  0  0  0  0  0
   -0.0004    5.6883   30.7011 N   0  0  0  0  0  0
   -0.4569    6.8490   30.2079 N   0  0  0  0  0  0
   -1.7626    6.7314   30.2080 C   0  0  0  0  0  0
    1.4443    5.4409   30.6863 C   0  0  0  0  0  0
    1.9720    4.4941   31.7860 C   0  0  0  0  0  0
    1.9097    3.0013   31.4078 C   0  0  0  0  0  0
    2.4644    2.7571   30.0781 N   0  0  2  0  0  0
    1.7742    3.5066   29.0326 C   0  0  0  0  0  0
    1.9392    5.0053   29.2957 C   0  0  0  0  0  0
   -5.1065    1.4456   30.4839 C   0  0  0  0  0  0
   -4.0187    0.8125   29.9477 O   0  0  0  0  0  0
   -6.1207    0.6611   30.7977 N   0  0  0  0  0  0
   -7.4361    3.3510   30.5791 N   0  0  0  0  0  0
   -5.6993   -0.5798   30.4047 C   0  0  0  0  0  0
   -4.4014   -0.4837   29.8815 C   0  0  0  0  0  0
   -3.6942   -1.5626   29.3549 C   0  0  0  0  0  0
   -4.3834   -2.7703   29.2911 C   0  0  0  0  0  0
   -5.6579   -2.9162   29.8529 C   0  0  0  0  0  0
   -6.3350   -1.8305   30.4278 C   0  0  0  0  0  0
   -3.7991   -3.8282   28.6079 N   0  0  0  0  0  0
   -4.6695    6.7555   30.6090 H   0  0  0  0  0  0
   -2.8804    2.8639   30.5982 H   0  0  0  0  0  0
   -0.8346    3.7999   31.2601 H   0  0  0  0  0  0
   -2.3778    7.5498   29.8722 H   0  0  0  0  0  0
    1.8542    6.4316   30.8822 H   0  0  0  0  0  0
    1.4530    4.6793   32.7274 H   0  0  0  0  0  0
    3.0033    4.7566   32.0273 H   0  0  0  0  0  0
    0.8926    2.6174   31.4438 H   0  0  0  0  0  0
    2.4881    2.4177   32.1252 H   0  0  0  0  0  0
    2.3766    1.7709   29.8642 H   0  0  0  0  0  0
    0.7175    3.2298   29.0166 H   0  0  0  0  0  0
    2.1940    3.2390   28.0613 H   0  0  0  0  0  0
    2.9864    5.2804   29.1662 H   0  0  0  0  0  0
    1.4327    5.5724   28.5168 H   0  0  0  0  0  0
   -7.5989    2.3530   30.5727 H   0  0  0  0  0  0
   -8.1900    4.0203   30.5510 H   0  0  0  0  0  0
   -2.7158   -1.4336   28.9210 H   0  0  0  0  0  0
   -6.1472   -3.8782   29.8046 H   0  0  0  0  0  0
   -7.3302   -1.9422   30.8303 H   0  0  0  0  0  0
   -3.7189   -4.6527   29.2068 H   0  0  0  0  0  0
   -2.9637   -3.5799   28.1021 H   0  0  0  0  0  0
  1  2  2  0  0  0
  1  6  1  0  0  0
  2  3  1  0  0  0
  2 29  1  0  0  0
  3  4  2  0  0  0
  3  7  1  0  0  0
  4  5  1  0  0  0
  4 30  1  0  0  0
  5 18  1  0  0  0
  5  6  2  0  0  0
  6 21  1  0  0  0
  7 11  1  0  0  0
  7  8  2  0  0  0
  8  9  1  0  0  0
  8 31  1  0  0  0
  9 12  1  0  0  0
  9 10  1  0  0  0
 10 11  2  0  0  0
 11 32  1  0  0  0
 12 17  1  0  0  0
 12 13  1  0  0  0
 12 33  1  0  0  0
 13 14  1  0  0  0
 13 34  1  0  0  0
 13 35  1  0  0  0
 14 15  1  0  0  0
 14 36  1  0  0  0
 14 37  1  0  0  0
 15 16  1  0  0  0
 15 38  1  0  0  0
 16 17  1  0  0  0
 16 39  1  0  0  0
 16 40  1  0  0  0
 17 41  1  0  0  0
 17 42  1  0  0  0
 18 19  1  0  0  0
 18 20  2  0  0  0
 19 23  1  0  0  0
 20 22  1  0  0  0
 21 43  1  0  0  0
 21 44  1  0  0  0
 22 23  2  0  0  0
 22 27  1  0  0  0
 23 24  1  0  0  0
 24 25  2  0  0  0
 24 45  1  0  0  0
 25 26  1  0  0  0
 25 28  1  0  0  0
 26 27  2  0  0  0
 26 46  1  0  0  0
 27 47  1  0  0  0
 28 48  1  0  0  0
 28 49  1  0  0  0
M  END
> <s_m_entry_id>
10320

> <s_m_entry_name>
dock_pv.389

> <s_m_Source_Path>
/home/csk/Desktop/cluster/DUD-E-result/met

> <s_m_Source_File>
dock_pv.maegz

> <i_m_Source_File_Index>
389

> <chembl_id>
CHEMBL2032285

> <chembl_pref_name>
None

> <i_lp_mmshare_version>
53161

> <i_f3d_flags>
0

> <r_lp_tautomer_probability>
0.999999772200052

> <s_lp_Force_Field>
OPLS_2005

> <r_lp_Energy>
32.152797

> <b_lp_Chiralities_Consistent>
1

> <s_lp_Variant>
CHEMBL3717_lig1199-1

> <s_i_glide_gridfile>
glide-grid_3lq8

> <i_i_glide_lignum>
1375

> <i_i_glide_rotatable_bonds>
3

> <r_i_docking_score>
-7.46436112848551

> <r_i_glide_ligand_efficiency>
-0.26658432601734

> <r_i_glide_ligand_efficiency_sa>
-0.809507023560012

> <r_i_glide_ligand_efficiency_ln>
-1.72299371162042

> <r_i_glide_gscore>
-7.46436112848551

> <r_i_glide_lipo>
-3.42429787175136

> <r_i_glide_hbond>
-0.16

> <r_i_glide_metal>
0

> <r_i_glide_rewards>
-1.62905520066065

> <r_i_glide_evdw>
-42.4504776000977

> <r_i_glide_ecoul>
-3.05037832260132

> <r_i_glide_erotb>
0.411792005585698

> <r_i_glide_esite>
-0.082719433264116

> <r_i_glide_emodel>
-58.3659320584448

> <r_i_glide_energy>
-45.500855922699

> <r_i_glide_einternal>
6.09318828582764

> <i_i_glide_confnum>
2

> <i_i_glide_posenum>
25

> <r_i_glide_eff_state_penalty>
0

> <s_user_duplicate_titles>
CHEMBL3717_lig1199

> <s_m_subgroup_title>
dock_pv

> <s_m_subgroupid>
dock_pv

> <b_m_subgroup_collapsed>
1

$$$$
CHEMBL3717_lig2487
                    3D
 Schrodinger Suite 2021-1.
 38 41  0  0  1  0            999 V2000
   -7.1008    1.6020   30.8244 C   0  0  0  0  0  0
   -5.7495    1.8317   30.1332 C   0  0  0  0  0  0
   -5.2121    1.0331   29.2843 N   0  0  0  0  0  0
   -5.9449   -0.1358   29.0080 O   0  0  0  0  0  0
   -5.1056    3.1324   30.4191 C   0  0  0  0  0  0
   -5.8288    4.3351   30.4969 C   0  0  0  0  0  0
   -5.1542    5.5567   30.6080 C   0  0  0  0  0  0
   -3.7513    5.5374   30.6145 C   0  0  0  0  0  0
   -2.7974    6.4975   30.6081 N   0  0  0  0  0  0
   -1.5727    5.8378   30.6082 N   0  0  0  0  0  0
   -1.7855    4.5343   30.6227 C   0  0  0  0  0  0
   -0.7703    3.4015   30.5894 C   0  0  0  0  0  0
    0.7037    3.7765   30.5576 C   0  0  0  0  0  0
    1.3394    4.1180   31.7452 C   0  0  0  0  0  0
    2.7059    4.3568   31.7845 C   0  0  0  0  0  0
    3.4707    4.3171   30.6027 C   0  0  0  0  0  0
    4.7970    4.6221   30.6675 N   0  0  0  0  0  0
    5.5064    4.6629   29.5200 C   0  0  0  0  0  0
    4.9604    4.3558   28.2830 C   0  0  0  0  0  0
    3.6212    3.9570   28.2080 C   0  0  0  0  0  0
    2.8278    3.9781   29.3760 C   0  0  0  0  0  0
    1.4389    3.6937   29.3721 C   0  0  0  0  0  0
   -3.1380    4.2815   30.6080 N   0  0  0  0  0  0
   -3.7475    3.0874   30.5351 N   0  0  0  0  0  0
   -7.1676    2.1327   31.7750 H   0  0  0  0  0  0
   -7.9115    1.9664   30.1940 H   0  0  0  0  0  0
   -7.2942    0.5468   31.0206 H   0  0  0  0  0  0
   -5.4137   -0.5543   28.3158 H   0  0  0  0  0  0
   -6.9063    4.3389   30.4073 H   0  0  0  0  0  0
   -5.6952    6.4928   30.6082 H   0  0  0  0  0  0
   -0.9269    2.7581   31.4567 H   0  0  0  0  0  0
   -0.9788    2.7602   29.7366 H   0  0  0  0  0  0
    0.7639    4.1801   32.6499 H   0  0  0  0  0  0
    3.1832    4.6187   32.7106 H   0  0  0  0  0  0
    6.5472    4.9400   29.6076 H   0  0  0  0  0  0
    5.5881    4.3830   27.4079 H   0  0  0  0  0  0
    3.1600    3.6753   27.2730 H   0  0  0  0  0  0
    0.9577    3.4149   28.4453 H   0  0  0  0  0  0
  1  2  1  0  0  0
  1 25  1  0  0  0
  1 26  1  0  0  0
  1 27  1  0  0  0
  2  3  2  0  0  0
  2  5  1  0  0  0
  3  4  1  0  0  0
  4 28  1  0  0  0
  5  6  1  0  0  0
  5 24  2  0  0  0
  6  7  2  0  0  0
  6 29  1  0  0  0
  7  8  1  0  0  0
  7 30  1  0  0  0
  8  9  2  0  0  0
  8 23  1  0  0  0
  9 10  1  0  0  0
 10 11  2  0  0  0
 11 12  1  0  0  0
 11 23  1  0  0  0
 12 13  1  0  0  0
 12 31  1  0  0  0
 12 32  1  0  0  0
 13 14  2  0  0  0
 13 22  1  0  0  0
 14 15  1  0  0  0
 14 33  1  0  0  0
 15 16  2  0  0  0
 15 34  1  0  0  0
 16 17  1  0  0  0
 16 21  1  0  0  0
 17 18  2  0  0  0
 18 19  1  0  0  0
 18 35  1  0  0  0
 19 20  2  0  0  0
 19 36  1  0  0  0
 20 21  1  0  0  0
 20 37  1  0  0  0
 21 22  2  0  0  0
 22 38  1  0  0  0
 23 24  1  0  0  0
M  END
> <s_m_entry_id>
10321

> <s_m_entry_name>
dock_pv.390

> <s_m_Source_Path>
/home/csk/Desktop/cluster/DUD-E-result/met

> <s_m_Source_File>
dock_pv.maegz

> <i_m_Source_File_Index>
390

> <chembl_id>
CHEMBL3651430

> <chembl_pref_name>
None

> <i_lp_mmshare_version>
53161

> <i_f3d_flags>
0

> <r_lp_tautomer_probability>
1

> <s_lp_Force_Field>
OPLS_2005

> <r_lp_Energy>
24.388041

> <b_lp_Chiralities_Consistent>
1

> <s_lp_Variant>
CHEMBL3717_lig2487-1

> <s_i_glide_gridfile>
glide-grid_3lq8

> <i_i_glide_lignum>
2817

> <i_i_glide_rotatable_bonds>
4

> <r_i_docking_score>
-7.46426308022267

> <r_i_glide_ligand_efficiency>
-0.311010961675945

> <r_i_glide_ligand_efficiency_sa>
-0.897110850725694

> <r_i_glide_ligand_efficiency_ln>
-1.78654066781161

> <r_i_glide_gscore>
-7.46426308022267

> <r_i_glide_lipo>
-3.09799962292873

> <r_i_glide_hbond>
-0.144279701045132

> <r_i_glide_metal>
0

> <r_i_glide_rewards>
-2.38357455275546

> <r_i_glide_evdw>
-38.1728973388672

> <r_i_glide_ecoul>
-4.14913511276245

> <r_i_glide_erotb>
0.735907290406393

> <r_i_glide_esite>
-0.0433013600420126

> <r_i_glide_emodel>
-55.9004517152607

> <r_i_glide_energy>
-42.3220324516296

> <r_i_glide_einternal>
4.91485595703125

> <i_i_glide_confnum>
52

> <i_i_glide_posenum>
88

> <r_i_glide_eff_state_penalty>
0

> <s_user_duplicate_titles>
CHEMBL3717_lig2487

> <s_m_subgroup_title>
dock_pv

> <s_m_subgroupid>
dock_pv

> <b_m_subgroup_collapsed>
1

$$$$
CHEMBL3717_lig2979
                    3D
 Schrodinger Suite 2021-1.
 39 43  0  0  1  0            999 V2000
   -4.7654   -2.0440   30.2773 S   0  0  0  0  0  0
   -4.3020    0.3782   31.1821 N   0  0  0  0  0  0
   -3.8614   -0.8473   31.2359 C   0  0  0  0  0  0
   -5.3793    0.4168   30.3589 N   0  0  0  0  0  0
   -5.8137   -0.7352   29.7727 C   0  0  0  0  0  0
   -6.8594   -0.5179   29.0093 N   0  0  0  0  0  0
   -7.0955    0.8584   29.0758 N   0  0  0  0  0  0
   -6.2020    1.4094   29.8762 C   0  0  0  0  0  0
   -6.0109    2.8768   30.1994 C   0  0  0  0  0  0
   -4.6073    3.0953   30.3688 O   0  0  0  0  0  0
   -4.0919    4.3615   30.5245 C   0  0  0  0  0  0
   -4.8800    5.5111   30.5741 C   0  0  0  0  0  0
   -4.2603    6.7501   30.6082 C   0  0  0  0  0  0
   -2.9220    6.9311   30.6073 N   0  0  0  0  0  0
   -2.6744    4.5071   30.6082 C   0  0  0  0  0  0
   -2.1297    5.8271   30.6096 C   0  0  0  0  0  0
   -0.7269    6.0036   30.6081 C   0  0  0  0  0  0
    0.1363    4.9137   30.6569 C   0  0  0  0  0  0
   -0.4011    3.6204   30.6917 C   0  0  0  0  0  0
   -1.7789    3.4103   30.6588 C   0  0  0  0  0  0
    1.4868    5.2011   30.6795 O   0  0  0  0  0  0
    2.4261    4.1305   30.7067 C   0  0  0  0  0  0
   -2.6999   -1.1639   32.0594 C   0  0  0  0  0  0
   -2.1255   -2.3522   32.0154 N   0  0  0  0  0  0
   -1.1275   -2.4406   32.8511 C   0  0  0  0  0  0
   -0.8154   -1.0414   33.8039 S   0  0  0  0  0  0
   -2.0941   -0.2640   32.9486 C   0  0  0  0  0  0
   -6.4333    3.5004   29.4089 H   0  0  0  0  0  0
   -6.5244    3.1119   31.1333 H   0  0  0  0  0  0
   -5.9591    5.4673   30.5327 H   0  0  0  0  0  0
   -4.8744    7.6335   30.6023 H   0  0  0  0  0  0
   -0.3222    7.0054   30.5909 H   0  0  0  0  0  0
    0.2475    2.7611   30.7345 H   0  0  0  0  0  0
   -2.1692    2.4032   30.6614 H   0  0  0  0  0  0
    3.4370    4.5407   30.6996 H   0  0  0  0  0  0
    2.3193    3.5286   31.6120 H   0  0  0  0  0  0
    2.3250    3.4846   29.8331 H   0  0  0  0  0  0
   -0.4940   -3.3088   32.9363 H   0  0  0  0  0  0
   -2.3643    0.7579   33.1654 H   0  0  0  0  0  0
  1  5  1  0  0  0
  1  3  1  0  0  0
  2  4  1  0  0  0
  2  3  2  0  0  0
  3 23  1  0  0  0
  4  5  1  0  0  0
  4  8  1  0  0  0
  5  6  2  0  0  0
  6  7  1  0  0  0
  7  8  2  0  0  0
  8  9  1  0  0  0
  9 10  1  0  0  0
  9 28  1  0  0  0
  9 29  1  0  0  0
 10 11  1  0  0  0
 11 12  2  0  0  0
 11 15  1  0  0  0
 12 13  1  0  0  0
 12 30  1  0  0  0
 13 14  2  0  0  0
 13 31  1  0  0  0
 14 16  1  0  0  0
 15 16  1  0  0  0
 15 20  2  0  0  0
 16 17  2  0  0  0
 17 18  1  0  0  0
 17 32  1  0  0  0
 18 19  2  0  0  0
 18 21  1  0  0  0
 19 20  1  0  0  0
 19 33  1  0  0  0
 20 34  1  0  0  0
 21 22  1  0  0  0
 22 35  1  0  0  0
 22 36  1  0  0  0
 22 37  1  0  0  0
 23 24  1  0  0  0
 23 27  2  0  0  0
 24 25  2  0  0  0
 25 26  1  0  0  0
 25 38  1  0  0  0
 26 27  1  0  0  0
 27 39  1  0  0  0
M  END
> <s_m_entry_id>
10322

> <s_m_entry_name>
dock_pv.391

> <s_m_Source_Path>
/home/csk/Desktop/cluster/DUD-E-result/met

> <s_m_Source_File>
dock_pv.maegz

> <i_m_Source_File_Index>
391

> <chembl_id>
CHEMBL4167593

> <chembl_pref_name>
None

> <i_lp_mmshare_version>
53161

> <i_f3d_flags>
0

> <r_lp_tautomer_probability>
1

> <s_lp_Force_Field>
OPLS_2005

> <r_lp_Energy>
28.711119

> <b_lp_Chiralities_Consistent>
1

> <s_lp_Variant>
CHEMBL3717_lig2979-1

> <s_i_glide_gridfile>
glide-grid_3lq8

> <i_i_glide_lignum>
3656

> <i_i_glide_rotatable_bonds>
5

> <r_i_docking_score>
-7.4640281903147

> <r_i_glide_ligand_efficiency>
-0.276445488530174

> <r_i_glide_ligand_efficiency_sa>
-0.829336464679403

> <r_i_glide_ligand_efficiency_ln>
-1.73750270858334

> <r_i_glide_gscore>
-7.4640281903147

> <r_i_glide_lipo>
-3.24195431588799

> <r_i_glide_hbond>
-0.230993769469582

> <r_i_glide_metal>
0

> <r_i_glide_rewards>
-2.08931424081044

> <r_i_glide_evdw>
-39.7415428161621

> <r_i_glide_ecoul>
-2.56038975715637

> <r_i_glide_erotb>
0.497927054917017

> <r_i_glide_esite>
-0.028557314682146

> <r_i_glide_emodel>
-56.1712613772974

> <r_i_glide_energy>
-42.3019325733185

> <r_i_glide_einternal>
8.71668720245361

> <i_i_glide_confnum>
5

> <i_i_glide_posenum>
2

> <r_i_glide_eff_state_penalty>
0

> <s_user_duplicate_titles>
CHEMBL3717_lig2979

> <s_m_subgroup_title>
dock_pv

> <s_m_subgroupid>
dock_pv

> <b_m_subgroup_collapsed>
1

$$$$
CHEMBL3717_lig2367
                    3D
 Schrodinger Suite 2021-1.
 40 44  0  0  1  0            999 V2000
   -8.9743    1.3137   29.4944 N   0  0  0  0  0  0
   -9.1724    0.0935   28.9369 C   0  0  0  0  0  0
   -8.1380   -0.7787   28.6092 C   0  0  0  0  0  0
   -6.8247   -0.3852   28.8554 C   0  0  0  0  0  0
   -6.5715    0.8885   29.4211 C   0  0  0  0  0  0
   -5.2633    1.3655   29.6832 C   0  0  0  0  0  0
   -5.0576    2.6197   30.2683 C   0  0  0  0  0  0
   -6.1730    3.3986   30.6079 C   0  0  0  0  0  0
   -7.4706    2.9698   30.3370 C   0  0  0  0  0  0
   -7.6937    1.7106   29.7401 C   0  0  0  0  0  0
   -3.6123    3.0431   30.5865 C   0  0  0  0  0  0
   -0.7848    4.2497   30.6119 N   0  0  0  0  0  0
   -1.9284    4.9659   30.6091 N   0  0  0  0  0  0
   -2.0084    6.3570   30.4346 C   0  0  0  0  0  0
   -0.9078    7.0791   30.2075 N   0  0  0  0  0  0
    0.2633    6.3862   30.2040 C   0  0  0  0  0  0
    0.3412    4.9979   30.4121 C   0  0  0  0  0  0
   -4.0390    5.5840   30.6079 N   0  0  0  0  0  0
   -3.2951    6.7499   30.5227 N   0  0  0  0  0  0
   -3.2383    4.5312   30.6081 C   0  0  0  0  0  0
    1.6544    4.2835   30.4489 C   0  0  0  0  0  0
    2.7300    4.7372   29.6824 C   0  0  0  0  0  0
    3.9838    4.1450   29.7571 C   0  0  0  0  0  0
    4.1684    3.0632   30.6080 C   0  0  0  0  0  0
    3.1060    2.5571   31.3495 C   0  0  0  0  0  0
    1.8536    3.1592   31.2566 C   0  0  0  0  0  0
  -10.2008   -0.1867   28.7607 H   0  0  0  0  0  0
   -8.3481   -1.7450   28.1744 H   0  0  0  0  0  0
   -5.9976   -1.0403   28.6196 H   0  0  0  0  0  0
   -4.4247    0.7308   29.4329 H   0  0  0  0  0  0
   -6.0657    4.3454   31.1079 H   0  0  0  0  0  0
   -8.3164    3.5901   30.5983 H   0  0  0  0  0  0
   -3.3148    2.5598   31.5143 H   0  0  0  0  0  0
   -2.9758    2.5579   29.8437 H   0  0  0  0  0  0
    1.1504    6.9833   30.0541 H   0  0  0  0  0  0
    2.5907    5.5561   29.0080 H   0  0  0  0  0  0
    4.8031    4.5128   29.1562 H   0  0  0  0  0  0
    5.1366    2.5881   30.6586 H   0  0  0  0  0  0
    3.2408    1.6917   31.9788 H   0  0  0  0  0  0
    1.0245    2.7499   31.8074 H   0  0  0  0  0  0
  1  2  2  0  0  0
  1 10  1  0  0  0
  2  3  1  0  0  0
  2 27  1  0  0  0
  3  4  2  0  0  0
  3 28  1  0  0  0
  4  5  1  0  0  0
  4 29  1  0  0  0
  5  6  2  0  0  0
  5 10  1  0  0  0
  6  7  1  0  0  0
  6 30  1  0  0  0
  7  8  2  0  0  0
  7 11  1  0  0  0
  8  9  1  0  0  0
  8 31  1  0  0  0
  9 10  2  0  0  0
  9 32  1  0  0  0
 11 20  1  0  0  0
 11 33  1  0  0  0
 11 34  1  0  0  0
 12 13  1  0  0  0
 12 17  2  0  0  0
 13 14  1  0  0  0
 13 20  1  0  0  0
 14 15  1  0  0  0
 14 19  2  0  0  0
 15 16  2  0  0  0
 16 17  1  0  0  0
 16 35  1  0  0  0
 17 21  1  0  0  0
 18 19  1  0  0  0
 18 20  2  0  0  0
 21 22  1  0  0  0
 21 26  2  0  0  0
 22 23  2  0  0  0
 22 36  1  0  0  0
 23 24  1  0  0  0
 23 37  1  0  0  0
 24 25  2  0  0  0
 24 38  1  0  0  0
 25 26  1  0  0  0
 25 39  1  0  0  0
 26 40  1  0  0  0
M  END
> <s_m_entry_id>
10323

> <s_m_entry_name>
dock_pv.392

> <s_m_Source_Path>
/home/csk/Desktop/cluster/DUD-E-result/met

> <s_m_Source_File>
dock_pv.maegz

> <i_m_Source_File_Index>
392

> <chembl_id>
CHEMBL3799192

> <chembl_pref_name>
None

> <i_lp_mmshare_version>
53161

> <i_f3d_flags>
0

> <r_lp_tautomer_probability>
1

> <s_lp_Force_Field>
OPLS_2005

> <r_lp_Energy>
26.500192

> <b_lp_Chiralities_Consistent>
1

> <s_lp_Variant>
CHEMBL3717_lig2367-1

> <s_i_glide_gridfile>
glide-grid_3lq8

> <i_i_glide_lignum>
2691

> <i_i_glide_rotatable_bonds>
3

> <r_i_docking_score>
-7.45942382280933

> <r_i_glide_ligand_efficiency>
-0.286900916261897

> <r_i_glide_ligand_efficiency_sa>
-0.849942835525278

> <r_i_glide_ligand_efficiency_ln>
-1.75182120842083

> <r_i_glide_gscore>
-7.45942382280933

> <r_i_glide_lipo>
-3.0117089375771

> <r_i_glide_hbond>
0

> <r_i_glide_metal>
0

> <r_i_glide_rewards>
-2.73591696546872

> <r_i_glide_evdw>
-41.7903099060059

> <r_i_glide_ecoul>
-0.785380125045776

> <r_i_glide_erotb>
0.495524594293652

> <r_i_glide_esite>
0

> <r_i_glide_emodel>
-59.11369602776

> <r_i_glide_energy>
-42.5756900310516

> <r_i_glide_einternal>
0.619922757148743

> <i_i_glide_confnum>
2

> <i_i_glide_posenum>
160

> <r_i_glide_eff_state_penalty>
0

> <s_user_duplicate_titles>
CHEMBL3717_lig2367

> <s_m_subgroup_title>
dock_pv

> <s_m_subgroupid>
dock_pv

> <b_m_subgroup_collapsed>
1

$$$$
CHEMBL3717_lig3414
                    3D
 Schrodinger Suite 2021-1.
 45 48  0  0  1  0            999 V2000
   -3.1420    5.5206   30.6111 C   0  0  0  0  0  0
   -2.1513    4.5545   30.8152 C   0  0  0  0  0  0
   -2.4040    3.2157   30.8238 N   0  0  0  0  0  0
   -4.4656    5.1382   30.3754 C   0  0  0  0  0  0
   -4.7564    3.7652   30.3735 C   0  0  0  0  0  0
   -3.6927    2.8788   30.6080 N   0  0  0  0  0  0
   -4.2707    1.6198   30.6079 C   0  0  0  0  0  0
   -5.5575    1.7274   30.3325 N   0  0  0  0  0  0
   -5.8988    3.0646   30.2079 N   0  0  0  0  0  0
   -3.5888    0.3352   30.9504 C   0  0  0  0  0  0
   -3.8395   -0.8352   30.2259 C   0  0  0  0  0  0
   -3.1771   -2.0202   30.5510 C   0  0  0  0  0  0
   -2.2597   -2.0433   31.6009 C   0  0  0  0  0  0
   -2.0081   -0.8859   32.3465 C   0  0  0  0  0  0
   -2.6923    0.2891   32.0235 C   0  0  0  0  0  0
   -0.9723   -0.8783   33.4714 C   0  0  0  0  0  0
   -0.8224   -2.0907   34.0084 F   0  0  0  0  0  0
   -1.3139   -0.0431   34.4415 F   0  0  0  0  0  0
    0.1943   -0.4431   33.0080 F   0  0  0  0  0  0
   -0.8400    5.0155   31.0075 N   0  0  0  0  0  0
    0.3342    4.1441   30.9440 C   0  0  1  0  0  0
    0.8124    4.0549   29.4742 C   0  0  0  0  0  0
    2.1824    3.3566   29.3186 C   0  0  0  0  0  0
    3.2612    3.9202   30.2670 C   0  0  1  0  0  0
    2.7573    3.9960   31.7225 C   0  0  0  0  0  0
    1.4237    4.7568   31.8402 C   0  0  0  0  0  0
    4.4528    3.1608   30.2111 O   0  0  0  0  0  0
   -2.8861    6.5692   30.6204 H   0  0  0  0  0  0
   -5.2440    5.8705   30.2082 H   0  0  0  0  0  0
   -4.5308   -0.8247   29.3945 H   0  0  0  0  0  0
   -3.3619   -2.9220   29.9813 H   0  0  0  0  0  0
   -1.7380   -2.9631   31.8184 H   0  0  0  0  0  0
   -2.4937    1.1867   32.5901 H   0  0  0  0  0  0
   -0.6773    5.9934   30.8251 H   0  0  0  0  0  0
    0.0755    3.1462   31.3028 H   0  0  0  0  0  0
    0.0744    3.5060   28.8891 H   0  0  0  0  0  0
    0.8703    5.0516   29.0334 H   0  0  0  0  0  0
    2.0593    2.2923   29.5115 H   0  0  0  0  0  0
    2.5148    3.4361   28.2828 H   0  0  0  0  0  0
    3.5350    4.9285   29.9508 H   0  0  0  0  0  0
    2.6368    2.9879   32.1235 H   0  0  0  0  0  0
    3.5064    4.4814   32.3471 H   0  0  0  0  0  0
    1.5683    5.8042   31.5693 H   0  0  0  0  0  0
    1.1059    4.7539   32.8833 H   0  0  0  0  0  0
    4.6390    2.9319   29.2951 H   0  0  0  0  0  0
  1  4  2  0  0  0
  1  2  1  0  0  0
  1 28  1  0  0  0
  2  3  2  0  0  0
  2 20  1  0  0  0
  3  6  1  0  0  0
  4  5  1  0  0  0
  4 29  1  0  0  0
  5  9  2  0  0  0
  5  6  1  0  0  0
  6  7  1  0  0  0
  7  8  2  0  0  0
  7 10  1  0  0  0
  8  9  1  0  0  0
 10 15  1  0  0  0
 10 11  2  0  0  0
 11 12  1  0  0  0
 11 30  1  0  0  0
 12 13  2  0  0  0
 12 31  1  0  0  0
 13 14  1  0  0  0
 13 32  1  0  0  0
 14 15  2  0  0  0
 14 16  1  0  0  0
 15 33  1  0  0  0
 16 17  1  0  0  0
 16 18  1  0  0  0
 16 19  1  0  0  0
 20 21  1  0  0  0
 20 34  1  0  0  0
 21 22  1  0  0  0
 21 26  1  0  0  0
 21 35  1  0  0  0
 22 23  1  0  0  0
 22 36  1  0  0  0
 22 37  1  0  0  0
 23 24  1  0  0  0
 23 38  1  0  0  0
 23 39  1  0  0  0
 24 25  1  0  0  0
 24 27  1  0  0  0
 24 40  1  0  0  0
 25 26  1  0  0  0
 25 41  1  0  0  0
 25 42  1  0  0  0
 26 43  1  0  0  0
 26 44  1  0  0  0
 27 45  1  0  0  0
M  END
> <s_m_entry_id>
10324

> <s_m_entry_name>
dock_pv.393

> <s_m_Source_Path>
/home/csk/Desktop/cluster/DUD-E-result/met

> <s_m_Source_File>
dock_pv.maegz

> <i_m_Source_File_Index>
393

> <chembl_id>
CHEMBL494221

> <chembl_pref_name>
None

> <i_lp_mmshare_version>
53161

> <i_f3d_flags>
0

> <r_lp_tautomer_probability>
1

> <s_lp_Force_Field>
OPLS_2005

> <r_lp_Energy>
17.844481

> <b_lp_Chiralities_Consistent>
1

> <s_lp_Variant>
CHEMBL3717_lig3414-1

> <s_i_glide_gridfile>
glide-grid_3lq8

> <i_i_glide_lignum>
4200

> <i_i_glide_rotatable_bonds>
5

> <r_i_docking_score>
-7.45675669018101

> <r_i_glide_ligand_efficiency>
-0.276176173710408

> <r_i_glide_ligand_efficiency_sa>
-0.828528520220992

> <r_i_glide_ligand_efficiency_ln>
-1.73581002323227

> <r_i_glide_gscore>
-7.45675669018101

> <r_i_glide_lipo>
-3.71558135294053

> <r_i_glide_hbond>
-0.00712160901138407

> <r_i_glide_metal>
0

> <r_i_glide_rewards>
-1.68255646239067

> <r_i_glide_evdw>
-43.1083717346191

> <r_i_glide_ecoul>
-1.8340677022934

> <r_i_glide_erotb>
0.408016731861563

> <r_i_glide_esite>
-0.0289852556250268

> <r_i_glide_emodel>
-62.9197222858614

> <r_i_glide_energy>
-44.9424394369125

> <r_i_glide_einternal>
1.83737134933472

> <i_i_glide_confnum>
4

> <i_i_glide_posenum>
73

> <r_i_glide_eff_state_penalty>
0

> <s_user_duplicate_titles>
CHEMBL3717_lig3414

> <s_m_subgroup_title>
dock_pv

> <s_m_subgroupid>
dock_pv

> <b_m_subgroup_collapsed>
1

$$$$
CHEMBL3717_lig1320
                    3D
 Schrodinger Suite 2021-1.
 39 43  0  0  1  0            999 V2000
   -8.0854   -1.7047   29.6113 C   0  0  0  0  0  0
   -7.3462   -0.4733   29.8522 C   0  0  0  0  0  0
   -7.8884    0.5180   30.6708 C   0  0  0  0  0  0
   -7.1894    1.7037   30.8753 C   0  0  0  0  0  0
   -5.9448    1.9165   30.2707 C   0  0  0  0  0  0
   -5.4068    0.9047   29.4645 C   0  0  0  0  0  0
   -6.1014   -0.2828   29.2543 C   0  0  0  0  0  0
   -8.6744   -2.6822   29.4185 N   0  0  0  0  0  0
   -3.8582    3.1384   30.5286 N   0  0  0  0  0  0
   -3.2501    4.3390   30.6079 N   0  0  0  0  0  0
   -3.9026    5.5761   30.6192 C   0  0  0  0  0  0
   -5.2382    5.6316   30.6091 N   0  0  0  0  0  0
   -5.8907    4.4389   30.5254 C   0  0  0  0  0  0
   -5.2204    3.2067   30.4622 C   0  0  0  0  0  0
   -1.7410    5.9495   30.6080 N   0  0  0  0  0  0
   -2.9846    6.5703   30.6092 N   0  0  0  0  0  0
   -1.9065    4.6372   30.6096 C   0  0  0  0  0  0
   -0.8461    3.5572   30.4749 C   0  0  0  0  0  0
    2.8634    4.2739   30.3675 C   0  0  0  0  0  0
    1.6858    3.7547   29.7643 C   0  0  0  0  0  0
    1.8364    3.1651   28.4970 C   0  0  0  0  0  0
    3.1053    3.1569   27.9180 C   0  0  0  0  0  0
    4.1743    3.7289   28.6092 C   0  0  0  0  0  0
    4.0906    4.2844   29.8448 N   0  0  0  0  0  0
    2.5049    4.7564   31.5951 N   0  0  0  0  0  0
    0.5910    3.9852   30.6760 C   0  0  0  0  0  0
    1.1539    4.6217   31.7678 C   0  0  0  0  0  0
   -8.8495    0.3807   31.1466 H   0  0  0  0  0  0
   -7.6246    2.4579   31.5122 H   0  0  0  0  0  0
   -4.4505    1.0369   28.9795 H   0  0  0  0  0  0
   -5.6681   -1.0380   28.6120 H   0  0  0  0  0  0
   -6.9680    4.5001   30.4574 H   0  0  0  0  0  0
   -1.0706    2.7573   31.1806 H   0  0  0  0  0  0
   -0.9419    3.1128   29.4874 H   0  0  0  0  0  0
    0.9928    2.7385   27.9784 H   0  0  0  0  0  0
    3.2572    2.7088   26.9469 H   0  0  0  0  0  0
    5.1586    3.7310   28.1671 H   0  0  0  0  0  0
    3.1081    5.1911   32.2769 H   0  0  0  0  0  0
    0.7057    4.9851   32.6784 H   0  0  0  0  0  0
  1  2  1  0  0  0
  1  8  3  0  0  0
  2  3  1  0  0  0
  2  7  2  0  0  0
  3  4  2  0  0  0
  3 28  1  0  0  0
  4  5  1  0  0  0
  4 29  1  0  0  0
  5  6  2  0  0  0
  5 14  1  0  0  0
  6  7  1  0  0  0
  6 30  1  0  0  0
  7 31  1  0  0  0
  9 10  1  0  0  0
  9 14  2  0  0  0
 10 11  1  0  0  0
 10 17  1  0  0  0
 11 12  1  0  0  0
 11 16  2  0  0  0
 12 13  2  0  0  0
 13 14  1  0  0  0
 13 32  1  0  0  0
 15 16  1  0  0  0
 15 17  2  0  0  0
 17 18  1  0  0  0
 18 26  1  0  0  0
 18 33  1  0  0  0
 18 34  1  0  0  0
 19 20  1  0  0  0
 19 24  2  0  0  0
 19 25  1  0  0  0
 20 21  2  0  0  0
 20 26  1  0  0  0
 21 22  1  0  0  0
 21 35  1  0  0  0
 22 23  2  0  0  0
 22 36  1  0  0  0
 23 24  1  0  0  0
 23 37  1  0  0  0
 25 27  1  0  0  0
 25 38  1  0  0  0
 26 27  2  0  0  0
 27 39  1  0  0  0
M  END
> <s_m_entry_id>
10326

> <s_m_entry_name>
dock_pv.395

> <s_m_Source_Path>
/home/csk/Desktop/cluster/DUD-E-result/met

> <s_m_Source_File>
dock_pv.maegz

> <i_m_Source_File_Index>
395

> <chembl_id>
CHEMBL2170968

> <chembl_pref_name>
None

> <i_lp_mmshare_version>
53161

> <i_f3d_flags>
0

> <r_lp_tautomer_probability>
0.999998432528457

> <s_lp_Force_Field>
OPLS_2005

> <r_lp_Energy>
20.242595

> <b_lp_Chiralities_Consistent>
1

> <s_lp_Variant>
CHEMBL3717_lig1320-1

> <s_i_glide_gridfile>
glide-grid_3lq8

> <i_i_glide_lignum>
1506

> <i_i_glide_rotatable_bonds>
3

> <r_i_docking_score>
-7.45560347544118

> <r_i_glide_ligand_efficiency>
-0.276133462053377

> <r_i_glide_ligand_efficiency_sa>
-0.82840038525004

> <r_i_glide_ligand_efficiency_ln>
-1.73554157385307

> <r_i_glide_gscore>
-7.45560347544118

> <r_i_glide_lipo>
-2.62967083762769

> <r_i_glide_hbond>
0

> <r_i_glide_metal>
0

> <r_i_glide_rewards>
-2.88455078408811

> <r_i_glide_evdw>
-42.8979339599609

> <r_i_glide_ecoul>
-1.71750736236572

> <r_i_glide_erotb>
0.461140948627526

> <r_i_glide_esite>
0

> <r_i_glide_emodel>
-62.4195832126076

> <r_i_glide_energy>
-44.6154413223267

> <r_i_glide_einternal>
2.01989531517029

> <i_i_glide_confnum>
18

> <i_i_glide_posenum>
30

> <r_i_glide_eff_state_penalty>
0

> <s_user_duplicate_titles>
CHEMBL3717_lig1320

> <s_m_subgroup_title>
dock_pv

> <s_m_subgroupid>
dock_pv

> <b_m_subgroup_collapsed>
1

$$$$
CHEMBL3717_lig4118
                    3D
 Schrodinger Suite 2021-1.
 37 39  0  0  1  0            999 V2000
    1.8369    5.1799   30.0324 O   0  0  0  0  0  0
   -0.9415    3.1692   31.4085 N   0  0  0  0  0  0
    4.5974    3.9575   28.3317 N   0  0  2  0  0  0
   -6.8867    2.6630   30.6080 N   0  0  0  0  0  0
    0.5740    4.8178   30.4728 C   0  0  0  0  0  0
   -1.7798    5.3584   30.8024 C   0  0  0  0  0  0
    2.8609    4.1710   30.0084 C   0  0  2  0  0  0
   -0.4928    5.7206   30.3647 C   0  0  0  0  0  0
    0.2838    3.5577   31.0111 C   0  0  0  0  0  0
   -1.9193    4.0920   31.3699 C   0  0  0  0  0  0
   -2.9172    6.2906   30.6561 C   0  0  0  0  0  0
    4.1816    4.7532   29.4787 C   0  0  0  0  0  0
    2.5278    3.0495   29.0148 C   0  0  0  0  0  0
   -5.1147    4.8686   30.6074 C   0  0  0  0  0  0
   -4.2574    6.0845   30.6082 C   0  0  0  0  0  0
    3.3713    3.3811   27.8081 C   0  0  0  0  0  0
   -6.4484    5.0031   31.0152 C   0  0  0  0  0  0
   -4.7000    3.5972   30.1884 C   0  0  0  0  0  0
   -7.2951    3.8936   31.0020 C   0  0  0  0  0  0
   -5.5994    2.5300   30.2080 C   0  0  0  0  0  0
    5.2367    3.2144   28.6054 H   0  0  0  0  0  0
    3.0289    3.8150   31.0264 H   0  0  0  0  0  0
   -0.3160    6.6941   29.9310 H   0  0  0  0  0  0
    1.0314    2.7911   31.1326 H   0  0  0  0  0  0
   -2.8403    3.7609   31.8031 H   0  0  0  0  0  0
   -2.6114    7.3262   30.6105 H   0  0  0  0  0  0
    4.0418    5.7717   29.1296 H   0  0  0  0  0  0
    4.9570    4.7817   30.2446 H   0  0  0  0  0  0
    2.7060    2.0515   29.4109 H   0  0  0  0  0  0
    1.4912    3.0650   28.6768 H   0  0  0  0  0  0
   -4.8393    6.9929   30.5293 H   0  0  0  0  0  0
    3.5941    2.4936   27.2153 H   0  0  0  0  0  0
    2.8436    4.0945   27.1742 H   0  0  0  0  0  0
   -6.8374    5.9570   31.3247 H   0  0  0  0  0  0
   -3.7100    3.4250   29.8077 H   0  0  0  0  0  0
   -8.3282    3.9806   31.3050 H   0  0  0  0  0  0
   -5.2970    1.5457   29.8798 H   0  0  0  0  0  0
  1  5  1  0  0  0
  1  7  1  0  0  0
  2  9  1  0  0  0
  2 10  2  0  0  0
  3 12  1  0  0  0
  3 16  1  0  0  0
  3 21  1  0  0  0
  4 19  2  0  0  0
  4 20  1  0  0  0
  5  8  1  0  0  0
  5  9  2  0  0  0
  6  8  2  0  0  0
  6 10  1  0  0  0
  6 11  1  0  0  0
  7 12  1  0  0  0
  7 13  1  0  0  0
  7 22  1  0  0  0
  8 23  1  0  0  0
  9 24  1  0  0  0
 10 25  1  0  0  0
 11 15  2  3  0  0
 11 26  1  0  0  0
 12 27  1  0  0  0
 12 28  1  0  0  0
 13 16  1  0  0  0
 13 29  1  0  0  0
 13 30  1  0  0  0
 14 15  1  0  0  0
 14 17  2  0  0  0
 14 18  1  0  0  0
 15 31  1  0  0  0
 16 32  1  0  0  0
 16 33  1  0  0  0
 17 19  1  0  0  0
 17 34  1  0  0  0
 18 20  2  0  0  0
 18 35  1  0  0  0
 19 36  1  0  0  0
 20 37  1  0  0  0
M  END
> <s_m_entry_id>
10328

> <s_m_entry_name>
dock_pv.397

> <s_m_Source_Path>
/home/csk/Desktop/cluster/DUD-E-result/met

> <s_m_Source_File>
dock_pv.maegz

> <i_m_Source_File_Index>
397

> <chembl_id>
CHEMBL1966087

> <chembl_pref_name>
None

> <i_lp_mmshare_version>
53161

> <i_f3d_flags>
0

> <r_lp_tautomer_probability>
1

> <s_lp_Force_Field>
OPLS_2005

> <r_lp_Energy>
37.714624

> <b_lp_Chiralities_Consistent>
1

> <s_lp_Variant>
CHEMBL3717_lig4118-2

> <s_i_glide_gridfile>
glide-grid_3lq8

> <i_i_glide_lignum>
5264

> <i_i_glide_rotatable_bonds>
4

> <r_i_docking_score>
-7.45471011829296

> <r_i_glide_ligand_efficiency>
-0.372735505914648

> <r_i_glide_ligand_efficiency_sa>
-1.01175982257482

> <r_i_glide_ligand_efficiency_ln>
-1.86566806981349

> <r_i_glide_gscore>
-7.45471011829296

> <r_i_glide_lipo>
-4.19361452129058

> <r_i_glide_hbond>
-0.293581124411892

> <r_i_glide_metal>
0

> <r_i_glide_rewards>
-2.02681011098825

> <r_i_glide_evdw>
-31.042459487915

> <r_i_glide_ecoul>
-2.57726383209229

> <r_i_glide_erotb>
0.99800818760736

> <r_i_glide_esite>
0

> <r_i_glide_emodel>
-46.3645239422002

> <r_i_glide_energy>
-33.6197233200073

> <r_i_glide_einternal>
5.97186708450317

> <i_i_glide_confnum>
220

> <i_i_glide_posenum>
145

> <r_i_glide_eff_state_penalty>
0

> <s_user_duplicate_titles>
CHEMBL3717_lig4118,CHEMBL3717_lig4118

> <s_m_subgroup_title>
dock_pv

> <s_m_subgroupid>
dock_pv

> <b_m_subgroup_collapsed>
1

$$$$
CHEMBL3717_lig1261
                    3D
 Schrodinger Suite 2021-1.
 55 58  0  0  1  0            999 V2000
   -6.5725    3.8459   30.6079 C   0  0  0  0  0  0
   -5.5308    2.9315   30.3659 C   0  0  0  0  0  0
   -4.2172    3.4115   30.3656 C   0  0  0  0  0  0
   -3.9600    4.7646   30.6076 C   0  0  0  0  0  0
   -5.0544    5.5966   30.8364 C   0  0  0  0  0  0
   -6.3375    5.1571   30.8471 N   0  0  0  0  0  0
   -5.7644    1.4795   30.0942 C   0  0  0  0  0  0
   -5.6670    1.0415   28.9495 O   0  0  0  0  0  0
   -6.0113    0.7238   31.1798 N   0  0  0  0  0  0
   -0.3624    5.5220   30.6625 N   0  0  0  0  0  0
   -0.8240    6.6925   30.2074 N   0  0  0  0  0  0
   -2.1287    6.5674   30.2080 C   0  0  0  0  0  0
   -2.5698    5.2933   30.5994 C   0  0  0  0  0  0
   -1.3867    4.6258   30.8719 C   0  0  0  0  0  0
    3.0986    3.1519   30.3767 N   0  0  2  0  0  0
    2.9252    3.8189   31.6653 C   0  0  0  0  0  0
    1.4940    4.3553   31.8111 C   0  0  0  0  0  0
    1.0850    5.2817   30.6409 C   0  0  0  0  0  0
    1.4403    4.6137   29.2899 C   0  0  0  0  0  0
    2.8850    4.0768   29.2652 C   0  0  0  0  0  0
   -6.1449   -0.7392   31.1680 C   0  0  2  0  0  0
   -6.4745   -1.3099   32.5516 C   0  0  0  0  0  0
   -4.9710   -1.5076   30.5239 C   0  0  0  0  0  0
   -5.2460   -2.5855   29.6615 C   0  0  0  0  0  0
   -4.2040   -3.2431   29.0077 C   0  0  0  0  0  0
   -2.8871   -2.8427   29.1973 C   0  0  0  0  0  0
   -2.5943   -1.8334   30.1055 C   0  0  0  0  0  0
   -3.6189   -1.1718   30.7800 C   0  0  0  0  0  0
   -4.4642   -4.3049   28.2081 F   0  0  0  0  0  0
   -3.1399    0.0190   31.9438 Cl  0  0  0  0  0  0
   -6.8629   -3.1653   29.4082 Cl  0  0  0  0  0  0
   -7.9163    3.4791   30.5922 N   0  0  0  0  0  0
   -3.3942    2.7335   30.1744 H   0  0  0  0  0  0
   -4.9148    6.6548   31.0091 H   0  0  0  0  0  0
   -6.2183    1.1867   32.0518 H   0  0  0  0  0  0
   -2.7611    7.3765   29.8884 H   0  0  0  0  0  0
   -1.1973    3.5987   31.1518 H   0  0  0  0  0  0
    2.3890    2.4342   30.2995 H   0  0  0  0  0  0
    3.6647    4.6159   31.7796 H   0  0  0  0  0  0
    3.1060    3.0825   32.4504 H   0  0  0  0  0  0
    1.4903    4.9587   32.7190 H   0  0  0  0  0  0
    0.7900    3.5575   32.0340 H   0  0  0  0  0  0
    1.5708    6.2572   30.7205 H   0  0  0  0  0  0
    0.7127    3.8717   28.9551 H   0  0  0  0  0  0
    1.3913    5.3819   28.5180 H   0  0  0  0  0  0
    3.6075    4.8925   29.3159 H   0  0  0  0  0  0
    3.0736    3.5413   28.3339 H   0  0  0  0  0  0
   -7.0394   -0.8827   30.5596 H   0  0  0  0  0  0
   -6.7595   -2.3598   32.4893 H   0  0  0  0  0  0
   -5.6187   -1.2435   33.2232 H   0  0  0  0  0  0
   -7.3041   -0.7742   33.0105 H   0  0  0  0  0  0
   -2.0935   -3.3800   28.6986 H   0  0  0  0  0  0
   -1.5622   -1.5779   30.2921 H   0  0  0  0  0  0
   -8.1690    2.5438   30.3090 H   0  0  0  0  0  0
   -8.6050    4.2176   30.6382 H   0  0  0  0  0  0
  1  2  1  0  0  0
  1  6  2  0  0  0
  1 32  1  0  0  0
  2  3  2  0  0  0
  2  7  1  0  0  0
  3  4  1  0  0  0
  3 33  1  0  0  0
  4  5  2  0  0  0
  4 13  1  0  0  0
  5  6  1  0  0  0
  5 34  1  0  0  0
  7  8  2  0  0  0
  7  9  1  0  0  0
  9 21  1  0  0  0
  9 35  1  0  0  0
 10 11  1  0  0  0
 10 14  1  0  0  0
 10 18  1  0  0  0
 11 12  2  0  0  0
 12 13  1  0  0  0
 12 36  1  0  0  0
 13 14  2  0  0  0
 14 37  1  0  0  0
 15 16  1  0  0  0
 15 20  1  0  0  0
 15 38  1  0  0  0
 16 17  1  0  0  0
 16 39  1  0  0  0
 16 40  1  0  0  0
 17 18  1  0  0  0
 17 41  1  0  0  0
 17 42  1  0  0  0
 18 19  1  0  0  0
 18 43  1  0  0  0
 19 20  1  0  0  0
 19 44  1  0  0  0
 19 45  1  0  0  0
 20 46  1  0  0  0
 20 47  1  0  0  0
 21 22  1  0  0  0
 21 23  1  0  0  0
 21 48  1  0  0  0
 22 49  1  0  0  0
 22 50  1  0  0  0
 22 51  1  0  0  0
 23 24  1  0  0  0
 23 28  2  0  0  0
 24 25  2  0  0  0
 24 31  1  0  0  0
 25 26  1  0  0  0
 25 29  1  0  0  0
 26 27  2  0  0  0
 26 52  1  0  0  0
 27 28  1  0  0  0
 27 53  1  0  0  0
 28 30  1  0  0  0
 32 54  1  0  0  0
 32 55  1  0  0  0
M  END
> <s_m_entry_id>
10329

> <s_m_entry_name>
dock_pv.398

> <s_m_Source_Path>
/home/csk/Desktop/cluster/DUD-E-result/met

> <s_m_Source_File>
dock_pv.maegz

> <i_m_Source_File_Index>
398

> <chembl_id>
CHEMBL2071449

> <chembl_pref_name>
None

> <i_lp_mmshare_version>
53161

> <i_f3d_flags>
0

> <r_lp_tautomer_probability>
0.999999772200052

> <s_lp_Force_Field>
OPLS_2005

> <r_lp_Energy>
31.961074

> <b_lp_Chiralities_Consistent>
1

> <s_lp_Variant>
CHEMBL3717_lig1261-1

> <s_i_glide_gridfile>
glide-grid_3lq8

> <i_i_glide_lignum>
1440

> <i_i_glide_rotatable_bonds>
6

> <r_i_docking_score>
-7.45069670632693

> <r_i_glide_ligand_efficiency>
-0.232834272072716

> <r_i_glide_ligand_efficiency_sa>
-0.739202735991

> <r_i_glide_ligand_efficiency_ln>
-1.66841409086816

> <r_i_glide_gscore>
-7.45069670632693

> <r_i_glide_lipo>
-3.91391176180707

> <r_i_glide_hbond>
0

> <r_i_glide_metal>
0

> <r_i_glide_rewards>
-1.00083618684126

> <r_i_glide_evdw>
-50.4587554931641

> <r_i_glide_ecoul>
-2.41083025932312

> <r_i_glide_erotb>
0.444468519570887

> <r_i_glide_esite>
-0.0958549636928083

> <r_i_glide_emodel>
-69.8811373540216

> <r_i_glide_energy>
-52.8695857524872

> <r_i_glide_einternal>
9.32764339447021

> <i_i_glide_confnum>
17

> <i_i_glide_posenum>
305

> <r_i_glide_eff_state_penalty>
0

> <s_user_duplicate_titles>
CHEMBL3717_lig1261

> <s_m_subgroup_title>
dock_pv

> <s_m_subgroupid>
dock_pv

> <b_m_subgroup_collapsed>
1

$$$$
CHEMBL3717_lig3714
                    3D
 Schrodinger Suite 2021-1.
 54 58  0  0  1  0            999 V2000
   -8.9067    0.6942   29.5111 Cl  0  0  0  0  0  0
   -5.8579    0.2579   29.7165 N   0  0  0  0  0  0
   -5.3973    2.5590   30.0277 N   0  0  0  0  0  0
   -4.8844    4.8513   30.4528 N   0  0  0  0  0  0
    0.7164    4.8322   30.8356 N   0  0  0  0  0  0
   -7.1259    4.2109   30.1926 N   0  0  0  0  0  0
   -1.4227   -2.1856   32.0540 N   0  0  0  0  0  0
   -1.1783   -1.2566   32.9915 N   0  0  0  0  0  0
    3.5540    4.1397   30.4864 N   0  0  0  0  0  0
   -6.3181    1.5839   29.8223 C   0  0  0  0  0  0
   -2.9592   -0.4484   31.9505 C   0  0  0  0  0  0
   -4.7433   -0.3715   30.3081 C   0  0  0  0  0  0
   -2.5259   -1.6959   31.4093 C   0  0  0  0  0  0
   -5.8244    3.8319   30.2171 C   0  0  0  0  0  0
   -7.6860    1.8912   29.7797 C   0  0  0  0  0  0
   -4.0733    0.1982   31.3964 C   0  0  0  0  0  0
   -3.4821    4.8362   30.6077 C   0  0  0  0  0  0
   -0.6708    4.8721   30.7925 C   0  0  0  0  0  0
   -4.3225   -1.6045   29.8081 C   0  0  0  0  0  0
   -3.2187   -2.2777   30.3360 C   0  0  0  0  0  0
   -2.0454   -0.1908   33.0078 C   0  0  0  0  0  0
   -8.0421    3.2314   29.9644 C   0  0  0  0  0  0
   -2.7586    3.6628   30.8343 C   0  0  0  0  0  0
   -2.7822    6.0428   30.5232 C   0  0  0  0  0  0
   -1.3801    3.6835   30.9264 C   0  0  0  0  0  0
   -1.3862    6.0603   30.6026 C   0  0  0  0  0  0
    1.6010    5.6566   30.0068 C   0  0  0  0  0  0
    1.4780    3.9829   31.7662 C   0  0  0  0  0  0
    2.8265    4.8727   29.4507 C   0  0  0  0  0  0
    2.6218    3.1982   31.0946 C   0  0  0  0  0  0
    4.6751    3.4258   29.8810 C   0  0  0  0  0  0
   -6.4452   -0.3464   29.1608 H   0  0  0  0  0  0
   -5.3033    5.7691   30.4480 H   0  0  0  0  0  0
   -0.3941   -1.3575   33.6196 H   0  0  0  0  0  0
   -4.4198    1.1277   31.8082 H   0  0  0  0  0  0
   -4.8462   -2.0474   28.9738 H   0  0  0  0  0  0
   -2.9095   -3.2309   29.9277 H   0  0  0  0  0  0
   -1.9286    0.6059   33.7279 H   0  0  0  0  0  0
   -9.0785    3.5366   29.9402 H   0  0  0  0  0  0
   -3.2252    2.7052   30.9449 H   0  0  0  0  0  0
   -3.3167    6.9669   30.3663 H   0  0  0  0  0  0
   -0.8600    2.7570   31.0656 H   0  0  0  0  0  0
   -0.8599    6.9988   30.5117 H   0  0  0  0  0  0
    1.0360    6.0752   29.1721 H   0  0  0  0  0  0
    1.9060    6.5075   30.6111 H   0  0  0  0  0  0
    0.8093    3.2607   32.2079 H   0  0  0  0  0  0
    1.8566    4.5950   32.5856 H   0  0  0  0  0  0
    3.5412    5.5570   29.0082 H   0  0  0  0  0  0
    2.5012    4.2039   28.6502 H   0  0  0  0  0  0
    2.2224    2.5017   30.3530 H   0  0  0  0  0  0
    3.1365    2.5972   31.8455 H   0  0  0  0  0  0
    5.3932    4.1272   29.4523 H   0  0  0  0  0  0
    4.3415    2.7578   29.0844 H   0  0  0  0  0  0
    5.2063    2.8287   30.6230 H   0  0  0  0  0  0
  1 15  1  0  0  0
  2 12  1  0  0  0
  2 10  1  0  0  0
  2 32  1  0  0  0
  3 10  2  0  0  0
  3 14  1  0  0  0
  4 14  1  0  0  0
  4 17  1  0  0  0
  4 33  1  0  0  0
  5 18  1  0  0  0
  5 27  1  0  0  0
  5 28  1  0  0  0
  6 14  2  0  0  0
  6 22  1  0  0  0
  7  8  1  0  0  0
  7 13  2  0  0  0
  8 21  1  0  0  0
  8 34  1  0  0  0
  9 29  1  0  0  0
  9 30  1  0  0  0
  9 31  1  0  0  0
 10 15  1  0  0  0
 11 16  1  0  0  0
 11 21  2  0  0  0
 11 13  1  0  0  0
 12 16  2  0  0  0
 12 19  1  0  0  0
 13 20  1  0  0  0
 15 22  2  0  0  0
 16 35  1  0  0  0
 17 23  2  0  0  0
 17 24  1  0  0  0
 18 25  2  0  0  0
 18 26  1  0  0  0
 19 20  2  0  0  0
 19 36  1  0  0  0
 20 37  1  0  0  0
 21 38  1  0  0  0
 22 39  1  0  0  0
 23 25  1  0  0  0
 23 40  1  0  0  0
 24 26  2  0  0  0
 24 41  1  0  0  0
 25 42  1  0  0  0
 26 43  1  0  0  0
 27 29  1  0  0  0
 27 44  1  0  0  0
 27 45  1  0  0  0
 28 30  1  0  0  0
 28 46  1  0  0  0
 28 47  1  0  0  0
 29 48  1  0  0  0
 29 49  1  0  0  0
 30 50  1  0  0  0
 30 51  1  0  0  0
 31 52  1  0  0  0
 31 53  1  0  0  0
 31 54  1  0  0  0
M  END
> <s_m_entry_id>
10330

> <s_m_entry_name>
dock_pv.399

> <s_m_Source_Path>
/home/csk/Desktop/cluster/DUD-E-result/met

> <s_m_Source_File>
dock_pv.maegz

> <i_m_Source_File_Index>
399

> <chembl_id>
CHEMBL1979690

> <chembl_pref_name>
None

> <i_lp_mmshare_version>
53161

> <i_f3d_flags>
0

> <r_lp_tautomer_probability>
0.01682948890584

> <s_lp_Force_Field>
OPLS_2005

> <r_lp_Energy>
52.238501

> <b_lp_Chiralities_Consistent>
1

> <s_lp_Variant>
CHEMBL3717_lig3714-2

> <s_i_glide_gridfile>
glide-grid_3lq8

> <i_i_glide_lignum>
4677

> <i_i_glide_rotatable_bonds>
5

> <r_i_docking_score>
-7.44576540883636

> <r_i_glide_ligand_efficiency>
-0.240185980930205

> <r_i_glide_ligand_efficiency_sa>
-0.754515592606129

> <r_i_glide_ligand_efficiency_ln>
-1.67924828499836

> <r_i_glide_gscore>
-7.44576540883636

> <r_i_glide_lipo>
-4.20873313801523

> <r_i_glide_hbond>
0

> <r_i_glide_metal>
0

> <r_i_glide_rewards>
-1.14909769128377

> <r_i_glide_evdw>
-48.353889465332

> <r_i_glide_ecoul>
-1.29095089435577

> <r_i_glide_erotb>
0.526538403514266

> <r_i_glide_esite>
-0.00313587563165665

> <r_i_glide_emodel>
-67.3307207425272

> <r_i_glide_energy>
-49.6448403596878

> <r_i_glide_einternal>
5.26354598999023

> <i_i_glide_confnum>
17

> <i_i_glide_posenum>
106

> <r_i_glide_eff_state_penalty>
0

> <s_user_duplicate_titles>
CHEMBL3717_lig3714

> <s_m_subgroup_title>
dock_pv

> <s_m_subgroupid>
dock_pv

> <b_m_subgroup_collapsed>
1

$$$$
CHEMBL3717_lig4270
                    3D
 Schrodinger Suite 2021-1.
 25 27  0  0  1  0            999 V2000
    0.7062    3.8805   29.5389 N   0  0  0  0  0  0
    2.0519    3.8331   29.6341 N   0  0  0  0  0  0
    2.8062    4.2619   30.7350 C   0  0  0  0  0  0
    2.1971    4.7556   31.8158 N   0  0  0  0  0  0
    0.8436    4.8462   31.7450 C   0  0  0  0  0  0
    0.1050    4.4204   30.6362 C   0  0  0  0  0  0
    4.2023    3.5563   29.2110 N   0  0  0  0  0  0
    4.1231    4.0897   30.4884 N   0  0  0  0  0  0
    2.9839    3.3736   28.7363 C   0  0  0  0  0  0
    2.6295    2.7609   27.4079 C   0  0  0  0  0  0
   -1.3708    4.5318   30.6081 C   0  0  0  0  0  0
   -1.9851    5.7900   30.6080 C   0  0  0  0  0  0
   -3.3746    5.8946   30.6085 C   0  0  0  0  0  0
   -4.1527    4.7401   30.6077 C   0  0  0  0  0  0
   -3.5535    3.4832   30.6077 C   0  0  0  0  0  0
   -2.1640    3.3800   30.6080 C   0  0  0  0  0  0
   -5.4997    4.8387   30.6147 F   0  0  0  0  0  0
    0.3493    5.2553   32.6079 H   0  0  0  0  0  0
    3.4962    2.3534   26.8890 H   0  0  0  0  0  0
    1.9070    1.9571   27.5242 H   0  0  0  0  0  0
    2.1646    3.4945   26.7491 H   0  0  0  0  0  0
   -1.3823    6.6874   30.6075 H   0  0  0  0  0  0
   -3.8546    6.8607   30.6170 H   0  0  0  0  0  0
   -4.1663    2.5920   30.6073 H   0  0  0  0  0  0
   -1.6983    2.4053   30.6081 H   0  0  0  0  0  0
  1  2  1  0  0  0
  1  6  2  0  0  0
  2  3  1  0  0  0
  2  9  1  0  0  0
  3  4  1  0  0  0
  3  8  2  0  0  0
  4  5  2  0  0  0
  5  6  1  0  0  0
  5 18  1  0  0  0
  6 11  1  0  0  0
  7  8  1  0  0  0
  7  9  2  0  0  0
  9 10  1  0  0  0
 10 19  1  0  0  0
 10 20  1  0  0  0
 10 21  1  0  0  0
 11 12  1  0  0  0
 11 16  2  0  0  0
 12 13  2  0  0  0
 12 22  1  0  0  0
 13 14  1  0  0  0
 13 23  1  0  0  0
 14 15  2  0  0  0
 14 17  1  0  0  0
 15 16  1  0  0  0
 15 24  1  0  0  0
 16 25  1  0  0  0
M  END
> <s_m_entry_id>
10331

> <s_m_entry_name>
dock_pv.400

> <s_m_Source_Path>
/home/csk/Desktop/cluster/DUD-E-result/met

> <s_m_Source_File>
dock_pv.maegz

> <i_m_Source_File_Index>
400

> <chembl_id>
CHEMBL2170958

> <chembl_pref_name>
None

> <i_lp_mmshare_version>
53161

> <i_f3d_flags>
0

> <r_lp_tautomer_probability>
1

> <s_lp_Force_Field>
OPLS_2005

> <r_lp_Energy>
18.755081

> <b_lp_Chiralities_Consistent>
1

> <s_lp_Variant>
CHEMBL3717_lig4270-1

> <s_i_glide_gridfile>
glide-grid_3lq8

> <i_i_glide_lignum>
5485

> <i_i_glide_rotatable_bonds>
1

> <r_i_docking_score>
-7.44305828830493

> <r_i_glide_ligand_efficiency>
-0.437826958135584

> <r_i_glide_ligand_efficiency_sa>
-1.12577639628473

> <r_i_glide_ligand_efficiency_ln>
-1.94172815865993

> <r_i_glide_gscore>
-7.44305828830493

> <r_i_glide_lipo>
-2.30714359781822

> <r_i_glide_hbond>
0

> <r_i_glide_metal>
0

> <r_i_glide_rewards>
-4.01185896860162

> <r_i_glide_evdw>
-31.7043628692627

> <r_i_glide_ecoul>
0.909913063049316

> <r_i_glide_erotb>
0.32467546212064

> <r_i_glide_esite>
0

> <r_i_glide_emodel>
-43.0492939669736

> <r_i_glide_energy>
-30.7944498062134

> <r_i_glide_einternal>
2.81860876083374

> <i_i_glide_confnum>
2

> <i_i_glide_posenum>
385

> <r_i_glide_eff_state_penalty>
0

> <s_user_duplicate_titles>
CHEMBL3717_lig4270

> <s_m_subgroup_title>
dock_pv

> <s_m_subgroupid>
dock_pv

> <b_m_subgroup_collapsed>
1

$$$$
CHEMBL3717_lig2977
                    3D
 Schrodinger Suite 2021-1.
 52 56  0  0  1  0            999 V2000
   -8.6160    0.9414   32.8889 S   0  0  0  0  0  0
   -7.2601    1.6984   30.7659 N   0  0  0  0  0  0
   -7.6456    0.6413   31.4349 C   0  0  0  0  0  0
   -7.6270    2.8070   31.4699 N   0  0  0  0  0  0
   -8.3344    2.6467   32.6310 C   0  0  0  0  0  0
   -8.5752    3.7969   33.2134 N   0  0  0  0  0  0
   -7.9661    4.7570   32.4073 N   0  0  0  0  0  0
   -7.4070    4.1691   31.3687 C   0  0  0  0  0  0
   -6.6187    4.8494   30.2633 C   0  0  0  0  0  0
   -5.1030    4.7514   30.4488 C   0  0  0  0  0  0
   -4.3473    5.9049   30.6631 C   0  0  0  0  0  0
   -2.9692    5.8196   30.8510 C   0  0  0  0  0  0
   -2.3261    4.5700   30.8338 C   0  0  0  0  0  0
   -3.0870    3.4249   30.6080 C   0  0  0  0  0  0
   -4.4582    3.5130   30.3911 C   0  0  0  0  0  0
   -0.9706    4.3536   31.0063 O   0  0  0  0  0  0
   -0.0571    5.4418   31.1448 C   0  0  0  0  0  0
    1.1733    5.1631   30.2693 C   0  0  0  0  0  0
    2.3383    4.7586   30.8410 N   0  0  0  0  0  0
    1.1043    5.4907   29.0823 O   0  0  0  0  0  0
    2.4128    4.0423   32.1290 C   0  0  0  0  0  0
    2.7019    2.5614   31.8012 C   0  0  0  0  0  0
    3.8835    2.4562   31.0080 O   0  0  0  0  0  0
    3.7912    3.1570   29.7655 C   0  0  0  0  0  0
    3.5623    4.6562   30.0259 C   0  0  0  0  0  0
   -7.1954   -0.6967   31.0699 C   0  0  0  0  0  0
   -7.5958   -1.9427   31.5828 C   0  0  0  0  0  0
   -6.9109   -2.9532   31.0945 N   0  0  0  0  0  0
   -6.0665   -2.3947   30.2195 N   0  0  0  0  0  0
   -6.2011   -1.0340   30.1600 C   0  0  0  0  0  0
   -5.0590   -3.2098   29.5664 C   0  0  0  0  0  0
   -6.9000    5.9030   30.2080 H   0  0  0  0  0  0
   -6.8934    4.4246   29.2988 H   0  0  0  0  0  0
   -4.8305    6.8710   30.6847 H   0  0  0  0  0  0
   -2.4380    6.7422   31.0081 H   0  0  0  0  0  0
   -2.6037    2.4594   30.5795 H   0  0  0  0  0  0
   -5.0061    2.6077   30.1921 H   0  0  0  0  0  0
    0.2144    5.5571   32.1912 H   0  0  0  0  0  0
   -0.4351    6.4075   30.8185 H   0  0  0  0  0  0
    1.6161    4.2153   32.8504 H   0  0  0  0  0  0
    3.2965    4.4641   32.6080 H   0  0  0  0  0  0
    2.8221    1.9874   32.7198 H   0  0  0  0  0  0
    1.8553    2.1128   31.2813 H   0  0  0  0  0  0
    4.7060    3.0179   29.1934 H   0  0  0  0  0  0
    2.9889    2.7430   29.1507 H   0  0  0  0  0  0
    4.3588    5.0314   30.6691 H   0  0  0  0  0  0
    3.5899    5.2941   29.1419 H   0  0  0  0  0  0
   -8.3554   -2.1002   32.3345 H   0  0  0  0  0  0
   -5.5613   -0.4401   29.5233 H   0  0  0  0  0  0
   -4.7946   -2.7674   28.6067 H   0  0  0  0  0  0
   -4.1697   -3.2430   30.1965 H   0  0  0  0  0  0
   -5.4287   -4.2241   29.4090 H   0  0  0  0  0  0
  1  5  1  0  0  0
  1  3  1  0  0  0
  2  4  1  0  0  0
  2  3  2  0  0  0
  3 26  1  0  0  0
  4  5  1  0  0  0
  4  8  1  0  0  0
  5  6  2  0  0  0
  6  7  1  0  0  0
  7  8  2  0  0  0
  8  9  1  0  0  0
  9 10  1  0  0  0
  9 32  1  0  0  0
  9 33  1  0  0  0
 10 11  2  0  0  0
 10 15  1  0  0  0
 11 12  1  0  0  0
 11 34  1  0  0  0
 12 13  2  0  0  0
 12 35  1  0  0  0
 13 14  1  0  0  0
 13 16  1  0  0  0
 14 15  2  0  0  0
 14 36  1  0  0  0
 15 37  1  0  0  0
 16 17  1  0  0  0
 17 18  1  0  0  0
 17 38  1  0  0  0
 17 39  1  0  0  0
 18 19  1  0  0  0
 18 20  2  0  0  0
 19 21  1  0  0  0
 19 25  1  0  0  0
 21 22  1  0  0  0
 21 40  1  0  0  0
 21 41  1  0  0  0
 22 23  1  0  0  0
 22 42  1  0  0  0
 22 43  1  0  0  0
 23 24  1  0  0  0
 24 25  1  0  0  0
 24 44  1  0  0  0
 24 45  1  0  0  0
 25 46  1  0  0  0
 25 47  1  0  0  0
 26 27  1  0  0  0
 26 30  2  0  0  0
 27 28  2  0  0  0
 27 48  1  0  0  0
 28 29  1  0  0  0
 29 30  1  0  0  0
 29 31  1  0  0  0
 30 49  1  0  0  0
 31 50  1  0  0  0
 31 51  1  0  0  0
 31 52  1  0  0  0
M  END
> <s_m_entry_id>
10333

> <s_m_entry_name>
dock_pv.402

> <s_m_Source_Path>
/home/csk/Desktop/cluster/DUD-E-result/met

> <s_m_Source_File>
dock_pv.maegz

> <i_m_Source_File_Index>
402

> <chembl_id>
CHEMBL4161526

> <chembl_pref_name>
None

> <i_lp_mmshare_version>
53161

> <i_f3d_flags>
0

> <r_lp_tautomer_probability>
1

> <s_lp_Force_Field>
OPLS_2005

> <r_lp_Energy>
44.5632

> <b_lp_Chiralities_Consistent>
1

> <s_lp_Variant>
CHEMBL3717_lig2977-1

> <s_i_glide_gridfile>
glide-grid_3lq8

> <i_i_glide_lignum>
3654

> <i_i_glide_rotatable_bonds>
7

> <r_i_docking_score>
-7.43991078313661

> <r_i_glide_ligand_efficiency>
-0.239997122036665

> <r_i_glide_ligand_efficiency_sa>
-0.753922314932608

> <r_i_glide_ligand_efficiency_ln>
-1.67792788748034

> <r_i_glide_gscore>
-7.43991078313661

> <r_i_glide_lipo>
-3.14917685122712

> <r_i_glide_hbond>
0

> <r_i_glide_metal>
0

> <r_i_glide_rewards>
-1.98438154054679

> <r_i_glide_evdw>
-44.6750259399414

> <r_i_glide_ecoul>
-4.26013708114624

> <r_i_glide_erotb>
0.619985651404323

> <r_i_glide_esite>
-0.0535661835980214

> <r_i_glide_emodel>
-69.105460002426

> <r_i_glide_energy>
-48.9351630210876

> <r_i_glide_einternal>
5.69526290893555

> <i_i_glide_confnum>
5

> <i_i_glide_posenum>
4

> <r_i_glide_eff_state_penalty>
0

> <s_user_duplicate_titles>
CHEMBL3717_lig2977

> <s_m_subgroup_title>
dock_pv

> <s_m_subgroupid>
dock_pv

> <b_m_subgroup_collapsed>
1

$$$$
CHEMBL3717_lig4118
                    3D
 Schrodinger Suite 2021-1.
 37 39  0  0  1  0            999 V2000
   -5.1085    3.2516   30.5671 O   0  0  0  0  0  0
   -3.7492    6.6276   30.6080 N   0  0  0  0  0  0
   -6.2174   -0.0407   30.4723 N   0  0  1  0  0  0
    4.5570    3.9493   29.6043 N   0  0  0  0  0  0
   -4.1356    4.2327   30.5852 C   0  0  0  0  0  0
   -1.8634    5.1061   30.6341 C   0  0  0  0  0  0
   -4.7598    1.8702   30.6858 C   0  0  1  0  0  0
   -2.7449    4.0142   30.6080 C   0  0  0  0  0  0
   -4.5788    5.5564   30.5955 C   0  0  0  0  0  0
   -2.4179    6.3874   30.6082 C   0  0  0  0  0  0
   -0.3959    4.9778   30.6077 C   0  0  0  0  0  0
   -5.9932    1.1558   31.2659 C   0  0  0  0  0  0
   -4.5300    1.1915   29.3375 C   0  0  0  0  0  0
    1.7627    3.9343   29.9065 C   0  0  0  0  0  0
    0.2978    4.0028   29.9873 C   0  0  0  0  0  0
   -5.7801    0.3344   29.1422 C   0  0  0  0  0  0
    2.5909    4.3688   30.9491 C   0  0  0  0  0  0
    2.3538    3.4901   28.7189 C   0  0  0  0  0  0
    3.9734    4.3568   30.7566 C   0  0  0  0  0  0
    3.7441    3.5226   28.6068 C   0  0  0  0  0  0
   -5.6243   -0.7873   30.8101 H   0  0  0  0  0  0
   -3.9409    1.7390   31.3947 H   0  0  0  0  0  0
   -2.3426    3.0134   30.5960 H   0  0  0  0  0  0
   -5.6364    5.7771   30.5750 H   0  0  0  0  0  0
   -1.7843    7.2630   30.6018 H   0  0  0  0  0  0
    0.1494    5.7569   31.1216 H   0  0  0  0  0  0
   -5.8990    0.9401   32.3313 H   0  0  0  0  0  0
   -6.8832    1.7755   31.1362 H   0  0  0  0  0  0
   -4.4622    1.9150   28.5253 H   0  0  0  0  0  0
   -3.6268    0.5821   29.3248 H   0  0  0  0  0  0
   -0.2367    3.2081   29.4856 H   0  0  0  0  0  0
   -6.5628    0.8665   28.5978 H   0  0  0  0  0  0
   -5.5487   -0.5855   28.6080 H   0  0  0  0  0  0
    2.1759    4.7241   31.8807 H   0  0  0  0  0  0
    1.7488    3.1463   27.8912 H   0  0  0  0  0  0
    4.6425    4.6992   31.5297 H   0  0  0  0  0  0
    4.2329    3.1825   27.7060 H   0  0  0  0  0  0
  1  5  1  0  0  0
  1  7  1  0  0  0
  2  9  1  0  0  0
  2 10  2  0  0  0
  3 12  1  0  0  0
  3 16  1  0  0  0
  3 21  1  0  0  0
  4 19  2  0  0  0
  4 20  1  0  0  0
  5  8  1  0  0  0
  5  9  2  0  0  0
  6  8  2  0  0  0
  6 10  1  0  0  0
  6 11  1  0  0  0
  7 12  1  0  0  0
  7 13  1  0  0  0
  7 22  1  0  0  0
  8 23  1  0  0  0
  9 24  1  0  0  0
 10 25  1  0  0  0
 11 15  2  3  0  0
 11 26  1  0  0  0
 12 27  1  0  0  0
 12 28  1  0  0  0
 13 16  1  0  0  0
 13 29  1  0  0  0
 13 30  1  0  0  0
 14 15  1  0  0  0
 14 17  2  0  0  0
 14 18  1  0  0  0
 15 31  1  0  0  0
 16 32  1  0  0  0
 16 33  1  0  0  0
 17 19  1  0  0  0
 17 34  1  0  0  0
 18 20  2  0  0  0
 18 35  1  0  0  0
 19 36  1  0  0  0
 20 37  1  0  0  0
M  END
> <s_m_entry_id>
10334

> <s_m_entry_name>
dock_pv.403

> <s_m_Source_Path>
/home/csk/Desktop/cluster/DUD-E-result/met

> <s_m_Source_File>
dock_pv.maegz

> <i_m_Source_File_Index>
403

> <chembl_id>
CHEMBL1966087

> <chembl_pref_name>
None

> <i_lp_mmshare_version>
53161

> <i_f3d_flags>
0

> <r_lp_tautomer_probability>
1

> <s_lp_Force_Field>
OPLS_2005

> <r_lp_Energy>
34.370858

> <b_lp_Chiralities_Consistent>
1

> <s_lp_Variant>
CHEMBL3717_lig4118-3

> <s_i_glide_gridfile>
glide-grid_3lq8

> <i_i_glide_lignum>
5265

> <i_i_glide_rotatable_bonds>
4

> <r_i_docking_score>
-7.43887755515144

> <r_i_glide_ligand_efficiency>
-0.371943877757572

> <r_i_glide_ligand_efficiency_sa>
-1.0096110131616

> <r_i_glide_ligand_efficiency_ln>
-1.86170570145205

> <r_i_glide_gscore>
-7.43887755515144

> <r_i_glide_lipo>
-3.3396492819661

> <r_i_glide_hbond>
-0.166073887558946

> <r_i_glide_metal>
0

> <r_i_glide_rewards>
-3.02512585355391

> <r_i_glide_evdw>
-35.9039764404297

> <r_i_glide_ecoul>
-0.738919317722321

> <r_i_glide_erotb>
0.99800818760736

> <r_i_glide_esite>
0

> <r_i_glide_emodel>
-52.1699417963808

> <r_i_glide_energy>
-36.642895758152

> <r_i_glide_einternal>
3.39069056510925

> <i_i_glide_confnum>
207

> <i_i_glide_posenum>
317

> <r_i_glide_eff_state_penalty>
0

> <s_user_duplicate_titles>
CHEMBL3717_lig4118,CHEMBL3717_lig4118

> <s_m_subgroup_title>
dock_pv

> <s_m_subgroupid>
dock_pv

> <b_m_subgroup_collapsed>
1

$$$$
CHEMBL3717_lig1456
                    3D
 Schrodinger Suite 2021-1.
 60 64  0  0  1  0            999 V2000
   -5.9529    2.8684   30.1293 C   0  0  0  0  0  0
   -2.9311    4.9205   30.6081 C   0  0  0  0  0  0
   -2.6381    3.5677   30.8375 C   0  0  0  0  0  0
   -5.0629    0.7638   30.8313 C   0  0  0  0  0  0
   -4.2657   -2.4128   30.8472 C   0  0  0  0  0  0
   -3.0184   -2.2022   30.2173 C   0  0  0  0  0  0
   -1.8567    5.6848   30.6081 N   0  0  0  0  0  0
   -7.1544    2.2775   29.8860 N   0  0  0  0  0  0
   -7.2967    0.9403   30.0807 C   0  0  0  0  0  0
   -6.2735    0.1085   30.5467 C   0  0  0  0  0  0
   -4.8459    2.1395   30.5835 C   0  0  0  0  0  0
   -1.2750    3.5669   31.0281 C   0  0  0  0  0  0
   -3.0676   -2.8090   32.9275 C   0  0  0  0  0  0
   -1.8396   -2.2032   30.9584 C   0  0  0  0  0  0
   -3.0450   -3.2430   34.2079 F   0  0  0  0  0  0
   -5.5814   -2.1698   30.0800 C   0  0  2  0  0  0
   -2.8601   -1.8790   28.5328 Cl  0  0  0  0  0  0
   -8.5433    0.4024   29.7897 N   0  0  0  0  0  0
   -5.7348   -3.0741   33.0887 Cl  0  0  0  0  0  0
   -3.4621    2.3793   30.9004 C   0  0  0  0  0  0
   -3.0138    1.1711   31.4080 C   0  0  0  0  0  0
   -3.9678    0.2168   31.4122 O   0  0  0  0  0  0
   -6.4394   -1.2494   30.7795 O   0  0  0  0  0  0
   -1.8674   -2.4430   32.3232 C   0  0  0  0  0  0
   -4.2708   -2.7507   32.2186 C   0  0  0  0  0  0
   -0.8377    4.8509   30.8839 N   0  0  0  0  0  0
   -6.3625   -3.4652   29.8082 C   0  0  0  0  0  0
    0.5504    5.3285   30.8553 C   0  0  0  0  0  0
    1.5427    4.5153   31.7377 C   0  0  0  0  0  0
    2.1298    3.2449   31.0713 C   0  0  0  0  0  0
    2.5799    3.6270   29.7210 N   0  0  0  0  0  0
    1.5235    4.1181   28.8164 C   0  0  0  0  0  0
    1.0656    5.4712   29.4093 C   0  0  0  0  0  0
    3.8838    3.6791   29.3482 C   0  0  0  0  0  0
    4.9785    3.3875   30.3721 C   0  0  0  0  0  0
    4.2389    3.9673   28.2081 O   0  0  0  0  0  0
   -5.8896    3.9304   29.9460 H   0  0  0  0  0  0
   -3.9116    5.3331   30.4216 H   0  0  0  0  0  0
   -0.5975    2.7668   31.2513 H   0  0  0  0  0  0
   -0.8938   -2.0429   30.4658 H   0  0  0  0  0  0
   -5.3729   -1.7381   29.1002 H   0  0  0  0  0  0
   -8.6823   -0.5861   29.9398 H   0  0  0  0  0  0
   -9.2788    1.0084   29.4608 H   0  0  0  0  0  0
   -2.0943    0.8744   31.8858 H   0  0  0  0  0  0
   -0.9450   -2.4672   32.8851 H   0  0  0  0  0  0
   -5.7372   -4.1940   29.2918 H   0  0  0  0  0  0
   -6.7259   -3.9338   30.7208 H   0  0  0  0  0  0
   -7.2289   -3.2668   29.1772 H   0  0  0  0  0  0
    0.4691    6.3240   31.2970 H   0  0  0  0  0  0
    1.1060    4.2940   32.7106 H   0  0  0  0  0  0
    2.3774    5.1569   32.0048 H   0  0  0  0  0  0
    1.3705    2.4811   30.9284 H   0  0  0  0  0  0
    2.8978    2.7558   31.6704 H   0  0  0  0  0  0
    1.8315    4.1575   27.7699 H   0  0  0  0  0  0
    0.7090    3.3919   28.8289 H   0  0  0  0  0  0
    1.8826    6.1884   29.4080 H   0  0  0  0  0  0
    0.3168    5.9531   28.7786 H   0  0  0  0  0  0
    4.9181    2.3577   30.7218 H   0  0  0  0  0  0
    4.8945    4.0691   31.2176 H   0  0  0  0  0  0
    5.9615    3.5301   29.9217 H   0  0  0  0  0  0
  1  8  2  0  0  0
  1 11  1  0  0  0
  1 37  1  0  0  0
  2  7  2  0  0  0
  2  3  1  0  0  0
  2 38  1  0  0  0
  3 12  2  0  0  0
  3 20  1  0  0  0
  4 10  1  0  0  0
  4 11  2  0  0  0
  4 22  1  0  0  0
  5 16  1  0  0  0
  5  6  1  0  0  0
  5 25  2  0  0  0
  6 17  1  0  0  0
  6 14  2  0  0  0
  7 26  1  0  0  0
  8  9  1  0  0  0
  9 10  2  0  0  0
  9 18  1  0  0  0
 10 23  1  0  0  0
 11 20  1  0  0  0
 12 26  1  0  0  0
 12 39  1  0  0  0
 13 25  1  0  0  0
 13 15  1  0  0  0
 13 24  2  0  0  0
 14 24  1  0  0  0
 14 40  1  0  0  0
 16 23  1  0  0  0
 16 27  1  0  0  0
 16 41  1  0  0  0
 18 42  1  0  0  0
 18 43  1  0  0  0
 19 25  1  0  0  0
 20 21  2  0  0  0
 21 22  1  0  0  0
 21 44  1  0  0  0
 24 45  1  0  0  0
 26 28  1  0  0  0
 27 46  1  0  0  0
 27 47  1  0  0  0
 27 48  1  0  0  0
 28 29  1  0  0  0
 28 33  1  0  0  0
 28 49  1  0  0  0
 29 30  1  0  0  0
 29 50  1  0  0  0
 29 51  1  0  0  0
 30 31  1  0  0  0
 30 52  1  0  0  0
 30 53  1  0  0  0
 31 32  1  0  0  0
 31 34  1  0  0  0
 32 33  1  0  0  0
 32 54  1  0  0  0
 32 55  1  0  0  0
 33 56  1  0  0  0
 33 57  1  0  0  0
 34 35  1  0  0  0
 34 36  2  0  0  0
 35 58  1  0  0  0
 35 59  1  0  0  0
 35 60  1  0  0  0
M  END
> <s_m_entry_id>
10335

> <s_m_entry_name>
dock_pv.404

> <s_m_Source_Path>
/home/csk/Desktop/cluster/DUD-E-result/met

> <s_m_Source_File>
dock_pv.maegz

> <i_m_Source_File_Index>
404

> <chembl_id>
CHEMBL2401819

> <chembl_pref_name>
None

> <i_lp_mmshare_version>
53161

> <i_f3d_flags>
0

> <r_lp_tautomer_probability>
1

> <s_lp_Force_Field>
OPLS_2005

> <r_lp_Energy>
45.623819

> <b_lp_Chiralities_Consistent>
1

> <s_lp_Variant>
CHEMBL3717_lig1456-1

> <s_i_glide_gridfile>
glide-grid_3lq8

> <i_i_glide_lignum>
1672

> <i_i_glide_rotatable_bonds>
6

> <r_i_docking_score>
-7.43267612956399

> <r_i_glide_ligand_efficiency>
-0.206463225821222

> <r_i_glide_ligand_efficiency_sa>
-0.681726550419451

> <r_i_glide_ligand_efficiency_ln>
-1.62160912376803

> <r_i_glide_gscore>
-7.43267612956399

> <r_i_glide_lipo>
-3.52922480405096

> <r_i_glide_hbond>
0

> <r_i_glide_metal>
0

> <r_i_glide_rewards>
-1.85634453248312

> <r_i_glide_evdw>
-45.1415824890137

> <r_i_glide_ecoul>
-0.876873672008514

> <r_i_glide_erotb>
0.363844531609328

> <r_i_glide_esite>
-0.0223411493872873

> <r_i_glide_emodel>
-57.5531886438841

> <r_i_glide_energy>
-46.0184561610222

> <r_i_glide_einternal>
9.74645137786865

> <i_i_glide_confnum>
2

> <i_i_glide_posenum>
5

> <r_i_glide_eff_state_penalty>
0

> <s_user_duplicate_titles>
CHEMBL3717_lig1456

> <s_m_subgroup_title>
dock_pv

> <s_m_subgroupid>
dock_pv

> <b_m_subgroup_collapsed>
1

$$$$
CHEMBL3717_lig1847
                    3D
 Schrodinger Suite 2021-1.
 42 46  0  0  1  0            999 V2000
    2.2266    3.8044   27.7284 C   0  0  0  0  0  0
    3.3889    3.2136   28.2045 C   0  0  0  0  0  0
    3.6762    3.2140   29.5639 C   0  0  0  0  0  0
    1.3579    4.4625   28.5901 C   0  0  0  0  0  0
    1.6214    4.4883   29.9696 C   0  0  0  0  0  0
    2.7772    3.8126   30.4686 C   0  0  0  0  0  0
    3.0382    3.7281   31.7981 N   0  0  0  0  0  0
    2.1610    4.3570   32.6084 C   0  0  0  0  0  0
    1.1059    5.1144   32.2473 N   0  0  0  0  0  0
    0.8203    5.1516   30.9346 C   0  0  0  0  0  0
   -0.3165    5.8997   30.6087 N   0  0  0  0  0  0
   -1.6321    5.4183   30.6139 C   0  0  0  0  0  0
   -1.8986    4.0418   30.6485 C   0  0  0  0  0  0
   -4.0131    5.9689   30.6073 C   0  0  0  0  0  0
   -2.6705    6.3554   30.6078 C   0  0  0  0  0  0
   -4.2994    4.5994   30.5739 C   0  0  0  0  0  0
   -3.2408    3.6618   30.6078 C   0  0  0  0  0  0
   -3.8773    2.4475   30.5228 N   0  0  0  0  0  0
   -5.2321    2.6836   30.4030 C   0  0  0  0  0  0
   -5.5104    3.9679   30.4824 N   0  0  0  0  0  0
   -6.2512    1.5937   30.1802 C   0  0  0  0  0  0
   -7.6356    1.8423   30.0750 C   0  0  0  0  0  0
   -8.5291    0.7983   29.8328 C   0  0  0  0  0  0
   -8.0659   -0.5063   29.6858 C   0  0  0  0  0  0
   -6.7035   -0.7704   29.7851 C   0  0  0  0  0  0
   -5.8067    0.2684   30.0313 C   0  0  0  0  0  0
   -8.1520    3.1060   30.1893 O   0  0  0  0  0  0
    2.0062    3.7798   26.6716 H   0  0  0  0  0  0
    4.0714    2.7566   27.5066 H   0  0  0  0  0  0
    4.5813    2.7562   29.9330 H   0  0  0  0  0  0
    0.4796    4.9586   28.2102 H   0  0  0  0  0  0
    2.3042    4.2523   33.6700 H   0  0  0  0  0  0
   -0.2657    6.8398   30.9688 H   0  0  0  0  0  0
   -1.1059    3.3092   30.6519 H   0  0  0  0  0  0
   -4.8098    6.7001   30.5867 H   0  0  0  0  0  0
   -2.4297    7.4080   30.6051 H   0  0  0  0  0  0
   -3.4690    1.5259   30.4924 H   0  0  0  0  0  0
   -9.5862    1.0035   29.7510 H   0  0  0  0  0  0
   -8.7604   -1.3104   29.4920 H   0  0  0  0  0  0
   -6.3386   -1.7801   29.6634 H   0  0  0  0  0  0
   -4.7579    0.0213   30.0873 H   0  0  0  0  0  0
   -7.4465    3.7483   30.3218 H   0  0  0  0  0  0
  1  2  2  0  0  0
  1  4  1  0  0  0
  1 28  1  0  0  0
  2  3  1  0  0  0
  2 29  1  0  0  0
  3  6  2  0  0  0
  3 30  1  0  0  0
  4  5  2  0  0  0
  4 31  1  0  0  0
  5  6  1  0  0  0
  5 10  1  0  0  0
  6  7  1  0  0  0
  7  8  2  0  0  0
  8  9  1  0  0  0
  8 32  1  0  0  0
  9 10  2  0  0  0
 10 11  1  0  0  0
 11 12  1  0  0  0
 11 33  1  0  0  0
 12 13  2  0  0  0
 12 15  1  0  0  0
 13 17  1  0  0  0
 13 34  1  0  0  0
 14 16  1  0  0  0
 14 15  2  0  0  0
 14 35  1  0  0  0
 15 36  1  0  0  0
 16 17  2  0  0  0
 16 20  1  0  0  0
 17 18  1  0  0  0
 18 19  1  0  0  0
 18 37  1  0  0  0
 19 20  2  0  0  0
 19 21  1  0  0  0
 21 22  2  0  0  0
 21 26  1  0  0  0
 22 23  1  0  0  0
 22 27  1  0  0  0
 23 24  2  0  0  0
 23 38  1  0  0  0
 24 25  1  0  0  0
 24 39  1  0  0  0
 25 26  2  0  0  0
 25 40  1  0  0  0
 26 41  1  0  0  0
 27 42  1  0  0  0
M  END
> <s_m_entry_id>
10336

> <s_m_entry_name>
dock_pv.405

> <s_m_Source_Path>
/home/csk/Desktop/cluster/DUD-E-result/met

> <s_m_Source_File>
dock_pv.maegz

> <i_m_Source_File_Index>
405

> <chembl_id>
CHEMBL3321897

> <chembl_pref_name>
None

> <i_lp_mmshare_version>
53161

> <i_f3d_flags>
0

> <r_lp_tautomer_probability>
0.999978000239362

> <s_lp_Force_Field>
OPLS_2005

> <r_lp_Energy>
28.49287

> <b_lp_Chiralities_Consistent>
1

> <s_lp_Variant>
CHEMBL3717_lig1847-1

> <s_i_glide_gridfile>
glide-grid_3lq8

> <i_i_glide_lignum>
2133

> <i_i_glide_rotatable_bonds>
4

> <r_i_docking_score>
-7.42550095724282

> <r_i_glide_ligand_efficiency>
-0.275018553971956

> <r_i_glide_ligand_efficiency_sa>
-0.825055661009453

> <r_i_glide_ligand_efficiency_ln>
-1.72853420389529

> <r_i_glide_gscore>
-7.42550095724282

> <r_i_glide_lipo>
-3.76609050344799

> <r_i_glide_hbond>
0

> <r_i_glide_metal>
0

> <r_i_glide_rewards>
-2.14169574137143

> <r_i_glide_evdw>
-39.8701171875

> <r_i_glide_ecoul>
0.113507971167564

> <r_i_glide_erotb>
0.458764951276463

> <r_i_glide_esite>
0

> <r_i_glide_emodel>
-48.1224283490557

> <r_i_glide_energy>
-39.7566092163324

> <r_i_glide_einternal>
15.6488304138184

> <i_i_glide_confnum>
1

> <i_i_glide_posenum>
4

> <r_i_glide_eff_state_penalty>
0

> <s_user_duplicate_titles>
CHEMBL3717_lig1847

> <s_m_subgroup_title>
dock_pv

> <s_m_subgroupid>
dock_pv

> <b_m_subgroup_collapsed>
1

$$$$
CHEMBL3717_lig2049
                    3D
 Schrodinger Suite 2021-1.
 64 66  0  0  1  0            999 V2000
   -3.8530    4.7608   30.6081 N   0  0  0  0  0  0
   -3.1911    5.9833   30.6011 C   0  0  0  0  0  0
   -1.8740    5.7451   30.5230 O   0  0  0  0  0  0
   -3.6817    7.1128   30.6083 O   0  0  0  0  0  0
   -0.9802    6.7598   30.0707 C   0  0  0  0  0  0
    0.4753    6.3008   30.2512 C   0  0  0  0  0  0
    0.8866    5.1576   29.3044 C   0  0  0  0  0  0
    2.3400    4.6879   29.5182 C   0  0  0  0  0  0
    2.8693    3.9568   28.3627 N   0  0  0  0  0  0
    4.3019    3.7356   28.5236 C   0  0  0  0  0  0
    2.1987    2.6756   28.1503 C   0  0  0  0  0  0
   -5.9458   -1.7765   33.0388 N   0  0  0  0  0  0
   -5.7416   -1.2299   31.7966 C   0  0  0  0  0  0
   -5.2009   -0.0670   31.7258 N   0  0  0  0  0  0
   -5.1015    0.5944   30.4937 N   0  0  0  0  0  0
   -5.5994    0.1221   29.2909 C   0  0  0  0  0  0
   -6.1003   -1.2368   29.4074 C   0  0  0  0  0  0
   -6.2017   -1.8726   30.5932 C   0  0  0  0  0  0
   -4.5939    1.9812   30.5398 C   0  0  0  0  0  0
   -5.6388    3.1150   30.6017 C   0  0  0  0  0  0
   -5.6935    0.7575   28.2432 O   0  0  0  0  0  0
   -6.2419   -3.0902   33.4427 C   0  0  0  0  0  0
   -7.0477   -3.3061   34.5768 C   0  0  0  0  0  0
   -7.3217   -4.6153   34.9904 C   0  0  0  0  0  0
   -6.7979   -5.7038   34.2965 C   0  0  0  0  0  0
   -5.9858   -5.4916   33.1839 C   0  0  0  0  0  0
   -5.7049   -4.1922   32.7668 C   0  0  0  0  0  0
   -7.6593   -2.1501   35.3636 C   0  0  0  0  0  0
   -5.2342    4.4694   30.6077 C   0  0  0  0  0  0
   -6.2150    5.4751   30.6079 C   0  0  0  0  0  0
   -7.5683    5.1567   30.5716 C   0  0  0  0  0  0
   -7.9691    3.8287   30.5936 C   0  0  0  0  0  0
   -7.0138    2.8182   30.6196 C   0  0  0  0  0  0
   -3.2481    3.9562   30.6001 H   0  0  0  0  0  0
   -1.1449    7.6922   30.6096 H   0  0  0  0  0  0
   -1.1725    6.9786   29.0188 H   0  0  0  0  0  0
    0.6414    6.0122   31.2904 H   0  0  0  0  0  0
    1.1249    7.1570   30.0664 H   0  0  0  0  0  0
    0.7059    5.4074   28.2578 H   0  0  0  0  0  0
    0.2327    4.3122   29.5235 H   0  0  0  0  0  0
    2.3958    4.0579   30.4087 H   0  0  0  0  0  0
    2.9666    5.5549   29.7341 H   0  0  0  0  0  0
    4.8342    4.6831   28.6210 H   0  0  0  0  0  0
    4.7035    3.2314   27.6445 H   0  0  0  0  0  0
    4.5260    3.1267   29.4013 H   0  0  0  0  0  0
    1.1342    2.8092   27.9562 H   0  0  0  0  0  0
    2.6161    2.1594   27.2841 H   0  0  0  0  0  0
    2.3044    2.0191   29.0160 H   0  0  0  0  0  0
   -6.0471   -1.0819   33.7735 H   0  0  0  0  0  0
   -6.4283   -1.7195   28.5000 H   0  0  0  0  0  0
   -6.6107   -2.8707   30.6060 H   0  0  0  0  0  0
   -3.9524    2.1507   29.6726 H   0  0  0  0  0  0
   -3.9403    2.0785   31.4073 H   0  0  0  0  0  0
   -7.9472   -4.7936   35.8522 H   0  0  0  0  0  0
   -7.0141   -6.7104   34.6252 H   0  0  0  0  0  0
   -5.5625   -6.3294   32.6472 H   0  0  0  0  0  0
   -5.0482   -4.0443   31.9213 H   0  0  0  0  0  0
   -8.4650   -2.4818   36.0224 H   0  0  0  0  0  0
   -6.8965   -1.6455   35.9605 H   0  0  0  0  0  0
   -8.0950   -1.4132   34.6842 H   0  0  0  0  0  0
   -5.9587    6.5219   30.6081 H   0  0  0  0  0  0
   -8.3057    5.9418   30.5157 H   0  0  0  0  0  0
   -9.0195    3.5813   30.5759 H   0  0  0  0  0  0
   -7.3707    1.8001   30.6357 H   0  0  0  0  0  0
  1  2  1  0  0  0
  1 29  1  0  0  0
  1 34  1  0  0  0
  2  3  1  0  0  0
  2  4  2  0  0  0
  3  5  1  0  0  0
  5  6  1  0  0  0
  5 35  1  0  0  0
  5 36  1  0  0  0
  6  7  1  0  0  0
  6 37  1  0  0  0
  6 38  1  0  0  0
  7  8  1  0  0  0
  7 39  1  0  0  0
  7 40  1  0  0  0
  8  9  1  0  0  0
  8 41  1  0  0  0
  8 42  1  0  0  0
  9 10  1  0  0  0
  9 11  1  0  0  0
 10 43  1  0  0  0
 10 44  1  0  0  0
 10 45  1  0  0  0
 11 46  1  0  0  0
 11 47  1  0  0  0
 11 48  1  0  0  0
 12 13  1  0  0  0
 12 22  1  0  0  0
 12 49  1  0  0  0
 13 14  2  0  0  0
 13 18  1  0  0  0
 14 15  1  0  0  0
 15 16  1  0  0  0
 15 19  1  0  0  0
 16 17  1  0  0  0
 16 21  2  0  0  0
 17 18  2  0  0  0
 17 50  1  0  0  0
 18 51  1  0  0  0
 19 20  1  0  0  0
 19 52  1  0  0  0
 19 53  1  0  0  0
 20 29  2  0  0  0
 20 33  1  0  0  0
 22 23  2  0  0  0
 22 27  1  0  0  0
 23 24  1  0  0  0
 23 28  1  0  0  0
 24 25  2  0  0  0
 24 54  1  0  0  0
 25 26  1  0  0  0
 25 55  1  0  0  0
 26 27  2  0  0  0
 26 56  1  0  0  0
 27 57  1  0  0  0
 28 58  1  0  0  0
 28 59  1  0  0  0
 28 60  1  0  0  0
 29 30  1  0  0  0
 30 31  2  0  0  0
 30 61  1  0  0  0
 31 32  1  0  0  0
 31 62  1  0  0  0
 32 33  2  0  0  0
 32 63  1  0  0  0
 33 64  1  0  0  0
M  END
> <s_m_entry_id>
10337

> <s_m_entry_name>
dock_pv.406

> <s_m_Source_Path>
/home/csk/Desktop/cluster/DUD-E-result/met

> <s_m_Source_File>
dock_pv.maegz

> <i_m_Source_File_Index>
406

> <chembl_id>
CHEMBL3417492

> <chembl_pref_name>
None

> <i_lp_mmshare_version>
53161

> <i_f3d_flags>
0

> <r_lp_tautomer_probability>
0.999999999999446

> <s_lp_Force_Field>
OPLS_2005

> <r_lp_Energy>
40.787938

> <b_lp_Chiralities_Consistent>
1

> <s_lp_Variant>
CHEMBL3717_lig2049-1

> <s_i_glide_gridfile>
glide-grid_3lq8

> <i_i_glide_lignum>
2345

> <i_i_glide_rotatable_bonds>
12

> <r_i_docking_score>
-7.42489398102494

> <r_i_glide_ligand_efficiency>
-0.224996787303786

> <r_i_glide_ligand_efficiency_sa>
-0.721684918574537

> <r_i_glide_ligand_efficiency_ln>
-1.65125797733639

> <r_i_glide_gscore>
-7.42489398102494

> <r_i_glide_lipo>
-2.72459875980215

> <r_i_glide_hbond>
-0.864

> <r_i_glide_metal>
0

> <r_i_glide_rewards>
-1.14564182844739

> <r_i_glide_evdw>
-43.2597312927246

> <r_i_glide_ecoul>
-10.7497911453247

> <r_i_glide_erotb>
1.09089195730423

> <r_i_glide_esite>
-0.00609011364469314

> <r_i_glide_emodel>
-73.1696855070903

> <r_i_glide_energy>
-54.0095224380493

> <r_i_glide_einternal>
6.35538291931152

> <i_i_glide_confnum>
25

> <i_i_glide_posenum>
117

> <r_i_glide_eff_state_penalty>
0

> <s_user_duplicate_titles>
CHEMBL3717_lig2049

> <s_m_subgroup_title>
dock_pv

> <s_m_subgroupid>
dock_pv

> <b_m_subgroup_collapsed>
1

$$$$
CHEMBL3717_lig1082
                    3D
 Schrodinger Suite 2021-1.
 46 49  0  0  1  0            999 V2000
   -7.0901   -0.9230   31.7211 C   0  0  0  0  0  0
   -6.3755   -1.9231   32.3728 C   0  0  0  0  0  0
   -4.9870   -1.8843   32.3892 C   0  0  0  0  0  0
   -4.3004   -0.8384   31.7658 C   0  0  0  0  0  0
   -5.0130    0.1841   31.0968 C   0  0  0  0  0  0
   -6.4241    0.1227   31.0831 C   0  0  0  0  0  0
   -7.4082    1.2942   30.2683 Cl  0  0  0  0  0  0
   -4.3105   -2.8752   33.0129 F   0  0  0  0  0  0
   -2.5653   -0.8720   31.8294 Cl  0  0  0  0  0  0
   -4.2531    1.3001   30.3559 C   0  0  2  0  0  0
   -4.8491    2.5796   30.6109 O   0  0  0  0  0  0
   -4.2370    1.0399   28.8424 C   0  0  0  0  0  0
   -4.1123    3.7580   30.5976 C   0  0  0  0  0  0
   -4.8091    4.9807   30.6084 C   0  0  0  0  0  0
   -4.1947    6.1894   30.6083 N   0  0  0  0  0  0
   -2.8429    6.2171   30.6077 C   0  0  0  0  0  0
   -2.0561    5.0657   30.6233 C   0  0  0  0  0  0
   -2.7061    3.8271   30.6082 C   0  0  0  0  0  0
   -6.2019    5.0074   30.6075 N   0  0  0  0  0  0
   -0.5715    5.1489   30.6074 C   0  0  0  0  0  0
    0.3636    4.2070   31.0189 C   0  0  0  0  0  0
    1.5953    4.7258   30.7140 N   0  0  0  0  0  0
    1.5059    5.9571   30.2082 N   0  0  0  0  0  0
    0.2222    6.2040   30.1320 C   0  0  0  0  0  0
    2.9061    4.1791   31.0397 C   0  0  0  0  0  0
    3.2292    2.7571   30.6083 C   0  0  0  0  0  0
    4.6074    3.1570   30.3295 N   0  0  2  0  0  0
    4.1347    4.5295   30.1970 C   0  0  0  0  0  0
   -8.1680   -0.9639   31.7086 H   0  0  0  0  0  0
   -6.8985   -2.7331   32.8582 H   0  0  0  0  0  0
   -3.2323    1.2918   30.7112 H   0  0  0  0  0  0
   -3.7591    0.0878   28.6102 H   0  0  0  0  0  0
   -5.2435    1.0060   28.4275 H   0  0  0  0  0  0
   -3.6941    1.8141   28.3103 H   0  0  0  0  0  0
   -2.3878    7.1962   30.6076 H   0  0  0  0  0  0
   -2.0897    2.9455   30.6034 H   0  0  0  0  0  0
   -6.6897    4.1281   30.5070 H   0  0  0  0  0  0
   -6.6474    5.8869   30.3777 H   0  0  0  0  0  0
    0.2645    3.2299   31.4689 H   0  0  0  0  0  0
   -0.1358    7.1360   29.7209 H   0  0  0  0  0  0
    3.0367    4.3034   32.1161 H   0  0  0  0  0  0
    3.2003    1.9904   31.3852 H   0  0  0  0  0  0
    2.6915    2.4461   29.7072 H   0  0  0  0  0  0
    5.0745    2.7469   29.5250 H   0  0  0  0  0  0
    3.8915    4.7880   29.1619 H   0  0  0  0  0  0
    4.8587    5.2201   30.6299 H   0  0  0  0  0  0
  1  6  1  0  0  0
  1  2  2  0  0  0
  1 29  1  0  0  0
  2  3  1  0  0  0
  2 30  1  0  0  0
  3  4  2  0  0  0
  3  8  1  0  0  0
  4  9  1  0  0  0
  4  5  1  0  0  0
  5 10  1  0  0  0
  5  6  2  0  0  0
  6  7  1  0  0  0
 10 11  1  0  0  0
 10 12  1  0  0  0
 10 31  1  0  0  0
 11 13  1  0  0  0
 12 32  1  0  0  0
 12 33  1  0  0  0
 12 34  1  0  0  0
 13 14  2  0  0  0
 13 18  1  0  0  0
 14 15  1  0  0  0
 14 19  1  0  0  0
 15 16  2  0  0  0
 16 17  1  0  0  0
 16 35  1  0  0  0
 17 18  2  0  0  0
 17 20  1  0  0  0
 18 36  1  0  0  0
 19 37  1  0  0  0
 19 38  1  0  0  0
 20 21  2  0  0  0
 20 24  1  0  0  0
 21 22  1  0  0  0
 21 39  1  0  0  0
 22 23  1  0  0  0
 22 25  1  0  0  0
 23 24  2  0  0  0
 24 40  1  0  0  0
 25 26  1  0  0  0
 25 28  1  0  0  0
 25 41  1  0  0  0
 26 27  1  0  0  0
 26 42  1  0  0  0
 26 43  1  0  0  0
 27 28  1  0  0  0
 27 44  1  0  0  0
 28 45  1  0  0  0
 28 46  1  0  0  0
M  END
> <s_m_entry_id>
10338

> <s_m_entry_name>
dock_pv.407

> <s_m_Source_Path>
/home/csk/Desktop/cluster/DUD-E-result/met

> <s_m_Source_File>
dock_pv.maegz

> <i_m_Source_File_Index>
407

> <chembl_id>
CHEMBL1825134

> <chembl_pref_name>
None

> <i_lp_mmshare_version>
53161

> <i_f3d_flags>
0

> <r_lp_tautomer_probability>
0.999999404453161

> <s_lp_Force_Field>
OPLS_2005

> <r_lp_Energy>
28.875237

> <b_lp_Chiralities_Consistent>
1

> <s_lp_Variant>
CHEMBL3717_lig1082-1

> <s_i_glide_gridfile>
glide-grid_3lq8

> <i_i_glide_lignum>
1229

> <i_i_glide_rotatable_bonds>
5

> <r_i_docking_score>
-7.42226115398014

> <r_i_glide_ligand_efficiency>
-0.265080755499291

> <r_i_glide_ligand_efficiency_sa>
-0.804941297911538

> <r_i_glide_ligand_efficiency_ln>
-1.71327580139562

> <r_i_glide_gscore>
-7.42226115398014

> <r_i_glide_lipo>
-3.53796490459954

> <r_i_glide_hbond>
-0.190655753482961

> <r_i_glide_metal>
0

> <r_i_glide_rewards>
-1.39747904312597

> <r_i_glide_evdw>
-45.2130317687988

> <r_i_glide_ecoul>
-3.71159768104553

> <r_i_glide_erotb>
0.555426688106759

> <r_i_glide_esite>
-0.0341969002816579

> <r_i_glide_emodel>
-66.7168606657201

> <r_i_glide_energy>
-48.9246294498444

> <r_i_glide_einternal>
6.57750654220581

> <i_i_glide_confnum>
4

> <i_i_glide_posenum>
229

> <r_i_glide_eff_state_penalty>
0

> <s_user_duplicate_titles>
CHEMBL3717_lig1082

> <s_m_subgroup_title>
dock_pv

> <s_m_subgroupid>
dock_pv

> <b_m_subgroup_collapsed>
1

$$$$
CHEMBL3717_lig1102
                    3D
 Schrodinger Suite 2021-1.
 44 48  0  0  1  0            999 V2000
   -0.9850    4.8347   30.6147 C   0  0  0  0  0  0
   -1.3718    6.1780   30.6079 C   0  0  0  0  0  0
   -2.7270    6.5173   30.6080 C   0  0  0  0  0  0
   -1.8654    3.7987   30.6088 N   0  0  0  0  0  0
   -3.1631    4.1656   30.6079 N   0  0  0  0  0  0
   -3.6624    5.4752   30.6118 C   0  0  0  0  0  0
   -5.0106    5.4436   30.6078 N   0  0  0  0  0  0
   -5.3633    4.1097   30.4932 N   0  0  0  0  0  0
   -4.2780    3.3578   30.5225 C   0  0  0  0  0  0
   -4.1552    1.8453   30.3479 C   0  0  0  0  0  0
   -5.3350    0.8927   30.6085 C   0  0  0  0  0  0
   -7.4640   -0.9059   31.0578 C   0  0  0  0  0  0
   -7.6095    0.4436   31.3588 C   0  0  0  0  0  0
   -6.5570    1.3294   31.1435 C   0  0  0  0  0  0
   -6.2520   -1.3780   30.5492 C   0  0  0  0  0  0
   -5.1816   -0.4799   30.3246 C   0  0  0  0  0  0
   -3.9199   -1.0588   29.8082 C   0  0  0  0  0  0
   -3.8670   -2.3796   29.5790 C   0  0  0  0  0  0
   -4.8937   -3.2430   29.8080 N   0  0  0  0  0  0
   -6.1130   -2.8758   30.2747 C   0  0  0  0  0  0
   -6.9830   -3.7241   30.4688 O   0  0  0  0  0  0
    0.4439    4.4609   30.6199 C   0  0  0  0  0  0
    1.0507    3.9567   29.4652 C   0  0  0  0  0  0
    2.4282    3.7046   29.4283 C   0  0  0  0  0  0
    3.1849    3.8928   30.5892 C   0  0  0  0  0  0
    2.5813    4.3570   31.7502 C   0  0  0  0  0  0
    1.2247    4.6702   31.7589 C   0  0  0  0  0  0
    3.0874    3.2988   28.1757 N   0  3  0  0  0  0
    4.2809    3.5570   28.0577 O   0  0  0  0  0  0
    2.4131    2.7574   27.3066 O   0  5  0  0  0  0
   -0.6204    6.9555   30.6040 H   0  0  0  0  0  0
   -3.0443    7.5473   30.6180 H   0  0  0  0  0  0
   -3.3413    1.4795   30.9751 H   0  0  0  0  0  0
   -3.8148    1.6588   29.3288 H   0  0  0  0  0  0
   -8.2911   -1.5787   31.2380 H   0  0  0  0  0  0
   -8.5409    0.8049   31.7693 H   0  0  0  0  0  0
   -6.7265    2.3552   31.4175 H   0  0  0  0  0  0
   -3.0440   -0.4582   29.6227 H   0  0  0  0  0  0
   -2.9814   -2.9015   29.2437 H   0  0  0  0  0  0
   -4.7285   -4.2429   29.7832 H   0  0  0  0  0  0
    0.4518    3.8081   28.5775 H   0  0  0  0  0  0
    4.2485    3.7008   30.5887 H   0  0  0  0  0  0
    3.1861    4.5209   32.6235 H   0  0  0  0  0  0
    0.7778    5.0785   32.6522 H   0  0  0  0  0  0
  1  2  1  0  0  0
  1  4  2  0  0  0
  1 22  1  0  0  0
  2  3  2  0  0  0
  2 31  1  0  0  0
  3  6  1  0  0  0
  3 32  1  0  0  0
  4  5  1  0  0  0
  5  9  1  0  0  0
  5  6  1  0  0  0
  6  7  2  0  0  0
  7  8  1  0  0  0
  8  9  2  0  0  0
  9 10  1  0  0  0
 10 11  1  0  0  0
 10 33  1  0  0  0
 10 34  1  0  0  0
 11 14  1  0  0  0
 11 16  2  0  0  0
 12 15  2  0  0  0
 12 13  1  0  0  0
 12 35  1  0  0  0
 13 14  2  0  0  0
 13 36  1  0  0  0
 14 37  1  0  0  0
 15 16  1  0  0  0
 15 20  1  0  0  0
 16 17  1  0  0  0
 17 18  2  0  0  0
 17 38  1  0  0  0
 18 19  1  0  0  0
 18 39  1  0  0  0
 19 20  1  0  0  0
 19 40  1  0  0  0
 20 21  2  0  0  0
 22 23  2  0  0  0
 22 27  1  0  0  0
 23 24  1  0  0  0
 23 41  1  0  0  0
 24 25  2  0  0  0
 24 28  1  0  0  0
 25 26  1  0  0  0
 25 42  1  0  0  0
 26 27  2  0  0  0
 26 43  1  0  0  0
 27 44  1  0  0  0
 28 29  2  0  0  0
 28 30  1  0  0  0
M  CHG  2  28   1  30  -1
M  END
> <s_m_entry_id>
10339

> <s_m_entry_name>
dock_pv.408

> <s_m_Source_Path>
/home/csk/Desktop/cluster/DUD-E-result/met

> <s_m_Source_File>
dock_pv.maegz

> <i_m_Source_File_Index>
408

> <chembl_id>
CHEMBL1922417

> <chembl_pref_name>
None

> <i_lp_mmshare_version>
53161

> <i_f3d_flags>
0

> <r_lp_tautomer_probability>
1

> <s_lp_Force_Field>
OPLS_2005

> <r_lp_Energy>
30.480222

> <b_lp_Chiralities_Consistent>
1

> <s_lp_Variant>
CHEMBL3717_lig1102-1

> <s_i_glide_gridfile>
glide-grid_3lq8

> <i_i_glide_lignum>
1256

> <i_i_glide_rotatable_bonds>
4

> <r_i_docking_score>
-7.41834659132701

> <r_i_glide_ligand_efficiency>
-0.2472782197109

> <r_i_glide_ligand_efficiency_sa>
-0.768350921429006

> <r_i_glide_ligand_efficiency_ln>
-1.68552917490953

> <r_i_glide_gscore>
-7.41834659132701

> <r_i_glide_lipo>
-2.8833643214666

> <r_i_glide_hbond>
-0.0943900768794609

> <r_i_glide_metal>
0

> <r_i_glide_rewards>
-2.68559727514714

> <r_i_glide_evdw>
-46.593677520752

> <r_i_glide_ecoul>
1.65252637863159

> <r_i_glide_erotb>
0.370203453234095

> <r_i_glide_esite>
-0.0433934518250495

> <r_i_glide_emodel>
-61.0260396310967

> <r_i_glide_energy>
-44.9411511421204

> <r_i_glide_einternal>
7.28863334655762

> <i_i_glide_confnum>
7

> <i_i_glide_posenum>
61

> <r_i_glide_eff_state_penalty>
0

> <s_user_duplicate_titles>
CHEMBL3717_lig1102

> <s_m_subgroup_title>
dock_pv

> <s_m_subgroupid>
dock_pv

> <b_m_subgroup_collapsed>
1

$$$$
CHEMBL3717_lig4033
                    3D
 Schrodinger Suite 2021-1.
 37 39  0  0  1  0            999 V2000
   -3.5028    7.1570   30.9999 O   0  0  0  0  0  0
   -6.1889    5.1956   30.6079 O   0  0  0  0  0  0
   -1.5227    4.4787   30.6081 N   0  0  0  0  0  0
   -4.1611    2.5436   30.2078 N   0  0  0  0  0  0
   -7.6624    0.3001   29.5207 N   0  0  0  0  0  0
   -2.8872    4.6941   30.6228 C   0  0  0  0  0  0
   -3.9787    3.8938   30.4587 C   0  0  0  0  0  0
   -3.7075    5.9620   30.7979 C   0  0  0  0  0  0
   -4.9688    5.0424   30.6083 C   0  0  0  0  0  0
   -0.3932    5.3917   30.7715 C   0  0  1  0  0  0
   -5.3495    1.8260   30.0014 C   0  0  0  0  0  0
    0.8948    4.5957   30.5612 C   0  0  0  0  0  0
   -5.3231    0.7515   29.1084 C   0  0  0  0  0  0
   -6.5463    2.1092   30.6714 C   0  0  0  0  0  0
   -0.4069    6.6286   29.8439 C   0  0  0  0  0  0
    1.1078    3.8961   29.3663 C   0  0  0  0  0  0
    1.8964    4.6176   31.5347 C   0  0  0  0  0  0
   -6.4927    0.0191   28.8954 C   0  0  0  0  0  0
   -7.6739    1.3326   30.4001 C   0  0  0  0  0  0
    2.3071    3.2254   29.1465 C   0  0  0  0  0  0
    3.1058    3.9656   31.3058 C   0  0  0  0  0  0
    3.3051    3.2709   30.1158 C   0  0  0  0  0  0
   -1.2029    3.5208   30.5803 H   0  0  0  0  0  0
   -3.3468    1.9957   29.9726 H   0  0  0  0  0  0
   -0.4149    5.7335   31.8062 H   0  0  0  0  0  0
   -4.4211    0.4793   28.5791 H   0  0  0  0  0  0
   -6.6100    2.8946   31.4063 H   0  0  0  0  0  0
    0.5044    7.2147   29.9704 H   0  0  0  0  0  0
   -0.4689    6.3573   28.7912 H   0  0  0  0  0  0
   -1.2303    7.3039   30.0584 H   0  0  0  0  0  0
    0.3404    3.8717   28.6077 H   0  0  0  0  0  0
    1.7508    5.1567   32.4589 H   0  0  0  0  0  0
   -6.4974   -0.8159   28.2088 H   0  0  0  0  0  0
   -8.6111    1.5270   30.9012 H   0  0  0  0  0  0
    2.4649    2.6809   28.2263 H   0  0  0  0  0  0
    3.8971    4.0196   32.0366 H   0  0  0  0  0  0
    4.2434    2.7653   29.9383 H   0  0  0  0  0  0
  1  8  2  0  0  0
  2  9  2  0  0  0
  3  6  1  0  0  0
  3 10  1  0  0  0
  3 23  1  0  0  0
  4  7  1  0  0  0
  4 11  1  0  0  0
  4 24  1  0  0  0
  5 18  2  0  0  0
  5 19  1  0  0  0
  6  7  2  0  0  0
  6  8  1  0  0  0
  7  9  1  0  0  0
  8  9  1  0  0  0
 10 12  1  0  0  0
 10 15  1  0  0  0
 10 25  1  0  0  0
 11 13  2  0  0  0
 11 14  1  0  0  0
 12 16  2  0  0  0
 12 17  1  0  0  0
 13 18  1  0  0  0
 13 26  1  0  0  0
 14 19  2  0  0  0
 14 27  1  0  0  0
 15 28  1  0  0  0
 15 29  1  0  0  0
 15 30  1  0  0  0
 16 20  1  0  0  0
 16 31  1  0  0  0
 17 21  2  0  0  0
 17 32  1  0  0  0
 18 33  1  0  0  0
 19 34  1  0  0  0
 20 22  2  0  0  0
 20 35  1  0  0  0
 21 22  1  0  0  0
 21 36  1  0  0  0
 22 37  1  0  0  0
M  END
> <s_m_entry_id>
10340

> <s_m_entry_name>
dock_pv.409

> <s_m_Source_Path>
/home/csk/Desktop/cluster/DUD-E-result/met

> <s_m_Source_File>
dock_pv.maegz

> <i_m_Source_File_Index>
409

> <chembl_id>
CHEMBL1966035

> <chembl_pref_name>
None

> <i_lp_mmshare_version>
53161

> <i_f3d_flags>
0

> <r_lp_tautomer_probability>
1

> <s_lp_Force_Field>
OPLS_2005

> <r_lp_Energy>
46.751299

> <b_lp_Chiralities_Consistent>
1

> <s_lp_Variant>
CHEMBL3717_lig4033-2

> <s_i_glide_gridfile>
glide-grid_3lq8

> <i_i_glide_lignum>
5142

> <i_i_glide_rotatable_bonds>
5

> <r_i_docking_score>
-7.41197186914531

> <r_i_glide_ligand_efficiency>
-0.336907812233878

> <r_i_glide_ligand_efficiency_sa>
-0.944028939711708

> <r_i_glide_ligand_efficiency_ln>
-1.811756283062

> <r_i_glide_gscore>
-7.41197186914531

> <r_i_glide_lipo>
-3.7472473448879

> <r_i_glide_hbond>
-0.297192012539167

> <r_i_glide_metal>
0

> <r_i_glide_rewards>
-2.21611263686801

> <r_i_glide_evdw>
-39.9859008789062

> <r_i_glide_ecoul>
-1.42626202106476

> <r_i_glide_erotb>
1.06181447225479

> <r_i_glide_esite>
0

> <r_i_glide_emodel>
-57.0691361697289

> <r_i_glide_energy>
-41.412162899971

> <r_i_glide_einternal>
5.55756807327271

> <i_i_glide_confnum>
42

> <i_i_glide_posenum>
19

> <r_i_glide_eff_state_penalty>
0

> <s_user_duplicate_titles>
CHEMBL3717_lig4033

> <s_m_subgroup_title>
dock_pv

> <s_m_subgroupid>
dock_pv

> <b_m_subgroup_collapsed>
1

$$$$
CHEMBL3717_lig1089
                    3D
 Schrodinger Suite 2021-1.
 42 46  0  0  1  0            999 V2000
   -0.6583    4.6099   30.6101 C   0  0  0  0  0  0
   -0.9674    5.9715   30.6081 C   0  0  0  0  0  0
   -2.3003    6.3891   30.6079 C   0  0  0  0  0  0
   -1.5992    3.6269   30.6083 N   0  0  0  0  0  0
   -2.8742    4.0692   30.6082 N   0  0  0  0  0  0
   -3.2959    5.4054   30.6098 C   0  0  0  0  0  0
   -4.6435    5.4549   30.5949 N   0  0  0  0  0  0
   -5.0740    4.1432   30.4853 N   0  0  0  0  0  0
   -4.0349    3.3290   30.5150 C   0  0  0  0  0  0
   -3.9947    1.8159   30.3146 C   0  0  0  0  0  0
   -5.2183    0.9157   30.5492 C   0  0  0  0  0  0
   -7.4242   -0.7999   30.9417 C   0  0  0  0  0  0
   -7.5322    0.5580   31.2220 C   0  0  0  0  0  0
   -6.4418    1.4044   31.0331 C   0  0  0  0  0  0
   -6.2132   -1.3220   30.4807 C   0  0  0  0  0  0
   -5.1058   -0.4644   30.2814 C   0  0  0  0  0  0
   -3.8500   -1.0924   29.8080 C   0  0  0  0  0  0
   -3.8334   -2.4175   29.6000 C   0  0  0  0  0  0
   -4.8947   -3.2427   29.8102 N   0  0  0  0  0  0
   -6.1169   -2.8270   30.2286 C   0  0  0  0  0  0
   -7.0228   -3.6411   30.4021 O   0  0  0  0  0  0
    0.7493    4.1598   30.5987 C   0  0  0  0  0  0
    1.5607    4.3761   31.7153 C   0  0  0  0  0  0
    2.8900    3.9695   31.7029 C   0  0  0  0  0  0
    3.4190    3.3642   30.5651 C   0  0  0  0  0  0
    2.6240    3.1577   29.4406 C   0  0  0  0  0  0
    1.2898    3.5560   29.4594 C   0  0  0  0  0  0
   -0.1729    6.7047   30.6030 H   0  0  0  0  0  0
   -2.5542    7.4379   30.6070 H   0  0  0  0  0  0
   -3.1987    1.3993   30.9347 H   0  0  0  0  0  0
   -3.6683    1.6289   29.2906 H   0  0  0  0  0  0
   -8.2801   -1.4413   31.1031 H   0  0  0  0  0  0
   -8.4635    0.9567   31.5960 H   0  0  0  0  0  0
   -6.5827    2.4386   31.2900 H   0  0  0  0  0  0
   -2.9502   -0.5240   29.6347 H   0  0  0  0  0  0
   -2.9565   -2.9723   29.2941 H   0  0  0  0  0  0
   -4.7617   -4.2471   29.7981 H   0  0  0  0  0  0
    1.1568    4.8522   32.5974 H   0  0  0  0  0  0
    3.5058    4.1373   32.5725 H   0  0  0  0  0  0
    4.4531    3.0535   30.5500 H   0  0  0  0  0  0
    3.0351    2.6848   28.5599 H   0  0  0  0  0  0
    0.6728    3.3858   28.5892 H   0  0  0  0  0  0
  1  2  1  0  0  0
  1  4  2  0  0  0
  1 22  1  0  0  0
  2  3  2  0  0  0
  2 28  1  0  0  0
  3  6  1  0  0  0
  3 29  1  0  0  0
  4  5  1  0  0  0
  5  9  1  0  0  0
  5  6  1  0  0  0
  6  7  2  0  0  0
  7  8  1  0  0  0
  8  9  2  0  0  0
  9 10  1  0  0  0
 10 11  1  0  0  0
 10 30  1  0  0  0
 10 31  1  0  0  0
 11 14  1  0  0  0
 11 16  2  0  0  0
 12 13  1  0  0  0
 12 15  2  0  0  0
 12 32  1  0  0  0
 13 14  2  0  0  0
 13 33  1  0  0  0
 14 34  1  0  0  0
 15 16  1  0  0  0
 15 20  1  0  0  0
 16 17  1  0  0  0
 17 18  2  0  0  0
 17 35  1  0  0  0
 18 19  1  0  0  0
 18 36  1  0  0  0
 19 20  1  0  0  0
 19 37  1  0  0  0
 20 21  2  0  0  0
 22 23  2  0  0  0
 22 27  1  0  0  0
 23 24  1  0  0  0
 23 38  1  0  0  0
 24 25  2  0  0  0
 24 39  1  0  0  0
 25 26  1  0  0  0
 25 40  1  0  0  0
 26 27  2  0  0  0
 26 41  1  0  0  0
 27 42  1  0  0  0
M  END
> <s_m_entry_id>
10341

> <s_m_entry_name>
dock_pv.410

> <s_m_Source_Path>
/home/csk/Desktop/cluster/DUD-E-result/met

> <s_m_Source_File>
dock_pv.maegz

> <i_m_Source_File_Index>
410

> <chembl_id>
CHEMBL1922405

> <chembl_pref_name>
None

> <i_lp_mmshare_version>
53161

> <i_f3d_flags>
0

> <r_lp_tautomer_probability>
1

> <s_lp_Force_Field>
OPLS_2005

> <r_lp_Energy>
29.925209

> <b_lp_Chiralities_Consistent>
1

> <s_lp_Variant>
CHEMBL3717_lig1089-1

> <s_i_glide_gridfile>
glide-grid_3lq8

> <i_i_glide_lignum>
1243

> <i_i_glide_rotatable_bonds>
3

> <r_i_docking_score>
-7.40719726401084

> <r_i_glide_ligand_efficiency>
-0.274340639407809

> <r_i_glide_ligand_efficiency_sa>
-0.823021917319245

> <r_i_glide_ligand_efficiency_ln>
-1.72427340587085

> <r_i_glide_gscore>
-7.40719726401084

> <r_i_glide_lipo>
-2.97330205743564

> <r_i_glide_hbond>
-0.0887841261094482

> <r_i_glide_metal>
0

> <r_i_glide_rewards>
-2.64923379648277

> <r_i_glide_evdw>
-41.5481033325195

> <r_i_glide_ecoul>
-0.224948540329933

> <r_i_glide_erotb>
0.458764951276463

> <r_i_glide_esite>
-0.0434947875839853

> <r_i_glide_emodel>
-57.1057804603144

> <r_i_glide_energy>
-41.7730518728495

> <r_i_glide_einternal>
4.44095516204834

> <i_i_glide_confnum>
5

> <i_i_glide_posenum>
87

> <r_i_glide_eff_state_penalty>
0

> <s_user_duplicate_titles>
CHEMBL3717_lig1089

> <s_m_subgroup_title>
dock_pv

> <s_m_subgroupid>
dock_pv

> <b_m_subgroup_collapsed>
1

$$$$
CHEMBL3717_lig3084
                    3D
 Schrodinger Suite 2021-1.
 51 56  0  0  1  0            999 V2000
   -3.8945    6.1416   30.8179 S   0  0  0  0  0  0
   -5.1125    4.9088   30.6084 C   0  0  0  0  0  0
   -4.4986    3.6911   30.4916 N   0  0  0  0  0  0
   -3.1376    3.6283   30.6079 N   0  0  0  0  0  0
   -2.6826    4.8567   30.7021 C   0  0  0  0  0  0
   -6.6671    3.4616   30.2380 N   0  0  0  0  0  0
   -6.4155    4.8049   30.5110 N   0  0  0  0  0  0
   -5.5241    2.8043   30.2112 C   0  0  0  0  0  0
   -5.3448    1.3385   29.8885 C   0  0  0  0  0  0
   -5.5966    0.5578   31.0549 O   0  0  0  0  0  0
   -2.9272   -2.4348   32.3341 N   0  0  0  0  0  0
   -2.4856   -1.3599   31.6467 C   0  0  0  0  0  0
   -3.3169   -0.3369   31.2038 C   0  0  0  0  0  0
   -4.6928   -0.4049   31.4600 C   0  0  0  0  0  0
   -5.1848   -1.5177   32.1989 C   0  0  0  0  0  0
   -6.5540   -1.6806   32.5346 C   0  0  0  0  0  0
   -6.9751   -2.7986   33.2514 C   0  0  0  0  0  0
   -6.0780   -3.7858   33.6490 C   0  0  0  0  0  0
   -4.7193   -3.6442   33.3350 C   0  0  0  0  0  0
   -4.2576   -2.5216   32.6078 C   0  0  0  0  0  0
   -6.6082   -4.8608   34.3337 O   0  0  0  0  0  0
   -5.7571   -5.9474   34.6836 C   0  0  0  0  0  0
    0.9877    4.9645   30.8281 N   0  0  0  0  0  0
   -0.2146    4.3219   31.0083 C   0  0  0  0  0  0
   -1.2623    5.1652   30.6559 C   0  0  0  0  0  0
   -0.6631    6.3541   30.2097 C   0  0  0  0  0  0
    0.7065    6.2111   30.3233 C   0  0  0  0  0  0
    2.3069    4.4202   31.1148 C   0  0  0  0  0  0
    3.1243    4.2435   29.8270 C   0  0  0  0  0  0
    4.1596    3.1570   29.7470 C   0  0  0  0  0  0
    2.8783    3.0614   28.9269 C   0  0  0  0  0  0
   -6.0810    1.0174   29.1519 H   0  0  0  0  0  0
   -4.3937    1.1554   29.3887 H   0  0  0  0  0  0
   -1.4225   -1.3216   31.4563 H   0  0  0  0  0  0
   -2.8744    0.4997   30.6858 H   0  0  0  0  0  0
   -7.2672   -0.9232   32.2378 H   0  0  0  0  0  0
   -8.0198   -2.9029   33.4960 H   0  0  0  0  0  0
   -4.0010   -4.3964   33.6188 H   0  0  0  0  0  0
   -6.3420   -6.7256   35.1717 H   0  0  0  0  0  0
   -5.2905   -6.3929   33.8029 H   0  0  0  0  0  0
   -4.9786   -5.6367   35.3806 H   0  0  0  0  0  0
   -0.2330    3.3083   31.3874 H   0  0  0  0  0  0
   -1.1763    7.2317   29.8434 H   0  0  0  0  0  0
    1.5062    6.8984   30.0941 H   0  0  0  0  0  0
    2.1862    3.4737   31.6463 H   0  0  0  0  0  0
    2.8056    5.1029   31.8011 H   0  0  0  0  0  0
    3.3685    5.1945   29.3525 H   0  0  0  0  0  0
    4.2916    2.4986   30.6076 H   0  0  0  0  0  0
    5.1017    3.3842   29.2476 H   0  0  0  0  0  0
    2.9235    3.2111   27.8460 H   0  0  0  0  0  0
    2.1073    2.3394   29.2086 H   0  0  0  0  0  0
  1  2  1  0  0  0
  1  5  1  0  0  0
  2  3  1  0  0  0
  2  7  2  0  0  0
  3  4  1  0  0  0
  3  8  1  0  0  0
  4  5  2  0  0  0
  5 25  1  0  0  0
  6  7  1  0  0  0
  6  8  2  0  0  0
  8  9  1  0  0  0
  9 10  1  0  0  0
  9 32  1  0  0  0
  9 33  1  0  0  0
 10 14  1  0  0  0
 11 12  2  0  0  0
 11 20  1  0  0  0
 12 13  1  0  0  0
 12 34  1  0  0  0
 13 14  2  0  0  0
 13 35  1  0  0  0
 14 15  1  0  0  0
 15 16  2  0  0  0
 15 20  1  0  0  0
 16 17  1  0  0  0
 16 36  1  0  0  0
 17 18  2  0  0  0
 17 37  1  0  0  0
 18 19  1  0  0  0
 18 21  1  0  0  0
 19 20  2  0  0  0
 19 38  1  0  0  0
 21 22  1  0  0  0
 22 39  1  0  0  0
 22 40  1  0  0  0
 22 41  1  0  0  0
 23 24  1  0  0  0
 23 27  1  0  0  0
 23 28  1  0  0  0
 24 25  2  0  0  0
 24 42  1  0  0  0
 25 26  1  0  0  0
 26 27  2  0  0  0
 26 43  1  0  0  0
 27 44  1  0  0  0
 28 29  1  0  0  0
 28 45  1  0  0  0
 28 46  1  0  0  0
 29 30  1  0  0  0
 29 31  1  0  0  0
 29 47  1  0  0  0
 30 31  1  0  0  0
 30 48  1  0  0  0
 30 49  1  0  0  0
 31 50  1  0  0  0
 31 51  1  0  0  0
M  END
> <s_m_entry_id>
10342

> <s_m_entry_name>
dock_pv.411

> <s_m_Source_Path>
/home/csk/Desktop/cluster/DUD-E-result/met

> <s_m_Source_File>
dock_pv.maegz

> <i_m_Source_File_Index>
411

> <chembl_id>
CHEMBL4250868

> <chembl_pref_name>
None

> <i_lp_mmshare_version>
53161

> <i_f3d_flags>
0

> <r_lp_tautomer_probability>
1

> <s_lp_Force_Field>
OPLS_2005

> <r_lp_Energy>
42.873944

> <b_lp_Chiralities_Consistent>
1

> <s_lp_Variant>
CHEMBL3717_lig3084-1

> <s_i_glide_gridfile>
glide-grid_3lq8

> <i_i_glide_lignum>
3798

> <i_i_glide_rotatable_bonds>
7

> <r_i_docking_score>
-7.40499878704823

> <r_i_glide_ligand_efficiency>
-0.238870928614459

> <r_i_glide_ligand_efficiency_sa>
-0.75038451270929

> <r_i_glide_ligand_efficiency_ln>
-1.67005416243822

> <r_i_glide_gscore>
-7.40499878704823

> <r_i_glide_lipo>
-3.53336711802125

> <r_i_glide_hbond>
0

> <r_i_glide_metal>
0

> <r_i_glide_rewards>
-2.25532088824757

> <r_i_glide_evdw>
-47.2675552368164

> <r_i_glide_ecoul>
0.725228607654572

> <r_i_glide_erotb>
0.638282689913226

> <r_i_glide_esite>
0

> <r_i_glide_emodel>
-65.0437921948411

> <r_i_glide_energy>
-46.5423266291618

> <r_i_glide_einternal>
3.25630378723145

> <i_i_glide_confnum>
15

> <i_i_glide_posenum>
131

> <r_i_glide_eff_state_penalty>
0

> <s_user_duplicate_titles>
CHEMBL3717_lig3084

> <s_m_subgroup_title>
dock_pv

> <s_m_subgroupid>
dock_pv

> <b_m_subgroup_collapsed>
1

$$$$
CHEMBL3717_lig1577
                    3D
 Schrodinger Suite 2021-1.
 51 54  0  0  1  0            999 V2000
   -4.2304    4.3747   30.5440 C   0  0  0  0  0  0
   -5.1852    5.3778   30.7360 C   0  0  0  0  0  0
   -6.5227    5.1558   30.6827 N   0  0  0  0  0  0
   -6.9526    3.8977   30.4293 C   0  0  0  0  0  0
   -6.0670    2.8237   30.2346 C   0  0  0  0  0  0
   -4.6947    3.0804   30.2808 C   0  0  0  0  0  0
   -2.7715    4.6517   30.6125 C   0  0  0  0  0  0
   -8.3333    3.7338   30.3679 N   0  0  0  0  0  0
   -2.0970    5.8826   30.6083 C   0  0  0  0  0  0
   -0.7884    5.7607   30.6080 N   0  0  0  0  0  0
   -0.5678    4.4345   30.6443 N   0  0  0  0  0  0
   -1.7394    3.7284   30.6711 C   0  0  0  0  0  0
    0.7908    3.8755   30.6042 C   0  0  0  0  0  0
    1.4405    4.2105   29.2394 C   0  0  0  0  0  0
    2.9349    3.8352   29.2362 C   0  0  0  0  0  0
    3.5939    4.4651   30.3355 O   0  0  0  0  0  0
    3.1066    4.0512   31.6113 C   0  0  0  0  0  0
    1.6300    4.4569   31.7663 C   0  0  0  0  0  0
   -6.6257    1.1692   29.9392 S   0  0  0  0  0  0
   -5.8709    0.1196   31.2301 C   0  0  2  0  0  0
   -4.9169   -0.9413   30.6373 C   0  0  0  0  0  0
   -6.8991   -0.4828   32.2057 C   0  0  0  0  0  0
   -5.3791   -1.9118   29.7199 C   0  0  0  0  0  0
   -4.4996   -2.8429   29.1709 C   0  0  0  0  0  0
   -3.1587   -2.8426   29.5190 C   0  0  0  0  0  0
   -2.6948   -1.9469   30.4699 C   0  0  0  0  0  0
   -3.5511   -0.9852   31.0171 C   0  0  0  0  0  0
   -2.8823    0.1171   32.1797 Cl  0  0  0  0  0  0
   -7.0376   -2.0330   29.2274 Cl  0  0  0  0  0  0
   -1.4056   -2.0423   30.8728 F   0  0  0  0  0  0
   -4.8933    6.3964   30.9436 H   0  0  0  0  0  0
   -3.9988    2.2689   30.1218 H   0  0  0  0  0  0
   -8.7017    2.8276   30.1244 H   0  0  0  0  0  0
   -8.9195    4.5548   30.4126 H   0  0  0  0  0  0
   -2.5589    6.8567   30.5706 H   0  0  0  0  0  0
   -1.7330    2.6502   30.6886 H   0  0  0  0  0  0
    0.6701    2.7961   30.7173 H   0  0  0  0  0  0
    0.9582    3.6183   28.4611 H   0  0  0  0  0  0
    1.2893    5.2532   28.9547 H   0  0  0  0  0  0
    3.0731    2.7547   29.2803 H   0  0  0  0  0  0
    3.4055    4.1680   28.3095 H   0  0  0  0  0  0
    3.2317    2.9729   31.7350 H   0  0  0  0  0  0
    3.7045    4.5266   32.3860 H   0  0  0  0  0  0
    1.5075    5.5367   31.8629 H   0  0  0  0  0  0
    1.2747    4.0317   32.7039 H   0  0  0  0  0  0
   -5.3027    0.8164   31.8379 H   0  0  0  0  0  0
   -6.4107   -1.0576   32.9944 H   0  0  0  0  0  0
   -7.4733    0.3067   32.6921 H   0  0  0  0  0  0
   -7.6147   -1.1408   31.7146 H   0  0  0  0  0  0
   -4.8599   -3.5790   28.4705 H   0  0  0  0  0  0
   -2.4947   -3.5889   29.1047 H   0  0  0  0  0  0
  1  2  2  0  0  0
  1  6  1  0  0  0
  1  7  1  0  0  0
  2  3  1  0  0  0
  2 31  1  0  0  0
  3  4  2  0  0  0
  4  5  1  0  0  0
  4  8  1  0  0  0
  5  6  2  0  0  0
  5 19  1  0  0  0
  6 32  1  0  0  0
  7  9  1  0  0  0
  7 12  2  0  0  0
  8 33  1  0  0  0
  8 34  1  0  0  0
  9 10  2  0  0  0
  9 35  1  0  0  0
 10 11  1  0  0  0
 11 12  1  0  0  0
 11 13  1  0  0  0
 12 36  1  0  0  0
 13 14  1  0  0  0
 13 18  1  0  0  0
 13 37  1  0  0  0
 14 15  1  0  0  0
 14 38  1  0  0  0
 14 39  1  0  0  0
 15 16  1  0  0  0
 15 40  1  0  0  0
 15 41  1  0  0  0
 16 17  1  0  0  0
 17 18  1  0  0  0
 17 42  1  0  0  0
 17 43  1  0  0  0
 18 44  1  0  0  0
 18 45  1  0  0  0
 19 20  1  0  0  0
 20 21  1  0  0  0
 20 22  1  0  0  0
 20 46  1  0  0  0
 21 23  2  0  0  0
 21 27  1  0  0  0
 22 47  1  0  0  0
 22 48  1  0  0  0
 22 49  1  0  0  0
 23 24  1  0  0  0
 23 29  1  0  0  0
 24 25  2  0  0  0
 24 50  1  0  0  0
 25 26  1  0  0  0
 25 51  1  0  0  0
 26 27  2  0  0  0
 26 30  1  0  0  0
 27 28  1  0  0  0
M  END
> <s_m_entry_id>
10343

> <s_m_entry_name>
dock_pv.412

> <s_m_Source_Path>
/home/csk/Desktop/cluster/DUD-E-result/met

> <s_m_Source_File>
dock_pv.maegz

> <i_m_Source_File_Index>
412

> <chembl_id>
CHEMBL2442127

> <chembl_pref_name>
None

> <i_lp_mmshare_version>
53161

> <i_f3d_flags>
0

> <r_lp_tautomer_probability>
0.999999772200052

> <s_lp_Force_Field>
OPLS_2005

> <r_lp_Energy>
21.743908

> <b_lp_Chiralities_Consistent>
1

> <s_lp_Variant>
CHEMBL3717_lig1577-1

> <s_i_glide_gridfile>
glide-grid_3lq8

> <i_i_glide_lignum>
1828

> <i_i_glide_rotatable_bonds>
5

> <r_i_docking_score>
-7.40418939402488

> <r_i_glide_ligand_efficiency>
-0.246806313134163

> <r_i_glide_ligand_efficiency_sa>
-0.766884597975655

> <r_i_glide_ligand_efficiency_ln>
-1.68231250542747

> <r_i_glide_gscore>
-7.40418939402488

> <r_i_glide_lipo>
-3.77471973674094

> <r_i_glide_hbond>
0

> <r_i_glide_metal>
0

> <r_i_glide_rewards>
-1.6918179620107

> <r_i_glide_evdw>
-44.501293182373

> <r_i_glide_ecoul>
-1.1634693145752

> <r_i_glide_erotb>
0.46193336103169

> <r_i_glide_esite>
0

> <r_i_glide_emodel>
-64.3124739109976

> <r_i_glide_energy>
-45.6647624969482

> <r_i_glide_einternal>
2.9662127494812

> <i_i_glide_confnum>
29

> <i_i_glide_posenum>
359

> <r_i_glide_eff_state_penalty>
0

> <s_user_duplicate_titles>
CHEMBL3717_lig1577

> <s_m_subgroup_title>
dock_pv

> <s_m_subgroupid>
dock_pv

> <b_m_subgroup_collapsed>
1

$$$$
CHEMBL3717_lig3606
                    3D
 Schrodinger Suite 2021-1.
 38 41  0  0  1  0            999 V2000
    1.4872    4.7654   30.9460 C   0  0  0  0  0  0
    2.0642    3.3974   30.4899 C   0  0  0  0  0  0
    1.6833    3.0183   29.0336 C   0  0  0  0  0  0
    2.5153    3.7163   27.9522 C   0  0  0  0  0  0
    3.9048    3.5556   28.2123 O   0  0  0  0  0  0
    4.3259    4.1123   29.4521 C   0  0  0  0  0  0
    3.6073    3.4088   30.6241 C   0  0  0  0  0  0
    0.0362    4.8881   30.8190 N   0  0  0  0  0  0
   -0.9610    3.9517   30.9648 C   0  0  0  0  0  0
   -2.1475    4.6567   30.7454 C   0  0  0  0  0  0
   -1.8579    5.9411   30.5995 N   0  0  0  0  0  0
   -0.4868    6.0970   30.6077 N   0  0  0  0  0  0
   -3.5475    4.1412   30.6077 C   0  0  0  0  0  0
   -4.6427    5.0149   30.6085 C   0  0  0  0  0  0
   -5.9498    4.5599   30.4397 C   0  0  0  0  0  0
   -6.1578    3.1907   30.2172 C   0  0  0  0  0  0
   -7.3503    2.5568   30.0003 N   0  0  0  0  0  0
   -6.9855    1.2740   29.8451 N   0  0  0  0  0  0
   -5.6400    1.0238   29.9528 C   0  0  0  0  0  0
   -5.0496    2.2878   30.2065 C   0  0  0  0  0  0
   -3.7492    2.7674   30.4167 C   0  0  0  0  0  0
    1.7238    4.9379   31.9972 H   0  0  0  0  0  0
    1.9511    5.5787   30.3847 H   0  0  0  0  0  0
    1.6917    2.6067   31.1432 H   0  0  0  0  0  0
    0.6199    3.1557   28.8352 H   0  0  0  0  0  0
    1.8695    1.9572   28.9117 H   0  0  0  0  0  0
    2.2458    4.7631   27.8949 H   0  0  0  0  0  0
    2.2922    3.2853   26.9755 H   0  0  0  0  0  0
    4.1434    5.1874   29.4616 H   0  0  0  0  0  0
    5.4051    3.9799   29.5400 H   0  0  0  0  0  0
    3.9591    2.3766   30.6637 H   0  0  0  0  0  0
    3.9063    3.8461   31.5756 H   0  0  0  0  0  0
   -0.7447    2.9029   31.1356 H   0  0  0  0  0  0
   -4.4871    6.0757   30.7431 H   0  0  0  0  0  0
   -6.7769    5.2558   30.4398 H   0  0  0  0  0  0
   -7.6755    0.5577   29.6661 H   0  0  0  0  0  0
   -5.2560    0.0193   29.8415 H   0  0  0  0  0  0
   -2.9142    2.0836   30.3986 H   0  0  0  0  0  0
  1  2  1  0  0  0
  1  8  1  0  0  0
  1 22  1  0  0  0
  1 23  1  0  0  0
  2  3  1  0  0  0
  2  7  1  0  0  0
  2 24  1  0  0  0
  3  4  1  0  0  0
  3 25  1  0  0  0
  3 26  1  0  0  0
  4  5  1  0  0  0
  4 27  1  0  0  0
  4 28  1  0  0  0
  5  6  1  0  0  0
  6  7  1  0  0  0
  6 29  1  0  0  0
  6 30  1  0  0  0
  7 31  1  0  0  0
  7 32  1  0  0  0
  8  9  1  0  0  0
  8 12  1  0  0  0
  9 10  2  0  0  0
  9 33  1  0  0  0
 10 11  1  0  0  0
 10 13  1  0  0  0
 11 12  2  0  0  0
 13 14  1  0  0  0
 13 21  2  0  0  0
 14 15  2  0  0  0
 14 34  1  0  0  0
 15 16  1  0  0  0
 15 35  1  0  0  0
 16 17  2  0  0  0
 16 20  1  0  0  0
 17 18  1  0  0  0
 18 36  1  0  0  0
 18 19  1  0  0  0
 19 20  2  0  0  0
 19 37  1  0  0  0
 20 21  1  0  0  0
 21 38  1  0  0  0
M  END
> <s_m_entry_id>
10344

> <s_m_entry_name>
dock_pv.413

> <s_m_Source_Path>
/home/csk/Desktop/cluster/DUD-E-result/met

> <s_m_Source_File>
dock_pv.maegz

> <i_m_Source_File_Index>
413

> <chembl_id>
CHEMBL1969843

> <chembl_pref_name>
None

> <i_lp_mmshare_version>
53161

> <i_f3d_flags>
0

> <r_lp_tautomer_probability>
0.0196078431372549

> <s_lp_Force_Field>
OPLS_2005

> <r_lp_Energy>
27.388841

> <b_lp_Chiralities_Consistent>
1

> <s_lp_Variant>
CHEMBL3717_lig3606-2

> <s_i_glide_gridfile>
glide-grid_3lq8

> <i_i_glide_lignum>
4484

> <i_i_glide_rotatable_bonds>
3

> <r_i_docking_score>
-7.39935132880979

> <r_i_glide_ligand_efficiency>
-0.352350063276657

> <r_i_glide_ligand_efficiency_sa>
-0.972107107136852

> <r_i_glide_ligand_efficiency_ln>
-1.82947466425102

> <r_i_glide_gscore>
-7.39935132880979

> <r_i_glide_lipo>
-3.58631738802045

> <r_i_glide_hbond>
0

> <r_i_glide_metal>
0

> <r_i_glide_rewards>
-2.46506123351163

> <r_i_glide_evdw>
-35.10546875

> <r_i_glide_ecoul>
-1.79630792140961

> <r_i_glide_erotb>
0.676746918433735

> <r_i_glide_esite>
0

> <r_i_glide_emodel>
-49.4707981982013

> <r_i_glide_energy>
-36.9017766714096

> <r_i_glide_einternal>
3.46644735336304

> <i_i_glide_confnum>
16

> <i_i_glide_posenum>
190

> <r_i_glide_eff_state_penalty>
0

> <s_user_duplicate_titles>
CHEMBL3717_lig3606

> <s_m_subgroup_title>
dock_pv

> <s_m_subgroupid>
dock_pv

> <b_m_subgroup_collapsed>
1

$$$$
CHEMBL3717_lig4245
                    3D
 Schrodinger Suite 2021-1.
 38 41  0  0  1  0            999 V2000
   -3.8802    7.1570   30.6081 Cl  0  0  0  0  0  0
   -3.7406   -0.1633   32.1122 F   0  0  0  0  0  0
   -6.9226    0.6181   28.5825 F   0  0  0  0  0  0
   -5.8976    2.6292   30.2457 O   0  0  0  0  0  0
    2.6257    4.4629   31.8286 N   0  0  0  0  0  0
   -3.6936    2.0867   30.5105 N   0  0  0  0  0  0
   -3.7373    4.5165   30.5665 N   0  0  0  0  0  0
    3.9272    3.7721   29.9141 N   0  0  0  0  0  0
    0.5344    4.4056   30.9659 C   0  0  0  0  0  0
    1.4727    3.9582   29.9733 C   0  0  0  0  0  0
   -0.9439    4.4765   30.8363 C   0  0  0  0  0  0
    2.7763    4.0447   30.5338 C   0  0  0  0  0  0
   -3.0611    3.3352   30.6081 C   0  0  0  0  0  0
   -1.6756    3.2948   30.7492 C   0  0  0  0  0  0
    1.3034    4.7519   32.0593 C   0  0  0  0  0  0
   -5.3093    0.3134   30.3419 C   0  0  0  0  0  0
   -1.6337    5.6873   30.7969 C   0  0  0  0  0  0
   -5.0012    1.7934   30.3662 C   0  0  0  0  0  0
   -3.0248    5.6681   30.6612 C   0  0  0  0  0  0
    1.3859    3.4958   28.6566 C   0  0  0  0  0  0
   -4.6585   -0.5883   31.2101 C   0  0  0  0  0  0
   -6.2645   -0.1948   29.4431 C   0  0  0  0  0  0
    2.5653    3.2045   27.9706 C   0  0  0  0  0  0
    3.7866    3.3783   28.6217 C   0  0  0  0  0  0
   -4.9419   -1.9530   31.1572 C   0  0  0  0  0  0
   -6.5471   -1.5604   29.4080 C   0  0  0  0  0  0
   -5.8826   -2.4416   30.2562 C   0  0  0  0  0  0
    3.3544    4.6317   32.5055 H   0  0  0  0  0  0
   -3.0821    1.2896   30.5915 H   0  0  0  0  0  0
   -1.1618    2.3570   30.7805 H   0  0  0  0  0  0
    1.0061    5.1606   33.0084 H   0  0  0  0  0  0
   -1.0983    6.6232   30.8577 H   0  0  0  0  0  0
    0.4181    3.3651   28.2081 H   0  0  0  0  0  0
    2.5296    2.8463   26.9522 H   0  0  0  0  0  0
    4.7060    3.1600   28.1018 H   0  0  0  0  0  0
   -4.4284   -2.6396   31.8148 H   0  0  0  0  0  0
   -7.2737   -1.9377   28.7032 H   0  0  0  0  0  0
   -6.0914   -3.5009   30.2147 H   0  0  0  0  0  0
  1 19  1  0  0  0
  2 21  1  0  0  0
  3 22  1  0  0  0
  4 18  2  0  0  0
  5 12  1  0  0  0
  5 15  1  0  0  0
  5 28  1  0  0  0
  6 13  1  0  0  0
  6 18  1  0  0  0
  6 29  1  0  0  0
  7 13  1  0  0  0
  7 19  2  0  0  0
  8 12  2  0  0  0
  8 24  1  0  0  0
  9 10  1  0  0  0
  9 11  1  0  0  0
  9 15  2  0  0  0
 10 12  1  0  0  0
 10 20  2  0  0  0
 11 14  1  0  0  0
 11 17  2  0  0  0
 13 14  2  0  0  0
 14 30  1  0  0  0
 15 31  1  0  0  0
 16 18  1  0  0  0
 16 21  1  0  0  0
 16 22  2  0  0  0
 17 19  1  0  0  0
 17 32  1  0  0  0
 20 23  1  0  0  0
 20 33  1  0  0  0
 21 25  2  0  0  0
 22 26  1  0  0  0
 23 24  2  0  0  0
 23 34  1  0  0  0
 24 35  1  0  0  0
 25 27  1  0  0  0
 25 36  1  0  0  0
 26 27  2  0  0  0
 26 37  1  0  0  0
 27 38  1  0  0  0
M  END
> <s_m_entry_id>
10345

> <s_m_entry_name>
dock_pv.414

> <s_m_Source_Path>
/home/csk/Desktop/cluster/DUD-E-result/met

> <s_m_Source_File>
dock_pv.maegz

> <i_m_Source_File_Index>
414

> <chembl_id>
CHEMBL1991410

> <chembl_pref_name>
None

> <i_lp_mmshare_version>
53161

> <i_f3d_flags>
0

> <r_lp_tautomer_probability>
0.999998432528457

> <s_lp_Force_Field>
OPLS_2005

> <r_lp_Energy>
20.59483

> <b_lp_Chiralities_Consistent>
1

> <s_lp_Variant>
CHEMBL3717_lig4245-1

> <s_i_glide_gridfile>
glide-grid_3lq8

> <i_i_glide_lignum>
5453

> <i_i_glide_rotatable_bonds>
4

> <r_i_docking_score>
-7.39886210176096

> <r_i_glide_ligand_efficiency>
-0.27403192969485

> <r_i_glide_ligand_efficiency_sa>
-0.822095788181386

> <r_i_glide_ligand_efficiency_ln>
-1.72233311751497

> <r_i_glide_gscore>
-7.39886210176096

> <r_i_glide_lipo>
-3.29772099019904

> <r_i_glide_hbond>
0

> <r_i_glide_metal>
0

> <r_i_glide_rewards>
-2.41671265385386

> <r_i_glide_evdw>
-40.2252388000488

> <r_i_glide_ecoul>
-1.32382893562317

> <r_i_glide_erotb>
0.52540782263786

> <r_i_glide_esite>
0

> <r_i_glide_emodel>
-57.1110346626572

> <r_i_glide_energy>
-41.549067735672

> <r_i_glide_einternal>
4.51253652572632

> <i_i_glide_confnum>
56

> <i_i_glide_posenum>
129

> <r_i_glide_eff_state_penalty>
0

> <s_user_duplicate_titles>
CHEMBL3717_lig4245

> <s_m_subgroup_title>
dock_pv

> <s_m_subgroupid>
dock_pv

> <b_m_subgroup_collapsed>
1

$$$$
CHEMBL3717_lig3916
                    3D
 Schrodinger Suite 2021-1.
 49 53  0  0  1  0            999 V2000
    1.0200    4.7477   31.7071 S   0  0  0  0  0  0
   -4.8464    2.5772   30.5458 O   0  0  0  0  0  0
   -3.8928   -3.1213   32.3118 N   0  0  0  0  0  0
    4.2252    3.5558   28.7488 N   0  0  0  0  0  0
   -3.4501    5.9545   30.6431 N   0  0  0  0  0  0
   -5.8418   -0.6666   29.0081 N   0  0  0  0  0  0
   -0.1197    4.1854   30.4981 C   0  0  0  0  0  0
    2.3698    4.2405   30.7055 C   0  0  0  0  0  0
    1.9262    3.6917   29.4744 C   0  0  0  0  0  0
   -1.5880    4.3999   30.6389 C   0  0  0  0  0  0
    0.5187    3.5937   29.4332 C   0  0  0  0  0  0
   -3.6070   -0.9219   32.1895 C   0  0  0  0  0  0
   -4.9397   -1.1962   31.7475 C   0  0  0  0  0  0
   -2.9798   -2.1317   32.6053 C   0  0  0  0  0  0
   -2.4943    3.3285   30.6083 C   0  0  0  0  0  0
   -3.8798    3.5660   30.5716 C   0  0  0  0  0  0
    3.7361    4.3568   30.9788 C   0  0  0  0  0  0
    2.9051    3.3463   28.5283 C   0  0  0  0  0  0
   -2.1195    5.6934   30.6512 C   0  0  0  0  0  0
   -5.0458   -2.5725   31.8004 C   0  0  0  0  0  0
   -5.9863   -0.1493   31.3558 C   0  0  0  0  0  0
   -2.8946    0.2594   32.3088 C   0  0  0  0  0  0
   -4.3015    4.8968   30.6080 C   0  0  0  0  0  0
   -1.6939   -2.1395   33.1860 C   0  0  0  0  0  0
    4.6220    4.0247   29.9543 C   0  0  0  0  0  0
   -5.8628    0.4516   29.9313 C   0  0  1  0  0  0
   -4.6818    1.4360   29.6926 C   0  0  0  0  0  0
   -1.7097    0.2769   33.0080 C   0  0  0  0  0  0
   -1.0926   -0.8992   33.4084 C   0  0  0  0  0  0
   -3.7598   -4.1258   32.3739 H   0  0  0  0  0  0
   -5.5046   -0.4390   28.0749 H   0  0  0  0  0  0
   -5.1931   -1.3604   29.3567 H   0  0  0  0  0  0
   -0.0045    3.1577   28.6092 H   0  0  0  0  0  0
   -2.0996    2.3305   30.5948 H   0  0  0  0  0  0
    4.0681    4.7486   31.9182 H   0  0  0  0  0  0
    2.6355    2.9270   27.5729 H   0  0  0  0  0  0
   -1.4647    6.5525   30.6111 H   0  0  0  0  0  0
   -5.8679   -3.2173   31.5244 H   0  0  0  0  0  0
   -6.9761   -0.5919   31.4547 H   0  0  0  0  0  0
   -5.9826    0.6592   32.0891 H   0  0  0  0  0  0
   -3.2940    1.1569   31.9094 H   0  0  0  0  0  0
   -5.3562    5.1340   30.5969 H   0  0  0  0  0  0
   -1.1892   -3.0223   33.5378 H   0  0  0  0  0  0
    5.6860    4.1422   30.0867 H   0  0  0  0  0  0
   -6.7810    1.0105   29.7337 H   0  0  0  0  0  0
   -3.7275    0.9293   29.8224 H   0  0  0  0  0  0
   -4.6943    1.7747   28.6555 H   0  0  0  0  0  0
   -1.2942    1.2464   33.1585 H   0  0  0  0  0  0
   -0.1396   -0.8438   33.9115 H   0  0  0  0  0  0
  1  7  1  0  0  0
  1  8  1  0  0  0
  2 16  1  0  0  0
  2 27  1  0  0  0
  3 14  1  0  0  0
  3 20  1  0  0  0
  3 30  1  0  0  0
  4 18  1  0  0  0
  4 25  2  0  0  0
  5 19  2  0  0  0
  5 23  1  0  0  0
  6 26  1  0  0  0
  6 31  1  0  0  0
  6 32  1  0  0  0
  7 10  1  0  0  0
  7 11  2  0  0  0
  8  9  1  0  0  0
  8 17  2  0  0  0
  9 11  1  0  0  0
  9 18  2  0  0  0
 10 15  2  0  0  0
 10 19  1  0  0  0
 11 33  1  0  0  0
 12 13  1  0  0  0
 12 14  1  0  0  0
 12 22  2  0  0  0
 13 20  2  0  0  0
 13 21  1  0  0  0
 14 24  2  0  0  0
 15 16  1  0  0  0
 15 34  1  0  0  0
 16 23  2  0  0  0
 17 25  1  0  0  0
 17 35  1  0  0  0
 18 36  1  0  0  0
 19 37  1  0  0  0
 20 38  1  0  0  0
 21 26  1  0  0  0
 21 39  1  0  0  0
 21 40  1  0  0  0
 22 28  1  0  0  0
 22 41  1  0  0  0
 23 42  1  0  0  0
 24 29  1  0  0  0
 24 43  1  0  0  0
 25 44  1  0  0  0
 26 27  1  0  0  0
 26 45  1  0  0  0
 27 46  1  0  0  0
 27 47  1  0  0  0
 28 29  2  0  0  0
 28 48  1  0  0  0
 29 49  1  0  0  0
M  END
> <s_m_entry_id>
10346

> <s_m_entry_name>
dock_pv.415

> <s_m_Source_Path>
/home/csk/Desktop/cluster/DUD-E-result/met

> <s_m_Source_File>
dock_pv.maegz

> <i_m_Source_File_Index>
415

> <chembl_id>
CHEMBL1972840

> <chembl_pref_name>
None

> <i_lp_mmshare_version>
53161

> <i_f3d_flags>
0

> <r_lp_tautomer_probability>
1

> <s_lp_Force_Field>
OPLS_2005

> <r_lp_Energy>
25.365169

> <b_lp_Chiralities_Consistent>
1

> <s_lp_Variant>
CHEMBL3717_lig3916-2

> <s_i_glide_gridfile>
glide-grid_3lq8

> <i_i_glide_lignum>
4972

> <i_i_glide_rotatable_bonds>
6

> <r_i_docking_score>
-7.39500105186386

> <r_i_glide_ligand_efficiency>
-0.255000036271168

> <r_i_glide_ligand_efficiency_sa>
-0.78344090110705

> <r_i_glide_ligand_efficiency_ln>
-1.69326771982991

> <r_i_glide_gscore>
-7.39500105186386

> <r_i_glide_lipo>
-4.62651975145106

> <r_i_glide_hbond>
-0.226416914104314

> <r_i_glide_metal>
0

> <r_i_glide_rewards>
-0.847861655155177

> <r_i_glide_evdw>
-34.2879409790039

> <r_i_glide_ecoul>
-3.51975202560425

> <r_i_glide_erotb>
0.611132172806542

> <r_i_glide_esite>
-0.0629750511690184

> <r_i_glide_emodel>
-50.656654265517

> <r_i_glide_energy>
-37.8076930046082

> <r_i_glide_einternal>
3.46110820770264

> <i_i_glide_confnum>
4

> <i_i_glide_posenum>
212

> <r_i_glide_eff_state_penalty>
0

> <s_user_duplicate_titles>
CHEMBL3717_lig3916

> <s_m_subgroup_title>
dock_pv

> <s_m_subgroupid>
dock_pv

> <b_m_subgroup_collapsed>
1

$$$$
CHEMBL3717_lig2349
                    3D
 Schrodinger Suite 2021-1.
 40 44  0  0  1  0            999 V2000
    4.0535    4.2049   30.2377 C   0  0  0  0  0  0
    2.8196    4.6999   30.6581 C   0  0  0  0  0  0
    1.6977    4.5937   29.8328 C   0  0  0  0  0  0
    1.8153    3.9239   28.6097 C   0  0  0  0  0  0
    3.0364    3.3940   28.2051 C   0  0  0  0  0  0
    4.1558    3.5570   29.0147 C   0  0  0  0  0  0
    5.1728    4.3570   31.0079 O   0  0  0  0  0  0
   -0.5824    4.3445   30.5226 N   0  0  0  0  0  0
   -1.7919    4.9270   30.6080 N   0  0  0  0  0  0
   -2.0489    6.2993   30.4687 C   0  0  0  0  0  0
   -1.0490    7.1527   30.2080 N   0  0  0  0  0  0
    0.1864    6.5918   30.0681 C   0  0  0  0  0  0
    0.4108    5.2138   30.2007 C   0  0  0  0  0  0
   -3.9584    5.2720   30.7698 N   0  0  0  0  0  0
   -3.3742    6.5225   30.6080 N   0  0  0  0  0  0
   -3.0263    4.3342   30.7244 C   0  0  0  0  0  0
   -3.1802    2.8160   30.8169 C   0  0  0  0  0  0
   -6.6955    1.8505   29.9033 N   0  0  0  0  0  0
   -5.7528    2.7981   30.2081 C   0  0  0  0  0  0
   -4.5188    2.2032   30.4257 C   0  0  0  0  0  0
   -4.7478    0.7884   30.2579 C   0  0  0  0  0  0
   -3.9239   -0.3466   30.3606 C   0  0  0  0  0  0
   -4.4714   -1.6091   30.1349 C   0  0  0  0  0  0
   -5.8162   -1.7597   29.8080 C   0  0  0  0  0  0
   -6.6747   -0.6656   29.6922 C   0  0  0  0  0  0
   -6.1239    0.5996   29.9241 C   0  0  0  0  0  0
    2.7266    5.1570   31.6281 H   0  0  0  0  0  0
    0.9563    3.8190   27.9648 H   0  0  0  0  0  0
    3.1187    2.8723   27.2623 H   0  0  0  0  0  0
    5.1059    3.1594   28.7068 H   0  0  0  0  0  0
    5.0203    4.9165   31.7712 H   0  0  0  0  0  0
    0.9867    7.2608   29.7864 H   0  0  0  0  0  0
   -2.8936    2.4732   31.8080 H   0  0  0  0  0  0
   -2.4249    2.3573   30.1814 H   0  0  0  0  0  0
   -7.6599    2.0802   29.7104 H   0  0  0  0  0  0
   -6.0506    3.8368   30.2447 H   0  0  0  0  0  0
   -2.8785   -0.2472   30.6090 H   0  0  0  0  0  0
   -3.8458   -2.4891   30.2075 H   0  0  0  0  0  0
   -6.2014   -2.7542   29.6342 H   0  0  0  0  0  0
   -7.7152   -0.8002   29.4361 H   0  0  0  0  0  0
  1  2  1  0  0  0
  1  6  2  0  0  0
  1  7  1  0  0  0
  2  3  2  0  0  0
  2 27  1  0  0  0
  3  4  1  0  0  0
  3 13  1  0  0  0
  4  5  2  0  0  0
  4 28  1  0  0  0
  5  6  1  0  0  0
  5 29  1  0  0  0
  6 30  1  0  0  0
  7 31  1  0  0  0
  8  9  1  0  0  0
  8 13  2  0  0  0
  9 10  1  0  0  0
  9 16  1  0  0  0
 10 11  1  0  0  0
 10 15  2  0  0  0
 11 12  2  0  0  0
 12 13  1  0  0  0
 12 32  1  0  0  0
 14 15  1  0  0  0
 14 16  2  0  0  0
 16 17  1  0  0  0
 17 20  1  0  0  0
 17 33  1  0  0  0
 17 34  1  0  0  0
 18 19  1  0  0  0
 18 26  1  0  0  0
 18 35  1  0  0  0
 19 20  2  0  0  0
 19 36  1  0  0  0
 20 21  1  0  0  0
 21 22  1  0  0  0
 21 26  2  0  0  0
 22 23  2  0  0  0
 22 37  1  0  0  0
 23 24  1  0  0  0
 23 38  1  0  0  0
 24 25  2  0  0  0
 24 39  1  0  0  0
 25 26  1  0  0  0
 25 40  1  0  0  0
M  END
> <s_m_entry_id>
10347

> <s_m_entry_name>
dock_pv.416

> <s_m_Source_Path>
/home/csk/Desktop/cluster/DUD-E-result/met

> <s_m_Source_File>
dock_pv.maegz

> <i_m_Source_File_Index>
416

> <chembl_id>
CHEMBL3798974

> <chembl_pref_name>
None

> <i_lp_mmshare_version>
53161

> <i_f3d_flags>
0

> <r_lp_tautomer_probability>
0.999999999997365

> <s_lp_Force_Field>
OPLS_2005

> <r_lp_Energy>
20.677901

> <b_lp_Chiralities_Consistent>
1

> <s_lp_Variant>
CHEMBL3717_lig2349-1

> <s_i_glide_gridfile>
glide-grid_3lq8

> <i_i_glide_lignum>
2673

> <i_i_glide_rotatable_bonds>
4

> <r_i_docking_score>
-7.39085453489586

> <r_i_glide_ligand_efficiency>
-0.284263635957533

> <r_i_glide_ligand_efficiency_sa>
-0.842129903000796

> <r_i_glide_ligand_efficiency_ln>
-1.73571793614853

> <r_i_glide_gscore>
-7.39085453489586

> <r_i_glide_lipo>
-3.07474985489376

> <r_i_glide_hbond>
0

> <r_i_glide_metal>
0

> <r_i_glide_rewards>
-2.48687803044765

> <r_i_glide_evdw>
-42.8420295715332

> <r_i_glide_ecoul>
-1.14973616600037

> <r_i_glide_erotb>
0.485335253922267

> <r_i_glide_esite>
0

> <r_i_glide_emodel>
-60.3557888311477

> <r_i_glide_energy>
-43.9917657375336

> <r_i_glide_einternal>
5.02170419692993

> <i_i_glide_confnum>
26

> <i_i_glide_posenum>
277

> <r_i_glide_eff_state_penalty>
0

> <s_user_duplicate_titles>
CHEMBL3717_lig2349

> <s_m_subgroup_title>
dock_pv

> <s_m_subgroupid>
dock_pv

> <b_m_subgroup_collapsed>
1

$$$$
CHEMBL3717_lig596
                    3D
 Schrodinger Suite 2021-1.
 46 50  0  0  1  0            999 V2000
   -6.1460    5.1577   30.6103 N   0  0  0  0  0  0
   -4.8621    5.5891   30.6628 C   0  0  0  0  0  0
   -3.7649    4.7322   30.5926 C   0  0  0  0  0  0
   -4.0273    3.3658   30.4532 C   0  0  0  0  0  0
   -5.3408    2.8812   30.3728 C   0  0  0  0  0  0
   -6.3761    3.8319   30.4597 C   0  0  0  0  0  0
   -5.5269    1.4002   30.2083 C   0  0  0  0  0  0
   -6.7890    0.8771   30.3096 O   0  0  0  0  0  0
   -4.5685    0.5154   30.0014 N   0  0  0  0  0  0
   -2.3599    5.2278   30.6023 C   0  0  0  0  0  0
   -5.2253   -0.6810   29.9749 C   0  0  0  0  0  0
   -6.5985   -0.4613   30.1636 C   0  0  0  0  0  0
   -7.5462   -1.4890   30.1953 C   0  0  0  0  0  0
   -7.0536   -2.7874   30.0312 C   0  0  0  0  0  0
   -5.6884   -3.0308   29.8392 C   0  0  0  0  0  0
   -4.7528   -1.9903   29.8081 C   0  0  0  0  0  0
   -7.7180    3.4795   30.3742 N   0  0  0  0  0  0
   -1.2093    4.5125   30.8920 C   0  0  0  0  0  0
   -0.1404    5.3465   30.6614 N   0  0  0  0  0  0
   -0.5473    6.5396   30.2041 N   0  0  0  0  0  0
   -1.8591    6.4797   30.2116 C   0  0  0  0  0  0
    1.2865    5.0018   30.5550 C   0  0  0  0  0  0
    1.6887    4.0047   31.6701 C   0  0  0  0  0  0
    3.0808    3.4091   31.4079 C   0  0  0  0  0  0
    3.1055    2.8070   30.1182 O   0  0  0  0  0  0
    2.9088    3.7268   29.0467 C   0  0  0  0  0  0
    1.5093    4.3585   29.1623 C   0  0  0  0  0  0
   -4.7281    6.6568   30.7470 H   0  0  0  0  0  0
   -3.1988    2.6754   30.3899 H   0  0  0  0  0  0
   -8.5963   -1.2880   30.3447 H   0  0  0  0  0  0
   -7.7385   -3.6234   30.0478 H   0  0  0  0  0  0
   -5.3413   -4.0465   29.7162 H   0  0  0  0  0  0
   -3.7022   -2.1910   29.6552 H   0  0  0  0  0  0
   -7.9539    2.5024   30.2637 H   0  0  0  0  0  0
   -8.4177    4.2064   30.3713 H   0  0  0  0  0  0
   -1.0691    3.4800   31.1692 H   0  0  0  0  0  0
   -2.4457    7.3221   29.8864 H   0  0  0  0  0  0
    1.8378    5.9416   30.6410 H   0  0  0  0  0  0
    0.9630    3.2055   31.8074 H   0  0  0  0  0  0
    1.7343    4.5367   32.6214 H   0  0  0  0  0  0
    3.2973    2.6400   32.1493 H   0  0  0  0  0  0
    3.8611    4.1682   31.4927 H   0  0  0  0  0  0
    3.0044    3.1917   28.1012 H   0  0  0  0  0  0
    3.6882    4.4911   29.0530 H   0  0  0  0  0  0
    1.4392    5.1340   28.3985 H   0  0  0  0  0  0
    0.7272    3.6373   28.9161 H   0  0  0  0  0  0
  1  2  2  0  0  0
  1  6  1  0  0  0
  2  3  1  0  0  0
  2 28  1  0  0  0
  3  4  2  0  0  0
  3 10  1  0  0  0
  4  5  1  0  0  0
  4 29  1  0  0  0
  5  7  1  0  0  0
  5  6  2  0  0  0
  6 17  1  0  0  0
  7  8  1  0  0  0
  7  9  2  0  0  0
  8 12  1  0  0  0
  9 11  1  0  0  0
 10 18  2  0  0  0
 10 21  1  0  0  0
 11 16  1  0  0  0
 11 12  2  0  0  0
 12 13  1  0  0  0
 13 14  2  0  0  0
 13 30  1  0  0  0
 14 15  1  0  0  0
 14 31  1  0  0  0
 15 16  2  0  0  0
 15 32  1  0  0  0
 16 33  1  0  0  0
 17 34  1  0  0  0
 17 35  1  0  0  0
 18 19  1  0  0  0
 18 36  1  0  0  0
 19 20  1  0  0  0
 19 22  1  0  0  0
 20 21  2  0  0  0
 21 37  1  0  0  0
 22 23  1  0  0  0
 22 27  1  0  0  0
 22 38  1  0  0  0
 23 24  1  0  0  0
 23 39  1  0  0  0
 23 40  1  0  0  0
 24 25  1  0  0  0
 24 41  1  0  0  0
 24 42  1  0  0  0
 25 26  1  0  0  0
 26 27  1  0  0  0
 26 43  1  0  0  0
 26 44  1  0  0  0
 27 45  1  0  0  0
 27 46  1  0  0  0
M  END
> <s_m_entry_id>
10348

> <s_m_entry_name>
dock_pv.417

> <s_m_Source_Path>
/home/csk/Desktop/cluster/DUD-E-result/met

> <s_m_Source_File>
dock_pv.maegz

> <i_m_Source_File_Index>
417

> <chembl_id>
CHEMBL1170607

> <chembl_pref_name>
None

> <i_lp_mmshare_version>
53161

> <i_f3d_flags>
0

> <r_lp_tautomer_probability>
0.999999772200052

> <s_lp_Force_Field>
OPLS_2005

> <r_lp_Energy>
26.845211

> <b_lp_Chiralities_Consistent>
1

> <s_lp_Variant>
CHEMBL3717_lig596-1

> <s_i_glide_gridfile>
glide-grid_3lq8

> <i_i_glide_lignum>
650

> <i_i_glide_rotatable_bonds>
3

> <r_i_docking_score>
-7.39018957141802

> <r_i_glide_ligand_efficiency>
-0.273710724867334

> <r_i_glide_ligand_efficiency_sa>
-0.821132173699896

> <r_i_glide_ligand_efficiency_ln>
-1.72031429542897

> <r_i_glide_gscore>
-7.39018957141802

> <r_i_glide_lipo>
-3.55945460752619

> <r_i_glide_hbond>
0

> <r_i_glide_metal>
0

> <r_i_glide_rewards>
-2.10284792854251

> <r_i_glide_evdw>
-45.5404357910156

> <r_i_glide_ecoul>
0.72232574224472

> <r_i_glide_erotb>
0.440785892864751

> <r_i_glide_esite>
0

> <r_i_glide_emodel>
-62.3050624066872

> <r_i_glide_energy>
-44.8181100487709

> <r_i_glide_einternal>
2.73626852035522

> <i_i_glide_confnum>
4

> <i_i_glide_posenum>
131

> <r_i_glide_eff_state_penalty>
0

> <s_user_duplicate_titles>
CHEMBL3717_lig596,648557

> <s_m_subgroup_title>
dock_pv

> <s_m_subgroupid>
dock_pv

> <b_m_subgroup_collapsed>
1

$$$$
CHEMBL3717_lig1208
                    3D
 Schrodinger Suite 2021-1.
 51 55  0  0  1  0            999 V2000
   -5.8922    4.9803   30.6078 N   0  0  0  0  0  0
   -4.6573    5.5441   30.6221 C   0  0  0  0  0  0
   -3.4804    4.7922   30.6234 C   0  0  0  0  0  0
   -3.6031    3.4013   30.6076 C   0  0  0  0  0  0
   -4.8566    2.7896   30.5133 C   0  0  0  0  0  0
   -5.9845    3.6288   30.5381 C   0  0  0  0  0  0
   -2.1202    5.3901   30.6105 C   0  0  0  0  0  0
   -0.9283    4.7684   30.9512 C   0  0  0  0  0  0
    0.0768    5.6616   30.6956 N   0  0  0  0  0  0
   -0.4049    6.8067   30.1864 N   0  0  0  0  0  0
   -1.7089    6.6666   30.2064 C   0  0  0  0  0  0
    1.5259    5.4392   30.6910 C   0  0  0  0  0  0
    2.0608    4.4971   31.7950 C   0  0  0  0  0  0
    2.0075    2.9996   31.4240 C   0  0  0  0  0  0
    2.5736    2.7574   30.0981 N   0  0  2  0  0  0
    1.8944    3.5076   29.0442 C   0  0  0  0  0  0
    2.0391    5.0143   29.3010 C   0  0  0  0  0  0
   -4.8667    1.3040   30.3359 C   0  0  0  0  0  0
   -3.7530    0.7533   29.7602 O   0  0  0  0  0  0
   -5.8360    0.4533   30.6140 N   0  0  0  0  0  0
   -7.2753    3.1199   30.4529 N   0  0  0  0  0  0
   -5.3450   -0.7467   30.1732 C   0  0  0  0  0  0
   -4.0603   -0.5607   29.6440 C   0  0  0  0  0  0
   -3.3004   -1.5836   29.0720 C   0  0  0  0  0  0
   -3.9024   -2.8442   29.0088 C   0  0  0  0  0  0
   -5.1640   -3.0688   29.5964 C   0  0  0  0  0  0
   -5.9037   -2.0309   30.1714 C   0  0  0  0  0  0
   -5.6944   -4.3287   29.6421 O   0  0  0  0  0  0
   -3.1694   -3.9432   28.2514 C   0  0  0  0  0  0
   -4.6299    6.6234   30.6277 H   0  0  0  0  0  0
   -2.7121    2.7903   30.6007 H   0  0  0  0  0  0
   -0.7185    3.7714   31.2972 H   0  0  0  0  0  0
   -2.3509    7.4595   29.8610 H   0  0  0  0  0  0
    1.9062    6.4387   30.8938 H   0  0  0  0  0  0
    3.0907    4.7576   32.0400 H   0  0  0  0  0  0
    1.5400    4.6873   32.7349 H   0  0  0  0  0  0
    2.5869    2.4239   32.1467 H   0  0  0  0  0  0
    0.9938    2.6074   31.4526 H   0  0  0  0  0  0
    2.4888    1.7715   29.8824 H   0  0  0  0  0  0
    2.3327    3.2423   28.0812 H   0  0  0  0  0  0
    0.8419    3.2197   29.0120 H   0  0  0  0  0  0
    1.5086    5.5628   28.5221 H   0  0  0  0  0  0
    3.0788    5.3136   29.1709 H   0  0  0  0  0  0
   -7.4008    2.1170   30.4203 H   0  0  0  0  0  0
   -8.0551    3.7594   30.4293 H   0  0  0  0  0  0
   -2.3402   -1.3909   28.6237 H   0  0  0  0  0  0
   -6.8781   -2.2181   30.5943 H   0  0  0  0  0  0
   -4.9884   -4.9563   29.8600 H   0  0  0  0  0  0
   -2.0930   -3.8482   28.3814 H   0  0  0  0  0  0
   -3.4296   -4.9390   28.6056 H   0  0  0  0  0  0
   -3.3874   -3.8794   27.1855 H   0  0  0  0  0  0
  1  6  1  0  0  0
  1  2  2  0  0  0
  2  3  1  0  0  0
  2 30  1  0  0  0
  3  4  2  0  0  0
  3  7  1  0  0  0
  4  5  1  0  0  0
  4 31  1  0  0  0
  5 18  1  0  0  0
  5  6  2  0  0  0
  6 21  1  0  0  0
  7 11  1  0  0  0
  7  8  2  0  0  0
  8  9  1  0  0  0
  8 32  1  0  0  0
  9 12  1  0  0  0
  9 10  1  0  0  0
 10 11  2  0  0  0
 11 33  1  0  0  0
 12 17  1  0  0  0
 12 13  1  0  0  0
 12 34  1  0  0  0
 13 14  1  0  0  0
 13 35  1  0  0  0
 13 36  1  0  0  0
 14 15  1  0  0  0
 14 37  1  0  0  0
 14 38  1  0  0  0
 15 16  1  0  0  0
 15 39  1  0  0  0
 16 17  1  0  0  0
 16 40  1  0  0  0
 16 41  1  0  0  0
 17 42  1  0  0  0
 17 43  1  0  0  0
 18 19  1  0  0  0
 18 20  2  0  0  0
 19 23  1  0  0  0
 20 22  1  0  0  0
 21 44  1  0  0  0
 21 45  1  0  0  0
 22 23  2  0  0  0
 22 27  1  0  0  0
 23 24  1  0  0  0
 24 25  2  0  0  0
 24 46  1  0  0  0
 25 26  1  0  0  0
 25 29  1  0  0  0
 26 27  2  0  0  0
 26 28  1  0  0  0
 27 47  1  0  0  0
 28 48  1  0  0  0
 29 49  1  0  0  0
 29 50  1  0  0  0
 29 51  1  0  0  0
M  END
> <s_m_entry_id>
10349

> <s_m_entry_name>
dock_pv.418

> <s_m_Source_Path>
/home/csk/Desktop/cluster/DUD-E-result/met

> <s_m_Source_File>
dock_pv.maegz

> <i_m_Source_File_Index>
418

> <chembl_id>
CHEMBL2032276

> <chembl_pref_name>
None

> <i_lp_mmshare_version>
53161

> <i_f3d_flags>
0

> <r_lp_tautomer_probability>
0.999999772200052

> <s_lp_Force_Field>
OPLS_2005

> <r_lp_Energy>
31.192668

> <b_lp_Chiralities_Consistent>
1

> <s_lp_Variant>
CHEMBL3717_lig1208-1

> <s_i_glide_gridfile>
glide-grid_3lq8

> <i_i_glide_lignum>
1384

> <i_i_glide_rotatable_bonds>
4

> <r_i_docking_score>
-7.38673570736313

> <r_i_glide_ligand_efficiency>
-0.254715024391832

> <r_i_glide_ligand_efficiency_sa>
-0.78256525431563

> <r_i_glide_ligand_efficiency_ln>
-1.69137516553029

> <r_i_glide_gscore>
-7.38673570736313

> <r_i_glide_lipo>
-3.40040208850899

> <r_i_glide_hbond>
-0.16

> <r_i_glide_metal>
0

> <r_i_glide_rewards>
-1.51367771212121

> <r_i_glide_evdw>
-42.1939353942871

> <r_i_glide_ecoul>
-3.91199517250061

> <r_i_glide_erotb>
0.38384013885652

> <r_i_glide_esite>
0

> <r_i_glide_emodel>
-58.5012983493229

> <r_i_glide_energy>
-46.1059305667877

> <r_i_glide_einternal>
7.71208953857422

> <i_i_glide_confnum>
1

> <i_i_glide_posenum>
33

> <r_i_glide_eff_state_penalty>
0

> <s_user_duplicate_titles>
CHEMBL3717_lig1208

> <s_m_subgroup_title>
dock_pv

> <s_m_subgroupid>
dock_pv

> <b_m_subgroup_collapsed>
1

$$$$
CHEMBL3717_lig3974
                    3D
 Schrodinger Suite 2021-1.
 29 31  0  0  1  0            999 V2000
    5.3370    4.3568   31.0025 F   0  0  0  0  0  0
    0.4762    5.4904   31.8079 O   0  0  0  0  0  0
   -0.6563    3.9143   30.6077 N   0  0  0  0  0  0
   -6.0332    5.1564   30.5065 N   0  0  0  0  0  0
   -6.5717    3.9316   30.3694 N   0  0  0  0  0  0
   -4.3233    3.7353   30.5350 C   0  0  0  0  0  0
   -4.6582    5.1085   30.6103 C   0  0  0  0  0  0
   -1.9944    4.3343   30.7204 C   0  0  0  0  0  0
   -2.9761    3.3456   30.6080 C   0  0  0  0  0  0
    0.4576    4.5745   30.9886 C   0  0  0  0  0  0
    1.7438    4.1539   30.3285 C   0  0  0  0  0  0
   -3.6928    6.1051   30.7606 C   0  0  0  0  0  0
   -2.3612    5.6877   30.8023 C   0  0  0  0  0  0
   -5.5809    3.0772   30.3839 C   0  0  0  0  0  0
    2.9613    4.3577   30.9951 C   0  0  0  0  0  0
    1.7648    3.6620   29.0125 C   0  0  0  0  0  0
    4.1728    4.1285   30.3505 C   0  0  0  0  0  0
    2.9776    3.4331   28.3661 C   0  0  0  0  0  0
    4.1761    3.6905   29.0287 C   0  0  0  0  0  0
   -0.5136    3.0654   30.0830 H   0  0  0  0  0  0
   -6.6185    5.9796   30.4677 H   0  0  0  0  0  0
   -2.7091    2.3016   30.5326 H   0  0  0  0  0  0
   -3.9595    7.1491   30.8235 H   0  0  0  0  0  0
   -1.6010    6.4518   30.8651 H   0  0  0  0  0  0
   -5.7655    2.0168   30.2902 H   0  0  0  0  0  0
    2.9789    4.7535   32.0013 H   0  0  0  0  0  0
    0.8510    3.4957   28.4587 H   0  0  0  0  0  0
    2.9874    3.0789   27.3455 H   0  0  0  0  0  0
    5.1093    3.5564   28.5126 H   0  0  0  0  0  0
  1 17  1  0  0  0
  2 10  2  0  0  0
  3  8  1  0  0  0
  3 10  1  0  0  0
  3 20  1  0  0  0
  4  5  1  0  0  0
  4  7  1  0  0  0
  4 21  1  0  0  0
  5 14  2  0  0  0
  6  7  1  0  0  0
  6  9  2  0  0  0
  6 14  1  0  0  0
  7 12  2  0  0  0
  8  9  1  0  0  0
  8 13  2  0  0  0
  9 22  1  0  0  0
 10 11  1  0  0  0
 11 15  2  0  0  0
 11 16  1  0  0  0
 12 13  1  0  0  0
 12 23  1  0  0  0
 13 24  1  0  0  0
 14 25  1  0  0  0
 15 17  1  0  0  0
 15 26  1  0  0  0
 16 18  2  0  0  0
 16 27  1  0  0  0
 17 19  2  0  0  0
 18 19  1  0  0  0
 18 28  1  0  0  0
 19 29  1  0  0  0
M  END
> <s_m_entry_id>
10350

> <s_m_entry_name>
dock_pv.419

> <s_m_Source_Path>
/home/csk/Desktop/cluster/DUD-E-result/met

> <s_m_Source_File>
dock_pv.maegz

> <i_m_Source_File_Index>
419

> <chembl_id>
CHEMBL1461728

> <chembl_pref_name>
None

> <i_lp_mmshare_version>
53161

> <i_f3d_flags>
0

> <r_lp_tautomer_probability>
0.980392156862745

> <s_lp_Force_Field>
OPLS_2005

> <r_lp_Energy>
19.09374

> <b_lp_Chiralities_Consistent>
1

> <s_lp_Variant>
CHEMBL3717_lig3974-1

> <s_i_glide_gridfile>
glide-grid_3lq8

> <i_i_glide_lignum>
5057

> <i_i_glide_rotatable_bonds>
3

> <r_i_docking_score>
-7.38547678911325

> <r_i_glide_ligand_efficiency>
-0.388709304690171

> <r_i_glide_ligand_efficiency_sa>
-1.03723254849079

> <r_i_glide_ligand_efficiency_ln>
-1.87237699153708

> <r_i_glide_gscore>
-7.38547678911325

> <r_i_glide_lipo>
-3.36898467738256

> <r_i_glide_hbond>
0

> <r_i_glide_metal>
0

> <r_i_glide_rewards>
-2.70576266284942

> <r_i_glide_evdw>
-34.5331993103027

> <r_i_glide_ecoul>
-2.63099765777588

> <r_i_glide_erotb>
0.810580165300244

> <r_i_glide_esite>
0

> <r_i_glide_emodel>
-48.166359738583

> <r_i_glide_energy>
-37.1641969680786

> <r_i_glide_einternal>
8.43210411071777

> <i_i_glide_confnum>
8

> <i_i_glide_posenum>
104

> <r_i_glide_eff_state_penalty>
0

> <s_user_duplicate_titles>
CHEMBL3717_lig3974,CHEMBL3717_lig3974

> <s_m_subgroup_title>
dock_pv

> <s_m_subgroupid>
dock_pv

> <b_m_subgroup_collapsed>
1

$$$$
CHEMBL3717_lig3684
                    3D
 Schrodinger Suite 2021-1.
 50 53  0  0  1  0            999 V2000
   -6.6525    5.3221   30.6095 Cl  0  0  0  0  0  0
   -5.1591    2.7583   30.6085 O   0  0  0  0  0  0
   -3.5964   -2.8324   29.6212 N   0  0  0  0  0  0
   -4.1882    6.2923   30.6102 N   0  0  0  0  0  0
   -6.4966    0.3568   28.2082 N   0  0  0  0  0  0
    4.3021    3.7581   29.8447 N   0  0  0  0  0  0
   -3.7612   -1.1886   31.1415 C   0  0  0  0  0  0
   -4.9831   -1.2138   30.3835 C   0  0  0  0  0  0
   -2.9022   -2.2072   30.6318 C   0  0  0  0  0  0
   -4.8327   -2.2546   29.4849 C   0  0  0  0  0  0
   -4.3574    3.8785   30.5939 C   0  0  0  0  0  0
   -6.1687   -0.2799   30.5555 C   0  0  0  0  0  0
   -3.3031   -0.4021   32.2079 C   0  0  0  0  0  0
   -1.6280   -2.4429   31.1571 C   0  0  0  0  0  0
   -4.9321    5.1553   30.6069 C   0  0  0  0  0  0
   -6.2212    0.8830   29.5351 C   0  0  1  0  0  0
   -2.1756    4.9479   30.6510 C   0  0  0  0  0  0
   -2.9590    3.7854   30.6090 C   0  0  0  0  0  0
   -2.0373   -0.6359   32.7354 C   0  0  0  0  0  0
   -4.9858    1.8197   29.5499 C   0  0  0  0  0  0
   -1.2246   -1.6431   32.2236 C   0  0  0  0  0  0
   -2.8377    6.1766   30.6277 C   0  0  0  0  0  0
   -0.7006    4.9169   30.6593 C   0  0  0  0  0  0
    0.0386    3.9577   30.0725 C   0  0  0  0  0  0
    1.5035    3.8866   30.0343 C   0  0  0  0  0  0
    2.3077    4.3576   31.0786 C   0  0  0  0  0  0
    2.1169    3.3546   28.8944 C   0  0  0  0  0  0
    3.6944    4.2723   30.9431 C   0  0  0  0  0  0
    3.5082    3.3139   28.8379 C   0  0  0  0  0  0
   -3.2943   -3.6325   29.0813 H   0  0  0  0  0  0
   -6.6427    1.0844   27.5289 H   0  0  0  0  0  0
   -5.7386   -0.2344   27.8709 H   0  0  0  0  0  0
   -5.5152   -2.6287   28.7383 H   0  0  0  0  0  0
   -6.1757    0.1298   31.5655 H   0  0  0  0  0  0
   -7.0968   -0.8520   30.4878 H   0  0  0  0  0  0
   -3.9421    0.3566   32.6273 H   0  0  0  0  0  0
   -0.9894   -3.2233   30.7675 H   0  0  0  0  0  0
   -7.0929    1.4909   29.7876 H   0  0  0  0  0  0
   -2.4950    2.8092   30.6250 H   0  0  0  0  0  0
   -1.6822   -0.0418   33.5646 H   0  0  0  0  0  0
   -4.8924    2.3564   28.6067 H   0  0  0  0  0  0
   -4.0573    1.2569   29.6615 H   0  0  0  0  0  0
   -0.2511   -1.8010   32.6628 H   0  0  0  0  0  0
   -2.2863    7.1047   30.6098 H   0  0  0  0  0  0
   -0.2065    5.7277   31.1770 H   0  0  0  0  0  0
   -0.4710    3.1556   29.5640 H   0  0  0  0  0  0
    1.8711    4.7807   31.9721 H   0  0  0  0  0  0
    1.5285    2.9832   28.0658 H   0  0  0  0  0  0
    4.3450    4.6248   31.7271 H   0  0  0  0  0  0
    4.0132    2.9021   27.9762 H   0  0  0  0  0  0
  1 15  1  0  0  0
  2 11  1  0  0  0
  2 20  1  0  0  0
  3  9  1  0  0  0
  3 10  1  0  0  0
  3 30  1  0  0  0
  4 15  2  0  0  0
  4 22  1  0  0  0
  5 16  1  0  0  0
  5 31  1  0  0  0
  5 32  1  0  0  0
  6 28  2  0  0  0
  6 29  1  0  0  0
  7  8  1  0  0  0
  7  9  1  0  0  0
  7 13  2  0  0  0
  8 10  2  0  0  0
  8 12  1  0  0  0
  9 14  2  0  0  0
 10 33  1  0  0  0
 11 15  1  0  0  0
 11 18  2  0  0  0
 12 16  1  0  0  0
 12 34  1  0  0  0
 12 35  1  0  0  0
 13 19  1  0  0  0
 13 36  1  0  0  0
 14 21  1  0  0  0
 14 37  1  0  0  0
 16 20  1  0  0  0
 16 38  1  0  0  0
 17 18  1  0  0  0
 17 22  2  0  0  0
 17 23  1  0  0  0
 18 39  1  0  0  0
 19 21  2  0  0  0
 19 40  1  0  0  0
 20 41  1  0  0  0
 20 42  1  0  0  0
 21 43  1  0  0  0
 22 44  1  0  0  0
 23 24  2  3  0  0
 23 45  1  0  0  0
 24 25  1  0  0  0
 24 46  1  0  0  0
 25 26  2  0  0  0
 25 27  1  0  0  0
 26 28  1  0  0  0
 26 47  1  0  0  0
 27 29  2  0  0  0
 27 48  1  0  0  0
 28 49  1  0  0  0
 29 50  1  0  0  0
M  END
> <s_m_entry_id>
10351

> <s_m_entry_name>
dock_pv.420

> <s_m_Source_Path>
/home/csk/Desktop/cluster/DUD-E-result/met

> <s_m_Source_File>
dock_pv.maegz

> <i_m_Source_File_Index>
420

> <chembl_id>
CHEMBL1968245

> <chembl_pref_name>
None

> <i_lp_mmshare_version>
53161

> <i_f3d_flags>
0

> <r_lp_tautomer_probability>
1

> <s_lp_Force_Field>
OPLS_2005

> <r_lp_Energy>
23.954996

> <b_lp_Chiralities_Consistent>
1

> <s_lp_Variant>
CHEMBL3717_lig3684-3

> <s_i_glide_gridfile>
glide-grid_3lq8

> <i_i_glide_lignum>
4632

> <i_i_glide_rotatable_bonds>
7

> <r_i_docking_score>
-7.38492938160852

> <r_i_glide_ligand_efficiency>
-0.254652737296846

> <r_i_glide_ligand_efficiency_sa>
-0.782373888625895

> <r_i_glide_ligand_efficiency_ln>
-1.69096156273696

> <r_i_glide_gscore>
-7.38492938160852

> <r_i_glide_lipo>
-4.00523543936078

> <r_i_glide_hbond>
-0.16

> <r_i_glide_metal>
0

> <r_i_glide_rewards>
-1.51449578969685

> <r_i_glide_evdw>
-44.9236373901367

> <r_i_glide_ecoul>
-0.743619680404663

> <r_i_glide_erotb>
0.719084871623642

> <r_i_glide_esite>
-0.0665582026069987

> <r_i_glide_emodel>
-62.3586284740381

> <r_i_glide_energy>
-45.6672570705414

> <r_i_glide_einternal>
8.19743633270264

> <i_i_glide_confnum>
5

> <i_i_glide_posenum>
111

> <r_i_glide_eff_state_penalty>
0

> <s_user_duplicate_titles>
CHEMBL3717_lig3684

> <s_m_subgroup_title>
dock_pv

> <s_m_subgroupid>
dock_pv

> <b_m_subgroup_collapsed>
1

$$$$
CHEMBL3717_lig1039
                    3D
 Schrodinger Suite 2021-1.
 38 40  0  0  1  0            999 V2000
   -5.0452   -0.3102   30.2982 C   0  0  0  0  0  0
   -6.3959   -0.5049   30.0013 C   0  0  0  0  0  0
   -7.2643    0.5864   29.9473 C   0  0  0  0  0  0
   -6.7503    1.8650   30.1602 C   0  0  0  0  0  0
   -5.4062    2.0829   30.3949 C   0  0  0  0  0  0
   -4.5482    0.9791   30.5127 C   0  0  0  0  0  0
   -2.8942    1.1676   30.9710 Cl  0  0  0  0  0  0
   -5.2229    3.5254   30.5018 C   0  0  0  0  0  0
   -6.5921    4.0866   30.4664 C   0  0  0  0  0  0
   -7.4154    3.0642   30.2090 N   0  0  0  0  0  0
   -6.9237    5.2599   30.6217 O   0  0  0  0  0  0
   -4.1032    4.1535   30.6048 N   0  0  0  0  0  0
   -4.1309    5.4985   30.6983 N   0  0  0  0  0  0
   -3.0715    6.3248   30.6080 C   0  0  0  0  0  0
   -1.5951    5.8935   30.4268 C   0  0  0  0  0  0
   -1.1585    4.4479   30.7671 C   0  0  0  0  0  0
    0.3474    4.2483   30.6332 C   0  0  0  0  0  0
    1.1891    4.5585   31.7028 C   0  0  0  0  0  0
    2.5628    4.3573   31.5905 C   0  0  0  0  0  0
    3.0963    3.8646   30.4017 C   0  0  0  0  0  0
    2.2653    3.5569   29.3291 C   0  0  0  0  0  0
    0.8915    3.7496   29.4447 C   0  0  0  0  0  0
    4.4477    3.6932   30.2815 O   0  0  0  0  0  0
   -3.2892    7.5299   30.6087 O   0  0  0  0  0  0
   -4.3858   -1.1633   30.3688 H   0  0  0  0  0  0
   -6.7719   -1.5044   29.8355 H   0  0  0  0  0  0
   -8.3138    0.4255   29.7508 H   0  0  0  0  0  0
   -8.4139    3.1745   30.1260 H   0  0  0  0  0  0
   -5.0637    5.8923   30.7429 H   0  0  0  0  0  0
   -0.9868    6.5809   31.0103 H   0  0  0  0  0  0
   -1.3147    6.1461   29.4080 H   0  0  0  0  0  0
   -1.6385    3.7233   30.1108 H   0  0  0  0  0  0
   -1.4674    4.1790   31.7794 H   0  0  0  0  0  0
    0.7777    4.9566   32.6175 H   0  0  0  0  0  0
    3.2051    4.5967   32.4238 H   0  0  0  0  0  0
    2.6834    3.1691   28.4116 H   0  0  0  0  0  0
    0.2565    3.4974   28.6100 H   0  0  0  0  0  0
    4.9352    4.0864   31.0067 H   0  0  0  0  0  0
  1  2  1  0  0  0
  1  6  2  0  0  0
  1 25  1  0  0  0
  2  3  2  0  0  0
  2 26  1  0  0  0
  3  4  1  0  0  0
  3 27  1  0  0  0
  4  5  2  0  0  0
  4 10  1  0  0  0
  5  6  1  0  0  0
  5  8  1  0  0  0
  6  7  1  0  0  0
  8  9  1  0  0  0
  8 12  2  0  0  0
  9 10  1  0  0  0
  9 11  2  0  0  0
 10 28  1  0  0  0
 12 13  1  0  0  0
 13 14  1  0  0  0
 13 29  1  0  0  0
 14 15  1  0  0  0
 14 24  2  0  0  0
 15 16  1  0  0  0
 15 30  1  0  0  0
 15 31  1  0  0  0
 16 17  1  0  0  0
 16 32  1  0  0  0
 16 33  1  0  0  0
 17 18  2  0  0  0
 17 22  1  0  0  0
 18 19  1  0  0  0
 18 34  1  0  0  0
 19 20  2  0  0  0
 19 35  1  0  0  0
 20 21  1  0  0  0
 20 23  1  0  0  0
 21 22  2  0  0  0
 21 36  1  0  0  0
 22 37  1  0  0  0
 23 38  1  0  0  0
M  END
> <s_m_entry_id>
10352

> <s_m_entry_name>
dock_pv.421

> <s_m_Source_Path>
/home/csk/Desktop/cluster/DUD-E-result/met

> <s_m_Source_File>
dock_pv.maegz

> <i_m_Source_File_Index>
421

> <chembl_id>
CHEMBL1823272

> <chembl_pref_name>
None

> <i_lp_mmshare_version>
53161

> <i_f3d_flags>
0

> <r_lp_tautomer_probability>
0.999999999997365

> <s_lp_Force_Field>
OPLS_2005

> <r_lp_Energy>
36.984697

> <b_lp_Chiralities_Consistent>
1

> <s_lp_Variant>
CHEMBL3717_lig1039-1

> <s_i_glide_gridfile>
glide-grid_3lq8

> <i_i_glide_lignum>
1158

> <i_i_glide_rotatable_bonds>
6

> <r_i_docking_score>
-7.38491035041406

> <r_i_glide_ligand_efficiency>
-0.307704597933919

> <r_i_glide_ligand_efficiency_sa>
-0.887573647363366

> <r_i_glide_ligand_efficiency_ln>
-1.76754791830891

> <r_i_glide_gscore>
-7.38491035041406

> <r_i_glide_lipo>
-2.78923309272898

> <r_i_glide_hbond>
-0.32

> <r_i_glide_metal>
0

> <r_i_glide_rewards>
-2.63403809535902

> <r_i_glide_evdw>
-37.2416763305664

> <r_i_glide_ecoul>
-3.88380026817322

> <r_i_glide_erotb>
0.803014694428233

> <r_i_glide_esite>
0

> <r_i_glide_emodel>
-51.6645216942011

> <r_i_glide_energy>
-41.1254765987396

> <r_i_glide_einternal>
6.89812469482422

> <i_i_glide_confnum>
66

> <i_i_glide_posenum>
227

> <r_i_glide_eff_state_penalty>
0

> <s_user_duplicate_titles>
CHEMBL3717_lig1039

> <s_m_subgroup_title>
dock_pv

> <s_m_subgroupid>
dock_pv

> <b_m_subgroup_collapsed>
1

$$$$
CHEMBL3717_lig1866
                    3D
 Schrodinger Suite 2021-1.
 37 41  0  0  1  0            999 V2000
   -3.3328    4.9227   30.6129 C   0  0  0  0  0  0
   -4.3430    5.8228   30.9721 C   0  0  0  0  0  0
   -5.6611    5.4726   31.0068 N   0  0  0  0  0  0
   -3.6025    3.6350   30.2475 N   0  0  0  0  0  0
   -4.9003    3.3212   30.2562 C   0  0  0  0  0  0
   -5.9282    4.2105   30.6488 C   0  0  0  0  0  0
   -7.1253    3.5648   30.5851 N   0  0  0  0  0  0
   -6.8710    2.2827   30.1317 N   0  0  0  0  0  0
   -5.5449    2.1473   29.9040 N   0  0  0  0  0  0
   -1.8952    5.3062   30.6079 C   0  0  0  0  0  0
   -0.7915    4.5165   30.8951 C   0  0  0  0  0  0
    0.3109    5.2802   30.6183 N   0  0  0  0  0  0
   -0.0076    6.5138   30.2082 N   0  0  0  0  0  0
   -1.3221    6.5285   30.2080 C   0  0  0  0  0  0
   -5.0138    0.9146   29.3126 C   0  0  0  0  0  0
   -4.1697   -0.0024   30.1988 C   0  0  0  0  0  0
    1.7053    4.9068   30.7674 C   0  0  0  0  0  0
   -4.0521   -1.3540   29.8570 C   0  0  0  0  0  0
   -3.2220   -2.1979   30.5981 C   0  0  0  0  0  0
   -3.5160    0.5619   31.2510 N   0  0  0  0  0  0
   -2.7319   -0.2822   31.9404 N   0  0  0  0  0  0
   -2.5238   -1.6472   31.6862 C   0  0  0  0  0  0
   -1.6429   -2.1843   32.5705 N   0  0  0  0  0  0
   -1.2865   -1.1742   33.3352 C   0  0  0  0  0  0
   -1.9280    0.0181   33.0078 C   0  0  0  0  0  0
   -4.0992    6.8319   31.2603 H   0  0  0  0  0  0
   -0.6976    3.4927   31.2251 H   0  0  0  0  0  0
   -1.8613    7.4049   29.8813 H   0  0  0  0  0  0
   -4.3914    1.2104   28.4675 H   0  0  0  0  0  0
   -5.8420    0.3466   28.8838 H   0  0  0  0  0  0
    1.8147    3.8334   30.6065 H   0  0  0  0  0  0
    2.3186    5.4373   30.0366 H   0  0  0  0  0  0
    2.0366    5.1549   31.7759 H   0  0  0  0  0  0
   -4.5871   -1.7547   29.0083 H   0  0  0  0  0  0
   -3.1121   -3.2412   30.3277 H   0  0  0  0  0  0
   -0.5578   -1.3047   34.1237 H   0  0  0  0  0  0
   -1.8525    1.0146   33.4088 H   0  0  0  0  0  0
  1  2  1  0  0  0
  1  4  2  0  0  0
  1 10  1  0  0  0
  2  3  2  0  0  0
  2 26  1  0  0  0
  3  6  1  0  0  0
  4  5  1  0  0  0
  5  6  2  0  0  0
  5  9  1  0  0  0
  6  7  1  0  0  0
  7  8  2  0  0  0
  8  9  1  0  0  0
  9 15  1  0  0  0
 10 11  2  0  0  0
 10 14  1  0  0  0
 11 12  1  0  0  0
 11 27  1  0  0  0
 12 13  1  0  0  0
 12 17  1  0  0  0
 13 14  2  0  0  0
 14 28  1  0  0  0
 15 16  1  0  0  0
 15 29  1  0  0  0
 15 30  1  0  0  0
 16 18  1  0  0  0
 16 20  2  0  0  0
 17 31  1  0  0  0
 17 32  1  0  0  0
 17 33  1  0  0  0
 18 19  2  0  0  0
 18 34  1  0  0  0
 19 22  1  0  0  0
 19 35  1  0  0  0
 20 21  1  0  0  0
 21 22  1  0  0  0
 21 25  1  0  0  0
 22 23  2  0  0  0
 23 24  1  0  0  0
 24 25  2  0  0  0
 24 36  1  0  0  0
 25 37  1  0  0  0
M  END
> <s_m_entry_id>
10353

> <s_m_entry_name>
dock_pv.422

> <s_m_Source_Path>
/home/csk/Desktop/cluster/DUD-E-result/met

> <s_m_Source_File>
dock_pv.maegz

> <i_m_Source_File_Index>
422

> <chembl_id>
CHEMBL3334545

> <chembl_pref_name>
None

> <i_lp_mmshare_version>
53161

> <i_f3d_flags>
0

> <r_lp_tautomer_probability>
1

> <s_lp_Force_Field>
OPLS_2005

> <r_lp_Energy>
19.000332

> <b_lp_Chiralities_Consistent>
1

> <s_lp_Variant>
CHEMBL3717_lig1866-1

> <s_i_glide_gridfile>
glide-grid_3lq8

> <i_i_glide_lignum>
2154

> <i_i_glide_rotatable_bonds>
3

> <r_i_docking_score>
-7.37940287508337

> <r_i_glide_ligand_efficiency>
-0.295176115003335

> <r_i_glide_ligand_efficiency_sa>
-0.863100195240441

> <r_i_glide_ligand_efficiency_ln>
-1.74913962425379

> <r_i_glide_gscore>
-7.37940287508337

> <r_i_glide_lipo>
-2.55694527172939

> <r_i_glide_hbond>
0

> <r_i_glide_metal>
0

> <r_i_glide_rewards>
-3.09183158534136

> <r_i_glide_evdw>
-42.9700469970703

> <r_i_glide_ecoul>
-0.624734699726105

> <r_i_glide_erotb>
0.51158653679981

> <r_i_glide_esite>
0

> <r_i_glide_emodel>
-59.7256155058355

> <r_i_glide_energy>
-43.5947816967964

> <r_i_glide_einternal>
2.22591924667358

> <i_i_glide_confnum>
3

> <i_i_glide_posenum>
36

> <r_i_glide_eff_state_penalty>
0

> <s_user_duplicate_titles>
CHEMBL3717_lig1866

> <s_m_subgroup_title>
dock_pv

> <s_m_subgroupid>
dock_pv

> <b_m_subgroup_collapsed>
1

$$$$
CHEMBL3717_lig1303
                    3D
 Schrodinger Suite 2021-1.
 30 33  0  0  1  0            999 V2000
   -2.3527    6.6431   30.2081 N   0  0  0  0  0  0
   -1.0011    6.7573   30.2078 C   0  0  0  0  0  0
   -0.1392    5.6876   30.4424 C   0  0  0  0  0  0
   -0.6802    4.4195   30.6547 C   0  0  0  0  0  0
   -2.0887    4.2468   30.6082 C   0  0  0  0  0  0
   -2.7122    2.9782   30.7215 C   0  0  0  0  0  0
   -4.1022    2.8505   30.6080 C   0  0  0  0  0  0
   -4.8791    3.9945   30.4114 C   0  0  0  0  0  0
   -4.2992    5.2571   30.3124 C   0  0  0  0  0  0
   -2.8965    5.4052   30.3895 C   0  0  0  0  0  0
   -4.8171    1.5062   30.7916 C   0  0  0  0  0  0
   -2.7001   -1.4860   30.6064 C   0  0  0  0  0  0
   -3.1015   -0.3545   31.3617 C   0  0  0  0  0  0
   -1.7822   -2.3466   31.0617 N   0  0  0  0  0  0
   -2.6147   -0.0426   32.5698 N   0  0  0  0  0  0
   -1.6625   -0.9123   33.0090 C   0  0  0  0  0  0
   -1.2657   -2.0428   32.2841 C   0  0  0  0  0  0
   -4.0398    0.2881   30.5668 N   0  0  0  0  0  0
   -4.1820   -0.3865   29.4082 N   0  0  0  0  0  0
   -3.3625   -1.4971   29.4195 N   0  0  0  0  0  0
   -0.6084    7.7514   30.0422 H   0  0  0  0  0  0
    0.9310    5.8382   30.4501 H   0  0  0  0  0  0
   -0.0392    3.5639   30.8149 H   0  0  0  0  0  0
   -2.0940    2.1114   30.8867 H   0  0  0  0  0  0
   -5.9542    3.9129   30.3448 H   0  0  0  0  0  0
   -4.9185    6.1280   30.1580 H   0  0  0  0  0  0
   -5.7000    1.4718   30.1489 H   0  0  0  0  0  0
   -5.2035    1.4493   31.8078 H   0  0  0  0  0  0
   -1.2217   -0.6932   33.9705 H   0  0  0  0  0  0
   -0.5072   -2.7106   32.6643 H   0  0  0  0  0  0
  1  2  2  0  0  0
  1 10  1  0  0  0
  2  3  1  0  0  0
  2 21  1  0  0  0
  3  4  2  0  0  0
  3 22  1  0  0  0
  4  5  1  0  0  0
  4 23  1  0  0  0
  5  6  2  0  0  0
  5 10  1  0  0  0
  6  7  1  0  0  0
  6 24  1  0  0  0
  7  8  2  0  0  0
  7 11  1  0  0  0
  8  9  1  0  0  0
  8 25  1  0  0  0
  9 10  2  0  0  0
  9 26  1  0  0  0
 11 18  1  0  0  0
 11 27  1  0  0  0
 11 28  1  0  0  0
 12 13  1  0  0  0
 12 14  2  0  0  0
 12 20  1  0  0  0
 13 15  2  0  0  0
 13 18  1  0  0  0
 14 17  1  0  0  0
 15 16  1  0  0  0
 16 17  2  0  0  0
 16 29  1  0  0  0
 17 30  1  0  0  0
 18 19  1  0  0  0
 19 20  2  0  0  0
M  END
> <s_m_entry_id>
10355

> <s_m_entry_name>
dock_pv.424

> <s_m_Source_Path>
/home/csk/Desktop/cluster/DUD-E-result/met

> <s_m_Source_File>
dock_pv.maegz

> <i_m_Source_File_Index>
424

> <chembl_id>
CHEMBL2170951

> <chembl_pref_name>
None

> <i_lp_mmshare_version>
53161

> <i_f3d_flags>
0

> <r_lp_tautomer_probability>
1

> <s_lp_Force_Field>
OPLS_2005

> <r_lp_Energy>
21.594457

> <b_lp_Chiralities_Consistent>
1

> <s_lp_Variant>
CHEMBL3717_lig1303-1

> <s_i_glide_gridfile>
glide-grid_3lq8

> <i_i_glide_lignum>
1489

> <i_i_glide_rotatable_bonds>
2

> <r_i_docking_score>
-7.37198585769188

> <r_i_glide_ligand_efficiency>
-0.368599292884594

> <r_i_glide_ligand_efficiency_sa>
-1.00053241307126

> <r_i_glide_ligand_efficiency_ln>
-1.84496491581376

> <r_i_glide_gscore>
-7.37198585769188

> <r_i_glide_lipo>
-2.79554094027508

> <r_i_glide_hbond>
0

> <r_i_glide_metal>
0

> <r_i_glide_rewards>
-3.16658225161789

> <r_i_glide_evdw>
-32.476505279541

> <r_i_glide_ecoul>
-1.50616037845612

> <r_i_glide_erotb>
0.515723362420415

> <r_i_glide_esite>
-0.0758367074738555

> <r_i_glide_emodel>
-46.4317032934123

> <r_i_glide_energy>
-33.9826656579971

> <r_i_glide_einternal>
2.00482320785522

> <i_i_glide_confnum>
4

> <i_i_glide_posenum>
26

> <r_i_glide_eff_state_penalty>
0

> <s_user_duplicate_titles>
CHEMBL3717_lig1303

> <s_m_subgroup_title>
dock_pv

> <s_m_subgroupid>
dock_pv

> <b_m_subgroup_collapsed>
1

$$$$
CHEMBL3717_lig1679
                    3D
 Schrodinger Suite 2021-1.
 59 62  0  0  1  0            999 V2000
   -1.9189    4.4824   30.8012 C   0  0  0  0  0  0
   -2.8971    5.4555   30.6080 C   0  0  0  0  0  0
   -2.4804    6.7560   30.3433 C   0  0  0  0  0  0
   -1.1238    7.0536   30.2077 C   0  0  0  0  0  0
   -4.2757    5.1707   30.6109 N   0  0  0  0  0  0
   -4.9969    3.9797   30.4162 C   0  0  0  0  0  0
   -4.3425    2.8043   30.2090 N   0  0  0  0  0  0
   -5.0816    1.6807   30.0091 C   0  0  0  0  0  0
   -6.4831    1.7371   29.9919 C   0  0  0  0  0  0
   -7.0737    2.9852   30.2082 C   0  0  0  0  0  0
   -6.3469    4.1126   30.4258 N   0  0  0  0  0  0
   -7.4737    0.3416   29.7315 Cl  0  0  0  0  0  0
   -4.4191    0.4442   29.8982 N   0  0  0  0  0  0
   -3.4731   -0.1785   30.7459 C   0  0  0  0  0  0
   -3.0880   -1.5262   30.5577 C   0  0  0  0  0  0
   -2.1863   -2.1210   31.4565 C   0  0  0  0  0  0
   -1.6930   -1.4168   32.5499 C   0  0  0  0  0  0
   -2.0569   -0.0883   32.7293 C   0  0  0  0  0  0
   -2.8974    0.5271   31.8080 C   0  0  0  0  0  0
   -3.6071   -2.3479   29.4080 C   0  0  0  0  0  0
   -2.6525   -2.9376   28.6728 N   0  0  0  0  0  0
   -2.8933   -3.6898   27.4513 C   0  0  0  0  0  0
   -4.8127   -2.4098   29.1662 O   0  0  0  0  0  0
   -0.1389    6.0614   30.3140 C   0  0  0  0  0  0
   -0.5602    4.7490   30.6080 C   0  0  0  0  0  0
    0.3851    3.5654   30.5296 C   0  0  2  0  0  0
    1.3418    6.4597   30.2100 C   0  0  0  0  0  0
    1.7315    3.7083   31.2656 C   0  0  0  0  0  0
    2.4227    5.4746   29.6844 C   0  0  0  0  0  0
    2.8149    4.3773   30.5605 N   0  0  2  0  0  0
    3.7864    3.4718   29.9514 C   0  0  0  0  0  0
    0.4660    3.1570   29.0455 C   0  0  0  0  0  0
   -2.1984    3.4686   31.0239 H   0  0  0  0  0  0
   -3.2079    7.5416   30.2373 H   0  0  0  0  0  0
   -0.8350    8.0763   30.0118 H   0  0  0  0  0  0
   -4.8766    5.9801   30.6527 H   0  0  0  0  0  0
   -8.1486    3.0950   30.2105 H   0  0  0  0  0  0
   -4.9356   -0.2404   29.3571 H   0  0  0  0  0  0
   -1.8850   -3.1521   31.3293 H   0  0  0  0  0  0
   -1.0141   -1.8952   33.2413 H   0  0  0  0  0  0
   -1.6561    0.4758   33.5583 H   0  0  0  0  0  0
   -3.1066    1.5691   31.9364 H   0  0  0  0  0  0
   -1.7192   -2.9640   29.0490 H   0  0  0  0  0  0
   -2.0160   -3.6431   26.8069 H   0  0  0  0  0  0
   -3.7310   -3.2841   26.8878 H   0  0  0  0  0  0
   -3.0972   -4.7350   27.6862 H   0  0  0  0  0  0
   -0.1136    2.7570   31.0575 H   0  0  0  0  0  0
    1.3861    7.3629   29.6027 H   0  0  0  0  0  0
    1.6126    6.7571   31.2167 H   0  0  0  0  0  0
    2.0755    2.7690   31.7021 H   0  0  0  0  0  0
    1.5200    4.3338   32.1344 H   0  0  0  0  0  0
    2.1212    5.1227   28.7074 H   0  0  0  0  0  0
    3.3528    5.9570   29.4080 H   0  0  0  0  0  0
    4.1469    2.7417   30.6767 H   0  0  0  0  0  0
    3.3620    2.9305   29.1059 H   0  0  0  0  0  0
    4.6555    4.0239   29.5910 H   0  0  0  0  0  0
   -0.4942    2.7570   28.7439 H   0  0  0  0  0  0
    0.6231    3.9624   28.3382 H   0  0  0  0  0  0
    1.2152    2.3864   28.8662 H   0  0  0  0  0  0
  1 25  2  0  0  0
  1  2  1  0  0  0
  1 33  1  0  0  0
  2  3  2  0  0  0
  2  5  1  0  0  0
  3  4  1  0  0  0
  3 34  1  0  0  0
  4 24  2  0  0  0
  4 35  1  0  0  0
  5  6  1  0  0  0
  5 36  1  0  0  0
  6  7  2  0  0  0
  6 11  1  0  0  0
  7  8  1  0  0  0
  8  9  2  0  0  0
  8 13  1  0  0  0
  9 10  1  0  0  0
  9 12  1  0  0  0
 10 11  2  0  0  0
 10 37  1  0  0  0
 13 14  1  0  0  0
 13 38  1  0  0  0
 14 15  2  0  0  0
 14 19  1  0  0  0
 15 16  1  0  0  0
 15 20  1  0  0  0
 16 17  2  0  0  0
 16 39  1  0  0  0
 17 18  1  0  0  0
 17 40  1  0  0  0
 18 19  2  0  0  0
 18 41  1  0  0  0
 19 42  1  0  0  0
 20 21  1  0  0  0
 20 23  2  0  0  0
 21 22  1  0  0  0
 21 43  1  0  0  0
 22 44  1  0  0  0
 22 45  1  0  0  0
 22 46  1  0  0  0
 24 25  1  0  0  0
 24 27  1  0  0  0
 25 26  1  0  0  0
 26 28  1  0  0  0
 26 32  1  0  0  0
 26 47  1  0  0  0
 27 29  1  0  0  0
 27 48  1  0  0  0
 27 49  1  0  0  0
 28 30  1  0  0  0
 28 50  1  0  0  0
 28 51  1  0  0  0
 29 30  1  0  0  0
 29 52  1  0  0  0
 29 53  1  0  0  0
 30 31  1  0  0  0
 31 54  1  0  0  0
 31 55  1  0  0  0
 31 56  1  0  0  0
 32 57  1  0  0  0
 32 58  1  0  0  0
 32 59  1  0  0  0
M  END
> <s_m_entry_id>
10356

> <s_m_entry_name>
dock_pv.425

> <s_m_Source_Path>
/home/csk/Desktop/cluster/DUD-E-result/met

> <s_m_Source_File>
dock_pv.maegz

> <i_m_Source_File_Index>
425

> <chembl_id>
CHEMBL3263971

> <chembl_pref_name>
None

> <i_lp_mmshare_version>
53161

> <i_f3d_flags>
0

> <r_lp_tautomer_probability>
0.999999624730965

> <s_lp_Force_Field>
OPLS_2005

> <r_lp_Energy>
34.49697

> <b_lp_Chiralities_Consistent>
1

> <s_lp_Variant>
CHEMBL3717_lig1679-1

> <s_i_glide_gridfile>
glide-grid_3lq8

> <i_i_glide_lignum>
1934

> <i_i_glide_rotatable_bonds>
6

> <r_i_docking_score>
-7.37036129274167

> <r_i_glide_ligand_efficiency>
-0.230323790398177

> <r_i_glide_ligand_efficiency_sa>
-0.731232453497986

> <r_i_glide_ligand_efficiency_ln>
-1.65042480190576

> <r_i_glide_gscore>
-7.37036129274167

> <r_i_glide_lipo>
-4.3841141827886

> <r_i_glide_hbond>
0

> <r_i_glide_metal>
0

> <r_i_glide_rewards>
-1.31101205480612

> <r_i_glide_evdw>
-42.2197265625

> <r_i_glide_ecoul>
0.0278840232640505

> <r_i_glide_erotb>
0.493028361048768

> <r_i_glide_esite>
-0.0614596915603244

> <r_i_glide_emodel>
-50.4185455780712

> <r_i_glide_energy>
-42.1918425392359

> <r_i_glide_einternal>
10.9300889968872

> <i_i_glide_confnum>
31

> <i_i_glide_posenum>
342

> <r_i_glide_eff_state_penalty>
0

> <s_user_duplicate_titles>
CHEMBL3717_lig1679

> <s_m_subgroup_title>
dock_pv

> <s_m_subgroupid>
dock_pv

> <b_m_subgroup_collapsed>
1

$$$$
CHEMBL3717_lig533
                    3D
 Schrodinger Suite 2021-1.
 45 48  0  0  1  0            999 V2000
    0.9102    5.9566   30.6099 C   0  0  0  0  0  0
    1.2093    4.6259   30.8883 C   0  0  0  0  0  0
    0.1508    3.7266   31.0081 C   0  0  0  0  0  0
   -0.3522    6.4318   30.4818 N   0  0  0  0  0  0
   -1.3910    5.5613   30.6080 C   0  0  0  0  0  0
   -1.1822    4.1691   30.8275 C   0  0  0  0  0  0
   -2.2929    3.2896   30.8240 C   0  0  0  0  0  0
   -3.5910    3.7816   30.6080 C   0  0  0  0  0  0
   -3.7822    5.1551   30.4616 C   0  0  0  0  0  0
   -2.7103    6.0441   30.4613 C   0  0  0  0  0  0
   -4.7376    3.0086   30.5629 O   0  0  0  0  0  0
   -4.6929    1.5797   30.4712 C   0  0  1  0  0  0
   -5.9977    0.9562   31.0076 C   0  0  0  0  0  0
   -4.4540    1.1573   29.0103 C   0  0  0  0  0  0
   -7.2624    1.5312   30.7428 C   0  0  0  0  0  0
   -8.4247    0.9292   31.2238 C   0  0  0  0  0  0
   -8.3604   -0.2516   31.9536 C   0  0  0  0  0  0
   -7.1291   -0.8435   32.2080 C   0  0  0  0  0  0
   -5.9503   -0.2487   31.7466 C   0  0  0  0  0  0
   -4.4527   -1.0505   32.1043 Cl  0  0  0  0  0  0
   -7.0881   -2.0018   32.9080 F   0  0  0  0  0  0
   -7.4715    2.9743   29.8080 Cl  0  0  0  0  0  0
    4.9937    4.3575   29.9467 C   0  0  0  0  0  0
    5.5705    4.7570   28.8194 N   0  0  0  0  0  0
    5.6130    4.3568   31.0080 O   0  0  0  0  0  0
    2.6521    4.1725   31.0536 C   0  0  2  0  0  0
    3.5316    3.8905   29.8429 C   0  0  2  0  0  0
    3.1060    2.7592   30.7596 C   0  0  0  0  0  0
    1.6962    6.6866   30.4990 H   0  0  0  0  0  0
    0.3400    2.6917   31.2238 H   0  0  0  0  0  0
   -2.0938    2.2403   30.9657 H   0  0  0  0  0  0
   -4.7841    5.5341   30.3174 H   0  0  0  0  0  0
   -2.8741    7.1006   30.3105 H   0  0  0  0  0  0
   -3.8783    1.2187   31.0902 H   0  0  0  0  0  0
   -4.4031    0.0718   28.9159 H   0  0  0  0  0  0
   -5.2561    1.5044   28.3604 H   0  0  0  0  0  0
   -3.5199    1.5569   28.6229 H   0  0  0  0  0  0
   -9.3876    1.3753   31.0208 H   0  0  0  0  0  0
   -9.2654   -0.7150   32.3182 H   0  0  0  0  0  0
    6.5327    5.0619   28.8439 H   0  0  0  0  0  0
    5.0725    4.7163   27.9459 H   0  0  0  0  0  0
    3.1272    4.6332   31.9222 H   0  0  0  0  0  0
    3.0889    3.9441   28.8473 H   0  0  0  0  0  0
    2.3957    2.0317   30.3686 H   0  0  0  0  0  0
    3.8399    2.2862   31.4133 H   0  0  0  0  0  0
  1  4  2  0  0  0
  1  2  1  0  0  0
  1 29  1  0  0  0
  2  3  2  0  0  0
  2 26  1  0  0  0
  3  6  1  0  0  0
  3 30  1  0  0  0
  4  5  1  0  0  0
  5 10  2  0  0  0
  5  6  1  0  0  0
  6  7  2  0  0  0
  7  8  1  0  0  0
  7 31  1  0  0  0
  8  9  2  0  0  0
  8 11  1  0  0  0
  9 10  1  0  0  0
  9 32  1  0  0  0
 10 33  1  0  0  0
 11 12  1  0  0  0
 12 14  1  0  0  0
 12 13  1  0  0  0
 12 34  1  0  0  0
 13 15  2  0  0  0
 13 19  1  0  0  0
 14 35  1  0  0  0
 14 36  1  0  0  0
 14 37  1  0  0  0
 15 16  1  0  0  0
 15 22  1  0  0  0
 16 17  2  0  0  0
 16 38  1  0  0  0
 17 18  1  0  0  0
 17 39  1  0  0  0
 18 19  2  0  0  0
 18 21  1  0  0  0
 19 20  1  0  0  0
 23 27  1  0  0  0
 23 24  1  0  0  0
 23 25  2  0  0  0
 24 40  1  0  0  0
 24 41  1  0  0  0
 26 27  1  0  0  0
 26 28  1  0  0  0
 26 42  1  0  0  0
 27 28  1  0  0  0
 27 43  1  0  0  0
 28 44  1  0  0  0
 28 45  1  0  0  0
M  END
> <s_m_entry_id>
10357

> <s_m_entry_name>
dock_pv.426

> <s_m_Source_Path>
/home/csk/Desktop/cluster/DUD-E-result/met

> <s_m_Source_File>
dock_pv.maegz

> <i_m_Source_File_Index>
426

> <chembl_id>
CHEMBL602472

> <chembl_pref_name>
None

> <i_lp_mmshare_version>
53161

> <i_f3d_flags>
0

> <r_lp_tautomer_probability>
1

> <s_lp_Force_Field>
OPLS_2005

> <r_lp_Energy>
21.83886

> <b_lp_Chiralities_Consistent>
1

> <s_lp_Variant>
CHEMBL3717_lig533-3

> <s_i_glide_gridfile>
glide-grid_3lq8

> <i_i_glide_lignum>
577

> <i_i_glide_rotatable_bonds>
5

> <r_i_docking_score>
-7.37009159180775

> <r_i_glide_ligand_efficiency>
-0.263217556850277

> <r_i_glide_ligand_efficiency_sa>
-0.799283529447814

> <r_i_glide_ligand_efficiency_ln>
-1.70123353468133

> <r_i_glide_gscore>
-7.37009159180775

> <r_i_glide_lipo>
-4.01605600771603

> <r_i_glide_hbond>
0

> <r_i_glide_metal>
0

> <r_i_glide_rewards>
-1.53515352669847

> <r_i_glide_evdw>
-43.1736068725586

> <r_i_glide_ecoul>
-0.698397874832153

> <r_i_glide_erotb>
0.450120108603872

> <r_i_glide_esite>
-0.00556214114437607

> <r_i_glide_emodel>
-61.7177018739637

> <r_i_glide_energy>
-43.8720047473907

> <r_i_glide_einternal>
3.70726203918457

> <i_i_glide_confnum>
3

> <i_i_glide_posenum>
74

> <r_i_glide_eff_state_penalty>
0

> <s_user_duplicate_titles>
CHEMBL3717_lig533

> <s_m_subgroup_title>
dock_pv

> <s_m_subgroupid>
dock_pv

> <b_m_subgroup_collapsed>
1

$$$$
CHEMBL3717_lig94 
                    3D
 Schrodinger Suite 2021-1.
 45 49  0  0  1  0            999 V2000
   -5.3031   -1.0042   30.2300 C   0  0  0  0  0  0
   -6.3306   -1.7145   29.6054 C   0  0  0  0  0  0
   -6.8791   -2.8700   30.1688 C   0  0  0  0  0  0
   -4.7722   -1.4154   31.4544 C   0  0  0  0  0  0
   -5.2936   -2.5769   32.0403 C   0  0  0  0  0  0
   -6.3342   -3.2852   31.3863 C   0  0  0  0  0  0
   -6.5788   -4.3503   32.2183 N   0  0  0  0  0  0
   -5.7194   -4.2472   33.2843 C   0  0  0  0  0  0
   -4.9389   -3.1914   33.2129 N   0  0  0  0  0  0
   -5.7788   -5.2165   34.2670 N   0  0  0  0  0  0
   -4.9832   -5.2398   35.4031 C   0  0  0  0  0  0
   -5.3567   -6.2938   36.1502 O   0  0  0  0  0  0
   -4.0949   -4.4433   35.7130 O   0  0  0  0  0  0
   -4.7337   -6.5577   37.3981 C   0  0  0  0  0  0
   -4.5953    0.3827   29.4086 S   0  0  0  0  0  0
   -5.6978    1.6758   29.8803 C   0  0  0  0  0  0
   -7.0169    1.6269   29.9064 N   0  0  0  0  0  0
   -7.5175    2.8804   30.2400 N   0  0  0  0  0  0
   -5.2809    2.9422   30.2080 N   0  0  0  0  0  0
   -6.4457    3.6878   30.4078 C   0  0  0  0  0  0
   -6.2826    5.0516   30.7069 C   0  0  0  0  0  0
   -4.9771    5.5563   30.7895 C   0  0  0  0  0  0
   -3.8800    4.7093   30.5709 C   0  0  0  0  0  0
   -4.0242    3.3900   30.2735 N   0  0  0  0  0  0
   -2.4611    5.1763   30.6128 C   0  0  0  0  0  0
   -1.4299    4.3063   31.0080 C   0  0  0  0  0  0
   -0.0986    4.7034   30.9500 C   0  0  0  0  0  0
    0.2140    5.9784   30.4974 C   0  0  0  0  0  0
   -0.7900    6.8696   30.1352 C   0  0  0  0  0  0
   -2.1215    6.4718   30.2080 C   0  0  0  0  0  0
    1.5044    6.3564   30.4077 F   0  0  0  0  0  0
   -6.6962   -1.3712   28.6468 H   0  0  0  0  0  0
   -7.6657   -3.4180   29.6715 H   0  0  0  0  0  0
   -3.9700   -0.8693   31.9258 H   0  0  0  0  0  0
   -7.2397   -5.1015   32.1016 H   0  0  0  0  0  0
   -6.4503   -5.9597   34.1678 H   0  0  0  0  0  0
   -5.2423   -7.3821   37.8983 H   0  0  0  0  0  0
   -4.7713   -5.6875   38.0538 H   0  0  0  0  0  0
   -3.6931   -6.8407   37.2562 H   0  0  0  0  0  0
   -7.1395    5.6948   30.8400 H   0  0  0  0  0  0
   -4.8297    6.6029   31.0080 H   0  0  0  0  0  0
   -1.6546    3.3022   31.3388 H   0  0  0  0  0  0
    0.6889    4.0213   31.2339 H   0  0  0  0  0  0
   -0.5337    7.8626   29.7941 H   0  0  0  0  0  0
   -2.8873    7.1596   29.8913 H   0  0  0  0  0  0
  1  2  2  0  0  0
  1  4  1  0  0  0
  1 15  1  0  0  0
  2  3  1  0  0  0
  2 32  1  0  0  0
  3  6  2  0  0  0
  3 33  1  0  0  0
  4  5  2  0  0  0
  4 34  1  0  0  0
  5  6  1  0  0  0
  5  9  1  0  0  0
  6  7  1  0  0  0
  7  8  1  0  0  0
  7 35  1  0  0  0
  8  9  2  0  0  0
  8 10  1  0  0  0
 10 11  1  0  0  0
 10 36  1  0  0  0
 11 12  1  0  0  0
 11 13  2  0  0  0
 12 14  1  0  0  0
 14 37  1  0  0  0
 14 38  1  0  0  0
 14 39  1  0  0  0
 15 16  1  0  0  0
 16 17  2  0  0  0
 16 19  1  0  0  0
 17 18  1  0  0  0
 18 20  2  0  0  0
 19 20  1  0  0  0
 19 24  1  0  0  0
 20 21  1  0  0  0
 21 22  2  0  0  0
 21 40  1  0  0  0
 22 23  1  0  0  0
 22 41  1  0  0  0
 23 24  2  0  0  0
 23 25  1  0  0  0
 25 26  2  0  0  0
 25 30  1  0  0  0
 26 27  1  0  0  0
 26 42  1  0  0  0
 27 28  2  0  0  0
 27 43  1  0  0  0
 28 29  1  0  0  0
 28 31  1  0  0  0
 29 30  2  0  0  0
 29 44  1  0  0  0
 30 45  1  0  0  0
M  END
> <s_m_entry_id>
10358

> <s_m_entry_name>
dock_pv.427

> <s_m_Source_Path>
/home/csk/Desktop/cluster/DUD-E-result/met

> <s_m_Source_File>
dock_pv.maegz

> <i_m_Source_File_Index>
427

> <chembl_id>
CHEMBL4453878

> <chembl_pref_name>
None

> <i_lp_mmshare_version>
53161

> <i_f3d_flags>
0

> <r_lp_tautomer_probability>
1

> <s_lp_Force_Field>
OPLS_2005

> <r_lp_Energy>
22.143004

> <b_lp_Chiralities_Consistent>
1

> <s_lp_Variant>
CHEMBL3717_lig94 -1

> <s_i_glide_gridfile>
glide-grid_3lq8

> <i_i_glide_lignum>
99

> <i_i_glide_rotatable_bonds>
6

> <r_i_docking_score>
-7.36883945384781

> <r_i_glide_ligand_efficiency>
-0.23770449851122

> <r_i_glide_ligand_efficiency_sa>
-0.746720311754802

> <r_i_glide_ligand_efficiency_ln>
-1.66189912465105

> <r_i_glide_gscore>
-7.36883945384781

> <r_i_glide_lipo>
-2.65432366146431

> <r_i_glide_hbond>
-0.32

> <r_i_glide_metal>
0

> <r_i_glide_rewards>
-2.2118576622427

> <r_i_glide_evdw>
-41.5987892150879

> <r_i_glide_ecoul>
-3.81781244277954

> <r_i_glide_erotb>
0.52541869588183

> <r_i_glide_esite>
-0.0554654988512993

> <r_i_glide_emodel>
-63.4995350849551

> <r_i_glide_energy>
-45.4166016578674

> <r_i_glide_einternal>
1.36650168895721

> <i_i_glide_confnum>
3

> <i_i_glide_posenum>
3

> <r_i_glide_eff_state_penalty>
0

> <s_user_duplicate_titles>
CHEMBL3717_lig94 

> <s_m_subgroup_title>
dock_pv

> <s_m_subgroupid>
dock_pv

> <b_m_subgroup_collapsed>
1

$$$$
CHEMBL3717_lig1031
                    3D
 Schrodinger Suite 2021-1.
 35 37  0  0  1  0            999 V2000
   -7.7943    4.1491   30.2873 C   0  0  0  0  0  0
   -7.8953    2.7573   30.2080 C   0  0  0  0  0  0
   -6.7460    1.9646   30.2585 C   0  0  0  0  0  0
   -5.5067    2.5897   30.3911 C   0  0  0  0  0  0
   -5.3921    3.9648   30.4713 C   0  0  0  0  0  0
   -6.5429    4.7570   30.4158 C   0  0  0  0  0  0
   -3.9789    4.2743   30.5798 C   0  0  0  0  0  0
   -3.3006    2.9594   30.6080 C   0  0  0  0  0  0
   -4.2553    2.0298   30.4699 N   0  0  0  0  0  0
   -2.0941    2.7570   30.7308 O   0  0  0  0  0  0
   -3.4463    5.4427   30.6321 N   0  0  0  0  0  0
   -2.0904    5.5244   30.6080 N   0  0  0  0  0  0
   -1.4635    6.6449   30.2080 C   0  0  0  0  0  0
   -0.0121    6.5609   29.7060 C   0  0  0  0  0  0
    0.7782    5.3399   30.1704 C   0  0  0  0  0  0
    1.1278    5.2117   31.5158 C   0  0  0  0  0  0
    1.9073    4.1408   31.9370 C   0  0  0  0  0  0
    2.3263    3.1913   31.0118 C   0  0  0  0  0  0
    1.9613    3.2941   29.6707 C   0  0  0  0  0  0
    1.1839    4.3698   29.2498 C   0  0  0  0  0  0
    3.1060    2.1504   31.4292 O   0  0  0  0  0  0
   -2.0118    7.7413   30.2080 O   0  0  0  0  0  0
   -8.9111    4.9074   30.2422 F   0  0  0  0  0  0
   -8.8667    2.2963   30.1074 H   0  0  0  0  0  0
   -6.8312    0.8892   30.1974 H   0  0  0  0  0  0
   -6.4823    5.8355   30.4587 H   0  0  0  0  0  0
   -4.0633    1.0392   30.4540 H   0  0  0  0  0  0
   -1.6125    4.6303   30.6164 H   0  0  0  0  0  0
    0.5138    7.4532   30.0498 H   0  0  0  0  0  0
   -0.0257    6.6200   28.6169 H   0  0  0  0  0  0
    0.8188    5.9570   32.2303 H   0  0  0  0  0  0
    2.1901    4.0501   32.9754 H   0  0  0  0  0  0
    2.2754    2.5486   28.9545 H   0  0  0  0  0  0
    0.9118    4.4505   28.2080 H   0  0  0  0  0  0
    3.2580    1.5186   30.7244 H   0  0  0  0  0  0
  1  2  1  0  0  0
  1  6  2  0  0  0
  1 23  1  0  0  0
  2  3  2  0  0  0
  2 24  1  0  0  0
  3  4  1  0  0  0
  3 25  1  0  0  0
  4  5  2  0  0  0
  4  9  1  0  0  0
  5  6  1  0  0  0
  5  7  1  0  0  0
  6 26  1  0  0  0
  7  8  1  0  0  0
  7 11  2  0  0  0
  8  9  1  0  0  0
  8 10  2  0  0  0
  9 27  1  0  0  0
 11 12  1  0  0  0
 12 13  1  0  0  0
 12 28  1  0  0  0
 13 14  1  0  0  0
 13 22  2  0  0  0
 14 15  1  0  0  0
 14 29  1  0  0  0
 14 30  1  0  0  0
 15 16  1  0  0  0
 15 20  2  0  0  0
 16 17  2  0  0  0
 16 31  1  0  0  0
 17 18  1  0  0  0
 17 32  1  0  0  0
 18 19  2  0  0  0
 18 21  1  0  0  0
 19 20  1  0  0  0
 19 33  1  0  0  0
 20 34  1  0  0  0
 21 35  1  0  0  0
M  END
> <s_m_entry_id>
10359

> <s_m_entry_name>
dock_pv.428

> <s_m_Source_Path>
/home/csk/Desktop/cluster/DUD-E-result/met

> <s_m_Source_File>
dock_pv.maegz

> <i_m_Source_File_Index>
428

> <chembl_id>
CHEMBL1823264

> <chembl_pref_name>
None

> <i_lp_mmshare_version>
53161

> <i_f3d_flags>
0

> <r_lp_tautomer_probability>
0.999999999997365

> <s_lp_Force_Field>
OPLS_2005

> <r_lp_Energy>
36.763226

> <b_lp_Chiralities_Consistent>
1

> <s_lp_Variant>
CHEMBL3717_lig1031-1

> <s_i_glide_gridfile>
glide-grid_3lq8

> <i_i_glide_lignum>
1149

> <i_i_glide_rotatable_bonds>
5

> <r_i_docking_score>
-7.36757053556401

> <r_i_glide_ligand_efficiency>
-0.320329153720174

> <r_i_glide_ligand_efficiency_sa>
-0.910973501996483

> <r_i_glide_ligand_efficiency_ln>
-1.78154536093546

> <r_i_glide_gscore>
-7.36757053556401

> <r_i_glide_lipo>
-3.07286392348627

> <r_i_glide_hbond>
-0.202580278844435

> <r_i_glide_metal>
0

> <r_i_glide_rewards>
-2.46845063721455

> <r_i_glide_evdw>
-38.8244018554688

> <r_i_glide_ecoul>
-2.69811010360718

> <r_i_glide_erotb>
0.756904800026036

> <r_i_glide_esite>
-0.0346438877302803

> <r_i_glide_emodel>
-55.2830969973044

> <r_i_glide_energy>
-41.5225119590759

> <r_i_glide_einternal>
5.52112579345703

> <i_i_glide_confnum>
11

> <i_i_glide_posenum>
297

> <r_i_glide_eff_state_penalty>
0

> <s_user_duplicate_titles>
CHEMBL3717_lig1031

> <s_m_subgroup_title>
dock_pv

> <s_m_subgroupid>
dock_pv

> <b_m_subgroup_collapsed>
1

$$$$
CHEMBL3717_lig2368
                    3D
 Schrodinger Suite 2021-1.
 45 49  0  0  1  0            999 V2000
    0.7062    5.2694   30.0314 C   0  0  0  0  0  0
    0.3829    6.6119   29.7732 C   0  0  0  0  0  0
   -0.8740    7.1142   29.9455 N   0  0  0  0  0  0
   -0.2105    4.3777   30.4775 N   0  0  0  0  0  0
    2.0509    4.7067   29.8176 C   0  0  0  0  0  0
    2.3904    4.1332   28.5906 C   0  0  0  0  0  0
    3.6908    3.6913   28.3662 C   0  0  0  0  0  0
    4.6518    3.8458   29.3632 C   0  0  0  0  0  0
    4.3055    4.3540   30.6084 C   0  0  0  0  0  0
    2.9958    4.7570   30.8410 C   0  0  0  0  0  0
   -1.4379    4.9012   30.6088 N   0  0  0  0  0  0
   -1.7949    6.2367   30.3673 C   0  0  0  0  0  0
   -3.1169    6.3939   30.6079 N   0  0  0  0  0  0
   -3.6022    5.1317   30.9321 N   0  0  0  0  0  0
   -2.6074    4.2594   30.9154 C   0  0  0  0  0  0
   -2.6650    2.7595   31.1487 C   0  0  0  0  0  0
   -3.8932    2.2324   30.6488 O   0  0  0  0  0  0
   -4.1461    0.8740   30.7611 C   0  0  0  0  0  0
   -3.2930   -0.0295   31.4139 C   0  0  0  0  0  0
   -3.6291   -1.3779   31.4703 C   0  0  0  0  0  0
   -4.7588   -1.8883   30.9318 N   0  0  0  0  0  0
   -5.3432    0.3586   30.1816 C   0  0  0  0  0  0
   -5.6096   -1.0406   30.2940 C   0  0  0  0  0  0
   -6.7924   -1.5764   29.7311 C   0  0  0  0  0  0
   -7.7010   -0.7504   29.0552 C   0  0  0  0  0  0
   -7.4301    0.6108   28.9467 C   0  0  0  0  0  0
   -6.2805    1.1709   29.4978 C   0  0  0  0  0  0
   -8.8756   -1.1912   28.4777 O   0  0  0  0  0  0
   -9.2515   -2.5566   28.6221 C   0  0  0  0  0  0
    1.1233    7.3079   29.4092 H   0  0  0  0  0  0
    1.6539    4.0505   27.8038 H   0  0  0  0  0  0
    3.9595    3.2536   27.4158 H   0  0  0  0  0  0
    5.6745    3.5569   29.1745 H   0  0  0  0  0  0
    5.0493    4.4437   31.3862 H   0  0  0  0  0  0
    2.7228    5.1561   31.8059 H   0  0  0  0  0  0
   -1.8544    2.2912   30.5945 H   0  0  0  0  0  0
   -2.4942    2.5428   32.2054 H   0  0  0  0  0  0
   -2.3734    0.2898   31.8767 H   0  0  0  0  0  0
   -2.9789   -2.0886   31.9602 H   0  0  0  0  0  0
   -6.9650   -2.6368   29.8329 H   0  0  0  0  0  0
   -8.1325    1.2454   28.4266 H   0  0  0  0  0  0
   -6.0974    2.2321   29.4082 H   0  0  0  0  0  0
  -10.1835   -2.7321   28.0849 H   0  0  0  0  0  0
   -8.5023   -3.2318   28.2090 H   0  0  0  0  0  0
   -9.4184   -2.8124   29.6694 H   0  0  0  0  0  0
  1  2  1  0  0  0
  1  4  2  0  0  0
  1  5  1  0  0  0
  2  3  2  0  0  0
  2 30  1  0  0  0
  3 12  1  0  0  0
  4 11  1  0  0  0
  5  6  2  0  0  0
  5 10  1  0  0  0
  6  7  1  0  0  0
  6 31  1  0  0  0
  7  8  2  0  0  0
  7 32  1  0  0  0
  8  9  1  0  0  0
  8 33  1  0  0  0
  9 10  2  0  0  0
  9 34  1  0  0  0
 10 35  1  0  0  0
 11 12  1  0  0  0
 11 15  1  0  0  0
 12 13  2  0  0  0
 13 14  1  0  0  0
 14 15  2  0  0  0
 15 16  1  0  0  0
 16 17  1  0  0  0
 16 36  1  0  0  0
 16 37  1  0  0  0
 17 18  1  0  0  0
 18 19  2  0  0  0
 18 22  1  0  0  0
 19 20  1  0  0  0
 19 38  1  0  0  0
 20 21  2  0  0  0
 20 39  1  0  0  0
 21 23  1  0  0  0
 22 23  1  0  0  0
 22 27  2  0  0  0
 23 24  2  0  0  0
 24 25  1  0  0  0
 24 40  1  0  0  0
 25 26  2  0  0  0
 25 28  1  0  0  0
 26 27  1  0  0  0
 26 41  1  0  0  0
 27 42  1  0  0  0
 28 29  1  0  0  0
 29 43  1  0  0  0
 29 44  1  0  0  0
 29 45  1  0  0  0
M  END
> <s_m_entry_id>
10360

> <s_m_entry_name>
dock_pv.429

> <s_m_Source_Path>
/home/csk/Desktop/cluster/DUD-E-result/met

> <s_m_Source_File>
dock_pv.maegz

> <i_m_Source_File_Index>
429

> <chembl_id>
CHEMBL3797911

> <chembl_pref_name>
None

> <i_lp_mmshare_version>
53161

> <i_f3d_flags>
0

> <r_lp_tautomer_probability>
1

> <s_lp_Force_Field>
OPLS_2005

> <r_lp_Energy>
32.034929

> <b_lp_Chiralities_Consistent>
1

> <s_lp_Variant>
CHEMBL3717_lig2368-1

> <s_i_glide_gridfile>
glide-grid_3lq8

> <i_i_glide_lignum>
2692

> <i_i_glide_rotatable_bonds>
5

> <r_i_docking_score>
-7.3674506796064

> <r_i_glide_ligand_efficiency>
-0.254050023434703

> <r_i_glide_ligand_efficiency_sa>
-0.78052216068824

> <r_i_glide_ligand_efficiency_ln>
-1.68695938320011

> <r_i_glide_gscore>
-7.3674506796064

> <r_i_glide_lipo>
-3.18213290979317

> <r_i_glide_hbond>
0

> <r_i_glide_metal>
0

> <r_i_glide_rewards>
-2.44264252927761

> <r_i_glide_evdw>
-45.1752586364746

> <r_i_glide_ecoul>
-0.0682756081223488

> <r_i_glide_erotb>
0.526329032506459

> <r_i_glide_esite>
0

> <r_i_glide_emodel>
-61.2560533604698

> <r_i_glide_energy>
-45.243534244597

> <r_i_glide_einternal>
4.31467628479004

> <i_i_glide_confnum>
2

> <i_i_glide_posenum>
33

> <r_i_glide_eff_state_penalty>
0

> <s_user_duplicate_titles>
CHEMBL3717_lig2368

> <s_m_subgroup_title>
dock_pv

> <s_m_subgroupid>
dock_pv

> <b_m_subgroup_collapsed>
1

$$$$
CHEMBL3717_lig3360 
                    3D
 Schrodinger Suite 2021-1.
 48 52  0  0  1  0            999 V2000
   -3.4251    5.2547   30.3028 C   0  0  0  0  0  0
   -2.9159    3.9821   30.6080 C   0  0  0  0  0  0
   -1.5991    3.7773   30.9145 N   0  0  0  0  0  0
   -2.6324    6.3570   30.2080 N   0  0  0  0  0  0
   -1.3254    6.1457   30.3942 C   0  0  0  0  0  0
   -0.8367    4.8700   30.7834 C   0  0  0  0  0  0
    0.5261    5.0394   30.9345 N   0  0  0  0  0  0
    0.7562    6.3544   30.5700 C   0  0  0  0  0  0
   -0.3049    7.0332   30.2080 N   0  0  0  0  0  0
   -3.7807    2.7665   30.6080 C   0  0  0  0  0  0
   -3.4550    1.4728   30.9957 C   0  0  0  0  0  0
   -4.5906    0.7228   30.8480 N   0  0  0  0  0  0
   -5.6072    1.4326   30.3432 N   0  0  0  0  0  0
   -5.1242    2.6462   30.2080 C   0  0  0  0  0  0
    1.5326    4.0354   31.3175 C   0  0  2  0  0  0
    1.9298    4.1691   32.7902 C   0  0  0  0  0  0
    2.7501    4.0645   30.4140 C   0  0  0  0  0  0
    2.5854    3.7757   29.0652 C   0  0  0  0  0  0
    3.6632    3.8519   28.2080 C   0  0  0  0  0  0
    4.0256    4.3427   30.9201 C   0  0  0  0  0  0
    5.1406    4.3570   30.0827 C   0  0  0  0  0  0
    4.9429    4.2238   28.6818 C   0  0  0  0  0  0
    5.9735    4.3570   27.8080 N   0  0  0  0  0  0
    7.2282    4.3570   28.3193 C   0  0  0  0  0  0
    7.5148    4.3570   29.6861 C   0  0  0  0  0  0
    6.4594    4.4462   30.5828 C   0  0  0  0  0  0
    1.3741    3.4289   28.5762 F   0  0  0  0  0  0
   -4.7463   -0.7072   31.0921 C   0  0  0  0  0  0
   -4.8587   -1.5185   29.7878 C   0  0  0  0  0  0
   -3.6939   -1.3470   29.0080 O   0  0  0  0  0  0
   -4.4725    5.4104   30.0922 H   0  0  0  0  0  0
    1.7661    6.7293   30.5670 H   0  0  0  0  0  0
   -2.5414    1.0313   31.3639 H   0  0  0  0  0  0
   -5.7448    3.4433   29.8269 H   0  0  0  0  0  0
    1.0744    3.0528   31.1834 H   0  0  0  0  0  0
    2.6844    3.4327   33.0696 H   0  0  0  0  0  0
    2.2917    5.1570   33.0550 H   0  0  0  0  0  0
    1.1060    3.9571   33.4080 H   0  0  0  0  0  0
    3.5060    3.5683   27.1794 H   0  0  0  0  0  0
    4.2095    4.5177   31.9657 H   0  0  0  0  0  0
    8.0321    4.3637   27.5978 H   0  0  0  0  0  0
    8.5397    4.3777   30.0279 H   0  0  0  0  0  0
    6.6366    4.5297   31.6447 H   0  0  0  0  0  0
   -3.9550   -1.0879   31.7386 H   0  0  0  0  0  0
   -5.6623   -0.8354   31.6708 H   0  0  0  0  0  0
   -5.0457   -2.5762   29.9787 H   0  0  0  0  0  0
   -5.6849   -1.1417   29.1823 H   0  0  0  0  0  0
   -3.9631   -1.2987   28.0718 H   0  0  0  0  0  0
  1  2  2  0  0  0
  1  4  1  0  0  0
  1 31  1  0  0  0
  2  3  1  0  0  0
  2 10  1  0  0  0
  3  6  2  0  0  0
  4  5  2  0  0  0
  5  6  1  0  0  0
  5  9  1  0  0  0
  6  7  1  0  0  0
  7  8  1  0  0  0
  7 15  1  0  0  0
  8  9  2  0  0  0
  8 32  1  0  0  0
 10 11  2  0  0  0
 10 14  1  0  0  0
 11 12  1  0  0  0
 11 33  1  0  0  0
 12 13  1  0  0  0
 12 28  1  0  0  0
 13 14  2  0  0  0
 14 34  1  0  0  0
 15 16  1  0  0  0
 15 17  1  0  0  0
 15 35  1  0  0  0
 16 36  1  0  0  0
 16 37  1  0  0  0
 16 38  1  0  0  0
 17 18  2  0  0  0
 17 20  1  0  0  0
 18 19  1  0  0  0
 18 27  1  0  0  0
 19 22  2  0  0  0
 19 39  1  0  0  0
 20 21  2  0  0  0
 20 40  1  0  0  0
 21 22  1  0  0  0
 21 26  1  0  0  0
 22 23  1  0  0  0
 23 24  2  0  0  0
 24 25  1  0  0  0
 24 41  1  0  0  0
 25 26  2  0  0  0
 25 42  1  0  0  0
 26 43  1  0  0  0
 28 29  1  0  0  0
 28 44  1  0  0  0
 28 45  1  0  0  0
 29 30  1  0  0  0
 29 46  1  0  0  0
 29 47  1  0  0  0
 30 48  1  0  0  0
M  END
> <s_m_entry_id>
10361

> <s_m_entry_name>
dock_pv.430

> <s_m_Source_Path>
/home/csk/Desktop/cluster/DUD-E-result/met

> <s_m_Source_File>
dock_pv.maegz

> <i_m_Source_File_Index>
430

> <chembl_id>
CHEMBL4579449

> <chembl_pref_name>
None

> <i_lp_mmshare_version>
53161

> <i_f3d_flags>
0

> <r_lp_tautomer_probability>
1

> <s_lp_Force_Field>
OPLS_2005

> <r_lp_Energy>
26.628415

> <b_lp_Chiralities_Consistent>
1

> <s_lp_Variant>
CHEMBL3717_lig3360 -1

> <s_i_glide_gridfile>
glide-grid_3lq8

> <i_i_glide_lignum>
4108

> <i_i_glide_rotatable_bonds>
6

> <r_i_docking_score>
-7.3662686429705

> <r_i_glide_ligand_efficiency>
-0.245542288099017

> <r_i_glide_ligand_efficiency_sa>
-0.762956978302563

> <r_i_glide_ligand_efficiency_ln>
-1.67369649760824

> <r_i_glide_gscore>
-7.3662686429705

> <r_i_glide_lipo>
-3.14882698130567

> <r_i_glide_hbond>
-0.314418007867366

> <r_i_glide_metal>
0

> <r_i_glide_rewards>
-2.37711672978201

> <r_i_glide_evdw>
-32.2720947265625

> <r_i_glide_ecoul>
-3.43669748306274

> <r_i_glide_erotb>
0.603202434772077

> <r_i_glide_esite>
0

> <r_i_glide_emodel>
-51.5278010842275

> <r_i_glide_energy>
-35.7087922096252

> <r_i_glide_einternal>
5.32383012771606

> <i_i_glide_confnum>
14

> <i_i_glide_posenum>
67

> <r_i_glide_eff_state_penalty>
0

> <s_user_duplicate_titles>
CHEMBL3717_lig3360 

> <s_m_subgroup_title>
dock_pv

> <s_m_subgroupid>
dock_pv

> <b_m_subgroup_collapsed>
1

$$$$
CHEMBL3717_lig1845
                    3D
 Schrodinger Suite 2021-1.
 41 45  0  0  1  0            999 V2000
    0.8396    5.7459   30.2647 C   0  0  0  0  0  0
    0.3944    6.9981   29.8527 C   0  0  0  0  0  0
   -0.9587    7.3134   29.8713 C   0  0  0  0  0  0
   -0.0673    4.7625   30.6529 C   0  0  0  0  0  0
   -1.4648    5.0285   30.6080 C   0  0  0  0  0  0
   -1.9073    6.3398   30.2472 C   0  0  0  0  0  0
   -3.2269    6.6675   30.2080 N   0  0  0  0  0  0
   -4.1064    5.6516   30.3602 C   0  0  0  0  0  0
   -3.8061    4.3590   30.6081 N   0  0  0  0  0  0
   -2.4947    4.0613   30.8034 C   0  0  0  0  0  0
   -2.1676    2.7570   31.2150 N   0  0  0  0  0  0
   -2.8995    1.5567   31.2449 C   0  0  0  0  0  0
   -3.9748    1.3259   30.3723 C   0  0  0  0  0  0
   -3.1001   -0.6818   32.2081 C   0  0  0  0  0  0
   -2.4940    0.5722   32.1559 C   0  0  0  0  0  0
   -4.1832   -0.9238   31.3604 C   0  0  0  0  0  0
   -4.6049    0.0807   30.4589 C   0  0  0  0  0  0
   -5.6649   -0.5021   29.8055 N   0  0  0  0  0  0
   -5.8408   -1.7654   30.3289 C   0  0  0  0  0  0
   -4.9554   -2.0470   31.2558 N   0  0  0  0  0  0
   -6.9131   -2.7118   29.8895 C   0  0  0  0  0  0
   -8.1530   -2.2600   29.4078 C   0  0  0  0  0  0
   -9.1347   -3.1738   29.0214 C   0  0  0  0  0  0
   -8.8929   -4.5440   29.1089 C   0  0  0  0  0  0
   -7.6660   -5.0031   29.5847 C   0  0  0  0  0  0
   -6.6833   -4.0930   29.9737 C   0  0  0  0  0  0
   -8.4225   -0.9366   29.3099 F   0  0  0  0  0  0
    1.8981    5.5287   30.2608 H   0  0  0  0  0  0
    1.1059    7.7429   29.5318 H   0  0  0  0  0  0
   -1.2935    8.2993   29.5827 H   0  0  0  0  0  0
    0.2915    3.7798   30.9222 H   0  0  0  0  0  0
   -5.1540    5.8989   30.2505 H   0  0  0  0  0  0
   -1.2394    2.6814   31.5977 H   0  0  0  0  0  0
   -4.2949    2.0629   29.6535 H   0  0  0  0  0  0
   -2.7574   -1.4406   32.8954 H   0  0  0  0  0  0
   -1.6711    0.7738   32.8257 H   0  0  0  0  0  0
   -6.2468   -0.1253   29.0723 H   0  0  0  0  0  0
  -10.0836   -2.8174   28.6494 H   0  0  0  0  0  0
   -9.6529   -5.2480   28.8028 H   0  0  0  0  0  0
   -7.4729   -6.0637   29.6526 H   0  0  0  0  0  0
   -5.7348   -4.4663   30.3385 H   0  0  0  0  0  0
  1  2  2  0  0  0
  1  4  1  0  0  0
  1 28  1  0  0  0
  2  3  1  0  0  0
  2 29  1  0  0  0
  3  6  2  0  0  0
  3 30  1  0  0  0
  4  5  2  0  0  0
  4 31  1  0  0  0
  5  6  1  0  0  0
  5 10  1  0  0  0
  6  7  1  0  0  0
  7  8  2  0  0  0
  8  9  1  0  0  0
  8 32  1  0  0  0
  9 10  2  0  0  0
 10 11  1  0  0  0
 11 12  1  0  0  0
 11 33  1  0  0  0
 12 13  2  0  0  0
 12 15  1  0  0  0
 13 17  1  0  0  0
 13 34  1  0  0  0
 14 16  1  0  0  0
 14 15  2  0  0  0
 14 35  1  0  0  0
 15 36  1  0  0  0
 16 17  2  0  0  0
 16 20  1  0  0  0
 17 18  1  0  0  0
 18 19  1  0  0  0
 18 37  1  0  0  0
 19 20  2  0  0  0
 19 21  1  0  0  0
 21 22  2  0  0  0
 21 26  1  0  0  0
 22 23  1  0  0  0
 22 27  1  0  0  0
 23 24  2  0  0  0
 23 38  1  0  0  0
 24 25  1  0  0  0
 24 39  1  0  0  0
 25 26  2  0  0  0
 25 40  1  0  0  0
 26 41  1  0  0  0
M  END
> <s_m_entry_id>
10362

> <s_m_entry_name>
dock_pv.431

> <s_m_Source_Path>
/home/csk/Desktop/cluster/DUD-E-result/met

> <s_m_Source_File>
dock_pv.maegz

> <i_m_Source_File_Index>
431

> <chembl_id>
CHEMBL3321899

> <chembl_pref_name>
None

> <i_lp_mmshare_version>
53161

> <i_f3d_flags>
0

> <r_lp_tautomer_probability>
0.999978000241998

> <s_lp_Force_Field>
OPLS_2005

> <r_lp_Energy>
22.495541

> <b_lp_Chiralities_Consistent>
1

> <s_lp_Variant>
CHEMBL3717_lig1845-1

> <s_i_glide_gridfile>
glide-grid_3lq8

> <i_i_glide_lignum>
2131

> <i_i_glide_rotatable_bonds>
3

> <r_i_docking_score>
-7.36601073848003

> <r_i_glide_ligand_efficiency>
-0.272815212536297

> <r_i_glide_ligand_efficiency_sa>
-0.818445636709738

> <r_i_glide_ligand_efficiency_ln>
-1.71468586174022

> <r_i_glide_gscore>
-7.36601073848003

> <r_i_glide_lipo>
-2.83715295853865

> <r_i_glide_hbond>
-0.26900538216186

> <r_i_glide_metal>
0

> <r_i_glide_rewards>
-2.68665803444011

> <r_i_glide_evdw>
-32.1087799072266

> <r_i_glide_ecoul>
-2.67471408843994

> <r_i_glide_erotb>
0.454199893874153

> <r_i_glide_esite>
-0.0207481485862379

> <r_i_glide_emodel>
-46.5502365643396

> <r_i_glide_energy>
-34.7834939956665

> <r_i_glide_einternal>
3.55815577507019

> <i_i_glide_confnum>
1

> <i_i_glide_posenum>
64

> <r_i_glide_eff_state_penalty>
0

> <s_user_duplicate_titles>
CHEMBL3717_lig1845

> <s_m_subgroup_title>
dock_pv

> <s_m_subgroupid>
dock_pv

> <b_m_subgroup_collapsed>
1

$$$$
CHEMBL3717_lig1094
                    3D
 Schrodinger Suite 2021-1.
 47 51  0  0  1  0            999 V2000
    0.4495    4.9551   30.1794 C   0  0  0  0  0  0
    0.3361    6.3480   30.0868 C   0  0  0  0  0  0
   -0.9118    6.9633   30.2079 C   0  0  0  0  0  0
   -0.5965    4.1406   30.4907 N   0  0  0  0  0  0
   -1.7842    4.7673   30.6080 N   0  0  0  0  0  0
   -2.0195    6.1436   30.4743 C   0  0  0  0  0  0
   -3.3393    6.3909   30.6096 N   0  0  0  0  0  0
   -3.9445    5.1562   30.7827 N   0  0  0  0  0  0
   -3.0359    4.1974   30.7220 C   0  0  0  0  0  0
   -3.2142    2.6752   30.8370 C   0  0  0  0  0  0
   -4.5337    1.9461   30.5044 C   0  0  0  0  0  0
   -6.9142    0.5638   29.8656 C   0  0  0  0  0  0
   -6.9032    1.9529   29.9332 C   0  0  0  0  0  0
   -5.7285    2.6348   30.2432 C   0  0  0  0  0  0
   -5.7464   -0.1572   30.1269 C   0  0  0  0  0  0
   -4.5577    0.5314   30.4682 C   0  0  0  0  0  0
   -3.3737   -0.3084   30.7611 C   0  0  0  0  0  0
   -3.4756   -1.6432   30.6438 C   0  0  0  0  0  0
   -4.6123   -2.3042   30.2864 N   0  0  0  0  0  0
   -5.7982   -1.6867   30.0428 C   0  0  0  0  0  0
   -6.7991   -2.3560   29.7906 O   0  0  0  0  0  0
    1.6616    4.3592   29.8722 N   0  0  0  0  0  0
    2.8612    4.6541   30.6633 C   0  0  0  0  0  0
    4.0856    4.7568   29.7343 C   0  0  0  0  0  0
    4.3047    3.4545   28.9667 C   0  0  0  0  0  0
    2.9897    2.9707   28.3218 C   0  0  0  0  0  0
    1.7950    3.0119   29.3024 C   0  0  0  0  0  0
    1.2026    6.9452   29.8419 H   0  0  0  0  0  0
   -1.0225    8.0322   30.0882 H   0  0  0  0  0  0
   -2.4800    2.2181   30.1799 H   0  0  0  0  0  0
   -2.8913    2.3443   31.8185 H   0  0  0  0  0  0
   -7.8341    0.0559   29.6100 H   0  0  0  0  0  0
   -7.8092    2.5059   29.7314 H   0  0  0  0  0  0
   -5.7874    3.7074   30.2638 H   0  0  0  0  0  0
   -2.4392    0.1215   31.0776 H   0  0  0  0  0  0
   -2.6653   -2.3309   30.8426 H   0  0  0  0  0  0
   -4.6289   -3.3139   30.2271 H   0  0  0  0  0  0
    3.0018    3.8586   31.3983 H   0  0  0  0  0  0
    2.7297    5.5611   31.2364 H   0  0  0  0  0  0
    4.9764    5.0121   30.3092 H   0  0  0  0  0  0
    3.9441    5.5587   29.0174 H   0  0  0  0  0  0
    5.0742    3.5877   28.2064 H   0  0  0  0  0  0
    4.6890    2.7231   29.6720 H   0  0  0  0  0  0
    2.7501    3.5643   27.4382 H   0  0  0  0  0  0
    3.1099    1.9556   27.9456 H   0  0  0  0  0  0
    1.9054    2.2885   30.1078 H   0  0  0  0  0  0
    0.8911    2.7568   28.7471 H   0  0  0  0  0  0
  1  2  1  0  0  0
  1  4  2  0  0  0
  1 22  1  0  0  0
  2  3  2  0  0  0
  2 28  1  0  0  0
  3  6  1  0  0  0
  3 29  1  0  0  0
  4  5  1  0  0  0
  5  9  1  0  0  0
  5  6  1  0  0  0
  6  7  2  0  0  0
  7  8  1  0  0  0
  8  9  2  0  0  0
  9 10  1  0  0  0
 10 11  1  0  0  0
 10 30  1  0  0  0
 10 31  1  0  0  0
 11 14  1  0  0  0
 11 16  2  0  0  0
 12 13  1  0  0  0
 12 15  2  0  0  0
 12 32  1  0  0  0
 13 14  2  0  0  0
 13 33  1  0  0  0
 14 34  1  0  0  0
 15 16  1  0  0  0
 15 20  1  0  0  0
 16 17  1  0  0  0
 17 18  2  0  0  0
 17 35  1  0  0  0
 18 19  1  0  0  0
 18 36  1  0  0  0
 19 20  1  0  0  0
 19 37  1  0  0  0
 20 21  2  0  0  0
 22 23  1  0  0  0
 22 27  1  0  0  0
 23 24  1  0  0  0
 23 38  1  0  0  0
 23 39  1  0  0  0
 24 25  1  0  0  0
 24 40  1  0  0  0
 24 41  1  0  0  0
 25 26  1  0  0  0
 25 42  1  0  0  0
 25 43  1  0  0  0
 26 27  1  0  0  0
 26 44  1  0  0  0
 26 45  1  0  0  0
 27 46  1  0  0  0
 27 47  1  0  0  0
M  END
> <s_m_entry_id>
10363

> <s_m_entry_name>
dock_pv.432

> <s_m_Source_Path>
/home/csk/Desktop/cluster/DUD-E-result/met

> <s_m_Source_File>
dock_pv.maegz

> <i_m_Source_File_Index>
432

> <chembl_id>
CHEMBL1922409

> <chembl_pref_name>
None

> <i_lp_mmshare_version>
53161

> <i_f3d_flags>
0

> <r_lp_tautomer_probability>
1

> <s_lp_Force_Field>
OPLS_2005

> <r_lp_Energy>
35.289514

> <b_lp_Chiralities_Consistent>
1

> <s_lp_Variant>
CHEMBL3717_lig1094-1

> <s_i_glide_gridfile>
glide-grid_3lq8

> <i_i_glide_lignum>
1248

> <i_i_glide_rotatable_bonds>
3

> <r_i_docking_score>
-7.364932094954

> <r_i_glide_ligand_efficiency>
-0.272775262776074

> <r_i_glide_ligand_efficiency_sa>
-0.818325787429199

> <r_i_glide_ligand_efficiency_ln>
-1.71443477131019

> <r_i_glide_gscore>
-7.364932094954

> <r_i_glide_lipo>
-3.06194714587048

> <r_i_glide_hbond>
0

> <r_i_glide_metal>
0

> <r_i_glide_rewards>
-2.33382523906751

> <r_i_glide_evdw>
-41.8534812927246

> <r_i_glide_ecoul>
-1.92008399963379

> <r_i_glide_erotb>
0.442935616043888

> <r_i_glide_esite>
-0.0314086614786015

> <r_i_glide_emodel>
-57.3538232481718

> <r_i_glide_energy>
-43.7735652923584

> <r_i_glide_einternal>
5.14940500259399

> <i_i_glide_confnum>
20

> <i_i_glide_posenum>
55

> <r_i_glide_eff_state_penalty>
0

> <s_user_duplicate_titles>
CHEMBL3717_lig1094

> <s_m_subgroup_title>
dock_pv

> <s_m_subgroupid>
dock_pv

> <b_m_subgroup_collapsed>
1

$$$$
CHEMBL3717_lig1200
                    3D
 Schrodinger Suite 2021-1.
 49 53  0  0  1  0            999 V2000
   -5.9674    5.1585   30.6545 N   0  0  0  0  0  0
   -4.7097    5.6699   30.6541 C   0  0  0  0  0  0
   -3.5634    4.8763   30.6078 C   0  0  0  0  0  0
   -3.7443    3.4948   30.5407 C   0  0  0  0  0  0
   -5.0257    2.9336   30.4821 C   0  0  0  0  0  0
   -6.1183    3.8156   30.5652 C   0  0  0  0  0  0
   -2.1846    5.4329   30.6096 C   0  0  0  0  0  0
   -1.0106    4.7810   30.9615 C   0  0  0  0  0  0
    0.0156    5.6590   30.7310 N   0  0  0  0  0  0
   -0.4318    6.8106   30.2081 N   0  0  0  0  0  0
   -1.7377    6.6998   30.2077 C   0  0  0  0  0  0
    1.4615    5.4235   30.7621 C   0  0  0  0  0  0
    1.9677    4.4455   31.8424 C   0  0  0  0  0  0
    1.9248    2.9648   31.4092 C   0  0  0  0  0  0
    2.5180    2.7574   30.0893 N   0  0  2  0  0  0
    1.8715    3.5560   29.0506 C   0  0  0  0  0  0
    2.0105    5.0485   29.3786 C   0  0  0  0  0  0
   -5.1087    1.4502   30.3144 C   0  0  0  0  0  0
   -3.9728    0.8225   29.8834 O   0  0  0  0  0  0
   -6.1497    0.6625   30.5108 N   0  0  0  0  0  0
   -7.4330    3.3657   30.5218 N   0  0  0  0  0  0
   -5.6762   -0.5814   30.1943 C   0  0  0  0  0  0
   -4.3310   -0.4790   29.8063 C   0  0  0  0  0  0
   -3.5522   -1.5647   29.4103 C   0  0  0  0  0  0
   -4.1948   -2.8018   29.4074 C   0  0  0  0  0  0
   -5.5290   -2.9434   29.8091 C   0  0  0  0  0  0
   -6.2952   -1.8406   30.2031 C   0  0  0  0  0  0
   -6.0949   -4.2119   29.8309 N   0  0  0  0  0  0
   -4.6368    6.7458   30.6931 H   0  0  0  0  0  0
   -2.8739    2.8561   30.4960 H   0  0  0  0  0  0
   -0.8265    3.7801   31.3140 H   0  0  0  0  0  0
   -2.3498    7.5134   29.8568 H   0  0  0  0  0  0
    1.8504    6.4108   31.0087 H   0  0  0  0  0  0
    1.4191    4.5925   32.7732 H   0  0  0  0  0  0
    2.9861    4.7171   32.1234 H   0  0  0  0  0  0
    0.9066    2.5819   31.4035 H   0  0  0  0  0  0
    2.4812    2.3615   32.1281 H   0  0  0  0  0  0
    2.4274    1.7801   29.8387 H   0  0  0  0  0  0
    0.8186    3.2742   28.9783 H   0  0  0  0  0  0
    2.3340    3.3327   28.0883 H   0  0  0  0  0  0
    3.0547    5.3514   29.2912 H   0  0  0  0  0  0
    1.5071    5.6362   28.6096 H   0  0  0  0  0  0
   -7.6009    2.3696   30.4592 H   0  0  0  0  0  0
   -8.1834    4.0399   30.5179 H   0  0  0  0  0  0
   -2.5263   -1.4515   29.0953 H   0  0  0  0  0  0
   -3.6339   -3.6562   29.0672 H   0  0  0  0  0  0
   -7.3262   -1.9477   30.5026 H   0  0  0  0  0  0
   -6.9958   -4.2968   30.2749 H   0  0  0  0  0  0
   -5.4119   -4.9425   30.0098 H   0  0  0  0  0  0
  1  2  2  0  0  0
  1  6  1  0  0  0
  2  3  1  0  0  0
  2 29  1  0  0  0
  3  4  2  0  0  0
  3  7  1  0  0  0
  4  5  1  0  0  0
  4 30  1  0  0  0
  5 18  1  0  0  0
  5  6  2  0  0  0
  6 21  1  0  0  0
  7 11  1  0  0  0
  7  8  2  0  0  0
  8  9  1  0  0  0
  8 31  1  0  0  0
  9 12  1  0  0  0
  9 10  1  0  0  0
 10 11  2  0  0  0
 11 32  1  0  0  0
 12 17  1  0  0  0
 12 13  1  0  0  0
 12 33  1  0  0  0
 13 14  1  0  0  0
 13 34  1  0  0  0
 13 35  1  0  0  0
 14 15  1  0  0  0
 14 36  1  0  0  0
 14 37  1  0  0  0
 15 16  1  0  0  0
 15 38  1  0  0  0
 16 17  1  0  0  0
 16 39  1  0  0  0
 16 40  1  0  0  0
 17 41  1  0  0  0
 17 42  1  0  0  0
 18 19  1  0  0  0
 18 20  2  0  0  0
 19 23  1  0  0  0
 20 22  1  0  0  0
 21 43  1  0  0  0
 21 44  1  0  0  0
 22 23  2  0  0  0
 22 27  1  0  0  0
 23 24  1  0  0  0
 24 25  2  0  0  0
 24 45  1  0  0  0
 25 26  1  0  0  0
 25 46  1  0  0  0
 26 27  2  0  0  0
 26 28  1  0  0  0
 27 47  1  0  0  0
 28 48  1  0  0  0
 28 49  1  0  0  0
M  END
> <s_m_entry_id>
10364

> <s_m_entry_name>
dock_pv.433

> <s_m_Source_Path>
/home/csk/Desktop/cluster/DUD-E-result/met

> <s_m_Source_File>
dock_pv.maegz

> <i_m_Source_File_Index>
433

> <chembl_id>
CHEMBL2032284

> <chembl_pref_name>
None

> <i_lp_mmshare_version>
53161

> <i_f3d_flags>
0

> <r_lp_tautomer_probability>
0.999999772200052

> <s_lp_Force_Field>
OPLS_2005

> <r_lp_Energy>
30.157426

> <b_lp_Chiralities_Consistent>
1

> <s_lp_Variant>
CHEMBL3717_lig1200-1

> <s_i_glide_gridfile>
glide-grid_3lq8

> <i_i_glide_lignum>
1376

> <i_i_glide_rotatable_bonds>
3

> <r_i_docking_score>
-7.36230431522719

> <r_i_glide_ligand_efficiency>
-0.262939439829543

> <r_i_glide_ligand_efficiency_sa>
-0.798439002370699

> <r_i_glide_ligand_efficiency_ln>
-1.69943600260216

> <r_i_glide_gscore>
-7.36230431522719

> <r_i_glide_lipo>
-3.46231916525516

> <r_i_glide_hbond>
-0.0989812371413449

> <r_i_glide_metal>
0

> <r_i_glide_rewards>
-1.62855789944179

> <r_i_glide_evdw>
-44.4470901489258

> <r_i_glide_ecoul>
-2.0188524723053

> <r_i_glide_erotb>
0.411792005585698

> <r_i_glide_esite>
-0.059055640682513

> <r_i_glide_emodel>
-59.0226003181266

> <r_i_glide_energy>
-46.4659426212311

> <r_i_glide_einternal>
6.35095071792603

> <i_i_glide_confnum>
1

> <i_i_glide_posenum>
73

> <r_i_glide_eff_state_penalty>
0

> <s_user_duplicate_titles>
CHEMBL3717_lig1200

> <s_m_subgroup_title>
dock_pv

> <s_m_subgroupid>
dock_pv

> <b_m_subgroup_collapsed>
1

$$$$
CHEMBL3717_lig1205
                    3D
 Schrodinger Suite 2021-1.
 51 55  0  0  1  0            999 V2000
   -6.0368    5.1563   30.6159 N   0  0  0  0  0  0
   -4.7384    5.5331   30.6745 C   0  0  0  0  0  0
   -3.6764    4.6298   30.6073 C   0  0  0  0  0  0
   -3.9875    3.2711   30.4789 C   0  0  0  0  0  0
   -5.3223    2.8431   30.4089 C   0  0  0  0  0  0
   -6.3181    3.8394   30.4803 C   0  0  0  0  0  0
   -2.2687    5.1102   30.6291 C   0  0  0  0  0  0
   -1.1193    4.4448   31.0374 C   0  0  0  0  0  0
   -0.0795    5.3311   30.8917 N   0  0  0  0  0  0
   -0.4877    6.4778   30.3253 N   0  0  0  0  0  0
   -1.7852    6.3577   30.2084 C   0  0  0  0  0  0
    1.3449    5.2112   31.2500 C   0  0  0  0  0  0
    1.7665    4.0406   32.1525 C   0  0  0  0  0  0
    1.8857    2.7080   31.3936 C   0  0  0  0  0  0
    2.7054    2.8222   30.1843 N   0  0  2  0  0  0
    2.2870    3.8965   29.2794 C   0  0  0  0  0  0
    2.2551    5.2420   30.0253 C   0  0  0  0  0  0
   -5.5988    1.3735   30.2654 C   0  0  0  0  0  0
   -4.5649    0.5552   29.8849 O   0  0  0  0  0  0
   -6.7514    0.7620   30.4604 N   0  0  0  0  0  0
   -7.6739    3.5442   30.3905 N   0  0  0  0  0  0
   -6.4815   -0.5459   30.1798 C   0  0  0  0  0  0
   -5.1320   -0.6819   29.8267 C   0  0  0  0  0  0
   -4.5514   -1.9027   29.4711 C   0  0  0  0  0  0
   -5.4013   -3.0101   29.4448 C   0  0  0  0  0  0
   -6.7583   -2.9061   29.8081 C   0  0  0  0  0  0
   -7.3110   -1.6744   30.1888 C   0  0  0  0  0  0
   -7.6604   -4.1322   29.7772 C   0  0  0  0  0  0
   -4.8955   -4.2057   29.0080 O   0  0  0  0  0  0
   -4.5632    6.5944   30.7655 H   0  0  0  0  0  0
   -3.1852    2.5494   30.4222 H   0  0  0  0  0  0
   -0.9677    3.4580   31.4432 H   0  0  0  0  0  0
   -2.3763    7.1631   29.8082 H   0  0  0  0  0  0
    1.5050    6.1315   31.8087 H   0  0  0  0  0  0
    2.7134    4.2739   32.6403 H   0  0  0  0  0  0
    1.1058    3.9628   33.0079 H   0  0  0  0  0  0
    2.3228    1.9465   32.0408 H   0  0  0  0  0  0
    0.8983    2.3576   31.1075 H   0  0  0  0  0  0
    2.6870    1.9425   29.6841 H   0  0  0  0  0  0
    2.9830    3.9450   28.4408 H   0  0  0  0  0  0
    1.3024    3.6596   28.8717 H   0  0  0  0  0  0
    1.9084    6.0597   29.4079 H   0  0  0  0  0  0
    3.2610    5.5566   30.2940 H   0  0  0  0  0  0
   -7.9512    2.5753   30.3010 H   0  0  0  0  0  0
   -8.3426    4.2996   30.3764 H   0  0  0  0  0  0
   -3.5181   -1.9739   29.1689 H   0  0  0  0  0  0
   -8.3529   -1.5862   30.4600 H   0  0  0  0  0  0
   -7.7641   -4.4967   28.7545 H   0  0  0  0  0  0
   -8.6538   -3.9310   30.1794 H   0  0  0  0  0  0
   -7.2186   -4.9362   30.3669 H   0  0  0  0  0  0
   -4.2892   -4.6316   29.6444 H   0  0  0  0  0  0
  1  6  1  0  0  0
  1  2  2  0  0  0
  2  3  1  0  0  0
  2 30  1  0  0  0
  3  4  2  0  0  0
  3  7  1  0  0  0
  4  5  1  0  0  0
  4 31  1  0  0  0
  5 18  1  0  0  0
  5  6  2  0  0  0
  6 21  1  0  0  0
  7 11  1  0  0  0
  7  8  2  0  0  0
  8  9  1  0  0  0
  8 32  1  0  0  0
  9 12  1  0  0  0
  9 10  1  0  0  0
 10 11  2  0  0  0
 11 33  1  0  0  0
 12 17  1  0  0  0
 12 13  1  0  0  0
 12 34  1  0  0  0
 13 14  1  0  0  0
 13 35  1  0  0  0
 13 36  1  0  0  0
 14 15  1  0  0  0
 14 37  1  0  0  0
 14 38  1  0  0  0
 15 16  1  0  0  0
 15 39  1  0  0  0
 16 17  1  0  0  0
 16 40  1  0  0  0
 16 41  1  0  0  0
 17 42  1  0  0  0
 17 43  1  0  0  0
 18 19  1  0  0  0
 18 20  2  0  0  0
 19 23  1  0  0  0
 20 22  1  0  0  0
 21 44  1  0  0  0
 21 45  1  0  0  0
 22 23  2  0  0  0
 22 27  1  0  0  0
 23 24  1  0  0  0
 24 25  2  0  0  0
 24 46  1  0  0  0
 25 26  1  0  0  0
 25 29  1  0  0  0
 26 27  2  0  0  0
 26 28  1  0  0  0
 27 47  1  0  0  0
 28 48  1  0  0  0
 28 49  1  0  0  0
 28 50  1  0  0  0
 29 51  1  0  0  0
M  END
> <s_m_entry_id>
10365

> <s_m_entry_name>
dock_pv.434

> <s_m_Source_Path>
/home/csk/Desktop/cluster/DUD-E-result/met

> <s_m_Source_File>
dock_pv.maegz

> <i_m_Source_File_Index>
434

> <chembl_id>
CHEMBL2032279

> <chembl_pref_name>
None

> <i_lp_mmshare_version>
53161

> <i_f3d_flags>
0

> <r_lp_tautomer_probability>
0.999999772200052

> <s_lp_Force_Field>
OPLS_2005

> <r_lp_Energy>
28.590946

> <b_lp_Chiralities_Consistent>
1

> <s_lp_Variant>
CHEMBL3717_lig1205-1

> <s_i_glide_gridfile>
glide-grid_3lq8

> <i_i_glide_lignum>
1381

> <i_i_glide_rotatable_bonds>
4

> <r_i_docking_score>
-7.36205951238678

> <r_i_glide_ligand_efficiency>
-0.253864121116786

> <r_i_glide_ligand_efficiency_sa>
-0.779951009869608

> <r_i_glide_ligand_efficiency_ln>
-1.68572494261502

> <r_i_glide_gscore>
-7.36205951238678

> <r_i_glide_lipo>
-3.36352103941493

> <r_i_glide_hbond>
-0.240636417272095

> <r_i_glide_metal>
0

> <r_i_glide_rewards>
-1.49569491233734

> <r_i_glide_evdw>
-36.3268737792969

> <r_i_glide_ecoul>
-5.5313572883606

> <r_i_glide_erotb>
0.38384013885652

> <r_i_glide_esite>
0

> <r_i_glide_emodel>
-55.5292363099784

> <r_i_glide_energy>
-41.8582310676575

> <r_i_glide_einternal>
5.85561609268188

> <i_i_glide_confnum>
4

> <i_i_glide_posenum>
6

> <r_i_glide_eff_state_penalty>
0

> <s_user_duplicate_titles>
CHEMBL3717_lig1205

> <s_m_subgroup_title>
dock_pv

> <s_m_subgroupid>
dock_pv

> <b_m_subgroup_collapsed>
1

$$$$
CHEMBL3717_lig1206
                    3D
 Schrodinger Suite 2021-1.
 54 58  0  0  1  0            999 V2000
   -5.4041    5.1126   30.6094 N   0  0  0  0  0  0
   -4.1178    5.5473   30.6598 C   0  0  0  0  0  0
   -3.0210    4.6806   30.6587 C   0  0  0  0  0  0
   -3.2873    3.3122   30.6080 C   0  0  0  0  0  0
   -4.5971    2.8317   30.4834 C   0  0  0  0  0  0
   -5.6337    3.7780   30.5114 C   0  0  0  0  0  0
   -1.6026    5.1371   30.6506 C   0  0  0  0  0  0
   -0.4642    4.4210   31.0079 C   0  0  0  0  0  0
    0.6093    5.2414   30.7788 N   0  0  0  0  0  0
    0.2285    6.4045   30.2247 N   0  0  0  0  0  0
   -1.0827    6.3615   30.2080 C   0  0  0  0  0  0
    2.0438    4.9623   30.9367 C   0  0  0  0  0  0
    2.4349    4.2581   32.2550 C   0  0  0  0  0  0
    2.4812    2.7267   32.1243 C   0  0  0  0  0  0
    3.3309    2.3570   31.0080 N   0  0  2  0  0  0
    2.7309    2.7976   29.7414 C   0  0  0  0  0  0
    2.7205    4.3385   29.6933 C   0  0  0  0  0  0
   -4.7403    1.3593   30.2644 C   0  0  0  0  0  0
   -3.6940    0.7700   29.6200 O   0  0  0  0  0  0
   -5.7302    0.5456   30.5869 N   0  0  0  0  0  0
   -6.9662    3.3984   30.3963 N   0  0  0  0  0  0
   -5.2886   -0.6815   30.1516 C   0  0  0  0  0  0
   -4.0267   -0.5357   29.5658 C   0  0  0  0  0  0
   -3.2940   -1.5817   29.0102 C   0  0  0  0  0  0
   -3.8968   -2.8420   29.0079 C   0  0  0  0  0  0
   -5.1473   -3.0298   29.6367 C   0  0  0  0  0  0
   -5.8589   -1.9619   30.2029 C   0  0  0  0  0  0
   -5.6941   -4.2788   29.7366 O   0  0  0  0  0  0
   -3.1797   -3.9526   28.2293 C   0  0  0  0  0  0
   -3.0755   -3.6755   26.7196 C   0  0  0  0  0  0
   -3.9825    6.6175   30.7004 H   0  0  0  0  0  0
   -2.4597    2.6178   30.5986 H   0  0  0  0  0  0
   -0.3294    3.4224   31.3912 H   0  0  0  0  0  0
   -1.6557    7.1909   29.8202 H   0  0  0  0  0  0
    2.4529    5.9570   31.0079 H   0  0  0  0  0  0
    3.4157    4.6041   32.5813 H   0  0  0  0  0  0
    1.7685    4.5569   33.0645 H   0  0  0  0  0  0
    2.8590    2.2584   33.0315 H   0  0  0  0  0  0
    1.5058    2.3075   31.9015 H   0  0  0  0  0  0
    3.4137    1.3499   30.9901 H   0  0  0  0  0  0
    3.2920    2.3772   28.9044 H   0  0  0  0  0  0
    1.7143    2.4105   29.6535 H   0  0  0  0  0  0
    2.2374    4.6869   28.7791 H   0  0  0  0  0  0
    3.7475    4.6951   29.5990 H   0  0  0  0  0  0
   -7.1905    2.4140   30.3448 H   0  0  0  0  0  0
   -7.6784    4.1125   30.3682 H   0  0  0  0  0  0
   -2.3483   -1.4073   28.5244 H   0  0  0  0  0  0
   -6.8190   -2.1258   30.6659 H   0  0  0  0  0  0
   -4.9907   -4.9136   29.9455 H   0  0  0  0  0  0
   -3.6472   -4.9234   28.3875 H   0  0  0  0  0  0
   -2.1647   -4.0430   28.6082 H   0  0  0  0  0  0
   -2.4983   -4.4437   26.2109 H   0  0  0  0  0  0
   -2.5619   -2.7354   26.5200 H   0  0  0  0  0  0
   -4.0594   -3.6433   26.2517 H   0  0  0  0  0  0
  1  6  1  0  0  0
  1  2  2  0  0  0
  2  3  1  0  0  0
  2 31  1  0  0  0
  3  7  1  0  0  0
  3  4  2  0  0  0
  4  5  1  0  0  0
  4 32  1  0  0  0
  5 18  1  0  0  0
  5  6  2  0  0  0
  6 21  1  0  0  0
  7 11  1  0  0  0
  7  8  2  0  0  0
  8  9  1  0  0  0
  8 33  1  0  0  0
  9 12  1  0  0  0
  9 10  1  0  0  0
 10 11  2  0  0  0
 11 34  1  0  0  0
 12 17  1  0  0  0
 12 13  1  0  0  0
 12 35  1  0  0  0
 13 14  1  0  0  0
 13 36  1  0  0  0
 13 37  1  0  0  0
 14 15  1  0  0  0
 14 38  1  0  0  0
 14 39  1  0  0  0
 15 16  1  0  0  0
 15 40  1  0  0  0
 16 17  1  0  0  0
 16 41  1  0  0  0
 16 42  1  0  0  0
 17 43  1  0  0  0
 17 44  1  0  0  0
 18 19  1  0  0  0
 18 20  2  0  0  0
 19 23  1  0  0  0
 20 22  1  0  0  0
 21 45  1  0  0  0
 21 46  1  0  0  0
 22 23  2  0  0  0
 22 27  1  0  0  0
 23 24  1  0  0  0
 24 25  2  0  0  0
 24 47  1  0  0  0
 25 26  1  0  0  0
 25 29  1  0  0  0
 26 27  2  0  0  0
 26 28  1  0  0  0
 27 48  1  0  0  0
 28 49  1  0  0  0
 29 30  1  0  0  0
 29 50  1  0  0  0
 29 51  1  0  0  0
 30 52  1  0  0  0
 30 53  1  0  0  0
 30 54  1  0  0  0
M  END
> <s_m_entry_id>
10366

> <s_m_entry_name>
dock_pv.435

> <s_m_Source_Path>
/home/csk/Desktop/cluster/DUD-E-result/met

> <s_m_Source_File>
dock_pv.maegz

> <i_m_Source_File_Index>
435

> <chembl_id>
CHEMBL2032278

> <chembl_pref_name>
None

> <i_lp_mmshare_version>
53161

> <i_f3d_flags>
0

> <r_lp_tautomer_probability>
0.999999772200052

> <s_lp_Force_Field>
OPLS_2005

> <r_lp_Energy>
32.125338

> <b_lp_Chiralities_Consistent>
1

> <s_lp_Variant>
CHEMBL3717_lig1206-1

> <s_i_glide_gridfile>
glide-grid_3lq8

> <i_i_glide_lignum>
1382

> <i_i_glide_rotatable_bonds>
5

> <r_i_docking_score>
-7.36030737996455

> <r_i_glide_ligand_efficiency>
-0.245343579332152

> <r_i_glide_ligand_efficiency_sa>
-0.762339543963642

> <r_i_glide_ligand_efficiency_ln>
-1.67234203370012

> <r_i_glide_gscore>
-7.36030737996455

> <r_i_glide_lipo>
-3.50903582297888

> <r_i_glide_hbond>
-0.16

> <r_i_glide_metal>
0

> <r_i_glide_rewards>
-1.35137527272727

> <r_i_glide_evdw>
-42.5998306274414

> <r_i_glide_ecoul>
-3.80087375640869

> <r_i_glide_erotb>
0.360226310574976

> <r_i_glide_esite>
0

> <r_i_glide_emodel>
-58.7989863823308

> <r_i_glide_energy>
-46.4007043838501

> <r_i_glide_einternal>
8.34080982208252

> <i_i_glide_confnum>
1

> <i_i_glide_posenum>
1

> <r_i_glide_eff_state_penalty>
0

> <s_user_duplicate_titles>
CHEMBL3717_lig1206

> <s_m_subgroup_title>
dock_pv

> <s_m_subgroupid>
dock_pv

> <b_m_subgroup_collapsed>
1

$$$$
CHEMBL3717_lig4042
                    3D
 Schrodinger Suite 2021-1.
 34 36  0  0  1  0            999 V2000
    5.3574    4.5643   29.5951 Cl  0  0  0  0  0  0
   -5.9232    5.0894   30.6082 O   0  0  0  0  0  0
   -3.2947    7.1661   30.6082 O   0  0  0  0  0  0
   -3.7643    2.4662   30.5397 N   0  0  0  0  0  0
   -1.2358    4.6397   30.6181 N   0  0  0  0  0  0
   -6.9702   -0.1520   29.7262 N   0  0  0  0  0  0
   -3.6623    3.8483   30.6073 C   0  0  0  0  0  0
   -2.6088    4.7139   30.6369 C   0  0  0  0  0  0
   -4.7001    4.9708   30.6081 C   0  0  0  0  0  0
   -3.4730    5.9521   30.6172 C   0  0  0  0  0  0
   -4.8676    1.6369   30.2797 C   0  0  0  0  0  0
   -0.4695    3.4091   30.6000 C   0  0  0  0  0  0
    1.0010    3.6940   30.3549 C   0  0  0  0  0  0
   -4.6188    0.4071   29.6640 C   0  0  0  0  0  0
   -6.1878    1.9461   30.6349 C   0  0  0  0  0  0
    1.5249    3.5588   29.0651 C   0  0  0  0  0  0
    1.8242    4.0984   31.4082 C   0  0  0  0  0  0
   -5.6869   -0.4544   29.4079 C   0  0  0  0  0  0
   -7.2023    1.0367   30.3356 C   0  0  0  0  0  0
    3.6902    4.2230   29.8833 C   0  0  0  0  0  0
    2.8720    3.8217   28.8288 C   0  0  0  0  0  0
    3.1709    4.3563   31.1700 C   0  0  0  0  0  0
   -2.8994    1.9504   30.4860 H   0  0  0  0  0  0
   -0.6734    5.4803   30.6048 H   0  0  0  0  0  0
   -0.8541    2.7585   29.8155 H   0  0  0  0  0  0
   -0.5957    2.8806   31.5459 H   0  0  0  0  0  0
   -3.6203    0.1152   29.3739 H   0  0  0  0  0  0
   -6.4427    2.8460   31.1655 H   0  0  0  0  0  0
    0.8944    3.2450   28.2447 H   0  0  0  0  0  0
    1.4249    4.2105   32.4060 H   0  0  0  0  0  0
   -5.5197   -1.4048   28.9202 H   0  0  0  0  0  0
   -8.2288    1.2478   30.6022 H   0  0  0  0  0  0
    3.2786    3.7178   27.8326 H   0  0  0  0  0  0
    3.8095    4.6683   31.9822 H   0  0  0  0  0  0
  1 20  1  0  0  0
  2  9  2  0  0  0
  3 10  2  0  0  0
  4  7  1  0  0  0
  4 11  1  0  0  0
  4 23  1  0  0  0
  5  8  1  0  0  0
  5 12  1  0  0  0
  5 24  1  0  0  0
  6 18  2  0  0  0
  6 19  1  0  0  0
  7  8  2  0  0  0
  7  9  1  0  0  0
  8 10  1  0  0  0
  9 10  1  0  0  0
 11 14  2  0  0  0
 11 15  1  0  0  0
 12 13  1  0  0  0
 12 25  1  0  0  0
 12 26  1  0  0  0
 13 16  2  0  0  0
 13 17  1  0  0  0
 14 18  1  0  0  0
 14 27  1  0  0  0
 15 19  2  0  0  0
 15 28  1  0  0  0
 16 21  1  0  0  0
 16 29  1  0  0  0
 17 22  2  0  0  0
 17 30  1  0  0  0
 18 31  1  0  0  0
 19 32  1  0  0  0
 20 21  2  0  0  0
 20 22  1  0  0  0
 21 33  1  0  0  0
 22 34  1  0  0  0
M  END
> <s_m_entry_id>
10367

> <s_m_entry_name>
dock_pv.436

> <s_m_Source_Path>
/home/csk/Desktop/cluster/DUD-E-result/met

> <s_m_Source_File>
dock_pv.maegz

> <i_m_Source_File_Index>
436

> <chembl_id>
CHEMBL1980489

> <chembl_pref_name>
None

> <i_lp_mmshare_version>
53161

> <i_f3d_flags>
0

> <r_lp_tautomer_probability>
1

> <s_lp_Force_Field>
OPLS_2005

> <r_lp_Energy>
48.203541

> <b_lp_Chiralities_Consistent>
1

> <s_lp_Variant>
CHEMBL3717_lig4042-1

> <s_i_glide_gridfile>
glide-grid_3lq8

> <i_i_glide_lignum>
5154

> <i_i_glide_rotatable_bonds>
5

> <r_i_docking_score>
-7.35967405729961

> <r_i_glide_ligand_efficiency>
-0.334530638968164

> <r_i_glide_ligand_efficiency_sa>
-0.937368006732258

> <r_i_glide_ligand_efficiency_ln>
-1.79897279023787

> <r_i_glide_gscore>
-7.35967405729961

> <r_i_glide_lipo>
-3.36550411445494

> <r_i_glide_hbond>
-0.32

> <r_i_glide_metal>
0

> <r_i_glide_rewards>
-2.35974938541327

> <r_i_glide_evdw>
-38.9864234924316

> <r_i_glide_ecoul>
-2.05879878997803

> <r_i_glide_erotb>
0.943720435686883

> <r_i_glide_esite>
0

> <r_i_glide_emodel>
-57.7777711979887

> <r_i_glide_energy>
-41.0452222824097

> <r_i_glide_einternal>
3.50880837440491

> <i_i_glide_confnum>
11

> <i_i_glide_posenum>
388

> <r_i_glide_eff_state_penalty>
0

> <s_user_duplicate_titles>
CHEMBL3717_lig4042

> <s_m_subgroup_title>
dock_pv

> <s_m_subgroupid>
dock_pv

> <b_m_subgroup_collapsed>
1

$$$$
CHEMBL3717_lig1211
                    3D
 Schrodinger Suite 2021-1.
 48 52  0  0  1  0            999 V2000
   -5.9763    5.1637   30.6082 N   0  0  0  0  0  0
   -4.7179    5.6709   30.6429 C   0  0  0  0  0  0
   -3.5741    4.8733   30.6073 C   0  0  0  0  0  0
   -3.7581    3.4922   30.5272 C   0  0  0  0  0  0
   -5.0405    2.9361   30.4407 C   0  0  0  0  0  0
   -6.1301    3.8224   30.4982 C   0  0  0  0  0  0
   -2.1935    5.4262   30.6104 C   0  0  0  0  0  0
   -1.0209    4.7725   30.9632 C   0  0  0  0  0  0
    0.0083    5.6476   30.7325 N   0  0  0  0  0  0
   -0.4372    6.7998   30.2076 N   0  0  0  0  0  0
   -1.7431    6.6911   30.2069 C   0  0  0  0  0  0
    1.4552    5.4090   30.7645 C   0  0  0  0  0  0
    1.9571    4.4235   31.8442 C   0  0  0  0  0  0
    1.9142    2.9475   31.4072 C   0  0  0  0  0  0
    2.5097    2.7573   30.0856 N   0  0  2  0  0  0
    1.8580    3.5515   29.0482 C   0  0  0  0  0  0
    2.0031    5.0401   29.3785 C   0  0  0  0  0  0
   -5.1283    1.4529   30.2723 C   0  0  0  0  0  0
   -3.9908    0.8219   29.8492 O   0  0  0  0  0  0
   -6.1704    0.6668   30.4708 N   0  0  0  0  0  0
   -7.4453    3.3792   30.4161 N   0  0  0  0  0  0
   -5.6938   -0.5799   30.1699 C   0  0  0  0  0  0
   -4.3472   -0.4809   29.7875 C   0  0  0  0  0  0
   -3.5663   -1.5711   29.4086 C   0  0  0  0  0  0
   -4.2093   -2.8080   29.4076 C   0  0  0  0  0  0
   -5.5410   -2.9479   29.8183 C   0  0  0  0  0  0
   -6.3085   -1.8407   30.1943 C   0  0  0  0  0  0
   -6.0931   -4.1969   29.8784 O   0  0  0  0  0  0
   -4.6429    6.7468   30.6920 H   0  0  0  0  0  0
   -2.8898    2.8499   30.4950 H   0  0  0  0  0  0
   -0.8382    3.7713   31.3163 H   0  0  0  0  0  0
   -2.3520    7.5049   29.8519 H   0  0  0  0  0  0
    1.8490    6.3959   31.0056 H   0  0  0  0  0  0
    1.4082    4.5713   32.7748 H   0  0  0  0  0  0
    2.9803    4.6701   32.1297 H   0  0  0  0  0  0
    0.8971    2.5608   31.4085 H   0  0  0  0  0  0
    2.4779    2.3415   32.1175 H   0  0  0  0  0  0
    2.4280    1.7811   29.8291 H   0  0  0  0  0  0
    0.8053    3.2692   28.9802 H   0  0  0  0  0  0
    2.3169    3.3276   28.0845 H   0  0  0  0  0  0
    3.0485    5.3379   29.2953 H   0  0  0  0  0  0
    1.5061    5.6316   28.6090 H   0  0  0  0  0  0
   -7.6176    2.3847   30.3453 H   0  0  0  0  0  0
   -8.1919    4.0576   30.4034 H   0  0  0  0  0  0
   -2.5397   -1.4587   29.0951 H   0  0  0  0  0  0
   -3.6477   -3.6652   29.0732 H   0  0  0  0  0  0
   -7.3358   -1.9586   30.5006 H   0  0  0  0  0  0
   -5.4031   -4.8539   30.0349 H   0  0  0  0  0  0
  1  2  2  0  0  0
  1  6  1  0  0  0
  2  3  1  0  0  0
  2 29  1  0  0  0
  3  4  2  0  0  0
  3  7  1  0  0  0
  4  5  1  0  0  0
  4 30  1  0  0  0
  5 18  1  0  0  0
  5  6  2  0  0  0
  6 21  1  0  0  0
  7 11  1  0  0  0
  7  8  2  0  0  0
  8  9  1  0  0  0
  8 31  1  0  0  0
  9 12  1  0  0  0
  9 10  1  0  0  0
 10 11  2  0  0  0
 11 32  1  0  0  0
 12 17  1  0  0  0
 12 13  1  0  0  0
 12 33  1  0  0  0
 13 14  1  0  0  0
 13 34  1  0  0  0
 13 35  1  0  0  0
 14 15  1  0  0  0
 14 36  1  0  0  0
 14 37  1  0  0  0
 15 16  1  0  0  0
 15 38  1  0  0  0
 16 17  1  0  0  0
 16 39  1  0  0  0
 16 40  1  0  0  0
 17 41  1  0  0  0
 17 42  1  0  0  0
 18 19  1  0  0  0
 18 20  2  0  0  0
 19 23  1  0  0  0
 20 22  1  0  0  0
 21 43  1  0  0  0
 21 44  1  0  0  0
 22 23  2  0  0  0
 22 27  1  0  0  0
 23 24  1  0  0  0
 24 25  2  0  0  0
 24 45  1  0  0  0
 25 26  1  0  0  0
 25 46  1  0  0  0
 26 27  2  0  0  0
 26 28  1  0  0  0
 27 47  1  0  0  0
 28 48  1  0  0  0
M  END
> <s_m_entry_id>
10368

> <s_m_entry_name>
dock_pv.437

> <s_m_Source_Path>
/home/csk/Desktop/cluster/DUD-E-result/met

> <s_m_Source_File>
dock_pv.maegz

> <i_m_Source_File_Index>
437

> <chembl_id>
CHEMBL2032273

> <chembl_pref_name>
None

> <i_lp_mmshare_version>
53161

> <i_f3d_flags>
0

> <r_lp_tautomer_probability>
0.999999772200052

> <s_lp_Force_Field>
OPLS_2005

> <r_lp_Energy>
29.003352

> <b_lp_Chiralities_Consistent>
1

> <s_lp_Variant>
CHEMBL3717_lig1211-1

> <s_i_glide_gridfile>
glide-grid_3lq8

> <i_i_glide_lignum>
1387

> <i_i_glide_rotatable_bonds>
4

> <r_i_docking_score>
-7.3586718337573

> <r_i_glide_ligand_efficiency>
-0.262809708348475

> <r_i_glide_ligand_efficiency_sa>
-0.798045061186422

> <r_i_glide_ligand_efficiency_ln>
-1.69859751922462

> <r_i_glide_gscore>
-7.3586718337573

> <r_i_glide_lipo>
-3.47655239174045

> <r_i_glide_hbond>
-0.0943395199581042

> <r_i_glide_metal>
0

> <r_i_glide_rewards>
-1.62133259044807

> <r_i_glide_evdw>
-44.5765380859375

> <r_i_glide_ecoul>
-2.31657433509827

> <r_i_glide_erotb>
0.409865722950944

> <r_i_glide_esite>
0

> <r_i_glide_emodel>
-60.5611212842865

> <r_i_glide_energy>
-46.8931124210358

> <r_i_glide_einternal>
8.20634365081787

> <i_i_glide_confnum>
1

> <i_i_glide_posenum>
7

> <r_i_glide_eff_state_penalty>
0

> <s_user_duplicate_titles>
CHEMBL3717_lig1211

> <s_m_subgroup_title>
dock_pv

> <s_m_subgroupid>
dock_pv

> <b_m_subgroup_collapsed>
1

$$$$
CHEMBL3717_lig3601
                    3D
 Schrodinger Suite 2021-1.
 24 26  0  0  1  0            999 V2000
   -3.6933    7.1571   30.6080 O   0  0  0  0  0  0
   -2.1060    3.1472   30.9063 N   0  0  0  0  0  0
   -4.3522    5.0557   30.6814 N   0  0  0  0  0  0
   -0.0051    4.1398   30.8031 N   0  0  0  0  0  0
    0.8427    5.1401   30.5247 N   0  0  0  0  0  0
   -1.9104    5.5869   30.5508 C   0  0  0  0  0  0
   -1.3557    4.3125   30.7847 C   0  0  0  0  0  0
   -3.4141    2.7555   30.6081 C   0  0  0  0  0  0
   -3.3768    5.9718   30.6081 C   0  0  0  0  0  0
   -4.4812    3.6768   30.5031 C   0  0  0  0  0  0
   -1.0170    6.6234   30.2144 C   0  0  0  0  0  0
   -3.6940    1.3921   30.4489 C   0  0  0  0  0  0
   -5.7641    3.1970   30.2080 C   0  0  0  0  0  0
    0.3475    6.3574   30.2082 C   0  0  0  0  0  0
   -4.9728    0.9317   30.1543 C   0  0  0  0  0  0
   -6.0138    1.8400   30.0316 C   0  0  0  0  0  0
   -1.4931    2.3544   31.0160 H   0  0  0  0  0  0
   -5.2398    5.5343   30.7078 H   0  0  0  0  0  0
   -1.3520    7.6271   29.9852 H   0  0  0  0  0  0
   -2.8991    0.6665   30.5445 H   0  0  0  0  0  0
   -6.5921    3.8858   30.1148 H   0  0  0  0  0  0
    1.0666    7.1277   29.9718 H   0  0  0  0  0  0
   -5.1539   -0.1256   30.0222 H   0  0  0  0  0  0
   -7.0121    1.4944   29.8048 H   0  0  0  0  0  0
  1  9  2  0  0  0
  2  7  1  0  0  0
  2  8  1  0  0  0
  2 17  1  0  0  0
  3  9  1  0  0  0
  3 10  1  0  0  0
  3 18  1  0  0  0
  4  5  1  0  0  0
  4  7  2  0  0  0
  5 14  2  0  0  0
  6  7  1  0  0  0
  6  9  1  0  0  0
  6 11  2  0  0  0
  8 10  1  0  0  0
  8 12  2  0  0  0
 10 13  2  0  0  0
 11 14  1  0  0  0
 11 19  1  0  0  0
 12 15  1  0  0  0
 12 20  1  0  0  0
 13 16  1  0  0  0
 13 21  1  0  0  0
 14 22  1  0  0  0
 15 16  2  0  0  0
 15 23  1  0  0  0
 16 24  1  0  0  0
M  END
> <s_m_entry_id>
10369

> <s_m_entry_name>
dock_pv.438

> <s_m_Source_Path>
/home/csk/Desktop/cluster/DUD-E-result/met

> <s_m_Source_File>
dock_pv.maegz

> <i_m_Source_File_Index>
438

> <chembl_id>
CHEMBL1971801

> <chembl_pref_name>
None

> <i_lp_mmshare_version>
53161

> <i_f3d_flags>
0

> <r_lp_tautomer_probability>
0.999989120118012

> <s_lp_Force_Field>
OPLS_2005

> <r_lp_Energy>
30.62268

> <b_lp_Chiralities_Consistent>
1

> <s_lp_Variant>
CHEMBL3717_lig3601-1

> <s_i_glide_gridfile>
glide-grid_3lq8

> <i_i_glide_lignum>
4478

> <i_i_glide_rotatable_bonds>
0

> <r_i_docking_score>
-7.35268284444666

> <r_i_glide_ligand_efficiency>
-0.459542677777916

> <r_i_glide_ligand_efficiency_sa>
-1.15797498504471

> <r_i_glide_ligand_efficiency_ln>
-1.94897546109436

> <r_i_glide_gscore>
-7.35268284444666

> <r_i_glide_lipo>
-2.03023476117979

> <r_i_glide_hbond>
-0.32

> <r_i_glide_metal>
0

> <r_i_glide_rewards>
-3.01222213636364

> <r_i_glide_evdw>
-28.9865169525146

> <r_i_glide_ecoul>
-3.60600066184998

> <r_i_glide_erotb>
0

> <r_i_glide_esite>
0

> <r_i_glide_emodel>
-44.9958263609577

> <r_i_glide_energy>
-32.5925176143646

> <r_i_glide_einternal>
0

> <i_i_glide_confnum>
1

> <i_i_glide_posenum>
30

> <r_i_glide_eff_state_penalty>
0

> <s_user_duplicate_titles>
CHEMBL3717_lig3601

> <s_m_subgroup_title>
dock_pv

> <s_m_subgroupid>
dock_pv

> <b_m_subgroup_collapsed>
1

$$$$
CHEMBL3717_lig2751
                    3D
 Schrodinger Suite 2021-1.
 50 55  0  0  1  0            999 V2000
    2.7060    2.6255   31.7051 C   0  0  0  0  0  0
    2.2316    4.0267   32.1346 C   0  0  0  0  0  0
    1.6429    4.7982   31.0295 N   0  0  0  0  0  0
    2.5385    4.7820   29.8634 C   0  0  0  0  0  0
    2.9713    3.3539   29.4774 C   0  0  0  0  0  0
    3.5988    2.7569   30.6073 O   0  0  0  0  0  0
    0.2781    4.9483   30.8572 C   0  0  0  0  0  0
   -0.2394    6.2046   30.5435 C   0  0  0  0  0  0
   -1.5624    6.4708   30.4139 N   0  0  0  0  0  0
   -2.4394    5.4373   30.5171 C   0  0  0  0  0  0
   -3.8174    5.6968   30.3586 C   0  0  0  0  0  0
   -4.7212    4.6419   30.3131 C   0  0  0  0  0  0
   -4.2965    3.3176   30.4163 C   0  0  0  0  0  0
   -5.5465    2.0672   30.2078 S   0  0  0  0  0  0
   -4.9672    0.5478   30.9200 C   0  0  0  0  0  0
   -3.9320    0.3569   31.7154 N   0  0  0  0  0  0
   -3.8386   -0.9784   32.0656 N   0  0  0  0  0  0
   -4.8908   -1.5936   31.4837 C   0  0  0  0  0  0
   -5.3243   -2.9274   31.4975 C   0  0  0  0  0  0
   -6.4870   -3.2663   30.7984 C   0  0  0  0  0  0
   -7.2236   -2.3090   30.0916 C   0  0  0  0  0  0
   -6.7700   -0.9891   30.0703 C   0  0  0  0  0  0
   -5.6306   -0.6498   30.7545 N   0  0  0  0  0  0
   -8.4713   -2.6766   29.3586 C   0  0  0  0  0  0
   -9.4685   -1.8290   28.8376 C   0  0  0  0  0  0
  -10.4326   -2.4648   28.2114 N   0  0  0  0  0  0
  -10.0935   -3.7495   28.3203 N   0  0  0  0  0  0
   -8.9268   -3.9406   29.0088 C   0  0  0  0  0  0
   -2.9391    3.0374   30.6147 C   0  0  0  0  0  0
   -1.9972    4.0924   30.7002 C   0  0  0  0  0  0
   -0.6119    3.8731   30.9159 C   0  0  0  0  0  0
    1.8644    1.9851   31.4433 H   0  0  0  0  0  0
    3.2197    2.1298   32.5285 H   0  0  0  0  0  0
    3.0850    4.5866   32.5183 H   0  0  0  0  0  0
    1.5278    3.9629   32.9655 H   0  0  0  0  0  0
    2.0720    5.2839   29.0147 H   0  0  0  0  0  0
    3.4297    5.3602   30.1012 H   0  0  0  0  0  0
    2.1225    2.7565   29.1367 H   0  0  0  0  0  0
    3.6853    3.3838   28.6535 H   0  0  0  0  0  0
    0.4187    7.0570   30.4530 H   0  0  0  0  0  0
   -4.1655    6.7115   30.2263 H   0  0  0  0  0  0
   -5.7679    4.8610   30.1541 H   0  0  0  0  0  0
   -4.7603   -3.6833   32.0249 H   0  0  0  0  0  0
   -6.8146   -4.2956   30.8115 H   0  0  0  0  0  0
   -7.2666   -0.1938   29.5364 H   0  0  0  0  0  0
   -9.4802   -0.7519   28.9092 H   0  0  0  0  0  0
  -10.6427   -4.4861   27.9023 H   0  0  0  0  0  0
   -8.5218   -4.9307   29.1572 H   0  0  0  0  0  0
   -2.5625    2.0302   30.6547 H   0  0  0  0  0  0
   -0.2540    2.8699   31.0862 H   0  0  0  0  0  0
  1  2  1  0  0  0
  1  6  1  0  0  0
  1 32  1  0  0  0
  1 33  1  0  0  0
  2  3  1  0  0  0
  2 34  1  0  0  0
  2 35  1  0  0  0
  3  4  1  0  0  0
  3  7  1  0  0  0
  4  5  1  0  0  0
  4 36  1  0  0  0
  4 37  1  0  0  0
  5  6  1  0  0  0
  5 38  1  0  0  0
  5 39  1  0  0  0
  7  8  2  0  0  0
  7 31  1  0  0  0
  8  9  1  0  0  0
  8 40  1  0  0  0
  9 10  2  0  0  0
 10 11  1  0  0  0
 10 30  1  0  0  0
 11 12  2  0  0  0
 11 41  1  0  0  0
 12 13  1  0  0  0
 12 42  1  0  0  0
 13 14  1  0  0  0
 13 29  2  0  0  0
 14 15  1  0  0  0
 15 16  2  0  0  0
 15 23  1  0  0  0
 16 17  1  0  0  0
 17 18  2  0  0  0
 18 19  1  0  0  0
 18 23  1  0  0  0
 19 20  2  0  0  0
 19 43  1  0  0  0
 20 21  1  0  0  0
 20 44  1  0  0  0
 21 22  2  0  0  0
 21 24  1  0  0  0
 22 23  1  0  0  0
 22 45  1  0  0  0
 24 25  1  0  0  0
 24 28  2  0  0  0
 25 26  2  0  0  0
 25 46  1  0  0  0
 26 27  1  0  0  0
 27 28  1  0  0  0
 27 47  1  0  0  0
 28 48  1  0  0  0
 29 30  1  0  0  0
 29 49  1  0  0  0
 30 31  2  0  0  0
 31 50  1  0  0  0
M  END
> <s_m_entry_id>
10370

> <s_m_entry_name>
dock_pv.439

> <s_m_Source_Path>
/home/csk/Desktop/cluster/DUD-E-result/met

> <s_m_Source_File>
dock_pv.maegz

> <i_m_Source_File_Index>
439

> <chembl_id>
CHEMBL3703992

> <chembl_pref_name>
None

> <i_lp_mmshare_version>
53161

> <i_f3d_flags>
0

> <r_lp_tautomer_probability>
0.5

> <s_lp_Force_Field>
OPLS_2005

> <r_lp_Energy>
36.28018

> <b_lp_Chiralities_Consistent>
1

> <s_lp_Variant>
CHEMBL3717_lig2751-1

> <s_i_glide_gridfile>
glide-grid_3lq8

> <i_i_glide_lignum>
3331

> <i_i_glide_rotatable_bonds>
4

> <r_i_docking_score>
-7.35250073136909

> <r_i_glide_ligand_efficiency>
-0.23717744294739

> <r_i_glide_ligand_efficiency_sa>
-0.745064629605746

> <r_i_glide_ligand_efficiency_ln>
-1.65821424201039

> <r_i_glide_gscore>
-7.35250073136909

> <r_i_glide_lipo>
-3.8473597658483

> <r_i_glide_hbond>
0

> <r_i_glide_metal>
0

> <r_i_glide_rewards>
-1.55949098761799

> <r_i_glide_evdw>
-44.373462677002

> <r_i_glide_ecoul>
-1.03921508789062

> <r_i_glide_erotb>
0.43092290632168

> <r_i_glide_esite>
-0.00201748719078562

> <r_i_glide_emodel>
-61.872586167201

> <r_i_glide_energy>
-45.4126777648926

> <r_i_glide_einternal>
6.45080518722534

> <i_i_glide_confnum>
5

> <i_i_glide_posenum>
19

> <r_i_glide_eff_state_penalty>
0

> <s_user_duplicate_titles>
CHEMBL3717_lig2751

> <s_m_subgroup_title>
dock_pv

> <s_m_subgroupid>
dock_pv

> <b_m_subgroup_collapsed>
1

$$$$
CHEMBL3717_lig3783
                    3D
 Schrodinger Suite 2021-1.
 49 53  0  0  1  0            999 V2000
   -2.5512    6.2858   30.4485 S   0  0  0  0  0  0
   -6.6592    1.4919   29.6127 O   0  0  0  0  0  0
   -4.8949   -0.9058   32.6042 N   0  0  0  0  0  0
    1.5034    5.9262   30.3996 N   0  0  0  0  0  0
   -6.8921    4.9343   30.9513 N   0  0  0  0  0  0
   -8.9693   -1.3155   30.1264 N   0  0  0  0  0  0
   -3.1111    4.6401   30.6883 C   0  0  0  0  0  0
   -0.8836    5.7501   30.5284 C   0  0  0  0  0  0
   -0.7881    4.3679   30.8461 C   0  0  0  0  0  0
   -4.5672    4.3204   30.6078 C   0  0  0  0  0  0
   -2.0678    3.7675   30.9551 C   0  0  0  0  0  0
   -4.3502   -1.6435   30.5547 C   0  0  0  0  0  0
   -5.7427   -1.2655   30.5369 C   0  0  0  0  0  0
   -3.8387   -1.3884   31.8656 C   0  0  0  0  0  0
   -4.9775    3.0457   30.2047 C   0  0  0  0  0  0
   -6.3323    2.7214   30.1370 C   0  0  0  0  0  0
    0.2802    6.4916   30.2961 C   0  0  0  0  0  0
    0.4918    3.8039   30.9754 C   0  0  0  0  0  0
   -5.5678    5.2301   30.9690 C   0  0  0  0  0  0
   -6.0216   -0.8573   31.8285 C   0  0  0  0  0  0
   -6.6528   -1.3187   29.3151 C   0  0  0  0  0  0
   -3.4737   -2.1620   29.5878 C   0  0  0  0  0  0
   -7.2579    3.6954   30.5368 C   0  0  0  0  0  0
   -2.5020   -1.6235   32.2116 C   0  0  0  0  0  0
    1.5960    4.6206   30.7396 C   0  0  0  0  0  0
   -7.9951   -0.5371   29.3773 C   0  0  2  0  0  0
   -7.9245    0.9158   29.9223 C   0  0  0  0  0  0
   -2.1518   -2.4279   29.9400 C   0  0  0  0  0  0
   -1.6784   -2.1533   31.2200 C   0  0  0  0  0  0
   -4.9095   -0.6118   33.5730 H   0  0  0  0  0  0
   -8.5901   -1.5480   31.0320 H   0  0  0  0  0  0
   -9.8094   -0.7796   30.2825 H   0  0  0  0  0  0
   -2.2040    2.7189   31.1713 H   0  0  0  0  0  0
   -4.2513    2.3054   29.9021 H   0  0  0  0  0  0
    0.2430    7.5395   30.0320 H   0  0  0  0  0  0
    0.6198    2.7596   31.2151 H   0  0  0  0  0  0
   -5.3161    6.2279   31.2936 H   0  0  0  0  0  0
   -6.9364   -0.5002   32.2764 H   0  0  0  0  0  0
   -6.0959   -0.8971   28.4790 H   0  0  0  0  0  0
   -6.8363   -2.3542   29.0240 H   0  0  0  0  0  0
   -3.8233   -2.3663   28.5858 H   0  0  0  0  0  0
   -8.3207    3.5153   30.4938 H   0  0  0  0  0  0
   -2.1142   -1.4219   33.1988 H   0  0  0  0  0  0
    2.5979    4.2214   30.8110 H   0  0  0  0  0  0
   -8.3616   -0.4813   28.3510 H   0  0  0  0  0  0
   -8.7363    1.5026   29.4886 H   0  0  0  0  0  0
   -8.0673    0.9385   31.0047 H   0  0  0  0  0  0
   -1.4831   -2.8505   29.2063 H   0  0  0  0  0  0
   -0.6431   -2.3650   31.4505 H   0  0  0  0  0  0
  1  7  1  0  0  0
  1  8  1  0  0  0
  2 16  1  0  0  0
  2 27  1  0  0  0
  3 14  1  0  0  0
  3 20  1  0  0  0
  3 30  1  0  0  0
  4 17  1  0  0  0
  4 25  2  0  0  0
  5 19  2  0  0  0
  5 23  1  0  0  0
  6 26  1  0  0  0
  6 31  1  0  0  0
  6 32  1  0  0  0
  7 10  1  0  0  0
  7 11  2  0  0  0
  8  9  1  0  0  0
  8 17  2  0  0  0
  9 11  1  0  0  0
  9 18  2  0  0  0
 10 15  2  0  0  0
 10 19  1  0  0  0
 11 33  1  0  0  0
 12 13  1  0  0  0
 12 14  1  0  0  0
 12 22  2  0  0  0
 13 20  2  0  0  0
 13 21  1  0  0  0
 14 24  2  0  0  0
 15 16  1  0  0  0
 15 34  1  0  0  0
 16 23  2  0  0  0
 17 35  1  0  0  0
 18 25  1  0  0  0
 18 36  1  0  0  0
 19 37  1  0  0  0
 20 38  1  0  0  0
 21 26  1  0  0  0
 21 39  1  0  0  0
 21 40  1  0  0  0
 22 28  1  0  0  0
 22 41  1  0  0  0
 23 42  1  0  0  0
 24 29  1  0  0  0
 24 43  1  0  0  0
 25 44  1  0  0  0
 26 27  1  0  0  0
 26 45  1  0  0  0
 27 46  1  0  0  0
 27 47  1  0  0  0
 28 29  2  0  0  0
 28 48  1  0  0  0
 29 49  1  0  0  0
M  END
> <s_m_entry_id>
10371

> <s_m_entry_name>
dock_pv.440

> <s_m_Source_Path>
/home/csk/Desktop/cluster/DUD-E-result/met

> <s_m_Source_File>
dock_pv.maegz

> <i_m_Source_File_Index>
440

> <chembl_id>
CHEMBL1966524

> <chembl_pref_name>
None

> <i_lp_mmshare_version>
53161

> <i_f3d_flags>
0

> <r_lp_tautomer_probability>
1

> <s_lp_Force_Field>
OPLS_2005

> <r_lp_Energy>
19.541467

> <b_lp_Chiralities_Consistent>
1

> <s_lp_Variant>
CHEMBL3717_lig3783-1

> <s_i_glide_gridfile>
glide-grid_3lq8

> <i_i_glide_lignum>
4789

> <i_i_glide_rotatable_bonds>
6

> <r_i_docking_score>
-7.34619651723937

> <r_i_glide_ligand_efficiency>
-0.253317121284116

> <r_i_glide_ligand_efficiency_sa>
-0.778270453081937

> <r_i_glide_ligand_efficiency_ln>
-1.68209271897712

> <r_i_glide_gscore>
-7.34619651723937

> <r_i_glide_lipo>
-3.90152045259709

> <r_i_glide_hbond>
-0.267340882916917

> <r_i_glide_metal>
0

> <r_i_glide_rewards>
-1.29369779298151

> <r_i_glide_evdw>
-40.7140846252441

> <r_i_glide_ecoul>
-3.05296564102173

> <r_i_glide_erotb>
0.611132172806542

> <r_i_glide_esite>
-0.00112048413493662

> <r_i_glide_emodel>
-58.8568932599813

> <r_i_glide_energy>
-43.7670502662659

> <r_i_glide_einternal>
6.48750829696655

> <i_i_glide_confnum>
8

> <i_i_glide_posenum>
120

> <r_i_glide_eff_state_penalty>
0

> <s_user_duplicate_titles>
CHEMBL3717_lig3783

> <s_m_subgroup_title>
dock_pv

> <s_m_subgroupid>
dock_pv

> <b_m_subgroup_collapsed>
1

$$$$
CHEMBL3717_lig1448
                    3D
 Schrodinger Suite 2021-1.
 47 51  0  0  1  0            999 V2000
   -4.7883    2.0569   30.4811 N   0  0  0  0  0  0
   -6.0771    2.4415   30.3306 N   0  0  0  0  0  0
   -6.1051    3.7475   30.4019 C   0  0  0  0  0  0
   -4.7954    4.2857   30.5438 C   0  0  0  0  0  0
   -4.2369    5.5685   30.6111 C   0  0  0  0  0  0
   -2.8506    5.6815   30.7139 C   0  0  0  0  0  0
   -2.0185    4.5563   30.7518 C   0  0  0  0  0  0
   -2.5558    3.2640   30.7183 C   0  0  0  0  0  0
   -3.9465    3.1508   30.6052 C   0  0  0  0  0  0
    1.6540    4.4442   30.9623 N   0  0  0  0  0  0
    0.4486    3.8069   31.0916 C   0  0  0  0  0  0
   -0.5356    4.7319   30.7647 C   0  0  0  0  0  0
    0.2108    5.8709   30.4207 C   0  0  0  0  0  0
    1.5063    5.7005   30.5282 N   0  0  0  0  0  0
    2.9908    3.9099   31.2282 C   0  0  0  0  0  0
   -4.3991    0.6492   30.3518 C   0  0  0  0  0  0
   -8.5482   -3.2304   30.9130 N   0  0  0  0  0  0
   -8.8533   -3.7175   32.1416 C   0  0  0  0  0  0
   -8.2105   -3.3181   33.3094 C   0  0  0  0  0  0
   -7.1989   -2.3637   33.2286 C   0  0  0  0  0  0
   -6.8434   -1.8323   31.9624 C   0  0  0  0  0  0
   -5.8220   -0.8661   31.7960 C   0  0  0  0  0  0
   -5.5130   -0.3803   30.5246 C   0  0  0  0  0  0
   -6.2158   -0.8365   29.4099 C   0  0  0  0  0  0
   -7.2271   -1.7849   29.5396 C   0  0  0  0  0  0
   -7.5553   -2.3006   30.8169 C   0  0  0  0  0  0
    3.7615    3.6552   29.9190 C   0  0  0  0  0  0
    5.0552    3.1573   30.2079 O   0  0  0  0  0  0
   -7.0367    4.2846   30.3131 H   0  0  0  0  0  0
   -4.8655    6.4439   30.5620 H   0  0  0  0  0  0
   -2.4210    6.6718   30.7506 H   0  0  0  0  0  0
   -1.9259    2.3860   30.7329 H   0  0  0  0  0  0
    0.4004    2.7755   31.4084 H   0  0  0  0  0  0
   -0.1922    6.8177   30.0889 H   0  0  0  0  0  0
    2.8532    2.9834   31.7832 H   0  0  0  0  0  0
    3.5020    4.6523   31.8443 H   0  0  0  0  0  0
   -3.9409    0.5268   29.3670 H   0  0  0  0  0  0
   -3.6043    0.4526   31.0743 H   0  0  0  0  0  0
   -9.6438   -4.4534   32.1755 H   0  0  0  0  0  0
   -8.4934   -3.7393   34.2636 H   0  0  0  0  0  0
   -6.6790   -2.0300   34.1149 H   0  0  0  0  0  0
   -5.2916   -0.5061   32.6663 H   0  0  0  0  0  0
   -5.9791   -0.4512   28.4275 H   0  0  0  0  0  0
   -7.7597   -2.1365   28.6655 H   0  0  0  0  0  0
    3.8336    4.5684   29.3251 H   0  0  0  0  0  0
    3.2148    2.9556   29.2832 H   0  0  0  0  0  0
    5.4830    2.8842   29.3843 H   0  0  0  0  0  0
  1  2  1  0  0  0
  1  9  1  0  0  0
  1 16  1  0  0  0
  2  3  2  0  0  0
  3  4  1  0  0  0
  3 29  1  0  0  0
  4  5  1  0  0  0
  4  9  2  0  0  0
  5  6  2  0  0  0
  5 30  1  0  0  0
  6  7  1  0  0  0
  6 31  1  0  0  0
  7  8  2  0  0  0
  7 12  1  0  0  0
  8  9  1  0  0  0
  8 32  1  0  0  0
 10 11  1  0  0  0
 10 14  1  0  0  0
 10 15  1  0  0  0
 11 12  2  0  0  0
 11 33  1  0  0  0
 12 13  1  0  0  0
 13 14  2  0  0  0
 13 34  1  0  0  0
 15 27  1  0  0  0
 15 35  1  0  0  0
 15 36  1  0  0  0
 16 23  1  0  0  0
 16 37  1  0  0  0
 16 38  1  0  0  0
 17 18  2  0  0  0
 17 26  1  0  0  0
 18 19  1  0  0  0
 18 39  1  0  0  0
 19 20  2  0  0  0
 19 40  1  0  0  0
 20 21  1  0  0  0
 20 41  1  0  0  0
 21 22  2  0  0  0
 21 26  1  0  0  0
 22 23  1  0  0  0
 22 42  1  0  0  0
 23 24  2  0  0  0
 24 25  1  0  0  0
 24 43  1  0  0  0
 25 26  2  0  0  0
 25 44  1  0  0  0
 27 28  1  0  0  0
 27 45  1  0  0  0
 27 46  1  0  0  0
 28 47  1  0  0  0
M  END
> <s_m_entry_id>
10372

> <s_m_entry_name>
dock_pv.441

> <s_m_Source_Path>
/home/csk/Desktop/cluster/DUD-E-result/met

> <s_m_Source_File>
dock_pv.maegz

> <i_m_Source_File_Index>
441

> <chembl_id>
CHEMBL2402842

> <chembl_pref_name>
None

> <i_lp_mmshare_version>
53161

> <i_f3d_flags>
0

> <r_lp_tautomer_probability>
1

> <s_lp_Force_Field>
OPLS_2005

> <r_lp_Energy>
19.388633

> <b_lp_Chiralities_Consistent>
1

> <s_lp_Variant>
CHEMBL3717_lig1448-1

> <s_i_glide_gridfile>
glide-grid_3lq8

> <i_i_glide_lignum>
1661

> <i_i_glide_rotatable_bonds>
6

> <r_i_docking_score>
-7.34291552191431

> <r_i_glide_ligand_efficiency>
-0.262246982925511

> <r_i_glide_ligand_efficiency_sa>
-0.796336295374754

> <r_i_glide_ligand_efficiency_ln>
-1.69496049982584

> <r_i_glide_gscore>
-7.34291552191431

> <r_i_glide_lipo>
-3.20253051518576

> <r_i_glide_hbond>
-0.32

> <r_i_glide_metal>
0

> <r_i_glide_rewards>
-1.96835914373692

> <r_i_glide_evdw>
-37.8250503540039

> <r_i_glide_ecoul>
-4.44787836074829

> <r_i_glide_erotb>
0.706408408820811

> <r_i_glide_esite>
0

> <r_i_glide_emodel>
-57.5812867044251

> <r_i_glide_energy>
-42.2729287147522

> <r_i_glide_einternal>
6.43946361541748

> <i_i_glide_confnum>
18

> <i_i_glide_posenum>
245

> <r_i_glide_eff_state_penalty>
0

> <s_user_duplicate_titles>
CHEMBL3717_lig1448

> <s_m_subgroup_title>
dock_pv

> <s_m_subgroupid>
dock_pv

> <b_m_subgroup_collapsed>
1

$$$$
CHEMBL3717_lig1014
                    3D
 Schrodinger Suite 2021-1.
 35 37  0  0  1  0            999 V2000
   -8.2084    2.4987   29.8348 C   0  0  0  0  0  0
   -7.9971    1.1188   29.7638 C   0  0  0  0  0  0
   -6.7135    0.5969   29.9326 C   0  0  0  0  0  0
   -5.6558    1.4754   30.1615 C   0  0  0  0  0  0
   -5.8427    2.8444   30.2101 C   0  0  0  0  0  0
   -7.1376    3.3682   30.0629 C   0  0  0  0  0  0
   -7.4470    5.0695   30.1334 Cl  0  0  0  0  0  0
   -4.5297    3.4356   30.4264 C   0  0  0  0  0  0
   -3.6125    2.2979   30.6016 C   0  0  0  0  0  0
   -4.3317    1.1898   30.3855 N   0  0  0  0  0  0
   -2.4194    2.3566   30.8909 O   0  0  0  0  0  0
   -4.2468    4.6859   30.4811 N   0  0  0  0  0  0
   -2.9461    5.0709   30.5884 N   0  0  0  0  0  0
   -2.6110    6.3694   30.5012 C   0  0  0  0  0  0
   -1.1583    6.8039   30.2170 C   0  0  0  0  0  0
   -0.0722    5.7301   30.1932 C   0  0  0  0  0  0
    0.1898    4.9703   31.3287 C   0  0  0  0  0  0
    1.1943    4.0080   31.3194 C   0  0  0  0  0  0
    1.9439    3.8110   30.1637 C   0  0  0  0  0  0
    1.7074    4.5803   29.0284 C   0  0  0  0  0  0
    0.7088    5.5517   29.0497 C   0  0  0  0  0  0
    2.9253    2.8602   30.1484 O   0  0  0  0  0  0
   -3.4426    7.2674   30.6081 O   0  0  0  0  0  0
   -9.2054    2.8949   29.7086 H   0  0  0  0  0  0
   -8.8297    0.4541   29.5850 H   0  0  0  0  0  0
   -6.5577   -0.4716   29.8891 H   0  0  0  0  0  0
   -3.9440    0.2595   30.4368 H   0  0  0  0  0  0
   -2.2646    4.3218   30.5708 H   0  0  0  0  0  0
   -0.8948    7.5114   30.9969 H   0  0  0  0  0  0
   -1.1521    7.3686   29.2843 H   0  0  0  0  0  0
   -0.3977    5.1490   32.2080 H   0  0  0  0  0  0
    1.3909    3.4263   32.2054 H   0  0  0  0  0  0
    2.3012    4.4276   28.1393 H   0  0  0  0  0  0
    0.5412    6.1648   28.1794 H   0  0  0  0  0  0
    2.9047    2.3022   30.9275 H   0  0  0  0  0  0
  1  2  1  0  0  0
  1  6  2  0  0  0
  1 24  1  0  0  0
  2  3  2  0  0  0
  2 25  1  0  0  0
  3  4  1  0  0  0
  3 26  1  0  0  0
  4  5  2  0  0  0
  4 10  1  0  0  0
  5  6  1  0  0  0
  5  8  1  0  0  0
  6  7  1  0  0  0
  8  9  1  0  0  0
  8 12  2  0  0  0
  9 10  1  0  0  0
  9 11  2  0  0  0
 10 27  1  0  0  0
 12 13  1  0  0  0
 13 14  1  0  0  0
 13 28  1  0  0  0
 14 15  1  0  0  0
 14 23  2  0  0  0
 15 16  1  0  0  0
 15 29  1  0  0  0
 15 30  1  0  0  0
 16 17  1  0  0  0
 16 21  2  0  0  0
 17 18  2  0  0  0
 17 31  1  0  0  0
 18 19  1  0  0  0
 18 32  1  0  0  0
 19 20  2  0  0  0
 19 22  1  0  0  0
 20 21  1  0  0  0
 20 33  1  0  0  0
 21 34  1  0  0  0
 22 35  1  0  0  0
M  END
> <s_m_entry_id>
10373

> <s_m_entry_name>
dock_pv.442

> <s_m_Source_Path>
/home/csk/Desktop/cluster/DUD-E-result/met

> <s_m_Source_File>
dock_pv.maegz

> <i_m_Source_File_Index>
442

> <chembl_id>
CHEMBL1823250

> <chembl_pref_name>
None

> <i_lp_mmshare_version>
53161

> <i_f3d_flags>
0

> <r_lp_tautomer_probability>
0.999999999997365

> <s_lp_Force_Field>
OPLS_2005

> <r_lp_Energy>
37.484251

> <b_lp_Chiralities_Consistent>
1

> <s_lp_Variant>
CHEMBL3717_lig1014-1

> <s_i_glide_gridfile>
glide-grid_3lq8

> <i_i_glide_lignum>
1128

> <i_i_glide_rotatable_bonds>
5

> <r_i_docking_score>
-7.34041334705211

> <r_i_glide_ligand_efficiency>
-0.31914840639357

> <r_i_glide_ligand_efficiency_sa>
-0.907615613666314

> <r_i_glide_ligand_efficiency_ln>
-1.77497850650551

> <r_i_glide_gscore>
-7.34041334705211

> <r_i_glide_lipo>
-2.98468751625932

> <r_i_glide_hbond>
-0.32

> <r_i_glide_metal>
0

> <r_i_glide_rewards>
-2.65315373994973

> <r_i_glide_evdw>
-34.314697265625

> <r_i_glide_ecoul>
-2.38957667350769

> <r_i_glide_erotb>
0.691599273464345

> <r_i_glide_esite>
0

> <r_i_glide_emodel>
-49.5796439490764

> <r_i_glide_energy>
-36.7042739391327

> <r_i_glide_einternal>
5.88594532012939

> <i_i_glide_confnum>
11

> <i_i_glide_posenum>
72

> <r_i_glide_eff_state_penalty>
0

> <s_user_duplicate_titles>
CHEMBL3717_lig1014

> <s_m_subgroup_title>
dock_pv

> <s_m_subgroupid>
dock_pv

> <b_m_subgroup_collapsed>
1

$$$$
CHEMBL3717_lig884
                    3D
 Schrodinger Suite 2021-1.
 40 43  0  0  1  0            999 V2000
   -4.1812    2.7611   30.0312 N   0  0  0  0  0  0
   -5.3317    2.0914   29.9648 C   0  0  0  0  0  0
   -6.6022    2.6654   30.2042 C   0  0  0  0  0  0
   -6.7233    3.9658   30.5093 N   0  0  0  0  0  0
   -5.5534    4.6623   30.6122 C   0  0  0  0  0  0
   -4.2953    4.0687   30.4044 C   0  0  0  0  0  0
   -2.9993    4.7901   30.5749 C   0  0  0  0  0  0
   -1.8492    4.1085   31.0077 C   0  0  0  0  0  0
   -0.6077    4.7350   31.0080 C   0  0  0  0  0  0
   -0.5063    6.0562   30.5909 C   0  0  0  0  0  0
   -1.6422    6.7652   30.2076 C   0  0  0  0  0  0
   -2.8862    6.1370   30.2137 C   0  0  0  0  0  0
    0.7038    6.6575   30.5605 F   0  0  0  0  0  0
   -7.5881    1.7250   30.0766 N   0  0  0  0  0  0
   -6.9361    0.6156   29.8064 C   0  0  0  0  0  0
   -5.5630    0.7501   29.7245 N   0  0  0  0  0  0
   -4.5813   -0.3195   29.4803 C   0  0  0  0  0  0
   -3.6105   -0.6652   30.6231 C   0  0  0  0  0  0
   -2.8724   -1.8527   30.5669 C   0  0  0  0  0  0
   -1.9601   -2.1661   31.5775 C   0  0  0  0  0  0
   -1.7645   -1.2855   32.6506 C   0  0  0  0  0  0
   -2.4810   -0.0960   32.6912 C   0  0  0  0  0  0
   -3.4128    0.1927   31.7072 C   0  0  0  0  0  0
   -0.8942   -1.5069   33.6965 O   0  0  0  0  0  0
   -0.7236   -2.8427   34.1502 C   0  0  0  0  0  0
   -5.6489    5.7024   30.8866 H   0  0  0  0  0  0
   -1.9047    3.0703   31.3027 H   0  0  0  0  0  0
    0.2755    4.1933   31.3123 H   0  0  0  0  0  0
   -1.5491    7.7944   29.8916 H   0  0  0  0  0  0
   -3.7564    6.6817   29.8774 H   0  0  0  0  0  0
   -7.3848   -0.3555   29.6589 H   0  0  0  0  0  0
   -3.9941   -0.0249   28.6096 H   0  0  0  0  0  0
   -5.1266   -1.2189   29.1885 H   0  0  0  0  0  0
   -3.0023   -2.5401   29.7424 H   0  0  0  0  0  0
   -1.4049   -3.0884   31.5060 H   0  0  0  0  0  0
   -2.3404    0.5875   33.5157 H   0  0  0  0  0  0
   -3.9747    1.0995   31.8080 H   0  0  0  0  0  0
   -0.0502   -2.8421   35.0070 H   0  0  0  0  0  0
   -0.2858   -3.4953   33.3960 H   0  0  0  0  0  0
   -1.6756   -3.2621   34.4778 H   0  0  0  0  0  0
  1  2  2  0  0  0
  1  6  1  0  0  0
  2  3  1  0  0  0
  2 16  1  0  0  0
  3  4  2  0  0  0
  3 14  1  0  0  0
  4  5  1  0  0  0
  5  6  2  0  0  0
  5 26  1  0  0  0
  6  7  1  0  0  0
  7  8  2  0  0  0
  7 12  1  0  0  0
  8  9  1  0  0  0
  8 27  1  0  0  0
  9 10  2  0  0  0
  9 28  1  0  0  0
 10 11  1  0  0  0
 10 13  1  0  0  0
 11 12  2  0  0  0
 11 29  1  0  0  0
 12 30  1  0  0  0
 14 15  2  0  0  0
 15 16  1  0  0  0
 15 31  1  0  0  0
 16 17  1  0  0  0
 17 18  1  0  0  0
 17 32  1  0  0  0
 17 33  1  0  0  0
 18 19  2  0  0  0
 18 23  1  0  0  0
 19 20  1  0  0  0
 19 34  1  0  0  0
 20 21  2  0  0  0
 20 35  1  0  0  0
 21 22  1  0  0  0
 21 24  1  0  0  0
 22 23  2  0  0  0
 22 36  1  0  0  0
 23 37  1  0  0  0
 24 25  1  0  0  0
 25 38  1  0  0  0
 25 39  1  0  0  0
 25 40  1  0  0  0
M  END
> <s_m_entry_id>
10374

> <s_m_entry_name>
dock_pv.443

> <s_m_Source_Path>
/home/csk/Desktop/cluster/DUD-E-result/met

> <s_m_Source_File>
dock_pv.maegz

> <i_m_Source_File_Index>
443

> <chembl_id>
CHEMBL1822376

> <chembl_pref_name>
None

> <i_lp_mmshare_version>
53161

> <i_f3d_flags>
0

> <r_lp_tautomer_probability>
1

> <s_lp_Force_Field>
OPLS_2005

> <r_lp_Energy>
26.948173

> <b_lp_Chiralities_Consistent>
1

> <s_lp_Variant>
CHEMBL3717_lig884-1

> <s_i_glide_gridfile>
glide-grid_3lq8

> <i_i_glide_lignum>
955

> <i_i_glide_rotatable_bonds>
4

> <r_i_docking_score>
-7.34021058484537

> <r_i_glide_ligand_efficiency>
-0.293608423393815

> <r_i_glide_ligand_efficiency_sa>
-0.858516237171076

> <r_i_glide_ligand_efficiency_ln>
-1.73984987696922

> <r_i_glide_gscore>
-7.34021058484537

> <r_i_glide_lipo>
-3.24686940141737

> <r_i_glide_hbond>
0

> <r_i_glide_metal>
0

> <r_i_glide_rewards>
-2.47932868987008

> <r_i_glide_evdw>
-39.6839218139648

> <r_i_glide_ecoul>
-0.90623939037323

> <r_i_glide_erotb>
0.506119505696303

> <r_i_glide_esite>
0

> <r_i_glide_emodel>
-57.2508977072814

> <r_i_glide_energy>
-40.5901612043381

> <r_i_glide_einternal>
1.47676289081573

> <i_i_glide_confnum>
4

> <i_i_glide_posenum>
97

> <r_i_glide_eff_state_penalty>
0

> <s_user_duplicate_titles>
CHEMBL3717_lig884

> <s_m_subgroup_title>
dock_pv

> <s_m_subgroupid>
dock_pv

> <b_m_subgroup_collapsed>
1

$$$$
CHEMBL3717_lig1265
                    3D
 Schrodinger Suite 2021-1.
 41 43  0  0  1  0            999 V2000
   -5.0482    4.2907   30.5015 C   0  0  0  0  0  0
   -3.6580    4.0561   30.6080 C   0  0  0  0  0  0
   -3.2539    2.7096   30.6080 C   0  0  0  0  0  0
   -4.1741    1.6726   30.4623 C   0  0  0  0  0  0
   -5.5127    2.0172   30.2784 C   0  0  0  0  0  0
   -5.9519    3.2986   30.3059 N   0  0  0  0  0  0
   -2.6282    5.1641   30.7641 C   0  0  0  0  0  0
   -2.9584    6.3258   31.0079 O   0  0  0  0  0  0
   -1.3396    4.7952   30.6080 N   0  0  0  0  0  0
   -2.7346   -2.2511   30.5651 C   0  0  0  0  0  0
   -3.4764   -1.9051   29.4845 N   0  0  0  0  0  0
   -3.9679   -0.6400   29.4848 C   0  0  0  0  0  0
   -3.7165    0.2696   30.5182 C   0  0  0  0  0  0
   -2.9573   -0.2119   31.5944 C   0  0  0  0  0  0
   -2.4557   -1.4717   31.6389 N   0  0  0  0  0  0
   -0.1519    5.6237   30.7987 C   0  0  2  0  0  0
   -0.0727    6.8807   29.8956 C   0  0  0  0  0  0
    1.1453    4.7858   30.8306 C   0  0  0  0  0  0
    1.6403    4.1294   29.6970 C   0  0  0  0  0  0
    2.7871    3.3385   29.7361 C   0  0  0  0  0  0
    3.4540    3.1571   30.9383 C   0  0  0  0  0  0
    2.9929    3.8175   32.0701 C   0  0  0  0  0  0
    1.8811    4.6465   32.0101 C   0  0  0  0  0  0
    3.2551    2.7570   28.6081 F   0  0  0  0  0  0
    1.5060    5.5570   33.4080 Cl  0  0  0  0  0  0
    0.8606    4.2977   28.2080 Cl  0  0  0  0  0  0
   -5.6104    5.5570   30.6080 N   0  0  0  0  0  0
   -2.2161    2.4371   30.7343 H   0  0  0  0  0  0
   -6.2686    1.2552   30.1515 H   0  0  0  0  0  0
   -1.1526    3.8354   30.3657 H   0  0  0  0  0  0
   -2.3193   -3.2430   30.5634 H   0  0  0  0  0  0
   -4.5370   -0.3549   28.6122 H   0  0  0  0  0  0
   -2.7239    0.4205   32.4382 H   0  0  0  0  0  0
   -0.3135    5.9767   31.8072 H   0  0  0  0  0  0
    0.8639    7.4153   30.0487 H   0  0  0  0  0  0
   -0.1519    6.6521   28.8351 H   0  0  0  0  0  0
   -0.8744    7.5845   30.1203 H   0  0  0  0  0  0
    4.3327    2.5312   30.9828 H   0  0  0  0  0  0
    3.5059    3.7146   33.0080 H   0  0  0  0  0  0
   -4.9670    6.3366   30.6626 H   0  0  0  0  0  0
   -6.5612    5.6885   30.2962 H   0  0  0  0  0  0
  1  2  1  0  0  0
  1  6  2  0  0  0
  1 27  1  0  0  0
  2  3  2  0  0  0
  2  7  1  0  0  0
  3  4  1  0  0  0
  3 28  1  0  0  0
  4  5  2  0  0  0
  4 13  1  0  0  0
  5  6  1  0  0  0
  5 29  1  0  0  0
  7  8  2  0  0  0
  7  9  1  0  0  0
  9 16  1  0  0  0
  9 30  1  0  0  0
 10 11  1  0  0  0
 10 15  2  0  0  0
 10 31  1  0  0  0
 11 12  2  0  0  0
 12 13  1  0  0  0
 12 32  1  0  0  0
 13 14  2  0  0  0
 14 15  1  0  0  0
 14 33  1  0  0  0
 16 17  1  0  0  0
 16 18  1  0  0  0
 16 34  1  0  0  0
 17 35  1  0  0  0
 17 36  1  0  0  0
 17 37  1  0  0  0
 18 19  1  0  0  0
 18 23  2  0  0  0
 19 20  2  0  0  0
 19 26  1  0  0  0
 20 21  1  0  0  0
 20 24  1  0  0  0
 21 22  2  0  0  0
 21 38  1  0  0  0
 22 23  1  0  0  0
 22 39  1  0  0  0
 23 25  1  0  0  0
 27 40  1  0  0  0
 27 41  1  0  0  0
M  END
> <s_m_entry_id>
10375

> <s_m_entry_name>
dock_pv.444

> <s_m_Source_Path>
/home/csk/Desktop/cluster/DUD-E-result/met

> <s_m_Source_File>
dock_pv.maegz

> <i_m_Source_File_Index>
444

> <chembl_id>
CHEMBL2071453

> <chembl_pref_name>
None

> <i_lp_mmshare_version>
53161

> <i_f3d_flags>
0

> <r_lp_tautomer_probability>
0.999999772200052

> <s_lp_Force_Field>
OPLS_2005

> <r_lp_Energy>
15.581976

> <b_lp_Chiralities_Consistent>
1

> <s_lp_Variant>
CHEMBL3717_lig1265-1

> <s_i_glide_gridfile>
glide-grid_3lq8

> <i_i_glide_lignum>
1448

> <i_i_glide_rotatable_bonds>
5

> <r_i_docking_score>
-7.33934324127905

> <r_i_glide_ligand_efficiency>
-0.27182752745478

> <r_i_glide_ligand_efficiency_sa>
-0.81548258146844

> <r_i_glide_ligand_efficiency_ln>
-1.70847810803988

> <r_i_glide_gscore>
-7.33934324127905

> <r_i_glide_lipo>
-3.56723436702237

> <r_i_glide_hbond>
0

> <r_i_glide_metal>
0

> <r_i_glide_rewards>
-2.31887809050227

> <r_i_glide_evdw>
-34.182243347168

> <r_i_glide_ecoul>
-1.47096002101898

> <r_i_glide_erotb>
0.476525386756827

> <r_i_glide_esite>
0

> <r_i_glide_emodel>
-45.1914992519971

> <r_i_glide_energy>
-35.653203368187

> <r_i_glide_einternal>
3.88023710250854

> <i_i_glide_confnum>
21

> <i_i_glide_posenum>
153

> <r_i_glide_eff_state_penalty>
0

> <s_user_duplicate_titles>
CHEMBL3717_lig1265

> <s_m_subgroup_title>
dock_pv

> <s_m_subgroupid>
dock_pv

> <b_m_subgroup_collapsed>
1

$$$$
CHEMBL3717_lig3721
                    3D
 Schrodinger Suite 2021-1.
 43 47  0  0  1  0            999 V2000
   -7.3569    0.5628   31.5439 S   0  0  0  0  0  0
   -2.3844    2.3992   30.6213 F   0  0  0  0  0  0
   -2.8632    7.1573   30.6079 F   0  0  0  0  0  0
   -7.6013    5.4326   30.4654 O   0  0  0  0  0  0
   -9.6389    3.5878   31.6098 O   0  0  0  0  0  0
   -5.2243    2.0993   30.5665 N   0  0  0  0  0  0
   -8.7855    1.5013   31.7424 N   0  0  0  0  0  0
   -1.1776    4.9961   30.6049 N   0  0  0  0  0  0
   -4.5678    3.3653   30.5659 C   0  0  0  0  0  0
   -6.5442    2.0331   30.9954 C   0  0  0  0  0  0
   -5.3849    4.5231   30.6053 C   0  0  0  0  0  0
   -7.3638    3.1013   31.0101 C   0  0  0  0  0  0
   -6.8924    4.4440   30.6422 C   0  0  0  0  0  0
   -4.6709    0.8988   29.9324 C   0  0  0  0  0  0
   -3.1643    3.5035   30.6081 C   0  0  0  0  0  0
   -8.7026    2.8056   31.4674 C   0  0  0  0  0  0
   -2.5695    4.7805   30.6529 C   0  0  0  0  0  0
   -4.7730    5.7801   30.6098 C   0  0  0  0  0  0
   -3.3917    5.9109   30.6293 C   0  0  0  0  0  0
   -5.4365    0.3537   28.7329 C   0  0  0  0  0  0
   -4.1152    1.0162   28.5222 C   0  0  0  0  0  0
   -0.1915    4.2913   31.4074 C   0  0  0  0  0  0
    1.1109    4.0632   30.6398 C   0  0  0  0  0  0
    1.1055    3.5575   29.3347 C   0  0  0  0  0  0
    2.3320    4.2989   31.2795 C   0  0  0  0  0  0
    2.3027    3.3238   28.6630 C   0  0  0  0  0  0
    3.5314    4.0702   30.6078 C   0  0  0  0  0  0
    3.5117    3.5861   29.3017 C   0  0  0  0  0  0
   -9.6293    1.0688   32.0847 H   0  0  0  0  0  0
   -0.8855    5.9065   30.2764 H   0  0  0  0  0  0
   -4.2139    0.1871   30.6225 H   0  0  0  0  0  0
   -5.3702    6.6834   30.6083 H   0  0  0  0  0  0
   -5.5106   -0.7281   28.6151 H   0  0  0  0  0  0
   -6.3440    0.8571   28.3980 H   0  0  0  0  0  0
   -4.0941    1.9846   28.0326 H   0  0  0  0  0  0
   -3.2940    0.3739   28.2072 H   0  0  0  0  0  0
   -0.5604    3.3484   31.8080 H   0  0  0  0  0  0
    0.0409    4.9721   32.2161 H   0  0  0  0  0  0
    0.1711    3.3343   28.8415 H   0  0  0  0  0  0
    2.3554    4.6671   32.2947 H   0  0  0  0  0  0
    2.2903    2.9316   27.6563 H   0  0  0  0  0  0
    4.4734    4.2672   31.0972 H   0  0  0  0  0  0
    4.4418    3.4020   28.7831 H   0  0  0  0  0  0
  1  7  1  0  0  0
  1 10  1  0  0  0
  2 15  1  0  0  0
  3 19  1  0  0  0
  4 13  2  0  0  0
  5 16  2  0  0  0
  6  9  1  0  0  0
  6 10  1  0  0  0
  6 14  1  0  0  0
  7 16  1  0  0  0
  7 29  1  0  0  0
  8 17  1  0  0  0
  8 22  1  0  0  0
  8 30  1  0  0  0
  9 11  2  0  0  0
  9 15  1  0  0  0
 10 12  2  0  0  0
 11 13  1  0  0  0
 11 18  1  0  0  0
 12 13  1  0  0  0
 12 16  1  0  0  0
 14 20  1  0  0  0
 14 21  1  0  0  0
 14 31  1  0  0  0
 15 17  2  0  0  0
 17 19  1  0  0  0
 18 19  2  0  0  0
 18 32  1  0  0  0
 20 21  1  0  0  0
 20 33  1  0  0  0
 20 34  1  0  0  0
 21 35  1  0  0  0
 21 36  1  0  0  0
 22 23  1  0  0  0
 22 37  1  0  0  0
 22 38  1  0  0  0
 23 24  2  0  0  0
 23 25  1  0  0  0
 24 26  1  0  0  0
 24 39  1  0  0  0
 25 27  2  0  0  0
 25 40  1  0  0  0
 26 28  2  0  0  0
 26 41  1  0  0  0
 27 28  1  0  0  0
 27 42  1  0  0  0
 28 43  1  0  0  0
M  END
> <s_m_entry_id>
10376

> <s_m_entry_name>
dock_pv.445

> <s_m_Source_Path>
/home/csk/Desktop/cluster/DUD-E-result/met

> <s_m_Source_File>
dock_pv.maegz

> <i_m_Source_File_Index>
445

> <chembl_id>
CHEMBL1991640

> <chembl_pref_name>
None

> <i_lp_mmshare_version>
53161

> <i_f3d_flags>
0

> <r_lp_tautomer_probability>
1

> <s_lp_Force_Field>
OPLS_2005

> <r_lp_Energy>
37.819951

> <b_lp_Chiralities_Consistent>
1

> <s_lp_Variant>
CHEMBL3717_lig3721-1

> <s_i_glide_gridfile>
glide-grid_3lq8

> <i_i_glide_lignum>
4691

> <i_i_glide_rotatable_bonds>
4

> <r_i_docking_score>
-7.33674667066506

> <r_i_glide_ligand_efficiency>
-0.262026666809466

> <r_i_glide_ligand_efficiency_sa>
-0.795667285887189

> <r_i_glide_ligand_efficiency_ln>
-1.69353654783217

> <r_i_glide_gscore>
-7.33674667066506

> <r_i_glide_lipo>
-3.70974126943451

> <r_i_glide_hbond>
0

> <r_i_glide_metal>
0

> <r_i_glide_rewards>
-1.98374546023033

> <r_i_glide_evdw>
-40.7339935302734

> <r_i_glide_ecoul>
-0.652354538440704

> <r_i_glide_erotb>
0.491292916279569

> <r_i_glide_esite>
0

> <r_i_glide_emodel>
-54.3260295487828

> <r_i_glide_energy>
-41.3863480687141

> <r_i_glide_einternal>
6.01580762863159

> <i_i_glide_confnum>
15

> <i_i_glide_posenum>
77

> <r_i_glide_eff_state_penalty>
0

> <s_user_duplicate_titles>
CHEMBL3717_lig3721

> <s_m_subgroup_title>
dock_pv

> <s_m_subgroupid>
dock_pv

> <b_m_subgroup_collapsed>
1

$$$$
CHEMBL3717_lig2808
                    3D
 Schrodinger Suite 2021-1.
 59 63  0  0  1  0            999 V2000
   -4.7200    0.4919   29.0082 C   0  0  0  0  0  0
   -5.4827    0.3691   30.3424 C   0  0  1  0  0  0
   -6.5145    1.3549   30.4991 O   0  0  0  0  0  0
   -6.2217    2.7087   30.5385 C   0  0  0  0  0  0
   -4.9199    3.2270   30.6062 C   0  0  0  0  0  0
   -4.6938    4.6045   30.6082 C   0  0  0  0  0  0
   -5.8113    5.4390   30.6081 C   0  0  0  0  0  0
   -7.0846    4.9750   30.5686 N   0  0  0  0  0  0
   -7.2761    3.6343   30.5212 C   0  0  0  0  0  0
   -8.5989    3.2072   30.4411 N   0  0  0  0  0  0
   -3.2997    5.1200   30.6171 C   0  0  0  0  0  0
   -2.8168    6.3677   30.2080 C   0  0  0  0  0  0
   -1.5073    6.4801   30.2567 N   0  0  0  0  0  0
   -1.1026    5.3084   30.7597 N   0  0  0  0  0  0
   -2.1486    4.4612   31.0091 C   0  0  0  0  0  0
    0.3130    5.0255   30.9385 C   0  0  2  0  0  0
    1.3126    5.3130   29.8049 C   0  0  0  0  0  0
    2.0599    4.0114   30.1724 C   0  0  1  0  0  0
    2.4896    3.1594   28.9584 C   0  0  0  0  0  0
    3.7805    3.7307   28.3527 C   0  0  0  0  0  0
    4.8874    3.9498   29.4079 C   0  0  0  0  0  0
    4.4100    4.7567   30.5245 N   0  0  2  0  0  0
    3.2401    4.1606   31.1683 C   0  0  0  0  0  0
    0.7616    3.5569   30.8449 C   0  0  0  0  0  0
   -6.0991   -1.0368   30.4700 C   0  0  0  0  0  0
   -5.4881   -2.0087   31.2914 C   0  0  0  0  0  0
   -4.0508   -1.6884   32.2057 Cl  0  0  0  0  0  0
   -6.0198   -3.2947   31.3783 C   0  0  0  0  0  0
   -7.1590   -3.6386   30.6582 C   0  0  0  0  0  0
   -7.7726   -2.6974   29.8384 C   0  0  0  0  0  0
   -8.8797   -3.0535   29.1411 F   0  0  0  0  0  0
   -7.2485   -1.4048   29.7306 C   0  0  0  0  0  0
   -8.0449   -0.3067   28.6464 Cl  0  0  0  0  0  0
   -4.0427   -0.3513   28.8708 H   0  0  0  0  0  0
   -5.4109    0.4907   28.1705 H   0  0  0  0  0  0
   -4.1169    1.3913   28.9127 H   0  0  0  0  0  0
   -4.7845    0.5266   31.1630 H   0  0  0  0  0  0
   -4.0690    2.5708   30.6622 H   0  0  0  0  0  0
   -5.7035    6.5132   30.6080 H   0  0  0  0  0  0
   -8.7822    2.2174   30.3600 H   0  0  0  0  0  0
   -9.3304    3.8973   30.3553 H   0  0  0  0  0  0
   -3.4335    7.1565   29.8126 H   0  0  0  0  0  0
   -1.9805    3.4688   31.4024 H   0  0  0  0  0  0
    0.5989    5.4988   31.8792 H   0  0  0  0  0  0
    0.8531    5.2890   28.8118 H   0  0  0  0  0  0
    1.8670    6.2461   29.8981 H   0  0  0  0  0  0
    2.6586    2.1300   29.2770 H   0  0  0  0  0  0
    1.7032    3.1092   28.2036 H   0  0  0  0  0  0
    4.1489    3.0521   27.5855 H   0  0  0  0  0  0
    3.5757    4.6610   27.8276 H   0  0  0  0  0  0
    5.2385    2.9933   29.7999 H   0  0  0  0  0  0
    5.7491    4.4440   28.9561 H   0  0  0  0  0  0
    4.1212    5.6463   30.1425 H   0  0  0  0  0  0
    2.9534    4.7599   32.0316 H   0  0  0  0  0  0
    3.5083    3.1799   31.5639 H   0  0  0  0  0  0
    0.8538    3.0356   31.7987 H   0  0  0  0  0  0
    0.1296    2.9554   30.1892 H   0  0  0  0  0  0
   -5.5346   -4.0374   31.9965 H   0  0  0  0  0  0
   -7.5600   -4.6392   30.7287 H   0  0  0  0  0  0
  1  2  1  0  0  0
  1 34  1  0  0  0
  1 35  1  0  0  0
  1 36  1  0  0  0
  2  3  1  0  0  0
  2 25  1  0  0  0
  2 37  1  0  0  0
  3  4  1  0  0  0
  4  5  2  0  0  0
  4  9  1  0  0  0
  5  6  1  0  0  0
  5 38  1  0  0  0
  6  7  2  0  0  0
  6 11  1  0  0  0
  7  8  1  0  0  0
  7 39  1  0  0  0
  8  9  2  0  0  0
  9 10  1  0  0  0
 10 40  1  0  0  0
 10 41  1  0  0  0
 11 12  1  0  0  0
 11 15  2  0  0  0
 12 13  2  0  0  0
 12 42  1  0  0  0
 13 14  1  0  0  0
 14 15  1  0  0  0
 14 16  1  0  0  0
 15 43  1  0  0  0
 16 17  1  0  0  0
 16 24  1  0  0  0
 16 44  1  0  0  0
 17 18  1  0  0  0
 17 45  1  0  0  0
 17 46  1  0  0  0
 18 19  1  0  0  0
 18 23  1  0  0  0
 18 24  1  0  0  0
 19 20  1  0  0  0
 19 47  1  0  0  0
 19 48  1  0  0  0
 20 21  1  0  0  0
 20 49  1  0  0  0
 20 50  1  0  0  0
 21 22  1  0  0  0
 21 51  1  0  0  0
 21 52  1  0  0  0
 22 23  1  0  0  0
 22 53  1  0  0  0
 23 54  1  0  0  0
 23 55  1  0  0  0
 24 56  1  0  0  0
 24 57  1  0  0  0
 25 26  2  0  0  0
 25 32  1  0  0  0
 26 27  1  0  0  0
 26 28  1  0  0  0
 28 29  2  0  0  0
 28 58  1  0  0  0
 29 30  1  0  0  0
 29 59  1  0  0  0
 30 31  1  0  0  0
 30 32  2  0  0  0
 32 33  1  0  0  0
M  END
> <s_m_entry_id>
10377

> <s_m_entry_name>
dock_pv.446

> <s_m_Source_Path>
/home/csk/Desktop/cluster/DUD-E-result/met

> <s_m_Source_File>
dock_pv.maegz

> <i_m_Source_File_Index>
446

> <chembl_id>
CHEMBL4114311

> <chembl_pref_name>
None

> <i_lp_mmshare_version>
53161

> <i_f3d_flags>
0

> <r_lp_tautomer_probability>
0.999999404453161

> <s_lp_Force_Field>
OPLS_2005

> <r_lp_Energy>
42.207497

> <b_lp_Chiralities_Consistent>
1

> <s_lp_Variant>
CHEMBL3717_lig2808-1

> <s_i_glide_gridfile>
glide-grid_3lq8

> <i_i_glide_lignum>
3407

> <i_i_glide_rotatable_bonds>
5

> <r_i_docking_score>
-7.33658134219223

> <r_i_glide_ligand_efficiency>
-0.222320646733098

> <r_i_glide_ligand_efficiency_sa>
-0.713101105832165

> <r_i_glide_ligand_efficiency_ln>
-1.63161770371837

> <r_i_glide_gscore>
-7.33658134219223

> <r_i_glide_lipo>
-4.13204581794791

> <r_i_glide_hbond>
0

> <r_i_glide_metal>
0

> <r_i_glide_rewards>
-1.1652246763286

> <r_i_glide_evdw>
-49.0301666259766

> <r_i_glide_ecoul>
-0.0726597085595131

> <r_i_glide_erotb>
0.423096439667043

> <r_i_glide_esite>
0

> <r_i_glide_emodel>
-68.7752067199427

> <r_i_glide_energy>
-49.1028263345361

> <r_i_glide_einternal>
4.20866584777832

> <i_i_glide_confnum>
16

> <i_i_glide_posenum>
121

> <r_i_glide_eff_state_penalty>
0

> <s_user_duplicate_titles>
CHEMBL3717_lig2808

> <s_m_subgroup_title>
dock_pv

> <s_m_subgroupid>
dock_pv

> <b_m_subgroup_collapsed>
1

$$$$
CHEMBL3717_lig3926
                    3D
 Schrodinger Suite 2021-1.
 45 47  0  0  1  0            999 V2000
   -0.8110    6.8259   30.5347 F   0  0  0  0  0  0
   -5.8108    5.8429   31.0080 O   0  0  0  0  0  0
   -9.0049    3.8303   34.8891 O   0  0  0  0  0  0
   -5.9895    3.7338   30.2080 N   0  0  0  0  0  0
    3.2833    3.7243   30.4995 N   0  0  0  0  0  0
   -0.9552    4.4490   30.6080 C   0  0  0  0  0  0
   -3.7784    4.6752   30.6080 C   0  0  0  0  0  0
   -1.5661    5.7081   30.6080 C   0  0  0  0  0  0
    0.5167    4.2591   30.5524 C   0  0  0  0  0  0
   -5.2855    4.8034   30.6265 C   0  0  0  0  0  0
   -2.9615    5.8189   30.6162 C   0  0  0  0  0  0
   -1.7722    3.3224   30.6183 C   0  0  0  0  0  0
   -3.1579    3.4192   30.6080 C   0  0  0  0  0  0
   -7.4455    3.5352   30.2119 C   0  0  1  0  0  0
   -7.9362    2.8755   31.5032 C   0  0  0  0  0  0
    1.1060    3.6067   29.4594 C   0  0  0  0  0  0
    1.3426    4.6564   31.6100 C   0  0  0  0  0  0
   -8.2534    3.6276   32.6440 C   0  0  0  0  0  0
   -8.7289    3.0136   33.8079 C   0  0  0  0  0  0
   -8.1139    1.4883   31.5362 C   0  0  0  0  0  0
    2.4806    3.3644   29.4676 C   0  0  0  0  0  0
    2.7060    4.3570   31.5512 C   0  0  0  0  0  0
   -8.8940    1.6189   33.8144 C   0  0  0  0  0  0
   -8.5860    0.8629   32.6862 C   0  0  0  0  0  0
   -8.2931    4.7471   29.7606 C   0  0  0  0  0  0
   -9.5243    3.2406   36.0801 C   0  0  0  0  0  0
   -5.4551    2.9135   29.9716 H   0  0  0  0  0  0
   -3.4063    6.8035   30.6136 H   0  0  0  0  0  0
   -1.3120    2.3570   30.6196 H   0  0  0  0  0  0
   -3.7303    2.5028   30.6238 H   0  0  0  0  0  0
   -7.6001    2.8068   29.4130 H   0  0  0  0  0  0
    0.5058    3.2746   28.6241 H   0  0  0  0  0  0
    0.9308    5.1570   32.4742 H   0  0  0  0  0  0
   -8.1192    4.6981   32.6377 H   0  0  0  0  0  0
   -7.8827    0.8839   30.6709 H   0  0  0  0  0  0
    2.9553    2.8545   28.6415 H   0  0  0  0  0  0
    3.3645    4.6359   32.3596 H   0  0  0  0  0  0
   -9.2488    1.0984   34.6903 H   0  0  0  0  0  0
   -8.7100   -0.2099   32.7061 H   0  0  0  0  0  0
   -9.3315    4.4606   29.5926 H   0  0  0  0  0  0
   -8.2957    5.5570   30.4883 H   0  0  0  0  0  0
   -7.9182    5.1570   28.8241 H   0  0  0  0  0  0
   -9.6940    4.0124   36.8301 H   0  0  0  0  0  0
  -10.4811    2.7492   35.8967 H   0  0  0  0  0  0
   -8.8305    2.5171   36.5100 H   0  0  0  0  0  0
  1  8  1  0  0  0
  2 10  2  0  0  0
  3 19  1  0  0  0
  3 26  1  0  0  0
  4 10  1  0  0  0
  4 14  1  0  0  0
  4 27  1  0  0  0
  5 21  2  0  0  0
  5 22  1  0  0  0
  6  8  1  0  0  0
  6  9  1  0  0  0
  6 12  2  0  0  0
  7 10  1  0  0  0
  7 11  1  0  0  0
  7 13  2  0  0  0
  8 11  2  0  0  0
  9 16  2  0  0  0
  9 17  1  0  0  0
 11 28  1  0  0  0
 12 13  1  0  0  0
 12 29  1  0  0  0
 13 30  1  0  0  0
 14 15  1  0  0  0
 14 25  1  0  0  0
 14 31  1  0  0  0
 15 18  2  0  0  0
 15 20  1  0  0  0
 16 21  1  0  0  0
 16 32  1  0  0  0
 17 22  2  0  0  0
 17 33  1  0  0  0
 18 19  1  0  0  0
 18 34  1  0  0  0
 19 23  2  0  0  0
 20 24  2  0  0  0
 20 35  1  0  0  0
 21 36  1  0  0  0
 22 37  1  0  0  0
 23 24  1  0  0  0
 23 38  1  0  0  0
 24 39  1  0  0  0
 25 40  1  0  0  0
 25 41  1  0  0  0
 25 42  1  0  0  0
 26 43  1  0  0  0
 26 44  1  0  0  0
 26 45  1  0  0  0
M  END
> <s_m_entry_id>
10380

> <s_m_entry_name>
dock_pv.449

> <s_m_Source_Path>
/home/csk/Desktop/cluster/DUD-E-result/met

> <s_m_Source_File>
dock_pv.maegz

> <i_m_Source_File_Index>
449

> <chembl_id>
CHEMBL2004934

> <chembl_pref_name>
None

> <i_lp_mmshare_version>
53161

> <i_f3d_flags>
0

> <r_lp_tautomer_probability>
1

> <s_lp_Force_Field>
OPLS_2005

> <r_lp_Energy>
17.178473

> <b_lp_Chiralities_Consistent>
1

> <s_lp_Variant>
CHEMBL3717_lig3926-2

> <s_i_glide_gridfile>
glide-grid_3lq8

> <i_i_glide_lignum>
4988

> <i_i_glide_rotatable_bonds>
6

> <r_i_docking_score>
-7.3306468753359

> <r_i_glide_ligand_efficiency>
-0.281947956743688

> <r_i_glide_ligand_efficiency_sa>
-0.835269712441539

> <r_i_glide_ligand_efficiency_ln>
-1.72157836485832

> <r_i_glide_gscore>
-7.3306468753359

> <r_i_glide_lipo>
-3.17105223677443

> <r_i_glide_hbond>
-0.286104178798136

> <r_i_glide_metal>
0

> <r_i_glide_rewards>
-2.61520013044045

> <r_i_glide_evdw>
-37.3058547973633

> <r_i_glide_ecoul>
-1.12834692001343

> <r_i_glide_erotb>
0.776254448547296

> <r_i_glide_esite>
0

> <r_i_glide_emodel>
-51.593069671202

> <r_i_glide_energy>
-38.4342017173767

> <r_i_glide_einternal>
9.35773658752441

> <i_i_glide_confnum>
17

> <i_i_glide_posenum>
276

> <r_i_glide_eff_state_penalty>
0

> <s_user_duplicate_titles>
CHEMBL3717_lig3926

> <s_m_subgroup_title>
dock_pv

> <s_m_subgroupid>
dock_pv

> <b_m_subgroup_collapsed>
1

$$$$
CHEMBL3717_lig3879
                    3D
 Schrodinger Suite 2021-1.
 35 37  0  0  1  0            999 V2000
   -4.8398    0.7161   28.6079 O   0  0  0  0  0  0
   -5.6624    4.7132   30.6074 N   0  0  0  0  0  0
   -6.3639    2.5009   30.5990 N   0  0  0  0  0  0
    3.1066    4.3566   31.4110 N   0  0  0  0  0  0
   -2.9336    3.9922   30.6081 C   0  0  0  0  0  0
   -3.3084    5.3659   30.6105 C   0  0  0  0  0  0
   -0.5754    4.6449   30.6069 C   0  0  0  0  0  0
   -1.5607    3.6551   30.6087 C   0  0  0  0  0  0
   -3.9522    3.0073   30.6078 C   0  0  0  0  0  0
   -5.2959    3.4090   30.6073 C   0  0  0  0  0  0
    0.8565    4.2811   30.5041 C   0  0  0  0  0  0
   -2.3028    6.3570   30.6079 C   0  0  0  0  0  0
   -0.9594    5.9862   30.6082 C   0  0  0  0  0  0
   -4.6897    5.6525   30.6123 C   0  0  0  0  0  0
    1.7849    4.6639   31.4773 C   0  0  0  0  0  0
    1.3362    3.5570   29.4057 C   0  0  0  0  0  0
    2.6915    3.2373   29.3120 C   0  0  0  0  0  0
    3.5424    3.6536   30.3349 C   0  0  0  0  0  0
   -6.1910    1.0478   30.6464 C   0  0  0  0  0  0
   -6.0350    0.3601   29.2757 C   0  0  0  0  0  0
   -4.6810    0.0550   27.9151 H   0  0  0  0  0  0
   -7.2765    2.8712   30.3739 H   0  0  0  0  0  0
   -1.2875    2.6126   30.5947 H   0  0  0  0  0  0
   -3.6647    1.9674   30.5981 H   0  0  0  0  0  0
   -2.5785    7.4007   30.6040 H   0  0  0  0  0  0
   -0.2039    6.7587   30.5862 H   0  0  0  0  0  0
   -5.0263    6.6792   30.6062 H   0  0  0  0  0  0
    1.4717    5.2212   32.3472 H   0  0  0  0  0  0
    0.6610    3.2420   28.6222 H   0  0  0  0  0  0
    3.0696    2.6789   28.4677 H   0  0  0  0  0  0
    4.5984    3.4267   30.3007 H   0  0  0  0  0  0
   -7.0124    0.5934   31.2027 H   0  0  0  0  0  0
   -5.3259    0.7987   31.2611 H   0  0  0  0  0  0
   -6.8015    0.7733   28.6172 H   0  0  0  0  0  0
   -6.2701   -0.7043   29.2986 H   0  0  0  0  0  0
  1 20  1  0  0  0
  1 21  1  0  0  0
  2 10  1  0  0  0
  2 14  2  0  0  0
  3 10  1  0  0  0
  3 19  1  0  0  0
  3 22  1  0  0  0
  4 15  2  0  0  0
  4 18  1  0  0  0
  5  6  1  0  0  0
  5  8  2  0  0  0
  5  9  1  0  0  0
  6 12  2  0  0  0
  6 14  1  0  0  0
  7  8  1  0  0  0
  7 11  1  0  0  0
  7 13  2  0  0  0
  8 23  1  0  0  0
  9 10  2  0  0  0
  9 24  1  0  0  0
 11 15  1  0  0  0
 11 16  2  0  0  0
 12 13  1  0  0  0
 12 25  1  0  0  0
 13 26  1  0  0  0
 14 27  1  0  0  0
 15 28  1  0  0  0
 16 17  1  0  0  0
 16 29  1  0  0  0
 17 18  2  0  0  0
 17 30  1  0  0  0
 18 31  1  0  0  0
 19 20  1  0  0  0
 19 32  1  0  0  0
 19 33  1  0  0  0
 20 34  1  0  0  0
 20 35  1  0  0  0
M  END
> <s_m_entry_id>
10381

> <s_m_entry_name>
dock_pv.450

> <s_m_Source_Path>
/home/csk/Desktop/cluster/DUD-E-result/met

> <s_m_Source_File>
dock_pv.maegz

> <i_m_Source_File_Index>
450

> <chembl_id>
CHEMBL1990912

> <chembl_pref_name>
None

> <i_lp_mmshare_version>
53161

> <i_f3d_flags>
0

> <r_lp_tautomer_probability>
1

> <s_lp_Force_Field>
OPLS_2005

> <r_lp_Energy>
15.553495

> <b_lp_Chiralities_Consistent>
1

> <s_lp_Variant>
CHEMBL3717_lig3879-1

> <s_i_glide_gridfile>
glide-grid_3lq8

> <i_i_glide_lignum>
4925

> <i_i_glide_rotatable_bonds>
5

> <r_i_docking_score>
-7.33026916951372

> <r_i_glide_ligand_efficiency>
-0.366513458475686

> <r_i_glide_ligand_efficiency_sa>
-0.994870587412073

> <r_i_glide_ligand_efficiency_ln>
-1.83452460467123

> <r_i_glide_gscore>
-7.33026916951372

> <r_i_glide_lipo>
-3.45699936348318

> <r_i_glide_hbond>
-0.245691432392348

> <r_i_glide_metal>
0

> <r_i_glide_rewards>
-2.42516043979438

> <r_i_glide_evdw>
-33.170825958252

> <r_i_glide_ecoul>
-3.70011353492737

> <r_i_glide_erotb>
1.01114039430789

> <r_i_glide_esite>
0

> <r_i_glide_emodel>
-50.0238006343571

> <r_i_glide_energy>
-36.8709394931793

> <r_i_glide_einternal>
8.3234977722168

> <i_i_glide_confnum>
6

> <i_i_glide_posenum>
383

> <r_i_glide_eff_state_penalty>
0

> <s_user_duplicate_titles>
CHEMBL3717_lig3879

> <s_m_subgroup_title>
dock_pv

> <s_m_subgroupid>
dock_pv

> <b_m_subgroup_collapsed>
1

$$$$
CHEMBL3717_lig3893
                    3D
 Schrodinger Suite 2021-1.
 37 39  0  0  1  0            999 V2000
   -4.4922    3.5288   30.4590 N   0  0  0  0  0  0
   -6.7888    2.8284   30.2629 N   0  0  0  0  0  0
   -3.9743    5.8586   30.7169 N   0  0  0  0  0  0
   -2.0531    7.0507   30.1939 N   0  0  0  0  0  0
   -5.4502    2.5706   30.3107 C   0  0  0  0  0  0
   -4.9048    4.8177   30.6055 C   0  0  0  0  0  0
   -5.0072    1.1354   30.2464 C   0  0  0  0  0  0
   -7.1750    4.1224   30.4008 C   0  0  0  0  0  0
   -6.2589    5.1563   30.6003 C   0  0  0  0  0  0
   -2.5756    5.8854   30.6455 C   0  0  0  0  0  0
   -3.7014    0.7619   30.6118 C   0  0  0  0  0  0
   -5.8895    0.1214   29.8392 C   0  0  0  0  0  0
   -1.7630    4.8021   31.0086 C   0  0  0  0  0  0
   -0.3754    4.9148   30.8616 C   0  0  0  0  0  0
   -0.7097    7.1359   30.0174 C   0  0  0  0  0  0
   -8.6630    4.3923   30.3005 C   0  0  0  0  0  0
    0.1607    6.0935   30.3372 C   0  0  0  0  0  0
   -3.2979   -0.5715   30.5850 C   0  0  0  0  0  0
   -5.4889   -1.2119   29.8085 C   0  0  0  0  0  0
   -4.1943   -1.5554   30.1830 C   0  0  0  0  0  0
    0.5367    3.7661   31.2476 C   0  0  0  0  0  0
   -4.3935    6.7611   30.5720 H   0  0  0  0  0  0
   -6.5846    6.1827   30.6779 H   0  0  0  0  0  0
   -2.9856    1.5027   30.9315 H   0  0  0  0  0  0
   -6.8998    0.3583   29.5401 H   0  0  0  0  0  0
   -2.1874    3.8959   31.4074 H   0  0  0  0  0  0
   -0.3310    8.0722   29.6335 H   0  0  0  0  0  0
   -8.8819    5.4600   30.3052 H   0  0  0  0  0  0
   -9.0640    3.9799   29.3734 H   0  0  0  0  0  0
   -9.1905    3.9315   31.1361 H   0  0  0  0  0  0
    1.2259    6.2092   30.1989 H   0  0  0  0  0  0
   -2.2915   -0.8453   30.8677 H   0  0  0  0  0  0
   -6.1777   -1.9782   29.4873 H   0  0  0  0  0  0
   -3.8827   -2.5912   30.1563 H   0  0  0  0  0  0
    1.3150    3.6319   30.4947 H   0  0  0  0  0  0
   -0.0073    2.8229   31.3155 H   0  0  0  0  0  0
    1.0227    3.9687   32.2042 H   0  0  0  0  0  0
  1  5  2  0  0  0
  1  6  1  0  0  0
  2  5  1  0  0  0
  2  8  2  0  0  0
  3  6  1  0  0  0
  3 10  1  0  0  0
  3 22  1  0  0  0
  4 10  1  0  0  0
  4 15  2  0  0  0
  5  7  1  0  0  0
  6  9  2  0  0  0
  7 11  2  0  0  0
  7 12  1  0  0  0
  8  9  1  0  0  0
  8 16  1  0  0  0
  9 23  1  0  0  0
 10 13  2  0  0  0
 11 18  1  0  0  0
 11 24  1  0  0  0
 12 19  2  0  0  0
 12 25  1  0  0  0
 13 14  1  0  0  0
 13 26  1  0  0  0
 14 17  2  0  0  0
 14 21  1  0  0  0
 15 17  1  0  0  0
 15 27  1  0  0  0
 16 28  1  0  0  0
 16 29  1  0  0  0
 16 30  1  0  0  0
 17 31  1  0  0  0
 18 20  2  0  0  0
 18 32  1  0  0  0
 19 20  1  0  0  0
 19 33  1  0  0  0
 20 34  1  0  0  0
 21 35  1  0  0  0
 21 36  1  0  0  0
 21 37  1  0  0  0
M  END
> <s_m_entry_id>
10382

> <s_m_entry_name>
dock_pv.451

> <s_m_Source_Path>
/home/csk/Desktop/cluster/DUD-E-result/met

> <s_m_Source_File>
dock_pv.maegz

> <i_m_Source_File_Index>
451

> <chembl_id>
CHEMBL1985367

> <chembl_pref_name>
None

> <i_lp_mmshare_version>
53161

> <i_f3d_flags>
0

> <r_lp_tautomer_probability>
0.999999355400416

> <s_lp_Force_Field>
OPLS_2005

> <r_lp_Energy>
12.805468

> <b_lp_Chiralities_Consistent>
1

> <s_lp_Variant>
CHEMBL3717_lig3893-1

> <s_i_glide_gridfile>
glide-grid_3lq8

> <i_i_glide_lignum>
4941

> <i_i_glide_rotatable_bonds>
3

> <r_i_docking_score>
-7.32618096909286

> <r_i_glide_ligand_efficiency>
-0.348865760432993

> <r_i_glide_ligand_efficiency_sa>
-0.962494179793392

> <r_i_glide_ligand_efficiency_ln>
-1.81138344066565

> <r_i_glide_gscore>
-7.32618096909286

> <r_i_glide_lipo>
-2.78804124458317

> <r_i_glide_hbond>
-0.0310817925078963

> <r_i_glide_metal>
0

> <r_i_glide_rewards>
-2.92242537498158

> <r_i_glide_evdw>
-36.8115196228027

> <r_i_glide_ecoul>
-3.00547480583191

> <r_i_glide_erotb>
0.70676464499471

> <r_i_glide_esite>
0

> <r_i_glide_emodel>
-54.6768777650332

> <r_i_glide_energy>
-39.8169944286346

> <r_i_glide_einternal>
4.23159217834473

> <i_i_glide_confnum>
2

> <i_i_glide_posenum>
297

> <r_i_glide_eff_state_penalty>
0

> <s_user_duplicate_titles>
CHEMBL3717_lig3893

> <s_m_subgroup_title>
dock_pv

> <s_m_subgroupid>
dock_pv

> <b_m_subgroup_collapsed>
1

$$$$
CHEMBL3717_lig4266
                    3D
 Schrodinger Suite 2021-1.
 53 55  0  0  1  0            999 V2000
   -1.7595   -2.4260   32.0270 N   0  0  0  0  0  0
   -1.1725   -1.8168   33.0813 C   0  0  0  0  0  0
   -1.4021   -0.4857   33.4029 C   0  0  0  0  0  0
   -2.2914    0.2408   32.6080 C   0  0  0  0  0  0
   -2.8934   -0.3398   31.4719 C   0  0  0  0  0  0
   -2.5964   -1.7083   31.2388 C   0  0  0  0  0  0
   -3.1192   -2.4430   30.1775 N   0  0  0  0  0  0
   -3.8192    0.4728   30.5835 C   0  0  0  0  0  0
   -3.8519    1.9835   30.6204 C   0  0  0  0  0  0
   -4.5817   -0.1058   29.8090 O   0  0  0  0  0  0
   -2.6363    2.6072   30.6539 N   0  0  0  0  0  0
   -2.5467    3.9665   30.6170 C   0  0  0  0  0  0
   -3.7072    4.7465   30.5431 C   0  0  0  0  0  0
   -4.9510    4.1270   30.5064 C   0  0  0  0  0  0
   -5.0564    2.7298   30.5441 C   0  0  0  0  0  0
   -1.2660    4.5342   30.6079 N   0  0  0  0  0  0
   -1.0099    5.9764   30.4198 C   0  0  0  0  0  0
    0.2753    6.3308   29.6401 C   0  0  0  0  0  0
    1.4315    5.6272   30.1722 N   0  0  1  0  0  0
    1.2009    4.1931   30.0716 C   0  0  2  0  0  0
   -0.0152    3.8289   30.9669 C   0  0  0  0  0  0
    2.4561    3.3747   30.4612 C   0  0  0  0  0  0
    3.6965    3.4713   29.5255 C   0  0  0  0  0  0
    4.4414    4.8093   29.5841 C   0  0  0  0  0  0
    3.3885    3.0834   28.0656 C   0  0  0  0  0  0
   -6.4612    2.0979   30.5880 C   0  0  0  0  0  0
   -6.5388    1.1599   31.5329 F   0  0  0  0  0  0
   -7.4031    3.0023   30.8631 F   0  0  0  0  0  0
   -6.7574    1.5565   29.4081 F   0  0  0  0  0  0
   -0.4943   -2.4222   33.6648 H   0  0  0  0  0  0
   -0.9077   -0.0399   34.2534 H   0  0  0  0  0  0
   -2.4763    1.2687   32.8748 H   0  0  0  0  0  0
   -3.8042   -1.9956   29.5818 H   0  0  0  0  0  0
   -2.9889   -3.4499   30.1751 H   0  0  0  0  0  0
   -3.6779    5.8231   30.5227 H   0  0  0  0  0  0
   -5.8339    4.7494   30.4562 H   0  0  0  0  0  0
   -1.8354    6.4745   29.9164 H   0  0  0  0  0  0
   -0.9435    6.4120   31.4079 H   0  0  0  0  0  0
    0.1640    6.1088   28.5776 H   0  0  0  0  0  0
    0.4680    7.4030   29.6914 H   0  0  0  0  0  0
    2.2420    5.8601   29.6172 H   0  0  0  0  0  0
    0.9603    3.9299   29.0395 H   0  0  0  0  0  0
   -0.1751    2.7570   30.9296 H   0  0  0  0  0  0
    0.2276    4.0661   32.0024 H   0  0  0  0  0  0
    2.1696    2.3248   30.5164 H   0  0  0  0  0  0
    2.7552    3.6398   31.4767 H   0  0  0  0  0  0
    4.4217    2.7568   29.9070 H   0  0  0  0  0  0
    3.9030    5.5644   29.0248 H   0  0  0  0  0  0
    5.4321    4.7272   29.1338 H   0  0  0  0  0  0
    4.5738    5.1557   30.6086 H   0  0  0  0  0  0
    2.6769    3.7679   27.6034 H   0  0  0  0  0  0
    4.2931    3.1143   27.4577 H   0  0  0  0  0  0
    2.9721    2.0776   27.9941 H   0  0  0  0  0  0
  1  6  1  0  0  0
  1  2  2  0  0  0
  2  3  1  0  0  0
  2 30  1  0  0  0
  3  4  2  0  0  0
  3 31  1  0  0  0
  4  5  1  0  0  0
  4 32  1  0  0  0
  5  8  1  0  0  0
  5  6  2  0  0  0
  6  7  1  0  0  0
  7 33  1  0  0  0
  7 34  1  0  0  0
  8  9  1  0  0  0
  8 10  2  0  0  0
  9 15  1  0  0  0
  9 11  2  0  0  0
 11 12  1  0  0  0
 12 16  1  0  0  0
 12 13  2  0  0  0
 13 14  1  0  0  0
 13 35  1  0  0  0
 14 15  2  0  0  0
 14 36  1  0  0  0
 15 26  1  0  0  0
 16 17  1  0  0  0
 16 21  1  0  0  0
 17 18  1  0  0  0
 17 37  1  0  0  0
 17 38  1  0  0  0
 18 19  1  0  0  0
 18 39  1  0  0  0
 18 40  1  0  0  0
 19 20  1  0  0  0
 19 41  1  0  0  0
 20 21  1  0  0  0
 20 22  1  0  0  0
 20 42  1  0  0  0
 21 43  1  0  0  0
 21 44  1  0  0  0
 22 23  1  0  0  0
 22 45  1  0  0  0
 22 46  1  0  0  0
 23 24  1  0  0  0
 23 25  1  0  0  0
 23 47  1  0  0  0
 24 48  1  0  0  0
 24 49  1  0  0  0
 24 50  1  0  0  0
 25 51  1  0  0  0
 25 52  1  0  0  0
 25 53  1  0  0  0
 26 27  1  0  0  0
 26 28  1  0  0  0
 26 29  1  0  0  0
M  END
> <s_m_entry_id>
10383

> <s_m_entry_name>
dock_pv.452

> <s_m_Source_Path>
/home/csk/Desktop/cluster/DUD-E-result/met

> <s_m_Source_File>
dock_pv.maegz

> <i_m_Source_File_Index>
452

> <chembl_id>
CHEMBL2046643

> <chembl_pref_name>
None

> <i_lp_mmshare_version>
53161

> <i_f3d_flags>
0

> <r_lp_tautomer_probability>
1

> <s_lp_Force_Field>
OPLS_2005

> <r_lp_Energy>
43.381468

> <b_lp_Chiralities_Consistent>
1

> <s_lp_Variant>
CHEMBL3717_lig4266-1

> <s_i_glide_gridfile>
glide-grid_3lq8

> <i_i_glide_lignum>
5481

> <i_i_glide_rotatable_bonds>
6

> <r_i_docking_score>
-7.32417662056823

> <r_i_glide_ligand_efficiency>
-0.252557814502353

> <r_i_glide_ligand_efficiency_sa>
-0.775937622083087

> <r_i_glide_ligand_efficiency_ln>
-1.67705072101583

> <r_i_glide_gscore>
-7.32417662056823

> <r_i_glide_lipo>
-4.45142903882807

> <r_i_glide_hbond>
-0.0749306029174637

> <r_i_glide_metal>
0

> <r_i_glide_rewards>
-1.05798310319511

> <r_i_glide_evdw>
-41.3941078186035

> <r_i_glide_ecoul>
-0.713951647281647

> <r_i_glide_erotb>
0.47401469193615

> <r_i_glide_esite>
-0.0370504295413134

> <r_i_glide_emodel>
-56.70628476993

> <r_i_glide_energy>
-42.1080594658852

> <r_i_glide_einternal>
2.91833162307739

> <i_i_glide_confnum>
1

> <i_i_glide_posenum>
302

> <r_i_glide_eff_state_penalty>
0

> <s_user_duplicate_titles>
CHEMBL3717_lig4266

> <s_m_subgroup_title>
dock_pv

> <s_m_subgroupid>
dock_pv

> <b_m_subgroup_collapsed>
1

$$$$
CHEMBL3717_lig3860
                    3D
 Schrodinger Suite 2021-1.
 28 30  0  0  1  0            999 V2000
   -4.9423   -0.1255   29.9792 C   0  0  0  0  0  0
   -6.2576    0.3109   29.8143 C   0  0  0  0  0  0
   -6.5593    1.6656   29.9430 C   0  0  0  0  0  0
   -3.9388    0.7955   30.2598 C   0  0  0  0  0  0
   -4.2129    2.1688   30.3497 C   0  0  0  0  0  0
   -5.5550    2.6104   30.2080 C   0  0  0  0  0  0
   -5.8380    4.0017   30.3426 N   0  0  0  0  0  0
   -3.0752    3.1274   30.6080 C   0  0  0  0  0  0
   -3.4813    4.5261   30.6080 C   0  0  0  0  0  0
   -4.7682    4.8674   30.5266 C   0  0  0  0  0  0
   -4.8940    6.2356   30.6080 N   0  0  0  0  0  0
   -3.5745    6.7570   30.6769 O   0  0  0  0  0  0
   -2.7064    5.7434   30.6718 C   0  0  0  0  0  0
   -1.9194    2.7570   30.7981 O   0  0  0  0  0  0
   -1.4840    5.8629   30.7053 O   0  0  0  0  0  0
   -7.5281   -0.8070   29.4558 Cl  0  0  0  0  0  0
   -7.2174    4.5144   30.3991 C   0  0  0  0  0  0
   -7.8571    4.3296   31.7823 C   0  0  0  0  0  0
   -4.6128   -1.4516   29.8777 O   0  0  0  0  0  0
   -7.5890    1.9622   29.8260 H   0  0  0  0  0  0
   -2.9345    0.4186   30.3959 H   0  0  0  0  0  0
   -5.3788    6.7570   29.8812 H   0  0  0  0  0  0
   -7.2615    5.5686   30.1215 H   0  0  0  0  0  0
   -7.8301    4.0309   29.6384 H   0  0  0  0  0  0
   -8.8713    4.7292   31.7959 H   0  0  0  0  0  0
   -7.9147    3.2761   32.0575 H   0  0  0  0  0  0
   -7.2828    4.8443   32.5531 H   0  0  0  0  0  0
   -5.3108   -1.9776   29.4792 H   0  0  0  0  0  0
  1  4  1  0  0  0
  1  2  2  0  0  0
  1 19  1  0  0  0
  2  3  1  0  0  0
  2 16  1  0  0  0
  3  6  2  0  0  0
  3 20  1  0  0  0
  4  5  2  0  0  0
  4 21  1  0  0  0
  5  6  1  0  0  0
  5  8  1  0  0  0
  6  7  1  0  0  0
  7 17  1  0  0  0
  7 10  1  0  0  0
  8 14  2  0  0  0
  8  9  1  0  0  0
  9 10  2  0  0  0
  9 13  1  0  0  0
 10 11  1  0  0  0
 11 12  1  0  0  0
 11 22  1  0  0  0
 12 13  1  0  0  0
 13 15  2  0  0  0
 17 18  1  0  0  0
 17 23  1  0  0  0
 17 24  1  0  0  0
 18 25  1  0  0  0
 18 26  1  0  0  0
 18 27  1  0  0  0
 19 28  1  0  0  0
M  END
> <s_m_entry_id>
10384

> <s_m_entry_name>
dock_pv.453

> <s_m_Source_Path>
/home/csk/Desktop/cluster/DUD-E-result/met

> <s_m_Source_File>
dock_pv.maegz

> <i_m_Source_File_Index>
453

> <chembl_id>
CHEMBL523823

> <chembl_pref_name>
None

> <i_lp_mmshare_version>
53161

> <i_f3d_flags>
0

> <r_lp_tautomer_probability>
1

> <s_lp_Force_Field>
OPLS_2005

> <r_lp_Energy>
15.887928

> <b_lp_Chiralities_Consistent>
1

> <s_lp_Variant>
CHEMBL3717_lig3860-1

> <s_i_glide_gridfile>
glide-grid_3lq8

> <i_i_glide_lignum>
4900

> <i_i_glide_rotatable_bonds>
2

> <r_i_docking_score>
-7.32041665791232

> <r_i_glide_ligand_efficiency>
-0.385285087258543

> <r_i_glide_ligand_efficiency_sa>
-1.02809536105962

> <r_i_glide_ligand_efficiency_ln>
-1.85588285091415

> <r_i_glide_gscore>
-7.32041665791232

> <r_i_glide_lipo>
-1.42178861518227

> <r_i_glide_hbond>
-0.520050822073639

> <r_i_glide_metal>
0

> <r_i_glide_rewards>
-3.18788677475645

> <r_i_glide_evdw>
-27.0414123535156

> <r_i_glide_ecoul>
-5.59079885482788

> <r_i_glide_erotb>
0

> <r_i_glide_esite>
0

> <r_i_glide_emodel>
-46.8238671139556

> <r_i_glide_energy>
-32.6322112083435

> <r_i_glide_einternal>
0.192876696586609

> <i_i_glide_confnum>
1

> <i_i_glide_posenum>
351

> <r_i_glide_eff_state_penalty>
0

> <s_user_duplicate_titles>
CHEMBL3717_lig3860

> <s_m_subgroup_title>
dock_pv

> <s_m_subgroupid>
dock_pv

> <b_m_subgroup_collapsed>
1

$$$$
CHEMBL3717_lig1575
                    3D
 Schrodinger Suite 2021-1.
 44 46  0  0  1  0            999 V2000
   -1.3300    4.4144   30.8054 C   0  0  0  0  0  0
   -1.9553    5.6593   30.8786 C   0  0  0  0  0  0
   -3.2983    5.8301   30.7764 N   0  0  0  0  0  0
   -4.0690    4.7257   30.6080 C   0  0  0  0  0  0
   -3.5317    3.4265   30.5382 C   0  0  0  0  0  0
   -2.1434    3.2908   30.6345 C   0  0  0  0  0  0
    0.1520    4.2981   30.8856 C   0  0  0  0  0  0
   -5.4355    4.9613   30.4836 N   0  0  0  0  0  0
    1.0099    4.9056   31.8081 C   0  0  0  0  0  0
    2.2600    4.5364   31.6885 N   0  0  0  0  0  0
    2.2819    3.7479   30.6108 N   0  0  0  0  0  0
    1.0211    3.5570   30.0991 C   0  0  0  0  0  0
    3.5128    3.0533   30.2345 C   0  0  0  0  0  0
   -4.5641    2.0058   30.2091 S   0  0  0  0  0  0
   -3.7488    0.4402   30.7137 C   0  0  2  0  0  0
   -4.6205   -0.7985   30.4149 C   0  0  0  0  0  0
   -3.1698    0.3570   32.1380 C   0  0  0  0  0  0
   -4.0955   -1.8648   29.6519 C   0  0  0  0  0  0
   -4.8600   -3.0043   29.4088 C   0  0  0  0  0  0
   -6.1489   -3.1151   29.9135 C   0  0  0  0  0  0
   -6.6829   -2.0851   30.6780 C   0  0  0  0  0  0
   -5.9274   -0.9375   30.9447 C   0  0  0  0  0  0
   -6.6529    0.2624   31.9633 Cl  0  0  0  0  0  0
   -2.4931   -1.8562   28.9973 Cl  0  0  0  0  0  0
   -7.9356   -2.2199   31.1757 F   0  0  0  0  0  0
    4.7728    3.9411   30.3371 C   0  0  0  0  0  0
    5.9430    3.1588   30.2085 O   0  0  0  0  0  0
   -1.3703    6.5600   30.9979 H   0  0  0  0  0  0
   -1.6936    2.3177   30.5648 H   0  0  0  0  0  0
   -6.0347    4.1750   30.2792 H   0  0  0  0  0  0
   -5.7427    5.9115   30.3329 H   0  0  0  0  0  0
    0.7061    5.5632   32.6072 H   0  0  0  0  0  0
    0.8525    2.8929   29.2631 H   0  0  0  0  0  0
    3.5814    2.1896   30.8981 H   0  0  0  0  0  0
    3.3795    2.7403   29.1980 H   0  0  0  0  0  0
   -2.8938    0.4197   30.0496 H   0  0  0  0  0  0
   -2.5976   -0.5639   32.2698 H   0  0  0  0  0  0
   -2.4947    1.1829   32.3584 H   0  0  0  0  0  0
   -3.9588    0.3506   32.8882 H   0  0  0  0  0  0
   -4.4388   -3.8206   28.8399 H   0  0  0  0  0  0
   -6.7311   -4.0037   29.7241 H   0  0  0  0  0  0
    4.7389    4.7635   29.6219 H   0  0  0  0  0  0
    4.8237    4.4304   31.3105 H   0  0  0  0  0  0
    6.0154    2.8098   29.3058 H   0  0  0  0  0  0
  1  2  2  0  0  0
  1  6  1  0  0  0
  1  7  1  0  0  0
  2  3  1  0  0  0
  2 28  1  0  0  0
  3  4  2  0  0  0
  4  5  1  0  0  0
  4  8  1  0  0  0
  5  6  2  0  0  0
  5 14  1  0  0  0
  6 29  1  0  0  0
  7  9  1  0  0  0
  7 12  2  0  0  0
  8 30  1  0  0  0
  8 31  1  0  0  0
  9 10  2  0  0  0
  9 32  1  0  0  0
 10 11  1  0  0  0
 11 12  1  0  0  0
 11 13  1  0  0  0
 12 33  1  0  0  0
 13 26  1  0  0  0
 13 34  1  0  0  0
 13 35  1  0  0  0
 14 15  1  0  0  0
 15 16  1  0  0  0
 15 17  1  0  0  0
 15 36  1  0  0  0
 16 18  2  0  0  0
 16 22  1  0  0  0
 17 37  1  0  0  0
 17 38  1  0  0  0
 17 39  1  0  0  0
 18 19  1  0  0  0
 18 24  1  0  0  0
 19 20  2  0  0  0
 19 40  1  0  0  0
 20 21  1  0  0  0
 20 41  1  0  0  0
 21 22  2  0  0  0
 21 25  1  0  0  0
 22 23  1  0  0  0
 26 27  1  0  0  0
 26 42  1  0  0  0
 26 43  1  0  0  0
 27 44  1  0  0  0
M  END
> <s_m_entry_id>
10385

> <s_m_entry_name>
dock_pv.454

> <s_m_Source_Path>
/home/csk/Desktop/cluster/DUD-E-result/met

> <s_m_Source_File>
dock_pv.maegz

> <i_m_Source_File_Index>
454

> <chembl_id>
CHEMBL2442129

> <chembl_pref_name>
None

> <i_lp_mmshare_version>
53161

> <i_f3d_flags>
0

> <r_lp_tautomer_probability>
0.999999772200052

> <s_lp_Force_Field>
OPLS_2005

> <r_lp_Energy>
14.186604

> <b_lp_Chiralities_Consistent>
1

> <s_lp_Variant>
CHEMBL3717_lig1575-1

> <s_i_glide_gridfile>
glide-grid_3lq8

> <i_i_glide_lignum>
1824

> <i_i_glide_rotatable_bonds>
7

> <r_i_docking_score>
-7.31509518939803

> <r_i_glide_ligand_efficiency>
-0.270929451459186

> <r_i_glide_ligand_efficiency_sa>
-0.81278835348462

> <r_i_glide_ligand_efficiency_ln>
-1.70283356132236

> <r_i_glide_gscore>
-7.31509518939803

> <r_i_glide_lipo>
-3.2178117056876

> <r_i_glide_hbond>
-0.3543892813227

> <r_i_glide_metal>
0

> <r_i_glide_rewards>
-1.34537548986118

> <r_i_glide_evdw>
-39.2467918395996

> <r_i_glide_ecoul>
-7.25022029876709

> <r_i_glide_erotb>
0.652353924268495

> <r_i_glide_esite>
0

> <r_i_glide_emodel>
-59.9262647286143

> <r_i_glide_energy>
-46.4970121383667

> <r_i_glide_einternal>
10.7476863861084

> <i_i_glide_confnum>
21

> <i_i_glide_posenum>
111

> <r_i_glide_eff_state_penalty>
0

> <s_user_duplicate_titles>
CHEMBL3717_lig1575

> <s_m_subgroup_title>
dock_pv

> <s_m_subgroupid>
dock_pv

> <b_m_subgroup_collapsed>
1

$$$$
CHEMBL3717_lig4105
                    3D
 Schrodinger Suite 2021-1.
 38 41  0  0  1  0            999 V2000
   -7.3310    4.7675   31.6564 O   0  0  0  0  0  0
   -7.7204    3.9011   29.5839 O   0  0  0  0  0  0
   -2.9136    2.5395   30.6080 N   0  0  0  0  0  0
   -4.4491    4.4013   30.6071 C   0  0  0  0  0  0
   -3.1660    3.8704   30.6081 C   0  0  0  0  0  0
   -5.5601    3.5487   30.5977 C   0  0  0  0  0  0
   -5.3304    2.1307   30.5616 C   0  0  0  0  0  0
   -2.1399    4.9432   30.6105 C   0  0  0  0  0  0
   -3.9696    1.6789   30.5720 C   0  0  0  0  0  0
   -4.3916    5.8979   30.6472 C   0  0  0  0  0  0
   -2.9167    6.2408   30.5770 C   0  0  0  0  0  0
   -0.7954    4.8291   30.6107 C   0  0  0  0  0  0
   -6.9480    4.1276   30.6800 C   0  0  0  0  0  0
   -6.3624    1.1460   30.5339 C   0  0  0  0  0  0
   -3.6933    0.2901   30.5520 C   0  0  0  0  0  0
    0.2023    5.9801   30.4967 C   0  0  0  0  0  0
    0.0475    3.5572   30.6194 C   0  0  0  0  0  0
   -6.0528   -0.2110   30.5055 C   0  0  0  0  0  0
   -4.7303   -0.6357   30.5138 C   0  0  0  0  0  0
    1.4044    5.3552   29.8063 C   0  0  0  0  0  0
    1.5028    4.0050   30.4787 C   0  0  0  0  0  0
   -8.5702    4.3361   29.6804 H   0  0  0  0  0  0
   -4.8938    6.3567   29.8081 H   0  0  0  0  0  0
   -4.8311    6.2945   31.5620 H   0  0  0  0  0  0
   -2.6593    6.8688   31.4079 H   0  0  0  0  0  0
   -2.6692    6.8212   29.6926 H   0  0  0  0  0  0
   -7.4002    1.4441   30.5305 H   0  0  0  0  0  0
   -2.6679   -0.0509   30.5615 H   0  0  0  0  0  0
   -0.1721    6.8417   29.9421 H   0  0  0  0  0  0
    0.4918    6.3544   31.4784 H   0  0  0  0  0  0
   -0.1018    2.9414   31.5054 H   0  0  0  0  0  0
   -0.2307    2.9553   29.7557 H   0  0  0  0  0  0
   -6.8475   -0.9422   30.4777 H   0  0  0  0  0  0
   -4.5067   -1.6933   30.4895 H   0  0  0  0  0  0
    1.2209    5.2401   28.7362 H   0  0  0  0  0  0
    2.3047    5.9556   29.9272 H   0  0  0  0  0  0
    1.9665    4.1034   31.4624 H   0  0  0  0  0  0
    2.0999    3.2955   29.9038 H   0  0  0  0  0  0
  1 13  2  0  0  0
  2 13  1  0  0  0
  2 22  1  0  0  0
  3  5  2  0  0  0
  3  9  1  0  0  0
  4  5  1  0  0  0
  4  6  2  0  0  0
  4 10  1  0  0  0
  5  8  1  0  0  0
  6  7  1  0  0  0
  6 13  1  0  0  0
  7  9  1  0  0  0
  7 14  2  0  0  0
  8 11  1  0  0  0
  8 12  2  0  0  0
  9 15  2  0  0  0
 10 11  1  0  0  0
 10 23  1  0  0  0
 10 24  1  0  0  0
 11 25  1  0  0  0
 11 26  1  0  0  0
 12 16  1  0  0  0
 12 17  1  0  0  0
 14 18  1  0  0  0
 14 27  1  0  0  0
 15 19  1  0  0  0
 15 28  1  0  0  0
 16 20  1  0  0  0
 16 29  1  0  0  0
 16 30  1  0  0  0
 17 21  1  0  0  0
 17 31  1  0  0  0
 17 32  1  0  0  0
 18 19  2  0  0  0
 18 33  1  0  0  0
 19 34  1  0  0  0
 20 21  1  0  0  0
 20 35  1  0  0  0
 20 36  1  0  0  0
 21 37  1  0  0  0
 21 38  1  0  0  0
M  END
> <s_m_entry_id>
10386

> <s_m_entry_name>
dock_pv.455

> <s_m_Source_Path>
/home/csk/Desktop/cluster/DUD-E-result/met

> <s_m_Source_File>
dock_pv.maegz

> <i_m_Source_File_Index>
455

> <chembl_id>
CHEMBL1996831

> <chembl_pref_name>
None

> <i_lp_mmshare_version>
53161

> <i_f3d_flags>
0

> <r_lp_tautomer_probability>
1

> <s_lp_Force_Field>
OPLS_2005

> <r_lp_Energy>
44.925929

> <b_lp_Chiralities_Consistent>
1

> <s_lp_Variant>
CHEMBL3717_lig4105-1

> <s_i_glide_gridfile>
glide-grid_3lq8

> <i_i_glide_lignum>
5242

> <i_i_glide_rotatable_bonds>
2

> <r_i_docking_score>
-7.31164641013991

> <r_i_glide_ligand_efficiency>
-0.348173638578091

> <r_i_glide_ligand_efficiency_sa>
-0.960584668076838

> <r_i_glide_ligand_efficiency_ln>
-1.80778980033437

> <r_i_glide_gscore>
-7.31164641013991

> <r_i_glide_lipo>
-3.02443488755845

> <r_i_glide_hbond>
-0.0528329008860045

> <r_i_glide_metal>
0

> <r_i_glide_rewards>
-2.56215122995929

> <r_i_glide_evdw>
-30.0968284606934

> <r_i_glide_ecoul>
-2.6573646068573

> <r_i_glide_erotb>
0.231218722327089

> <r_i_glide_esite>
0

> <r_i_glide_emodel>
-46.647054698873

> <r_i_glide_energy>
-32.7541930675507

> <r_i_glide_einternal>
0.584283709526062

> <i_i_glide_confnum>
8

> <i_i_glide_posenum>
109

> <r_i_glide_eff_state_penalty>
0

> <s_user_duplicate_titles>
CHEMBL3717_lig4105

> <s_m_subgroup_title>
dock_pv

> <s_m_subgroupid>
dock_pv

> <b_m_subgroup_collapsed>
1

$$$$
CHEMBL3717_lig2610
                    3D
 Schrodinger Suite 2021-1.
 47 50  0  0  1  0            999 V2000
   -7.2651   -0.6930   28.9624 C   0  0  0  0  0  0
   -5.8965   -0.0232   29.1799 C   0  0  2  0  0  0
   -4.8496   -0.9650   29.8239 C   0  0  0  0  0  0
   -4.6116   -2.0939   29.0081 O   0  0  0  0  0  0
   -6.1398    1.1189   29.9945 O   0  0  0  0  0  0
   -5.0274    1.9856   29.9729 N   0  0  0  0  0  0
   -5.2964    3.1333   30.4668 C   0  0  0  0  0  0
   -6.6917    3.5392   30.9691 C   0  0  0  0  0  0
   -4.2732    4.2012   30.5050 C   0  0  0  0  0  0
   -4.6088    5.5570   30.3510 C   0  0  0  0  0  0
   -3.6845    6.5504   30.2869 N   0  0  0  0  0  0
   -2.4144    6.1564   30.3711 C   0  0  0  0  0  0
   -1.2804    6.8909   30.2081 N   0  0  0  0  0  0
   -0.2219    6.0448   30.4737 N   0  0  0  0  0  0
   -0.6966    4.7954   30.6994 N   0  0  0  0  0  0
    0.2045    3.6872   31.0087 C   0  0  0  0  0  0
    1.5508    3.7655   30.3021 C   0  0  0  0  0  0
    1.6052    3.5773   28.9220 C   0  0  0  0  0  0
    2.7955    3.7510   28.2263 C   0  0  0  0  0  0
    3.9716    4.1208   28.9189 C   0  0  0  0  0  0
    5.1061    4.3570   28.2080 N   0  0  0  0  0  0
    6.2456    4.6335   28.8776 C   0  0  0  0  0  0
    6.3146    4.7569   30.2577 C   0  0  0  0  0  0
    5.1515    4.5821   30.9949 C   0  0  0  0  0  0
    3.9383    4.2533   30.3383 C   0  0  0  0  0  0
    2.7090    4.0784   31.0187 C   0  0  0  0  0  0
   -2.0772    4.8051   30.6080 C   0  0  0  0  0  0
   -2.9679    3.8054   30.6618 N   0  0  0  0  0  0
   -7.1858   -1.5618   28.3083 H   0  0  0  0  0  0
   -7.6971   -1.0256   29.9067 H   0  0  0  0  0  0
   -7.9685   -0.0006   28.4993 H   0  0  0  0  0  0
   -5.5299    0.3096   28.2080 H   0  0  0  0  0  0
   -5.1820   -1.3005   30.8071 H   0  0  0  0  0  0
   -3.9009   -0.4465   29.9659 H   0  0  0  0  0  0
   -4.4940   -1.7892   28.0892 H   0  0  0  0  0  0
   -6.6444    4.3233   31.7259 H   0  0  0  0  0  0
   -7.2884    3.9272   30.1433 H   0  0  0  0  0  0
   -7.2449    2.7043   31.3999 H   0  0  0  0  0  0
   -5.6293    5.8844   30.2097 H   0  0  0  0  0  0
    0.3441    3.6711   32.0888 H   0  0  0  0  0  0
   -0.2968    2.7571   30.7421 H   0  0  0  0  0  0
    0.7069    3.3235   28.3765 H   0  0  0  0  0  0
    2.8174    3.6260   27.1538 H   0  0  0  0  0  0
    7.1293    4.7570   28.2693 H   0  0  0  0  0  0
    7.2469    5.0150   30.7385 H   0  0  0  0  0  0
    5.1651    4.7569   32.0591 H   0  0  0  0  0  0
    2.6759    4.2194   32.0894 H   0  0  0  0  0  0
  1  2  1  0  0  0
  1 29  1  0  0  0
  1 30  1  0  0  0
  1 31  1  0  0  0
  2  3  1  0  0  0
  2  5  1  0  0  0
  2 32  1  0  0  0
  3  4  1  0  0  0
  3 33  1  0  0  0
  3 34  1  0  0  0
  4 35  1  0  0  0
  5  6  1  0  0  0
  6  7  2  0  0  0
  7  8  1  0  0  0
  7  9  1  0  0  0
  8 36  1  0  0  0
  8 37  1  0  0  0
  8 38  1  0  0  0
  9 10  2  0  0  0
  9 28  1  0  0  0
 10 11  1  0  0  0
 10 39  1  0  0  0
 11 12  2  0  0  0
 12 13  1  0  0  0
 12 27  1  0  0  0
 13 14  2  0  0  0
 14 15  1  0  0  0
 15 16  1  0  0  0
 15 27  1  0  0  0
 16 17  1  0  0  0
 16 40  1  0  0  0
 16 41  1  0  0  0
 17 18  2  0  0  0
 17 26  1  0  0  0
 18 19  1  0  0  0
 18 42  1  0  0  0
 19 20  2  0  0  0
 19 43  1  0  0  0
 20 21  1  0  0  0
 20 25  1  0  0  0
 21 22  2  0  0  0
 22 23  1  0  0  0
 22 44  1  0  0  0
 23 24  2  0  0  0
 23 45  1  0  0  0
 24 25  1  0  0  0
 24 46  1  0  0  0
 25 26  2  0  0  0
 26 47  1  0  0  0
 27 28  2  0  0  0
M  END
> <s_m_entry_id>
10387

> <s_m_entry_name>
dock_pv.456

> <s_m_Source_Path>
/home/csk/Desktop/cluster/DUD-E-result/met

> <s_m_Source_File>
dock_pv.maegz

> <i_m_Source_File_Index>
456

> <chembl_id>
CHEMBL3648256

> <chembl_pref_name>
None

> <i_lp_mmshare_version>
53161

> <i_f3d_flags>
0

> <r_lp_tautomer_probability>
1

> <s_lp_Force_Field>
OPLS_2005

> <r_lp_Energy>
28.712019

> <b_lp_Chiralities_Consistent>
1

> <s_lp_Variant>
CHEMBL3717_lig2610-1

> <s_i_glide_gridfile>
glide-grid_3lq8

> <i_i_glide_lignum>
2963

> <i_i_glide_rotatable_bonds>
7

> <r_i_docking_score>
-7.30516737569356

> <r_i_glide_ligand_efficiency>
-0.260898834846199

> <r_i_glide_ligand_efficiency_sa>
-0.792242523789205

> <r_i_glide_ligand_efficiency_ln>
-1.68624711934436

> <r_i_glide_gscore>
-7.30516737569356

> <r_i_glide_lipo>
-2.83080906169692

> <r_i_glide_hbond>
-0.364622248265502

> <r_i_glide_metal>
0

> <r_i_glide_rewards>
-2.31765409116235

> <r_i_glide_evdw>
-37.8795700073242

> <r_i_glide_ecoul>
-4.7599778175354

> <r_i_glide_erotb>
0.815893198427729

> <r_i_glide_esite>
0

> <r_i_glide_emodel>
-58.3874884378105

> <r_i_glide_energy>
-42.6395478248596

> <r_i_glide_einternal>
6.31431245803833

> <i_i_glide_confnum>
43

> <i_i_glide_posenum>
397

> <r_i_glide_eff_state_penalty>
0

> <s_user_duplicate_titles>
CHEMBL3717_lig2610

> <s_m_subgroup_title>
dock_pv

> <s_m_subgroupid>
dock_pv

> <b_m_subgroup_collapsed>
1

$$$$
CHEMBL3717_lig2080
                    3D
 Schrodinger Suite 2021-1.
 41 45  0  0  1  0            999 V2000
   -2.8029    2.5877   31.0142 C   0  0  0  0  0  0
    1.1739    4.7350   30.3981 C   0  0  0  0  0  0
    1.0274    6.1062   30.1918 C   0  0  0  0  0  0
   -0.2203    6.7213   30.2075 C   0  0  0  0  0  0
    0.0350    3.9573   30.6118 C   0  0  0  0  0  0
   -1.2042    4.5537   30.6110 N   0  0  0  0  0  0
   -1.3631    5.9404   30.4289 C   0  0  0  0  0  0
   -2.6772    6.2546   30.4897 N   0  0  0  0  0  0
   -3.3505    5.0635   30.6876 N   0  0  0  0  0  0
   -2.4897    4.0654   30.7664 C   0  0  0  0  0  0
    2.5407    4.1458   30.4058 C   0  0  0  0  0  0
   -4.1205    2.0153   30.4720 C   0  0  0  0  0  0
   -4.1093    0.7283   29.9188 C   0  0  0  0  0  0
   -5.2618    0.1334   29.4079 C   0  0  0  0  0  0
   -5.3281    2.7221   30.5668 C   0  0  0  0  0  0
   -0.3140    8.0506   30.0233 F   0  0  0  0  0  0
    2.9830    2.9271   30.9446 C   0  0  0  0  0  0
    4.2824    2.7570   30.8427 N   0  0  0  0  0  0
    4.7236    3.8420   30.2062 N   0  0  0  0  0  0
    3.7085    4.6968   29.9022 C   0  0  0  0  0  0
    6.1456    4.0758   30.0301 C   0  0  0  0  0  0
   -6.4887    2.1380   30.0464 C   0  0  0  0  0  0
   -6.4615    0.8495   29.4556 C   0  0  0  0  0  0
   -7.6482    0.4137   28.9596 N   0  0  0  0  0  0
   -8.5782    1.3005   29.1409 C   0  0  0  0  0  0
   -8.1274    2.7720   29.9651 S   0  0  0  0  0  0
   -9.8573    1.1309   28.7197 N   0  0  0  0  0  0
   -2.7289    2.3587   32.0747 H   0  0  0  0  0  0
   -2.0049    1.9843   30.6000 H   0  0  0  0  0  0
    1.8962    6.7244   30.0297 H   0  0  0  0  0  0
    0.0726    2.8926   30.7704 H   0  0  0  0  0  0
   -3.1882    0.1650   29.8725 H   0  0  0  0  0  0
   -5.2218   -0.8477   28.9582 H   0  0  0  0  0  0
   -5.3821    3.6994   31.0191 H   0  0  0  0  0  0
    2.3636    2.1917   31.4375 H   0  0  0  0  0  0
    3.9242    5.6227   29.4048 H   0  0  0  0  0  0
    6.3053    4.7712   29.2044 H   0  0  0  0  0  0
    6.5527    4.5087   30.9444 H   0  0  0  0  0  0
    6.6658    3.1487   29.8084 H   0  0  0  0  0  0
  -10.1306    0.2876   28.2398 H   0  0  0  0  0  0
  -10.5589    1.8423   28.8525 H   0  0  0  0  0  0
  1 10  1  0  0  0
  1 12  1  0  0  0
  1 28  1  0  0  0
  1 29  1  0  0  0
  2  3  1  0  0  0
  2  5  2  0  0  0
  2 11  1  0  0  0
  3  4  2  0  0  0
  3 30  1  0  0  0
  4  7  1  0  0  0
  4 16  1  0  0  0
  5  6  1  0  0  0
  5 31  1  0  0  0
  6  7  1  0  0  0
  6 10  1  0  0  0
  7  8  2  0  0  0
  8  9  1  0  0  0
  9 10  2  0  0  0
 11 17  1  0  0  0
 11 20  2  0  0  0
 12 13  2  0  0  0
 12 15  1  0  0  0
 13 14  1  0  0  0
 13 32  1  0  0  0
 14 23  2  0  0  0
 14 33  1  0  0  0
 15 22  2  0  0  0
 15 34  1  0  0  0
 17 18  2  0  0  0
 17 35  1  0  0  0
 18 19  1  0  0  0
 19 20  1  0  0  0
 19 21  1  0  0  0
 20 36  1  0  0  0
 21 37  1  0  0  0
 21 38  1  0  0  0
 21 39  1  0  0  0
 22 23  1  0  0  0
 22 26  1  0  0  0
 23 24  1  0  0  0
 24 25  2  0  0  0
 25 26  1  0  0  0
 25 27  1  0  0  0
 27 40  1  0  0  0
 27 41  1  0  0  0
M  END
> <s_m_entry_id>
10388

> <s_m_entry_name>
dock_pv.457

> <s_m_Source_Path>
/home/csk/Desktop/cluster/DUD-E-result/met

> <s_m_Source_File>
dock_pv.maegz

> <i_m_Source_File_Index>
457

> <chembl_id>
CHEMBL3414912

> <chembl_pref_name>
None

> <i_lp_mmshare_version>
53161

> <i_f3d_flags>
0

> <r_lp_tautomer_probability>
1

> <s_lp_Force_Field>
OPLS_2005

> <r_lp_Energy>
15.292556

> <b_lp_Chiralities_Consistent>
1

> <s_lp_Variant>
CHEMBL3717_lig2080-1

> <s_i_glide_gridfile>
glide-grid_3lq8

> <i_i_glide_lignum>
2376

> <i_i_glide_rotatable_bonds>
3

> <r_i_docking_score>
-7.30451304998758

> <r_i_glide_ligand_efficiency>
-0.27053752036991

> <r_i_glide_ligand_efficiency_sa>
-0.811612560218084

> <r_i_glide_ligand_efficiency_ln>
-1.70037021372781

> <r_i_glide_gscore>
-7.30451304998758

> <r_i_glide_lipo>
-3.39659705887269

> <r_i_glide_hbond>
0

> <r_i_glide_metal>
0

> <r_i_glide_rewards>
-2.16298101228051

> <r_i_glide_evdw>
-39.1915473937988

> <r_i_glide_ecoul>
-0.859592497348785

> <r_i_glide_erotb>
0.40407417527599

> <r_i_glide_esite>
-0.0604929098181085

> <r_i_glide_emodel>
-55.2132447362476

> <r_i_glide_energy>
-40.0511398911476

> <r_i_glide_einternal>
2.44193482398987

> <i_i_glide_confnum>
3

> <i_i_glide_posenum>
29

> <r_i_glide_eff_state_penalty>
0

> <s_user_duplicate_titles>
CHEMBL3717_lig2080

> <s_m_subgroup_title>
dock_pv

> <s_m_subgroupid>
dock_pv

> <b_m_subgroup_collapsed>
1

$$$$
CHEMBL3717_lig3441
                    3D
 Schrodinger Suite 2021-1.
 36 37  0  0  1  0            999 V2000
   -4.8785    3.2114   30.5180 O   0  0  0  0  0  0
   -3.6997    6.6632   30.6078 N   0  0  0  0  0  0
    4.6584    3.9396   29.6089 N   0  0  0  0  0  0
   -4.0511   -0.9189   29.4081 N   0  0  0  0  0  0
   -1.7470    5.2292   30.6442 C   0  0  0  0  0  0
   -3.9760    4.2537   30.5891 C   0  0  0  0  0  0
   -2.5791    4.1048   30.6341 C   0  0  0  0  0  0
   -2.3577    6.4837   30.6079 C   0  0  0  0  0  0
   -0.2779    5.1238   30.6074 C   0  0  0  0  0  0
   -4.4824    5.5556   30.5990 C   0  0  0  0  0  0
    1.8641    4.0364   29.8950 C   0  0  0  0  0  0
    0.4025    4.1458   29.9761 C   0  0  0  0  0  0
    2.7035    4.4208   30.9481 C   0  0  0  0  0  0
    2.4434    3.5823   28.7061 C   0  0  0  0  0  0
   -4.3801    1.8755   30.4591 C   0  0  0  0  0  0
    4.0861    4.3565   30.7630 C   0  0  0  0  0  0
    3.8344    3.5560   28.6045 C   0  0  0  0  0  0
   -5.5349    0.9037   30.1683 C   0  0  0  0  0  0
   -5.1459   -0.5796   30.2988 C   0  0  0  0  0  0
   -3.7788   -1.8848   29.5400 H   0  0  0  0  0  0
   -4.3502   -0.8522   28.4343 H   0  0  0  0  0  0
   -2.1306    3.1236   30.6447 H   0  0  0  0  0  0
   -1.7629    7.3853   30.5843 H   0  0  0  0  0  0
    0.2670    5.9000   31.1259 H   0  0  0  0  0  0
   -5.5486    5.7287   30.5589 H   0  0  0  0  0  0
   -0.1445    3.3627   29.4693 H   0  0  0  0  0  0
    2.2978    4.7713   31.8846 H   0  0  0  0  0  0
    1.8318    3.2713   27.8707 H   0  0  0  0  0  0
   -3.6333    1.7815   29.6670 H   0  0  0  0  0  0
   -3.9046    1.6203   31.4078 H   0  0  0  0  0  0
    4.7653    4.6602   31.5447 H   0  0  0  0  0  0
    4.3117    3.2043   27.7034 H   0  0  0  0  0  0
   -6.3524    1.1103   30.8601 H   0  0  0  0  0  0
   -5.9303    1.0985   29.1696 H   0  0  0  0  0  0
   -4.8501   -0.7976   31.3263 H   0  0  0  0  0  0
   -6.0020   -1.2179   30.0737 H   0  0  0  0  0  0
  1  6  1  0  0  0
  1 15  1  0  0  0
  2  8  2  0  0  0
  2 10  1  0  0  0
  3 16  2  0  0  0
  3 17  1  0  0  0
  4 19  1  0  0  0
  4 20  1  0  0  0
  4 21  1  0  0  0
  5  7  2  0  0  0
  5  8  1  0  0  0
  5  9  1  0  0  0
  6  7  1  0  0  0
  6 10  2  0  0  0
  7 22  1  0  0  0
  8 23  1  0  0  0
  9 12  2  3  0  0
  9 24  1  0  0  0
 10 25  1  0  0  0
 11 12  1  0  0  0
 11 13  2  0  0  0
 11 14  1  0  0  0
 12 26  1  0  0  0
 13 16  1  0  0  0
 13 27  1  0  0  0
 14 17  2  0  0  0
 14 28  1  0  0  0
 15 18  1  0  0  0
 15 29  1  0  0  0
 15 30  1  0  0  0
 16 31  1  0  0  0
 17 32  1  0  0  0
 18 19  1  0  0  0
 18 33  1  0  0  0
 18 34  1  0  0  0
 19 35  1  0  0  0
 19 36  1  0  0  0
M  END
> <s_m_entry_id>
10389

> <s_m_entry_name>
dock_pv.458

> <s_m_Source_Path>
/home/csk/Desktop/cluster/DUD-E-result/met

> <s_m_Source_File>
dock_pv.maegz

> <i_m_Source_File_Index>
458

> <chembl_id>
CHEMBL1972258

> <chembl_pref_name>
None

> <i_lp_mmshare_version>
53161

> <i_f3d_flags>
0

> <r_lp_tautomer_probability>
1

> <s_lp_Force_Field>
OPLS_2005

> <r_lp_Energy>
15.749849

> <b_lp_Chiralities_Consistent>
1

> <s_lp_Variant>
CHEMBL3717_lig3441-1

> <s_i_glide_gridfile>
glide-grid_3lq8

> <i_i_glide_lignum>
4235

> <i_i_glide_rotatable_bonds>
6

> <r_i_docking_score>
-7.30432697215037

> <r_i_glide_ligand_efficiency>
-0.384438261692125

> <r_i_glide_ligand_efficiency_sa>
-1.02583569032423

> <r_i_glide_ligand_efficiency_ln>
-1.85180376999873

> <r_i_glide_gscore>
-7.30432697215037

> <r_i_glide_lipo>
-3.30142192886951

> <r_i_glide_hbond>
-0.339361705117471

> <r_i_glide_metal>
0

> <r_i_glide_rewards>
-2.93443544218848

> <r_i_glide_evdw>
-33.6038551330566

> <r_i_glide_ecoul>
-2.66176605224609

> <r_i_glide_erotb>
1.35034976851483

> <r_i_glide_esite>
0

> <r_i_glide_emodel>
-50.7628423703018

> <r_i_glide_energy>
-36.2656211853027

> <r_i_glide_einternal>
3.57858991622925

> <i_i_glide_confnum>
71

> <i_i_glide_posenum>
393

> <r_i_glide_eff_state_penalty>
0

> <s_user_duplicate_titles>
CHEMBL3717_lig3441

> <s_m_subgroup_title>
dock_pv

> <s_m_subgroupid>
dock_pv

> <b_m_subgroup_collapsed>
1

$$$$
CHEMBL3717_lig1529
                    3D
 Schrodinger Suite 2021-1.
 50 55  0  0  1  0            999 V2000
   -3.9427    3.6626   30.6071 C   0  0  0  0  0  0
   -4.7649    4.7877   30.4495 C   0  0  0  0  0  0
   -4.2041    6.0633   30.3542 C   0  0  0  0  0  0
   -2.5926    3.7878   30.7434 N   0  0  0  0  0  0
   -2.0739    5.0206   30.6080 N   0  0  0  0  0  0
   -2.8080    6.1829   30.3750 C   0  0  0  0  0  0
   -1.9613    7.2200   30.2077 N   0  0  0  0  0  0
   -0.6787    6.7073   30.3272 N   0  0  0  0  0  0
   -0.7486    5.4377   30.6799 C   0  0  0  0  0  0
    0.4393    4.6217   31.2232 C   0  0  2  0  0  0
    1.7210    4.6236   30.4006 C   0  0  0  0  0  0
    1.6857    4.4052   29.0240 C   0  0  0  0  0  0
    2.8649    4.2487   28.3048 C   0  0  0  0  0  0
    2.9469    4.6428   31.0710 C   0  0  0  0  0  0
   -4.4615    2.2463   30.5798 C   0  0  0  0  0  0
   -3.5759    1.1509   30.6079 C   0  0  0  0  0  0
   -6.3073    0.6421   30.4097 C   0  0  0  0  0  0
   -5.8378    1.9560   30.4945 C   0  0  0  0  0  0
    4.1632    4.5216   30.3648 C   0  0  0  0  0  0
    4.1202    4.3592   28.9525 C   0  0  0  0  0  0
    5.2577    4.3570   28.2080 N   0  0  0  0  0  0
    6.4522    4.3570   28.8470 C   0  0  0  0  0  0
    6.5879    4.4670   30.2243 C   0  0  0  0  0  0
    5.4361    4.5812   30.9922 C   0  0  0  0  0  0
    0.1126    3.1536   31.4442 C   0  0  0  0  0  0
   -5.4053   -0.4174   30.4099 C   0  0  0  0  0  0
   -4.0329   -0.1575   30.4993 C   0  0  0  0  0  0
   -3.0928   -1.1663   30.5228 O   0  0  0  0  0  0
   -3.5580   -2.3886   29.9432 C   0  0  0  0  0  0
   -4.9569   -2.7413   30.5045 C   0  0  0  0  0  0
   -5.9026   -1.6951   30.2374 O   0  0  0  0  0  0
   -5.8361    4.6990   30.3586 H   0  0  0  0  0  0
   -4.8366    6.9270   30.2081 H   0  0  0  0  0  0
    0.6790    5.0436   32.2018 H   0  0  0  0  0  0
    0.7369    4.3236   28.5129 H   0  0  0  0  0  0
    2.8203    4.0839   27.2396 H   0  0  0  0  0  0
    2.9805    4.7534   32.1450 H   0  0  0  0  0  0
   -2.5084    1.2986   30.6825 H   0  0  0  0  0  0
   -7.3662    0.4466   30.3252 H   0  0  0  0  0  0
   -6.5757    2.7414   30.4777 H   0  0  0  0  0  0
    7.3271    4.3002   28.2154 H   0  0  0  0  0  0
    7.5682    4.5123   30.6755 H   0  0  0  0  0  0
    5.5063    4.7570   32.0548 H   0  0  0  0  0  0
   -0.2425    2.7570   30.4970 H   0  0  0  0  0  0
    0.9908    2.5783   31.7431 H   0  0  0  0  0  0
   -0.6527    2.9933   32.2033 H   0  0  0  0  0  0
   -2.8389   -3.1791   30.1528 H   0  0  0  0  0  0
   -3.6237   -2.2777   28.8588 H   0  0  0  0  0  0
   -4.8801   -2.8899   31.5828 H   0  0  0  0  0  0
   -5.3153   -3.6744   30.0697 H   0  0  0  0  0  0
  1  2  1  0  0  0
  1  4  2  0  0  0
  1 15  1  0  0  0
  2  3  2  0  0  0
  2 32  1  0  0  0
  3  6  1  0  0  0
  3 33  1  0  0  0
  4  5  1  0  0  0
  5  6  1  0  0  0
  5  9  1  0  0  0
  6  7  2  0  0  0
  7  8  1  0  0  0
  8  9  2  0  0  0
  9 10  1  0  0  0
 10 11  1  0  0  0
 10 25  1  0  0  0
 10 34  1  0  0  0
 11 12  2  0  0  0
 11 14  1  0  0  0
 12 13  1  0  0  0
 12 35  1  0  0  0
 13 20  2  0  0  0
 13 36  1  0  0  0
 14 19  2  0  0  0
 14 37  1  0  0  0
 15 16  2  0  0  0
 15 18  1  0  0  0
 16 27  1  0  0  0
 16 38  1  0  0  0
 17 26  1  0  0  0
 17 18  2  0  0  0
 17 39  1  0  0  0
 18 40  1  0  0  0
 19 20  1  0  0  0
 19 24  1  0  0  0
 20 21  1  0  0  0
 21 22  2  0  0  0
 22 23  1  0  0  0
 22 41  1  0  0  0
 23 24  2  0  0  0
 23 42  1  0  0  0
 24 43  1  0  0  0
 25 44  1  0  0  0
 25 45  1  0  0  0
 25 46  1  0  0  0
 26 27  2  0  0  0
 26 31  1  0  0  0
 27 28  1  0  0  0
 28 29  1  0  0  0
 29 30  1  0  0  0
 29 47  1  0  0  0
 29 48  1  0  0  0
 30 31  1  0  0  0
 30 49  1  0  0  0
 30 50  1  0  0  0
M  END
> <s_m_entry_id>
10390

> <s_m_entry_name>
dock_pv.459

> <s_m_Source_Path>
/home/csk/Desktop/cluster/DUD-E-result/met

> <s_m_Source_File>
dock_pv.maegz

> <i_m_Source_File_Index>
459

> <chembl_id>
CHEMBL2431829

> <chembl_pref_name>
None

> <i_lp_mmshare_version>
53161

> <i_f3d_flags>
0

> <r_lp_tautomer_probability>
1

> <s_lp_Force_Field>
OPLS_2005

> <r_lp_Energy>
28.347934

> <b_lp_Chiralities_Consistent>
1

> <s_lp_Variant>
CHEMBL3717_lig1529-1

> <s_i_glide_gridfile>
glide-grid_3lq8

> <i_i_glide_lignum>
1755

> <i_i_glide_rotatable_bonds>
3

> <r_i_docking_score>
-7.3000247749524

> <r_i_glide_ligand_efficiency>
-0.235484670159755

> <r_i_glide_ligand_efficiency_sa>
-0.739746985927862

> <r_i_glide_ligand_efficiency_ln>
-1.6463793056435

> <r_i_glide_gscore>
-7.3000247749524

> <r_i_glide_lipo>
-3.24794195544658

> <r_i_glide_hbond>
0

> <r_i_glide_metal>
0

> <r_i_glide_rewards>
-2.21251601650327

> <r_i_glide_evdw>
-38.0501441955566

> <r_i_glide_ecoul>
-1.929558634758

> <r_i_glide_erotb>
0.352374201988994

> <r_i_glide_esite>
0

> <r_i_glide_emodel>
-46.4206895810382

> <r_i_glide_energy>
-39.9797028303146

> <r_i_glide_einternal>
6.18080711364746

> <i_i_glide_confnum>
16

> <i_i_glide_posenum>
36

> <r_i_glide_eff_state_penalty>
0

> <s_user_duplicate_titles>
CHEMBL3717_lig1529

> <s_m_subgroup_title>
dock_pv

> <s_m_subgroupid>
dock_pv

> <b_m_subgroup_collapsed>
1

$$$$
CHEMBL3717_lig1385
                    3D
 Schrodinger Suite 2021-1.
 47 49  0  0  1  0            999 V2000
   -2.9087    4.9255   30.6400 C   0  0  0  0  0  0
   -3.9629    5.9570   30.6206 C   0  0  0  0  0  0
   -5.2456    5.5163   30.6080 N   0  0  0  0  0  0
   -5.5797    4.1950   30.6080 C   0  0  0  0  0  0
   -4.6884    3.1894   30.6080 C   0  0  0  0  0  0
   -3.2769    3.6033   30.6080 C   0  0  0  0  0  0
   -5.1650    1.9161   30.7012 O   0  0  0  0  0  0
   -3.7761    7.1662   30.6080 O   0  0  0  0  0  0
   -4.2984    0.7952   30.5118 C   0  0  1  0  0  0
   -4.8846   -0.4529   31.2018 C   0  0  0  0  0  0
   -4.0940    0.5752   29.0080 C   0  0  0  0  0  0
   -6.2467   -0.7965   31.0494 C   0  0  0  0  0  0
   -6.7611   -1.9335   31.6720 C   0  0  0  0  0  0
   -5.9425   -2.7489   32.4445 C   0  0  0  0  0  0
   -4.5974   -2.4354   32.5987 C   0  0  0  0  0  0
   -4.0614   -1.2986   31.9821 C   0  0  0  0  0  0
   -2.3689   -0.9859   32.2080 Cl  0  0  0  0  0  0
   -7.3478    0.1328   30.0868 Cl  0  0  0  0  0  0
   -3.8184   -3.2430   33.3576 F   0  0  0  0  0  0
   -1.4986    5.3215   30.6080 C   0  0  0  0  0  0
   -1.1221    6.4255   30.2080 O   0  0  0  0  0  0
   -0.6027    4.3896   30.9766 N   0  0  0  0  0  0
    0.8399    4.4891   30.7758 C   0  0  0  0  0  0
    1.6181    3.5795   31.7349 C   0  0  0  0  0  0
    3.1060    3.4503   31.3985 C   0  0  0  0  0  0
    3.2940    3.1570   30.0208 O   0  0  0  0  0  0
    2.8177    4.1832   29.1602 C   0  0  0  0  0  0
    1.2915    4.3104   29.3059 C   0  0  0  0  0  0
   -5.9322    6.2526   30.5262 H   0  0  0  0  0  0
   -6.6501    4.0417   30.6172 H   0  0  0  0  0  0
   -2.5172    2.8406   30.5562 H   0  0  0  0  0  0
   -3.3403    1.0049   30.9744 H   0  0  0  0  0  0
   -3.4087   -0.2510   28.8141 H   0  0  0  0  0  0
   -5.0334    0.3462   28.5067 H   0  0  0  0  0  0
   -3.6923    1.4638   28.5238 H   0  0  0  0  0  0
   -7.8036   -2.1892   31.5501 H   0  0  0  0  0  0
   -6.3474   -3.6302   32.9194 H   0  0  0  0  0  0
   -0.9423    3.5008   31.3050 H   0  0  0  0  0  0
    1.1612    5.4983   31.0517 H   0  0  0  0  0  0
    1.2070    2.5721   31.6661 H   0  0  0  0  0  0
    1.5060    3.9322   32.7616 H   0  0  0  0  0  0
    3.5060    2.6208   31.9783 H   0  0  0  0  0  0
    3.6590    4.3482   31.6822 H   0  0  0  0  0  0
    3.0791    3.9297   28.1320 H   0  0  0  0  0  0
    3.3124    5.1310   29.3826 H   0  0  0  0  0  0
    0.9326    5.1348   28.6883 H   0  0  0  0  0  0
    0.8547    3.3920   28.9094 H   0  0  0  0  0  0
  1  2  1  0  0  0
  1  6  2  0  0  0
  1 20  1  0  0  0
  2  3  1  0  0  0
  2  8  2  0  0  0
  3  4  1  0  0  0
  3 29  1  0  0  0
  4  5  2  0  0  0
  4 30  1  0  0  0
  5  6  1  0  0  0
  5  7  1  0  0  0
  6 31  1  0  0  0
  7  9  1  0  0  0
  9 10  1  0  0  0
  9 11  1  0  0  0
  9 32  1  0  0  0
 10 12  2  0  0  0
 10 16  1  0  0  0
 11 33  1  0  0  0
 11 34  1  0  0  0
 11 35  1  0  0  0
 12 13  1  0  0  0
 12 18  1  0  0  0
 13 14  2  0  0  0
 13 36  1  0  0  0
 14 15  1  0  0  0
 14 37  1  0  0  0
 15 16  2  0  0  0
 15 19  1  0  0  0
 16 17  1  0  0  0
 20 21  2  0  0  0
 20 22  1  0  0  0
 22 23  1  0  0  0
 22 38  1  0  0  0
 23 24  1  0  0  0
 23 28  1  0  0  0
 23 39  1  0  0  0
 24 25  1  0  0  0
 24 40  1  0  0  0
 24 41  1  0  0  0
 25 26  1  0  0  0
 25 42  1  0  0  0
 25 43  1  0  0  0
 26 27  1  0  0  0
 27 28  1  0  0  0
 27 44  1  0  0  0
 27 45  1  0  0  0
 28 46  1  0  0  0
 28 47  1  0  0  0
M  END
> <s_m_entry_id>
10391

> <s_m_entry_name>
dock_pv.460

> <s_m_Source_Path>
/home/csk/Desktop/cluster/DUD-E-result/met

> <s_m_Source_File>
dock_pv.maegz

> <i_m_Source_File_Index>
460

> <chembl_id>
CHEMBL2376640

> <chembl_pref_name>
None

> <i_lp_mmshare_version>
53161

> <i_f3d_flags>
0

> <r_lp_tautomer_probability>
0.7352

> <s_lp_Force_Field>
OPLS_2005

> <r_lp_Energy>
30.519567

> <b_lp_Chiralities_Consistent>
1

> <s_lp_Variant>
CHEMBL3717_lig1385-1

> <s_i_glide_gridfile>
glide-grid_3lq8

> <i_i_glide_lignum>
1581

> <i_i_glide_rotatable_bonds>
6

> <r_i_docking_score>
-7.29876233959695

> <r_i_glide_ligand_efficiency>
-0.260670083557034

> <r_i_glide_ligand_efficiency_sa>
-0.791547900147997

> <r_i_glide_ligand_efficiency_ln>
-1.68476864895323

> <r_i_glide_gscore>
-7.29876233959695

> <r_i_glide_lipo>
-2.88311942284413

> <r_i_glide_hbond>
-0.336114970740718

> <r_i_glide_metal>
0

> <r_i_glide_rewards>
-1.51781230408768

> <r_i_glide_evdw>
-45.1187286376953

> <r_i_glide_ecoul>
-6.07959270477295

> <r_i_glide_erotb>
0.64701063357519

> <r_i_glide_esite>
-0.0408509378988954

> <r_i_glide_emodel>
-71.6956918146421

> <r_i_glide_energy>
-51.1983213424683

> <r_i_glide_einternal>
2.27816796302795

> <i_i_glide_confnum>
149

> <i_i_glide_posenum>
37

> <r_i_glide_eff_state_penalty>
0

> <s_user_duplicate_titles>
CHEMBL3717_lig1385

> <s_m_subgroup_title>
dock_pv

> <s_m_subgroupid>
dock_pv

> <b_m_subgroup_collapsed>
1

$$$$
CHEMBL3717_lig3287 
                    3D
 Schrodinger Suite 2021-1.
 44 47  0  0  1  0            999 V2000
   -3.3162    3.0001   30.4700 C   0  0  0  0  0  0
   -3.1320    4.3820   30.6081 C   0  0  0  0  0  0
   -4.2029    5.2161   30.6982 N   0  0  0  0  0  0
   -4.5957    2.4346   30.4739 C   0  0  0  0  0  0
   -5.7021    3.3050   30.6078 C   0  0  0  0  0  0
   -5.4503    4.6811   30.6881 C   0  0  0  0  0  0
   -4.6851    1.0210   30.3684 N   0  0  0  0  0  0
   -1.7527    4.9828   30.6170 C   0  0  0  0  0  0
   -0.6566    4.1916   31.0078 C   0  0  0  0  0  0
    0.6502    4.6677   30.9486 C   0  0  0  0  0  0
    0.8934    5.9548   30.4854 C   0  0  0  0  0  0
   -0.1701    6.7754   30.1239 C   0  0  0  0  0  0
   -1.4806    6.3060   30.2082 C   0  0  0  0  0  0
   -2.4753    7.1571   29.8859 F   0  0  0  0  0  0
   -5.4814    0.3203   29.5050 C   0  0  0  0  0  0
   -5.3314   -0.9849   29.8502 N   0  0  0  0  0  0
   -3.9342    0.1290   31.1342 C   0  0  0  0  0  0
   -4.3708   -1.1259   30.8211 C   0  0  0  0  0  0
   -3.7917   -2.2421   31.4231 C   0  0  0  0  0  0
   -2.7682   -2.1205   32.3105 N   0  0  0  0  0  0
   -2.3281   -0.8675   32.6077 C   0  0  0  0  0  0
   -2.8937    0.2884   32.0572 C   0  0  0  0  0  0
   -6.2083    0.7575   28.6122 O   0  0  0  0  0  0
   -6.1342   -2.0563   29.2391 C   0  0  0  0  0  0
    1.9621    3.6608   31.4438 Cl  0  0  0  0  0  0
   -7.1411    2.8203   30.7234 C   0  0  0  0  0  0
   -7.2188   -2.6133   30.1828 C   0  0  0  0  0  0
   -7.4197   -2.0748   31.3880 N   0  0  0  0  0  0
   -7.9044   -3.5583   29.8079 O   0  0  0  0  0  0
   -2.4647    2.3577   30.3292 H   0  0  0  0  0  0
   -6.2608    5.3914   30.7721 H   0  0  0  0  0  0
   -0.8014    3.1856   31.3712 H   0  0  0  0  0  0
    1.9058    6.3143   30.4186 H   0  0  0  0  0  0
    0.0163    7.7853   29.7878 H   0  0  0  0  0  0
   -4.1167   -3.2429   31.1900 H   0  0  0  0  0  0
   -1.5054   -0.8013   33.3048 H   0  0  0  0  0  0
   -2.4936    1.2514   32.3283 H   0  0  0  0  0  0
   -6.6255   -1.7012   28.3319 H   0  0  0  0  0  0
   -5.4694   -2.8707   28.9556 H   0  0  0  0  0  0
   -7.7503    3.5222   31.2944 H   0  0  0  0  0  0
   -7.5887    2.6956   29.7371 H   0  0  0  0  0  0
   -7.1944    1.8703   31.2570 H   0  0  0  0  0  0
   -8.1402   -2.4606   31.9780 H   0  0  0  0  0  0
   -6.8468   -1.3133   31.7193 H   0  0  0  0  0  0
  1  2  2  0  0  0
  1  4  1  0  0  0
  1 30  1  0  0  0
  2  3  1  0  0  0
  2  8  1  0  0  0
  3  6  2  0  0  0
  4  5  2  0  0  0
  4  7  1  0  0  0
  5  6  1  0  0  0
  5 26  1  0  0  0
  6 31  1  0  0  0
  7 15  1  0  0  0
  7 17  1  0  0  0
  8  9  2  0  0  0
  8 13  1  0  0  0
  9 10  1  0  0  0
  9 32  1  0  0  0
 10 11  2  0  0  0
 10 25  1  0  0  0
 11 12  1  0  0  0
 11 33  1  0  0  0
 12 13  2  0  0  0
 12 34  1  0  0  0
 13 14  1  0  0  0
 15 16  1  0  0  0
 15 23  2  0  0  0
 16 18  1  0  0  0
 16 24  1  0  0  0
 17 18  2  0  0  0
 17 22  1  0  0  0
 18 19  1  0  0  0
 19 20  2  0  0  0
 19 35  1  0  0  0
 20 21  1  0  0  0
 21 22  2  0  0  0
 21 36  1  0  0  0
 22 37  1  0  0  0
 24 27  1  0  0  0
 24 38  1  0  0  0
 24 39  1  0  0  0
 26 40  1  0  0  0
 26 41  1  0  0  0
 26 42  1  0  0  0
 27 28  1  0  0  0
 27 29  2  0  0  0
 28 43  1  0  0  0
 28 44  1  0  0  0
M  END
> <s_m_entry_id>
10392

> <s_m_entry_name>
dock_pv.461

> <s_m_Source_Path>
/home/csk/Desktop/cluster/DUD-E-result/met

> <s_m_Source_File>
dock_pv.maegz

> <i_m_Source_File_Index>
461

> <chembl_id>
CHEMBL4564126

> <chembl_pref_name>
None

> <i_lp_mmshare_version>
53161

> <i_f3d_flags>
0

> <r_lp_tautomer_probability>
1

> <s_lp_Force_Field>
OPLS_2005

> <r_lp_Energy>
52.434716

> <b_lp_Chiralities_Consistent>
1

> <s_lp_Variant>
CHEMBL3717_lig3287 -1

> <s_i_glide_gridfile>
glide-grid_3lq8

> <i_i_glide_lignum>
4010

> <i_i_glide_rotatable_bonds>
4

> <r_i_docking_score>
-7.29468148273138

> <r_i_glide_ligand_efficiency>
-0.251540740783841

> <r_i_glide_ligand_efficiency_sa>
-0.772812849388246

> <r_i_glide_ligand_efficiency_ln>
-1.67029708238335

> <r_i_glide_gscore>
-7.29468148273138

> <r_i_glide_lipo>
-3.42819729011612

> <r_i_glide_hbond>
0

> <r_i_glide_metal>
0

> <r_i_glide_rewards>
-1.81679861662278

> <r_i_glide_evdw>
-38.3474769592285

> <r_i_glide_ecoul>
-2.98456192016602

> <r_i_glide_erotb>
0.34871393893625

> <r_i_glide_esite>
-0.0333413789423966

> <r_i_glide_emodel>
-56.7951380599518

> <r_i_glide_energy>
-41.3320388793945

> <r_i_glide_einternal>
4.97276067733765

> <i_i_glide_confnum>
8

> <i_i_glide_posenum>
51

> <r_i_glide_eff_state_penalty>
0

> <s_user_duplicate_titles>
CHEMBL3717_lig3287 

> <s_m_subgroup_title>
dock_pv

> <s_m_subgroupid>
dock_pv

> <b_m_subgroup_collapsed>
1

$$$$
CHEMBL3717_lig1242
                    3D
 Schrodinger Suite 2021-1.
 46 50  0  0  1  0            999 V2000
   -2.7054    2.3286   31.2237 N   0  0  0  0  0  0
   -2.0940    1.5583   32.2081 C   0  0  0  0  0  0
   -2.4715    0.3269   32.6074 C   0  0  0  0  0  0
   -3.8755    1.9286   30.5789 C   0  0  0  0  0  0
   -4.3030    0.6031   31.0446 C   0  0  0  0  0  0
   -3.6560   -0.2053   31.9807 C   0  0  0  0  0  0
   -4.3082   -1.3290   32.2031 N   0  0  0  0  0  0
   -5.4546   -1.2852   31.4322 N   0  0  0  0  0  0
   -5.4329   -0.1290   30.7464 N   0  0  0  0  0  0
   -4.4784    2.6044   29.7440 O   0  0  0  0  0  0
   -6.5844    0.2433   29.9265 C   0  0  0  0  0  0
   -7.4527    1.3541   30.5233 C   0  0  0  0  0  0
   -8.0030    2.3116   29.6716 C   0  0  0  0  0  0
   -8.7423    3.3835   30.1636 C   0  0  0  0  0  0
   -7.6993    1.4331   31.8980 C   0  0  0  0  0  0
   -8.4673    2.4986   32.4307 C   0  0  0  0  0  0
   -8.9802    3.4982   31.5501 C   0  0  0  0  0  0
   -9.6972    4.5596   32.0055 N   0  0  0  0  0  0
   -9.9355    4.6511   33.3350 C   0  0  0  0  0  0
   -9.5059    3.7165   34.2736 C   0  0  0  0  0  0
   -8.7544    2.6241   33.8122 C   0  0  0  0  0  0
   -2.0979    3.5898   30.9366 C   0  0  0  0  0  0
   -0.7052    3.6816   30.7601 C   0  0  0  0  0  0
   -0.0908    4.9133   30.5374 C   0  0  0  0  0  0
   -0.8595    6.0717   30.4654 C   0  0  0  0  0  0
   -2.2401    6.0015   30.6314 C   0  0  0  0  0  0
   -2.8555    4.7747   30.8701 C   0  0  0  0  0  0
    1.2503    4.9829   30.3846 F   0  0  0  0  0  0
   -2.9797    7.1344   30.6054 F   0  0  0  0  0  0
   -9.8505    3.9467   35.5903 O   0  0  0  0  0  0
   -9.5627    2.9482   36.5588 C   0  0  0  0  0  0
   -1.2903    2.0673   32.7032 H   0  0  0  0  0  0
   -1.9590   -0.1967   33.4004 H   0  0  0  0  0  0
   -7.2015   -0.6386   29.7438 H   0  0  0  0  0  0
   -6.1911    0.5503   28.9553 H   0  0  0  0  0  0
   -7.8502    2.2314   28.6093 H   0  0  0  0  0  0
   -9.1367    4.1309   29.4881 H   0  0  0  0  0  0
   -7.2925    0.6944   32.5755 H   0  0  0  0  0  0
  -10.5144    5.5065   33.6514 H   0  0  0  0  0  0
   -8.3820    1.8665   34.4855 H   0  0  0  0  0  0
   -0.0857    2.7938   30.7964 H   0  0  0  0  0  0
   -0.3845    7.0263   30.2931 H   0  0  0  0  0  0
   -3.9255    4.7534   31.0111 H   0  0  0  0  0  0
   -9.8844    3.2841   37.5451 H   0  0  0  0  0  0
   -8.4941    2.7562   36.6098 H   0  0  0  0  0  0
  -10.0797    2.0137   36.3354 H   0  0  0  0  0  0
  1 22  1  0  0  0
  1  2  1  0  0  0
  1  4  1  0  0  0
  2  3  2  0  0  0
  2 32  1  0  0  0
  3  6  1  0  0  0
  3 33  1  0  0  0
  4  5  1  0  0  0
  4 10  2  0  0  0
  5  9  1  0  0  0
  5  6  2  0  0  0
  6  7  1  0  0  0
  7  8  2  0  0  0
  8  9  1  0  0  0
  9 11  1  0  0  0
 11 12  1  0  0  0
 11 34  1  0  0  0
 11 35  1  0  0  0
 12 15  1  0  0  0
 12 13  2  0  0  0
 13 14  1  0  0  0
 13 36  1  0  0  0
 14 17  2  0  0  0
 14 37  1  0  0  0
 15 16  2  0  0  0
 15 38  1  0  0  0
 16 17  1  0  0  0
 16 21  1  0  0  0
 17 18  1  0  0  0
 18 19  2  0  0  0
 19 20  1  0  0  0
 19 39  1  0  0  0
 20 21  2  0  0  0
 20 30  1  0  0  0
 21 40  1  0  0  0
 22 23  2  0  0  0
 22 27  1  0  0  0
 23 24  1  0  0  0
 23 41  1  0  0  0
 24 25  2  0  0  0
 24 28  1  0  0  0
 25 26  1  0  0  0
 25 42  1  0  0  0
 26 27  2  0  0  0
 26 29  1  0  0  0
 27 43  1  0  0  0
 30 31  1  0  0  0
 31 44  1  0  0  0
 31 45  1  0  0  0
 31 46  1  0  0  0
M  END
> <s_m_entry_id>
10393

> <s_m_entry_name>
dock_pv.462

> <s_m_Source_Path>
/home/csk/Desktop/cluster/DUD-E-result/met

> <s_m_Source_File>
dock_pv.maegz

> <i_m_Source_File_Index>
462

> <chembl_id>
CHEMBL2029684

> <chembl_pref_name>
None

> <i_lp_mmshare_version>
53161

> <i_f3d_flags>
0

> <r_lp_tautomer_probability>
1

> <s_lp_Force_Field>
OPLS_2005

> <r_lp_Energy>
48.343174

> <b_lp_Chiralities_Consistent>
1

> <s_lp_Variant>
CHEMBL3717_lig1242-1

> <s_i_glide_gridfile>
glide-grid_3lq8

> <i_i_glide_lignum>
1420

> <i_i_glide_rotatable_bonds>
4

> <r_i_docking_score>
-7.28624407991316

> <r_i_glide_ligand_efficiency>
-0.235040131610102

> <r_i_glide_ligand_efficiency_sa>
-0.738350521130338

> <r_i_glide_ligand_efficiency_ln>
-1.64327133658456

> <r_i_glide_gscore>
-7.28624407991316

> <r_i_glide_lipo>
-2.76524373633903

> <r_i_glide_hbond>
-0.32

> <r_i_glide_metal>
0

> <r_i_glide_rewards>
-2.13885833016107

> <r_i_glide_evdw>
-30.5414562225342

> <r_i_glide_ecoul>
-5.81668186187744

> <r_i_glide_erotb>
0.33743307699527

> <r_i_glide_esite>
0

> <r_i_glide_emodel>
-49.9598984706591

> <r_i_glide_energy>
-36.3581380844116

> <r_i_glide_einternal>
4.08773994445801

> <i_i_glide_confnum>
5

> <i_i_glide_posenum>
13

> <r_i_glide_eff_state_penalty>
0

> <s_user_duplicate_titles>
CHEMBL3717_lig1242

> <s_m_subgroup_title>
dock_pv

> <s_m_subgroupid>
dock_pv

> <b_m_subgroup_collapsed>
1

$$$$
CHEMBL3717_lig2592
                    3D
 Schrodinger Suite 2021-1.
 49 53  0  0  1  0            999 V2000
   -7.0074    3.9280   30.4660 C   0  0  0  0  0  0
   -5.5684    3.3966   30.5593 C   0  0  0  0  0  0
   -5.2663    2.1524   30.5989 N   0  0  0  0  0  0
   -6.3787    1.2841   30.5758 O   0  0  0  0  0  0
   -5.9746   -0.0933   30.6454 C   0  0  1  0  0  0
   -5.1831   -0.5431   29.4080 C   0  0  0  0  0  0
   -4.0168   -1.3465   29.9816 C   0  0  0  0  0  0
   -3.7382   -0.7605   31.2836 N   0  0  1  0  0  0
   -5.0529   -0.4472   31.8328 C   0  0  0  0  0  0
   -4.4984    4.4322   30.6080 C   0  0  0  0  0  0
   -4.7529    5.8180   30.6080 C   0  0  0  0  0  0
   -3.7684    6.7570   30.5461 N   0  0  0  0  0  0
   -2.5238    6.2830   30.4747 C   0  0  0  0  0  0
   -1.3573    6.9362   30.2081 N   0  0  0  0  0  0
   -0.3442    6.0026   30.3316 N   0  0  0  0  0  0
   -0.8906    4.7923   30.6080 N   0  0  0  0  0  0
   -0.0981    3.5718   30.7352 C   0  0  0  0  0  0
    1.4116    3.7575   30.6911 C   0  0  0  0  0  0
    2.0873    3.6140   29.4785 C   0  0  0  0  0  0
    3.4666    3.9211   29.4081 C   0  0  0  0  0  0
    4.1863    3.9170   28.2080 C   0  0  0  0  0  0
    5.5105    4.3570   28.1985 C   0  0  0  0  0  0
    6.1264    4.6637   29.4043 C   0  0  0  0  0  0
    5.4903    4.6262   30.5922 N   0  0  0  0  0  0
    4.1725    4.2920   30.5846 C   0  0  0  0  0  0
    3.4758    4.3570   31.7847 C   0  0  0  0  0  0
    2.1170    4.1348   31.8343 C   0  0  0  0  0  0
    1.5060    4.3570   33.0080 F   0  0  0  0  0  0
   -2.2650    4.9068   30.6080 C   0  0  0  0  0  0
   -3.2087    3.9639   30.6417 N   0  0  0  0  0  0
   -7.1320    4.5747   29.5966 H   0  0  0  0  0  0
   -7.7578    3.1450   30.3672 H   0  0  0  0  0  0
   -7.2721    4.4846   31.3646 H   0  0  0  0  0  0
   -6.9001   -0.6653   30.7190 H   0  0  0  0  0  0
   -4.8103    0.2884   28.8090 H   0  0  0  0  0  0
   -5.7872   -1.1607   28.7427 H   0  0  0  0  0  0
   -3.1305   -1.2578   29.3513 H   0  0  0  0  0  0
   -4.2641   -2.4068   30.0655 H   0  0  0  0  0  0
   -3.2557   -1.4311   31.8657 H   0  0  0  0  0  0
   -5.4315   -1.3435   32.3274 H   0  0  0  0  0  0
   -5.0273    0.3319   32.5959 H   0  0  0  0  0  0
   -5.7538    6.2237   30.6080 H   0  0  0  0  0  0
   -0.3866    3.0880   31.6692 H   0  0  0  0  0  0
   -0.4126    2.9069   29.9312 H   0  0  0  0  0  0
    1.5564    3.3399   28.5769 H   0  0  0  0  0  0
    3.6862    3.5570   27.3238 H   0  0  0  0  0  0
    6.0824    4.3797   27.2837 H   0  0  0  0  0  0
    7.1712    4.9275   29.4345 H   0  0  0  0  0  0
    4.0005    4.7087   32.6463 H   0  0  0  0  0  0
  1  2  1  0  0  0
  1 31  1  0  0  0
  1 32  1  0  0  0
  1 33  1  0  0  0
  2  3  2  0  0  0
  2 10  1  0  0  0
  3  4  1  0  0  0
  4  5  1  0  0  0
  5  6  1  0  0  0
  5  9  1  0  0  0
  5 34  1  0  0  0
  6  7  1  0  0  0
  6 35  1  0  0  0
  6 36  1  0  0  0
  7  8  1  0  0  0
  7 37  1  0  0  0
  7 38  1  0  0  0
  8  9  1  0  0  0
  8 39  1  0  0  0
  9 40  1  0  0  0
  9 41  1  0  0  0
 10 11  2  0  0  0
 10 30  1  0  0  0
 11 12  1  0  0  0
 11 42  1  0  0  0
 12 13  2  0  0  0
 13 14  1  0  0  0
 13 29  1  0  0  0
 14 15  2  0  0  0
 15 16  1  0  0  0
 16 17  1  0  0  0
 16 29  1  0  0  0
 17 18  1  0  0  0
 17 43  1  0  0  0
 17 44  1  0  0  0
 18 19  2  0  0  0
 18 27  1  0  0  0
 19 20  1  0  0  0
 19 45  1  0  0  0
 20 21  2  0  0  0
 20 25  1  0  0  0
 21 22  1  0  0  0
 21 46  1  0  0  0
 22 23  2  0  0  0
 22 47  1  0  0  0
 23 24  1  0  0  0
 23 48  1  0  0  0
 24 25  2  0  0  0
 25 26  1  0  0  0
 26 27  2  0  0  0
 26 49  1  0  0  0
 27 28  1  0  0  0
 29 30  2  0  0  0
M  END
> <s_m_entry_id>
10394

> <s_m_entry_name>
dock_pv.463

> <s_m_Source_Path>
/home/csk/Desktop/cluster/DUD-E-result/met

> <s_m_Source_File>
dock_pv.maegz

> <i_m_Source_File_Index>
463

> <chembl_id>
CHEMBL3648238

> <chembl_pref_name>
None

> <i_lp_mmshare_version>
53161

> <i_f3d_flags>
0

> <r_lp_tautomer_probability>
1

> <s_lp_Force_Field>
OPLS_2005

> <r_lp_Energy>
43.938144

> <b_lp_Chiralities_Consistent>
1

> <s_lp_Variant>
CHEMBL3717_lig2592-1

> <s_i_glide_gridfile>
glide-grid_3lq8

> <i_i_glide_lignum>
2942

> <i_i_glide_rotatable_bonds>
5

> <r_i_docking_score>
-7.28617425814186

> <r_i_glide_ligand_efficiency>
-0.242872475271395

> <r_i_glide_ligand_efficiency_sa>
-0.754661249109171

> <r_i_glide_ligand_efficiency_ln>
-1.65549818067695

> <r_i_glide_gscore>
-7.28617425814186

> <r_i_glide_lipo>
-2.83774244590885

> <r_i_glide_hbond>
-0.28080379051557

> <r_i_glide_metal>
0

> <r_i_glide_rewards>
-2.23940377810933

> <r_i_glide_evdw>
-39.924488067627

> <r_i_glide_ecoul>
-2.72102499008179

> <r_i_glide_erotb>
0.47615390828551

> <r_i_glide_esite>
0

> <r_i_glide_emodel>
-54.9481484966756

> <r_i_glide_energy>
-42.6455130577087

> <r_i_glide_einternal>
8.65446662902832

> <i_i_glide_confnum>
11

> <i_i_glide_posenum>
314

> <r_i_glide_eff_state_penalty>
0

> <s_user_duplicate_titles>
CHEMBL3717_lig2592

> <s_m_subgroup_title>
dock_pv

> <s_m_subgroupid>
dock_pv

> <b_m_subgroup_collapsed>
1

$$$$
CHEMBL3717_lig2341
                    3D
 Schrodinger Suite 2021-1.
 44 47  0  0  1  0            999 V2000
   -0.1584    5.4210   30.3177 C   0  0  0  0  0  0
   -1.6881    7.1404   30.2081 N   0  0  0  0  0  0
   -0.3932    6.7680   30.1765 N   0  0  0  0  0  0
   -2.3428    5.9600   30.4309 C   0  0  0  0  0  0
   -1.4365    4.8673   30.5689 C   0  0  0  0  0  0
   -1.9152    3.5663   30.7063 C   0  0  0  0  0  0
   -3.2932    3.3250   30.6091 C   0  0  0  0  0  0
   -4.1787    4.4074   30.5059 C   0  0  0  0  0  0
   -3.7264    5.7281   30.4514 C   0  0  0  0  0  0
    1.1255    4.7296   30.0386 C   0  0  0  0  0  0
    1.1542    3.6727   29.1220 C   0  0  0  0  0  0
    2.3646    3.0277   28.8651 C   0  0  0  0  0  0
    3.5218    3.3635   29.4882 N   0  0  0  0  0  0
    3.4768    4.3697   30.3944 C   0  0  0  0  0  0
    2.3060    5.0757   30.6871 C   0  0  0  0  0  0
   -3.8137    1.9076   30.6532 C   0  0  0  0  0  0
   -4.8863    1.5933   30.1414 O   0  0  0  0  0  0
   -3.0425    1.0778   31.3805 N   0  0  0  0  0  0
   -3.3291   -0.2646   31.8694 C   0  0  1  0  0  0
   -3.7770   -1.2657   30.8150 C   0  0  0  0  0  0
   -5.0459   -1.8493   30.8989 C   0  0  0  0  0  0
   -5.4189   -2.8413   29.9942 C   0  0  0  0  0  0
   -4.5229   -3.2460   29.0078 C   0  0  0  0  0  0
   -3.2683   -2.6537   28.9011 C   0  0  0  0  0  0
   -2.8944   -1.6699   29.8078 C   0  0  0  0  0  0
   -2.1866   -3.1201   27.6397 Cl  0  0  0  0  0  0
   -2.0939   -0.7960   32.6119 C   0  0  0  0  0  0
    0.3320    7.4387   29.9639 H   0  0  0  0  0  0
   -1.2035    2.7572   30.7472 H   0  0  0  0  0  0
   -5.2438    4.2271   30.4588 H   0  0  0  0  0  0
   -4.4310    6.5409   30.3425 H   0  0  0  0  0  0
    0.2594    3.3580   28.6076 H   0  0  0  0  0  0
    2.4151    2.2128   28.1581 H   0  0  0  0  0  0
    4.4095    4.6235   30.8767 H   0  0  0  0  0  0
    2.3040    5.8703   31.4080 H   0  0  0  0  0  0
   -2.2694    1.5231   31.8465 H   0  0  0  0  0  0
   -4.1312   -0.1607   32.6046 H   0  0  0  0  0  0
   -5.7371   -1.5529   31.6747 H   0  0  0  0  0  0
   -6.3908   -3.3047   30.0629 H   0  0  0  0  0  0
   -4.7959   -4.0267   28.3161 H   0  0  0  0  0  0
   -1.9092   -1.2425   29.7361 H   0  0  0  0  0  0
   -2.2747   -1.7945   33.0101 H   0  0  0  0  0  0
   -1.2190   -0.8573   31.9660 H   0  0  0  0  0  0
   -1.8297   -0.1518   33.4515 H   0  0  0  0  0  0
  1  5  2  0  0  0
  1  3  1  0  0  0
  1 10  1  0  0  0
  2  3  1  0  0  0
  2  4  2  0  0  0
  3 28  1  0  0  0
  4  9  1  0  0  0
  4  5  1  0  0  0
  5  6  1  0  0  0
  6  7  2  0  0  0
  6 29  1  0  0  0
  7  8  1  0  0  0
  7 16  1  0  0  0
  8  9  2  0  0  0
  8 30  1  0  0  0
  9 31  1  0  0  0
 10 11  2  0  0  0
 10 15  1  0  0  0
 11 12  1  0  0  0
 11 32  1  0  0  0
 12 13  2  0  0  0
 12 33  1  0  0  0
 13 14  1  0  0  0
 14 15  2  0  0  0
 14 34  1  0  0  0
 15 35  1  0  0  0
 16 17  2  0  0  0
 16 18  1  0  0  0
 18 19  1  0  0  0
 18 36  1  0  0  0
 19 20  1  0  0  0
 19 27  1  0  0  0
 19 37  1  0  0  0
 20 21  2  0  0  0
 20 25  1  0  0  0
 21 22  1  0  0  0
 21 38  1  0  0  0
 22 23  2  0  0  0
 22 39  1  0  0  0
 23 24  1  0  0  0
 23 40  1  0  0  0
 24 25  2  0  0  0
 24 26  1  0  0  0
 25 41  1  0  0  0
 27 42  1  0  0  0
 27 43  1  0  0  0
 27 44  1  0  0  0
M  END
> <s_m_entry_id>
10395

> <s_m_entry_name>
dock_pv.464

> <s_m_Source_Path>
/home/csk/Desktop/cluster/DUD-E-result/met

> <s_m_Source_File>
dock_pv.maegz

> <i_m_Source_File_Index>
464

> <chembl_id>
CHEMBL3798631

> <chembl_pref_name>
None

> <i_lp_mmshare_version>
53161

> <i_f3d_flags>
0

> <r_lp_tautomer_probability>
0.0196078431372549

> <s_lp_Force_Field>
OPLS_2005

> <r_lp_Energy>
30.752877

> <b_lp_Chiralities_Consistent>
1

> <s_lp_Variant>
CHEMBL3717_lig2341-4

> <s_i_glide_gridfile>
glide-grid_3lq8

> <i_i_glide_lignum>
2662

> <i_i_glide_rotatable_bonds>
5

> <r_i_docking_score>
-7.28606092185301

> <r_i_glide_ligand_efficiency>
-0.269854108216778

> <r_i_glide_ligand_efficiency_sa>
-0.80956232376094

> <r_i_glide_ligand_efficiency_ln>
-1.69607486250519

> <r_i_glide_gscore>
-7.28606092185301

> <r_i_glide_lipo>
-3.6495675933958

> <r_i_glide_hbond>
0

> <r_i_glide_metal>
0

> <r_i_glide_rewards>
-1.97407154248592

> <r_i_glide_evdw>
-41.5996170043945

> <r_i_glide_ecoul>
-0.852140605449677

> <r_i_glide_erotb>
0.54538015506588

> <r_i_glide_esite>
0

> <r_i_glide_emodel>
-51.2143120316962

> <r_i_glide_energy>
-42.4517576098442

> <r_i_glide_einternal>
6.4540319442749

> <i_i_glide_confnum>
1

> <i_i_glide_posenum>
337

> <r_i_glide_eff_state_penalty>
0

> <s_user_duplicate_titles>
CHEMBL3717_lig2341

> <s_m_subgroup_title>
dock_pv

> <s_m_subgroupid>
dock_pv

> <b_m_subgroup_collapsed>
1

$$$$
CHEMBL3717_lig4082
                    3D
 Schrodinger Suite 2021-1.
 35 37  0  0  1  0            999 V2000
    3.3454    3.7278   30.5145 S   0  0  0  0  0  0
    3.0517    2.5297   31.3064 O   0  0  0  0  0  0
    4.6644    4.3621   30.5931 O   0  0  0  0  0  0
   -7.6023    3.8226   30.3297 N   0  0  0  0  0  0
   -7.6580    2.5206   29.9926 N   0  0  0  0  0  0
    2.1707    4.9872   30.9420 N   0  0  0  0  0  0
   -6.1034    0.8143   29.5640 N   0  0  0  0  0  0
   -5.4910    3.1370   30.2079 C   0  0  0  0  0  0
   -6.3021    4.2589   30.4879 C   0  0  0  0  0  0
   -3.5226    4.5060   30.6080 C   0  0  0  0  0  0
   -6.4247    2.0945   29.9141 C   0  0  0  0  0  0
   -4.0958    3.2744   30.2431 C   0  0  0  0  0  0
   -2.0348    4.6475   30.7246 C   0  0  0  0  0  0
   -5.7618    5.4975   30.8248 C   0  0  0  0  0  0
   -4.3710    5.5862   30.8878 C   0  0  0  0  0  0
    0.7780    4.8412   30.8721 C   0  0  0  0  0  0
   -1.3862    5.8785   30.5408 C   0  0  0  0  0  0
   -1.2423    3.5305   31.0092 C   0  0  0  0  0  0
    0.0046    5.9716   30.6068 C   0  0  0  0  0  0
    0.1425    3.6198   31.0790 C   0  0  0  0  0  0
    2.9392    3.4047   28.7086 C   0  0  0  0  0  0
   -8.4512    4.3613   30.4223 H   0  0  0  0  0  0
    2.5254    5.9268   30.8733 H   0  0  0  0  0  0
   -5.1534    0.5261   29.3676 H   0  0  0  0  0  0
   -6.8230    0.1283   29.3803 H   0  0  0  0  0  0
   -3.4803    2.4227   30.0017 H   0  0  0  0  0  0
   -6.3895    6.3571   31.0078 H   0  0  0  0  0  0
   -3.9529    6.5381   31.1787 H   0  0  0  0  0  0
   -1.9464    6.7713   30.3106 H   0  0  0  0  0  0
   -1.6897    2.5667   31.1968 H   0  0  0  0  0  0
    0.4754    6.9304   30.4472 H   0  0  0  0  0  0
    0.7017    2.7338   31.3183 H   0  0  0  0  0  0
    3.6860    2.7237   28.3031 H   0  0  0  0  0  0
    2.9674    4.3522   28.1723 H   0  0  0  0  0  0
    1.9450    2.9577   28.6449 H   0  0  0  0  0  0
  1  2  2  0  0  0
  1  3  2  0  0  0
  1  6  1  0  0  0
  1 21  1  0  0  0
  4  5  1  0  0  0
  4  9  1  0  0  0
  4 22  1  0  0  0
  5 11  2  0  0  0
  6 16  1  0  0  0
  6 23  1  0  0  0
  7 11  1  0  0  0
  7 24  1  0  0  0
  7 25  1  0  0  0
  8  9  1  0  0  0
  8 11  1  0  0  0
  8 12  2  0  0  0
  9 14  2  0  0  0
 10 12  1  0  0  0
 10 13  1  0  0  0
 10 15  2  0  0  0
 12 26  1  0  0  0
 13 17  2  0  0  0
 13 18  1  0  0  0
 14 15  1  0  0  0
 14 27  1  0  0  0
 15 28  1  0  0  0
 16 19  2  0  0  0
 16 20  1  0  0  0
 17 19  1  0  0  0
 17 29  1  0  0  0
 18 20  2  0  0  0
 18 30  1  0  0  0
 19 31  1  0  0  0
 20 32  1  0  0  0
 21 33  1  0  0  0
 21 34  1  0  0  0
 21 35  1  0  0  0
M  END
> <s_m_entry_id>
10396

> <s_m_entry_name>
dock_pv.465

> <s_m_Source_Path>
/home/csk/Desktop/cluster/DUD-E-result/met

> <s_m_Source_File>
dock_pv.maegz

> <i_m_Source_File_Index>
465

> <chembl_id>
CHEMBL2004892

> <chembl_pref_name>
None

> <i_lp_mmshare_version>
53161

> <i_f3d_flags>
0

> <r_lp_tautomer_probability>
1

> <s_lp_Force_Field>
OPLS_2005

> <r_lp_Energy>
4.65051

> <b_lp_Chiralities_Consistent>
1

> <s_lp_Variant>
CHEMBL3717_lig4082-1

> <s_i_glide_gridfile>
glide-grid_3lq8

> <i_i_glide_lignum>
5207

> <i_i_glide_rotatable_bonds>
3

> <r_i_docking_score>
-7.28597353274302

> <r_i_glide_ligand_efficiency>
-0.346951120606811

> <r_i_glide_ligand_efficiency_sa>
-0.957211833693234

> <r_i_glide_ligand_efficiency_ln>
-1.80144223327492

> <r_i_glide_gscore>
-7.28597353274302

> <r_i_glide_lipo>
-3.31965381726349

> <r_i_glide_hbond>
0

> <r_i_glide_metal>
0

> <r_i_glide_rewards>
-2.36267920737619

> <r_i_glide_evdw>
-37.5482978820801

> <r_i_glide_ecoul>
-0.860085427761078

> <r_i_glide_erotb>
0.402787200164816

> <r_i_glide_esite>
0

> <r_i_glide_emodel>
-54.5290074832292

> <r_i_glide_energy>
-38.4083833098412

> <r_i_glide_einternal>
1.57170009613037

> <i_i_glide_confnum>
1

> <i_i_glide_posenum>
14

> <r_i_glide_eff_state_penalty>
0

> <s_user_duplicate_titles>
CHEMBL3717_lig4082

> <s_m_subgroup_title>
dock_pv

> <s_m_subgroupid>
dock_pv

> <b_m_subgroup_collapsed>
1

$$$$
CHEMBL3717_lig3828
                    3D
 Schrodinger Suite 2021-1.
 50 53  0  0  1  0            999 V2000
   -4.0942    0.4573   30.2518 S   0  0  0  0  0  0
   -4.9396    3.3804   30.2502 N   0  0  0  0  0  0
   -5.9227   -1.1623   29.4885 N   0  0  0  0  0  0
   -4.0681    5.5759   30.5995 N   0  0  0  0  0  0
   -6.3854    5.2392   30.7157 N   0  0  0  0  0  0
    1.4537    4.6762   30.5945 N   0  0  0  0  0  0
   -3.8341   -2.2172   29.8083 N   0  0  0  0  0  0
    3.9116    3.1574   30.1967 N   0  0  0  0  0  0
   -5.7077    1.0900   29.9795 C   0  0  0  0  0  0
   -6.0107    2.5447   30.2080 C   0  0  0  0  0  0
   -6.5107    0.0201   29.5462 C   0  0  0  0  0  0
   -4.6587   -1.1188   29.8113 C   0  0  0  0  0  0
   -5.1585    4.6925   30.5237 C   0  0  0  0  0  0
   -7.3076    3.0328   30.3951 C   0  0  0  0  0  0
   -2.6816    5.3369   30.6086 C   0  0  0  0  0  0
    0.0924    4.9157   30.6083 C   0  0  0  0  0  0
   -7.4504    4.4012   30.6350 C   0  0  0  0  0  0
   -7.9633    0.0372   29.1243 C   0  0  0  0  0  0
   -1.8164    6.3592   30.2082 C   0  0  0  0  0  0
   -2.1418    4.1107   31.0169 C   0  0  0  0  0  0
   -0.4359    6.1488   30.2075 C   0  0  0  0  0  0
   -0.7729    3.9025   31.0078 C   0  0  0  0  0  0
    2.2868    4.8775   29.3999 C   0  0  0  0  0  0
    2.1869    4.0351   31.6957 C   0  0  0  0  0  0
    3.2033    3.6836   29.0347 C   0  0  0  0  0  0
    2.9741    2.7902   31.2502 C   0  0  0  0  0  0
   -2.3854   -2.2162   29.9254 C   0  0  0  0  0  0
   -4.3506    6.5382   30.6922 H   0  0  0  0  0  0
   -4.1765   -3.0699   29.3885 H   0  0  0  0  0  0
    4.6685    3.7482   30.5076 H   0  0  0  0  0  0
   -8.1733    2.3901   30.3696 H   0  0  0  0  0  0
   -8.4265    4.8452   30.7733 H   0  0  0  0  0  0
   -8.6253    0.0675   29.9928 H   0  0  0  0  0  0
   -8.1924    0.9058   28.5052 H   0  0  0  0  0  0
   -8.2513   -0.8417   28.5380 H   0  0  0  0  0  0
   -2.2026    7.3163   29.8904 H   0  0  0  0  0  0
   -2.7669    3.3054   31.3683 H   0  0  0  0  0  0
    0.2256    6.9442   29.8967 H   0  0  0  0  0  0
   -0.3836    2.9414   31.3166 H   0  0  0  0  0  0
    1.6416    5.0966   28.5468 H   0  0  0  0  0  0
    2.8899    5.7654   29.5435 H   0  0  0  0  0  0
    2.8622    4.7574   32.1501 H   0  0  0  0  0  0
    1.4992    3.7577   32.4945 H   0  0  0  0  0  0
    3.9357    4.0041   28.2916 H   0  0  0  0  0  0
    2.6063    2.8883   28.5847 H   0  0  0  0  0  0
    3.5060    2.3678   32.1010 H   0  0  0  0  0  0
    2.2930    2.0213   30.8858 H   0  0  0  0  0  0
   -2.0229   -3.2424   30.0015 H   0  0  0  0  0  0
   -2.0562   -1.6597   30.8046 H   0  0  0  0  0  0
   -1.9338   -1.7695   29.0385 H   0  0  0  0  0  0
  1  9  1  0  0  0
  1 12  1  0  0  0
  2 10  1  0  0  0
  2 13  2  0  0  0
  3 11  1  0  0  0
  3 12  2  0  0  0
  4 13  1  0  0  0
  4 15  1  0  0  0
  4 28  1  0  0  0
  5 13  1  0  0  0
  5 17  2  0  0  0
  6 16  1  0  0  0
  6 23  1  0  0  0
  6 24  1  0  0  0
  7 12  1  0  0  0
  7 27  1  0  0  0
  7 29  1  0  0  0
  8 25  1  0  0  0
  8 26  1  0  0  0
  8 30  1  0  0  0
  9 10  1  0  0  0
  9 11  2  0  0  0
 10 14  2  0  0  0
 11 18  1  0  0  0
 14 17  1  0  0  0
 14 31  1  0  0  0
 15 19  2  0  0  0
 15 20  1  0  0  0
 16 21  2  0  0  0
 16 22  1  0  0  0
 17 32  1  0  0  0
 18 33  1  0  0  0
 18 34  1  0  0  0
 18 35  1  0  0  0
 19 21  1  0  0  0
 19 36  1  0  0  0
 20 22  2  0  0  0
 20 37  1  0  0  0
 21 38  1  0  0  0
 22 39  1  0  0  0
 23 25  1  0  0  0
 23 40  1  0  0  0
 23 41  1  0  0  0
 24 26  1  0  0  0
 24 42  1  0  0  0
 24 43  1  0  0  0
 25 44  1  0  0  0
 25 45  1  0  0  0
 26 46  1  0  0  0
 26 47  1  0  0  0
 27 48  1  0  0  0
 27 49  1  0  0  0
 27 50  1  0  0  0
M  END
> <s_m_entry_id>
10397

> <s_m_entry_name>
dock_pv.466

> <s_m_Source_Path>
/home/csk/Desktop/cluster/DUD-E-result/met

> <s_m_Source_File>
dock_pv.maegz

> <i_m_Source_File_Index>
466

> <chembl_id>
CHEMBL1999484

> <chembl_pref_name>
None

> <i_lp_mmshare_version>
53161

> <i_f3d_flags>
0

> <r_lp_tautomer_probability>
0.999999987636

> <s_lp_Force_Field>
OPLS_2005

> <r_lp_Energy>
28.52283

> <b_lp_Chiralities_Consistent>
1

> <s_lp_Variant>
CHEMBL3717_lig3828-1

> <s_i_glide_gridfile>
glide-grid_3lq8

> <i_i_glide_lignum>
4851

> <i_i_glide_rotatable_bonds>
5

> <r_i_docking_score>
-7.28519552724734

> <r_i_glide_ligand_efficiency>
-0.269822056564716

> <r_i_glide_ligand_efficiency_sa>
-0.809466168804859

> <r_i_glide_ligand_efficiency_ln>
-1.69587341290813

> <r_i_glide_gscore>
-7.28519552724734

> <r_i_glide_lipo>
-3.90149277227625

> <r_i_glide_hbond>
0

> <r_i_glide_metal>
0

> <r_i_glide_rewards>
-1.58150529433938

> <r_i_glide_evdw>
-46.4548416137695

> <r_i_glide_ecoul>
0.16718128323555

> <r_i_glide_erotb>
0.533503962674976

> <r_i_glide_esite>
-0.0380365351035344

> <r_i_glide_emodel>
-65.1609305304801

> <r_i_glide_energy>
-46.287660330534

> <r_i_glide_einternal>
2.90959286689758

> <i_i_glide_confnum>
48

> <i_i_glide_posenum>
198

> <r_i_glide_eff_state_penalty>
0

> <s_user_duplicate_titles>
CHEMBL3717_lig3828

> <s_m_subgroup_title>
dock_pv

> <s_m_subgroupid>
dock_pv

> <b_m_subgroup_collapsed>
1

$$$$
CHEMBL3717_lig1874
                    3D
 Schrodinger Suite 2021-1.
 41 45  0  0  1  0            999 V2000
   -4.5909    3.9276   30.4186 C   0  0  0  0  0  0
   -5.6237    4.8608   30.6079 C   0  0  0  0  0  0
   -6.9413    4.5349   30.4926 N   0  0  0  0  0  0
   -4.8351    2.6209   30.0963 N   0  0  0  0  0  0
   -6.1358    2.3311   29.9647 C   0  0  0  0  0  0
   -7.1855    3.2602   30.1671 C   0  0  0  0  0  0
   -8.3809    2.6483   29.9428 N   0  0  0  0  0  0
   -8.1040    1.3469   29.5712 N   0  0  0  0  0  0
   -6.7656    1.1569   29.5815 N   0  0  0  0  0  0
   -3.1592    4.2977   30.6080 C   0  0  0  0  0  0
   -2.0741    3.4576   30.8173 C   0  0  0  0  0  0
   -0.9684    4.2577   30.9528 N   0  0  0  0  0  0
   -1.2830    5.5568   30.8716 N   0  0  0  0  0  0
   -2.5809    5.5762   30.6648 C   0  0  0  0  0  0
   -6.2026   -0.1233   29.1579 C   0  0  0  0  0  0
   -5.2607   -0.7576   30.1718 C   0  0  0  0  0  0
    0.4114    3.8464   31.2153 C   0  0  0  0  0  0
   -5.7026   -1.0349   31.4666 C   0  0  0  0  0  0
   -4.8527   -1.6076   32.4140 C   0  0  0  0  0  0
   -3.9527   -1.0797   29.8078 C   0  0  0  0  0  0
   -3.1143   -1.6324   30.7371 N   0  0  0  0  0  0
   -3.5206   -1.8926   32.0580 C   0  0  0  0  0  0
   -2.4939   -2.3966   32.7921 N   0  0  0  0  0  0
   -1.4807   -2.4429   31.9531 C   0  0  0  0  0  0
   -1.8110   -2.0432   30.6643 C   0  0  0  0  0  0
    1.4174    4.3703   30.1704 C   0  0  0  0  0  0
    2.6332    3.8951   30.4385 F   0  0  0  0  0  0
    1.5056    5.7008   30.1758 F   0  0  0  0  0  0
    1.1048    3.9838   28.9345 F   0  0  0  0  0  0
   -5.4162    5.8874   30.8654 H   0  0  0  0  0  0
   -2.0121    2.3822   30.8871 H   0  0  0  0  0  0
   -3.1082    6.5128   30.5596 H   0  0  0  0  0  0
   -7.0114   -0.8266   28.9483 H   0  0  0  0  0  0
   -5.6956    0.0490   28.2081 H   0  0  0  0  0  0
    0.4469    2.7574   31.2413 H   0  0  0  0  0  0
    0.6920    4.1992   32.2080 H   0  0  0  0  0  0
   -6.7189   -0.7964   31.7490 H   0  0  0  0  0  0
   -5.2198   -1.8124   33.4082 H   0  0  0  0  0  0
   -3.5410   -0.9143   28.8223 H   0  0  0  0  0  0
   -0.5135   -2.8163   32.2604 H   0  0  0  0  0  0
   -1.2350   -2.0222   29.7527 H   0  0  0  0  0  0
  1  2  1  0  0  0
  1  4  2  0  0  0
  1 10  1  0  0  0
  2  3  2  0  0  0
  2 30  1  0  0  0
  3  6  1  0  0  0
  4  5  1  0  0  0
  5  6  2  0  0  0
  5  9  1  0  0  0
  6  7  1  0  0  0
  7  8  2  0  0  0
  8  9  1  0  0  0
  9 15  1  0  0  0
 10 11  2  0  0  0
 10 14  1  0  0  0
 11 12  1  0  0  0
 11 31  1  0  0  0
 12 13  1  0  0  0
 12 17  1  0  0  0
 13 14  2  0  0  0
 14 32  1  0  0  0
 15 16  1  0  0  0
 15 33  1  0  0  0
 15 34  1  0  0  0
 16 18  1  0  0  0
 16 20  2  0  0  0
 17 26  1  0  0  0
 17 35  1  0  0  0
 17 36  1  0  0  0
 18 19  2  0  0  0
 18 37  1  0  0  0
 19 22  1  0  0  0
 19 38  1  0  0  0
 20 21  1  0  0  0
 20 39  1  0  0  0
 21 22  1  0  0  0
 21 25  1  0  0  0
 22 23  2  0  0  0
 23 24  1  0  0  0
 24 25  2  0  0  0
 24 40  1  0  0  0
 25 41  1  0  0  0
 26 27  1  0  0  0
 26 28  1  0  0  0
 26 29  1  0  0  0
M  END
> <s_m_entry_id>
10398

> <s_m_entry_name>
dock_pv.467

> <s_m_Source_Path>
/home/csk/Desktop/cluster/DUD-E-result/met

> <s_m_Source_File>
dock_pv.maegz

> <i_m_Source_File_Index>
467

> <chembl_id>
CHEMBL3334540

> <chembl_pref_name>
None

> <i_lp_mmshare_version>
53161

> <i_f3d_flags>
0

> <r_lp_tautomer_probability>
1

> <s_lp_Force_Field>
OPLS_2005

> <r_lp_Energy>
24.327233

> <b_lp_Chiralities_Consistent>
1

> <s_lp_Variant>
CHEMBL3717_lig1874-1

> <s_i_glide_gridfile>
glide-grid_3lq8

> <i_i_glide_lignum>
2164

> <i_i_glide_rotatable_bonds>
5

> <r_i_docking_score>
-7.28369280384752

> <r_i_glide_ligand_efficiency>
-0.251161820822328

> <r_i_glide_ligand_efficiency_sa>
-0.77164868721621

> <r_i_glide_ligand_efficiency_ln>
-1.6677809535678

> <r_i_glide_gscore>
-7.28369280384752

> <r_i_glide_lipo>
-2.21413471478866

> <r_i_glide_hbond>
0

> <r_i_glide_metal>
0

> <r_i_glide_rewards>
-3.09186001385183

> <r_i_glide_evdw>
-41.5193214416504

> <r_i_glide_ecoul>
-2.51318407058716

> <r_i_glide_erotb>
0.491474755017806

> <r_i_glide_esite>
-0.0162291475542335

> <r_i_glide_emodel>
-62.4603374573933

> <r_i_glide_energy>
-44.0325055122375

> <r_i_glide_einternal>
1.52785122394562

> <i_i_glide_confnum>
4

> <i_i_glide_posenum>
53

> <r_i_glide_eff_state_penalty>
0

> <s_user_duplicate_titles>
CHEMBL3717_lig1874

> <s_m_subgroup_title>
dock_pv

> <s_m_subgroupid>
dock_pv

> <b_m_subgroup_collapsed>
1

$$$$
CHEMBL3717_lig1342
                    3D
 Schrodinger Suite 2021-1.
 58 62  0  0  1  0            999 V2000
   -5.0720    2.4507   30.2054 C   0  0  0  0  0  0
   -6.5350    5.1601   30.5112 C   0  0  0  0  0  0
   -7.5350    4.2748   30.6736 C   0  0  0  0  0  0
   -6.3546    2.0247   30.8478 C   0  0  0  0  0  0
   -7.4923    2.8385   31.0099 C   0  0  0  0  0  0
   -8.6580    2.2569   31.5288 C   0  0  0  0  0  0
   -8.7007    0.9089   31.8846 C   0  0  0  0  0  0
   -7.5631    0.1152   31.7460 C   0  0  0  0  0  0
   -6.3980    0.6787   31.2364 C   0  0  0  0  0  0
   -5.0731    4.9841   30.6081 C   0  0  0  0  0  0
   -4.4110    3.7518   30.5089 C   0  0  0  0  0  0
   -3.0099    3.7308   30.6080 C   0  0  0  0  0  0
   -2.2961    4.9187   30.7823 C   0  0  0  0  0  0
   -3.0336    6.1008   30.8770 C   0  0  0  0  0  0
   -4.3871    6.1425   30.8029 N   0  0  0  0  0  0
   -4.4326    1.6250   29.5446 O   0  0  0  0  0  0
   -7.5679   -1.3544   32.1352 C   0  0  0  0  0  0
   -7.5434   -2.5196   30.6421 S   0  0  0  0  0  0
   -6.0560   -2.1013   29.8029 N   0  0  1  0  0  0
   -8.6522   -2.1637   29.7516 O   0  0  0  0  0  0
   -7.4065   -3.8909   31.1429 O   0  0  0  0  0  0
   -0.8044    4.9000   30.8090 C   0  0  0  0  0  0
    0.1007    5.9567   30.6080 C   0  0  0  0  0  0
    1.3622    5.5914   30.6696 N   0  0  0  0  0  0
    1.3166    4.2795   30.9155 N   0  0  0  0  0  0
    0.0341    3.8125   31.0076 C   0  0  0  0  0  0
    2.5543    3.5331   31.0536 C   0  0  0  0  0  0
   -4.7663   -2.6626   30.2523 C   0  0  0  0  0  0
   -3.5863   -1.7159   29.9351 C   0  0  0  0  0  0
   -2.7551   -1.3642   31.1625 C   0  0  0  0  0  0
   -2.9298   -0.1345   31.7178 N   0  0  0  0  0  0
   -2.1929    0.1761   32.8179 C   0  0  0  0  0  0
   -1.2940   -0.7138   33.4081 C   0  0  0  0  0  0
   -1.1511   -1.9772   32.8395 C   0  0  0  0  0  0
   -1.8604   -2.2938   31.6852 C   0  0  0  0  0  0
   -6.8398    6.1595   30.2285 H   0  0  0  0  0  0
   -8.5321    4.6634   30.5132 H   0  0  0  0  0  0
   -9.5488    2.8538   31.6605 H   0  0  0  0  0  0
   -9.6149    0.4893   32.2783 H   0  0  0  0  0  0
   -5.5259    0.0490   31.1408 H   0  0  0  0  0  0
   -2.4651    2.8011   30.5127 H   0  0  0  0  0  0
   -2.5399    7.0508   31.0080 H   0  0  0  0  0  0
   -8.4524   -1.6076   32.7187 H   0  0  0  0  0  0
   -6.6941   -1.5881   32.7417 H   0  0  0  0  0  0
   -6.1537   -1.9667   28.7925 H   0  0  0  0  0  0
   -0.1615    6.9844   30.4047 H   0  0  0  0  0  0
   -0.1640    2.7697   31.2002 H   0  0  0  0  0  0
    2.3377    2.4711   31.1832 H   0  0  0  0  0  0
    3.1626    3.6653   30.1586 H   0  0  0  0  0  0
    3.1004    3.8972   31.9251 H   0  0  0  0  0  0
   -4.6089   -3.6429   29.7987 H   0  0  0  0  0  0
   -4.8322   -2.8568   31.3237 H   0  0  0  0  0  0
   -3.9154   -0.8115   29.4243 H   0  0  0  0  0  0
   -2.9286   -2.2042   29.2139 H   0  0  0  0  0  0
   -2.3412    1.1582   33.2367 H   0  0  0  0  0  0
   -0.7450   -0.4436   34.2969 H   0  0  0  0  0  0
   -0.4940   -2.7087   33.2822 H   0  0  0  0  0  0
   -1.7322   -3.2431   31.2012 H   0  0  0  0  0  0
  1 11  1  0  0  0
  1  4  1  0  0  0
  1 16  2  0  0  0
  2 10  1  0  0  0
  2  3  2  0  0  0
  2 36  1  0  0  0
  3  5  1  0  0  0
  3 37  1  0  0  0
  4  5  2  0  0  0
  4  9  1  0  0  0
  5  6  1  0  0  0
  6  7  2  0  0  0
  6 38  1  0  0  0
  7  8  1  0  0  0
  7 39  1  0  0  0
  8  9  2  0  0  0
  8 17  1  0  0  0
  9 40  1  0  0  0
 10 11  2  0  0  0
 10 15  1  0  0  0
 11 12  1  0  0  0
 12 13  2  0  0  0
 12 41  1  0  0  0
 13 14  1  0  0  0
 13 22  1  0  0  0
 14 15  2  0  0  0
 14 42  1  0  0  0
 17 18  1  0  0  0
 17 43  1  0  0  0
 17 44  1  0  0  0
 18 19  1  0  0  0
 18 20  2  0  0  0
 18 21  2  0  0  0
 19 28  1  0  0  0
 19 45  1  0  0  0
 22 23  1  0  0  0
 22 26  2  0  0  0
 23 24  2  0  0  0
 23 46  1  0  0  0
 24 25  1  0  0  0
 25 26  1  0  0  0
 25 27  1  0  0  0
 26 47  1  0  0  0
 27 48  1  0  0  0
 27 49  1  0  0  0
 27 50  1  0  0  0
 28 29  1  0  0  0
 28 51  1  0  0  0
 28 52  1  0  0  0
 29 30  1  0  0  0
 29 53  1  0  0  0
 29 54  1  0  0  0
 30 31  2  0  0  0
 30 35  1  0  0  0
 31 32  1  0  0  0
 32 33  2  0  0  0
 32 55  1  0  0  0
 33 34  1  0  0  0
 33 56  1  0  0  0
 34 35  2  0  0  0
 34 57  1  0  0  0
 35 58  1  0  0  0
M  END
> <s_m_entry_id>
10399

> <s_m_entry_name>
dock_pv.468

> <s_m_Source_Path>
/home/csk/Desktop/cluster/DUD-E-result/met

> <s_m_Source_File>
dock_pv.maegz

> <i_m_Source_File_Index>
468

> <chembl_id>
CHEMBL2323779

> <chembl_pref_name>
None

> <i_lp_mmshare_version>
53161

> <i_f3d_flags>
0

> <r_lp_tautomer_probability>
1

> <s_lp_Force_Field>
OPLS_2005

> <r_lp_Energy>
27.39299

> <b_lp_Chiralities_Consistent>
1

> <s_lp_Variant>
CHEMBL3717_lig1342-1

> <s_i_glide_gridfile>
glide-grid_3lq8

> <i_i_glide_lignum>
1528

> <i_i_glide_rotatable_bonds>
7

> <r_i_docking_score>
-7.28153677299591

> <r_i_glide_ligand_efficiency>
-0.208043907799883

> <r_i_glide_ligand_efficiency_sa>
-0.680525417037677

> <r_i_glide_ligand_efficiency_ln>
-1.59845892667423

> <r_i_glide_gscore>
-7.28153677299591

> <r_i_glide_lipo>
-4.03675236105553

> <r_i_glide_hbond>
0

> <r_i_glide_metal>
0

> <r_i_glide_rewards>
-1.00886247287019

> <r_i_glide_evdw>
-49.7192802429199

> <r_i_glide_ecoul>
-1.71998965740204

> <r_i_glide_erotb>
0.517017747586788

> <r_i_glide_esite>
-0.00897722590068027

> <r_i_glide_emodel>
-68.5139197322971

> <r_i_glide_energy>
-51.439269900322

> <r_i_glide_einternal>
10.0754299163818

> <i_i_glide_confnum>
1

> <i_i_glide_posenum>
79

> <r_i_glide_eff_state_penalty>
0

> <s_user_duplicate_titles>
CHEMBL3717_lig1342

> <s_m_subgroup_title>
dock_pv

> <s_m_subgroupid>
dock_pv

> <b_m_subgroup_collapsed>
1

$$$$
CHEMBL3717_lig4356
                    3D
 Schrodinger Suite 2021-1.
 45 49  0  0  1  0            999 V2000
    6.2469    4.5114   28.4582 C   0  0  0  0  0  0
    5.1088    3.9570   27.8080 O   0  0  0  0  0  0
    3.9060    3.8751   28.4587 C   0  0  0  0  0  0
    2.8578    3.1977   27.8325 C   0  0  0  0  0  0
    1.5842    3.1570   28.4018 C   0  0  0  0  0  0
    1.3274    3.8231   29.6218 C   0  0  0  0  0  0
    0.0560    3.8866   30.2761 C   0  0  0  0  0  0
   -1.0215    3.1571   29.8105 O   0  0  0  0  0  0
   -2.1168    2.8558   30.6953 C   0  0  0  0  0  0
   -3.2475    3.8757   30.6078 C   0  0  0  0  0  0
   -3.1310    5.1866   30.6974 N   0  0  0  0  0  0
   -4.3829    5.7696   30.6241 N   0  0  0  0  0  0
   -5.2668    4.7619   30.4484 C   0  0  0  0  0  0
   -6.6640    4.7570   30.3051 C   0  0  0  0  0  0
   -7.3160    3.5357   30.1141 C   0  0  0  0  0  0
   -6.6076    2.3316   30.0462 C   0  0  0  0  0  0
   -5.2210    2.3452   30.2080 C   0  0  0  0  0  0
   -4.5729    3.5392   30.4074 N   0  0  0  0  0  0
   -7.3276    1.0544   29.7779 C   0  0  0  0  0  0
   -8.6346    0.6723   30.0748 C   0  0  0  0  0  0
   -8.8459   -0.6272   29.6022 C   0  0  0  0  0  0
   -7.6680   -1.0406   29.0080 C   0  0  0  0  0  0
   -6.7645   -0.0156   29.1160 N   0  0  0  0  0  0
   -0.0415    4.6933   31.4080 C   0  0  0  0  0  0
    1.0963    5.2555   31.9602 C   0  0  0  0  0  0
    2.3060    5.1373   31.4080 N   0  0  0  0  0  0
    2.4247    4.4750   30.2524 C   0  0  0  0  0  0
    3.6981    4.4776   29.6879 C   0  0  0  0  0  0
    7.1060    4.4605   27.7894 H   0  0  0  0  0  0
    6.0831    5.5570   28.7123 H   0  0  0  0  0  0
    6.4996    3.9571   29.3633 H   0  0  0  0  0  0
    3.0323    2.7092   26.8855 H   0  0  0  0  0  0
    0.7791    2.6420   27.9025 H   0  0  0  0  0  0
   -1.7837    2.7294   31.7272 H   0  0  0  0  0  0
   -2.4802    1.8698   30.4132 H   0  0  0  0  0  0
   -7.2162    5.6863   30.3136 H   0  0  0  0  0  0
   -8.3888    3.5316   29.9806 H   0  0  0  0  0  0
   -4.6202    1.4495   30.1841 H   0  0  0  0  0  0
   -9.3661    1.2770   30.5905 H   0  0  0  0  0  0
   -9.7585   -1.1997   29.6852 H   0  0  0  0  0  0
   -7.3932   -1.9639   28.5184 H   0  0  0  0  0  0
   -5.8223   -0.0431   28.7507 H   0  0  0  0  0  0
   -0.9807    4.8522   31.9030 H   0  0  0  0  0  0
    1.0806    5.8290   32.8742 H   0  0  0  0  0  0
    4.4853    5.0052   30.2049 H   0  0  0  0  0  0
  1  2  1  0  0  0
  1 29  1  0  0  0
  1 30  1  0  0  0
  1 31  1  0  0  0
  2  3  1  0  0  0
  3  4  2  0  0  0
  3 28  1  0  0  0
  4  5  1  0  0  0
  4 32  1  0  0  0
  5  6  2  0  0  0
  5 33  1  0  0  0
  6  7  1  0  0  0
  6 27  1  0  0  0
  7  8  1  0  0  0
  7 24  2  0  0  0
  8  9  1  0  0  0
  9 10  1  0  0  0
  9 34  1  0  0  0
  9 35  1  0  0  0
 10 11  2  0  0  0
 10 18  1  0  0  0
 11 12  1  0  0  0
 12 13  2  0  0  0
 13 14  1  0  0  0
 13 18  1  0  0  0
 14 15  2  0  0  0
 14 36  1  0  0  0
 15 16  1  0  0  0
 15 37  1  0  0  0
 16 17  2  0  0  0
 16 19  1  0  0  0
 17 18  1  0  0  0
 17 38  1  0  0  0
 19 20  2  0  0  0
 19 23  1  0  0  0
 20 21  1  0  0  0
 20 39  1  0  0  0
 21 22  2  0  0  0
 21 40  1  0  0  0
 22 23  1  0  0  0
 22 41  1  0  0  0
 23 42  1  0  0  0
 24 25  1  0  0  0
 24 43  1  0  0  0
 25 26  2  0  0  0
 25 44  1  0  0  0
 26 27  1  0  0  0
 27 28  2  0  0  0
 28 45  1  0  0  0
M  END
> <s_m_entry_id>
10400

> <s_m_entry_name>
dock_pv.469

> <s_m_Source_Path>
/home/csk/Desktop/cluster/DUD-E-result/met

> <s_m_Source_File>
dock_pv.maegz

> <i_m_Source_File_Index>
469

> <chembl_id>
CHEMBL3668180

> <chembl_pref_name>
None

> <i_lp_mmshare_version>
53161

> <i_f3d_flags>
0

> <r_lp_tautomer_probability>
1

> <s_lp_Force_Field>
OPLS_2005

> <r_lp_Energy>
17.188465

> <b_lp_Chiralities_Consistent>
1

> <s_lp_Variant>
CHEMBL3717_lig4356-1

> <s_i_glide_gridfile>
glide-grid_3lq8

> <i_i_glide_lignum>
5581

> <i_i_glide_rotatable_bonds>
5

> <r_i_docking_score>
-7.27714760124821

> <r_i_glide_ligand_efficiency>
-0.259898128616007

> <r_i_glide_ligand_efficiency_sa>
-0.789203790289894

> <r_i_glide_ligand_efficiency_ln>
-1.67977933270604

> <r_i_glide_gscore>
-7.27714760124821

> <r_i_glide_lipo>
-3.65656119905192

> <r_i_glide_hbond>
-0.220212796214795

> <r_i_glide_metal>
0

> <r_i_glide_rewards>
-1.95786788408526

> <r_i_glide_evdw>
-30.4981479644775

> <r_i_glide_ecoul>
-3.12262463569641

> <r_i_glide_erotb>
0.55977225007611

> <r_i_glide_esite>
-0.00897687839400828

> <r_i_glide_emodel>
-49.2002312395965

> <r_i_glide_energy>
-33.620772600174

> <r_i_glide_einternal>
1.6941614151001

> <i_i_glide_confnum>
2

> <i_i_glide_posenum>
40

> <r_i_glide_eff_state_penalty>
0

> <s_user_duplicate_titles>
CHEMBL3717_lig4356

> <s_m_subgroup_title>
dock_pv

> <s_m_subgroupid>
dock_pv

> <b_m_subgroup_collapsed>
1

$$$$
CHEMBL3717_lig3805
                    3D
 Schrodinger Suite 2021-1.
 39 40  0  0  1  0            999 V2000
   -1.2055    3.5632   30.6306 O   0  0  0  0  0  0
   -2.7224    5.2602   30.6473 N   0  0  0  0  0  0
   -6.5081    3.4254   30.2804 N   0  0  0  0  0  0
    4.4285    3.5584   29.0746 N   0  0  0  0  0  0
   -0.3199    5.8209   30.6967 C   0  0  2  0  0  0
   -1.4650    4.7662   30.6593 C   0  0  0  0  0  0
    2.2189    4.4007   29.6993 C   0  0  1  0  0  0
   -3.9504    4.5778   30.5320 C   0  0  0  0  0  0
    0.2766    6.0446   29.2936 C   0  0  0  0  0  0
    0.8298    5.3671   31.6415 C   0  0  0  0  0  0
    1.0717    4.8461   28.7636 C   0  0  0  0  0  0
    1.7170    4.2013   31.1478 C   0  0  0  0  0  0
    3.0352    3.1718   29.1835 C   0  0  1  0  0  0
   -5.1025    5.3643   30.6080 C   0  0  0  0  0  0
   -4.1008    3.1940   30.3183 C   0  0  0  0  0  0
   -6.3530    4.7583   30.4771 C   0  0  0  0  0  0
   -5.3873    2.6644   30.2080 C   0  0  0  0  0  0
    2.6068    2.5854   27.8233 C   0  0  0  0  0  0
   -2.8061    6.2595   30.7266 H   0  0  0  0  0  0
    4.7997    3.8228   29.9746 H   0  0  0  0  0  0
    5.0027    2.7943   28.7261 H   0  0  0  0  0  0
   -0.7807    6.7545   31.0115 H   0  0  0  0  0  0
    2.8587    5.2855   29.7499 H   0  0  0  0  0  0
    0.9186    6.9256   29.3389 H   0  0  0  0  0  0
   -0.4920    6.3950   28.6027 H   0  0  0  0  0  0
    0.4506    5.1768   32.6400 H   0  0  0  0  0  0
    1.4480    6.2449   31.8079 H   0  0  0  0  0  0
    1.5045    5.0895   27.8030 H   0  0  0  0  0  0
    0.3881    4.0164   28.5931 H   0  0  0  0  0  0
    1.1590    3.2659   31.2036 H   0  0  0  0  0  0
    2.5632    4.0485   31.8189 H   0  0  0  0  0  0
    2.9808    2.3665   29.9175 H   0  0  0  0  0  0
   -5.0388    6.4324   30.7422 H   0  0  0  0  0  0
   -3.2643    2.5190   30.2338 H   0  0  0  0  0  0
   -7.2571    5.3491   30.4998 H   0  0  0  0  0  0
   -5.5349    1.6055   30.0483 H   0  0  0  0  0  0
    1.5433    2.3569   27.8087 H   0  0  0  0  0  0
    3.1097    1.6486   27.5964 H   0  0  0  0  0  0
    2.8002    3.2805   27.0080 H   0  0  0  0  0  0
  1  6  2  0  0  0
  2  6  1  0  0  0
  2  8  1  0  0  0
  2 19  1  0  0  0
  3 16  2  0  0  0
  3 17  1  0  0  0
  4 13  1  0  0  0
  4 20  1  0  0  0
  4 21  1  0  0  0
  5  6  1  0  0  0
  5  9  1  0  0  0
  5 10  1  0  0  0
  5 22  1  0  0  0
  7 11  1  0  0  0
  7 12  1  0  0  0
  7 13  1  0  0  0
  7 23  1  0  0  0
  8 14  2  0  0  0
  8 15  1  0  0  0
  9 11  1  0  0  0
  9 24  1  0  0  0
  9 25  1  0  0  0
 10 12  1  0  0  0
 10 26  1  0  0  0
 10 27  1  0  0  0
 11 28  1  0  0  0
 11 29  1  0  0  0
 12 30  1  0  0  0
 12 31  1  0  0  0
 13 18  1  0  0  0
 13 32  1  0  0  0
 14 16  1  0  0  0
 14 33  1  0  0  0
 15 17  2  0  0  0
 15 34  1  0  0  0
 16 35  1  0  0  0
 17 36  1  0  0  0
 18 37  1  0  0  0
 18 38  1  0  0  0
 18 39  1  0  0  0
M  END
> <s_m_entry_id>
10401

> <s_m_entry_name>
dock_pv.470

> <s_m_Source_Path>
/home/csk/Desktop/cluster/DUD-E-result/met

> <s_m_Source_File>
dock_pv.maegz

> <i_m_Source_File_Index>
470

> <chembl_id>
CHEMBL1994526

> <chembl_pref_name>
None

> <i_lp_mmshare_version>
53161

> <i_f3d_flags>
0

> <r_lp_tautomer_probability>
1

> <s_lp_Force_Field>
OPLS_2005

> <r_lp_Energy>
21.316055

> <b_lp_Chiralities_Consistent>
1

> <s_lp_Variant>
CHEMBL3717_lig3805-4

> <s_i_glide_gridfile>
glide-grid_3lq8

> <i_i_glide_lignum>
4822

> <i_i_glide_rotatable_bonds>
4

> <r_i_docking_score>
-7.27689201911226

> <r_i_glide_ligand_efficiency>
-0.40427177883957

> <r_i_glide_ligand_efficiency_sa>
-1.05949178429455

> <r_i_glide_ligand_efficiency_ln>
-1.87048757084527

> <r_i_glide_gscore>
-7.27689201911226

> <r_i_glide_lipo>
-3.34683684234601

> <r_i_glide_hbond>
-0.32

> <r_i_glide_metal>
0

> <r_i_glide_rewards>
-2.64274809279363

> <r_i_glide_evdw>
-30.5176601409912

> <r_i_glide_ecoul>
-1.97988879680634

> <r_i_glide_erotb>
0.855559242597892

> <r_i_glide_esite>
0

> <r_i_glide_emodel>
-40.7719979195096

> <r_i_glide_energy>
-32.4975489377975

> <r_i_glide_einternal>
10.1537275314331

> <i_i_glide_confnum>
6

> <i_i_glide_posenum>
178

> <r_i_glide_eff_state_penalty>
0

> <s_user_duplicate_titles>
CHEMBL3717_lig3805

> <s_m_subgroup_title>
dock_pv

> <s_m_subgroupid>
dock_pv

> <b_m_subgroup_collapsed>
1

$$$$
CHEMBL3717_lig860
                    3D
 Schrodinger Suite 2021-1.
 45 47  0  0  1  0            999 V2000
    1.4361    5.9570   31.4080 O   0  0  0  0  0  0
    0.8160    4.7108   30.9683 S   0  0  0  0  0  0
    0.6605    3.5401   31.8080 O   0  0  0  0  0  0
   -3.6184    2.6833   30.6080 C   0  0  0  0  0  0
   -4.5718    3.6668   30.3163 C   0  0  0  0  0  0
   -4.3053    4.9908   30.2197 N   0  0  0  0  0  0
   -3.0262    5.3481   30.3267 C   0  0  0  0  0  0
   -1.9759    4.4269   30.6080 C   0  0  0  0  0  0
   -2.2860    3.0775   30.8326 C   0  0  0  0  0  0
   -0.7935    5.1718   30.5932 N   0  0  0  0  0  0
   -1.0826    6.4613   30.2082 C   0  0  0  0  0  0
   -2.4398    6.6307   30.2080 C   0  0  0  0  0  0
   -4.0450    1.2479   30.6080 C   0  0  0  0  0  0
   -3.1455    0.4181   31.2224 O   0  0  0  0  0  0
   -3.2941   -1.0097   31.3561 C   0  0  0  0  0  0
   -5.1242    0.8770   30.1430 O   0  0  0  0  0  0
   -2.0885   -1.4530   32.2079 C   0  0  0  0  0  0
   -3.2280   -1.6964   29.9719 C   0  0  0  0  0  0
   -4.5957   -1.3955   32.1001 C   0  0  0  0  0  0
    1.8123    4.0959   29.6295 C   0  0  0  0  0  0
    1.1705    3.4575   28.5841 C   0  0  0  0  0  0
    1.9060    2.8857   27.5473 C   0  0  0  0  0  0
    3.2765    2.9505   27.5545 C   0  0  0  0  0  0
    3.9371    3.5570   28.6064 C   0  0  0  0  0  0
    3.2297    4.0719   29.6941 C   0  0  0  0  0  0
    4.0202    4.4437   30.8899 N   0  3  0  0  0  0
    3.5060    4.3570   31.9970 O   0  0  0  0  0  0
    5.1988    4.7570   30.7308 O   0  5  0  0  0  0
   -5.6105    3.4045   30.1635 H   0  0  0  0  0  0
   -1.5320    2.3651   31.1016 H   0  0  0  0  0  0
   -0.2926    7.1965   30.1129 H   0  0  0  0  0  0
   -2.9422    7.5570   30.0941 H   0  0  0  0  0  0
   -2.1138   -2.5243   32.4111 H   0  0  0  0  0  0
   -2.0651   -0.9339   33.1665 H   0  0  0  0  0  0
   -1.1431   -1.2430   31.7078 H   0  0  0  0  0  0
   -4.0678   -1.4183   29.3343 H   0  0  0  0  0  0
   -2.3183   -1.4231   29.4368 H   0  0  0  0  0  0
   -3.2395   -2.7837   30.0654 H   0  0  0  0  0  0
   -5.4843   -1.2336   31.4907 H   0  0  0  0  0  0
   -4.5960   -2.4485   32.3845 H   0  0  0  0  0  0
   -4.7195   -0.8064   33.0081 H   0  0  0  0  0  0
    0.1040    3.3519   28.6081 H   0  0  0  0  0  0
    1.4698    2.3570   26.7202 H   0  0  0  0  0  0
    3.8138    2.4901   26.7460 H   0  0  0  0  0  0
    5.0159    3.5571   28.6105 H   0  0  0  0  0  0
  1  2  2  0  0  0
  2 10  1  0  0  0
  2  3  2  0  0  0
  2 20  1  0  0  0
  4 13  1  0  0  0
  4  5  1  0  0  0
  4  9  2  0  0  0
  5  6  2  0  0  0
  5 29  1  0  0  0
  6  7  1  0  0  0
  7 12  1  0  0  0
  7  8  2  0  0  0
  8  9  1  0  0  0
  8 10  1  0  0  0
  9 30  1  0  0  0
 10 11  1  0  0  0
 11 12  2  0  0  0
 11 31  1  0  0  0
 12 32  1  0  0  0
 13 14  1  0  0  0
 13 16  2  0  0  0
 14 15  1  0  0  0
 15 17  1  0  0  0
 15 18  1  0  0  0
 15 19  1  0  0  0
 17 33  1  0  0  0
 17 34  1  0  0  0
 17 35  1  0  0  0
 18 36  1  0  0  0
 18 37  1  0  0  0
 18 38  1  0  0  0
 19 39  1  0  0  0
 19 40  1  0  0  0
 19 41  1  0  0  0
 20 21  2  0  0  0
 20 25  1  0  0  0
 21 22  1  0  0  0
 21 42  1  0  0  0
 22 23  2  0  0  0
 22 43  1  0  0  0
 23 24  1  0  0  0
 23 44  1  0  0  0
 24 25  2  0  0  0
 24 45  1  0  0  0
 25 26  1  0  0  0
 26 27  2  0  0  0
 26 28  1  0  0  0
M  CHG  2  26   1  28  -1
M  END
> <s_m_entry_id>
10402

> <s_m_entry_name>
dock_pv.471

> <s_m_Source_Path>
/home/csk/Desktop/cluster/DUD-E-result/met

> <s_m_Source_File>
dock_pv.maegz

> <i_m_Source_File_Index>
471

> <chembl_id>
CHEMBL1822362

> <chembl_pref_name>
None

> <i_lp_mmshare_version>
53161

> <i_f3d_flags>
0

> <r_lp_tautomer_probability>
1

> <s_lp_Force_Field>
OPLS_2005

> <r_lp_Energy>
12.470602

> <b_lp_Chiralities_Consistent>
1

> <s_lp_Variant>
CHEMBL3717_lig860-1

> <s_i_glide_gridfile>
glide-grid_3lq8

> <i_i_glide_lignum>
931

> <i_i_glide_rotatable_bonds>
6

> <r_i_docking_score>
-7.27522590059681

> <r_i_glide_ligand_efficiency>
-0.259829496449886

> <r_i_glide_ligand_efficiency_sa>
-0.788995382611366

> <r_i_glide_ligand_efficiency_ln>
-1.67933574777212

> <r_i_glide_gscore>
-7.27522590059681

> <r_i_glide_lipo>
-3.84941464181962

> <r_i_glide_hbond>
0

> <r_i_glide_metal>
0

> <r_i_glide_rewards>
-2.26413914612012

> <r_i_glide_evdw>
-32.6113891601562

> <r_i_glide_ecoul>
-0.0911295711994171

> <r_i_glide_erotb>
0.482566781030653

> <r_i_glide_esite>
0

> <r_i_glide_emodel>
-38.4702686413438

> <r_i_glide_energy>
-32.7025187313557

> <r_i_glide_einternal>
4.65000915527344

> <i_i_glide_confnum>
7

> <i_i_glide_posenum>
294

> <r_i_glide_eff_state_penalty>
0

> <s_user_duplicate_titles>
CHEMBL3717_lig860

> <s_m_subgroup_title>
dock_pv

> <s_m_subgroupid>
dock_pv

> <b_m_subgroup_collapsed>
1

$$$$
CHEMBL3717_lig3174 
                    3D
 Schrodinger Suite 2021-1.
 33 35  0  0  1  0            999 V2000
   -4.2817   -0.4562   30.8140 C   0  0  0  0  0  0
   -3.4690   -0.8363   31.8327 C   0  0  0  0  0  0
   -2.4939    0.0433   32.4447 C   0  0  0  0  0  0
   -4.2568    0.8321   30.2824 N   0  0  0  0  0  0
   -3.3501    1.7430   30.8116 C   0  0  0  0  0  0
   -2.4975    1.3274   31.8080 N   0  0  0  0  0  0
   -1.6940    2.3570   32.1145 N   0  0  0  0  0  0
   -2.0487    3.2775   31.2334 C   0  0  0  0  0  0
   -3.1071    2.9825   30.4910 N   0  0  0  0  0  0
   -5.2840   -1.3804   30.1516 C   0  0  0  0  0  0
   -1.6940   -0.2072   33.3492 O   0  0  0  0  0  0
   -1.1971    4.8143   31.0080 S   0  0  0  0  0  0
    0.5117    4.4119   31.5444 C   0  0  0  0  0  0
    1.5057    4.1118   30.4214 C   0  0  0  0  0  0
    2.8673    4.3586   30.6348 C   0  0  0  0  0  0
    3.8160    4.1072   29.6331 C   0  0  0  0  0  0
    3.3877    3.5570   28.4192 C   0  0  0  0  0  0
    2.0411    3.2761   28.2080 C   0  0  0  0  0  0
    1.1058    3.5570   29.2009 C   0  0  0  0  0  0
    5.2421    4.4283   29.8434 N   0  3  0  0  0  0
    5.6914    4.3626   30.9849 O   0  0  0  0  0  0
    5.9060    4.7567   28.8653 O   0  5  0  0  0  0
   -3.5219   -1.8470   32.2090 H   0  0  0  0  0  0
   -4.8298    1.0619   29.4840 H   0  0  0  0  0  0
   -5.2446   -2.3828   30.5803 H   0  0  0  0  0  0
   -6.2988   -1.0022   30.2773 H   0  0  0  0  0  0
   -5.0767   -1.4706   29.0837 H   0  0  0  0  0  0
    0.5244    3.5570   32.2080 H   0  0  0  0  0  0
    0.8684    5.2565   32.1353 H   0  0  0  0  0  0
    3.1906    4.7680   31.5813 H   0  0  0  0  0  0
    4.1024    3.3315   27.6409 H   0  0  0  0  0  0
    1.7183    2.8366   27.2749 H   0  0  0  0  0  0
    0.0689    3.3195   29.0139 H   0  0  0  0  0  0
  1  2  2  0  0  0
  1  4  1  0  0  0
  1 10  1  0  0  0
  2  3  1  0  0  0
  2 23  1  0  0  0
  3  6  1  0  0  0
  3 11  2  0  0  0
  4  5  1  0  0  0
  4 24  1  0  0  0
  5  6  1  0  0  0
  5  9  2  0  0  0
  6  7  1  0  0  0
  7  8  2  0  0  0
  8  9  1  0  0  0
  8 12  1  0  0  0
 10 25  1  0  0  0
 10 26  1  0  0  0
 10 27  1  0  0  0
 12 13  1  0  0  0
 13 14  1  0  0  0
 13 28  1  0  0  0
 13 29  1  0  0  0
 14 15  2  0  0  0
 14 19  1  0  0  0
 15 16  1  0  0  0
 15 30  1  0  0  0
 16 17  2  0  0  0
 16 20  1  0  0  0
 17 18  1  0  0  0
 17 31  1  0  0  0
 18 19  2  0  0  0
 18 32  1  0  0  0
 19 33  1  0  0  0
 20 21  2  0  0  0
 20 22  1  0  0  0
M  CHG  2  20   1  22  -1
M  END
> <s_m_entry_id>
10403

> <s_m_entry_name>
dock_pv.472

> <s_m_Source_Path>
/home/csk/Desktop/cluster/DUD-E-result/met

> <s_m_Source_File>
dock_pv.maegz

> <i_m_Source_File_Index>
472

> <chembl_id>
CHEMBL4565086

> <chembl_pref_name>
None

> <i_lp_mmshare_version>
53161

> <i_f3d_flags>
0

> <r_lp_tautomer_probability>
1

> <s_lp_Force_Field>
OPLS_2005

> <r_lp_Energy>
14.864437

> <b_lp_Chiralities_Consistent>
1

> <s_lp_Variant>
CHEMBL3717_lig3174 -1

> <s_i_glide_gridfile>
glide-grid_3lq8

> <i_i_glide_lignum>
3895

> <i_i_glide_rotatable_bonds>
4

> <r_i_docking_score>
-7.27385451874953

> <r_i_glide_ligand_efficiency>
-0.330629750852251

> <r_i_glide_ligand_efficiency_sa>
-0.926437564818247

> <r_i_glide_ligand_efficiency_ln>
-1.77799536467251

> <r_i_glide_gscore>
-7.27385451874953

> <r_i_glide_lipo>
-2.75403543335442

> <r_i_glide_hbond>
0

> <r_i_glide_metal>
0

> <r_i_glide_rewards>
-3.09004769793985

> <r_i_glide_evdw>
-34.8514671325684

> <r_i_glide_ecoul>
-1.61032056808472

> <r_i_glide_erotb>
0.555022667398789

> <r_i_glide_esite>
-0.000672613012919007

> <r_i_glide_emodel>
-49.6900574649963

> <r_i_glide_energy>
-36.4617877006531

> <r_i_glide_einternal>
6.0265007019043

> <i_i_glide_confnum>
1

> <i_i_glide_posenum>
102

> <r_i_glide_eff_state_penalty>
0

> <s_user_duplicate_titles>
CHEMBL3717_lig3174 

> <s_m_subgroup_title>
dock_pv

> <s_m_subgroupid>
dock_pv

> <b_m_subgroup_collapsed>
1

$$$$
CHEMBL3717_lig3667
                    3D
 Schrodinger Suite 2021-1.
 37 40  0  0  1  0            999 V2000
   -7.6405   -0.0906   29.9037 N   0  0  0  0  0  0
   -8.4131    1.9574   29.4195 O   0  0  0  0  0  0
    1.1065    3.5570   29.3803 C   0  0  0  0  0  0
   -1.7803    3.5570   30.6287 C   0  0  0  0  0  0
    2.4575    3.2340   29.2563 C   0  0  0  0  0  0
   -5.5611    2.9458   30.2114 C   0  0  0  0  0  0
   -6.6873   -1.0190   30.5576 C   0  0  0  0  0  0
   -5.2242   -0.7167   30.1314 C   0  0  0  0  0  0
   -6.1271    1.6654   30.1099 C   0  0  0  0  0  0
   -7.4826    1.2553   29.8044 C   0  0  0  0  0  0
   -3.4867    5.2526   30.6080 C   0  0  0  0  0  0
   -2.4696    6.2082   30.6080 C   0  0  0  0  0  0
   -5.0604    0.7839   30.1903 C   0  0  0  0  0  0
   -3.1398    3.8955   30.6080 C   0  0  0  0  0  0
   -4.1889    2.8420   30.4516 C   0  0  0  0  0  0
   -0.8158    4.5680   30.6088 C   0  0  0  0  0  0
    0.6295    4.2523   30.4970 C   0  0  0  0  0  0
    1.5369    4.6076   31.5007 C   0  0  0  0  0  0
    2.8886    4.2807   31.3844 C   0  0  0  0  0  0
    3.3523    3.5983   30.2603 C   0  0  0  0  0  0
    1.1061    5.2519   32.6057 F   0  0  0  0  0  0
   -3.9225    1.4916   30.4639 N   0  0  0  0  0  0
   -1.1514    5.8857   30.6079 N   0  0  0  0  0  0
   -8.4994   -0.4647   29.5300 H   0  0  0  0  0  0
    0.4180    3.2526   28.6070 H   0  0  0  0  0  0
   -1.4666    2.5267   30.6035 H   0  0  0  0  0  0
    2.8061    2.6933   28.3879 H   0  0  0  0  0  0
   -6.1161    3.8685   30.1181 H   0  0  0  0  0  0
   -6.9514   -2.0472   30.3069 H   0  0  0  0  0  0
   -6.7941   -0.9219   31.6402 H   0  0  0  0  0  0
   -5.0522   -1.0772   29.1155 H   0  0  0  0  0  0
   -4.5159   -1.2473   30.7685 H   0  0  0  0  0  0
   -4.5199    5.5662   30.5767 H   0  0  0  0  0  0
   -2.7010    7.2622   30.6069 H   0  0  0  0  0  0
    3.5734    4.5574   32.1708 H   0  0  0  0  0  0
    4.3991    3.3467   30.1683 H   0  0  0  0  0  0
   -3.0131    1.0791   30.6087 H   0  0  0  0  0  0
  1 10  1  0  0  0
  1  7  1  0  0  0
  1 24  1  0  0  0
  2 10  2  0  0  0
  3  5  2  0  0  0
  3 17  1  0  0  0
  3 25  1  0  0  0
  4 16  2  0  0  0
  4 14  1  0  0  0
  4 26  1  0  0  0
  5 20  1  0  0  0
  5 27  1  0  0  0
  6 15  2  0  0  0
  6  9  1  0  0  0
  6 28  1  0  0  0
  7  8  1  0  0  0
  7 29  1  0  0  0
  7 30  1  0  0  0
  8 13  1  0  0  0
  8 31  1  0  0  0
  8 32  1  0  0  0
  9 10  1  0  0  0
  9 13  2  0  0  0
 11 12  1  0  0  0
 11 14  2  0  0  0
 11 33  1  0  0  0
 12 23  2  0  0  0
 12 34  1  0  0  0
 13 22  1  0  0  0
 14 15  1  0  0  0
 15 22  1  0  0  0
 16 23  1  0  0  0
 16 17  1  0  0  0
 17 18  2  0  0  0
 18 19  1  0  0  0
 18 21  1  0  0  0
 19 20  2  0  0  0
 19 35  1  0  0  0
 20 36  1  0  0  0
 22 37  1  0  0  0
M  END
> <s_m_entry_id>
10404

> <s_m_entry_name>
dock_pv.473

> <s_m_Source_Path>
/home/csk/Desktop/cluster/DUD-E-result/met

> <s_m_Source_File>
dock_pv.maegz

> <i_m_Source_File_Index>
473

> <chembl_id>
CHEMBL226471

> <chembl_pref_name>
None

> <i_lp_mmshare_version>
53161

> <i_f3d_flags>
0

> <r_lp_tautomer_probability>
1

> <s_lp_Force_Field>
OPLS_2005

> <r_lp_Energy>
23.695039

> <b_lp_Chiralities_Consistent>
1

> <s_lp_Variant>
CHEMBL3717_lig3667-1

> <s_i_glide_gridfile>
glide-grid_3lq8

> <i_i_glide_lignum>
4606

> <i_i_glide_rotatable_bonds>
2

> <r_i_docking_score>
-7.27273926573896

> <r_i_glide_ligand_efficiency>
-0.316206055032129

> <r_i_glide_ligand_efficiency_sa>
-0.899247957795136

> <r_i_glide_ligand_efficiency_ln>
-1.75861430000935

> <r_i_glide_gscore>
-7.27273926573896

> <r_i_glide_lipo>
-3.42961266817463

> <r_i_glide_hbond>
0

> <r_i_glide_metal>
0

> <r_i_glide_rewards>
-2.43535834932906

> <r_i_glide_evdw>
-34.3408432006836

> <r_i_glide_ecoul>
-0.547775089740753

> <r_i_glide_erotb>
0.39144017526002

> <r_i_glide_esite>
0

> <r_i_glide_emodel>
-49.4198869811021

> <r_i_glide_energy>
-34.8886182904243

> <r_i_glide_einternal>
1.24254965782166

> <i_i_glide_confnum>
8

> <i_i_glide_posenum>
86

> <r_i_glide_eff_state_penalty>
0

> <s_user_duplicate_titles>
CHEMBL3717_lig3667

> <s_m_subgroup_title>
dock_pv

> <s_m_subgroupid>
dock_pv

> <b_m_subgroup_collapsed>
1

$$$$
CHEMBL3717_lig1856
                    3D
 Schrodinger Suite 2021-1.
 42 46  0  0  1  0            999 V2000
   -5.8932   -0.4420   30.0198 C   0  0  0  0  0  0
   -6.6288   -1.0761   29.0088 C   0  0  0  0  0  0
   -7.6930   -0.4869   28.3879 N   0  0  0  0  0  0
   -6.2398    0.7853   30.4966 N   0  0  0  0  0  0
   -7.2224    1.3824   29.8177 C   0  0  0  0  0  0
   -7.9628    0.7634   28.7847 C   0  0  0  0  0  0
   -8.8945    1.6416   28.3174 N   0  0  0  0  0  0
   -8.7181    2.8271   29.0100 N   0  0  0  0  0  0
   -7.6962    2.6812   29.8850 N   0  0  0  0  0  0
   -4.6133   -0.9809   30.5665 C   0  0  0  0  0  0
   -3.9862   -0.6615   31.7629 C   0  0  0  0  0  0
   -2.7629   -1.2763   31.7446 N   0  0  0  0  0  0
   -2.5993   -2.0407   30.6571 N   0  0  0  0  0  0
   -3.7081   -1.8763   29.9685 C   0  0  0  0  0  0
   -7.2908    3.7899   30.7498 C   0  0  0  0  0  0
   -5.8305    4.2188   30.6214 C   0  0  0  0  0  0
   -1.6982   -1.1645   32.7375 C   0  0  0  0  0  0
   -1.4465   -2.5169   33.4083 C   0  0  0  0  0  0
   -0.4939   -2.3877   34.4359 O   0  0  0  0  0  0
   -5.4940    5.5562   30.6081 N   0  0  0  0  0  0
   -4.6343    3.5057   30.5879 C   0  0  0  0  0  0
   -3.5495    4.4290   30.6079 C   0  0  0  0  0  0
   -4.1269    5.7207   30.6070 C   0  0  0  0  0  0
   -3.4547    6.8743   30.6073 N   0  0  0  0  0  0
   -2.1032    6.7429   30.5535 C   0  0  0  0  0  0
   -1.4195    5.5285   30.6081 C   0  0  0  0  0  0
   -2.1482    4.3382   30.6389 C   0  0  0  0  0  0
   -6.3332   -2.0435   28.6420 H   0  0  0  0  0  0
   -4.2814   -0.0318   32.5860 H   0  0  0  0  0  0
   -3.8369   -2.3556   29.0092 H   0  0  0  0  0  0
   -7.9596    4.6319   30.5583 H   0  0  0  0  0  0
   -7.5006    3.4800   31.7735 H   0  0  0  0  0  0
   -2.0039   -0.4063   33.4587 H   0  0  0  0  0  0
   -0.8030   -0.8431   32.2073 H   0  0  0  0  0  0
   -1.1050   -3.2427   32.6680 H   0  0  0  0  0  0
   -2.3775   -2.9194   33.8104 H   0  0  0  0  0  0
    0.3833   -2.4428   34.0273 H   0  0  0  0  0  0
   -6.1855    6.2919   30.5707 H   0  0  0  0  0  0
   -4.5200    2.4365   30.5972 H   0  0  0  0  0  0
   -1.5460    7.6668   30.4910 H   0  0  0  0  0  0
   -0.3396    5.5100   30.5996 H   0  0  0  0  0  0
   -1.6511    3.3792   30.6590 H   0  0  0  0  0  0
  1  2  1  0  0  0
  1  4  2  0  0  0
  1 10  1  0  0  0
  2  3  2  0  0  0
  2 28  1  0  0  0
  3  6  1  0  0  0
  4  5  1  0  0  0
  5  6  2  0  0  0
  5  9  1  0  0  0
  6  7  1  0  0  0
  7  8  2  0  0  0
  8  9  1  0  0  0
  9 15  1  0  0  0
 10 11  2  0  0  0
 10 14  1  0  0  0
 11 12  1  0  0  0
 11 29  1  0  0  0
 12 13  1  0  0  0
 12 17  1  0  0  0
 13 14  2  0  0  0
 14 30  1  0  0  0
 15 16  1  0  0  0
 15 31  1  0  0  0
 15 32  1  0  0  0
 16 20  1  0  0  0
 16 21  2  0  0  0
 17 18  1  0  0  0
 17 33  1  0  0  0
 17 34  1  0  0  0
 18 19  1  0  0  0
 18 35  1  0  0  0
 18 36  1  0  0  0
 19 37  1  0  0  0
 20 23  1  0  0  0
 20 38  1  0  0  0
 21 22  1  0  0  0
 21 39  1  0  0  0
 22 23  2  0  0  0
 22 27  1  0  0  0
 23 24  1  0  0  0
 24 25  2  0  0  0
 25 26  1  0  0  0
 25 40  1  0  0  0
 26 27  2  0  0  0
 26 41  1  0  0  0
 27 42  1  0  0  0
M  END
> <s_m_entry_id>
10405

> <s_m_entry_name>
dock_pv.474

> <s_m_Source_Path>
/home/csk/Desktop/cluster/DUD-E-result/met

> <s_m_Source_File>
dock_pv.maegz

> <i_m_Source_File_Index>
474

> <chembl_id>
CHEMBL3334555

> <chembl_pref_name>
None

> <i_lp_mmshare_version>
53161

> <i_f3d_flags>
0

> <r_lp_tautomer_probability>
0.999998432528457

> <s_lp_Force_Field>
OPLS_2005

> <r_lp_Energy>
19.519868

> <b_lp_Chiralities_Consistent>
1

> <s_lp_Variant>
CHEMBL3717_lig1856-1

> <s_i_glide_gridfile>
glide-grid_3lq8

> <i_i_glide_lignum>
2142

> <i_i_glide_rotatable_bonds>
6

> <r_i_docking_score>
-7.27020080328354

> <r_i_glide_ligand_efficiency>
-0.269266696417909

> <r_i_glide_ligand_efficiency_sa>
-0.807800088366267

> <r_i_glide_ligand_efficiency_ln>
-1.6923828883767

> <r_i_glide_gscore>
-7.27020080328354

> <r_i_glide_lipo>
-1.86089728756308

> <r_i_glide_hbond>
-0.606865842166004

> <r_i_glide_metal>
0

> <r_i_glide_rewards>
-2.61945564568229

> <r_i_glide_evdw>
-38.3296546936035

> <r_i_glide_ecoul>
-6.67516422271729

> <r_i_glide_erotb>
0.734775340215608

> <r_i_glide_esite>
0

> <r_i_glide_emodel>
-61.3816854601582

> <r_i_glide_energy>
-45.0048189163208

> <r_i_glide_einternal>
7.15253734588623

> <i_i_glide_confnum>
13

> <i_i_glide_posenum>
348

> <r_i_glide_eff_state_penalty>
0

> <s_user_duplicate_titles>
CHEMBL3717_lig1856

> <s_m_subgroup_title>
dock_pv

> <s_m_subgroupid>
dock_pv

> <b_m_subgroup_collapsed>
1

$$$$
CHEMBL3717_lig4094
                    3D
 Schrodinger Suite 2021-1.
 36 37  0  0  1  0            999 V2000
   -4.0903    7.1444   30.6082 Cl  0  0  0  0  0  0
   -2.8946    1.4026   30.9031 O   0  0  0  0  0  0
   -4.7057    4.6103   30.5493 N   0  0  0  0  0  0
    2.9310    2.7571   30.6147 N   0  0  0  0  0  0
   -4.9332    0.3537   29.0077 N   0  0  0  0  0  0
   -2.3152    5.0415   30.6463 C   0  0  0  0  0  0
   -3.6595    5.4686   30.5936 C   0  0  0  0  0  0
   -3.1649    2.7500   30.7402 C   0  0  0  0  0  0
   -2.0929    3.6538   30.7330 C   0  0  0  0  0  0
   -4.4530    3.2841   30.6059 C   0  0  0  0  0  0
   -1.2204    6.0505   30.6080 C   0  0  0  0  0  0
    0.1250    5.9559   30.6060 C   0  0  0  0  0  0
    0.9985    4.7849   30.6192 C   0  0  0  0  0  0
   -3.9403    0.4879   31.2695 C   0  0  0  0  0  0
    1.3376    4.1371   29.4276 C   0  0  0  0  0  0
    1.6281    4.4031   31.8074 C   0  0  0  0  0  0
   -4.4040   -0.4295   30.1105 C   0  0  2  0  0  0
    2.3075    3.1348   29.4687 C   0  0  0  0  0  0
    2.5804    3.3845   31.7644 C   0  0  0  0  0  0
   -3.3168   -1.3752   29.5755 C   0  0  0  0  0  0
   -4.8948   -0.2074   28.1531 H   0  0  0  0  0  0
   -5.9074    0.5614   29.1713 H   0  0  0  0  0  0
   -1.0935    3.2564   30.8108 H   0  0  0  0  0  0
   -5.3287    2.6572   30.5587 H   0  0  0  0  0  0
   -1.5528    7.0769   30.5827 H   0  0  0  0  0  0
    0.6693    6.8895   30.5819 H   0  0  0  0  0  0
   -3.5268   -0.1436   32.0562 H   0  0  0  0  0  0
   -4.7939    0.9694   31.7469 H   0  0  0  0  0  0
    0.8831    4.4208   28.4893 H   0  0  0  0  0  0
    1.4060    4.9038   32.7386 H   0  0  0  0  0  0
   -5.2208   -1.0526   30.4784 H   0  0  0  0  0  0
    2.5988    2.6112   28.5693 H   0  0  0  0  0  0
    3.0921    3.0671   32.6612 H   0  0  0  0  0  0
   -2.9029   -1.9891   30.3749 H   0  0  0  0  0  0
   -3.7180   -2.0564   28.8249 H   0  0  0  0  0  0
   -2.4934   -0.8425   29.1122 H   0  0  0  0  0  0
  1  7  1  0  0  0
  2  8  1  0  0  0
  2 14  1  0  0  0
  3  7  2  0  0  0
  3 10  1  0  0  0
  4 18  2  0  0  0
  4 19  1  0  0  0
  5 17  1  0  0  0
  5 21  1  0  0  0
  5 22  1  0  0  0
  6  7  1  0  0  0
  6  9  2  0  0  0
  6 11  1  0  0  0
  8  9  1  0  0  0
  8 10  2  0  0  0
  9 23  1  0  0  0
 10 24  1  0  0  0
 11 12  2  3  0  0
 11 25  1  0  0  0
 12 13  1  0  0  0
 12 26  1  0  0  0
 13 15  2  0  0  0
 13 16  1  0  0  0
 14 17  1  0  0  0
 14 27  1  0  0  0
 14 28  1  0  0  0
 15 18  1  0  0  0
 15 29  1  0  0  0
 16 19  2  0  0  0
 16 30  1  0  0  0
 17 20  1  0  0  0
 17 31  1  0  0  0
 18 32  1  0  0  0
 19 33  1  0  0  0
 20 34  1  0  0  0
 20 35  1  0  0  0
 20 36  1  0  0  0
M  END
> <s_m_entry_id>
10406

> <s_m_entry_name>
dock_pv.475

> <s_m_Source_Path>
/home/csk/Desktop/cluster/DUD-E-result/met

> <s_m_Source_File>
dock_pv.maegz

> <i_m_Source_File_Index>
475

> <chembl_id>
CHEMBL1993548

> <chembl_pref_name>
None

> <i_lp_mmshare_version>
53161

> <i_f3d_flags>
0

> <r_lp_tautomer_probability>
1

> <s_lp_Force_Field>
OPLS_2005

> <r_lp_Energy>
20.931778

> <b_lp_Chiralities_Consistent>
1

> <s_lp_Variant>
CHEMBL3717_lig4094-2

> <s_i_glide_gridfile>
glide-grid_3lq8

> <i_i_glide_lignum>
5228

> <i_i_glide_rotatable_bonds>
5

> <r_i_docking_score>
-7.26898473579159

> <r_i_glide_ligand_efficiency>
-0.363449236789579

> <r_i_glide_ligand_efficiency_sa>
-0.986553010094458

> <r_i_glide_ligand_efficiency_ln>
-1.81918713220649

> <r_i_glide_gscore>
-7.26898473579159

> <r_i_glide_lipo>
-3.42850553915263

> <r_i_glide_hbond>
-0.16

> <r_i_glide_metal>
0

> <r_i_glide_rewards>
-2.32149409546472

> <r_i_glide_evdw>
-34.3239440917969

> <r_i_glide_ecoul>
-3.40353846549988

> <r_i_glide_erotb>
0.867742873240586

> <r_i_glide_esite>
0

> <r_i_glide_emodel>
-46.8566589281207

> <r_i_glide_energy>
-37.7274825572968

> <r_i_glide_einternal>
11.5330467224121

> <i_i_glide_confnum>
80

> <i_i_glide_posenum>
273

> <r_i_glide_eff_state_penalty>
0

> <s_user_duplicate_titles>
CHEMBL3717_lig4094,CHEMBL3717_lig4094

> <s_m_subgroup_title>
dock_pv

> <s_m_subgroupid>
dock_pv

> <b_m_subgroup_collapsed>
1

$$$$
CHEMBL3717_lig3525
                    3D
 Schrodinger Suite 2021-1.
 43 45  0  0  1  0            999 V2000
   -2.9173    7.1570   30.2080 O   0  0  0  0  0  0
    0.3898    6.8366   30.2082 O   0  0  0  0  0  0
    0.0572    3.5936   30.9879 N   0  0  0  0  0  0
   -3.1955    3.7875   30.6081 N   0  0  0  0  0  0
   -7.4020    3.9060   30.3244 N   0  0  0  0  0  0
   -0.8203    4.6262   30.7335 C   0  0  0  0  0  0
   -2.1734    4.7240   30.6080 C   0  0  0  0  0  0
   -0.5697    6.0895   30.3969 C   0  0  0  0  0  0
   -2.1307    6.2310   30.3699 C   0  0  0  0  0  0
    1.4764    3.6671   31.3193 C   0  0  1  0  0  0
   -4.5925    3.8989   30.4989 C   0  0  0  0  0  0
    2.3651    4.1364   30.1392 C   0  0  0  0  0  0
   -5.3018    2.7136   30.2713 C   0  0  0  0  0  0
   -5.3184    5.0887   30.6483 C   0  0  0  0  0  0
    1.6966    4.4195   32.6356 C   0  0  0  0  0  0
    3.8266    4.4313   30.5583 C   0  0  0  0  0  0
    2.3578    3.0948   28.9962 C   0  0  0  0  0  0
   -6.6954    2.7552   30.2079 C   0  0  0  0  0  0
   -6.7094    5.0510   30.5385 C   0  0  0  0  0  0
    4.6480    5.0008   29.3968 C   0  0  0  0  0  0
    3.2090    3.5569   27.8029 C   0  0  0  0  0  0
    4.6204    4.0136   28.2356 C   0  0  0  0  0  0
   -0.3291    2.6764   31.1521 H   0  0  0  0  0  0
   -2.9170    2.8181   30.6494 H   0  0  0  0  0  0
    1.7723    2.6366   31.5265 H   0  0  0  0  0  0
    1.9793    5.0639   29.7262 H   0  0  0  0  0  0
   -4.7915    1.7674   30.1620 H   0  0  0  0  0  0
   -4.8525    6.0309   30.8640 H   0  0  0  0  0  0
    2.7173    4.3453   32.9965 H   0  0  0  0  0  0
    1.4195    5.4712   32.5677 H   0  0  0  0  0  0
    1.1060    3.9570   33.4080 H   0  0  0  0  0  0
    4.2909    3.5357   30.9746 H   0  0  0  0  0  0
    3.8495    5.1570   31.3626 H   0  0  0  0  0  0
    1.3356    2.9001   28.6672 H   0  0  0  0  0  0
    2.7059    2.1318   29.3659 H   0  0  0  0  0  0
   -7.2691    1.8543   30.0428 H   0  0  0  0  0  0
   -7.2932    5.9575   30.6088 H   0  0  0  0  0  0
    5.6761    5.1827   29.7144 H   0  0  0  0  0  0
    4.2627    5.9569   29.0659 H   0  0  0  0  0  0
    3.2921    2.7461   27.0775 H   0  0  0  0  0  0
    2.6866    4.3570   27.2873 H   0  0  0  0  0  0
    5.1062    3.1571   28.6501 H   0  0  0  0  0  0
    5.2364    4.3613   27.4080 H   0  0  0  0  0  0
  1  9  2  0  0  0
  2  8  2  0  0  0
  3  6  1  0  0  0
  3 10  1  0  0  0
  3 23  1  0  0  0
  4  7  1  0  0  0
  4 11  1  0  0  0
  4 24  1  0  0  0
  5 18  2  0  0  0
  5 19  1  0  0  0
  6  7  2  0  0  0
  6  8  1  0  0  0
  7  9  1  0  0  0
  8  9  1  0  0  0
 10 12  1  0  0  0
 10 15  1  0  0  0
 10 25  1  0  0  0
 11 13  2  0  0  0
 11 14  1  0  0  0
 12 16  1  0  0  0
 12 17  1  0  0  0
 12 26  1  0  0  0
 13 18  1  0  0  0
 13 27  1  0  0  0
 14 19  2  0  0  0
 14 28  1  0  0  0
 15 29  1  0  0  0
 15 30  1  0  0  0
 15 31  1  0  0  0
 16 20  1  0  0  0
 16 32  1  0  0  0
 16 33  1  0  0  0
 17 21  1  0  0  0
 17 34  1  0  0  0
 17 35  1  0  0  0
 18 36  1  0  0  0
 19 37  1  0  0  0
 20 22  1  0  0  0
 20 38  1  0  0  0
 20 39  1  0  0  0
 21 22  1  0  0  0
 21 40  1  0  0  0
 21 41  1  0  0  0
 22 42  1  0  0  0
 22 43  1  0  0  0
M  END
> <s_m_entry_id>
10407

> <s_m_entry_name>
dock_pv.476

> <s_m_Source_Path>
/home/csk/Desktop/cluster/DUD-E-result/met

> <s_m_Source_File>
dock_pv.maegz

> <i_m_Source_File_Index>
476

> <chembl_id>
CHEMBL1991577

> <chembl_pref_name>
None

> <i_lp_mmshare_version>
53161

> <i_f3d_flags>
0

> <r_lp_tautomer_probability>
1

> <s_lp_Force_Field>
OPLS_2005

> <r_lp_Energy>
51.347069

> <b_lp_Chiralities_Consistent>
1

> <s_lp_Variant>
CHEMBL3717_lig3525-2

> <s_i_glide_gridfile>
glide-grid_3lq8

> <i_i_glide_lignum>
4358

> <i_i_glide_rotatable_bonds>
5

> <r_i_docking_score>
-7.2673254141523

> <r_i_glide_ligand_efficiency>
-0.330332973370559

> <r_i_glide_ligand_efficiency_sa>
-0.925605982642949

> <r_i_glide_ligand_efficiency_ln>
-1.77639941335407

> <r_i_glide_gscore>
-7.2673254141523

> <r_i_glide_lipo>
-4.24420589007478

> <r_i_glide_hbond>
-0.32

> <r_i_glide_metal>
0

> <r_i_glide_rewards>
-1.86755464511524

> <r_i_glide_evdw>
-30.588493347168

> <r_i_glide_ecoul>
-2.20500183105469

> <r_i_glide_erotb>
1.02461006305433

> <r_i_glide_esite>
0

> <r_i_glide_emodel>
-43.9426073542326

> <r_i_glide_energy>
-32.7934951782227

> <r_i_glide_einternal>
2.87146067619324

> <i_i_glide_confnum>
95

> <i_i_glide_posenum>
53

> <r_i_glide_eff_state_penalty>
0

> <s_user_duplicate_titles>
CHEMBL3717_lig3525

> <s_m_subgroup_title>
dock_pv

> <s_m_subgroupid>
dock_pv

> <b_m_subgroup_collapsed>
1

$$$$
CHEMBL3717_lig1556
                    3D
 Schrodinger Suite 2021-1.
 59 62  0  0  1  0            999 V2000
   -7.7160    5.0568   30.5731 N   0  0  0  0  0  0
   -4.8704   -1.5979   32.6698 Cl  0  0  0  0  0  0
   -2.0799    6.2290   30.2100 C   0  0  0  0  0  0
   -7.7773    1.0014   30.5270 S   0  0  0  0  0  0
    1.2117    4.4350   30.4643 N   0  0  0  0  0  0
    3.0247    3.1018   28.7118 N   0  0  0  0  0  0
   -7.7800   -2.2986   29.9397 C   0  0  0  0  0  0
    2.6712    4.6040   30.6305 C   0  0  0  0  0  0
   -7.4774   -4.2815   31.2912 C   0  0  0  0  0  0
   -8.1158    3.7668   30.5288 C   0  0  0  0  0  0
   -2.9914    3.7348   31.0080 C   0  0  0  0  0  0
   -5.8448    3.0049   30.5332 C   0  0  0  0  0  0
    1.5906    2.9820   28.5194 C   0  0  0  0  0  0
   -9.4929    3.5713   30.4906 N   0  0  0  0  0  0
   -8.6301   -1.5840   28.6092 Cl  0  0  0  0  0  0
    3.6199    2.8885   27.4080 C   0  0  0  0  0  0
   -6.7873   -1.6158   30.6831 C   0  0  0  0  0  0
   -1.1451    5.2544   30.6117 C   0  0  0  0  0  0
   -6.3882    5.3199   30.6080 C   0  0  0  0  0  0
   -6.1385   -2.3143   31.7285 C   0  0  0  0  0  0
   -1.6488    4.0442   31.1016 C   0  0  0  0  0  0
   -3.9334    4.6766   30.5861 C   0  0  0  0  0  0
    3.3722    4.4015   29.2698 C   0  0  0  0  0  0
   -5.3938    4.3358   30.5740 C   0  0  0  0  0  0
    0.7725    6.6547   30.6082 O   0  0  0  0  0  0
   -6.4934   -3.6336   32.0279 C   0  0  0  0  0  0
   -8.1134   -3.6167   30.2498 C   0  0  0  0  0  0
   -5.6327   -0.0897   29.0082 C   0  0  0  0  0  0
   -5.8828   -4.2986   33.0373 F   0  0  0  0  0  0
   -3.4492    5.9381   30.2085 C   0  0  0  0  0  0
   -6.3804   -0.1632   30.3484 C   0  0  1  0  0  0
   -7.2095    2.6958   30.5199 C   0  0  0  0  0  0
   -1.6878    7.4598   29.8080 F   0  0  0  0  0  0
    0.8333    3.1570   29.8338 C   0  0  0  0  0  0
    0.3566    5.4987   30.5471 C   0  0  0  0  0  0
    3.0413    3.8489   31.3246 H   0  0  0  0  0  0
    2.9343    5.5585   31.0609 H   0  0  0  0  0  0
   -7.7390   -5.3030   31.5240 H   0  0  0  0  0  0
   -3.2937    2.7619   31.3642 H   0  0  0  0  0  0
   -5.1261    2.2064   30.5204 H   0  0  0  0  0  0
    1.2509    3.7417   27.8110 H   0  0  0  0  0  0
    1.3875    2.0040   28.0924 H   0  0  0  0  0  0
   -9.8447    2.6287   30.4124 H   0  0  0  0  0  0
  -10.0937    4.3788   30.4166 H   0  0  0  0  0  0
    3.1048    3.4567   26.6358 H   0  0  0  0  0  0
    4.6770    3.1567   27.4075 H   0  0  0  0  0  0
    3.5060    1.8438   27.1220 H   0  0  0  0  0  0
   -6.1420    6.3701   30.6307 H   0  0  0  0  0  0
   -1.0035    3.2927   31.5324 H   0  0  0  0  0  0
    3.0369    5.1572   28.5697 H   0  0  0  0  0  0
    4.4541    4.4910   29.3797 H   0  0  0  0  0  0
   -8.8697   -4.1305   29.6741 H   0  0  0  0  0  0
   -4.7667   -0.7522   29.0089 H   0  0  0  0  0  0
   -6.2751   -0.3915   28.1872 H   0  0  0  0  0  0
   -5.2758    0.9101   28.7711 H   0  0  0  0  0  0
   -4.1309    6.7044   29.8743 H   0  0  0  0  0  0
   -5.6806    0.1885   31.0995 H   0  0  0  0  0  0
   -0.2090    3.0669   29.5459 H   0  0  0  0  0  0
    1.1050    2.3572   30.5187 H   0  0  0  0  0  0
  1 19  1  0  0  0
  1 10  2  0  0  0
  2 20  1  0  0  0
  3 18  2  0  0  0
  3 30  1  0  0  0
  3 33  1  0  0  0
  4 31  1  0  0  0
  4 32  1  0  0  0
  5  8  1  0  0  0
  5 35  1  0  0  0
  5 34  1  0  0  0
  6 13  1  0  0  0
  6 23  1  0  0  0
  6 16  1  0  0  0
  7 15  1  0  0  0
  7 27  1  0  0  0
  7 17  2  0  0  0
  8 23  1  0  0  0
  8 36  1  0  0  0
  8 37  1  0  0  0
  9 27  2  0  0  0
  9 26  1  0  0  0
  9 38  1  0  0  0
 10 14  1  0  0  0
 10 32  1  0  0  0
 11 21  2  0  0  0
 11 22  1  0  0  0
 11 39  1  0  0  0
 12 32  2  0  0  0
 12 24  1  0  0  0
 12 40  1  0  0  0
 13 34  1  0  0  0
 13 41  1  0  0  0
 13 42  1  0  0  0
 14 43  1  0  0  0
 14 44  1  0  0  0
 16 45  1  0  0  0
 16 46  1  0  0  0
 16 47  1  0  0  0
 17 20  1  0  0  0
 17 31  1  0  0  0
 18 35  1  0  0  0
 18 21  1  0  0  0
 19 24  2  0  0  0
 19 48  1  0  0  0
 20 26  2  0  0  0
 21 49  1  0  0  0
 22 24  1  0  0  0
 22 30  2  0  0  0
 23 50  1  0  0  0
 23 51  1  0  0  0
 25 35  2  0  0  0
 26 29  1  0  0  0
 27 52  1  0  0  0
 28 31  1  0  0  0
 28 53  1  0  0  0
 28 54  1  0  0  0
 28 55  1  0  0  0
 30 56  1  0  0  0
 31 57  1  0  0  0
 34 58  1  0  0  0
 34 59  1  0  0  0
M  END
> <s_m_entry_id>
10408

> <s_m_entry_name>
dock_pv.477

> <s_m_Source_Path>
/home/csk/Desktop/cluster/DUD-E-result/met

> <s_m_Source_File>
dock_pv.maegz

> <i_m_Source_File_Index>
477

> <chembl_id>
CHEMBL2442120

> <chembl_pref_name>
None

> <i_lp_mmshare_version>
53161

> <i_f3d_flags>
0

> <r_lp_tautomer_probability>
0.999999772200052

> <s_lp_Force_Field>
OPLS_2005

> <r_lp_Energy>
61.911246

> <b_lp_Chiralities_Consistent>
1

> <s_lp_Variant>
CHEMBL3717_lig1556-2

> <s_i_glide_gridfile>
glide-grid_3lq8

> <i_i_glide_lignum>
1787

> <i_i_glide_rotatable_bonds>
6

> <r_i_docking_score>
-7.26718944101506

> <r_i_glide_ligand_efficiency>
-0.207633984029002

> <r_i_glide_ligand_efficiency_sa>
-0.679184529202591

> <r_i_glide_ligand_efficiency_ln>
-1.59530936888256

> <r_i_glide_gscore>
-7.26718944101506

> <r_i_glide_lipo>
-3.5771492357718

> <r_i_glide_hbond>
0

> <r_i_glide_metal>
0

> <r_i_glide_rewards>
-1.91418137864043

> <r_i_glide_evdw>
-38.8389930725098

> <r_i_glide_ecoul>
-1.57140445709229

> <r_i_glide_erotb>
0.429071303132589

> <r_i_glide_esite>
-0.0272698075460869

> <r_i_glide_emodel>
-49.7423980331916

> <r_i_glide_energy>
-40.4103975296021

> <r_i_glide_einternal>
3.40815424919128

> <i_i_glide_confnum>
3

> <i_i_glide_posenum>
105

> <r_i_glide_eff_state_penalty>
0

> <s_user_duplicate_titles>
CHEMBL3717_lig1556

> <s_m_subgroup_title>
dock_pv

> <s_m_subgroupid>
dock_pv

> <b_m_subgroup_collapsed>
1

$$$$
CHEMBL3717_lig1566
                    3D
 Schrodinger Suite 2021-1.
 45 48  0  0  1  0            999 V2000
   -4.0501    4.6522   30.6079 C   0  0  0  0  0  0
   -5.0414    5.5576   31.0072 C   0  0  0  0  0  0
   -6.3682    5.2757   31.0073 N   0  0  0  0  0  0
   -6.7606    4.0409   30.6257 C   0  0  0  0  0  0
   -5.8434    3.0506   30.2517 C   0  0  0  0  0  0
   -4.4854    3.3769   30.2180 C   0  0  0  0  0  0
   -2.6035    5.0223   30.6079 C   0  0  0  0  0  0
   -8.1330    3.8132   30.6293 N   0  0  0  0  0  0
   -6.3424    1.4008   29.8672 S   0  0  0  0  0  0
   -5.7535    0.3720   31.2577 C   0  0  2  0  0  0
   -4.7257   -0.6764   30.7914 C   0  0  0  0  0  0
   -6.8822   -0.2387   32.1050 C   0  0  0  0  0  0
   -5.0619   -1.6351   29.8067 C   0  0  0  0  0  0
   -4.1053   -2.5343   29.3436 C   0  0  0  0  0  0
   -2.8195   -2.5234   29.8632 C   0  0  0  0  0  0
   -2.4935   -1.6535   30.8905 C   0  0  0  0  0  0
   -3.4228   -0.7152   31.3424 C   0  0  0  0  0  0
   -2.8936    0.3570   32.5968 Cl  0  0  0  0  0  0
   -6.6433   -1.7676   29.1100 Cl  0  0  0  0  0  0
   -1.2674   -1.7387   31.4569 F   0  0  0  0  0  0
   -2.1949    6.3329   30.2989 C   0  0  0  0  0  0
   -0.8434    6.6699   30.2079 C   0  0  0  0  0  0
   -1.6121    4.0523   30.8480 C   0  0  0  0  0  0
   -0.2626    4.3827   30.7213 C   0  0  0  0  0  0
    0.1082    5.6734   30.4118 C   0  0  0  0  0  0
    1.4887    5.7483   30.3538 N   0  0  0  0  0  0
    2.0930    4.5759   30.6104 C   0  0  0  0  0  0
    0.9807    3.5562   30.8310 C   0  0  0  0  0  0
    3.2997    4.3554   30.6649 O   0  0  0  0  0  0
   -4.7908    6.5560   31.3290 H   0  0  0  0  0  0
   -3.7772    2.6202   29.9098 H   0  0  0  0  0  0
   -8.4707    2.9264   30.2832 H   0  0  0  0  0  0
   -8.7515    4.5976   30.7656 H   0  0  0  0  0  0
   -5.2646    1.0820   31.9202 H   0  0  0  0  0  0
   -6.4833   -0.8435   32.9201 H   0  0  0  0  0  0
   -7.4951    0.5446   32.5522 H   0  0  0  0  0  0
   -7.5463   -0.8718   31.5201 H   0  0  0  0  0  0
   -4.3601   -3.2525   28.5778 H   0  0  0  0  0  0
   -2.0949   -3.2425   29.5110 H   0  0  0  0  0  0
   -2.9286    7.0972   30.0996 H   0  0  0  0  0  0
   -0.5567    7.6822   29.9614 H   0  0  0  0  0  0
   -1.8932    3.0379   31.0879 H   0  0  0  0  0  0
    2.0052    6.5935   30.1736 H   0  0  0  0  0  0
    1.0994    3.0969   31.8080 H   0  0  0  0  0  0
    1.0371    2.7859   30.0609 H   0  0  0  0  0  0
  1  2  2  0  0  0
  1  6  1  0  0  0
  1  7  1  0  0  0
  2  3  1  0  0  0
  2 30  1  0  0  0
  3  4  2  0  0  0
  4  5  1  0  0  0
  4  8  1  0  0  0
  5  6  2  0  0  0
  5  9  1  0  0  0
  6 31  1  0  0  0
  7 21  2  0  0  0
  7 23  1  0  0  0
  8 32  1  0  0  0
  8 33  1  0  0  0
  9 10  1  0  0  0
 10 11  1  0  0  0
 10 12  1  0  0  0
 10 34  1  0  0  0
 11 13  2  0  0  0
 11 17  1  0  0  0
 12 35  1  0  0  0
 12 36  1  0  0  0
 12 37  1  0  0  0
 13 14  1  0  0  0
 13 19  1  0  0  0
 14 15  2  0  0  0
 14 38  1  0  0  0
 15 16  1  0  0  0
 15 39  1  0  0  0
 16 17  2  0  0  0
 16 20  1  0  0  0
 17 18  1  0  0  0
 21 22  1  0  0  0
 21 40  1  0  0  0
 22 25  2  0  0  0
 22 41  1  0  0  0
 23 24  2  0  0  0
 23 42  1  0  0  0
 24 25  1  0  0  0
 24 28  1  0  0  0
 25 26  1  0  0  0
 26 27  1  0  0  0
 26 43  1  0  0  0
 27 28  1  0  0  0
 27 29  2  0  0  0
 28 44  1  0  0  0
 28 45  1  0  0  0
M  END
> <s_m_entry_id>
10409

> <s_m_entry_name>
dock_pv.478

> <s_m_Source_Path>
/home/csk/Desktop/cluster/DUD-E-result/met

> <s_m_Source_File>
dock_pv.maegz

> <i_m_Source_File_Index>
478

> <chembl_id>
CHEMBL2442138

> <chembl_pref_name>
None

> <i_lp_mmshare_version>
53161

> <i_f3d_flags>
0

> <r_lp_tautomer_probability>
0.999999772200052

> <s_lp_Force_Field>
OPLS_2005

> <r_lp_Energy>
32.927459

> <b_lp_Chiralities_Consistent>
1

> <s_lp_Variant>
CHEMBL3717_lig1566-1

> <s_i_glide_gridfile>
glide-grid_3lq8

> <i_i_glide_lignum>
1806

> <i_i_glide_rotatable_bonds>
4

> <r_i_docking_score>
-7.26380471682154

> <r_i_glide_ligand_efficiency>
-0.250476024717984

> <r_i_glide_ligand_efficiency_sa>
-0.769541704308209

> <r_i_glide_ligand_efficiency_ln>
-1.66322708595722

> <r_i_glide_gscore>
-7.26380471682154

> <r_i_glide_lipo>
-3.72039685450466

> <r_i_glide_hbond>
0

> <r_i_glide_metal>
0

> <r_i_glide_rewards>
-1.57921863813091

> <r_i_glide_evdw>
-44.8391609191895

> <r_i_glide_ecoul>
-0.805721879005432

> <r_i_glide_erotb>
0.39862710362431

> <r_i_glide_esite>
0

> <r_i_glide_emodel>
-62.995687755017

> <r_i_glide_energy>
-45.6448827981949

> <r_i_glide_einternal>
4.54610157012939

> <i_i_glide_confnum>
4

> <i_i_glide_posenum>
263

> <r_i_glide_eff_state_penalty>
0

> <s_user_duplicate_titles>
CHEMBL3717_lig1566

> <s_m_subgroup_title>
dock_pv

> <s_m_subgroupid>
dock_pv

> <b_m_subgroup_collapsed>
1

$$$$
CHEMBL3717_lig4059
                    3D
 Schrodinger Suite 2021-1.
 52 56  0  0  1  0            999 V2000
   -5.6230    2.8868   30.4309 O   0  0  0  0  0  0
    4.6646    3.0722   30.6066 O   0  0  0  0  0  0
    3.1524    4.7589   30.1986 N   0  0  0  0  0  0
   -2.4992   -1.2917   31.6201 N   0  0  0  0  0  0
   -4.5031    6.2973   30.8306 N   0  0  0  0  0  0
   -7.1375    1.2505   32.2068 N   0  0  0  0  0  0
    1.1758    3.8359   30.7940 C   0  0  0  0  0  0
    1.7881    4.9718   30.3128 C   0  0  0  0  0  0
   -0.9939    4.9380   30.6544 C   0  0  0  0  0  0
   -2.4912    4.9463   30.7365 C   0  0  0  0  0  0
   -4.1175   -1.9880   30.2133 C   0  0  0  0  0  0
   -0.2160    3.8044   30.9608 C   0  0  0  0  0  0
   -4.7314   -1.2339   31.2705 C   0  0  0  0  0  0
   -2.7066   -1.9267   30.4174 C   0  0  0  0  0  0
    2.2498    2.8108   31.0134 C   0  0  0  0  0  0
    3.5267    3.5339   30.5934 C   0  0  0  0  0  0
    1.0526    6.1039   29.9949 C   0  0  0  0  0  0
   -0.3228    6.0827   30.1809 C   0  0  0  0  0  0
   -3.3003    3.7957   30.6083 C   0  0  0  0  0  0
   -4.7071    3.9101   30.5684 C   0  0  0  0  0  0
   -3.7056   -0.8864   32.1280 C   0  0  0  0  0  0
   -3.1662    6.1656   30.8720 C   0  0  0  0  0  0
   -6.1932   -0.8381   31.3596 C   0  0  0  0  0  0
   -4.6095   -2.6762   29.0941 C   0  0  0  0  0  0
   -1.8024   -2.4446   29.4925 C   0  0  0  0  0  0
   -6.4604    0.6714   31.0565 C   0  0  2  0  0  0
   -5.2489    5.1871   30.6637 C   0  0  0  0  0  0
   -3.7069   -3.2471   28.2091 C   0  0  0  0  0  0
   -2.3457   -3.0774   28.3754 C   0  0  0  0  0  0
   -5.2276    1.5392   30.6464 C   0  0  0  0  0  0
    3.8115    5.4424   29.8605 H   0  0  0  0  0  0
   -1.6140   -1.0990   32.0674 H   0  0  0  0  0  0
   -6.6361    1.0262   33.0604 H   0  0  0  0  0  0
   -7.1259    2.2565   32.1057 H   0  0  0  0  0  0
   -0.6951    2.9071   31.3197 H   0  0  0  0  0  0
    2.3267    2.4891   32.0508 H   0  0  0  0  0  0
    2.1379    1.9573   30.3585 H   0  0  0  0  0  0
    1.5062    6.9936   29.5871 H   0  0  0  0  0  0
   -0.8612    6.9710   29.8910 H   0  0  0  0  0  0
   -2.8409    2.8268   30.4840 H   0  0  0  0  0  0
   -3.7385   -0.2994   33.0285 H   0  0  0  0  0  0
   -2.6408    7.0991   31.0009 H   0  0  0  0  0  0
   -6.7802   -1.4293   30.6523 H   0  0  0  0  0  0
   -6.5876   -1.1404   32.3355 H   0  0  0  0  0  0
   -5.6714   -2.7529   28.9235 H   0  0  0  0  0  0
   -0.7360   -2.3665   29.6415 H   0  0  0  0  0  0
   -7.1785    0.7290   30.2365 H   0  0  0  0  0  0
   -6.3170    5.3356   30.6171 H   0  0  0  0  0  0
   -4.0746   -3.7753   27.3429 H   0  0  0  0  0  0
   -1.6987   -3.5104   27.6288 H   0  0  0  0  0  0
   -4.4641    1.5032   31.4203 H   0  0  0  0  0  0
   -4.7847    1.1616   29.7190 H   0  0  0  0  0  0
  1 20  1  0  0  0
  1 30  1  0  0  0
  2 16  2  0  0  0
  3  8  1  0  0  0
  3 16  1  0  0  0
  3 31  1  0  0  0
  4 14  1  0  0  0
  4 21  1  0  0  0
  4 32  1  0  0  0
  5 22  2  0  0  0
  5 27  1  0  0  0
  6 26  1  0  0  0
  6 33  1  0  0  0
  6 34  1  0  0  0
  7  8  1  0  0  0
  7 12  2  0  0  0
  7 15  1  0  0  0
  8 17  2  0  0  0
  9 10  1  0  0  0
  9 12  1  0  0  0
  9 18  2  0  0  0
 10 19  2  0  0  0
 10 22  1  0  0  0
 11 13  1  0  0  0
 11 14  1  0  0  0
 11 24  2  0  0  0
 12 35  1  0  0  0
 13 21  2  0  0  0
 13 23  1  0  0  0
 14 25  2  0  0  0
 15 16  1  0  0  0
 15 36  1  0  0  0
 15 37  1  0  0  0
 17 18  1  0  0  0
 17 38  1  0  0  0
 18 39  1  0  0  0
 19 20  1  0  0  0
 19 40  1  0  0  0
 20 27  2  0  0  0
 21 41  1  0  0  0
 22 42  1  0  0  0
 23 26  1  0  0  0
 23 43  1  0  0  0
 23 44  1  0  0  0
 24 28  1  0  0  0
 24 45  1  0  0  0
 25 29  1  0  0  0
 25 46  1  0  0  0
 26 30  1  0  0  0
 26 47  1  0  0  0
 27 48  1  0  0  0
 28 29  2  0  0  0
 28 49  1  0  0  0
 29 50  1  0  0  0
 30 51  1  0  0  0
 30 52  1  0  0  0
M  END
> <s_m_entry_id>
10410

> <s_m_entry_name>
dock_pv.479

> <s_m_Source_Path>
/home/csk/Desktop/cluster/DUD-E-result/met

> <s_m_Source_File>
dock_pv.maegz

> <i_m_Source_File_Index>
479

> <chembl_id>
CHEMBL1967302

> <chembl_pref_name>
None

> <i_lp_mmshare_version>
53161

> <i_f3d_flags>
0

> <r_lp_tautomer_probability>
1

> <s_lp_Force_Field>
OPLS_2005

> <r_lp_Energy>
38.663475

> <b_lp_Chiralities_Consistent>
1

> <s_lp_Variant>
CHEMBL3717_lig4059-1

> <s_i_glide_gridfile>
glide-grid_3lq8

> <i_i_glide_lignum>
5176

> <i_i_glide_rotatable_bonds>
6

> <r_i_docking_score>
-7.2635633869364

> <r_i_glide_ligand_efficiency>
-0.242118779564547

> <r_i_glide_ligand_efficiency_sa>
-0.752319341311907

> <r_i_glide_ligand_efficiency_ln>
-1.6503607443739

> <r_i_glide_gscore>
-7.2635633869364

> <r_i_glide_lipo>
-3.58239859818279

> <r_i_glide_hbond>
-0.32

> <r_i_glide_metal>
0

> <r_i_glide_rewards>
-1.88676872341432

> <r_i_glide_evdw>
-41.4321975708008

> <r_i_glide_ecoul>
-0.130408003926277

> <r_i_glide_erotb>
0.616775013789696

> <r_i_glide_esite>
0

> <r_i_glide_emodel>
-56.5876377812616

> <r_i_glide_energy>
-41.5626055747271

> <r_i_glide_einternal>
5.18327617645264

> <i_i_glide_confnum>
4

> <i_i_glide_posenum>
5

> <r_i_glide_eff_state_penalty>
0

> <s_user_duplicate_titles>
CHEMBL3717_lig4059

> <s_m_subgroup_title>
dock_pv

> <s_m_subgroupid>
dock_pv

> <b_m_subgroup_collapsed>
1

$$$$
CHEMBL3717_lig2746
                    3D
 Schrodinger Suite 2021-1.
 53 58  0  0  1  0            999 V2000
   -8.3561   -7.1788   29.5226 C   0  0  0  0  0  0
   -7.8847   -5.8087   29.5807 N   0  0  0  0  0  0
   -8.6040   -4.6580   29.4061 C   0  0  0  0  0  0
   -7.7068   -3.6040   29.5377 C   0  0  0  0  0  0
   -6.4923   -4.2614   29.8106 C   0  0  0  0  0  0
   -6.5946   -5.5705   29.8244 N   0  0  0  0  0  0
   -7.9773   -2.1431   29.4068 C   0  0  0  0  0  0
   -9.1913   -1.7042   28.8678 C   0  0  0  0  0  0
   -9.4926   -0.3485   28.7475 C   0  0  0  0  0  0
  -10.6745    0.0421   28.2194 F   0  0  0  0  0  0
   -8.5537    0.5953   29.1937 C   0  0  0  0  0  0
   -8.5860    1.9437   29.2456 N   0  0  0  0  0  0
   -7.3865    2.3344   29.8072 N   0  0  0  0  0  0
   -6.6199    1.2884   30.0306 C   0  0  0  0  0  0
   -4.9768    1.2737   30.7065 S   0  0  0  0  0  0
   -4.2863    2.9236   30.6079 C   0  0  0  0  0  0
   -5.0499    4.0988   30.6062 C   0  0  0  0  0  0
   -4.4497    5.3517   30.5209 C   0  0  0  0  0  0
   -3.0446    5.4626   30.4810 C   0  0  0  0  0  0
   -2.4880    6.6881   30.2873 N   0  0  0  0  0  0
   -1.1389    6.7711   30.2079 C   0  0  0  0  0  0
   -0.2743    5.6914   30.3935 C   0  0  0  0  0  0
    1.1060    5.9455   30.3239 N   0  0  0  0  0  0
    2.1802    4.9884   30.6099 C   0  0  1  0  0  0
    2.1193    4.3504   31.9928 C   0  0  0  0  0  0
    2.3392    2.8556   31.7487 C   0  0  0  0  0  0
    2.8642    2.7604   30.4285 O   0  0  0  0  0  0
    2.3079    3.8078   29.6353 C   0  0  0  0  0  0
   -0.8394    4.4282   30.6093 C   0  0  0  0  0  0
   -2.2501    4.2828   30.6080 C   0  0  0  0  0  0
   -2.8934    3.0207   30.6489 C   0  0  0  0  0  0
   -7.3245    0.1423   29.7050 N   0  0  0  0  0  0
   -7.0317   -1.1956   29.8080 C   0  0  0  0  0  0
   -9.4310   -7.1984   29.3407 H   0  0  0  0  0  0
   -8.1449   -7.6749   30.4701 H   0  0  0  0  0  0
   -7.8473   -7.7038   28.7138 H   0  0  0  0  0  0
   -9.6621   -4.6920   29.1953 H   0  0  0  0  0  0
   -5.5342   -3.7908   29.9778 H   0  0  0  0  0  0
   -9.9236   -2.4230   28.5326 H   0  0  0  0  0  0
   -6.1190    4.0940   30.6897 H   0  0  0  0  0  0
   -5.0589    6.2433   30.4696 H   0  0  0  0  0  0
   -0.7485    7.7650   30.0360 H   0  0  0  0  0  0
    1.3593    6.7164   29.7257 H   0  0  0  0  0  0
    3.1120    5.5540   30.5649 H   0  0  0  0  0  0
    2.9245    4.7532   32.6079 H   0  0  0  0  0  0
    1.1900    4.5378   32.5327 H   0  0  0  0  0  0
    3.0225    2.4015   32.4678 H   0  0  0  0  0  0
    1.4134    2.2850   31.8073 H   0  0  0  0  0  0
    1.3705    3.4866   29.1803 H   0  0  0  0  0  0
    2.9813    4.0313   28.8082 H   0  0  0  0  0  0
   -0.2306    3.5469   30.7198 H   0  0  0  0  0  0
   -2.2903    2.1266   30.7014 H   0  0  0  0  0  0
   -6.0672   -1.4501   30.2214 H   0  0  0  0  0  0
  1  2  1  0  0  0
  1 34  1  0  0  0
  1 35  1  0  0  0
  1 36  1  0  0  0
  2  3  1  0  0  0
  2  6  1  0  0  0
  3  4  2  0  0  0
  3 37  1  0  0  0
  4  5  1  0  0  0
  4  7  1  0  0  0
  5  6  2  0  0  0
  5 38  1  0  0  0
  7  8  1  0  0  0
  7 33  2  0  0  0
  8  9  2  0  0  0
  8 39  1  0  0  0
  9 10  1  0  0  0
  9 11  1  0  0  0
 11 12  2  0  0  0
 11 32  1  0  0  0
 12 13  1  0  0  0
 13 14  2  0  0  0
 14 15  1  0  0  0
 14 32  1  0  0  0
 15 16  1  0  0  0
 16 17  2  0  0  0
 16 31  1  0  0  0
 17 18  1  0  0  0
 17 40  1  0  0  0
 18 19  2  0  0  0
 18 41  1  0  0  0
 19 20  1  0  0  0
 19 30  1  0  0  0
 20 21  2  0  0  0
 21 22  1  0  0  0
 21 42  1  0  0  0
 22 23  1  0  0  0
 22 29  2  0  0  0
 23 24  1  0  0  0
 23 43  1  0  0  0
 24 25  1  0  0  0
 24 28  1  0  0  0
 24 44  1  0  0  0
 25 26  1  0  0  0
 25 45  1  0  0  0
 25 46  1  0  0  0
 26 27  1  0  0  0
 26 47  1  0  0  0
 26 48  1  0  0  0
 27 28  1  0  0  0
 28 49  1  0  0  0
 28 50  1  0  0  0
 29 30  1  0  0  0
 29 51  1  0  0  0
 30 31  2  0  0  0
 31 52  1  0  0  0
 32 33  1  0  0  0
 33 53  1  0  0  0
M  END
> <s_m_entry_id>
10411

> <s_m_entry_name>
dock_pv.480

> <s_m_Source_Path>
/home/csk/Desktop/cluster/DUD-E-result/met

> <s_m_Source_File>
dock_pv.maegz

> <i_m_Source_File_Index>
480

> <chembl_id>
CHEMBL3703987

> <chembl_pref_name>
None

> <i_lp_mmshare_version>
53161

> <i_f3d_flags>
0

> <r_lp_tautomer_probability>
1

> <s_lp_Force_Field>
OPLS_2005

> <r_lp_Energy>
33.644192

> <b_lp_Chiralities_Consistent>
1

> <s_lp_Variant>
CHEMBL3717_lig2746-2

> <s_i_glide_gridfile>
glide-grid_3lq8

> <i_i_glide_lignum>
3326

> <i_i_glide_rotatable_bonds>
5

> <r_i_docking_score>
-7.26314652910649

> <r_i_glide_ligand_efficiency>
-0.220095349366863

> <r_i_glide_ligand_efficiency_sa>
-0.705963388143838

> <r_i_glide_ligand_efficiency_ln>
-1.61528618151322

> <r_i_glide_gscore>
-7.26314652910649

> <r_i_glide_lipo>
-3.60081359004604

> <r_i_glide_hbond>
-0.0232550563098254

> <r_i_glide_metal>
0

> <r_i_glide_rewards>
-1.88897782713991

> <r_i_glide_evdw>
-40.7926025390625

> <r_i_glide_ecoul>
-1.22114932537079

> <r_i_glide_erotb>
0.47270247014802

> <r_i_glide_esite>
0

> <r_i_glide_emodel>
-57.2776857320273

> <r_i_glide_energy>
-42.0137518644333

> <r_i_glide_einternal>
4.07182312011719

> <i_i_glide_confnum>
11

> <i_i_glide_posenum>
217

> <r_i_glide_eff_state_penalty>
0

> <s_user_duplicate_titles>
CHEMBL3717_lig2746

> <s_m_subgroup_title>
dock_pv

> <s_m_subgroupid>
dock_pv

> <b_m_subgroup_collapsed>
1

$$$$
CHEMBL3717_lig436
                    3D
 Schrodinger Suite 2021-1.
 54 59  0  0  1  0            999 V2000
   -4.2446    2.7712   30.4316 C   0  0  0  0  0  0
   -5.4813    3.4036   30.2081 C   0  0  0  0  0  0
   -6.6719    2.7754   30.0613 N   0  0  0  0  0  0
   -4.2272    1.3624   30.4395 C   0  0  0  0  0  0
   -5.4546    0.6974   30.2863 C   0  0  0  0  0  0
   -6.6543    1.4447   30.0903 C   0  0  0  0  0  0
   -7.7267    0.5274   29.9133 C   0  0  0  0  0  0
   -7.1676   -0.7269   29.9923 C   0  0  0  0  0  0
   -5.8189   -0.6471   30.2786 N   0  0  0  0  0  0
   -4.7825   -2.0297   30.3729 S   0  0  0  0  0  0
   -5.6515   -3.2546   31.3560 C   0  0  0  0  0  0
   -4.7014   -2.5556   29.0082 O   0  0  0  0  0  0
   -3.5837   -1.5932   31.0980 O   0  0  0  0  0  0
   -6.7096   -3.9635   30.7763 C   0  0  0  0  0  0
   -7.4017   -4.9539   31.4708 C   0  0  0  0  0  0
   -7.0426   -5.3128   32.7689 C   0  0  0  0  0  0
   -5.2437   -3.6453   32.6486 C   0  0  0  0  0  0
   -5.9402   -4.6681   33.3474 C   0  0  0  0  0  0
   -5.3746   -4.8899   34.5632 N   0  0  0  0  0  0
   -4.2941   -4.0045   34.5705 O   0  0  0  0  0  0
   -4.1934   -3.2320   33.4078 N   0  0  0  0  0  0
   -3.0743    3.5235   30.6096 N   0  0  0  0  0  0
   -3.1158    4.9998   30.6077 C   0  0  0  0  0  0
   -1.8291    5.7645   30.9829 C   0  0  0  0  0  0
   -0.6332    5.0002   30.6082 N   0  0  0  0  0  0
   -0.5497    3.5853   31.0030 C   0  0  0  0  0  0
   -1.9329    3.0332   31.4068 C   0  0  0  0  0  0
    0.4263    5.6443   30.0537 C   0  0  0  0  0  0
    0.4189    6.8380   29.7505 O   0  0  0  0  0  0
    1.6892    4.8601   29.8360 C   0  0  0  0  0  0
    1.9658    4.2482   28.6097 C   0  0  0  0  0  0
    3.1810    3.5809   28.4338 C   0  0  0  0  0  0
    4.0848    3.5554   29.4993 C   0  0  0  0  0  0
    3.8184    4.1027   30.7098 N   0  0  0  0  0  0
    2.6294    4.7361   30.8636 C   0  0  0  0  0  0
   -5.5648    4.4788   30.1608 H   0  0  0  0  0  0
   -3.3158    0.8001   30.5581 H   0  0  0  0  0  0
   -8.7654    0.7503   29.7231 H   0  0  0  0  0  0
   -7.6473   -1.6850   29.8734 H   0  0  0  0  0  0
   -6.9932   -3.7593   29.7538 H   0  0  0  0  0  0
   -8.2187   -5.4662   30.9821 H   0  0  0  0  0  0
   -7.5728   -6.0913   33.2981 H   0  0  0  0  0  0
   -3.3334    5.2670   29.5722 H   0  0  0  0  0  0
   -3.9067    5.3543   31.2695 H   0  0  0  0  0  0
   -1.8049    5.8021   32.0712 H   0  0  0  0  0  0
   -1.8592    6.7924   30.6162 H   0  0  0  0  0  0
   -0.2611    3.0189   30.1158 H   0  0  0  0  0  0
    0.1650    3.4159   31.8080 H   0  0  0  0  0  0
   -1.8975    1.9552   31.4687 H   0  0  0  0  0  0
   -2.0940    3.3742   32.4262 H   0  0  0  0  0  0
    1.2522    4.2950   27.8021 H   0  0  0  0  0  0
    3.4204    3.1060   27.4939 H   0  0  0  0  0  0
    5.0421    3.0629   29.4067 H   0  0  0  0  0  0
    2.4441    5.1568   31.8393 H   0  0  0  0  0  0
  1  4  1  0  0  0
  1 22  1  0  0  0
  1  2  2  0  0  0
  2  3  1  0  0  0
  2 36  1  0  0  0
  3  6  2  0  0  0
  4  5  2  0  0  0
  4 37  1  0  0  0
  5  9  1  0  0  0
  5  6  1  0  0  0
  6  7  1  0  0  0
  7  8  2  0  0  0
  7 38  1  0  0  0
  8  9  1  0  0  0
  8 39  1  0  0  0
  9 10  1  0  0  0
 10 11  1  0  0  0
 10 12  2  0  0  0
 10 13  2  0  0  0
 11 17  1  0  0  0
 11 14  2  0  0  0
 14 15  1  0  0  0
 14 40  1  0  0  0
 15 16  2  0  0  0
 15 41  1  0  0  0
 16 18  1  0  0  0
 16 42  1  0  0  0
 17 18  1  0  0  0
 17 21  2  0  0  0
 18 19  2  0  0  0
 19 20  1  0  0  0
 20 21  1  0  0  0
 22 23  1  0  0  0
 22 27  1  0  0  0
 23 24  1  0  0  0
 23 43  1  0  0  0
 23 44  1  0  0  0
 24 25  1  0  0  0
 24 45  1  0  0  0
 24 46  1  0  0  0
 25 26  1  0  0  0
 25 28  1  0  0  0
 26 27  1  0  0  0
 26 47  1  0  0  0
 26 48  1  0  0  0
 27 49  1  0  0  0
 27 50  1  0  0  0
 28 29  2  0  0  0
 28 30  1  0  0  0
 30 31  2  0  0  0
 30 35  1  0  0  0
 31 32  1  0  0  0
 31 51  1  0  0  0
 32 33  2  0  0  0
 32 52  1  0  0  0
 33 34  1  0  0  0
 33 53  1  0  0  0
 34 35  2  0  0  0
 35 54  1  0  0  0
M  END
> <s_m_entry_id>
10412

> <s_m_entry_name>
dock_pv.481

> <s_m_Source_Path>
/home/csk/Desktop/cluster/DUD-E-result/met

> <s_m_Source_File>
dock_pv.maegz

> <i_m_Source_File_Index>
481

> <chembl_id>
CHEMBL564904

> <chembl_pref_name>
None

> <i_lp_mmshare_version>
53161

> <i_f3d_flags>
0

> <r_lp_tautomer_probability>
1

> <s_lp_Force_Field>
OPLS_2005

> <r_lp_Energy>
42.062566

> <b_lp_Chiralities_Consistent>
1

> <s_lp_Variant>
CHEMBL3717_lig436-1

> <s_i_glide_gridfile>
glide-grid_3lq8

> <i_i_glide_lignum>
460

> <i_i_glide_rotatable_bonds>
5

> <r_i_docking_score>
-7.25810258866958

> <r_i_glide_ligand_efficiency>
-0.207374359676274

> <r_i_glide_ligand_efficiency_sa>
-0.678335280730084

> <r_i_glide_ligand_efficiency_ln>
-1.5933146031209

> <r_i_glide_gscore>
-7.25810258866958

> <r_i_glide_lipo>
-3.24345421114824

> <r_i_glide_hbond>
0

> <r_i_glide_metal>
0

> <r_i_glide_rewards>
-1.66969708367329

> <r_i_glide_evdw>
-48.1747131347656

> <r_i_glide_ecoul>
-1.52116739749908

> <r_i_glide_erotb>
0.424509553740143

> <r_i_glide_esite>
-0.132550081225042

> <r_i_glide_emodel>
-64.3244269391855

> <r_i_glide_energy>
-49.6958805322647

> <r_i_glide_einternal>
6.32168054580688

> <i_i_glide_confnum>
1

> <i_i_glide_posenum>
124

> <r_i_glide_eff_state_penalty>
0

> <s_user_duplicate_titles>
CHEMBL3717_lig436,562235

> <s_m_subgroup_title>
dock_pv

> <s_m_subgroupid>
dock_pv

> <b_m_subgroup_collapsed>
1

$$$$
CHEMBL3717_lig3783
                    3D
 Schrodinger Suite 2021-1.
 49 53  0  0  1  0            999 V2000
   -2.9786    3.4336   30.6080 S   0  0  0  0  0  0
   -7.9557    1.3448   30.2433 O   0  0  0  0  0  0
   -2.4375   -2.8430   30.0124 N   0  0  0  0  0  0
    0.5090    5.5227   30.4562 N   0  0  0  0  0  0
   -7.8675    4.7570   31.4931 N   0  0  0  0  0  0
   -6.4939   -1.7432   29.0080 N   0  0  0  0  0  0
   -4.2297    4.6682   30.4969 C   0  0  0  0  0  0
   -1.7281    4.6606   30.6080 C   0  0  0  0  0  0
   -2.2732    5.9570   30.3912 C   0  0  0  0  0  0
   -5.6657    4.2663   30.6080 C   0  0  0  0  0  0
   -3.6940    5.9381   30.3832 C   0  0  0  0  0  0
   -2.9014   -1.0159   31.2295 C   0  0  0  0  0  0
   -3.8327   -1.0737   30.1391 C   0  0  0  0  0  0
   -2.0465   -2.1494   31.1357 C   0  0  0  0  0  0
   -6.1312    3.0115   30.2080 C   0  0  0  0  0  0
   -7.4330    2.5903   30.5155 C   0  0  0  0  0  0
   -0.3386    4.4862   30.6605 C   0  0  0  0  0  0
   -1.3772    7.0233   30.2002 C   0  0  0  0  0  0
   -6.5984    5.1261   31.1841 C   0  0  0  0  0  0
   -3.4798   -2.1944   29.4080 C   0  0  0  0  0  0
   -4.9197   -0.0551   29.8597 C   0  0  0  0  0  0
   -2.7035   -0.1122   32.2828 C   0  0  0  0  0  0
   -8.2539    3.4974   31.1820 C   0  0  0  0  0  0
   -1.0425   -2.4024   32.0737 C   0  0  0  0  0  0
   -0.0100    6.7475   30.2080 C   0  0  0  0  0  0
   -6.3903   -0.5463   29.8156 C   0  0  1  0  0  0
   -7.3697    0.5149   29.2437 C   0  0  0  0  0  0
   -1.6940   -0.3500   33.2099 C   0  0  0  0  0  0
   -0.8940   -1.4815   33.1119 C   0  0  0  0  0  0
   -2.0938   -3.7476   29.7002 H   0  0  0  0  0  0
   -7.4532   -1.9368   28.7603 H   0  0  0  0  0  0
   -5.9855   -1.5852   28.1438 H   0  0  0  0  0  0
   -4.3036    6.8205   30.2724 H   0  0  0  0  0  0
   -5.4624    2.3858   29.6536 H   0  0  0  0  0  0
    0.1054    3.5100   30.7955 H   0  0  0  0  0  0
   -1.7212    8.0282   30.0137 H   0  0  0  0  0  0
   -6.3204    6.1397   31.4080 H   0  0  0  0  0  0
   -3.9161   -2.6085   28.5099 H   0  0  0  0  0  0
   -4.8585    0.6954   30.6434 H   0  0  0  0  0  0
   -4.6716    0.4426   28.9209 H   0  0  0  0  0  0
   -3.3275    0.7570   32.3681 H   0  0  0  0  0  0
   -9.2633    3.2235   31.4507 H   0  0  0  0  0  0
   -0.3945   -3.2608   31.9994 H   0  0  0  0  0  0
    0.7059    7.5396   30.0398 H   0  0  0  0  0  0
   -6.7087   -0.8202   30.8234 H   0  0  0  0  0  0
   -6.9322    1.0759   28.4170 H   0  0  0  0  0  0
   -8.2311    0.0176   28.7935 H   0  0  0  0  0  0
   -1.5382    0.3453   34.0223 H   0  0  0  0  0  0
   -0.1176   -1.6430   33.8462 H   0  0  0  0  0  0
  1  7  1  0  0  0
  1  8  1  0  0  0
  2 16  1  0  0  0
  2 27  1  0  0  0
  3 14  1  0  0  0
  3 20  1  0  0  0
  3 30  1  0  0  0
  4 17  1  0  0  0
  4 25  2  0  0  0
  5 19  2  0  0  0
  5 23  1  0  0  0
  6 26  1  0  0  0
  6 31  1  0  0  0
  6 32  1  0  0  0
  7 10  1  0  0  0
  7 11  2  0  0  0
  8  9  1  0  0  0
  8 17  2  0  0  0
  9 11  1  0  0  0
  9 18  2  0  0  0
 10 15  2  0  0  0
 10 19  1  0  0  0
 11 33  1  0  0  0
 12 13  1  0  0  0
 12 14  1  0  0  0
 12 22  2  0  0  0
 13 20  2  0  0  0
 13 21  1  0  0  0
 14 24  2  0  0  0
 15 16  1  0  0  0
 15 34  1  0  0  0
 16 23  2  0  0  0
 17 35  1  0  0  0
 18 25  1  0  0  0
 18 36  1  0  0  0
 19 37  1  0  0  0
 20 38  1  0  0  0
 21 26  1  0  0  0
 21 39  1  0  0  0
 21 40  1  0  0  0
 22 28  1  0  0  0
 22 41  1  0  0  0
 23 42  1  0  0  0
 24 29  1  0  0  0
 24 43  1  0  0  0
 25 44  1  0  0  0
 26 27  1  0  0  0
 26 45  1  0  0  0
 27 46  1  0  0  0
 27 47  1  0  0  0
 28 29  2  0  0  0
 28 48  1  0  0  0
 29 49  1  0  0  0
M  END
> <s_m_entry_id>
10413

> <s_m_entry_name>
dock_pv.482

> <s_m_Source_Path>
/home/csk/Desktop/cluster/DUD-E-result/met

> <s_m_Source_File>
dock_pv.maegz

> <i_m_Source_File_Index>
482

> <chembl_id>
CHEMBL1966524

> <chembl_pref_name>
None

> <i_lp_mmshare_version>
53161

> <i_f3d_flags>
0

> <r_lp_tautomer_probability>
1

> <s_lp_Force_Field>
OPLS_2005

> <r_lp_Energy>
21.902535

> <b_lp_Chiralities_Consistent>
1

> <s_lp_Variant>
CHEMBL3717_lig3783-2

> <s_i_glide_gridfile>
glide-grid_3lq8

> <i_i_glide_lignum>
4790

> <i_i_glide_rotatable_bonds>
6

> <r_i_docking_score>
-7.25567894194734

> <r_i_glide_ligand_efficiency>
-0.250195825584391

> <r_i_glide_ligand_efficiency_sa>
-0.768680843796494

> <r_i_glide_ligand_efficiency_ln>
-1.6613664895629

> <r_i_glide_gscore>
-7.25567894194734

> <r_i_glide_lipo>
-4.02464149556263

> <r_i_glide_hbond>
-0.339604228301867

> <r_i_glide_metal>
0

> <r_i_glide_rewards>
-1.28372958356099

> <r_i_glide_evdw>
-36.6371879577637

> <r_i_glide_ecoul>
-2.19941854476929

> <r_i_glide_erotb>
0.611132172806542

> <r_i_glide_esite>
-0.05706362772482

> <r_i_glide_emodel>
-53.1932872145431

> <r_i_glide_energy>
-38.836606502533

> <r_i_glide_einternal>
7.68978643417358

> <i_i_glide_confnum>
13

> <i_i_glide_posenum>
170

> <r_i_glide_eff_state_penalty>
0

> <s_user_duplicate_titles>
CHEMBL3717_lig3783

> <s_m_subgroup_title>
dock_pv

> <s_m_subgroupid>
dock_pv

> <b_m_subgroup_collapsed>
1

$$$$
CHEMBL3717_lig447
                    3D
 Schrodinger Suite 2021-1.
 33 35  0  0  1  0            999 V2000
    2.3850    3.5485   27.8544 C   0  0  0  0  0  0
    3.6436    3.4406   28.4408 C   0  0  0  0  0  0
    3.8965    3.6595   29.7562 N   0  0  0  0  0  0
    1.2928    3.9395   28.6261 C   0  0  0  0  0  0
    1.5449    4.1975   29.9739 C   0  0  0  0  0  0
    2.8571    4.0340   30.5070 C   0  0  0  0  0  0
    2.7968    4.3569   31.8916 C   0  0  0  0  0  0
    1.5026    4.7527   32.1410 C   0  0  0  0  0  0
    0.7328    4.6428   31.0039 N   0  0  0  0  0  0
   -0.6770    5.0110   30.9048 C   0  0  0  0  0  0
   -1.6126    3.7845   30.7528 C   0  0  0  0  0  0
   -3.1152    4.1026   30.6080 C   0  0  0  0  0  0
   -4.0657    3.0839   30.3432 C   0  0  0  0  0  0
   -5.4208    3.4189   30.2080 C   0  0  0  0  0  0
   -5.8512    4.7331   30.3451 C   0  0  0  0  0  0
   -4.9241    5.7327   30.6082 C   0  0  0  0  0  0
   -3.5735    5.4255   30.7323 C   0  0  0  0  0  0
   -3.6942    1.6599   30.2090 N   0  3  0  0  0  0
   -2.8987    1.1812   31.0082 O   0  0  0  0  0  0
   -4.2279    1.0152   29.3116 O   0  5  0  0  0  0
    2.2511    3.3283   26.8073 H   0  0  0  0  0  0
    4.4947    3.1571   27.8399 H   0  0  0  0  0  0
    0.3060    4.0368   28.2080 H   0  0  0  0  0  0
    3.6035    4.3571   32.6077 H   0  0  0  0  0  0
    1.0591    5.1272   33.0468 H   0  0  0  0  0  0
   -0.7706    5.6935   30.0584 H   0  0  0  0  0  0
   -0.9364    5.5590   31.8083 H   0  0  0  0  0  0
   -1.4903    3.1546   31.6341 H   0  0  0  0  0  0
   -1.3017    3.1923   29.8913 H   0  0  0  0  0  0
   -6.1537    2.6512   30.0019 H   0  0  0  0  0  0
   -6.8970    4.9824   30.2338 H   0  0  0  0  0  0
   -5.2576    6.7565   30.6914 H   0  0  0  0  0  0
   -2.9013    6.2436   30.9311 H   0  0  0  0  0  0
  1  4  1  0  0  0
  1  2  2  0  0  0
  1 21  1  0  0  0
  2  3  1  0  0  0
  2 22  1  0  0  0
  3  6  2  0  0  0
  4  5  2  0  0  0
  4 23  1  0  0  0
  5  6  1  0  0  0
  5  9  1  0  0  0
  6  7  1  0  0  0
  7  8  2  0  0  0
  7 24  1  0  0  0
  8  9  1  0  0  0
  8 25  1  0  0  0
  9 10  1  0  0  0
 10 11  1  0  0  0
 10 26  1  0  0  0
 10 27  1  0  0  0
 11 12  1  0  0  0
 11 28  1  0  0  0
 11 29  1  0  0  0
 12 13  2  0  0  0
 12 17  1  0  0  0
 13 14  1  0  0  0
 13 18  1  0  0  0
 14 15  2  0  0  0
 14 30  1  0  0  0
 15 16  1  0  0  0
 15 31  1  0  0  0
 16 17  2  0  0  0
 16 32  1  0  0  0
 17 33  1  0  0  0
 18 19  2  0  0  0
 18 20  1  0  0  0
M  CHG  2  18   1  20  -1
M  END
> <s_m_entry_id>
10414

> <s_m_entry_name>
dock_pv.483

> <s_m_Source_Path>
/home/csk/Desktop/cluster/DUD-E-result/met

> <s_m_Source_File>
dock_pv.maegz

> <i_m_Source_File_Index>
483

> <chembl_id>
CHEMBL540744

> <chembl_pref_name>
None

> <i_lp_mmshare_version>
53161

> <i_f3d_flags>
0

> <r_lp_tautomer_probability>
1

> <s_lp_Force_Field>
OPLS_2005

> <r_lp_Energy>
19.642801

> <b_lp_Chiralities_Consistent>
1

> <s_lp_Variant>
CHEMBL3717_lig447-1

> <s_i_glide_gridfile>
glide-grid_3lq8

> <i_i_glide_lignum>
471

> <i_i_glide_rotatable_bonds>
4

> <r_i_docking_score>
-7.25494248020235

> <r_i_glide_ligand_efficiency>
-0.362747124010118

> <r_i_glide_ligand_efficiency_sa>
-0.984647182798954

> <r_i_glide_ligand_efficiency_ln>
-1.81567281877709

> <r_i_glide_gscore>
-7.25494248020235

> <r_i_glide_lipo>
-3.7358788355233

> <r_i_glide_hbond>
0

> <r_i_glide_metal>
0

> <r_i_glide_rewards>
-2.68120127929738

> <r_i_glide_evdw>
-34.1907119750977

> <r_i_glide_ecoul>
0.819724917411804

> <r_i_glide_erotb>
0.748714495761442

> <r_i_glide_esite>
0

> <r_i_glide_emodel>
-44.7268575621934

> <r_i_glide_energy>
-33.3709870576859

> <r_i_glide_einternal>
4.64088439941406

> <i_i_glide_confnum>
3

> <i_i_glide_posenum>
195

> <r_i_glide_eff_state_penalty>
0

> <s_user_duplicate_titles>
CHEMBL3717_lig447,565618

> <s_m_subgroup_title>
dock_pv

> <s_m_subgroupid>
dock_pv

> <b_m_subgroup_collapsed>
1

$$$$
CHEMBL3717_lig3757
                    3D
 Schrodinger Suite 2021-1.
 29 31  0  0  1  0            999 V2000
    3.1129    4.7437   29.9829 Cl  0  0  0  0  0  0
   -3.2939    6.6580   30.9626 O   0  0  0  0  0  0
   -3.5139    4.3978   30.6082 N   0  0  0  0  0  0
   -7.3002    1.3737   29.9267 N   0  0  0  0  0  0
   -8.6291    1.5704   29.8614 N   0  0  0  0  0  0
   -6.6127    2.5447   30.1677 C   0  0  0  0  0  0
   -7.6079    3.5434   30.2659 C   0  0  0  0  0  0
   -4.8939    4.1636   30.5256 C   0  0  0  0  0  0
   -5.2502    2.8300   30.2879 C   0  0  0  0  0  0
   -2.8112    5.5395   30.7813 C   0  0  0  0  0  0
   -7.2282    4.8686   30.5040 C   0  0  0  0  0  0
   -5.8722    5.1610   30.6388 C   0  0  0  0  0  0
   -1.3127    5.3600   30.6762 C   0  0  0  0  0  0
   -8.8325    2.8433   30.0661 C   0  0  0  0  0  0
   -0.5181    6.4139   30.2049 C   0  0  0  0  0  0
   -0.6975    4.1408   31.0093 C   0  0  0  0  0  0
    1.4333    4.9979   30.2889 C   0  0  0  0  0  0
    0.8472    6.2306   30.0056 C   0  0  0  0  0  0
    0.6677    3.9580   30.8081 C   0  0  0  0  0  0
   -2.9567    3.5720   30.4681 H   0  0  0  0  0  0
   -6.9164    0.4468   29.8164 H   0  0  0  0  0  0
   -4.5101    2.0492   30.1894 H   0  0  0  0  0  0
   -7.9671    5.6535   30.5589 H   0  0  0  0  0  0
   -5.6066    6.1937   30.7984 H   0  0  0  0  0  0
   -9.8327    3.2526   30.0635 H   0  0  0  0  0  0
   -0.9577    7.3698   29.9531 H   0  0  0  0  0  0
   -1.2598    3.3214   31.4357 H   0  0  0  0  0  0
    1.4459    7.0400   29.6138 H   0  0  0  0  0  0
    1.1275    3.0096   31.0453 H   0  0  0  0  0  0
  1 17  1  0  0  0
  2 10  2  0  0  0
  3  8  1  0  0  0
  3 10  1  0  0  0
  3 20  1  0  0  0
  4  5  1  0  0  0
  4  6  1  0  0  0
  4 21  1  0  0  0
  5 14  2  0  0  0
  6  7  1  0  0  0
  6  9  2  0  0  0
  7 11  2  0  0  0
  7 14  1  0  0  0
  8  9  1  0  0  0
  8 12  2  0  0  0
  9 22  1  0  0  0
 10 13  1  0  0  0
 11 12  1  0  0  0
 11 23  1  0  0  0
 12 24  1  0  0  0
 13 15  2  0  0  0
 13 16  1  0  0  0
 14 25  1  0  0  0
 15 18  1  0  0  0
 15 26  1  0  0  0
 16 19  2  0  0  0
 16 27  1  0  0  0
 17 18  2  0  0  0
 17 19  1  0  0  0
 18 28  1  0  0  0
 19 29  1  0  0  0
M  END
> <s_m_entry_id>
10415

> <s_m_entry_name>
dock_pv.484

> <s_m_Source_Path>
/home/csk/Desktop/cluster/DUD-E-result/met

> <s_m_Source_File>
dock_pv.maegz

> <i_m_Source_File_Index>
484

> <chembl_id>
CHEMBL1972489

> <chembl_pref_name>
None

> <i_lp_mmshare_version>
53161

> <i_f3d_flags>
0

> <r_lp_tautomer_probability>
0.980392156862745

> <s_lp_Force_Field>
OPLS_2005

> <r_lp_Energy>
19.201237

> <b_lp_Chiralities_Consistent>
1

> <s_lp_Variant>
CHEMBL3717_lig3757-1

> <s_i_glide_gridfile>
glide-grid_3lq8

> <i_i_glide_lignum>
4751

> <i_i_glide_rotatable_bonds>
3

> <r_i_docking_score>
-7.25258817056809

> <r_i_glide_ligand_efficiency>
-0.381715166872005

> <r_i_glide_ligand_efficiency_sa>
-1.01856937962372

> <r_i_glide_ligand_efficiency_ln>
-1.83868687255006

> <r_i_glide_gscore>
-7.25258817056809

> <r_i_glide_lipo>
-3.32516554187492

> <r_i_glide_hbond>
0

> <r_i_glide_metal>
0

> <r_i_glide_rewards>
-2.70653349994291

> <r_i_glide_evdw>
-32.9866333007812

> <r_i_glide_ecoul>
-1.99559593200684

> <r_i_glide_erotb>
0.727781926089826

> <r_i_glide_esite>
0

> <r_i_glide_emodel>
-43.9836442343435

> <r_i_glide_energy>
-34.9822292327881

> <r_i_glide_einternal>
8.6956615447998

> <i_i_glide_confnum>
11

> <i_i_glide_posenum>
158

> <r_i_glide_eff_state_penalty>
0

> <s_user_duplicate_titles>
CHEMBL3717_lig3757

> <s_m_subgroup_title>
dock_pv

> <s_m_subgroupid>
dock_pv

> <b_m_subgroup_collapsed>
1

$$$$
CHEMBL3717_lig1322
                    3D
 Schrodinger Suite 2021-1.
 41 44  0  0  1  0            999 V2000
   -7.5336   -1.5444   29.6703 S   0  0  0  0  0  0
   -6.7734   -0.0663   29.2898 N   0  0  0  0  0  0
   -5.4784   -0.2097   29.4644 C   0  0  0  0  0  0
   -4.9858   -1.4406   29.9408 C   0  0  0  0  0  0
   -6.0398   -2.3439   30.0614 C   0  0  0  0  0  0
   -3.6013   -1.7542   30.1290 C   0  0  0  0  0  0
   -3.0623   -1.7222   31.2313 O   0  0  0  0  0  0
   -2.9693   -2.0868   29.0076 N   0  0  0  0  0  0
   -5.9921   -3.6800   30.3873 N   0  0  0  0  0  0
   -7.0797   -4.4714   30.9405 C   0  0  0  0  0  0
   -4.4942    1.1779   29.0076 S   0  0  0  0  0  0
   -4.2015    1.8637   30.6533 C   0  0  0  0  0  0
   -1.6540    3.6297   30.6116 N   0  0  0  0  0  0
   -2.9260    4.0780   30.6081 N   0  0  0  0  0  0
   -3.3132    5.4276   30.6079 C   0  0  0  0  0  0
   -2.3931    6.3970   30.6035 N   0  0  0  0  0  0
   -1.0956    5.9812   30.6079 C   0  0  0  0  0  0
   -0.7279    4.6302   30.6128 C   0  0  0  0  0  0
   -5.1318    4.2091   30.6057 N   0  0  0  0  0  0
   -4.6604    5.5134   30.6081 N   0  0  0  0  0  0
   -4.1092    3.3734   30.6077 C   0  0  0  0  0  0
    0.6925    4.2176   30.6074 C   0  0  0  0  0  0
    1.2369    3.5571   29.4999 C   0  0  0  0  0  0
    2.5787    3.1792   29.4968 C   0  0  0  0  0  0
    3.3769    3.4676   30.5998 C   0  0  0  0  0  0
    2.8451    4.1314   31.7010 C   0  0  0  0  0  0
    1.5082    4.5152   31.7019 C   0  0  0  0  0  0
    4.6789    3.1041   30.6074 F   0  0  0  0  0  0
   -3.4484   -2.0091   28.1159 H   0  0  0  0  0  0
   -2.0064   -2.3773   29.0492 H   0  0  0  0  0  0
   -5.0887   -4.0876   30.6186 H   0  0  0  0  0  0
   -6.8025   -5.5263   30.9501 H   0  0  0  0  0  0
   -7.2844   -4.1689   31.9706 H   0  0  0  0  0  0
   -7.9939   -4.3601   30.3520 H   0  0  0  0  0  0
   -5.0068    1.5545   31.3224 H   0  0  0  0  0  0
   -3.2928    1.4133   31.0544 H   0  0  0  0  0  0
   -0.3453    6.7594   30.6032 H   0  0  0  0  0  0
    0.6191    3.3240   28.6441 H   0  0  0  0  0  0
    2.9954    2.6617   28.6452 H   0  0  0  0  0  0
    3.4746    4.3572   32.5480 H   0  0  0  0  0  0
    1.1051    5.0345   32.5591 H   0  0  0  0  0  0
  1  2  1  0  0  0
  1  5  1  0  0  0
  2  3  2  0  0  0
  3  4  1  0  0  0
  3 11  1  0  0  0
  4  5  2  0  0  0
  4  6  1  0  0  0
  5  9  1  0  0  0
  6  7  2  0  0  0
  6  8  1  0  0  0
  8 29  1  0  0  0
  8 30  1  0  0  0
  9 10  1  0  0  0
  9 31  1  0  0  0
 10 32  1  0  0  0
 10 33  1  0  0  0
 10 34  1  0  0  0
 11 12  1  0  0  0
 12 21  1  0  0  0
 12 35  1  0  0  0
 12 36  1  0  0  0
 13 14  1  0  0  0
 13 18  2  0  0  0
 14 15  1  0  0  0
 14 21  1  0  0  0
 15 16  1  0  0  0
 15 20  2  0  0  0
 16 17  2  0  0  0
 17 18  1  0  0  0
 17 37  1  0  0  0
 18 22  1  0  0  0
 19 20  1  0  0  0
 19 21  2  0  0  0
 22 23  1  0  0  0
 22 27  2  0  0  0
 23 24  2  0  0  0
 23 38  1  0  0  0
 24 25  1  0  0  0
 24 39  1  0  0  0
 25 26  2  0  0  0
 25 28  1  0  0  0
 26 27  1  0  0  0
 26 40  1  0  0  0
 27 41  1  0  0  0
M  END
> <s_m_entry_id>
10416

> <s_m_entry_name>
dock_pv.485

> <s_m_Source_Path>
/home/csk/Desktop/cluster/DUD-E-result/met

> <s_m_Source_File>
dock_pv.maegz

> <i_m_Source_File_Index>
485

> <chembl_id>
CHEMBL2170966

> <chembl_pref_name>
None

> <i_lp_mmshare_version>
53161

> <i_f3d_flags>
0

> <r_lp_tautomer_probability>
1

> <s_lp_Force_Field>
OPLS_2005

> <r_lp_Energy>
18.382596

> <b_lp_Chiralities_Consistent>
1

> <s_lp_Variant>
CHEMBL3717_lig1322-1

> <s_i_glide_gridfile>
glide-grid_3lq8

> <i_i_glide_lignum>
1508

> <i_i_glide_rotatable_bonds>
6

> <r_i_docking_score>
-7.24621124385956

> <r_i_glide_ligand_efficiency>
-0.25879325870927

> <r_i_glide_ligand_efficiency_sa>
-0.785848754519465

> <r_i_glide_ligand_efficiency_ln>
-1.67263831308982

> <r_i_glide_gscore>
-7.24621124385956

> <r_i_glide_lipo>
-2.62440881293987

> <r_i_glide_hbond>
-0.179465860297644

> <r_i_glide_metal>
0

> <r_i_glide_rewards>
-1.97468551439432

> <r_i_glide_evdw>
-47.747631072998

> <r_i_glide_ecoul>
-3.15288901329041

> <r_i_glide_erotb>
0.455638266497934

> <r_i_glide_esite>
-0.0629744170822068

> <r_i_glide_emodel>
-70.8364615770371

> <r_i_glide_energy>
-50.9005200862885

> <r_i_glide_einternal>
4.93770837783813

> <i_i_glide_confnum>
32

> <i_i_glide_posenum>
246

> <r_i_glide_eff_state_penalty>
0

> <s_user_duplicate_titles>
CHEMBL3717_lig1322

> <s_m_subgroup_title>
dock_pv

> <s_m_subgroupid>
dock_pv

> <b_m_subgroup_collapsed>
1

$$$$
CHEMBL3717_lig643
                    3D
 Schrodinger Suite 2021-1.
 57 60  0  0  1  0            999 V2000
   -3.9036   -2.8430   29.1030 C   0  0  0  0  0  0
   -3.2838   -2.0652   30.2508 C   0  0  0  0  0  0
   -3.9636   -0.9943   30.8801 C   0  0  0  0  0  0
   -3.4048   -0.4105   32.0245 C   0  0  0  0  0  0
   -2.1711   -0.8230   32.5216 C   0  0  0  0  0  0
   -1.4750   -1.8364   31.8755 C   0  0  0  0  0  0
   -2.0233   -2.4425   30.7486 C   0  0  0  0  0  0
   -5.1284   -2.9302   29.0081 O   0  0  0  0  0  0
   -3.0608   -3.4209   28.2193 N   0  0  0  0  0  0
   -5.1951   -0.5096   30.3895 N   0  0  0  0  0  0
   -5.3034    3.0923   30.3900 C   0  0  0  0  0  0
   -6.6089    3.4145   30.2080 N   0  0  0  0  0  0
   -7.4801    2.3773   30.0803 C   0  0  0  0  0  0
   -7.0734    1.0396   30.1254 C   0  0  0  0  0  0
   -5.7057    0.7969   30.3184 C   0  0  0  0  0  0
   -4.8295    1.8234   30.4435 N   0  0  0  0  0  0
   -4.4078    4.1688   30.5068 N   0  0  0  0  0  0
    1.1967    4.3717   31.1722 N   0  0  0  0  0  0
   -0.2176    4.3715   31.0920 C   0  0  0  0  0  0
   -0.9592    5.5069   30.6837 C   0  0  0  0  0  0
   -0.2261    6.7395   30.1971 C   0  0  0  0  0  0
    0.5243    6.4526   28.8905 C   0  0  0  0  0  0
    1.3560    5.1393   28.8658 C   0  0  0  0  0  0
    2.0534    4.7131   30.1664 C   0  0  0  0  0  0
   -2.3544    5.4282   30.5797 C   0  0  0  0  0  0
   -3.0236    4.2211   30.7717 C   0  0  0  0  0  0
   -2.2844    3.1232   31.2230 C   0  0  0  0  0  0
   -0.9173    3.2121   31.4079 C   0  0  0  0  0  0
    3.2825    4.7570   30.2597 O   0  0  0  0  0  0
    1.8120    4.1586   32.4877 C   0  0  0  0  0  0
   -8.2331   -0.2321   29.9447 Cl  0  0  0  0  0  0
   -3.4340   -4.2035   27.0335 C   0  0  0  0  0  0
   -4.0943   -5.4886   27.3363 C   0  0  0  0  0  0
   -4.6906   -6.5216   27.5971 C   0  0  0  0  0  0
   -3.9479    0.3571   32.5497 H   0  0  0  0  0  0
   -1.7576   -0.3577   33.4043 H   0  0  0  0  0  0
   -0.5128   -2.1587   32.2484 H   0  0  0  0  0  0
   -1.4639   -3.2430   30.2906 H   0  0  0  0  0  0
   -2.0945   -3.4835   28.4903 H   0  0  0  0  0  0
   -5.7138   -1.1983   29.8561 H   0  0  0  0  0  0
   -8.5192    2.6343   29.9330 H   0  0  0  0  0  0
   -4.8464    5.0631   30.3458 H   0  0  0  0  0  0
   -0.9160    7.5732   30.0528 H   0  0  0  0  0  0
    0.4722    7.0631   30.9685 H   0  0  0  0  0  0
    1.1059    7.3360   28.6494 H   0  0  0  0  0  0
   -0.1982    6.3784   28.0836 H   0  0  0  0  0  0
    2.0965    5.1569   28.0799 H   0  0  0  0  0  0
    0.6973    4.3165   28.5835 H   0  0  0  0  0  0
   -2.9074    6.2884   30.2316 H   0  0  0  0  0  0
   -2.7385    2.1838   31.4754 H   0  0  0  0  0  0
   -0.3876    2.3606   31.8079 H   0  0  0  0  0  0
    2.7090    4.7572   32.6467 H   0  0  0  0  0  0
    1.1077    4.4181   33.2741 H   0  0  0  0  0  0
    2.0910    3.1127   32.6072 H   0  0  0  0  0  0
   -2.5398   -4.4147   26.4489 H   0  0  0  0  0  0
   -4.0936   -3.6429   26.3741 H   0  0  0  0  0  0
   -5.2194   -7.4099   27.8569 H   0  0  0  0  0  0
  1  8  2  0  0  0
  1  9  1  0  0  0
  1  2  1  0  0  0
  2  3  1  0  0  0
  2  7  2  0  0  0
  3  4  2  0  0  0
  3 10  1  0  0  0
  4  5  1  0  0  0
  4 35  1  0  0  0
  5  6  2  0  0  0
  5 36  1  0  0  0
  6  7  1  0  0  0
  6 37  1  0  0  0
  7 38  1  0  0  0
  9 32  1  0  0  0
  9 39  1  0  0  0
 10 15  1  0  0  0
 10 40  1  0  0  0
 11 12  1  0  0  0
 11 16  2  0  0  0
 11 17  1  0  0  0
 12 13  2  0  0  0
 13 14  1  0  0  0
 13 41  1  0  0  0
 14 15  2  0  0  0
 14 31  1  0  0  0
 15 16  1  0  0  0
 17 26  1  0  0  0
 17 42  1  0  0  0
 18 19  1  0  0  0
 18 24  1  0  0  0
 18 30  1  0  0  0
 19 20  1  0  0  0
 19 28  2  0  0  0
 20 21  1  0  0  0
 20 25  2  0  0  0
 21 22  1  0  0  0
 21 43  1  0  0  0
 21 44  1  0  0  0
 22 23  1  0  0  0
 22 45  1  0  0  0
 22 46  1  0  0  0
 23 24  1  0  0  0
 23 47  1  0  0  0
 23 48  1  0  0  0
 24 29  2  0  0  0
 25 26  1  0  0  0
 25 49  1  0  0  0
 26 27  2  0  0  0
 27 28  1  0  0  0
 27 50  1  0  0  0
 28 51  1  0  0  0
 30 52  1  0  0  0
 30 53  1  0  0  0
 30 54  1  0  0  0
 32 33  1  0  0  0
 32 55  1  0  0  0
 32 56  1  0  0  0
 33 34  3  0  0  0
 34 57  1  0  0  0
M  END
> <s_m_entry_id>
10417

> <s_m_entry_name>
dock_pv.486

> <s_m_Source_Path>
/home/csk/Desktop/cluster/DUD-E-result/met

> <s_m_Source_File>
dock_pv.maegz

> <i_m_Source_File_Index>
486

> <chembl_id>
CHEMBL1644802

> <chembl_pref_name>
None

> <i_lp_mmshare_version>
53161

> <i_f3d_flags>
0

> <r_lp_tautomer_probability>
0.999999624730965

> <s_lp_Force_Field>
OPLS_2005

> <r_lp_Energy>
38.829059

> <b_lp_Chiralities_Consistent>
1

> <s_lp_Variant>
CHEMBL3717_lig643-1

> <s_i_glide_gridfile>
glide-grid_3lq8

> <i_i_glide_lignum>
701

> <i_i_glide_rotatable_bonds>
8

> <r_i_docking_score>
-7.24164844796289

> <r_i_glide_ligand_efficiency>
-0.212989660234203

> <r_i_glide_ligand_efficiency_sa>
-0.690003816033737

> <r_i_glide_ligand_efficiency_ln>
-1.59988326351379

> <r_i_glide_gscore>
-7.24164844796289

> <r_i_glide_lipo>
-3.73619483930954

> <r_i_glide_hbond>
0

> <r_i_glide_metal>
0

> <r_i_glide_rewards>
-1.81000810293947

> <r_i_glide_evdw>
-43.4457397460938

> <r_i_glide_ecoul>
-1.25538074970245

> <r_i_glide_erotb>
0.717780672123953

> <r_i_glide_esite>
-0.052632078077789

> <r_i_glide_emodel>
-58.2587524124256

> <r_i_glide_energy>
-44.7011204957962

> <r_i_glide_einternal>
1.13212275505066

> <i_i_glide_confnum>
2

> <i_i_glide_posenum>
161

> <r_i_glide_eff_state_penalty>
0

> <s_user_duplicate_titles>
CHEMBL3717_lig643

> <s_m_subgroup_title>
dock_pv

> <s_m_subgroupid>
dock_pv

> <b_m_subgroup_collapsed>
1

$$$$
CHEMBL3717_lig1517
                    3D
 Schrodinger Suite 2021-1.
 42 46  0  0  1  0            999 V2000
   -5.5581   -3.1618   30.0615 C   0  0  0  0  0  0
   -0.1446    6.8794   30.1026 C   0  0  0  0  0  0
   -6.9582    3.0109   30.4040 N   0  0  0  0  0  0
   -5.0048   -0.8838   30.6965 C   0  0  0  0  0  0
   -6.5160    1.6993   30.3264 N   0  0  0  0  0  0
   -5.6442    5.1597   30.6077 C   0  0  0  0  0  0
   -6.9399   -4.5184   31.4603 N   0  0  0  0  0  0
   -5.1967    1.6731   30.4181 C   0  0  0  0  0  0
   -7.6611   -4.6643   32.5995 C   0  0  0  0  0  0
   -1.8164    5.1806   30.6333 C   0  0  0  0  0  0
    0.8800    6.0171   30.4838 C   0  0  0  0  0  0
   -1.4748    6.4751   30.2079 C   0  0  0  0  0  0
   -3.2473    4.7236   30.6320 C   0  0  0  0  0  0
   -4.9144   -1.9544   29.8040 C   0  0  0  0  0  0
   -6.3886   -2.2493   32.1758 C   0  0  0  0  0  0
   -7.1509   -2.4437   33.3541 C   0  0  0  0  0  0
   -5.8499    3.7786   30.5136 C   0  0  0  0  0  0
   -4.3063    0.4353   30.3633 C   0  0  0  0  0  0
   -3.4309    3.3689   30.6037 N   0  0  0  0  0  0
   -4.7110    2.9613   30.5228 N   0  0  0  0  0  0
   -4.3264    5.6227   30.6591 C   0  0  0  0  0  0
   -6.3110   -3.3289   31.2436 C   0  0  0  0  0  0
   -7.7907   -3.6650   33.5606 C   0  0  0  0  0  0
   -5.7192   -1.0337   31.8896 C   0  0  0  0  0  0
    0.5732    4.7426   30.9573 C   0  0  0  0  0  0
   -0.7621    4.3260   31.0081 C   0  0  0  0  0  0
    1.6481    3.8673   31.4073 C   0  0  0  0  0  0
    2.5044    3.1762   31.7668 N   0  0  0  0  0  0
   -5.4748   -3.9821   29.3630 H   0  0  0  0  0  0
    0.0881    7.8712   29.7339 H   0  0  0  0  0  0
   -6.4777    5.8469   30.6021 H   0  0  0  0  0  0
   -8.1460   -5.6214   32.7333 H   0  0  0  0  0  0
    1.9058    6.3514   30.4137 H   0  0  0  0  0  0
   -2.2327    7.1719   29.8887 H   0  0  0  0  0  0
   -4.3499   -1.8511   28.8863 H   0  0  0  0  0  0
   -7.2383   -1.6447   34.0771 H   0  0  0  0  0  0
   -3.8411    0.3672   29.3778 H   0  0  0  0  0  0
   -3.4751    0.5348   31.0626 H   0  0  0  0  0  0
   -4.1690    6.6881   30.7190 H   0  0  0  0  0  0
   -8.3824   -3.8346   34.4499 H   0  0  0  0  0  0
   -5.7783   -0.2252   32.6064 H   0  0  0  0  0  0
   -0.9878    3.3265   31.3549 H   0  0  0  0  0  0
  1 22  2  0  0  0
  1 14  1  0  0  0
  1 29  1  0  0  0
  2 12  2  0  0  0
  2 11  1  0  0  0
  2 30  1  0  0  0
  3 17  2  0  0  0
  3  5  1  0  0  0
  4 14  2  0  0  0
  4 24  1  0  0  0
  4 18  1  0  0  0
  5  8  2  0  0  0
  6 21  2  0  0  0
  6 17  1  0  0  0
  6 31  1  0  0  0
  7  9  2  0  0  0
  7 22  1  0  0  0
  8 18  1  0  0  0
  8 20  1  0  0  0
  9 23  1  0  0  0
  9 32  1  0  0  0
 10 12  1  0  0  0
 10 26  2  0  0  0
 10 13  1  0  0  0
 11 25  2  0  0  0
 11 33  1  0  0  0
 12 34  1  0  0  0
 13 21  1  0  0  0
 13 19  2  0  0  0
 14 35  1  0  0  0
 15 22  1  0  0  0
 15 24  2  0  0  0
 15 16  1  0  0  0
 16 23  2  0  0  0
 16 36  1  0  0  0
 17 20  1  0  0  0
 18 37  1  0  0  0
 18 38  1  0  0  0
 19 20  1  0  0  0
 21 39  1  0  0  0
 23 40  1  0  0  0
 24 41  1  0  0  0
 25 26  1  0  0  0
 25 27  1  0  0  0
 26 42  1  0  0  0
 27 28  3  0  0  0
M  END
> <s_m_entry_id>
10418

> <s_m_entry_name>
dock_pv.487

> <s_m_Source_Path>
/home/csk/Desktop/cluster/DUD-E-result/met

> <s_m_Source_File>
dock_pv.maegz

> <i_m_Source_File_Index>
487

> <chembl_id>
CHEMBL2429888

> <chembl_pref_name>
None

> <i_lp_mmshare_version>
53161

> <i_f3d_flags>
0

> <r_lp_tautomer_probability>
1

> <s_lp_Force_Field>
OPLS_2005

> <r_lp_Energy>
24.325173

> <b_lp_Chiralities_Consistent>
1

> <s_lp_Variant>
CHEMBL3717_lig1517-1

> <s_i_glide_gridfile>
glide-grid_3lq8

> <i_i_glide_lignum>
1743

> <i_i_glide_rotatable_bonds>
3

> <r_i_docking_score>
-7.23638636240735

> <r_i_glide_ligand_efficiency>
-0.258442370085977

> <r_i_glide_ligand_efficiency_sa>
-0.784783249996799

> <r_i_glide_ligand_efficiency_ln>
-1.67037044197959

> <r_i_glide_gscore>
-7.23638636240735

> <r_i_glide_lipo>
-2.78019605306787

> <r_i_glide_hbond>
0

> <r_i_glide_metal>
0

> <r_i_glide_rewards>
-2.79037821034192

> <r_i_glide_evdw>
-40.240177154541

> <r_i_glide_ecoul>
-0.616297662258148

> <r_i_glide_erotb>
0.438641408068215

> <r_i_glide_esite>
0

> <r_i_glide_emodel>
-58.437552403863

> <r_i_glide_energy>
-40.8564748167992

> <r_i_glide_einternal>
0.409492522478104

> <i_i_glide_confnum>
7

> <i_i_glide_posenum>
23

> <r_i_glide_eff_state_penalty>
0

> <s_user_duplicate_titles>
CHEMBL3717_lig1517

> <s_m_subgroup_title>
dock_pv

> <s_m_subgroupid>
dock_pv

> <b_m_subgroup_collapsed>
1

$$$$
CHEMBL3717_lig2698
                    3D
 Schrodinger Suite 2021-1.
 54 59  0  0  1  0            999 V2000
   -8.2285   -7.1259   29.1950 C   0  0  0  0  0  0
   -7.8107   -5.7497   29.3765 N   0  0  0  0  0  0
   -8.5491   -4.6102   29.2068 C   0  0  0  0  0  0
   -7.7021   -3.5411   29.4783 C   0  0  0  0  0  0
   -6.4942   -4.1827   29.8118 C   0  0  0  0  0  0
   -6.5542   -5.4931   29.7447 N   0  0  0  0  0  0
   -8.0064   -2.0790   29.4057 C   0  0  0  0  0  0
   -9.2534   -1.6431   28.9412 C   0  0  0  0  0  0
   -9.5709   -0.2873   28.8524 C   0  0  0  0  0  0
   -8.6133    0.6549   29.2533 C   0  0  0  0  0  0
   -8.6514    2.0021   29.3032 N   0  0  0  0  0  0
   -7.4287    2.3998   29.8078 N   0  0  0  0  0  0
   -6.6526    1.3565   30.0162 C   0  0  0  0  0  0
   -4.9955    1.3436   30.6616 S   0  0  0  0  0  0
   -4.3171    3.0001   30.6079 C   0  0  0  0  0  0
   -5.0854    4.1728   30.6079 C   0  0  0  0  0  0
   -4.4885    5.4276   30.5273 C   0  0  0  0  0  0
   -3.0835    5.5434   30.4839 C   0  0  0  0  0  0
   -2.5279    6.7686   30.2874 N   0  0  0  0  0  0
   -1.1784    6.8579   30.2080 C   0  0  0  0  0  0
   -0.3129    5.7800   30.3886 C   0  0  0  0  0  0
    1.0669    6.0317   30.3099 N   0  0  0  0  0  0
    2.1431    5.0486   30.4707 C   0  0  1  0  0  0
    2.1646    4.3418   31.8330 C   0  0  0  0  0  0
    2.2448    2.8522   31.4891 C   0  0  0  0  0  0
    2.7056    2.7572   30.1141 N   0  0  2  0  0  0
    2.1555    3.9176   29.4350 C   0  0  0  0  0  0
   -0.8783    4.5170   30.6081 C   0  0  0  0  0  0
   -2.2881    4.3682   30.6080 C   0  0  0  0  0  0
   -2.9252    3.1039   30.6430 C   0  0  0  0  0  0
   -7.3596    0.2098   29.7063 N   0  0  0  0  0  0
   -7.0522   -1.1264   29.7778 C   0  0  0  0  0  0
   -9.2781   -7.1575   28.9045 H   0  0  0  0  0  0
   -8.0980   -7.6709   30.1302 H   0  0  0  0  0  0
   -7.6239   -7.5869   28.4128 H   0  0  0  0  0  0
   -9.5824   -4.6589   28.8962 H   0  0  0  0  0  0
   -5.5680   -3.6997   30.0876 H   0  0  0  0  0  0
   -9.9963   -2.3652   28.6345 H   0  0  0  0  0  0
  -10.5366    0.0324   28.4907 H   0  0  0  0  0  0
   -6.1556    4.1662   30.6807 H   0  0  0  0  0  0
   -5.1021    6.3175   30.4709 H   0  0  0  0  0  0
   -0.7924    7.8499   30.0208 H   0  0  0  0  0  0
    1.3472    6.9987   30.3835 H   0  0  0  0  0  0
    3.1029    5.5566   30.3781 H   0  0  0  0  0  0
    3.0404    4.6440   32.4077 H   0  0  0  0  0  0
    1.2886    4.5579   32.4456 H   0  0  0  0  0  0
    2.9556    2.3381   32.1375 H   0  0  0  0  0  0
    1.2824    2.3567   31.6158 H   0  0  0  0  0  0
    2.3515    1.9079   29.6865 H   0  0  0  0  0  0
    1.1571    3.6939   29.0601 H   0  0  0  0  0  0
    2.7345    4.1930   28.5539 H   0  0  0  0  0  0
   -0.2727    3.6347   30.7128 H   0  0  0  0  0  0
   -2.3165    2.2124   30.6875 H   0  0  0  0  0  0
   -6.0628   -1.3745   30.1309 H   0  0  0  0  0  0
  1  2  1  0  0  0
  1 33  1  0  0  0
  1 34  1  0  0  0
  1 35  1  0  0  0
  2  3  1  0  0  0
  2  6  1  0  0  0
  3  4  2  0  0  0
  3 36  1  0  0  0
  4  5  1  0  0  0
  4  7  1  0  0  0
  5  6  2  0  0  0
  5 37  1  0  0  0
  7  8  1  0  0  0
  7 32  2  0  0  0
  8  9  2  0  0  0
  8 38  1  0  0  0
  9 10  1  0  0  0
  9 39  1  0  0  0
 10 11  2  0  0  0
 10 31  1  0  0  0
 11 12  1  0  0  0
 12 13  2  0  0  0
 13 14  1  0  0  0
 13 31  1  0  0  0
 14 15  1  0  0  0
 15 16  2  0  0  0
 15 30  1  0  0  0
 16 17  1  0  0  0
 16 40  1  0  0  0
 17 18  2  0  0  0
 17 41  1  0  0  0
 18 19  1  0  0  0
 18 29  1  0  0  0
 19 20  2  0  0  0
 20 21  1  0  0  0
 20 42  1  0  0  0
 21 22  1  0  0  0
 21 28  2  0  0  0
 22 23  1  0  0  0
 22 43  1  0  0  0
 23 24  1  0  0  0
 23 27  1  0  0  0
 23 44  1  0  0  0
 24 25  1  0  0  0
 24 45  1  0  0  0
 24 46  1  0  0  0
 25 26  1  0  0  0
 25 47  1  0  0  0
 25 48  1  0  0  0
 26 27  1  0  0  0
 26 49  1  0  0  0
 27 50  1  0  0  0
 27 51  1  0  0  0
 28 29  1  0  0  0
 28 52  1  0  0  0
 29 30  2  0  0  0
 30 53  1  0  0  0
 31 32  1  0  0  0
 32 54  1  0  0  0
M  END
> <s_m_entry_id>
10419

> <s_m_entry_name>
dock_pv.488

> <s_m_Source_Path>
/home/csk/Desktop/cluster/DUD-E-result/met

> <s_m_Source_File>
dock_pv.maegz

> <i_m_Source_File_Index>
488

> <chembl_id>
CHEMBL3703942

> <chembl_pref_name>
None

> <i_lp_mmshare_version>
53161

> <i_f3d_flags>
0

> <r_lp_tautomer_probability>
1

> <s_lp_Force_Field>
OPLS_2005

> <r_lp_Energy>
34.01349

> <b_lp_Chiralities_Consistent>
1

> <s_lp_Variant>
CHEMBL3717_lig2698-1

> <s_i_glide_gridfile>
glide-grid_3lq8

> <i_i_glide_lignum>
3267

> <i_i_glide_rotatable_bonds>
5

> <r_i_docking_score>
-7.23631191060431

> <r_i_glide_ligand_efficiency>
-0.226134747206385

> <r_i_glide_ligand_efficiency_sa>
-0.717933070374567

> <r_i_glide_ligand_efficiency_ln>
-1.62040749119705

> <r_i_glide_gscore>
-7.23631191060431

> <r_i_glide_lipo>
-3.54258891431155

> <r_i_glide_hbond>
-0.0905368899303362

> <r_i_glide_metal>
0

> <r_i_glide_rewards>
-1.71714981544926

> <r_i_glide_evdw>
-40.4912490844727

> <r_i_glide_ecoul>
-2.47790908813477

> <r_i_glide_erotb>
0.510212526530685

> <r_i_glide_esite>
0

> <r_i_glide_emodel>
-58.0259290593035

> <r_i_glide_energy>
-42.9691581726074

> <r_i_glide_einternal>
3.79353284835815

> <i_i_glide_confnum>
1

> <i_i_glide_posenum>
81

> <r_i_glide_eff_state_penalty>
0

> <s_user_duplicate_titles>
CHEMBL3717_lig2698

> <s_m_subgroup_title>
dock_pv

> <s_m_subgroupid>
dock_pv

> <b_m_subgroup_collapsed>
1

$$$$
CHEMBL3717_lig2448
                    3D
 Schrodinger Suite 2021-1.
 52 54  0  0  1  0            999 V2000
   -7.7957   -3.0416   31.8471 O   0  0  0  0  0  0
   -7.8289   -1.7594   31.1351 S   0  0  0  0  0  0
   -8.7671   -0.7147   31.5615 O   0  0  0  0  0  0
   -6.1121    4.6972   30.4464 C   0  0  0  0  0  0
   -5.9434    3.3591   30.6063 N   0  0  0  0  0  0
   -7.0515    2.5760   30.5810 C   0  0  0  0  0  0
   -8.3205    3.1303   30.3368 C   0  0  0  0  0  0
   -8.3892    4.5123   30.1463 C   0  0  0  0  0  0
   -7.2956    5.3113   30.2101 N   0  0  0  0  0  0
   -6.9305    1.1931   30.8031 N   0  0  0  0  0  0
   -5.8683    0.2858   30.9974 C   0  0  0  0  0  0
   -6.1541   -1.0863   31.1750 C   0  0  0  0  0  0
   -5.1094   -2.0024   31.3577 C   0  0  0  0  0  0
   -3.7860   -1.5762   31.3690 C   0  0  0  0  0  0
   -3.4951   -0.2280   31.1955 C   0  0  0  0  0  0
   -4.5238    0.6922   31.0073 C   0  0  0  0  0  0
   -4.9904    5.5303   30.5277 N   0  0  0  0  0  0
   -3.6715    5.0666   30.6081 N   0  0  0  0  0  0
   -2.7196    5.9048   30.5691 C   0  0  0  0  0  0
   -1.3143    5.4780   30.6081 C   0  0  0  0  0  0
   -0.9624    4.1801   31.0081 C   0  0  0  0  0  0
    0.3620    3.7635   30.9912 C   0  0  0  0  0  0
    1.3649    4.6267   30.5499 C   0  0  0  0  0  0
    1.0265    5.9280   30.1613 C   0  0  0  0  0  0
   -0.3012    6.3541   30.2019 C   0  0  0  0  0  0
   -9.7685    2.1835   30.2661 Cl  0  0  0  0  0  0
   -8.1213   -2.1301   29.2935 C   0  0  0  0  0  0
   -8.0185   -0.8426   28.4548 C   0  0  0  0  0  0
   -9.4830   -2.8251   29.1268 C   0  0  0  0  0  0
    2.8096    4.1312   30.4800 C   0  0  0  0  0  0
    2.8627    2.8214   30.2300 F   0  0  0  0  0  0
    3.5008    4.7569   29.5280 F   0  0  0  0  0  0
    3.4006    4.3551   31.6511 F   0  0  0  0  0  0
   -9.3293    5.0051   29.9411 H   0  0  0  0  0  0
   -7.8337    0.7421   30.9129 H   0  0  0  0  0  0
   -5.3125   -3.0582   31.4787 H   0  0  0  0  0  0
   -2.9883   -2.2941   31.5001 H   0  0  0  0  0  0
   -2.4712    0.1073   31.1995 H   0  0  0  0  0  0
   -4.2351    1.7189   30.8718 H   0  0  0  0  0  0
   -5.1084    6.5176   30.3524 H   0  0  0  0  0  0
   -2.8884    6.9764   30.4911 H   0  0  0  0  0  0
   -1.7167    3.4767   31.3304 H   0  0  0  0  0  0
    0.6024    2.7573   31.3003 H   0  0  0  0  0  0
    1.7864    6.6082   29.8094 H   0  0  0  0  0  0
   -0.5347    7.3617   29.8842 H   0  0  0  0  0  0
   -7.3256   -2.8187   29.0061 H   0  0  0  0  0  0
   -8.2411   -1.0380   27.4090 H   0  0  0  0  0  0
   -8.7144   -0.0806   28.8018 H   0  0  0  0  0  0
   -7.0144   -0.4218   28.4853 H   0  0  0  0  0  0
   -9.6630   -3.1007   28.0865 H   0  0  0  0  0  0
   -9.5323   -3.7403   29.7186 H   0  0  0  0  0  0
  -10.3007   -2.1799   29.4528 H   0  0  0  0  0  0
  1  2  2  0  0  0
  2  3  2  0  0  0
  2 12  1  0  0  0
  2 27  1  0  0  0
  4  5  1  0  0  0
  4  9  2  0  0  0
  4 17  1  0  0  0
  5  6  2  0  0  0
  6  7  1  0  0  0
  6 10  1  0  0  0
  7  8  2  0  0  0
  7 26  1  0  0  0
  8  9  1  0  0  0
  8 34  1  0  0  0
 10 11  1  0  0  0
 10 35  1  0  0  0
 11 12  1  0  0  0
 11 16  2  0  0  0
 12 13  2  0  0  0
 13 14  1  0  0  0
 13 36  1  0  0  0
 14 15  2  0  0  0
 14 37  1  0  0  0
 15 16  1  0  0  0
 15 38  1  0  0  0
 16 39  1  0  0  0
 17 18  1  0  0  0
 17 40  1  0  0  0
 18 19  2  0  0  0
 19 20  1  0  0  0
 19 41  1  0  0  0
 20 21  1  0  0  0
 20 25  2  0  0  0
 21 22  2  0  0  0
 21 42  1  0  0  0
 22 23  1  0  0  0
 22 43  1  0  0  0
 23 24  2  0  0  0
 23 30  1  0  0  0
 24 25  1  0  0  0
 24 44  1  0  0  0
 25 45  1  0  0  0
 27 28  1  0  0  0
 27 29  1  0  0  0
 27 46  1  0  0  0
 28 47  1  0  0  0
 28 48  1  0  0  0
 28 49  1  0  0  0
 29 50  1  0  0  0
 29 51  1  0  0  0
 29 52  1  0  0  0
 30 31  1  0  0  0
 30 32  1  0  0  0
 30 33  1  0  0  0
M  END
> <s_m_entry_id>
10420

> <s_m_entry_name>
dock_pv.489

> <s_m_Source_Path>
/home/csk/Desktop/cluster/DUD-E-result/met

> <s_m_Source_File>
dock_pv.maegz

> <i_m_Source_File_Index>
489

> <chembl_id>
CHEMBL3893810

> <chembl_pref_name>
None

> <i_lp_mmshare_version>
53161

> <i_f3d_flags>
0

> <r_lp_tautomer_probability>
1

> <s_lp_Force_Field>
OPLS_2005

> <r_lp_Energy>
16.938822

> <b_lp_Chiralities_Consistent>
1

> <s_lp_Variant>
CHEMBL3717_lig2448-1

> <s_i_glide_gridfile>
glide-grid_3lq8

> <i_i_glide_lignum>
2777

> <i_i_glide_rotatable_bonds>
8

> <r_i_docking_score>
-7.2350185156368

> <r_i_glide_ligand_efficiency>
-0.219242985322327

> <r_i_glide_ligand_efficiency_sa>
-0.703229401212521

> <r_i_glide_ligand_efficiency_ln>
-1.60903065695662

> <r_i_glide_gscore>
-7.2350185156368

> <r_i_glide_lipo>
-2.82181025938541

> <r_i_glide_hbond>
-0.0434074276962334

> <r_i_glide_metal>
0

> <r_i_glide_rewards>
-2.40920799485189

> <r_i_glide_evdw>
-45.9095153808594

> <r_i_glide_ecoul>
-1.05914974212646

> <r_i_glide_erotb>
0.49375539665867

> <r_i_glide_esite>
0

> <r_i_glide_emodel>
-66.7168170265024

> <r_i_glide_energy>
-46.9686651229858

> <r_i_glide_einternal>
1.99728691577911

> <i_i_glide_confnum>
3

> <i_i_glide_posenum>
117

> <r_i_glide_eff_state_penalty>
0

> <s_user_duplicate_titles>
CHEMBL3717_lig2448

> <s_m_subgroup_title>
dock_pv

> <s_m_subgroupid>
dock_pv

> <b_m_subgroup_collapsed>
1

$$$$
CHEMBL3717_lig3698
                    3D
 Schrodinger Suite 2021-1.
 27 29  0  0  1  0            999 V2000
   -5.0688   -0.1087   30.2266 C   0  0  0  0  0  0
   -6.3829    0.3441   30.1326 C   0  0  0  0  0  0
   -6.6550    1.7082   30.2080 C   0  0  0  0  0  0
   -4.0310    0.8051   30.3838 C   0  0  0  0  0  0
   -4.2789    2.1861   30.4413 C   0  0  0  0  0  0
   -5.6211    2.6445   30.3643 C   0  0  0  0  0  0
   -5.8771    4.0434   30.4621 N   0  0  0  0  0  0
   -3.1160    3.1365   30.6080 C   0  0  0  0  0  0
   -3.5033    4.5403   30.6080 C   0  0  0  0  0  0
   -4.7882    4.8963   30.5738 C   0  0  0  0  0  0
   -4.8940    6.2665   30.6080 N   0  0  0  0  0  0
   -3.5671    6.7728   30.6190 O   0  0  0  0  0  0
   -2.7117    5.7499   30.6149 C   0  0  0  0  0  0
   -4.7896   -1.4315   30.1726 F   0  0  0  0  0  0
   -7.6851   -0.7735   29.9324 Cl  0  0  0  0  0  0
   -7.2449    4.5781   30.5742 C   0  0  0  0  0  0
   -7.8086    4.4559   31.9975 C   0  0  0  0  0  0
   -1.4875    5.8574   30.6080 O   0  0  0  0  0  0
   -1.9553    2.7570   30.7360 O   0  0  0  0  0  0
   -7.6861    2.0159   30.1469 H   0  0  0  0  0  0
   -3.0255    0.4160   30.4637 H   0  0  0  0  0  0
   -5.3901    6.7570   29.8680 H   0  0  0  0  0  0
   -7.2920    5.6207   30.2554 H   0  0  0  0  0  0
   -7.9046    4.0733   29.8684 H   0  0  0  0  0  0
   -8.8296    4.8346   32.0440 H   0  0  0  0  0  0
   -7.8307    3.4176   32.3300 H   0  0  0  0  0  0
   -7.2054    5.0203   32.7095 H   0  0  0  0  0  0
  1  2  2  0  0  0
  1  4  1  0  0  0
  1 14  1  0  0  0
  2  3  1  0  0  0
  2 15  1  0  0  0
  3  6  2  0  0  0
  3 20  1  0  0  0
  4  5  2  0  0  0
  4 21  1  0  0  0
  5  6  1  0  0  0
  5  8  1  0  0  0
  6  7  1  0  0  0
  7 16  1  0  0  0
  7 10  1  0  0  0
  8  9  1  0  0  0
  8 19  2  0  0  0
  9 10  2  0  0  0
  9 13  1  0  0  0
 10 11  1  0  0  0
 11 12  1  0  0  0
 11 22  1  0  0  0
 12 13  1  0  0  0
 13 18  2  0  0  0
 16 17  1  0  0  0
 16 23  1  0  0  0
 16 24  1  0  0  0
 17 25  1  0  0  0
 17 26  1  0  0  0
 17 27  1  0  0  0
M  END
> <s_m_entry_id>
10421

> <s_m_entry_name>
dock_pv.490

> <s_m_Source_Path>
/home/csk/Desktop/cluster/DUD-E-result/met

> <s_m_Source_File>
dock_pv.maegz

> <i_m_Source_File_Index>
490

> <chembl_id>
CHEMBL468280

> <chembl_pref_name>
None

> <i_lp_mmshare_version>
53161

> <i_f3d_flags>
0

> <r_lp_tautomer_probability>
1

> <s_lp_Force_Field>
OPLS_2005

> <r_lp_Energy>
15.818075

> <b_lp_Chiralities_Consistent>
1

> <s_lp_Variant>
CHEMBL3717_lig3698-1

> <s_i_glide_gridfile>
glide-grid_3lq8

> <i_i_glide_lignum>
4657

> <i_i_glide_rotatable_bonds>
1

> <r_i_docking_score>
-7.23463209527715

> <r_i_glide_ligand_efficiency>
-0.380770110277745

> <r_i_glide_ligand_efficiency_sa>
-1.01604758905194

> <r_i_glide_ligand_efficiency_ln>
-1.83413462180267

> <r_i_glide_gscore>
-7.23463209527715

> <r_i_glide_lipo>
-1.36858552955917

> <r_i_glide_hbond>
-0.550242588284688

> <r_i_glide_metal>
0

> <r_i_glide_rewards>
-3.17147337395273

> <r_i_glide_evdw>
-26.227071762085

> <r_i_glide_ecoul>
-5.46239423751831

> <r_i_glide_erotb>
0

> <r_i_glide_esite>
-0.0136178797485628

> <r_i_glide_emodel>
-45.1253486079501

> <r_i_glide_energy>
-31.6894659996033

> <r_i_glide_einternal>
0.00118275138083845

> <i_i_glide_confnum>
1

> <i_i_glide_posenum>
68

> <r_i_glide_eff_state_penalty>
0

> <s_user_duplicate_titles>
CHEMBL3717_lig3698

> <s_m_subgroup_title>
dock_pv

> <s_m_subgroupid>
dock_pv

> <b_m_subgroup_collapsed>
1

$$$$
CHEMBL3717_lig2529
                    3D
 Schrodinger Suite 2021-1.
 46 49  0  0  1  0            999 V2000
   -7.0442   -0.7233   28.8430 C   0  0  0  0  0  0
   -5.8846   -0.3745   29.6852 N   0  0  0  0  0  0
   -5.4455    0.9205   29.6080 N   0  0  0  0  0  0
   -5.8909    1.7843   30.4551 C   0  0  0  0  0  0
   -6.9623    1.4948   31.5159 C   0  0  0  0  0  0
   -5.2796    3.1249   30.5251 C   0  0  0  0  0  0
   -6.0264    4.3141   30.5632 C   0  0  0  0  0  0
   -5.3739    5.5534   30.6088 C   0  0  0  0  0  0
   -3.9696    5.5633   30.6082 C   0  0  0  0  0  0
   -3.0306    6.5398   30.6080 N   0  0  0  0  0  0
   -1.7948    5.9003   30.6305 N   0  0  0  0  0  0
   -1.9881    4.5948   30.6640 C   0  0  0  0  0  0
   -0.9665    3.4728   30.7415 C   0  0  0  0  0  0
    0.5058    3.8381   30.6554 C   0  0  0  0  0  0
    1.2061    4.1876   31.8083 C   0  0  0  0  0  0
    2.5802    4.3570   31.7922 C   0  0  0  0  0  0
    3.2933    4.2232   30.5905 C   0  0  0  0  0  0
    4.6376    4.4294   30.6126 N   0  0  0  0  0  0
    5.3130    4.3191   29.4515 C   0  0  0  0  0  0
    4.7064    3.9584   28.2565 C   0  0  0  0  0  0
    3.3358    3.7252   28.2115 C   0  0  0  0  0  0
    2.5876    3.8798   29.3974 C   0  0  0  0  0  0
    1.1878    3.6935   29.4470 C   0  0  0  0  0  0
   -3.3336    4.3196   30.6080 N   0  0  0  0  0  0
   -3.9183    3.1133   30.5705 N   0  0  0  0  0  0
   -5.0958   -1.3099   30.3041 C   0  0  0  0  0  0
   -4.2977   -1.0544   31.2074 O   0  0  0  0  0  0
   -5.1425   -2.5523   29.8105 N   0  0  0  0  0  0
   -7.7229   -1.3934   29.3722 H   0  0  0  0  0  0
   -7.6217    0.1579   28.5576 H   0  0  0  0  0  0
   -6.7285   -1.2148   27.9230 H   0  0  0  0  0  0
   -7.4085    2.4013   31.9241 H   0  0  0  0  0  0
   -7.7678    0.8684   31.1291 H   0  0  0  0  0  0
   -6.5126    0.9714   32.3614 H   0  0  0  0  0  0
   -7.1060    4.2871   30.5249 H   0  0  0  0  0  0
   -5.9334    6.4783   30.6077 H   0  0  0  0  0  0
   -1.1189    2.9081   31.6623 H   0  0  0  0  0  0
   -1.1784    2.7572   29.9489 H   0  0  0  0  0  0
    0.7062    4.3001   32.7481 H   0  0  0  0  0  0
    3.1069    4.6175   32.6937 H   0  0  0  0  0  0
    6.3778    4.4971   29.4934 H   0  0  0  0  0  0
    5.3294    3.8548   27.3896 H   0  0  0  0  0  0
    2.8438    3.4413   27.2919 H   0  0  0  0  0  0
    0.6633    3.3973   28.5501 H   0  0  0  0  0  0
   -4.5497   -3.2689   30.2086 H   0  0  0  0  0  0
   -5.7040   -2.7584   29.0003 H   0  0  0  0  0  0
  1  2  1  0  0  0
  1 29  1  0  0  0
  1 30  1  0  0  0
  1 31  1  0  0  0
  2  3  1  0  0  0
  2 26  1  0  0  0
  3  4  2  0  0  0
  4  5  1  0  0  0
  4  6  1  0  0  0
  5 32  1  0  0  0
  5 33  1  0  0  0
  5 34  1  0  0  0
  6  7  1  0  0  0
  6 25  2  0  0  0
  7  8  2  0  0  0
  7 35  1  0  0  0
  8  9  1  0  0  0
  8 36  1  0  0  0
  9 10  2  0  0  0
  9 24  1  0  0  0
 10 11  1  0  0  0
 11 12  2  0  0  0
 12 13  1  0  0  0
 12 24  1  0  0  0
 13 14  1  0  0  0
 13 37  1  0  0  0
 13 38  1  0  0  0
 14 15  2  0  0  0
 14 23  1  0  0  0
 15 16  1  0  0  0
 15 39  1  0  0  0
 16 17  2  0  0  0
 16 40  1  0  0  0
 17 18  1  0  0  0
 17 22  1  0  0  0
 18 19  2  0  0  0
 19 20  1  0  0  0
 19 41  1  0  0  0
 20 21  2  0  0  0
 20 42  1  0  0  0
 21 22  1  0  0  0
 21 43  1  0  0  0
 22 23  2  0  0  0
 23 44  1  0  0  0
 24 25  1  0  0  0
 26 27  2  0  0  0
 26 28  1  0  0  0
 28 45  1  0  0  0
 28 46  1  0  0  0
M  END
> <s_m_entry_id>
10423

> <s_m_entry_name>
dock_pv.492

> <s_m_Source_Path>
/home/csk/Desktop/cluster/DUD-E-result/met

> <s_m_Source_File>
dock_pv.maegz

> <i_m_Source_File_Index>
492

> <chembl_id>
CHEMBL3674514

> <chembl_pref_name>
None

> <i_lp_mmshare_version>
53161

> <i_f3d_flags>
0

> <r_lp_tautomer_probability>
1

> <s_lp_Force_Field>
OPLS_2005

> <r_lp_Energy>
29.587787

> <b_lp_Chiralities_Consistent>
1

> <s_lp_Variant>
CHEMBL3717_lig2529-1

> <s_i_glide_gridfile>
glide-grid_3lq8

> <i_i_glide_lignum>
2872

> <i_i_glide_rotatable_bonds>
5

> <r_i_docking_score>
-7.23197593522394

> <r_i_glide_ligand_efficiency>
-0.258284854829426

> <r_i_glide_ligand_efficiency_sa>
-0.784304940906387

> <r_i_glide_ligand_efficiency_ln>
-1.66935238588989

> <r_i_glide_gscore>
-7.23197593522394

> <r_i_glide_lipo>
-3.03102731422055

> <r_i_glide_hbond>
0

> <r_i_glide_metal>
0

> <r_i_glide_rewards>
-1.96039872366591

> <r_i_glide_evdw>
-44.124584197998

> <r_i_glide_ecoul>
-3.53844046592712

> <r_i_glide_erotb>
0.551756139207447

> <r_i_glide_esite>
-0.0553107567559525

> <r_i_glide_emodel>
-63.6308645101915

> <r_i_glide_energy>
-47.6630246639252

> <r_i_glide_einternal>
7.43968152999878

> <i_i_glide_confnum>
3

> <i_i_glide_posenum>
3

> <r_i_glide_eff_state_penalty>
0

> <s_user_duplicate_titles>
CHEMBL3717_lig2529

> <s_m_subgroup_title>
dock_pv

> <s_m_subgroupid>
dock_pv

> <b_m_subgroup_collapsed>
1

$$$$
CHEMBL3717_lig1311
                    3D
 Schrodinger Suite 2021-1.
 37 41  0  0  1  0            999 V2000
   -7.7707    0.6108   28.8077 N   0  0  0  0  0  0
   -8.9405    1.2770   28.9704 C   0  0  0  0  0  0
   -9.0517    2.4782   29.6655 C   0  0  0  0  0  0
   -7.9080    3.0357   30.2330 C   0  0  0  0  0  0
   -6.6635    2.3741   30.0799 C   0  0  0  0  0  0
   -5.4553    2.8868   30.6055 C   0  0  0  0  0  0
   -4.2400    2.2209   30.3981 C   0  0  0  0  0  0
   -4.2358    1.0230   29.6794 C   0  0  0  0  0  0
   -5.4104    0.4843   29.1621 C   0  0  0  0  0  0
   -6.6419    1.1483   29.3498 C   0  0  0  0  0  0
   -2.9214    2.7194   31.0076 C   0  0  0  0  0  0
   -1.5065    6.0692   30.5413 C   0  0  0  0  0  0
   -1.3156    4.6693   30.6080 C   0  0  0  0  0  0
   -0.5046    6.8940   30.2079 N   0  0  0  0  0  0
   -0.1674    4.0471   30.3274 N   0  0  0  0  0  0
    0.8293    4.8892   29.9353 C   0  0  0  0  0  0
    0.6793    6.2836   29.9158 C   0  0  0  0  0  0
   -2.5606    4.1374   30.8700 N   0  0  0  0  0  0
   -3.4491    5.1506   31.0078 N   0  0  0  0  0  0
   -2.8138    6.3564   30.7905 N   0  0  0  0  0  0
    3.1281    2.7699   27.9910 N   0  0  0  0  0  0
    3.9774    3.5574   28.6554 N   0  0  0  0  0  0
    3.3532    4.4583   29.4753 C   0  0  0  0  0  0
    1.9984    4.2140   29.3287 C   0  0  0  0  0  0
    1.9512    3.1572   28.4071 C   0  0  0  0  0  0
   -9.8112    0.8221   28.5214 H   0  0  0  0  0  0
  -10.0080    2.9706   29.7626 H   0  0  0  0  0  0
   -7.9597    3.9700   30.7731 H   0  0  0  0  0  0
   -5.5085    3.7982   31.1787 H   0  0  0  0  0  0
   -3.3145    0.4792   29.5281 H   0  0  0  0  0  0
   -5.3843   -0.4440   28.6085 H   0  0  0  0  0  0
   -2.8858    2.4607   32.0603 H   0  0  0  0  0  0
   -2.0976    2.1465   30.5843 H   0  0  0  0  0  0
    1.4767    6.9280   29.5835 H   0  0  0  0  0  0
    4.9794    3.4555   28.5563 H   0  0  0  0  0  0
    3.9148    5.1575   30.0763 H   0  0  0  0  0  0
    1.0527    2.6917   28.0317 H   0  0  0  0  0  0
  1  2  1  0  0  0
  1 10  2  0  0  0
  2  3  2  0  0  0
  2 26  1  0  0  0
  3  4  1  0  0  0
  3 27  1  0  0  0
  4  5  2  0  0  0
  4 28  1  0  0  0
  5  6  1  0  0  0
  5 10  1  0  0  0
  6  7  2  0  0  0
  6 29  1  0  0  0
  7  8  1  0  0  0
  7 11  1  0  0  0
  8  9  2  0  0  0
  8 30  1  0  0  0
  9 10  1  0  0  0
  9 31  1  0  0  0
 11 18  1  0  0  0
 11 32  1  0  0  0
 11 33  1  0  0  0
 12 13  1  0  0  0
 12 14  2  0  0  0
 12 20  1  0  0  0
 13 15  2  0  0  0
 13 18  1  0  0  0
 14 17  1  0  0  0
 15 16  1  0  0  0
 16 17  2  0  0  0
 16 24  1  0  0  0
 17 34  1  0  0  0
 18 19  1  0  0  0
 19 20  2  0  0  0
 21 25  2  0  0  0
 21 22  1  0  0  0
 22 35  1  0  0  0
 22 23  1  0  0  0
 23 36  1  0  0  0
 23 24  2  0  0  0
 24 25  1  0  0  0
 25 37  1  0  0  0
M  END
> <s_m_entry_id>
10424

> <s_m_entry_name>
dock_pv.493

> <s_m_Source_Path>
/home/csk/Desktop/cluster/DUD-E-result/met

> <s_m_Source_File>
dock_pv.maegz

> <i_m_Source_File_Index>
493

> <chembl_id>
CHEMBL2170818

> <chembl_pref_name>
None

> <i_lp_mmshare_version>
53161

> <i_f3d_flags>
0

> <r_lp_tautomer_probability>
0.5

> <s_lp_Force_Field>
OPLS_2005

> <r_lp_Energy>
22.176583

> <b_lp_Chiralities_Consistent>
1

> <s_lp_Variant>
CHEMBL3717_lig1311-1

> <s_i_glide_gridfile>
glide-grid_3lq8

> <i_i_glide_lignum>
1497

> <i_i_glide_rotatable_bonds>
3

> <r_i_docking_score>
-7.2270329317939

> <r_i_glide_ligand_efficiency>
-0.289081317271756

> <r_i_glide_ligand_efficiency_sa>
-0.845278898581607

> <r_i_glide_ligand_efficiency_ln>
-1.71302338153545

> <r_i_glide_gscore>
-7.2270329317939

> <r_i_glide_lipo>
-2.65249739697737

> <r_i_glide_hbond>
-0.111585091544232

> <r_i_glide_metal>
0

> <r_i_glide_rewards>
-2.5913439993421

> <r_i_glide_evdw>
-39.5207138061523

> <r_i_glide_ecoul>
-2.7880220413208

> <r_i_glide_erotb>
0.522632552575547

> <r_i_glide_esite>
0

> <r_i_glide_emodel>
-55.3957234258033

> <r_i_glide_energy>
-42.3087358474731

> <r_i_glide_einternal>
5.3659462928772

> <i_i_glide_confnum>
4

> <i_i_glide_posenum>
22

> <r_i_glide_eff_state_penalty>
0

> <s_user_duplicate_titles>
CHEMBL3717_lig1311

> <s_m_subgroup_title>
dock_pv

> <s_m_subgroupid>
dock_pv

> <b_m_subgroup_collapsed>
1

$$$$
CHEMBL3717_lig3713
                    3D
 Schrodinger Suite 2021-1.
 42 45  0  0  1  0            999 V2000
   -3.6942    7.1568   30.8378 Cl  0  0  0  0  0  0
    3.1044    2.8722   27.9761 O   0  0  0  0  0  0
   -2.3287    2.9105   30.7950 N   0  0  0  0  0  0
   -5.1326   -0.1303   29.7944 N   0  0  0  0  0  0
   -1.8770    5.2532   31.0789 N   0  0  0  0  0  0
   -7.5095    0.1238   29.4852 N   0  0  0  0  0  0
   -0.1224    3.6392   31.0972 N   0  0  0  0  0  0
   -4.5292    2.0068   30.3117 C   0  0  0  0  0  0
   -5.9704    1.9455   30.1388 C   0  0  0  0  0  0
   -3.6490    3.1903   30.5980 C   0  0  0  0  0  0
   -6.2942    0.6005   29.7784 C   0  0  0  0  0  0
   -4.0933    0.6947   30.1407 C   0  0  0  0  0  0
   -1.4878    3.9549   31.0082 C   0  0  0  0  0  0
   -4.1113    4.5109   30.6019 C   0  0  0  0  0  0
   -3.1835    5.5183   30.8540 C   0  0  0  0  0  0
   -7.0589    2.8418   30.2212 C   0  0  0  0  0  0
    0.9238    4.6641   31.1958 C   0  0  2  0  0  0
   -8.3382    2.3736   29.9169 C   0  0  0  0  0  0
   -8.5110    1.0369   29.5579 C   0  0  0  0  0  0
    1.0677    5.4395   29.8665 C   0  0  0  0  0  0
    2.2764    3.9909   31.5334 C   0  0  0  0  0  0
    2.8251    3.7980   29.0059 C   0  0  1  0  0  0
    1.5045    4.5344   28.7028 C   0  0  0  0  0  0
    2.8266    3.1034   30.3893 C   0  0  0  0  0  0
    2.4025    2.2173   27.9522 H   0  0  0  0  0  0
   -5.0165   -1.1111   29.5792 H   0  0  0  0  0  0
    0.1501    2.7187   30.7837 H   0  0  0  0  0  0
   -3.0987    0.2798   30.2081 H   0  0  0  0  0  0
   -5.1299    4.7761   30.3887 H   0  0  0  0  0  0
   -6.9397    3.8728   30.5085 H   0  0  0  0  0  0
    0.6434    5.3684   31.9822 H   0  0  0  0  0  0
   -9.1900    3.0390   29.9577 H   0  0  0  0  0  0
   -9.4975    0.6678   29.3157 H   0  0  0  0  0  0
    0.1420    5.9492   29.6001 H   0  0  0  0  0  0
    1.7987    6.2381   29.9970 H   0  0  0  0  0  0
    3.0134    4.7575   31.7655 H   0  0  0  0  0  0
    2.1859    3.3996   32.4453 H   0  0  0  0  0  0
    3.6429    4.5209   28.9785 H   0  0  0  0  0  0
    1.5923    5.1501   27.8086 H   0  0  0  0  0  0
    0.7181    3.8096   28.4827 H   0  0  0  0  0  0
    3.8407    2.7864   30.6321 H   0  0  0  0  0  0
    2.2412    2.1876   30.3339 H   0  0  0  0  0  0
  1 15  1  0  0  0
  2 22  1  0  0  0
  2 25  1  0  0  0
  3 10  2  0  0  0
  3 13  1  0  0  0
  4 11  1  0  0  0
  4 12  1  0  0  0
  4 26  1  0  0  0
  5 13  2  0  0  0
  5 15  1  0  0  0
  6 11  2  0  0  0
  6 19  1  0  0  0
  7 13  1  0  0  0
  7 17  1  0  0  0
  7 27  1  0  0  0
  8  9  1  0  0  0
  8 10  1  0  0  0
  8 12  2  0  0  0
  9 11  1  0  0  0
  9 16  2  0  0  0
 10 14  1  0  0  0
 12 28  1  0  0  0
 14 15  2  0  0  0
 14 29  1  0  0  0
 16 18  1  0  0  0
 16 30  1  0  0  0
 17 20  1  0  0  0
 17 21  1  0  0  0
 17 31  1  0  0  0
 18 19  2  0  0  0
 18 32  1  0  0  0
 19 33  1  0  0  0
 20 23  1  0  0  0
 20 34  1  0  0  0
 20 35  1  0  0  0
 21 24  1  0  0  0
 21 36  1  0  0  0
 21 37  1  0  0  0
 22 23  1  0  0  0
 22 24  1  0  0  0
 22 38  1  0  0  0
 23 39  1  0  0  0
 23 40  1  0  0  0
 24 41  1  0  0  0
 24 42  1  0  0  0
M  END
> <s_m_entry_id>
10425

> <s_m_entry_name>
dock_pv.494

> <s_m_Source_Path>
/home/csk/Desktop/cluster/DUD-E-result/met

> <s_m_Source_File>
dock_pv.maegz

> <i_m_Source_File_Index>
494

> <chembl_id>
CHEMBL1986943

> <chembl_pref_name>
None

> <i_lp_mmshare_version>
53161

> <i_f3d_flags>
0

> <r_lp_tautomer_probability>
0.999998420164496

> <s_lp_Force_Field>
OPLS_2005

> <r_lp_Energy>
7.423245

> <b_lp_Chiralities_Consistent>
1

> <s_lp_Variant>
CHEMBL3717_lig3713-2

> <s_i_glide_gridfile>
glide-grid_3lq8

> <i_i_glide_lignum>
4675

> <i_i_glide_rotatable_bonds>
4

> <r_i_docking_score>
-7.22373266200221

> <r_i_glide_ligand_efficiency>
-0.300988860916759

> <r_i_glide_ligand_efficiency_sa>
-0.868202109729292

> <r_i_glide_ligand_efficiency_ln>
-1.72897070150976

> <r_i_glide_gscore>
-7.22373266200221

> <r_i_glide_lipo>
-3.39925023279013

> <r_i_glide_hbond>
0

> <r_i_glide_metal>
0

> <r_i_glide_rewards>
-1.70851210926644

> <r_i_glide_evdw>
-42.6735343933105

> <r_i_glide_ecoul>
-2.94026756286621

> <r_i_glide_erotb>
0.481693526222459

> <r_i_glide_esite>
-0.0229469920726396

> <r_i_glide_emodel>
-63.7669415044727

> <r_i_glide_energy>
-45.6138019561768

> <r_i_glide_einternal>
2.42539715766907

> <i_i_glide_confnum>
15

> <i_i_glide_posenum>
344

> <r_i_glide_eff_state_penalty>
0

> <s_user_duplicate_titles>
CHEMBL3717_lig3713

> <s_m_subgroup_title>
dock_pv

> <s_m_subgroupid>
dock_pv

> <b_m_subgroup_collapsed>
1

$$$$
CHEMBL3717_lig4177
                    3D
 Schrodinger Suite 2021-1.
 42 46  0  0  1  0            999 V2000
   -2.6146    4.8784   30.5953 O   0  0  0  0  0  0
   -2.8130   -2.0830   31.9559 O   0  0  0  0  0  0
   -6.7519    1.7479   29.8077 N   0  0  0  0  0  0
   -2.0859    2.7564   31.2646 N   0  0  0  0  0  0
   -4.6610   -2.7728   30.8760 N   0  0  0  0  0  0
   -5.9529   -2.8537   30.3817 N   0  0  0  0  0  0
   -5.3035    0.1760   30.4879 C   0  0  0  0  0  0
   -4.1134   -0.3239   31.0192 C   0  0  0  0  0  0
   -5.4614    1.5744   30.2625 C   0  0  0  0  0  0
   -6.4961   -0.4687   30.0753 C   0  0  0  0  0  0
   -0.3280    4.4316   31.2427 C   0  0  2  0  0  0
    0.4639    4.8256   30.0102 C   0  0  1  0  0  0
   -3.2311    1.9768   31.0038 C   0  0  0  0  0  0
   -3.1019    0.6120   31.2875 C   0  0  0  0  0  0
   -4.4310    2.4907   30.4940 C   0  0  0  0  0  0
   -1.8059    4.0483   31.0076 C   0  0  0  0  0  0
   -3.8294   -1.7864   31.3242 C   0  0  0  0  0  0
    0.0669    5.8828   31.0046 C   0  0  0  0  0  0
   -7.3699    0.5283   29.6820 C   0  0  0  0  0  0
    1.9098    4.3953   29.8139 C   0  0  0  0  0  0
   -6.7267   -1.8918   30.0611 C   0  0  0  0  0  0
    2.3072    3.8831   28.5773 C   0  0  0  0  0  0
    2.8430    4.5182   30.8482 C   0  0  0  0  0  0
    3.6412    3.5570   28.3607 C   0  0  0  0  0  0
    4.1805    4.2224   30.6211 C   0  0  0  0  0  0
    4.5756    3.7623   29.3719 C   0  0  0  0  0  0
   -7.2054    2.6167   29.5666 H   0  0  0  0  0  0
   -1.3121    2.2317   31.6380 H   0  0  0  0  0  0
   -4.3167   -3.7201   31.0080 H   0  0  0  0  0  0
    0.1958    3.8590   32.0084 H   0  0  0  0  0  0
   -0.0713    4.9034   29.0705 H   0  0  0  0  0  0
   -2.1702    0.2587   31.7078 H   0  0  0  0  0  0
   -4.5745    3.5414   30.2964 H   0  0  0  0  0  0
   -0.6835    6.6179   30.7095 H   0  0  0  0  0  0
    0.8291    6.3362   31.6397 H   0  0  0  0  0  0
   -8.3835    0.4737   29.3082 H   0  0  0  0  0  0
   -7.7085   -2.2004   29.7120 H   0  0  0  0  0  0
    1.5901    3.7498   27.7801 H   0  0  0  0  0  0
    2.5496    4.8799   31.8197 H   0  0  0  0  0  0
    3.9563    3.1602   27.4079 H   0  0  0  0  0  0
    4.9097    4.3579   31.4045 H   0  0  0  0  0  0
    5.6193    3.5571   29.1908 H   0  0  0  0  0  0
  1 16  2  0  0  0
  2 17  2  0  0  0
  3  9  1  0  0  0
  3 19  1  0  0  0
  3 27  1  0  0  0
  4 13  1  0  0  0
  4 16  1  0  0  0
  4 28  1  0  0  0
  5  6  1  0  0  0
  5 17  1  0  0  0
  5 29  1  0  0  0
  6 21  2  0  0  0
  7  8  2  0  0  0
  7  9  1  0  0  0
  7 10  1  0  0  0
  8 14  1  0  0  0
  8 17  1  0  0  0
  9 15  2  0  0  0
 10 19  2  0  0  0
 10 21  1  0  0  0
 11 12  1  0  0  0
 11 16  1  0  0  0
 11 18  1  0  0  0
 11 30  1  0  0  0
 12 18  1  0  0  0
 12 20  1  0  0  0
 12 31  1  0  0  0
 13 14  2  0  0  0
 13 15  1  0  0  0
 14 32  1  0  0  0
 15 33  1  0  0  0
 18 34  1  0  0  0
 18 35  1  0  0  0
 19 36  1  0  0  0
 20 22  2  0  0  0
 20 23  1  0  0  0
 21 37  1  0  0  0
 22 24  1  0  0  0
 22 38  1  0  0  0
 23 25  2  0  0  0
 23 39  1  0  0  0
 24 26  2  0  0  0
 24 40  1  0  0  0
 25 26  1  0  0  0
 25 41  1  0  0  0
 26 42  1  0  0  0
M  END
> <s_m_entry_id>
10426

> <s_m_entry_name>
dock_pv.495

> <s_m_Source_Path>
/home/csk/Desktop/cluster/DUD-E-result/met

> <s_m_Source_File>
dock_pv.maegz

> <i_m_Source_File_Index>
495

> <chembl_id>
CHEMBL1969502

> <chembl_pref_name>
None

> <i_lp_mmshare_version>
53161

> <i_f3d_flags>
0

> <r_lp_tautomer_probability>
1

> <s_lp_Force_Field>
OPLS_2005

> <r_lp_Energy>
43.956181

> <b_lp_Chiralities_Consistent>
1

> <s_lp_Variant>
CHEMBL3717_lig4177-3

> <s_i_glide_gridfile>
glide-grid_3lq8

> <i_i_glide_lignum>
5355

> <i_i_glide_rotatable_bonds>
4

> <r_i_docking_score>
-7.22340860807104

> <r_i_glide_ligand_efficiency>
-0.277823408002732

> <r_i_glide_ligand_efficiency_sa>
-0.823050753025772

> <r_i_glide_ligand_efficiency_ln>
-1.69639380966862

> <r_i_glide_gscore>
-7.22340860807104

> <r_i_glide_lipo>
-3.37305140340054

> <r_i_glide_hbond>
-0.158085134213043

> <r_i_glide_metal>
0

> <r_i_glide_rewards>
-2.31222776234606

> <r_i_glide_evdw>
-35.6183242797852

> <r_i_glide_ecoul>
-1.1869535446167

> <r_i_glide_erotb>
0.640418036685048

> <r_i_glide_esite>
-0.0615030991146803

> <r_i_glide_emodel>
-50.0298464519296

> <r_i_glide_energy>
-36.8052778244019

> <r_i_glide_einternal>
3.50271058082581

> <i_i_glide_confnum>
31

> <i_i_glide_posenum>
369

> <r_i_glide_eff_state_penalty>
0

> <s_user_duplicate_titles>
CHEMBL3717_lig4177

> <s_m_subgroup_title>
dock_pv

> <s_m_subgroupid>
dock_pv

> <b_m_subgroup_collapsed>
1

$$$$
CHEMBL3717_lig3829
                    3D
 Schrodinger Suite 2021-1.
 36 40  0  0  1  0            999 V2000
    0.6494    5.1239   31.0301 N   0  0  0  0  0  0
   -3.0056    2.8475   30.8770 N   0  0  0  0  0  0
    1.1060    5.0073   32.2895 N   0  0  0  0  0  0
   -3.8268    3.8763   30.6080 N   0  0  0  0  0  0
    2.3209    4.3570   32.2733 N   0  0  0  0  0  0
   -3.0569    5.0311   30.5992 N   0  0  0  0  0  0
   -4.7557   -2.4213   30.7041 N   0  0  0  0  0  0
   -5.7316   -2.3516   29.7820 N   0  0  0  0  0  0
    1.5570    4.5590   30.1615 C   0  0  0  0  0  0
   -3.4610    1.5028   30.9192 C   0  0  0  0  0  0
   -1.7976    4.6989   30.8197 C   0  0  0  0  0  0
    2.6417    4.1525   30.9692 C   0  0  0  0  0  0
   -4.8619   -0.2830   30.0844 C   0  0  0  0  0  0
   -0.6649    5.7008   30.7374 C   0  0  0  0  0  0
   -1.7391    3.3474   31.0697 C   0  0  0  0  0  0
   -4.2012   -1.1803   30.9591 C   0  0  0  0  0  0
   -4.4824    1.0700   30.0594 C   0  0  0  0  0  0
   -2.8696    0.5967   31.8080 C   0  0  0  0  0  0
    1.5530    4.3740   28.7867 C   0  0  0  0  0  0
   -3.2035   -0.7586   31.8395 C   0  0  0  0  0  0
    3.8013    3.6395   30.3795 C   0  0  0  0  0  0
   -5.8148   -1.1007   29.4080 C   0  0  0  0  0  0
    2.6982    3.8258   28.2182 C   0  0  0  0  0  0
    3.8170    3.5178   28.9906 C   0  0  0  0  0  0
   -4.4940   -3.3194   31.0938 H   0  0  0  0  0  0
   -0.8331    6.5275   31.4080 H   0  0  0  0  0  0
   -0.6129    6.1443   29.7432 H   0  0  0  0  0  0
   -0.8809    2.7570   31.3121 H   0  0  0  0  0  0
   -4.9614    1.7545   29.3752 H   0  0  0  0  0  0
   -2.1004    0.9407   32.4867 H   0  0  0  0  0  0
    0.7060    4.6652   28.2080 H   0  0  0  0  0  0
   -2.7069   -1.4446   32.5096 H   0  0  0  0  0  0
    4.6563    3.3595   30.9723 H   0  0  0  0  0  0
   -6.5177   -0.8022   28.6447 H   0  0  0  0  0  0
    2.7060    3.6559   27.1533 H   0  0  0  0  0  0
    4.7059    3.1570   28.5089 H   0  0  0  0  0  0
  1  3  1  0  0  0
  1  9  1  0  0  0
  1 14  1  0  0  0
  2  4  1  0  0  0
  2 10  1  0  0  0
  2 15  1  0  0  0
  3  5  2  0  0  0
  4  6  2  0  0  0
  5 12  1  0  0  0
  6 11  1  0  0  0
  7  8  1  0  0  0
  7 16  1  0  0  0
  7 25  1  0  0  0
  8 22  2  0  0  0
  9 12  1  0  0  0
  9 19  2  0  0  0
 10 17  1  0  0  0
 10 18  2  0  0  0
 11 14  1  0  0  0
 11 15  2  0  0  0
 12 21  2  0  0  0
 13 16  1  0  0  0
 13 17  2  0  0  0
 13 22  1  0  0  0
 14 26  1  0  0  0
 14 27  1  0  0  0
 15 28  1  0  0  0
 16 20  2  0  0  0
 17 29  1  0  0  0
 18 20  1  0  0  0
 18 30  1  0  0  0
 19 23  1  0  0  0
 19 31  1  0  0  0
 20 32  1  0  0  0
 21 24  1  0  0  0
 21 33  1  0  0  0
 22 34  1  0  0  0
 23 24  2  0  0  0
 23 35  1  0  0  0
 24 36  1  0  0  0
M  END
> <s_m_entry_id>
10427

> <s_m_entry_name>
dock_pv.496

> <s_m_Source_Path>
/home/csk/Desktop/cluster/DUD-E-result/met

> <s_m_Source_File>
dock_pv.maegz

> <i_m_Source_File_Index>
496

> <chembl_id>
CHEMBL1966069

> <chembl_pref_name>
None

> <i_lp_mmshare_version>
53161

> <i_f3d_flags>
0

> <r_lp_tautomer_probability>
1

> <s_lp_Force_Field>
OPLS_2005

> <r_lp_Energy>
13.587688

> <b_lp_Chiralities_Consistent>
1

> <s_lp_Variant>
CHEMBL3717_lig3829-1

> <s_i_glide_gridfile>
glide-grid_3lq8

> <i_i_glide_lignum>
4852

> <i_i_glide_rotatable_bonds>
3

> <r_i_docking_score>
-7.22171748488332

> <r_i_glide_ligand_efficiency>
-0.300904895203472

> <r_i_glide_ligand_efficiency_sa>
-0.867959910701732

> <r_i_glide_ligand_efficiency_ln>
-1.72848837715475

> <r_i_glide_gscore>
-7.22171748488332

> <r_i_glide_lipo>
-3.38552167591729

> <r_i_glide_hbond>
0

> <r_i_glide_metal>
0

> <r_i_glide_rewards>
-2.44034566708833

> <r_i_glide_evdw>
-35.5938987731934

> <r_i_glide_ecoul>
-0.918573915958405

> <r_i_glide_erotb>
0.558127239613655

> <r_i_glide_esite>
-0.0364963554379341

> <r_i_glide_emodel>
-50.8191609327864

> <r_i_glide_energy>
-36.5124726891518

> <r_i_glide_einternal>
0.873961806297302

> <i_i_glide_confnum>
13

> <i_i_glide_posenum>
359

> <r_i_glide_eff_state_penalty>
0

> <s_user_duplicate_titles>
CHEMBL3717_lig3829

> <s_m_subgroup_title>
dock_pv

> <s_m_subgroupid>
dock_pv

> <b_m_subgroup_collapsed>
1

$$$$
CHEMBL3717_lig244
                    3D
 Schrodinger Suite 2021-1.
 34 36  0  0  1  0            999 V2000
   -0.3511    7.5573   29.5473 O   0  0  0  0  0  0
   -0.1459    6.5522   30.2079 C   0  0  0  0  0  0
    1.1060    6.2533   30.6280 N   0  0  0  0  0  0
    1.4835    5.0609   31.4271 C   0  0  0  0  0  0
    0.7507    3.7927   30.8935 C   0  0  2  0  0  0
    1.3236    3.1898   29.5733 C   0  0  0  0  0  0
    2.0895    4.0923   28.5931 C   0  0  0  0  0  0
    3.2575    4.5297   29.0624 F   0  0  0  0  0  0
   -0.7095    4.2149   30.7946 C   0  0  0  0  0  0
   -1.8410    3.4401   30.8413 N   0  0  0  0  0  0
   -1.0901    5.5268   30.5662 C   0  0  0  0  0  0
   -2.4884    5.5273   30.5019 C   0  0  0  0  0  0
   -2.9547    4.2190   30.6097 C   0  0  0  0  0  0
   -4.3422    3.6881   30.4823 C   0  0  0  0  0  0
   -4.6344    2.3216   30.3766 C   0  0  0  0  0  0
   -5.9806    1.9704   30.2470 C   0  0  0  0  0  0
   -5.3192    4.6355   30.4388 N   0  0  0  0  0  0
   -6.5916    4.1925   30.2967 C   0  0  0  0  0  0
   -6.9754    2.8952   30.2085 N   0  0  0  0  0  0
   -7.5840    5.1569   30.2080 N   0  0  0  0  0  0
    1.8409    6.8482   30.2767 H   0  0  0  0  0  0
    1.2118    5.2455   32.4687 H   0  0  0  0  0  0
    2.5654    4.9270   31.4163 H   0  0  0  0  0  0
    0.8293    3.0231   31.6607 H   0  0  0  0  0  0
    0.5006    2.7571   29.0095 H   0  0  0  0  0  0
    1.9813    2.3571   29.8258 H   0  0  0  0  0  0
    1.5011    4.9592   28.2937 H   0  0  0  0  0  0
    2.3246    3.5409   27.6817 H   0  0  0  0  0  0
   -1.8511    2.4384   30.9645 H   0  0  0  0  0  0
   -3.1040    6.3887   30.2883 H   0  0  0  0  0  0
   -3.8655    1.5645   30.3951 H   0  0  0  0  0  0
   -6.2799    0.9350   30.1667 H   0  0  0  0  0  0
   -8.5080    4.8633   29.9284 H   0  0  0  0  0  0
   -7.2812    6.1058   30.0310 H   0  0  0  0  0  0
  1  2  2  0  0  0
  2  3  1  0  0  0
  2 11  1  0  0  0
  3  4  1  0  0  0
  3 21  1  0  0  0
  4  5  1  0  0  0
  4 22  1  0  0  0
  4 23  1  0  0  0
  5  6  1  0  0  0
  5  9  1  0  0  0
  5 24  1  0  0  0
  6  7  1  0  0  0
  6 25  1  0  0  0
  6 26  1  0  0  0
  7  8  1  0  0  0
  7 27  1  0  0  0
  7 28  1  0  0  0
  9 11  2  0  0  0
  9 10  1  0  0  0
 10 13  1  0  0  0
 10 29  1  0  0  0
 11 12  1  0  0  0
 12 13  2  0  0  0
 12 30  1  0  0  0
 13 14  1  0  0  0
 14 17  2  0  0  0
 14 15  1  0  0  0
 15 16  2  0  0  0
 15 31  1  0  0  0
 16 19  1  0  0  0
 16 32  1  0  0  0
 17 18  1  0  0  0
 18 20  1  0  0  0
 18 19  2  0  0  0
 20 33  1  0  0  0
 20 34  1  0  0  0
M  END
> <s_m_entry_id>
10428

> <s_m_entry_name>
dock_pv.497

> <s_m_Source_Path>
/home/csk/Desktop/cluster/DUD-E-result/met

> <s_m_Source_File>
dock_pv.maegz

> <i_m_Source_File_Index>
497

> <chembl_id>
CHEMBL524266

> <chembl_pref_name>
None

> <i_lp_mmshare_version>
53161

> <i_f3d_flags>
0

> <r_lp_tautomer_probability>
0.999999987636

> <s_lp_Force_Field>
OPLS_2005

> <r_lp_Energy>
7.175171

> <b_lp_Chiralities_Consistent>
1

> <s_lp_Variant>
CHEMBL3717_lig244-1

> <s_i_glide_gridfile>
glide-grid_3lq8

> <i_i_glide_lignum>
255

> <i_i_glide_rotatable_bonds>
3

> <r_i_docking_score>
-7.22155096930733

> <r_i_glide_ligand_efficiency>
-0.361077548465366

> <r_i_glide_ligand_efficiency_sa>
-0.980115257532571

> <r_i_glide_ligand_efficiency_ln>
-1.8073160249258

> <r_i_glide_gscore>
-7.22155096930733

> <r_i_glide_lipo>
-2.52133489038419

> <r_i_glide_hbond>
-0.0596428229091799

> <r_i_glide_metal>
0

> <r_i_glide_rewards>
-3.02385797661502

> <r_i_glide_evdw>
-35.141414642334

> <r_i_glide_ecoul>
-2.22635960578918

> <r_i_glide_erotb>
0.474309393586135

> <r_i_glide_esite>
0

> <r_i_glide_emodel>
-50.4147060850554

> <r_i_glide_energy>
-37.3677742481232

> <r_i_glide_einternal>
4.60183811187744

> <i_i_glide_confnum>
6

> <i_i_glide_posenum>
300

> <r_i_glide_eff_state_penalty>
0

> <s_user_duplicate_titles>
CHEMBL3717_lig244

> <s_m_subgroup_title>
dock_pv

> <s_m_subgroupid>
dock_pv

> <b_m_subgroup_collapsed>
1

$$$$
CHEMBL3717_lig4269
                    3D
 Schrodinger Suite 2021-1.
 35 38  0  0  1  0            999 V2000
   -4.0935    3.2573   30.2078 N   0  0  0  0  0  0
   -5.3672    2.8351   30.2075 N   0  0  0  0  0  0
   -6.4720    3.6022   30.6049 C   0  0  0  0  0  0
   -6.3088    4.8698   31.0077 N   0  0  0  0  0  0
   -5.0275    5.3370   30.9941 C   0  0  0  0  0  0
   -3.9306    4.5507   30.6079 C   0  0  0  0  0  0
   -7.1953    1.6245   29.9884 N   0  0  0  0  0  0
   -7.5947    2.8590   30.4867 N   0  0  0  0  0  0
   -5.8862    1.6183   29.8171 C   0  0  0  0  0  0
   -5.0755    0.4822   29.1971 C   0  0  0  0  0  0
   -4.1089   -0.2844   30.1051 C   0  0  0  0  0  0
   -3.5079   -1.4437   29.6047 C   0  0  0  0  0  0
   -2.6104   -2.1663   30.3858 C   0  0  0  0  0  0
   -2.3033   -1.7282   31.6705 C   0  0  0  0  0  0
   -2.8859   -0.5688   32.1764 C   0  0  0  0  0  0
   -3.7945    0.1446   31.3992 C   0  0  0  0  0  0
   -1.4353   -2.4330   32.4314 F   0  0  0  0  0  0
   -2.5269    5.0515   30.6195 C   0  0  0  0  0  0
   -2.2319    6.3572   30.2082 C   0  0  0  0  0  0
   -0.9125    6.7978   30.1392 C   0  0  0  0  0  0
    0.1210    5.9390   30.5014 C   0  0  0  0  0  0
   -0.1535    4.6508   30.9466 C   0  0  0  0  0  0
   -1.4723    4.2103   31.0070 C   0  0  0  0  0  0
    1.4016    6.3569   30.4183 F   0  0  0  0  0  0
   -4.8933    6.3576   31.3177 H   0  0  0  0  0  0
   -4.4941    0.8591   28.3546 H   0  0  0  0  0  0
   -5.7521   -0.2508   28.7527 H   0  0  0  0  0  0
   -3.7390   -1.7920   28.6084 H   0  0  0  0  0  0
   -2.1629   -3.0721   30.0007 H   0  0  0  0  0  0
   -2.6340   -0.2251   33.1674 H   0  0  0  0  0  0
   -4.2476    1.0317   31.8078 H   0  0  0  0  0  0
   -3.0239    7.0240   29.9051 H   0  0  0  0  0  0
   -0.6873    7.7999   29.8022 H   0  0  0  0  0  0
    0.6546    3.9927   31.2289 H   0  0  0  0  0  0
   -1.6705    3.1997   31.3358 H   0  0  0  0  0  0
  1  2  1  0  0  0
  1  6  2  0  0  0
  2  3  1  0  0  0
  2  9  1  0  0  0
  3  4  1  0  0  0
  3  8  2  0  0  0
  4  5  2  0  0  0
  5  6  1  0  0  0
  5 25  1  0  0  0
  6 18  1  0  0  0
  7  8  1  0  0  0
  7  9  2  0  0  0
  9 10  1  0  0  0
 10 11  1  0  0  0
 10 26  1  0  0  0
 10 27  1  0  0  0
 11 12  1  0  0  0
 11 16  2  0  0  0
 12 13  2  0  0  0
 12 28  1  0  0  0
 13 14  1  0  0  0
 13 29  1  0  0  0
 14 15  2  0  0  0
 14 17  1  0  0  0
 15 16  1  0  0  0
 15 30  1  0  0  0
 16 31  1  0  0  0
 18 19  1  0  0  0
 18 23  2  0  0  0
 19 20  2  0  0  0
 19 32  1  0  0  0
 20 21  1  0  0  0
 20 33  1  0  0  0
 21 22  2  0  0  0
 21 24  1  0  0  0
 22 23  1  0  0  0
 22 34  1  0  0  0
 23 35  1  0  0  0
M  END
> <s_m_entry_id>
10429

> <s_m_entry_name>
dock_pv.498

> <s_m_Source_Path>
/home/csk/Desktop/cluster/DUD-E-result/met

> <s_m_Source_File>
dock_pv.maegz

> <i_m_Source_File_Index>
498

> <chembl_id>
CHEMBL2170960

> <chembl_pref_name>
None

> <i_lp_mmshare_version>
53161

> <i_f3d_flags>
0

> <r_lp_tautomer_probability>
1

> <s_lp_Force_Field>
OPLS_2005

> <r_lp_Energy>
22.419996

> <b_lp_Chiralities_Consistent>
1

> <s_lp_Variant>
CHEMBL3717_lig4269-1

> <s_i_glide_gridfile>
glide-grid_3lq8

> <i_i_glide_lignum>
5484

> <i_i_glide_rotatable_bonds>
3

> <r_i_docking_score>
-7.22063413886058

> <r_i_glide_ligand_efficiency>
-0.300859755785857

> <r_i_glide_ligand_efficiency_sa>
-0.867829706090553

> <r_i_glide_ligand_efficiency_ln>
-1.72822908274

> <r_i_glide_gscore>
-7.22063413886058

> <r_i_glide_lipo>
-2.99437533975795

> <r_i_glide_hbond>
0

> <r_i_glide_metal>
0

> <r_i_glide_rewards>
-2.94320814895415

> <r_i_glide_evdw>
-38.3513069152832

> <r_i_glide_ecoul>
0.649602055549622

> <r_i_glide_erotb>
0.537074387283236

> <r_i_glide_esite>
0

> <r_i_glide_emodel>
-53.5764460523743

> <r_i_glide_energy>
-37.7017048597336

> <r_i_glide_einternal>
2.22209620475769

> <i_i_glide_confnum>
2

> <i_i_glide_posenum>
132

> <r_i_glide_eff_state_penalty>
0

> <s_user_duplicate_titles>
CHEMBL3717_lig4269

> <s_m_subgroup_title>
dock_pv

> <s_m_subgroupid>
dock_pv

> <b_m_subgroup_collapsed>
1

$$$$
CHEMBL3717_lig2416
                    3D
 Schrodinger Suite 2021-1.
 49 50  0  0  1  0            999 V2000
   -2.6982    5.4779   30.8544 C   0  0  0  0  0  0
   -1.2413    5.3794   30.9072 C   0  0  0  0  0  0
   -0.5441    4.3639   30.3507 C   0  0  0  0  0  0
   -3.2938    6.5458   31.0081 O   0  0  0  0  0  0
   -3.3004    4.2944   30.6079 O   0  0  0  0  0  0
    0.9162    4.2074   30.3601 C   0  0  0  0  0  0
    1.5308    3.7236   29.2048 C   0  0  0  0  0  0
    2.9256    3.5708   29.1313 C   0  0  0  0  0  0
    3.6963    3.8832   30.2554 C   0  0  0  0  0  0
    3.0867    4.3564   31.4159 C   0  0  0  0  0  0
    1.7032    4.5342   31.4666 C   0  0  0  0  0  0
    3.5882    3.1516   27.9961 O   0  0  0  0  0  0
    2.8484    2.4417   27.0129 C   0  0  0  0  0  0
    5.0558    3.7028   30.2252 O   0  0  0  0  0  0
   -4.7074    4.1817   30.4970 C   0  0  0  0  0  0
   -5.0285    2.6953   30.2586 C   0  0  0  0  0  0
   -6.4955    2.3422   30.0365 C   0  0  0  0  0  0
   -7.5223    3.2828   30.1599 C   0  0  0  0  0  0
   -8.8563    2.9370   29.8912 C   0  0  0  0  0  0
   -9.1461    1.6179   29.5119 C   0  0  0  0  0  0
   -8.1347    0.6544   29.4061 C   0  0  0  0  0  0
   -6.8105    1.0344   29.6690 C   0  0  0  0  0  0
   -8.5131   -0.6268   29.0411 O   0  0  0  0  0  0
   -7.5301   -1.6569   28.9968 C   0  0  0  0  0  0
   -9.9080    3.8329   29.9752 O   0  0  0  0  0  0
   -9.6640    5.1585   30.4315 C   0  0  0  0  0  0
  -10.4397    1.2437   29.2394 O   0  0  0  0  0  0
   -0.7307    6.1871   31.4061 H   0  0  0  0  0  0
   -1.0708    3.5617   29.8478 H   0  0  0  0  0  0
    0.9055    3.4884   28.3561 H   0  0  0  0  0  0
    3.6872    4.5924   32.2804 H   0  0  0  0  0  0
    1.2497    4.9074   32.3737 H   0  0  0  0  0  0
    3.5046    2.1128   26.2089 H   0  0  0  0  0  0
    2.4025    1.5571   27.4518 H   0  0  0  0  0  0
    2.0550    3.0582   26.5956 H   0  0  0  0  0  0
    5.3299    3.3409   29.3751 H   0  0  0  0  0  0
   -5.1901    4.5388   31.4074 H   0  0  0  0  0  0
   -5.0639    4.7968   29.6694 H   0  0  0  0  0  0
   -4.4721    2.3562   29.3830 H   0  0  0  0  0  0
   -4.6638    2.1060   31.1009 H   0  0  0  0  0  0
   -7.2783    4.2921   30.4466 H   0  0  0  0  0  0
   -6.0060    0.3205   29.5787 H   0  0  0  0  0  0
   -8.0097   -2.5988   28.7330 H   0  0  0  0  0  0
   -6.7734   -1.4513   28.2385 H   0  0  0  0  0  0
   -7.0439   -1.7931   29.9647 H   0  0  0  0  0  0
  -10.5889    5.7324   30.3955 H   0  0  0  0  0  0
   -9.3120    5.1565   31.4632 H   0  0  0  0  0  0
   -8.9332    5.6750   29.8083 H   0  0  0  0  0  0
  -10.4744    0.3143   28.9997 H   0  0  0  0  0  0
  1  2  1  0  0  0
  1  4  2  0  0  0
  1  5  1  0  0  0
  2  3  2  0  0  0
  2 28  1  0  0  0
  3  6  1  0  0  0
  3 29  1  0  0  0
  5 15  1  0  0  0
  6  7  1  0  0  0
  6 11  2  0  0  0
  7  8  2  0  0  0
  7 30  1  0  0  0
  8  9  1  0  0  0
  8 12  1  0  0  0
  9 10  2  0  0  0
  9 14  1  0  0  0
 10 11  1  0  0  0
 10 31  1  0  0  0
 11 32  1  0  0  0
 12 13  1  0  0  0
 13 33  1  0  0  0
 13 34  1  0  0  0
 13 35  1  0  0  0
 14 36  1  0  0  0
 15 16  1  0  0  0
 15 37  1  0  0  0
 15 38  1  0  0  0
 16 17  1  0  0  0
 16 39  1  0  0  0
 16 40  1  0  0  0
 17 18  1  0  0  0
 17 22  2  0  0  0
 18 19  2  0  0  0
 18 41  1  0  0  0
 19 20  1  0  0  0
 19 25  1  0  0  0
 20 21  2  0  0  0
 20 27  1  0  0  0
 21 22  1  0  0  0
 21 23  1  0  0  0
 22 42  1  0  0  0
 23 24  1  0  0  0
 24 43  1  0  0  0
 24 44  1  0  0  0
 24 45  1  0  0  0
 25 26  1  0  0  0
 26 46  1  0  0  0
 26 47  1  0  0  0
 26 48  1  0  0  0
 27 49  1  0  0  0
M  END
> <s_m_entry_id>
10430

> <s_m_entry_name>
dock_pv.499

> <s_m_Source_Path>
/home/csk/Desktop/cluster/DUD-E-result/met

> <s_m_Source_File>
dock_pv.maegz

> <i_m_Source_File_Index>
499

> <chembl_id>
CHEMBL3822722

> <chembl_pref_name>
None

> <i_lp_mmshare_version>
53161

> <i_f3d_flags>
0

> <r_lp_tautomer_probability>
0.99999999999482

> <s_lp_Force_Field>
OPLS_2005

> <r_lp_Energy>
21.232234

> <b_lp_Chiralities_Consistent>
1

> <s_lp_Variant>
CHEMBL3717_lig2416-1

> <s_i_glide_gridfile>
glide-grid_3lq8

> <i_i_glide_lignum>
2742

> <i_i_glide_rotatable_bonds>
11

> <r_i_docking_score>
-7.22048093077385

> <r_i_glide_ligand_efficiency>
-0.267425219658291

> <r_i_glide_ligand_efficiency_sa>
-0.802275658093483

> <r_i_glide_ligand_efficiency_ln>
-1.68080892175261

> <r_i_glide_gscore>
-7.22048093077385

> <r_i_glide_lipo>
-3.54819710889841

> <r_i_glide_hbond>
0

> <r_i_glide_metal>
0

> <r_i_glide_rewards>
-1.86480278557783

> <r_i_glide_evdw>
-41.2388534545898

> <r_i_glide_ecoul>
-3.82153916358948

> <r_i_glide_erotb>
0.827692510970294

> <r_i_glide_esite>
0

> <r_i_glide_emodel>
-59.6295970815226

> <r_i_glide_energy>
-45.0603926181793

> <r_i_glide_einternal>
8.20700454711914

> <i_i_glide_confnum>
2

> <i_i_glide_posenum>
35

> <r_i_glide_eff_state_penalty>
0

> <s_user_duplicate_titles>
CHEMBL3717_lig2416

> <s_m_subgroup_title>
dock_pv

> <s_m_subgroupid>
dock_pv

> <b_m_subgroup_collapsed>
1

$$$$
CHEMBL3717_lig3854
                    3D
 Schrodinger Suite 2021-1.
 43 46  0  0  1  0            999 V2000
   -4.1142   -0.9679   30.0305 N   0  0  0  0  0  0
   -2.3508    3.1599   30.8871 N   0  0  0  0  0  0
   -2.6899   -2.1631   31.5890 N   0  0  0  0  0  0
   -3.2064    5.3920   30.5756 N   0  0  0  0  0  0
   -0.9287    5.0709   31.0090 N   0  0  0  0  0  0
    4.5105    3.4636   30.1950 N   0  0  0  0  0  0
   -3.6630    1.1692   30.6257 C   0  0  0  0  0  0
   -2.9614    0.2767   31.5135 C   0  0  0  0  0  0
   -3.5816    2.6546   30.6073 C   0  0  0  0  0  0
   -3.2246   -1.0511   31.0769 C   0  0  0  0  0  0
   -4.3971    0.3530   29.7775 C   0  0  0  0  0  0
   -2.2031    4.5116   30.8334 C   0  0  0  0  0  0
   -2.0943    0.4286   32.6116 C   0  0  0  0  0  0
   -4.6660    3.4836   30.3071 C   0  0  0  0  0  0
   -4.4324    4.8627   30.3138 C   0  0  0  0  0  0
   -1.4960   -0.7130   33.1438 C   0  0  0  0  0  0
    0.2937    4.2625   30.9795 C   0  0  2  0  0  0
   -1.8141   -1.9609   32.6074 C   0  0  0  0  0  0
    1.3757    4.9762   31.8073 C   0  0  0  0  0  0
    0.7503    4.0663   29.5147 C   0  0  0  0  0  0
    3.2061    4.0938   30.2703 C   0  0  2  0  0  0
    2.7214    4.2306   31.7258 C   0  0  0  0  0  0
    2.1339    3.3828   29.4177 C   0  0  0  0  0  0
   -4.4963   -1.7285   29.4859 H   0  0  0  0  0  0
   -0.8411    6.0585   30.8198 H   0  0  0  0  0  0
    4.7660    3.2952   29.2304 H   0  0  0  0  0  0
    5.2071    4.0916   30.5663 H   0  0  0  0  0  0
   -5.0579    0.6035   28.9598 H   0  0  0  0  0  0
   -1.8564    1.4076   32.9993 H   0  0  0  0  0  0
   -5.6433    3.0763   30.0906 H   0  0  0  0  0  0
   -5.2261    5.5625   30.0960 H   0  0  0  0  0  0
   -0.7924   -0.6349   33.9592 H   0  0  0  0  0  0
    0.0915    3.2811   31.4122 H   0  0  0  0  0  0
   -1.3413   -2.8430   33.0101 H   0  0  0  0  0  0
    1.5054    5.9986   31.4471 H   0  0  0  0  0  0
    1.0771    5.0558   32.8525 H   0  0  0  0  0  0
    0.0173    3.4536   28.9895 H   0  0  0  0  0  0
    0.7811    5.0245   28.9947 H   0  0  0  0  0  0
    3.3065    5.1045   29.8697 H   0  0  0  0  0  0
    2.6157    3.2399   32.1738 H   0  0  0  0  0  0
    3.4656    4.7570   32.3210 H   0  0  0  0  0  0
    2.0325    2.3552   29.7603 H   0  0  0  0  0  0
    2.4461    3.3333   28.3731 H   0  0  0  0  0  0
  1 10  1  0  0  0
  1 11  1  0  0  0
  1 24  1  0  0  0
  2  9  2  0  0  0
  2 12  1  0  0  0
  3 10  2  0  0  0
  3 18  1  0  0  0
  4 12  2  0  0  0
  4 15  1  0  0  0
  5 12  1  0  0  0
  5 17  1  0  0  0
  5 25  1  0  0  0
  6 21  1  0  0  0
  6 26  1  0  0  0
  6 27  1  0  0  0
  7  8  1  0  0  0
  7  9  1  0  0  0
  7 11  2  0  0  0
  8 10  1  0  0  0
  8 13  2  0  0  0
  9 14  1  0  0  0
 11 28  1  0  0  0
 13 16  1  0  0  0
 13 29  1  0  0  0
 14 15  2  0  0  0
 14 30  1  0  0  0
 15 31  1  0  0  0
 16 18  2  0  0  0
 16 32  1  0  0  0
 17 19  1  0  0  0
 17 20  1  0  0  0
 17 33  1  0  0  0
 18 34  1  0  0  0
 19 22  1  0  0  0
 19 35  1  0  0  0
 19 36  1  0  0  0
 20 23  1  0  0  0
 20 37  1  0  0  0
 20 38  1  0  0  0
 21 22  1  0  0  0
 21 23  1  0  0  0
 21 39  1  0  0  0
 22 40  1  0  0  0
 22 41  1  0  0  0
 23 42  1  0  0  0
 23 43  1  0  0  0
M  END
> <s_m_entry_id>
10432

> <s_m_entry_name>
dock_pv.501

> <s_m_Source_Path>
/home/csk/Desktop/cluster/DUD-E-result/met

> <s_m_Source_File>
dock_pv.maegz

> <i_m_Source_File_Index>
501

> <chembl_id>
CHEMBL1966628

> <chembl_pref_name>
None

> <i_lp_mmshare_version>
53161

> <i_f3d_flags>
0

> <r_lp_tautomer_probability>
0.999998420164496

> <s_lp_Force_Field>
OPLS_2005

> <r_lp_Energy>
2.497116

> <b_lp_Chiralities_Consistent>
1

> <s_lp_Variant>
CHEMBL3717_lig3854-1

> <s_i_glide_gridfile>
glide-grid_3lq8

> <i_i_glide_lignum>
4886

> <i_i_glide_rotatable_bonds>
3

> <r_i_docking_score>
-7.21933514930871

> <r_i_glide_ligand_efficiency>
-0.313884136926465

> <r_i_glide_ligand_efficiency_sa>
-0.892644731571422

> <r_i_glide_ligand_efficiency_ln>
-1.74570070041476

> <r_i_glide_gscore>
-7.21933514930871

> <r_i_glide_lipo>
-3.41413300956762

> <r_i_glide_hbond>
0

> <r_i_glide_metal>
0

> <r_i_glide_rewards>
-1.93808656772734

> <r_i_glide_evdw>
-41.5197944641113

> <r_i_glide_ecoul>
-2.48118114471436

> <r_i_glide_erotb>
0.583625750748594

> <r_i_glide_esite>
-0.00257442784962243

> <r_i_glide_emodel>
-60.1218708724985

> <r_i_glide_energy>
-44.0009756088257

> <r_i_glide_einternal>
4.45967435836792

> <i_i_glide_confnum>
2

> <i_i_glide_posenum>
103

> <r_i_glide_eff_state_penalty>
0

> <s_user_duplicate_titles>
CHEMBL3717_lig3854

> <s_m_subgroup_title>
dock_pv

> <s_m_subgroupid>
dock_pv

> <b_m_subgroup_collapsed>
1

$$$$
CHEMBL3717_lig3869
                    3D
 Schrodinger Suite 2021-1.
 30 31  0  0  1  0            999 V2000
   -3.2940    1.9570   30.6450 S   0  0  0  0  0  0
    3.9060    3.5570   28.2426 O   0  0  0  0  0  0
   -4.4590    5.7481   30.4239 N   0  0  0  0  0  0
   -2.4940    7.1422   30.2080 N   0  0  0  0  0  0
   -0.3934    5.9461   30.4568 N   0  0  0  0  0  0
   -0.3046    3.5916   30.8337 N   0  0  0  0  0  0
   -2.4608    4.7142   30.6080 C   0  0  0  0  0  0
   -3.1033    5.9692   30.4108 C   0  0  0  0  0  0
   -3.4964    3.7058   30.6080 C   0  0  0  0  0  0
   -1.0488    4.7674   30.6500 C   0  0  0  0  0  0
   -4.6940    4.4030   30.5560 C   0  0  0  0  0  0
   -1.1414    7.0455   30.2080 C   0  0  0  0  0  0
    1.1570    3.5951   30.8628 C   0  0  0  0  0  0
   -4.4121    1.5027   29.2870 C   0  0  0  0  0  0
    1.8097    3.4850   29.4731 C   0  0  0  0  0  0
    3.3433    3.5721   29.5372 C   0  0  0  0  0  0
    4.8278    3.2836   28.3075 H   0  0  0  0  0  0
   -5.1962    6.4269   30.2877 H   0  0  0  0  0  0
   -0.7893    2.7150   30.7001 H   0  0  0  0  0  0
   -5.7115    4.0384   30.5475 H   0  0  0  0  0  0
   -0.5912    7.9570   30.0328 H   0  0  0  0  0  0
    1.5060    2.7925   31.5135 H   0  0  0  0  0  0
    1.5172    4.4994   31.3568 H   0  0  0  0  0  0
   -4.4064    0.4208   29.1512 H   0  0  0  0  0  0
   -5.4352    1.8104   29.5008 H   0  0  0  0  0  0
   -4.0940    1.9570   28.3497 H   0  0  0  0  0  0
    1.4279    4.2819   28.8325 H   0  0  0  0  0  0
    1.5087    2.5500   28.9977 H   0  0  0  0  0  0
    3.7444    2.7570   30.1404 H   0  0  0  0  0  0
    3.6526    4.4813   30.0552 H   0  0  0  0  0  0
  1  9  1  0  0  0
  1 14  1  0  0  0
  2 16  1  0  0  0
  2 17  1  0  0  0
  3  8  1  0  0  0
  3 11  1  0  0  0
  3 18  1  0  0  0
  4  8  2  0  0  0
  4 12  1  0  0  0
  5 10  1  0  0  0
  5 12  2  0  0  0
  6 10  1  0  0  0
  6 13  1  0  0  0
  6 19  1  0  0  0
  7  8  1  0  0  0
  7  9  1  0  0  0
  7 10  2  0  0  0
  9 11  2  0  0  0
 11 20  1  0  0  0
 12 21  1  0  0  0
 13 15  1  0  0  0
 13 22  1  0  0  0
 13 23  1  0  0  0
 14 24  1  0  0  0
 14 25  1  0  0  0
 14 26  1  0  0  0
 15 16  1  0  0  0
 15 27  1  0  0  0
 15 28  1  0  0  0
 16 29  1  0  0  0
 16 30  1  0  0  0
M  END
> <s_m_entry_id>
10433

> <s_m_entry_name>
dock_pv.502

> <s_m_Source_Path>
/home/csk/Desktop/cluster/DUD-E-result/met

> <s_m_Source_File>
dock_pv.maegz

> <i_m_Source_File_Index>
502

> <chembl_id>
CHEMBL2000114

> <chembl_pref_name>
None

> <i_lp_mmshare_version>
53161

> <i_f3d_flags>
0

> <r_lp_tautomer_probability>
1

> <s_lp_Force_Field>
OPLS_2005

> <r_lp_Energy>
5.388893

> <b_lp_Chiralities_Consistent>
1

> <s_lp_Variant>
CHEMBL3717_lig3869-1

> <s_i_glide_gridfile>
glide-grid_3lq8

> <i_i_glide_lignum>
4912

> <i_i_glide_rotatable_bonds>
6

> <r_i_docking_score>
-7.21455523236123

> <r_i_glide_ligand_efficiency>
-0.450909702022577

> <r_i_glide_ligand_efficiency_sa>
-1.13622124931005

> <r_i_glide_ligand_efficiency_ln>
-1.91236197834943

> <r_i_glide_gscore>
-7.21455523236123

> <r_i_glide_lipo>
-1.91444469399941

> <r_i_glide_hbond>
-0.582656750999755

> <r_i_glide_metal>
0

> <r_i_glide_rewards>
-3.26954588688437

> <r_i_glide_evdw>
-29.7592105865479

> <r_i_glide_ecoul>
-5.40548419952393

> <r_i_glide_erotb>
0.850875258778292

> <r_i_glide_esite>
0

> <r_i_glide_emodel>
-47.2012697290084

> <r_i_glide_energy>
-35.1646947860718

> <r_i_glide_einternal>
3.64489698410034

> <i_i_glide_confnum>
20

> <i_i_glide_posenum>
148

> <r_i_glide_eff_state_penalty>
0

> <s_user_duplicate_titles>
CHEMBL3717_lig3869

> <s_m_subgroup_title>
dock_pv

> <s_m_subgroupid>
dock_pv

> <b_m_subgroup_collapsed>
1

$$$$
CHEMBL3717_lig2121
                    3D
 Schrodinger Suite 2021-1.
 43 47  0  0  1  0            999 V2000
   -8.3598   -0.6555   29.1965 N   0  0  0  0  0  0
   -9.1994   -1.1530   30.1382 C   0  0  0  0  0  0
   -8.9492   -1.0818   31.5067 C   0  0  0  0  0  0
   -7.7765   -0.4699   31.9472 C   0  0  0  0  0  0
   -6.8735    0.0645   30.9940 C   0  0  0  0  0  0
   -5.6607    0.6934   31.3615 C   0  0  0  0  0  0
   -4.8019    1.2019   30.3830 C   0  0  0  0  0  0
   -5.1370    1.0846   29.0340 C   0  0  0  0  0  0
   -6.3221    0.4642   28.6414 C   0  0  0  0  0  0
   -7.2102   -0.0530   29.6111 C   0  0  0  0  0  0
   -3.4722    1.8245   30.7818 C   0  0  0  0  0  0
   -2.4944    5.3731   30.5067 C   0  0  0  0  0  0
   -1.4256    6.2860   30.4354 C   0  0  0  0  0  0
   -0.1124    5.8284   30.5099 C   0  0  0  0  0  0
    0.1773    4.4752   30.6572 C   0  0  0  0  0  0
   -0.8829    3.5742   30.7564 C   0  0  0  0  0  0
   -2.1797    4.0110   30.6467 N   0  0  0  0  0  0
   -3.8362    5.5572   30.4084 N   0  0  0  0  0  0
   -4.3395    4.3421   30.4593 C   0  0  0  0  0  0
   -3.3818    3.3354   30.6080 C   0  0  0  0  0  0
    3.7750    3.8939   30.2755 N   0  0  0  0  0  0
    3.4933    2.8147   31.0083 N   0  0  0  0  0  0
    2.2001    2.9005   31.2303 C   0  0  0  0  0  0
    1.5998    4.0308   30.6477 C   0  0  0  0  0  0
    2.6691    4.6578   30.0256 C   0  0  0  0  0  0
    5.1440    4.1500   29.8769 C   0  0  0  0  0  0
   -1.6940    7.9570   30.2069 Cl  0  0  0  0  0  0
  -10.0999   -1.6230   29.7703 H   0  0  0  0  0  0
   -9.6510   -1.4962   32.2163 H   0  0  0  0  0  0
   -7.5498   -0.4010   33.0028 H   0  0  0  0  0  0
   -5.4063    0.7581   32.4095 H   0  0  0  0  0  0
   -4.4594    1.4564   28.2789 H   0  0  0  0  0  0
   -6.5621    0.3573   27.5926 H   0  0  0  0  0  0
   -3.2371    1.5496   31.8080 H   0  0  0  0  0  0
   -2.7074    1.3175   30.2083 H   0  0  0  0  0  0
    0.6929    6.5461   30.4367 H   0  0  0  0  0  0
   -0.7553    2.5195   30.8555 H   0  0  0  0  0  0
   -5.4076    4.1821   30.4071 H   0  0  0  0  0  0
    1.6872    2.1452   31.8069 H   0  0  0  0  0  0
    2.7383    5.5569   29.4347 H   0  0  0  0  0  0
    5.1795    4.9721   29.1627 H   0  0  0  0  0  0
    5.7340    4.4125   30.7553 H   0  0  0  0  0  0
    5.5553    3.2571   29.4102 H   0  0  0  0  0  0
  1  2  2  0  0  0
  1 10  1  0  0  0
  2  3  1  0  0  0
  2 28  1  0  0  0
  3  4  2  0  0  0
  3 29  1  0  0  0
  4  5  1  0  0  0
  4 30  1  0  0  0
  5  6  2  0  0  0
  5 10  1  0  0  0
  6  7  1  0  0  0
  6 31  1  0  0  0
  7  8  2  0  0  0
  7 11  1  0  0  0
  8  9  1  0  0  0
  8 32  1  0  0  0
  9 10  2  0  0  0
  9 33  1  0  0  0
 11 20  1  0  0  0
 11 34  1  0  0  0
 11 35  1  0  0  0
 12 13  1  0  0  0
 12 17  1  0  0  0
 12 18  2  0  0  0
 13 14  2  0  0  0
 13 27  1  0  0  0
 14 15  1  0  0  0
 14 36  1  0  0  0
 15 16  2  0  0  0
 15 24  1  0  0  0
 16 17  1  0  0  0
 16 37  1  0  0  0
 17 20  1  0  0  0
 18 19  1  0  0  0
 19 20  2  0  0  0
 19 38  1  0  0  0
 21 22  1  0  0  0
 21 25  1  0  0  0
 21 26  1  0  0  0
 22 23  2  0  0  0
 23 24  1  0  0  0
 23 39  1  0  0  0
 24 25  2  0  0  0
 25 40  1  0  0  0
 26 41  1  0  0  0
 26 42  1  0  0  0
 26 43  1  0  0  0
M  END
> <s_m_entry_id>
10434

> <s_m_entry_name>
dock_pv.503

> <s_m_Source_Path>
/home/csk/Desktop/cluster/DUD-E-result/met

> <s_m_Source_File>
dock_pv.maegz

> <i_m_Source_File_Index>
503

> <chembl_id>
CHEMBL3582273

> <chembl_pref_name>
None

> <i_lp_mmshare_version>
53161

> <i_f3d_flags>
0

> <r_lp_tautomer_probability>
1

> <s_lp_Force_Field>
OPLS_2005

> <r_lp_Energy>
15.747621

> <b_lp_Chiralities_Consistent>
1

> <s_lp_Variant>
CHEMBL3717_lig2121-1

> <s_i_glide_gridfile>
glide-grid_3lq8

> <i_i_glide_lignum>
2419

> <i_i_glide_rotatable_bonds>
3

> <r_i_docking_score>
-7.21210799941722

> <r_i_glide_ligand_efficiency>
-0.267115111089527

> <r_i_glide_ligand_efficiency_sa>
-0.801345332388212

> <r_i_glide_ligand_efficiency_ln>
-1.67885984137135

> <r_i_glide_gscore>
-7.21210799941722

> <r_i_glide_lipo>
-3.2204975310788

> <r_i_glide_hbond>
0

> <r_i_glide_metal>
0

> <r_i_glide_rewards>
-2.4963295325809

> <r_i_glide_evdw>
-37.1578025817871

> <r_i_glide_ecoul>
-0.348800897598267

> <r_i_glide_erotb>
0.414929327971584

> <r_i_glide_esite>
0

> <r_i_glide_emodel>
-51.707069332497

> <r_i_glide_energy>
-37.5066034793854

> <r_i_glide_einternal>
1.03021013736725

> <i_i_glide_confnum>
6

> <i_i_glide_posenum>
61

> <r_i_glide_eff_state_penalty>
0

> <s_user_duplicate_titles>
CHEMBL3717_lig2121

> <s_m_subgroup_title>
dock_pv

> <s_m_subgroupid>
dock_pv

> <b_m_subgroup_collapsed>
1

$$$$
CHEMBL3717_lig2752
                    3D
 Schrodinger Suite 2021-1.
 50 55  0  0  1  0            999 V2000
   -4.7053   -3.9655   32.8776 F   0  0  0  0  0  0
   -5.3136   -3.1530   31.9820 C   0  0  0  0  0  0
   -6.4468   -3.5897   31.2912 C   0  0  0  0  0  0
   -7.1131   -2.7644   30.3791 C   0  0  0  0  0  0
   -6.6363   -1.4709   30.1621 C   0  0  0  0  0  0
   -5.5219   -1.0354   30.8322 N   0  0  0  0  0  0
   -4.8527    0.1723   30.8415 C   0  0  0  0  0  0
   -5.3753    1.5788   29.8931 S   0  0  0  0  0  0
   -4.3106    2.9446   30.3079 C   0  0  0  0  0  0
   -4.8491    4.2282   30.2125 C   0  0  0  0  0  0
   -4.0478    5.3594   30.3441 C   0  0  0  0  0  0
   -2.6584    5.2168   30.5643 C   0  0  0  0  0  0
   -1.8646    6.3201   30.5001 N   0  0  0  0  0  0
   -0.5225    6.1482   30.6079 C   0  0  0  0  0  0
    0.0925    4.9302   30.9030 C   0  0  0  0  0  0
   -0.7189    3.7956   30.9685 C   0  0  0  0  0  0
   -2.1119    3.9106   30.7419 C   0  0  0  0  0  0
   -2.9546    2.7825   30.6080 C   0  0  0  0  0  0
    1.4721    4.8666   31.0229 N   0  0  0  0  0  0
    2.1491    4.0757   32.0628 C   0  0  0  0  0  0
    2.5722    2.6682   31.5875 C   0  0  0  0  0  0
    3.3439    2.7630   30.3985 O   0  0  0  0  0  0
    2.6467    3.4286   29.3483 C   0  0  0  0  0  0
    2.3005    4.8636   29.8078 C   0  0  0  0  0  0
   -3.8276    0.0875   31.6649 N   0  0  0  0  0  0
   -3.7610   -1.1792   32.2096 N   0  0  0  0  0  0
   -4.8266   -1.8583   31.7323 C   0  0  0  0  0  0
   -8.3173   -3.2440   29.6435 C   0  0  0  0  0  0
   -9.3175   -2.4831   29.0085 C   0  0  0  0  0  0
  -10.2456   -3.2090   28.4287 N   0  0  0  0  0  0
   -9.8723   -4.4656   28.6742 N   0  0  0  0  0  0
   -8.7209   -4.5509   29.4085 C   0  0  0  0  0  0
   -6.8060   -4.5908   31.4768 H   0  0  0  0  0  0
   -7.0901   -0.7727   29.4753 H   0  0  0  0  0  0
   -5.8971    4.3562   29.9799 H   0  0  0  0  0  0
   -4.4740    6.3435   30.2062 H   0  0  0  0  0  0
    0.0710    7.0465   30.5156 H   0  0  0  0  0  0
   -0.2938    2.8173   31.1202 H   0  0  0  0  0  0
   -2.4940    1.8102   30.6317 H   0  0  0  0  0  0
    3.0371    4.6243   32.3788 H   0  0  0  0  0  0
    1.5183    4.0124   32.9504 H   0  0  0  0  0  0
    1.7144    2.0182   31.4246 H   0  0  0  0  0  0
    3.1696    2.1813   32.3573 H   0  0  0  0  0  0
    1.7510    2.8723   29.0628 H   0  0  0  0  0  0
    3.2893    3.4596   28.4679 H   0  0  0  0  0  0
    1.8071    5.4180   29.0086 H   0  0  0  0  0  0
    3.2256    5.4015   30.0119 H   0  0  0  0  0  0
   -9.3608   -1.4050   28.9712 H   0  0  0  0  0  0
  -10.4000   -5.2548   28.3304 H   0  0  0  0  0  0
   -8.2951   -5.5073   29.6746 H   0  0  0  0  0  0
  1  2  1  0  0  0
  2  3  2  0  0  0
  2 27  1  0  0  0
  3  4  1  0  0  0
  3 33  1  0  0  0
  4  5  2  0  0  0
  4 28  1  0  0  0
  5  6  1  0  0  0
  5 34  1  0  0  0
  6  7  1  0  0  0
  6 27  1  0  0  0
  7  8  1  0  0  0
  7 25  2  0  0  0
  8  9  1  0  0  0
  9 10  2  0  0  0
  9 18  1  0  0  0
 10 11  1  0  0  0
 10 35  1  0  0  0
 11 12  2  0  0  0
 11 36  1  0  0  0
 12 13  1  0  0  0
 12 17  1  0  0  0
 13 14  2  0  0  0
 14 15  1  0  0  0
 14 37  1  0  0  0
 15 16  2  0  0  0
 15 19  1  0  0  0
 16 17  1  0  0  0
 16 38  1  0  0  0
 17 18  2  0  0  0
 18 39  1  0  0  0
 19 20  1  0  0  0
 19 24  1  0  0  0
 20 21  1  0  0  0
 20 40  1  0  0  0
 20 41  1  0  0  0
 21 22  1  0  0  0
 21 42  1  0  0  0
 21 43  1  0  0  0
 22 23  1  0  0  0
 23 24  1  0  0  0
 23 44  1  0  0  0
 23 45  1  0  0  0
 24 46  1  0  0  0
 24 47  1  0  0  0
 25 26  1  0  0  0
 26 27  2  0  0  0
 28 29  1  0  0  0
 28 32  2  0  0  0
 29 30  2  0  0  0
 29 48  1  0  0  0
 30 31  1  0  0  0
 31 32  1  0  0  0
 31 49  1  0  0  0
 32 50  1  0  0  0
M  END
> <s_m_entry_id>
10435

> <s_m_entry_name>
dock_pv.504

> <s_m_Source_Path>
/home/csk/Desktop/cluster/DUD-E-result/met

> <s_m_Source_File>
dock_pv.maegz

> <i_m_Source_File_Index>
504

> <chembl_id>
CHEMBL3703993

> <chembl_pref_name>
None

> <i_lp_mmshare_version>
53161

> <i_f3d_flags>
0

> <r_lp_tautomer_probability>
0.5

> <s_lp_Force_Field>
OPLS_2005

> <r_lp_Energy>
34.943437

> <b_lp_Chiralities_Consistent>
1

> <s_lp_Variant>
CHEMBL3717_lig2752-1

> <s_i_glide_gridfile>
glide-grid_3lq8

> <i_i_glide_lignum>
3332

> <i_i_glide_rotatable_bonds>
4

> <r_i_docking_score>
-7.21190973415347

> <r_i_glide_ligand_efficiency>
-0.225372179192296

> <r_i_glide_ligand_efficiency_sa>
-0.71551206784184

> <r_i_glide_ligand_efficiency_ln>
-1.6149431787115

> <r_i_glide_gscore>
-7.21190973415347

> <r_i_glide_lipo>
-3.75649598365951

> <r_i_glide_hbond>
0

> <r_i_glide_metal>
0

> <r_i_glide_rewards>
-1.320224923942

> <r_i_glide_evdw>
-45.2411651611328

> <r_i_glide_ecoul>
-1.32747459411621

> <r_i_glide_erotb>
0.40000762789159

> <r_i_glide_esite>
-0.074017007269474

> <r_i_glide_emodel>
-62.2270938970032

> <r_i_glide_energy>
-46.568639755249

> <r_i_glide_einternal>
4.82952642440796

> <i_i_glide_confnum>
4

> <i_i_glide_posenum>
13

> <r_i_glide_eff_state_penalty>
0

> <s_user_duplicate_titles>
CHEMBL3717_lig2752

> <s_m_subgroup_title>
dock_pv

> <s_m_subgroupid>
dock_pv

> <b_m_subgroup_collapsed>
1

$$$$
CHEMBL3717_lig2412
                    3D
 Schrodinger Suite 2021-1.
 43 44  0  0  1  0            999 V2000
   -2.7167    5.2154   30.8890 C   0  0  0  0  0  0
   -1.2579    5.1754   30.9438 C   0  0  0  0  0  0
   -0.5280    4.1656   30.4209 C   0  0  0  0  0  0
   -3.3579    6.2443   31.1020 O   0  0  0  0  0  0
   -3.2554    4.0260   30.5571 O   0  0  0  0  0  0
    0.9339    4.0709   30.4219 C   0  0  0  0  0  0
    1.5546    3.6077   29.2629 C   0  0  0  0  0  0
    2.9529    3.5501   29.1569 C   0  0  0  0  0  0
    3.7259    3.9297   30.2634 C   0  0  0  0  0  0
    3.1051    4.3552   31.4380 C   0  0  0  0  0  0
    1.7164    4.4468   31.5144 C   0  0  0  0  0  0
    3.6043    3.1568   28.0022 O   0  0  0  0  0  0
    2.8601    2.4497   27.0192 C   0  0  0  0  0  0
    5.1209    3.8806   30.2090 N   0  0  0  0  0  0
   -4.6478    3.8029   30.4250 C   0  0  0  0  0  0
   -4.8814    2.5021   29.6212 C   0  0  0  0  0  0
   -4.2616    1.1956   30.1249 C   0  0  0  0  0  0
   -4.5300    0.0279   29.4077 C   0  0  0  0  0  0
   -3.9738   -1.1934   29.7861 C   0  0  0  0  0  0
   -3.1632   -1.2623   30.9246 C   0  0  0  0  0  0
   -2.8949   -0.1077   31.6538 C   0  0  0  0  0  0
   -3.4194    1.1147   31.2402 C   0  0  0  0  0  0
   -2.6022   -2.4432   31.3261 O   0  0  0  0  0  0
   -4.2106   -2.2982   29.0080 O   0  0  0  0  0  0
   -0.7755    6.0206   31.4078 H   0  0  0  0  0  0
   -1.0222    3.3254   29.9503 H   0  0  0  0  0  0
    0.9274    3.3255   28.4306 H   0  0  0  0  0  0
    3.6967    4.6416   32.2933 H   0  0  0  0  0  0
    1.2546    4.8018   32.4245 H   0  0  0  0  0  0
    3.5062    2.1247   26.2081 H   0  0  0  0  0  0
    2.4244    1.5571   27.4539 H   0  0  0  0  0  0
    2.0623    3.0648   26.6059 H   0  0  0  0  0  0
    5.5413    3.5897   29.3340 H   0  0  0  0  0  0
    5.6614    4.3701   30.9045 H   0  0  0  0  0  0
   -5.1094    3.7367   31.4080 H   0  0  0  0  0  0
   -5.1189    4.6400   29.9055 H   0  0  0  0  0  0
   -5.9572    2.3506   29.5209 H   0  0  0  0  0  0
   -4.4940    2.6404   28.6127 H   0  0  0  0  0  0
   -5.1593    0.0712   28.5302 H   0  0  0  0  0  0
   -2.2570   -0.1552   32.5239 H   0  0  0  0  0  0
   -3.1595    1.9905   31.8079 H   0  0  0  0  0  0
   -2.9042   -3.1813   30.7826 H   0  0  0  0  0  0
   -4.4932   -2.0448   28.1147 H   0  0  0  0  0  0
  1  2  1  0  0  0
  1  4  2  0  0  0
  1  5  1  0  0  0
  2  3  2  0  0  0
  2 25  1  0  0  0
  3  6  1  0  0  0
  3 26  1  0  0  0
  5 15  1  0  0  0
  6  7  1  0  0  0
  6 11  2  0  0  0
  7  8  2  0  0  0
  7 27  1  0  0  0
  8  9  1  0  0  0
  8 12  1  0  0  0
  9 10  2  0  0  0
  9 14  1  0  0  0
 10 11  1  0  0  0
 10 28  1  0  0  0
 11 29  1  0  0  0
 12 13  1  0  0  0
 13 30  1  0  0  0
 13 31  1  0  0  0
 13 32  1  0  0  0
 14 33  1  0  0  0
 14 34  1  0  0  0
 15 16  1  0  0  0
 15 35  1  0  0  0
 15 36  1  0  0  0
 16 17  1  0  0  0
 16 37  1  0  0  0
 16 38  1  0  0  0
 17 18  1  0  0  0
 17 22  2  0  0  0
 18 19  2  0  0  0
 18 39  1  0  0  0
 19 20  1  0  0  0
 19 24  1  0  0  0
 20 21  2  0  0  0
 20 23  1  0  0  0
 21 22  1  0  0  0
 21 40  1  0  0  0
 22 41  1  0  0  0
 23 42  1  0  0  0
 24 43  1  0  0  0
M  END
> <s_m_entry_id>
10436

> <s_m_entry_name>
dock_pv.505

> <s_m_Source_Path>
/home/csk/Desktop/cluster/DUD-E-result/met

> <s_m_Source_File>
dock_pv.maegz

> <i_m_Source_File_Index>
505

> <chembl_id>
CHEMBL3823395

> <chembl_pref_name>
None

> <i_lp_mmshare_version>
53161

> <i_f3d_flags>
0

> <r_lp_tautomer_probability>
0.999999999999776

> <s_lp_Force_Field>
OPLS_2005

> <r_lp_Energy>
15.948868

> <b_lp_Chiralities_Consistent>
1

> <s_lp_Variant>
CHEMBL3717_lig2412-1

> <s_i_glide_gridfile>
glide-grid_3lq8

> <i_i_glide_lignum>
2738

> <i_i_glide_rotatable_bonds>
9

> <r_i_docking_score>
-7.21007571912422

> <r_i_glide_ligand_efficiency>
-0.300419821630176

> <r_i_glide_ligand_efficiency_sa>
-0.866560716397906

> <r_i_glide_ligand_efficiency_ln>
-1.72570196840278

> <r_i_glide_gscore>
-7.21007571912422

> <r_i_glide_lipo>
-3.40434703004518

> <r_i_glide_hbond>
-0.0360486904310571

> <r_i_glide_metal>
0

> <r_i_glide_rewards>
-2.16354194699923

> <r_i_glide_evdw>
-39.7034606933594

> <r_i_glide_ecoul>
-4.40358400344849

> <r_i_glide_erotb>
1.03957258353649

> <r_i_glide_esite>
0

> <r_i_glide_emodel>
-59.54580683971

> <r_i_glide_energy>
-44.1070446968079

> <r_i_glide_einternal>
8.04440784454346

> <i_i_glide_confnum>
20

> <i_i_glide_posenum>
241

> <r_i_glide_eff_state_penalty>
0

> <s_user_duplicate_titles>
CHEMBL3717_lig2412

> <s_m_subgroup_title>
dock_pv

> <s_m_subgroupid>
dock_pv

> <b_m_subgroup_collapsed>
1

$$$$
CHEMBL3717_lig2906
                    3D
 Schrodinger Suite 2021-1.
 49 52  0  0  1  0            999 V2000
   -8.5167    3.2577   29.8054 C   0  0  0  0  0  0
   -7.5825    3.8745   30.8377 C   0  0  0  0  0  0
   -8.2905    4.7567   29.8216 C   0  0  0  0  0  0
    1.9333    4.1836   31.1411 C   0  0  0  0  0  0
    2.7826    3.2176   30.5887 C   0  0  0  0  0  0
    2.9177    3.0356   29.2530 N   0  0  0  0  0  0
    2.1702    3.7996   28.4223 C   0  0  0  0  0  0
    1.2615    4.7442   28.8918 C   0  0  0  0  0  0
    1.1242    4.9245   30.2688 C   0  0  0  0  0  0
    0.1687    5.7900   30.7423 O   0  0  0  0  0  0
   -1.1675    5.4565   30.6113 C   0  0  0  0  0  0
   -1.6371    4.1379   30.7164 C   0  0  0  0  0  0
   -3.0015    3.8573   30.6099 C   0  0  0  0  0  0
   -3.9305    4.9019   30.4683 C   0  0  0  0  0  0
   -3.4595    6.2071   30.3454 C   0  0  0  0  0  0
   -2.0923    6.4782   30.3808 C   0  0  0  0  0  0
   -1.6688    7.7495   30.2080 F   0  0  0  0  0  0
   -5.3295    4.7600   30.4918 N   0  0  0  0  0  0
   -6.0824    3.6478   30.6079 C   0  0  0  0  0  0
   -5.6493    2.4965   30.6071 O   0  0  0  0  0  0
   -8.1121    3.9519   32.2788 C   0  0  0  0  0  0
   -8.5876    2.7983   32.7922 N   0  0  0  0  0  0
   -7.9794    5.0001   32.9151 O   0  0  0  0  0  0
    3.5060    2.3569   31.4079 N   0  0  0  0  0  0
   -9.1029    2.5604   34.0766 C   0  0  0  0  0  0
   -9.0721    1.2407   34.5370 C   0  0  0  0  0  0
   -9.5565    0.9237   35.8067 C   0  0  0  0  0  0
  -10.0852    1.9245   36.6219 C   0  0  0  0  0  0
  -10.1332    3.2400   36.1650 C   0  0  0  0  0  0
   -9.6573    3.5574   34.8943 C   0  0  0  0  0  0
    1.8918    4.4584   32.8524 Cl  0  0  0  0  0  0
  -10.6369    4.2145   36.9543 F   0  0  0  0  0  0
   -8.0945    2.6648   28.9922 H   0  0  0  0  0  0
   -9.4939    2.8777   30.1090 H   0  0  0  0  0  0
   -9.1004    5.4110   30.1520 H   0  0  0  0  0  0
   -7.7246    5.2121   29.0078 H   0  0  0  0  0  0
    2.2931    3.6247   27.3629 H   0  0  0  0  0  0
    0.6637    5.3235   28.2083 H   0  0  0  0  0  0
   -0.9465    3.3239   30.8826 H   0  0  0  0  0  0
   -3.3100    2.8289   30.7090 H   0  0  0  0  0  0
   -4.1570    7.0217   30.2174 H   0  0  0  0  0  0
   -5.8429    5.6280   30.4479 H   0  0  0  0  0  0
   -8.4784    1.9786   32.2142 H   0  0  0  0  0  0
    3.3474    2.3944   32.4035 H   0  0  0  0  0  0
    4.0510    1.6225   30.9835 H   0  0  0  0  0  0
   -8.6489    0.4550   33.9274 H   0  0  0  0  0  0
   -9.5106   -0.0957   36.1612 H   0  0  0  0  0  0
  -10.4472    1.6837   37.6109 H   0  0  0  0  0  0
   -9.7339    4.5799   34.5589 H   0  0  0  0  0  0
  1  2  1  0  0  0
  1  3  1  0  0  0
  1 33  1  0  0  0
  1 34  1  0  0  0
  2  3  1  0  0  0
  2 19  1  0  0  0
  2 21  1  0  0  0
  3 35  1  0  0  0
  3 36  1  0  0  0
  4  5  2  0  0  0
  4  9  1  0  0  0
  4 31  1  0  0  0
  5  6  1  0  0  0
  5 24  1  0  0  0
  6  7  2  0  0  0
  7  8  1  0  0  0
  7 37  1  0  0  0
  8  9  2  0  0  0
  8 38  1  0  0  0
  9 10  1  0  0  0
 10 11  1  0  0  0
 11 12  2  0  0  0
 11 16  1  0  0  0
 12 13  1  0  0  0
 12 39  1  0  0  0
 13 14  2  0  0  0
 13 40  1  0  0  0
 14 15  1  0  0  0
 14 18  1  0  0  0
 15 16  2  0  0  0
 15 41  1  0  0  0
 16 17  1  0  0  0
 18 19  1  0  0  0
 18 42  1  0  0  0
 19 20  2  0  0  0
 21 22  1  0  0  0
 21 23  2  0  0  0
 22 25  1  0  0  0
 22 43  1  0  0  0
 24 44  1  0  0  0
 24 45  1  0  0  0
 25 26  2  0  0  0
 25 30  1  0  0  0
 26 27  1  0  0  0
 26 46  1  0  0  0
 27 28  2  0  0  0
 27 47  1  0  0  0
 28 29  1  0  0  0
 28 48  1  0  0  0
 29 30  2  0  0  0
 29 32  1  0  0  0
 30 49  1  0  0  0
M  END
> <s_m_entry_id>
10437

> <s_m_entry_name>
dock_pv.506

> <s_m_Source_Path>
/home/csk/Desktop/cluster/DUD-E-result/met

> <s_m_Source_File>
dock_pv.maegz

> <i_m_Source_File_Index>
506

> <chembl_id>
CHEMBL4067036

> <chembl_pref_name>
None

> <i_lp_mmshare_version>
53161

> <i_f3d_flags>
0

> <r_lp_tautomer_probability>
0.999999586418856

> <s_lp_Force_Field>
OPLS_2005

> <r_lp_Energy>
37.291235

> <b_lp_Chiralities_Consistent>
1

> <s_lp_Variant>
CHEMBL3717_lig2906-1

> <s_i_glide_gridfile>
glide-grid_3lq8

> <i_i_glide_lignum>
3573

> <i_i_glide_rotatable_bonds>
8

> <r_i_docking_score>
-7.20579608964501

> <r_i_glide_ligand_efficiency>
-0.225181127801407

> <r_i_glide_ligand_efficiency_sa>
-0.714905517484786

> <r_i_glide_ligand_efficiency_ln>
-1.6135741670544

> <r_i_glide_gscore>
-7.20579608964501

> <r_i_glide_lipo>
-3.5661323635328

> <r_i_glide_hbond>
-0.32

> <r_i_glide_metal>
0

> <r_i_glide_rewards>
-1.08992338436342

> <r_i_glide_evdw>
-47.5296821594238

> <r_i_glide_ecoul>
-4.11745262145996

> <r_i_glide_erotb>
0.764361659441389

> <r_i_glide_esite>
0

> <r_i_glide_emodel>
-66.1211470617816

> <r_i_glide_energy>
-51.6471347808838

> <r_i_glide_einternal>
11.7173871994019

> <i_i_glide_confnum>
1

> <i_i_glide_posenum>
11

> <r_i_glide_eff_state_penalty>
0

> <s_user_duplicate_titles>
CHEMBL3717_lig2906

> <s_m_subgroup_title>
dock_pv

> <s_m_subgroupid>
dock_pv

> <b_m_subgroup_collapsed>
1

$$$$
CHEMBL3717_lig1379
                    3D
 Schrodinger Suite 2021-1.
 37 40  0  0  1  0            999 V2000
    3.4988    2.6176   31.0666 C   0  0  0  0  0  0
    4.2351    3.6028   30.4034 C   0  0  0  0  0  0
    3.5969    4.7570   29.9494 C   0  0  0  0  0  0
    2.1261    2.7695   31.2654 C   0  0  0  0  0  0
    1.4874    3.9130   30.7808 C   0  0  0  0  0  0
    2.2251    4.8924   30.1622 C   0  0  0  0  0  0
    1.3734    5.9068   29.8081 N   0  0  0  0  0  0
    0.0913    5.6413   30.0900 C   0  0  0  0  0  0
    0.0832    4.3083   30.6840 C   0  0  0  0  0  0
   -0.8291    6.4155   29.8420 O   0  0  0  0  0  0
   -0.9985    3.5596   31.0092 C   0  0  0  0  0  0
   -2.4426    3.6908   30.8163 C   0  0  0  0  0  0
   -3.2145    4.8315   30.6126 C   0  0  0  0  0  0
   -4.4951    4.4108   30.4216 N   0  0  0  0  0  0
   -4.6210    3.0937   30.5334 N   0  0  0  0  0  0
   -3.4090    2.6381   30.7954 C   0  0  0  0  0  0
   -3.2343    1.1577   31.0644 C   0  0  0  0  0  0
   -3.8308    0.1541   30.2682 C   0  0  0  0  0  0
   -3.6552   -1.1971   30.5936 C   0  0  0  0  0  0
   -2.8959   -1.5690   31.6999 C   0  0  0  0  0  0
   -2.3181   -0.5907   32.5043 C   0  0  0  0  0  0
   -2.4941    0.7573   32.1943 C   0  0  0  0  0  0
   -4.6335    0.4933   29.0839 N   0  3  0  0  0  0
   -4.0939    1.1564   28.2083 O   0  0  0  0  0  0
   -5.7983    0.1094   29.0475 O   0  5  0  0  0  0
    3.9912    1.7189   31.4079 H   0  0  0  0  0  0
    5.2935    3.4682   30.2340 H   0  0  0  0  0  0
    4.1662    5.5158   29.4315 H   0  0  0  0  0  0
    1.5728    1.9789   31.7499 H   0  0  0  0  0  0
    1.6605    6.7771   29.3903 H   0  0  0  0  0  0
   -0.7563    2.6247   31.4756 H   0  0  0  0  0  0
   -2.9858    5.8842   30.5669 H   0  0  0  0  0  0
   -5.2840    5.0121   30.2228 H   0  0  0  0  0  0
   -4.1030   -1.9661   29.9782 H   0  0  0  0  0  0
   -2.7620   -2.6167   31.9316 H   0  0  0  0  0  0
   -1.7360   -0.8760   33.3680 H   0  0  0  0  0  0
   -2.0633    1.4984   32.8503 H   0  0  0  0  0  0
  1  2  2  0  0  0
  1  4  1  0  0  0
  1 26  1  0  0  0
  2  3  1  0  0  0
  2 27  1  0  0  0
  3  6  2  0  0  0
  3 28  1  0  0  0
  4  5  2  0  0  0
  4 29  1  0  0  0
  5  6  1  0  0  0
  5  9  1  0  0  0
  6  7  1  0  0  0
  7  8  1  0  0  0
  7 30  1  0  0  0
  8  9  1  0  0  0
  8 10  2  0  0  0
  9 11  2  0  0  0
 11 12  1  0  0  0
 11 31  1  0  0  0
 12 13  2  0  0  0
 12 16  1  0  0  0
 13 14  1  0  0  0
 13 32  1  0  0  0
 14 15  1  0  0  0
 14 33  1  0  0  0
 15 16  2  0  0  0
 16 17  1  0  0  0
 17 18  2  0  0  0
 17 22  1  0  0  0
 18 19  1  0  0  0
 18 23  1  0  0  0
 19 20  2  0  0  0
 19 34  1  0  0  0
 20 21  1  0  0  0
 20 35  1  0  0  0
 21 22  2  0  0  0
 21 36  1  0  0  0
 22 37  1  0  0  0
 23 24  2  0  0  0
 23 25  1  0  0  0
M  CHG  2  23   1  25  -1
M  END
> <s_m_entry_id>
10438

> <s_m_entry_name>
dock_pv.507

> <s_m_Source_Path>
/home/csk/Desktop/cluster/DUD-E-result/met

> <s_m_Source_File>
dock_pv.maegz

> <i_m_Source_File_Index>
507

> <chembl_id>
CHEMBL2347053

> <chembl_pref_name>
None

> <i_lp_mmshare_version>
53161

> <i_f3d_flags>
0

> <r_lp_tautomer_probability>
1

> <s_lp_Force_Field>
OPLS_2005

> <r_lp_Energy>
42.920421

> <b_lp_Chiralities_Consistent>
1

> <s_lp_Variant>
CHEMBL3717_lig1379-1

> <s_i_glide_gridfile>
glide-grid_3lq8

> <i_i_glide_lignum>
1571

> <i_i_glide_rotatable_bonds>
3

> <r_i_docking_score>
-7.20480432912463

> <r_i_glide_ligand_efficiency>
-0.288192173164985

> <r_i_glide_ligand_efficiency_sa>
-0.842679025444371

> <r_i_glide_ligand_efficiency_ln>
-1.70775453656537

> <r_i_glide_gscore>
-7.20480432912463

> <r_i_glide_lipo>
-3.5455803366961

> <r_i_glide_hbond>
0

> <r_i_glide_metal>
0

> <r_i_glide_rewards>
-2.04761612849152

> <r_i_glide_evdw>
-33.6370315551758

> <r_i_glide_ecoul>
-1.20674026012421

> <r_i_glide_erotb>
0.341075662199762

> <r_i_glide_esite>
-0.089820909359353

> <r_i_glide_emodel>
-48.6226368706403

> <r_i_glide_energy>
-34.8437718153

> <r_i_glide_einternal>
0.232083857059479

> <i_i_glide_confnum>
2

> <i_i_glide_posenum>
109

> <r_i_glide_eff_state_penalty>
0

> <s_user_duplicate_titles>
CHEMBL3717_lig1379

> <s_m_subgroup_title>
dock_pv

> <s_m_subgroupid>
dock_pv

> <b_m_subgroup_collapsed>
1

$$$$
CHEMBL3717_lig1467
                    3D
 Schrodinger Suite 2021-1.
 55 59  0  0  1  0            999 V2000
  -10.1486   -0.0627   27.3617 C   0  0  0  0  0  0
  -10.2305   -0.3081   28.7293 C   0  0  0  0  0  0
   -9.8607    0.6814   29.6474 C   0  0  0  0  0  0
   -9.3803    1.9251   29.1908 C   0  0  0  0  0  0
   -9.2941    2.1423   27.8080 C   0  0  0  0  0  0
   -9.6708    1.1579   26.8974 C   0  0  0  0  0  0
   -9.0169    3.0382   30.1916 C   0  0  1  0  0  0
   -7.9507    2.6555   31.0692 O   0  0  0  0  0  0
   -8.8211    4.4458   29.6021 C   0  0  0  0  0  0
   -6.6507    2.5491   30.6077 C   0  0  0  0  0  0
   -6.0100    1.3258   30.3703 C   0  0  0  0  0  0
   -4.6784    1.2056   30.1447 N   0  0  0  0  0  0
   -3.8897    2.3074   30.2055 C   0  0  0  0  0  0
   -6.7238    0.1381   30.4065 N   0  0  0  0  0  0
   -5.8112    3.6799   30.6081 C   0  0  0  0  0  0
   -4.4096    3.5861   30.4412 C   0  0  0  0  0  0
   -3.8927    4.9148   30.6084 C   0  0  0  0  0  0
   -5.0156    5.6968   30.8300 C   0  0  0  0  0  0
   -6.1681    4.9705   30.8708 O   0  0  0  0  0  0
   -2.5169    5.3699   30.6058 C   0  0  0  0  0  0
   -1.3708    4.6657   30.9324 C   0  0  0  0  0  0
   -0.3084    5.5108   30.7016 N   0  0  0  0  0  0
   -0.7142    6.6867   30.2028 N   0  0  0  0  0  0
   -2.0239    6.6197   30.2080 C   0  0  0  0  0  0
    1.1288    5.2064   30.6884 C   0  0  0  0  0  0
    1.5059    4.3564   31.9228 C   0  0  0  0  0  0
    2.9192    3.7618   31.8076 C   0  0  0  0  0  0
    3.0460    2.9818   30.5797 N   0  0  2  0  0  0
    2.8682    3.8254   29.3985 C   0  0  0  0  0  0
    1.4463    4.4249   29.3887 C   0  0  0  0  0  0
  -10.6753   -1.5118   29.1599 F   0  0  0  0  0  0
  -10.0236    0.3446   31.3404 Cl  0  0  0  0  0  0
  -10.4569   -0.8235   26.6606 H   0  0  0  0  0  0
   -8.9325    3.0790   27.4132 H   0  0  0  0  0  0
   -9.5927    1.3466   25.8363 H   0  0  0  0  0  0
   -9.8900    3.1280   30.8394 H   0  0  0  0  0  0
   -9.6862    4.7543   29.0158 H   0  0  0  0  0  0
   -8.7018    5.1852   30.3938 H   0  0  0  0  0  0
   -7.9447    4.5064   28.9589 H   0  0  0  0  0  0
   -2.8321    2.1514   30.0727 H   0  0  0  0  0  0
   -7.7039    0.1735   30.6467 H   0  0  0  0  0  0
   -6.2361   -0.7326   30.2621 H   0  0  0  0  0  0
   -5.1371    6.7559   31.0043 H   0  0  0  0  0  0
   -1.2239    3.6470   31.2545 H   0  0  0  0  0  0
   -2.6151    7.4512   29.8639 H   0  0  0  0  0  0
    1.6590    6.1620   30.6996 H   0  0  0  0  0  0
    1.5229    5.0239   32.7856 H   0  0  0  0  0  0
    0.7731    3.6007   32.1996 H   0  0  0  0  0  0
    3.6802    4.5435   31.8336 H   0  0  0  0  0  0
    3.1053    3.0970   32.6523 H   0  0  0  0  0  0
    2.3018    2.2973   30.5659 H   0  0  0  0  0  0
    3.6262    4.6110   29.3800 H   0  0  0  0  0  0
    3.0253    3.2088   28.5111 H   0  0  0  0  0  0
    0.6848    3.6906   29.1165 H   0  0  0  0  0  0
    1.4255    5.1370   28.5630 H   0  0  0  0  0  0
  1  2  2  0  0  0
  1  6  1  0  0  0
  1 33  1  0  0  0
  2  3  1  0  0  0
  2 31  1  0  0  0
  3  4  2  0  0  0
  3 32  1  0  0  0
  4  5  1  0  0  0
  4  7  1  0  0  0
  5  6  2  0  0  0
  5 34  1  0  0  0
  6 35  1  0  0  0
  7  8  1  0  0  0
  7  9  1  0  0  0
  7 36  1  0  0  0
  8 10  1  0  0  0
  9 37  1  0  0  0
  9 38  1  0  0  0
  9 39  1  0  0  0
 10 11  2  0  0  0
 10 15  1  0  0  0
 11 12  1  0  0  0
 11 14  1  0  0  0
 12 13  2  0  0  0
 13 16  1  0  0  0
 13 40  1  0  0  0
 14 41  1  0  0  0
 14 42  1  0  0  0
 15 16  2  0  0  0
 15 19  1  0  0  0
 16 17  1  0  0  0
 17 18  2  0  0  0
 17 20  1  0  0  0
 18 19  1  0  0  0
 18 43  1  0  0  0
 20 21  2  0  0  0
 20 24  1  0  0  0
 21 22  1  0  0  0
 21 44  1  0  0  0
 22 23  1  0  0  0
 22 25  1  0  0  0
 23 24  2  0  0  0
 24 45  1  0  0  0
 25 26  1  0  0  0
 25 30  1  0  0  0
 25 46  1  0  0  0
 26 27  1  0  0  0
 26 47  1  0  0  0
 26 48  1  0  0  0
 27 28  1  0  0  0
 27 49  1  0  0  0
 27 50  1  0  0  0
 28 29  1  0  0  0
 28 51  1  0  0  0
 29 30  1  0  0  0
 29 52  1  0  0  0
 29 53  1  0  0  0
 30 54  1  0  0  0
 30 55  1  0  0  0
M  END
> <s_m_entry_id>
10439

> <s_m_entry_name>
dock_pv.508

> <s_m_Source_Path>
/home/csk/Desktop/cluster/DUD-E-result/met

> <s_m_Source_File>
dock_pv.maegz

> <i_m_Source_File_Index>
508

> <chembl_id>
CHEMBL2401807

> <chembl_pref_name>
None

> <i_lp_mmshare_version>
53161

> <i_f3d_flags>
0

> <r_lp_tautomer_probability>
1

> <s_lp_Force_Field>
OPLS_2005

> <r_lp_Energy>
36.126186

> <b_lp_Chiralities_Consistent>
1

> <s_lp_Variant>
CHEMBL3717_lig1467-2

> <s_i_glide_gridfile>
glide-grid_3lq8

> <i_i_glide_lignum>
1686

> <i_i_glide_rotatable_bonds>
5

> <r_i_docking_score>
-7.20425186959175

> <r_i_glide_ligand_efficiency>
-0.225132870924742

> <r_i_glide_ligand_efficiency_sa>
-0.714752311451399

> <r_i_glide_ligand_efficiency_ln>
-1.61322837409063

> <r_i_glide_gscore>
-7.20425186959175

> <r_i_glide_lipo>
-4.29403974954544

> <r_i_glide_hbond>
0

> <r_i_glide_metal>
0

> <r_i_glide_rewards>
-1.03207109184055

> <r_i_glide_evdw>
-47.7143402099609

> <r_i_glide_ecoul>
0.161602407693863

> <r_i_glide_erotb>
0.483335621138206

> <r_i_glide_esite>
0

> <r_i_glide_emodel>
-61.2925777630606

> <r_i_glide_energy>
-47.5527378022671

> <r_i_glide_einternal>
7.53706359863281

> <i_i_glide_confnum>
8

> <i_i_glide_posenum>
43

> <r_i_glide_eff_state_penalty>
0

> <s_user_duplicate_titles>
CHEMBL3717_lig1467

> <s_m_subgroup_title>
dock_pv

> <s_m_subgroupid>
dock_pv

> <b_m_subgroup_collapsed>
1

$$$$
CHEMBL3717_lig3713
                    3D
 Schrodinger Suite 2021-1.
 42 45  0  0  1  0            999 V2000
   -5.6327    5.9567   30.6218 Cl  0  0  0  0  0  0
    4.5964    3.1632   30.2102 O   0  0  0  0  0  0
   -2.2048    3.1086   30.7816 N   0  0  0  0  0  0
   -4.0269   -0.9647   29.9605 N   0  0  0  0  0  0
   -3.0427    5.3613   30.7522 N   0  0  0  0  0  0
   -2.6464   -2.1752   31.5584 N   0  0  0  0  0  0
   -0.7382    4.9797   30.9396 N   0  0  0  0  0  0
   -3.5869    1.1646   30.5905 C   0  0  0  0  0  0
   -2.9215    0.2635   31.4885 C   0  0  0  0  0  0
   -3.4695    2.6416   30.6075 C   0  0  0  0  0  0
   -3.1709   -1.0606   31.0350 C   0  0  0  0  0  0
   -4.3002    0.3616   29.7125 C   0  0  0  0  0  0
   -2.0348    4.4538   30.8231 C   0  0  0  0  0  0
   -4.5636    3.4999   30.5009 C   0  0  0  0  0  0
   -4.3035    4.8673   30.6080 C   0  0  0  0  0  0
   -2.0941    0.4143   32.6109 C   0  0  0  0  0  0
    0.4737    4.1587   30.8396 C   0  0  2  0  0  0
   -1.5123   -0.7264   33.1604 C   0  0  0  0  0  0
   -1.8038   -1.9698   32.6068 C   0  0  0  0  0  0
    1.5223    4.7367   31.7989 C   0  0  0  0  0  0
    1.0012    4.1575   29.3847 C   0  0  0  0  0  0
    3.4115    3.9349   30.2599 C   0  0  2  0  0  0
    2.8538    3.9652   31.7009 C   0  0  0  0  0  0
    2.3588    3.4300   29.2492 C   0  0  0  0  0  0
    4.8158    2.9732   29.2924 H   0  0  0  0  0  0
   -4.3843   -1.7179   29.3863 H   0  0  0  0  0  0
   -0.6409    5.9775   30.8316 H   0  0  0  0  0  0
   -4.9293    0.6226   28.8726 H   0  0  0  0  0  0
   -5.5688    3.1215   30.3970 H   0  0  0  0  0  0
   -1.8656    1.3928   33.0054 H   0  0  0  0  0  0
    0.2480    3.1321   31.1304 H   0  0  0  0  0  0
   -0.8413   -0.6496   34.0020 H   0  0  0  0  0  0
   -1.3338   -2.8430   33.0262 H   0  0  0  0  0  0
    1.6890    5.7855   31.5514 H   0  0  0  0  0  0
    1.1566    4.7098   32.8265 H   0  0  0  0  0  0
    0.2905    3.6646   28.7244 H   0  0  0  0  0  0
    1.1009    5.1815   29.0196 H   0  0  0  0  0  0
    3.7121    4.9507   29.9951 H   0  0  0  0  0  0
    2.7121    2.9440   32.0613 H   0  0  0  0  0  0
    3.5842    4.4213   32.3674 H   0  0  0  0  0  0
    2.2073    2.3585   29.3887 H   0  0  0  0  0  0
    2.7334    3.5476   28.2315 H   0  0  0  0  0  0
  1 15  1  0  0  0
  2 22  1  0  0  0
  2 25  1  0  0  0
  3 10  2  0  0  0
  3 13  1  0  0  0
  4 11  1  0  0  0
  4 12  1  0  0  0
  4 26  1  0  0  0
  5 13  2  0  0  0
  5 15  1  0  0  0
  6 11  2  0  0  0
  6 19  1  0  0  0
  7 13  1  0  0  0
  7 17  1  0  0  0
  7 27  1  0  0  0
  8  9  1  0  0  0
  8 10  1  0  0  0
  8 12  2  0  0  0
  9 11  1  0  0  0
  9 16  2  0  0  0
 10 14  1  0  0  0
 12 28  1  0  0  0
 14 15  2  0  0  0
 14 29  1  0  0  0
 16 18  1  0  0  0
 16 30  1  0  0  0
 17 20  1  0  0  0
 17 21  1  0  0  0
 17 31  1  0  0  0
 18 19  2  0  0  0
 18 32  1  0  0  0
 19 33  1  0  0  0
 20 23  1  0  0  0
 20 34  1  0  0  0
 20 35  1  0  0  0
 21 24  1  0  0  0
 21 36  1  0  0  0
 21 37  1  0  0  0
 22 23  1  0  0  0
 22 24  1  0  0  0
 22 38  1  0  0  0
 23 39  1  0  0  0
 23 40  1  0  0  0
 24 41  1  0  0  0
 24 42  1  0  0  0
M  END
> <s_m_entry_id>
10440

> <s_m_entry_name>
dock_pv.509

> <s_m_Source_Path>
/home/csk/Desktop/cluster/DUD-E-result/met

> <s_m_Source_File>
dock_pv.maegz

> <i_m_Source_File_Index>
509

> <chembl_id>
CHEMBL1986943

> <chembl_pref_name>
None

> <i_lp_mmshare_version>
53161

> <i_f3d_flags>
0

> <r_lp_tautomer_probability>
0.999998420164496

> <s_lp_Force_Field>
OPLS_2005

> <r_lp_Energy>
2.088888

> <b_lp_Chiralities_Consistent>
1

> <s_lp_Variant>
CHEMBL3717_lig3713-1

> <s_i_glide_gridfile>
glide-grid_3lq8

> <i_i_glide_lignum>
4674

> <i_i_glide_rotatable_bonds>
4

> <r_i_docking_score>
-7.20347678188988

> <r_i_glide_ligand_efficiency>
-0.300144865912079

> <r_i_glide_ligand_efficiency_sa>
-0.865767606866188

> <r_i_glide_ligand_efficiency_ln>
-1.7241225399171

> <r_i_glide_gscore>
-7.20347678188988

> <r_i_glide_lipo>
-3.41933832945527

> <r_i_glide_hbond>
-0.072555901969487

> <r_i_glide_metal>
0

> <r_i_glide_rewards>
-1.69078760368405

> <r_i_glide_evdw>
-43.1290092468262

> <r_i_glide_ecoul>
-2.28431606292725

> <r_i_glide_erotb>
0.481693526222459

> <r_i_glide_esite>
-0.00339060122314494

> <r_i_glide_emodel>
-61.7478833006947

> <r_i_glide_energy>
-45.4133253097534

> <r_i_glide_einternal>
3.93744206428528

> <i_i_glide_confnum>
4

> <i_i_glide_posenum>
153

> <r_i_glide_eff_state_penalty>
0

> <s_user_duplicate_titles>
CHEMBL3717_lig3713

> <s_m_subgroup_title>
dock_pv

> <s_m_subgroupid>
dock_pv

> <b_m_subgroup_collapsed>
1

$$$$
CHEMBL3717_lig1691
                    3D
 Schrodinger Suite 2021-1.
 59 62  0  0  1  0            999 V2000
   -2.0254    4.4850   30.7828 C   0  0  0  0  0  0
   -2.9982    5.4653   30.6038 C   0  0  0  0  0  0
   -2.5740    6.7632   30.3472 C   0  0  0  0  0  0
   -1.2181    7.0583   30.2080 C   0  0  0  0  0  0
   -4.3797    5.1985   30.6080 N   0  0  0  0  0  0
   -5.1257    4.0260   30.4095 C   0  0  0  0  0  0
   -4.5038    2.8343   30.2081 N   0  0  0  0  0  0
   -5.2773    1.7300   30.0332 C   0  0  0  0  0  0
   -6.6765    1.8265   30.0129 C   0  0  0  0  0  0
   -7.2348    3.0954   30.2082 C   0  0  0  0  0  0
   -6.4685    4.1974   30.4159 N   0  0  0  0  0  0
   -7.6961    0.4451   29.7726 Cl  0  0  0  0  0  0
   -4.6608    0.4672   29.9512 N   0  0  0  0  0  0
   -3.6816   -0.1584   30.7581 C   0  0  0  0  0  0
   -3.3837   -1.5359   30.6208 C   0  0  0  0  0  0
   -2.4337   -2.1222   31.4762 C   0  0  0  0  0  0
   -1.8051   -1.3831   32.4730 C   0  0  0  0  0  0
   -2.0940   -0.0316   32.6080 C   0  0  0  0  0  0
   -2.9920    0.5726   31.7313 C   0  0  0  0  0  0
   -4.0730   -2.4069   29.5974 C   0  0  0  0  0  0
   -3.2662   -3.2429   28.9237 N   0  0  0  0  0  0
   -3.6940   -4.1598   27.8818 C   0  0  0  0  0  0
   -5.2858   -2.3092   29.4048 O   0  0  0  0  0  0
   -0.2364    6.0656   30.3243 C   0  0  0  0  0  0
   -0.6628    4.7514   30.6080 C   0  0  0  0  0  0
    0.2836    3.5672   30.5415 C   0  0  2  0  0  0
    1.2446    6.4676   30.2410 C   0  0  0  0  0  0
    1.6288    3.7136   31.2797 C   0  0  0  0  0  0
    2.3214    5.4842   29.7032 C   0  0  0  0  0  0
    2.7131    4.3805   30.5729 N   0  0  2  0  0  0
    0.3713    3.1570   29.0607 C   0  0  0  0  0  0
    3.6793    3.4742   29.9568 C   0  0  0  0  0  0
   -8.5795    3.2417   30.1989 F   0  0  0  0  0  0
   -2.3127    3.4700   30.9851 H   0  0  0  0  0  0
   -3.2976    7.5553   30.2467 H   0  0  0  0  0  0
   -0.9268    8.0812   30.0164 H   0  0  0  0  0  0
   -4.9682    6.0172   30.6451 H   0  0  0  0  0  0
   -5.2381   -0.2249   29.4863 H   0  0  0  0  0  0
   -2.1997   -3.1750   31.3974 H   0  0  0  0  0  0
   -1.0893   -1.8565   33.1297 H   0  0  0  0  0  0
   -1.5963    0.5568   33.3649 H   0  0  0  0  0  0
   -3.1539    1.6294   31.8081 H   0  0  0  0  0  0
   -2.3232   -3.3696   29.2567 H   0  0  0  0  0  0
   -2.9741   -4.9738   27.8069 H   0  0  0  0  0  0
   -3.7410   -3.6497   26.9188 H   0  0  0  0  0  0
   -4.6654   -4.5970   28.1129 H   0  0  0  0  0  0
   -0.2165    2.7570   31.0674 H   0  0  0  0  0  0
    1.2938    7.3766   29.6421 H   0  0  0  0  0  0
    1.5060    6.7570   31.2548 H   0  0  0  0  0  0
    1.9734    2.7751   31.7177 H   0  0  0  0  0  0
    1.4152    4.3402   32.1473 H   0  0  0  0  0  0
    2.0061    5.1360   28.7295 H   0  0  0  0  0  0
    3.2508    5.9570   29.4080 H   0  0  0  0  0  0
   -0.5878    2.7570   28.7613 H   0  0  0  0  0  0
    0.5258    3.9616   28.3528 H   0  0  0  0  0  0
    1.1215    2.3880   28.8825 H   0  0  0  0  0  0
    4.0349    2.7368   30.6771 H   0  0  0  0  0  0
    3.2540    2.9419   29.1062 H   0  0  0  0  0  0
    4.5520    4.0245   29.6019 H   0  0  0  0  0  0
  1 25  2  0  0  0
  1  2  1  0  0  0
  1 34  1  0  0  0
  2  3  2  0  0  0
  2  5  1  0  0  0
  3  4  1  0  0  0
  3 35  1  0  0  0
  4 24  2  0  0  0
  4 36  1  0  0  0
  5  6  1  0  0  0
  5 37  1  0  0  0
  6  7  2  0  0  0
  6 11  1  0  0  0
  7  8  1  0  0  0
  8  9  2  0  0  0
  8 13  1  0  0  0
  9 10  1  0  0  0
  9 12  1  0  0  0
 10 11  2  0  0  0
 10 33  1  0  0  0
 13 14  1  0  0  0
 13 38  1  0  0  0
 14 15  2  0  0  0
 14 19  1  0  0  0
 15 16  1  0  0  0
 15 20  1  0  0  0
 16 17  2  0  0  0
 16 39  1  0  0  0
 17 18  1  0  0  0
 17 40  1  0  0  0
 18 19  2  0  0  0
 18 41  1  0  0  0
 19 42  1  0  0  0
 20 21  1  0  0  0
 20 23  2  0  0  0
 21 22  1  0  0  0
 21 43  1  0  0  0
 22 44  1  0  0  0
 22 45  1  0  0  0
 22 46  1  0  0  0
 24 25  1  0  0  0
 24 27  1  0  0  0
 25 26  1  0  0  0
 26 28  1  0  0  0
 26 31  1  0  0  0
 26 47  1  0  0  0
 27 29  1  0  0  0
 27 48  1  0  0  0
 27 49  1  0  0  0
 28 30  1  0  0  0
 28 50  1  0  0  0
 28 51  1  0  0  0
 29 30  1  0  0  0
 29 52  1  0  0  0
 29 53  1  0  0  0
 30 32  1  0  0  0
 31 54  1  0  0  0
 31 55  1  0  0  0
 31 56  1  0  0  0
 32 57  1  0  0  0
 32 58  1  0  0  0
 32 59  1  0  0  0
M  END
> <s_m_entry_id>
10441

> <s_m_entry_name>
dock_pv.510

> <s_m_Source_Path>
/home/csk/Desktop/cluster/DUD-E-result/met

> <s_m_Source_File>
dock_pv.maegz

> <i_m_Source_File_Index>
510

> <chembl_id>
CHEMBL3263983

> <chembl_pref_name>
None

> <i_lp_mmshare_version>
53161

> <i_f3d_flags>
0

> <r_lp_tautomer_probability>
0.999999624730965

> <s_lp_Force_Field>
OPLS_2005

> <r_lp_Energy>
34.830845

> <b_lp_Chiralities_Consistent>
1

> <s_lp_Variant>
CHEMBL3717_lig1691-1

> <s_i_glide_gridfile>
glide-grid_3lq8

> <i_i_glide_lignum>
1952

> <i_i_glide_rotatable_bonds>
6

> <r_i_docking_score>
-7.2032756008959

> <r_i_glide_ligand_efficiency>
-0.218281078815027

> <r_i_glide_ligand_efficiency_sa>
-0.700144053071705

> <r_i_glide_ligand_efficiency_ln>
-1.60197119707426

> <r_i_glide_gscore>
-7.2032756008959

> <r_i_glide_lipo>
-4.2366882494084

> <r_i_glide_hbond>
0

> <r_i_glide_metal>
0

> <r_i_glide_rewards>
-1.32629365985393

> <r_i_glide_evdw>
-41.7220191955566

> <r_i_glide_ecoul>
0.564342737197876

> <r_i_glide_erotb>
0.45912272075055

> <r_i_glide_esite>
-0.0979668631859745

> <r_i_glide_emodel>
-46.9106082691875

> <r_i_glide_energy>
-41.1576764583588

> <r_i_glide_einternal>
6.28277015686035

> <i_i_glide_confnum>
19

> <i_i_glide_posenum>
149

> <r_i_glide_eff_state_penalty>
0

> <s_user_duplicate_titles>
CHEMBL3717_lig1691

> <s_m_subgroup_title>
dock_pv

> <s_m_subgroupid>
dock_pv

> <b_m_subgroup_collapsed>
1

$$$$
CHEMBL3717_lig1207
                    3D
 Schrodinger Suite 2021-1.
 54 58  0  0  1  0            999 V2000
   -6.0458    5.1217   30.6080 N   0  0  0  0  0  0
   -4.7502    5.5107   30.6563 C   0  0  0  0  0  0
   -3.6811    4.6186   30.5624 C   0  0  0  0  0  0
   -3.9830    3.2626   30.3971 C   0  0  0  0  0  0
   -5.3138    2.8229   30.3197 C   0  0  0  0  0  0
   -6.3174    3.8068   30.4353 C   0  0  0  0  0  0
   -2.2739    5.1028   30.6080 C   0  0  0  0  0  0
   -1.1236    4.4357   31.0149 C   0  0  0  0  0  0
   -0.0856    5.3289   30.8938 N   0  0  0  0  0  0
   -0.4951    6.4803   30.3394 N   0  0  0  0  0  0
   -1.7908    6.3565   30.2081 C   0  0  0  0  0  0
    1.3409    5.2085   31.2508 C   0  0  0  0  0  0
    1.7648    4.0385   32.1520 C   0  0  0  0  0  0
    1.8847    2.7051   31.3943 C   0  0  0  0  0  0
    2.7053    2.8201   30.1857 N   0  0  2  0  0  0
    2.2856    3.8935   29.2805 C   0  0  0  0  0  0
    2.2515    5.2391   30.0262 C   0  0  0  0  0  0
   -5.5652    1.3513   30.1407 C   0  0  0  0  0  0
   -6.8463    0.9277   29.9124 O   0  0  0  0  0  0
   -4.6630    0.3884   30.1914 N   0  0  0  0  0  0
   -7.6722    3.5022   30.3698 N   0  0  0  0  0  0
   -5.3864   -0.7619   30.0139 C   0  0  0  0  0  0
   -6.7353   -0.4244   29.8427 C   0  0  0  0  0  0
   -7.7465   -1.3628   29.6499 C   0  0  0  0  0  0
   -7.3579   -2.7059   29.6415 C   0  0  0  0  0  0
   -6.0072   -3.0777   29.8093 C   0  0  0  0  0  0
   -4.9909   -2.1141   29.9906 C   0  0  0  0  0  0
   -3.5332   -2.5327   30.1377 C   0  0  0  0  0  0
   -5.6941   -4.4175   29.7933 O   0  0  0  0  0  0
   -8.4325   -3.7647   29.4297 C   0  0  0  0  0  0
   -4.5832    6.5703   30.7775 H   0  0  0  0  0  0
   -3.1742    2.5503   30.3161 H   0  0  0  0  0  0
   -0.9721    3.4442   31.4098 H   0  0  0  0  0  0
   -2.3796    7.1645   29.8081 H   0  0  0  0  0  0
    1.5055    6.1286   31.8087 H   0  0  0  0  0  0
    2.7130    4.2727   32.6366 H   0  0  0  0  0  0
    1.1059    3.9623   33.0078 H   0  0  0  0  0  0
    2.3202    1.9440   32.0428 H   0  0  0  0  0  0
    0.8972    2.3571   31.1055 H   0  0  0  0  0  0
    2.6897    1.9400   29.6858 H   0  0  0  0  0  0
    2.9806    3.9423   28.4412 H   0  0  0  0  0  0
    1.3010    3.6551   28.8736 H   0  0  0  0  0  0
    1.9060    6.0553   29.4074 H   0  0  0  0  0  0
    3.2563    5.5566   30.2959 H   0  0  0  0  0  0
   -7.9382    2.5413   30.1979 H   0  0  0  0  0  0
   -8.3440    4.2548   30.3671 H   0  0  0  0  0  0
   -8.7749   -1.0594   29.5214 H   0  0  0  0  0  0
   -2.8564   -1.6947   29.9651 H   0  0  0  0  0  0
   -3.2741   -3.2982   29.4054 H   0  0  0  0  0  0
   -3.3480   -2.9309   31.1354 H   0  0  0  0  0  0
   -4.8060   -4.6528   30.1204 H   0  0  0  0  0  0
   -9.4037   -3.3327   29.1873 H   0  0  0  0  0  0
   -8.1512   -4.4239   28.6075 H   0  0  0  0  0  0
   -8.5334   -4.3825   30.3223 H   0  0  0  0  0  0
  1  6  1  0  0  0
  1  2  2  0  0  0
  2  3  1  0  0  0
  2 31  1  0  0  0
  3  7  1  0  0  0
  3  4  2  0  0  0
  4  5  1  0  0  0
  4 32  1  0  0  0
  5 18  1  0  0  0
  5  6  2  0  0  0
  6 21  1  0  0  0
  7 11  1  0  0  0
  7  8  2  0  0  0
  8  9  1  0  0  0
  8 33  1  0  0  0
  9 12  1  0  0  0
  9 10  1  0  0  0
 10 11  2  0  0  0
 11 34  1  0  0  0
 12 17  1  0  0  0
 12 13  1  0  0  0
 12 35  1  0  0  0
 13 14  1  0  0  0
 13 36  1  0  0  0
 13 37  1  0  0  0
 14 15  1  0  0  0
 14 38  1  0  0  0
 14 39  1  0  0  0
 15 16  1  0  0  0
 15 40  1  0  0  0
 16 17  1  0  0  0
 16 41  1  0  0  0
 16 42  1  0  0  0
 17 43  1  0  0  0
 17 44  1  0  0  0
 18 19  1  0  0  0
 18 20  2  0  0  0
 19 23  1  0  0  0
 20 22  1  0  0  0
 21 45  1  0  0  0
 21 46  1  0  0  0
 22 23  2  0  0  0
 22 27  1  0  0  0
 23 24  1  0  0  0
 24 25  2  0  0  0
 24 47  1  0  0  0
 25 26  1  0  0  0
 25 30  1  0  0  0
 26 27  2  0  0  0
 26 29  1  0  0  0
 27 28  1  0  0  0
 28 48  1  0  0  0
 28 49  1  0  0  0
 28 50  1  0  0  0
 29 51  1  0  0  0
 30 52  1  0  0  0
 30 53  1  0  0  0
 30 54  1  0  0  0
M  END
> <s_m_entry_id>
10442

> <s_m_entry_name>
dock_pv.511

> <s_m_Source_Path>
/home/csk/Desktop/cluster/DUD-E-result/met

> <s_m_Source_File>
dock_pv.maegz

> <i_m_Source_File_Index>
511

> <chembl_id>
CHEMBL2032277

> <chembl_pref_name>
None

> <i_lp_mmshare_version>
53161

> <i_f3d_flags>
0

> <r_lp_tautomer_probability>
0.999999772200052

> <s_lp_Force_Field>
OPLS_2005

> <r_lp_Energy>
32.326677

> <b_lp_Chiralities_Consistent>
1

> <s_lp_Variant>
CHEMBL3717_lig1207-1

> <s_i_glide_gridfile>
glide-grid_3lq8

> <i_i_glide_lignum>
1383

> <i_i_glide_rotatable_bonds>
4

> <r_i_docking_score>
-7.2032515717868

> <r_i_glide_ligand_efficiency>
-0.240108385726227

> <r_i_glide_ligand_efficiency_sa>
-0.746072580234792

> <r_i_glide_ligand_efficiency_ln>
-1.63665724282205

> <r_i_glide_gscore>
-7.2032515717868

> <r_i_glide_lipo>
-3.41432814837698

> <r_i_glide_hbond>
-0.16

> <r_i_glide_metal>
0

> <r_i_glide_rewards>
-1.39978365560802

> <r_i_glide_evdw>
-39.0055198669434

> <r_i_glide_ecoul>
-4.26060056686401

> <r_i_glide_erotb>
0.360226310574976

> <r_i_glide_esite>
0

> <r_i_glide_emodel>
-59.5726266525411

> <r_i_glide_energy>
-43.2661204338074

> <r_i_glide_einternal>
2.57293152809143

> <i_i_glide_confnum>
1

> <i_i_glide_posenum>
2

> <r_i_glide_eff_state_penalty>
0

> <s_user_duplicate_titles>
CHEMBL3717_lig1207

> <s_m_subgroup_title>
dock_pv

> <s_m_subgroupid>
dock_pv

> <b_m_subgroup_collapsed>
1

$$$$
CHEMBL3717_lig3857
                    3D
 Schrodinger Suite 2021-1.
 43 46  0  0  1  0            999 V2000
   -5.1543    0.2688   29.8180 N   0  0  0  0  0  0
   -2.2584    3.2208   30.7250 N   0  0  0  0  0  0
   -7.5240    0.5797   29.5229 N   0  0  0  0  0  0
   -0.0178    3.8480   30.8077 N   0  0  0  0  0  0
   -1.6919    5.5559   30.8879 N   0  0  0  0  0  0
    2.3098    3.9571   32.6080 N   0  0  0  0  0  0
   -4.4956    2.3889   30.3327 C   0  0  0  0  0  0
   -5.9368    2.3669   30.1534 C   0  0  0  0  0  0
   -3.5772    3.5476   30.6053 C   0  0  0  0  0  0
   -6.2978    1.0266   29.8090 C   0  0  0  0  0  0
   -4.0933    1.0673   30.1555 C   0  0  0  0  0  0
   -1.3650    4.2354   30.8317 C   0  0  0  0  0  0
   -6.9985    3.2959   30.2122 C   0  0  0  0  0  0
   -3.9904    4.8871   30.6081 C   0  0  0  0  0  0
    1.0718    4.8086   30.6006 C   0  0  1  0  0  0
   -3.0079    5.8615   30.7790 C   0  0  0  0  0  0
   -8.2902    2.8570   29.9149 C   0  0  0  0  0  0
   -8.5005    1.5204   29.5808 C   0  0  0  0  0  0
    2.4016    4.2769   31.2003 C   0  0  2  0  0  0
    1.2382    5.1056   29.0950 C   0  0  0  0  0  0
    3.0093    3.1129   30.3857 C   0  0  0  0  0  0
    1.8178    3.9246   28.2898 C   0  0  0  0  0  0
    3.1491    3.4456   28.8872 C   0  0  0  0  0  0
   -5.0650   -0.7146   29.6034 H   0  0  0  0  0  0
    0.1712    2.8858   30.5708 H   0  0  0  0  0  0
    3.2275    3.7916   32.9926 H   0  0  0  0  0  0
    1.9052    4.7296   33.1174 H   0  0  0  0  0  0
   -3.1057    0.6305   30.2096 H   0  0  0  0  0  0
   -6.8488    4.3290   30.4739 H   0  0  0  0  0  0
   -5.0117    5.1901   30.4733 H   0  0  0  0  0  0
    0.8113    5.7427   31.1019 H   0  0  0  0  0  0
   -3.2645    6.9098   30.8064 H   0  0  0  0  0  0
   -9.1215    3.5479   29.9411 H   0  0  0  0  0  0
   -9.4971    1.1727   29.3494 H   0  0  0  0  0  0
    3.1027    5.1094   31.1138 H   0  0  0  0  0  0
    0.3060    5.4387   28.6491 H   0  0  0  0  0  0
    1.9045    5.9557   29.0081 H   0  0  0  0  0  0
    3.9870    2.8379   30.7837 H   0  0  0  0  0  0
    2.3728    2.2336   30.4839 H   0  0  0  0  0  0
    1.9617    4.2164   27.2492 H   0  0  0  0  0  0
    1.1048    3.0984   28.2752 H   0  0  0  0  0  0
    3.9091    4.2168   28.7527 H   0  0  0  0  0  0
    3.5049    2.5720   28.3391 H   0  0  0  0  0  0
  1 10  1  0  0  0
  1 11  1  0  0  0
  1 24  1  0  0  0
  2  9  2  0  0  0
  2 12  1  0  0  0
  3 10  2  0  0  0
  3 18  1  0  0  0
  4 12  1  0  0  0
  4 15  1  0  0  0
  4 25  1  0  0  0
  5 12  2  0  0  0
  5 16  1  0  0  0
  6 19  1  0  0  0
  6 26  1  0  0  0
  6 27  1  0  0  0
  7  8  1  0  0  0
  7  9  1  0  0  0
  7 11  2  0  0  0
  8 10  1  0  0  0
  8 13  2  0  0  0
  9 14  1  0  0  0
 11 28  1  0  0  0
 13 17  1  0  0  0
 13 29  1  0  0  0
 14 16  2  0  0  0
 14 30  1  0  0  0
 15 19  1  0  0  0
 15 20  1  0  0  0
 15 31  1  0  0  0
 16 32  1  0  0  0
 17 18  2  0  0  0
 17 33  1  0  0  0
 18 34  1  0  0  0
 19 21  1  0  0  0
 19 35  1  0  0  0
 20 22  1  0  0  0
 20 36  1  0  0  0
 20 37  1  0  0  0
 21 23  1  0  0  0
 21 38  1  0  0  0
 21 39  1  0  0  0
 22 23  1  0  0  0
 22 40  1  0  0  0
 22 41  1  0  0  0
 23 42  1  0  0  0
 23 43  1  0  0  0
M  END
> <s_m_entry_id>
10443

> <s_m_entry_name>
dock_pv.512

> <s_m_Source_Path>
/home/csk/Desktop/cluster/DUD-E-result/met

> <s_m_Source_File>
dock_pv.maegz

> <i_m_Source_File_Index>
512

> <chembl_id>
CHEMBL1995813

> <chembl_pref_name>
None

> <i_lp_mmshare_version>
53161

> <i_f3d_flags>
0

> <r_lp_tautomer_probability>
0.999998420164496

> <s_lp_Force_Field>
OPLS_2005

> <r_lp_Energy>
13.420806

> <b_lp_Chiralities_Consistent>
1

> <s_lp_Variant>
CHEMBL3717_lig3857-2

> <s_i_glide_gridfile>
glide-grid_3lq8

> <i_i_glide_lignum>
4891

> <i_i_glide_rotatable_bonds>
3

> <r_i_docking_score>
-7.20157149050786

> <r_i_glide_ligand_efficiency>
-0.313111803935124

> <r_i_glide_ligand_efficiency_sa>
-0.890448319282192

> <r_i_glide_ligand_efficiency_ln>
-1.74140528664476

> <r_i_glide_gscore>
-7.20157149050786

> <r_i_glide_lipo>
-3.39178165745446

> <r_i_glide_hbond>
0

> <r_i_glide_metal>
0

> <r_i_glide_rewards>
-2.34696305173407

> <r_i_glide_evdw>
-38.8241577148438

> <r_i_glide_ecoul>
-0.669673681259155

> <r_i_glide_erotb>
0.583625750748594

> <r_i_glide_esite>
-0.0047935941368577

> <r_i_glide_emodel>
-53.5681448004587

> <r_i_glide_energy>
-39.4938313961029

> <r_i_glide_einternal>
3.11783981323242

> <i_i_glide_confnum>
9

> <i_i_glide_posenum>
191

> <r_i_glide_eff_state_penalty>
0

> <s_user_duplicate_titles>
CHEMBL3717_lig3857

> <s_m_subgroup_title>
dock_pv

> <s_m_subgroupid>
dock_pv

> <b_m_subgroup_collapsed>
1

$$$$
CHEMBL3717_lig4232
                    3D
 Schrodinger Suite 2021-1.
 43 46  0  0  1  0            999 V2000
   -7.7020   -0.4930   30.1025 O   0  0  0  0  0  0
   -1.5734    2.7570   31.7664 O   0  0  0  0  0  0
   -4.4940    2.5190   30.2421 N   0  0  0  0  0  0
   -6.3304    3.8167   30.3268 N   0  0  0  0  0  0
   -0.2588    4.1823   30.6081 N   0  0  0  0  0  0
   -6.5715    0.2470   30.4347 N   0  0  0  0  0  0
   -3.9705    6.6050   30.7379 N   0  0  0  0  0  0
   -8.6761    0.3136   29.5230 N   0  0  0  0  0  0
   -8.8439    2.5629   29.0080 N   0  0  0  0  0  0
    3.3465    3.7590   30.2548 N   0  0  0  0  0  0
   -4.0158    3.8200   30.4791 C   0  0  0  0  0  0
   -5.8898    2.5950   30.2081 C   0  0  0  0  0  0
   -5.2150    4.5775   30.4670 C   0  0  0  0  0  0
   -2.7638    4.4712   30.7097 C   0  0  0  0  0  0
   -6.8458    1.4706   30.0502 C   0  0  0  0  0  0
   -1.4768    3.7474   31.0428 C   0  0  0  0  0  0
   -5.1442    5.9570   30.6080 C   0  0  0  0  0  0
   -8.1404    1.5059   29.5101 C   0  0  0  0  0  0
   -2.8423    5.8705   30.8014 C   0  0  0  0  0  0
   -3.7220    1.2951   30.0034 C   0  0  0  0  0  0
    0.9505    3.3712   30.8354 C   0  0  0  0  0  0
    0.0960    5.5131   30.0908 C   0  0  0  0  0  0
    2.0993    4.3627   30.6861 C   0  0  2  0  0  0
    1.5634    5.3915   29.7174 C   0  0  0  0  0  0
   -3.8647    0.8169   28.5461 C   0  0  0  0  0  0
   -8.4683    3.5007   29.0278 H   0  0  0  0  0  0
   -9.7736    2.4458   28.6336 H   0  0  0  0  0  0
    4.0454    4.4672   30.0788 H   0  0  0  0  0  0
    3.7124    3.1410   30.9639 H   0  0  0  0  0  0
   -6.0432    6.5494   30.6080 H   0  0  0  0  0  0
   -1.9821    6.4754   31.0080 H   0  0  0  0  0  0
   -2.6783    1.4617   30.2080 H   0  0  0  0  0  0
   -4.0359    0.5313   30.7141 H   0  0  0  0  0  0
    1.0533    2.6510   30.0243 H   0  0  0  0  0  0
    1.0089    2.8853   31.8080 H   0  0  0  0  0  0
    0.0324    6.2296   30.9102 H   0  0  0  0  0  0
   -0.4940    5.8737   29.2532 H   0  0  0  0  0  0
    2.2989    4.8484   31.6439 H   0  0  0  0  0  0
    2.0476    6.3570   29.8080 H   0  0  0  0  0  0
    1.6576    5.0471   28.6851 H   0  0  0  0  0  0
   -3.2940   -0.0979   28.3822 H   0  0  0  0  0  0
   -4.8966    0.5954   28.2760 H   0  0  0  0  0  0
   -3.4941    1.5570   27.8373 H   0  0  0  0  0  0
  1  6  1  0  0  0
  1  8  1  0  0  0
  2 16  2  0  0  0
  3 11  1  0  0  0
  3 12  1  0  0  0
  3 20  1  0  0  0
  4 12  2  0  0  0
  4 13  1  0  0  0
  5 16  1  0  0  0
  5 21  1  0  0  0
  5 22  1  0  0  0
  6 15  2  0  0  0
  7 17  2  0  0  0
  7 19  1  0  0  0
  8 18  2  0  0  0
  9 18  1  0  0  0
  9 26  1  0  0  0
  9 27  1  0  0  0
 10 23  1  0  0  0
 10 28  1  0  0  0
 10 29  1  0  0  0
 11 13  2  0  0  0
 11 14  1  0  0  0
 12 15  1  0  0  0
 13 17  1  0  0  0
 14 16  1  0  0  0
 14 19  2  0  0  0
 15 18  1  0  0  0
 17 30  1  0  0  0
 19 31  1  0  0  0
 20 25  1  0  0  0
 20 32  1  0  0  0
 20 33  1  0  0  0
 21 23  1  0  0  0
 21 34  1  0  0  0
 21 35  1  0  0  0
 22 24  1  0  0  0
 22 36  1  0  0  0
 22 37  1  0  0  0
 23 24  1  0  0  0
 23 38  1  0  0  0
 24 39  1  0  0  0
 24 40  1  0  0  0
 25 41  1  0  0  0
 25 42  1  0  0  0
 25 43  1  0  0  0
M  END
> <s_m_entry_id>
10444

> <s_m_entry_name>
dock_pv.513

> <s_m_Source_Path>
/home/csk/Desktop/cluster/DUD-E-result/met

> <s_m_Source_File>
dock_pv.maegz

> <i_m_Source_File_Index>
513

> <chembl_id>
CHEMBL1870106

> <chembl_pref_name>
None

> <i_lp_mmshare_version>
53161

> <i_f3d_flags>
0

> <r_lp_tautomer_probability>
1

> <s_lp_Force_Field>
OPLS_2005

> <r_lp_Energy>
53.231174

> <b_lp_Chiralities_Consistent>
1

> <s_lp_Variant>
CHEMBL3717_lig4232-1

> <s_i_glide_gridfile>
glide-grid_3lq8

> <i_i_glide_lignum>
5435

> <i_i_glide_rotatable_bonds>
4

> <r_i_docking_score>
-7.19962547893683

> <r_i_glide_ligand_efficiency>
-0.287985019157473

> <r_i_glide_ligand_efficiency_sa>
-0.842073303452514

> <r_i_glide_ligand_efficiency_ln>
-1.70652699387324

> <r_i_glide_gscore>
-7.19962547893683

> <r_i_glide_lipo>
-2.33279629155351

> <r_i_glide_hbond>
-0.0928697887024392

> <r_i_glide_metal>
0

> <r_i_glide_rewards>
-3.48846323120227

> <r_i_glide_evdw>
-32.3246688842773

> <r_i_glide_ecoul>
-1.0306236743927

> <r_i_glide_erotb>
0.48533082789417

> <r_i_glide_esite>
0

> <r_i_glide_emodel>
-44.4131649095085

> <r_i_glide_energy>
-33.35529255867

> <r_i_glide_einternal>
4.73250722885132

> <i_i_glide_confnum>
4

> <i_i_glide_posenum>
2

> <r_i_glide_eff_state_penalty>
0

> <s_user_duplicate_titles>
CHEMBL3717_lig4232

> <s_m_subgroup_title>
dock_pv

> <s_m_subgroupid>
dock_pv

> <b_m_subgroup_collapsed>
1

$$$$
CHEMBL3717_lig4248
                    3D
 Schrodinger Suite 2021-1.
 35 37  0  0  1  0            999 V2000
    0.1344    5.9948   30.1769 O   0  0  0  0  0  0
   -6.1349    4.7461   30.4008 N   0  0  0  0  0  0
   -6.3611    3.4230   30.3016 N   0  0  0  0  0  0
    1.5054    5.7401   30.2406 N   0  0  0  0  0  0
   -5.0453    1.4780   30.2714 N   0  0  0  0  0  0
   -4.1313    3.7780   30.4987 C   0  0  0  0  0  0
   -2.0206    4.9438   30.6289 C   0  0  0  0  0  0
   -4.7896    5.0315   30.5116 C   0  0  0  0  0  0
   -0.5320    4.9086   30.6415 C   0  0  0  0  0  0
   -2.7331    3.7379   30.6080 C   0  0  0  0  0  0
   -5.1949    2.8315   30.3539 C   0  0  0  0  0  0
   -2.7012    6.1632   30.6088 C   0  0  0  0  0  0
   -4.0937    6.2360   30.6068 C   0  0  0  0  0  0
    0.4015    3.9661   31.0079 C   0  0  0  0  0  0
    1.6444    4.5308   30.7425 C   0  0  0  0  0  0
    3.0164    3.9251   30.9798 C   0  0  0  0  0  0
    4.0163    4.0894   29.8117 C   0  0  0  0  0  0
    3.5181    3.4189   28.5125 C   0  0  0  0  0  0
    5.4093    3.5646   30.2066 C   0  0  0  0  0  0
   -6.9006    5.4024   30.3425 H   0  0  0  0  0  0
   -4.1382    1.0322   30.2914 H   0  0  0  0  0  0
   -5.8441    0.8686   30.1674 H   0  0  0  0  0  0
   -2.2133    2.7901   30.6114 H   0  0  0  0  0  0
   -2.1349    7.0811   30.6043 H   0  0  0  0  0  0
   -4.6071    7.1809   30.6077 H   0  0  0  0  0  0
    0.2074    2.9852   31.4077 H   0  0  0  0  0  0
    2.9070    2.8595   31.1824 H   0  0  0  0  0  0
    3.4423    4.3381   31.8946 H   0  0  0  0  0  0
    4.1291    5.1569   29.6072 H   0  0  0  0  0  0
    3.3031    2.3573   28.6519 H   0  0  0  0  0  0
    4.2619    3.5025   27.7216 H   0  0  0  0  0  0
    2.6039    3.8877   28.1481 H   0  0  0  0  0  0
    5.3912    2.4946   30.4190 H   0  0  0  0  0  0
    6.1348    3.7279   29.4073 H   0  0  0  0  0  0
    5.7965    4.0786   31.0879 H   0  0  0  0  0  0
  1  4  1  0  0  0
  1  9  1  0  0  0
  2  3  1  0  0  0
  2  8  1  0  0  0
  2 20  1  0  0  0
  3 11  2  0  0  0
  4 15  2  0  0  0
  5 11  1  0  0  0
  5 21  1  0  0  0
  5 22  1  0  0  0
  6  8  1  0  0  0
  6 10  2  0  0  0
  6 11  1  0  0  0
  7  9  1  0  0  0
  7 10  1  0  0  0
  7 12  2  0  0  0
  8 13  2  0  0  0
  9 14  2  0  0  0
 10 23  1  0  0  0
 12 13  1  0  0  0
 12 24  1  0  0  0
 13 25  1  0  0  0
 14 15  1  0  0  0
 14 26  1  0  0  0
 15 16  1  0  0  0
 16 17  1  0  0  0
 16 27  1  0  0  0
 16 28  1  0  0  0
 17 18  1  0  0  0
 17 19  1  0  0  0
 17 29  1  0  0  0
 18 30  1  0  0  0
 18 31  1  0  0  0
 18 32  1  0  0  0
 19 33  1  0  0  0
 19 34  1  0  0  0
 19 35  1  0  0  0
M  END
> <s_m_entry_id>
10445

> <s_m_entry_name>
dock_pv.514

> <s_m_Source_Path>
/home/csk/Desktop/cluster/DUD-E-result/met

> <s_m_Source_File>
dock_pv.maegz

> <i_m_Source_File_Index>
514

> <chembl_id>
CHEMBL1966343

> <chembl_pref_name>
None

> <i_lp_mmshare_version>
53161

> <i_f3d_flags>
0

> <r_lp_tautomer_probability>
1

> <s_lp_Force_Field>
OPLS_2005

> <r_lp_Energy>
5.05963

> <b_lp_Chiralities_Consistent>
1

> <s_lp_Variant>
CHEMBL3717_lig4248-1

> <s_i_glide_gridfile>
glide-grid_3lq8

> <i_i_glide_lignum>
5456

> <i_i_glide_rotatable_bonds>
3

> <r_i_docking_score>
-7.19904394167436

> <r_i_glide_ligand_efficiency>
-0.378897049561808

> <r_i_glide_ligand_efficiency_sa>
-1.01104951075429

> <r_i_glide_ligand_efficiency_ln>
-1.82511226050091

> <r_i_glide_gscore>
-7.19904394167436

> <r_i_glide_lipo>
-3.30737652905705

> <r_i_glide_hbond>
0

> <r_i_glide_metal>
0

> <r_i_glide_rewards>
-2.55323684848485

> <r_i_glide_evdw>
-34.751594543457

> <r_i_glide_ecoul>
-0.916109323501587

> <r_i_glide_erotb>
0.536565561565635

> <r_i_glide_esite>
0

> <r_i_glide_emodel>
-49.5297142483728

> <r_i_glide_energy>
-35.6677038669586

> <r_i_glide_einternal>
1.81281530857086

> <i_i_glide_confnum>
4

> <i_i_glide_posenum>
343

> <r_i_glide_eff_state_penalty>
0

> <s_user_duplicate_titles>
CHEMBL3717_lig4248

> <s_m_subgroup_title>
dock_pv

> <s_m_subgroupid>
dock_pv

> <b_m_subgroup_collapsed>
1

$$$$
CHEMBL3717_lig3175 
                    3D
 Schrodinger Suite 2021-1.
 31 33  0  0  1  0            999 V2000
   -3.9952   -1.6277   30.0365 C   0  0  0  0  0  0
   -3.2218   -1.5635   31.1501 C   0  0  0  0  0  0
   -2.8199   -0.3164   31.7678 C   0  0  0  0  0  0
   -4.4918   -0.4887   29.4078 N   0  0  0  0  0  0
   -4.1564    0.7530   29.9323 C   0  0  0  0  0  0
   -3.2983    0.7970   31.0071 N   0  0  0  0  0  0
   -2.9676    2.0769   31.2045 N   0  0  0  0  0  0
   -3.7042    2.7249   30.3170 C   0  0  0  0  0  0
   -4.4126    1.9573   29.4933 N   0  0  0  0  0  0
   -4.3496   -2.9274   29.3443 C   0  0  0  0  0  0
   -2.1200   -0.1492   32.7685 O   0  0  0  0  0  0
   -3.7812    4.5010   30.2083 S   0  0  0  0  0  0
   -2.4930    5.0438   31.3859 C   0  0  0  0  0  0
   -1.0827    5.0276   30.8127 C   0  0  0  0  0  0
   -0.5564    6.1206   30.1080 C   0  0  0  0  0  0
    0.7285    6.0424   29.5706 C   0  0  0  0  0  0
    1.5034    4.8917   29.7470 C   0  0  0  0  0  0
    0.9967    3.8234   30.4761 C   0  0  0  0  0  0
   -0.2851    3.8946   31.0084 C   0  0  0  0  0  0
   -1.4826    7.5564   29.8388 Cl  0  0  0  0  0  0
    3.0843    4.7569   29.0709 Cl  0  0  0  0  0  0
   -2.8522   -2.4770   31.5926 H   0  0  0  0  0  0
   -4.8734   -0.5802   28.4700 H   0  0  0  0  0  0
   -3.5402   -3.6434   29.4707 H   0  0  0  0  0  0
   -5.2603   -3.3525   29.7654 H   0  0  0  0  0  0
   -4.4852   -2.8091   28.2689 H   0  0  0  0  0  0
   -2.4939    4.3820   32.2338 H   0  0  0  0  0  0
   -2.7524    6.0257   31.7783 H   0  0  0  0  0  0
    1.1059    6.8801   29.0069 H   0  0  0  0  0  0
    1.5897    2.9313   30.6207 H   0  0  0  0  0  0
   -0.6512    3.0516   31.5735 H   0  0  0  0  0  0
  1  2  2  0  0  0
  1  4  1  0  0  0
  1 10  1  0  0  0
  2  3  1  0  0  0
  2 22  1  0  0  0
  3  6  1  0  0  0
  3 11  2  0  0  0
  4  5  1  0  0  0
  4 23  1  0  0  0
  5  6  1  0  0  0
  5  9  2  0  0  0
  6  7  1  0  0  0
  7  8  2  0  0  0
  8  9  1  0  0  0
  8 12  1  0  0  0
 10 24  1  0  0  0
 10 25  1  0  0  0
 10 26  1  0  0  0
 12 13  1  0  0  0
 13 14  1  0  0  0
 13 27  1  0  0  0
 13 28  1  0  0  0
 14 15  2  0  0  0
 14 19  1  0  0  0
 15 16  1  0  0  0
 15 20  1  0  0  0
 16 17  2  0  0  0
 16 29  1  0  0  0
 17 18  1  0  0  0
 17 21  1  0  0  0
 18 19  2  0  0  0
 18 30  1  0  0  0
 19 31  1  0  0  0
M  END
> <s_m_entry_id>
10446

> <s_m_entry_name>
dock_pv.515

> <s_m_Source_Path>
/home/csk/Desktop/cluster/DUD-E-result/met

> <s_m_Source_File>
dock_pv.maegz

> <i_m_Source_File_Index>
515

> <chembl_id>
CHEMBL4570484

> <chembl_pref_name>
None

> <i_lp_mmshare_version>
53161

> <i_f3d_flags>
0

> <r_lp_tautomer_probability>
1

> <s_lp_Force_Field>
OPLS_2005

> <r_lp_Energy>
13.538148

> <b_lp_Chiralities_Consistent>
1

> <s_lp_Variant>
CHEMBL3717_lig3175 -1

> <s_i_glide_gridfile>
glide-grid_3lq8

> <i_i_glide_lignum>
3896

> <i_i_glide_rotatable_bonds>
3

> <r_i_docking_score>
-7.19631797903609

> <r_i_glide_ligand_efficiency>
-0.342681808525528

> <r_i_glide_ligand_efficiency_sa>
-0.945433125387621

> <r_i_glide_ligand_efficiency_ln>
-1.77927507878699

> <r_i_glide_gscore>
-7.19631797903609

> <r_i_glide_lipo>
-3.03659813994331

> <r_i_glide_hbond>
-0.134658470586328

> <r_i_glide_metal>
0

> <r_i_glide_rewards>
-2.29319954947075

> <r_i_glide_evdw>
-33.171817779541

> <r_i_glide_ecoul>
-3.33517217636108

> <r_i_glide_erotb>
0.488209777385884

> <r_i_glide_esite>
-0.0612048809903748

> <r_i_glide_emodel>
-51.2676028088904

> <r_i_glide_energy>
-36.5069899559021

> <r_i_glide_einternal>
1.61909770965576

> <i_i_glide_confnum>
4

> <i_i_glide_posenum>
1

> <r_i_glide_eff_state_penalty>
0

> <s_user_duplicate_titles>
CHEMBL3717_lig3175 

> <s_m_subgroup_title>
dock_pv

> <s_m_subgroupid>
dock_pv

> <b_m_subgroup_collapsed>
1

$$$$
CHEMBL3717_lig1314
                    3D
 Schrodinger Suite 2021-1.
 40 44  0  0  1  0            999 V2000
   -7.3733    2.6475   30.4410 C   0  0  0  0  0  0
   -6.0497    2.2487   30.1516 C   0  0  0  0  0  0
   -7.6612    3.9108   30.7797 N   0  0  0  0  0  0
   -4.9890    3.0542   30.2073 N   0  0  0  0  0  0
   -5.2796    4.3356   30.5594 C   0  0  0  0  0  0
   -6.5923    4.7579   30.8268 C   0  0  0  0  0  0
   -6.1365    0.9197   29.7873 N   0  0  0  0  0  0
   -7.4165    0.5040   29.9079 N   0  0  0  0  0  0
   -8.2013    1.5744   30.3017 N   0  0  0  0  0  0
   -2.0732    6.1038   30.5399 N   0  0  0  0  0  0
   -2.8926    7.1561   30.6074 N   0  0  0  0  0  0
   -4.0946    6.6373   30.6121 C   0  0  0  0  0  0
   -4.1024    5.2403   30.6016 C   0  0  0  0  0  0
   -2.7507    4.9174   30.6080 C   0  0  0  0  0  0
   -0.6398    6.3118   30.4201 C   0  0  0  0  0  0
   -5.0878    0.0072   29.3463 C   0  0  0  0  0  0
   -1.6935   -2.0199   33.4085 O   0  0  0  0  0  0
   -1.0151   -0.8491   33.8714 C   0  0  0  0  0  0
   -1.8048    0.3576   33.3453 C   0  0  0  0  0  0
   -2.6096   -0.2540   32.2528 C   0  0  0  0  0  0
   -2.5390   -1.6205   32.4056 C   0  0  0  0  0  0
   -3.4461    0.2920   31.2823 C   0  0  0  0  0  0
   -4.2102   -0.5531   30.4606 C   0  0  0  0  0  0
   -4.1471   -1.9389   30.6560 C   0  0  0  0  0  0
   -3.3204   -2.4728   31.6439 C   0  0  0  0  0  0
   -6.8100    5.7861   31.0687 H   0  0  0  0  0  0
   -4.9744    7.2629   30.6083 H   0  0  0  0  0  0
   -2.2291    3.9717   30.5868 H   0  0  0  0  0  0
   -0.1965    5.4897   29.8592 H   0  0  0  0  0  0
   -0.4368    7.2445   29.8921 H   0  0  0  0  0  0
   -0.1882    6.3534   31.4070 H   0  0  0  0  0  0
   -4.4522    0.5472   28.6440 H   0  0  0  0  0  0
   -5.5454   -0.7941   28.7620 H   0  0  0  0  0  0
   -0.0229   -0.8423   33.4161 H   0  0  0  0  0  0
   -0.8732   -0.8387   34.9553 H   0  0  0  0  0  0
   -2.4647    0.7564   34.1189 H   0  0  0  0  0  0
   -1.1591    1.1619   33.0081 H   0  0  0  0  0  0
   -3.4910    1.3602   31.1734 H   0  0  0  0  0  0
   -4.7331   -2.6107   30.0450 H   0  0  0  0  0  0
   -3.2945   -3.5380   31.8065 H   0  0  0  0  0  0
  1  2  1  0  0  0
  1  3  2  0  0  0
  1  9  1  0  0  0
  2  4  2  0  0  0
  2  7  1  0  0  0
  3  6  1  0  0  0
  4  5  1  0  0  0
  5  6  2  0  0  0
  5 13  1  0  0  0
  6 26  1  0  0  0
  7  8  1  0  0  0
  7 16  1  0  0  0
  8  9  2  0  0  0
 10 11  1  0  0  0
 10 14  1  0  0  0
 10 15  1  0  0  0
 11 12  2  0  0  0
 12 13  1  0  0  0
 12 27  1  0  0  0
 13 14  2  0  0  0
 14 28  1  0  0  0
 15 29  1  0  0  0
 15 30  1  0  0  0
 15 31  1  0  0  0
 16 23  1  0  0  0
 16 32  1  0  0  0
 16 33  1  0  0  0
 17 18  1  0  0  0
 17 21  1  0  0  0
 18 19  1  0  0  0
 18 34  1  0  0  0
 18 35  1  0  0  0
 19 20  1  0  0  0
 19 36  1  0  0  0
 19 37  1  0  0  0
 20 21  1  0  0  0
 20 22  2  0  0  0
 21 25  2  0  0  0
 22 23  1  0  0  0
 22 38  1  0  0  0
 23 24  2  0  0  0
 24 25  1  0  0  0
 24 39  1  0  0  0
 25 40  1  0  0  0
M  END
> <s_m_entry_id>
10447

> <s_m_entry_name>
dock_pv.516

> <s_m_Source_Path>
/home/csk/Desktop/cluster/DUD-E-result/met

> <s_m_Source_File>
dock_pv.maegz

> <i_m_Source_File_Index>
516

> <chembl_id>
CHEMBL2170814

> <chembl_pref_name>
None

> <i_lp_mmshare_version>
53161

> <i_f3d_flags>
0

> <r_lp_tautomer_probability>
1

> <s_lp_Force_Field>
OPLS_2005

> <r_lp_Energy>
30.222119

> <b_lp_Chiralities_Consistent>
1

> <s_lp_Variant>
CHEMBL3717_lig1314-1

> <s_i_glide_gridfile>
glide-grid_3lq8

> <i_i_glide_lignum>
1500

> <i_i_glide_rotatable_bonds>
3

> <r_i_docking_score>
-7.19596071527607

> <r_i_glide_ligand_efficiency>
-0.287838428611043

> <r_i_glide_ligand_efficiency_sa>
-0.841644670094957

> <r_i_glide_ligand_efficiency_ln>
-1.70565833506154

> <r_i_glide_gscore>
-7.19596071527607

> <r_i_glide_lipo>
-2.29150798709999

> <r_i_glide_hbond>
-0.32

> <r_i_glide_metal>
0

> <r_i_glide_rewards>
-2.8624257371207

> <r_i_glide_evdw>
-37.8419914245605

> <r_i_glide_ecoul>
-2.25823903083801

> <r_i_glide_erotb>
0.508808434798361

> <r_i_glide_esite>
0

> <r_i_glide_emodel>
-55.911861402594

> <r_i_glide_energy>
-40.1002304553986

> <r_i_glide_einternal>
2.53526616096497

> <i_i_glide_confnum>
4

> <i_i_glide_posenum>
36

> <r_i_glide_eff_state_penalty>
0

> <s_user_duplicate_titles>
CHEMBL3717_lig1314

> <s_m_subgroup_title>
dock_pv

> <s_m_subgroupid>
dock_pv

> <b_m_subgroup_collapsed>
1

$$$$
CHEMBL3717_lig4006
                    3D
 Schrodinger Suite 2021-1.
 48 50  0  0  1  0            999 V2000
   -2.7751    5.9146   30.8994 O   0  0  0  0  0  0
    2.0483    2.9408   27.1053 O   0  0  0  0  0  0
   -0.8753    4.6609   30.8314 N   0  0  0  0  0  0
   -7.0447   -2.3489   30.6666 N   0  0  0  0  0  0
   -4.4932    1.1258   30.7887 C   0  0  0  0  0  0
   -2.9861    3.5281   30.8207 C   0  0  0  0  0  0
   -3.2235    1.1587   31.4029 C   0  0  0  0  0  0
   -5.3513   -0.0922   30.7546 C   0  0  0  0  0  0
   -2.2079    4.8222   30.8799 C   0  0  0  0  0  0
   -2.4934    2.3541   31.4072 C   0  0  0  0  0  0
   -4.9794    2.3002   30.1964 C   0  0  0  0  0  0
   -4.2453    3.4854   30.2163 C   0  0  0  0  0  0
    0.2196    5.6295   30.7354 C   0  0  1  0  0  0
    1.4102    4.8900   30.1290 C   0  0  0  0  0  0
   -5.8239   -0.5941   29.5355 C   0  0  0  0  0  0
   -5.7528   -0.7449   31.9279 C   0  0  0  0  0  0
    1.2905    4.2983   28.8680 C   0  0  0  0  0  0
    2.3127    3.5308   28.3213 C   0  0  0  0  0  0
    2.6038    4.7289   30.8361 C   0  0  0  0  0  0
   -2.6057   -0.0642   32.0757 C   0  0  0  0  0  0
    3.5078    3.3931   29.0392 C   0  0  0  0  0  0
    3.6545    3.9933   30.2892 C   0  0  0  0  0  0
   -6.6601   -1.7117   29.5330 C   0  0  0  0  0  0
   -6.5876   -1.8598   31.8457 C   0  0  0  0  0  0
   -0.0924    6.9089   29.9227 C   0  0  0  0  0  0
    2.9391    1.9570   26.6080 C   0  0  0  0  0  0
   -0.5562    3.7072   30.9058 H   0  0  0  0  0  0
   -1.5354    2.3632   31.9074 H   0  0  0  0  0  0
   -5.9550    2.3006   29.7321 H   0  0  0  0  0  0
   -4.6715    4.3770   29.7770 H   0  0  0  0  0  0
    0.4759    5.9329   31.7528 H   0  0  0  0  0  0
   -5.5406   -0.1266   28.6057 H   0  0  0  0  0  0
   -5.4401   -0.3878   32.8963 H   0  0  0  0  0  0
    0.3678    4.3906   28.3183 H   0  0  0  0  0  0
    2.7161    5.1543   31.8190 H   0  0  0  0  0  0
   -3.2717   -0.4831   32.8250 H   0  0  0  0  0  0
   -2.4081   -0.8438   31.3389 H   0  0  0  0  0  0
   -1.6808    0.1702   32.6052 H   0  0  0  0  0  0
    4.3216    2.8076   28.6434 H   0  0  0  0  0  0
    4.5754    3.8726   30.8398 H   0  0  0  0  0  0
   -7.0372   -2.1164   28.6078 H   0  0  0  0  0  0
   -6.9102   -2.3733   32.7393 H   0  0  0  0  0  0
    0.7948    7.5325   29.8128 H   0  0  0  0  0  0
   -0.4584    6.6773   28.9222 H   0  0  0  0  0  0
   -0.8464    7.5248   30.4125 H   0  0  0  0  0  0
    2.5211    1.5129   25.7074 H   0  0  0  0  0  0
    3.9059    2.3751   26.3564 H   0  0  0  0  0  0
    3.1058    1.1612   27.3282 H   0  0  0  0  0  0
  1  9  2  0  0  0
  2 18  1  0  0  0
  2 26  1  0  0  0
  3  9  1  0  0  0
  3 13  1  0  0  0
  3 27  1  0  0  0
  4 23  2  0  0  0
  4 24  1  0  0  0
  5  7  1  0  0  0
  5  8  1  0  0  0
  5 11  2  0  0  0
  6  9  1  0  0  0
  6 10  1  0  0  0
  6 12  2  0  0  0
  7 10  2  0  0  0
  7 20  1  0  0  0
  8 15  2  0  0  0
  8 16  1  0  0  0
 10 28  1  0  0  0
 11 12  1  0  0  0
 11 29  1  0  0  0
 12 30  1  0  0  0
 13 14  1  0  0  0
 13 25  1  0  0  0
 13 31  1  0  0  0
 14 17  2  0  0  0
 14 19  1  0  0  0
 15 23  1  0  0  0
 15 32  1  0  0  0
 16 24  2  0  0  0
 16 33  1  0  0  0
 17 18  1  0  0  0
 17 34  1  0  0  0
 18 21  2  0  0  0
 19 22  2  0  0  0
 19 35  1  0  0  0
 20 36  1  0  0  0
 20 37  1  0  0  0
 20 38  1  0  0  0
 21 22  1  0  0  0
 21 39  1  0  0  0
 22 40  1  0  0  0
 23 41  1  0  0  0
 24 42  1  0  0  0
 25 43  1  0  0  0
 25 44  1  0  0  0
 25 45  1  0  0  0
 26 46  1  0  0  0
 26 47  1  0  0  0
 26 48  1  0  0  0
M  END
> <s_m_entry_id>
10448

> <s_m_entry_name>
dock_pv.517

> <s_m_Source_Path>
/home/csk/Desktop/cluster/DUD-E-result/met

> <s_m_Source_File>
dock_pv.maegz

> <i_m_Source_File_Index>
517

> <chembl_id>
CHEMBL1969049

> <chembl_pref_name>
None

> <i_lp_mmshare_version>
53161

> <i_f3d_flags>
0

> <r_lp_tautomer_probability>
1

> <s_lp_Force_Field>
OPLS_2005

> <r_lp_Energy>
18.656881

> <b_lp_Chiralities_Consistent>
1

> <s_lp_Variant>
CHEMBL3717_lig4006-2

> <s_i_glide_gridfile>
glide-grid_3lq8

> <i_i_glide_lignum>
5101

> <i_i_glide_rotatable_bonds>
6

> <r_i_docking_score>
-7.1942703698329

> <r_i_glide_ligand_efficiency>
-0.276702706532034

> <r_i_glide_ligand_efficiency_sa>
-0.819730679328577

> <r_i_glide_ligand_efficiency_ln>
-1.68955079002875

> <r_i_glide_gscore>
-7.1942703698329

> <r_i_glide_lipo>
-3.95669491962496

> <r_i_glide_hbond>
0

> <r_i_glide_metal>
0

> <r_i_glide_rewards>
-2.05101401395921

> <r_i_glide_evdw>
-36.0171737670898

> <r_i_glide_ecoul>
-1.18540513515472

> <r_i_glide_erotb>
0.792108022378983

> <r_i_glide_esite>
0

> <r_i_glide_emodel>
-47.141543496391

> <r_i_glide_energy>
-37.2025789022446

> <r_i_glide_einternal>
11.355037689209

> <i_i_glide_confnum>
1

> <i_i_glide_posenum>
174

> <r_i_glide_eff_state_penalty>
0

> <s_user_duplicate_titles>
CHEMBL3717_lig4006

> <s_m_subgroup_title>
dock_pv

> <s_m_subgroupid>
dock_pv

> <b_m_subgroup_collapsed>
1

$$$$
CHEMBL3717_lig2419
                    3D
 Schrodinger Suite 2021-1.
 38 39  0  0  1  0            999 V2000
    2.2838    4.1609   31.5511 C   0  0  0  0  0  0
    2.8929    3.8875   30.3262 C   0  0  0  0  0  0
    2.3899    4.3136   29.1423 N   0  0  0  0  0  0
    1.2466    5.0458   29.1666 C   0  0  0  0  0  0
    0.5849    5.3870   30.3482 C   0  0  0  0  0  0
    1.1156    4.9258   31.5571 C   0  0  0  0  0  0
    4.0743    3.1585   30.2825 N   0  0  0  0  0  0
   -0.6704    6.2398   30.3135 C   0  0  0  0  0  0
   -1.7991    5.4284   30.6074 O   0  0  0  0  0  0
   -3.0493    5.9520   30.6080 C   0  0  0  0  0  0
   -4.1144    4.9552   30.5472 C   0  0  0  0  0  0
   -3.2939    7.1583   30.6077 O   0  0  0  0  0  0
   -3.9008    3.6368   30.3256 C   0  0  0  0  0  0
   -4.9251    2.5791   30.2082 C   0  0  0  0  0  0
   -6.2992    2.8447   30.2697 C   0  0  0  0  0  0
   -7.2246    1.8082   30.1842 C   0  0  0  0  0  0
   -6.7931    0.4910   30.0298 C   0  0  0  0  0  0
   -5.4248    0.1966   29.9500 C   0  0  0  0  0  0
   -4.5040    1.2545   30.0414 C   0  0  0  0  0  0
   -5.0565   -1.1314   29.8057 O   0  0  0  0  0  0
   -3.7021   -1.4567   29.5062 C   0  0  0  0  0  0
   -7.7342   -0.5060   29.9501 O   0  0  0  0  0  0
    2.7076    3.8066   32.4791 H   0  0  0  0  0  0
    0.8738    5.3699   28.2080 H   0  0  0  0  0  0
    0.6374    5.1622   32.4962 H   0  0  0  0  0  0
    4.4357    2.7505   31.1277 H   0  0  0  0  0  0
    4.4958    2.9782   29.3826 H   0  0  0  0  0  0
   -0.7857    6.6751   29.3178 H   0  0  0  0  0  0
   -0.5826    7.0700   31.0080 H   0  0  0  0  0  0
   -5.1089    5.3529   30.6731 H   0  0  0  0  0  0
   -2.8833    3.2882   30.2083 H   0  0  0  0  0  0
   -6.6697    3.8520   30.3887 H   0  0  0  0  0  0
   -8.2804    2.0367   30.2386 H   0  0  0  0  0  0
   -3.4450    1.0486   29.9954 H   0  0  0  0  0  0
   -3.6267   -2.5290   29.3233 H   0  0  0  0  0  0
   -3.3483   -0.9455   28.6086 H   0  0  0  0  0  0
   -3.0395   -1.2174   30.3390 H   0  0  0  0  0  0
   -8.6367   -0.1873   30.0272 H   0  0  0  0  0  0
  1  2  2  0  0  0
  1  6  1  0  0  0
  1 23  1  0  0  0
  2  3  1  0  0  0
  2  7  1  0  0  0
  3  4  2  0  0  0
  4  5  1  0  0  0
  4 24  1  0  0  0
  5  6  2  0  0  0
  5  8  1  0  0  0
  6 25  1  0  0  0
  7 26  1  0  0  0
  7 27  1  0  0  0
  8  9  1  0  0  0
  8 28  1  0  0  0
  8 29  1  0  0  0
  9 10  1  0  0  0
 10 11  1  0  0  0
 10 12  2  0  0  0
 11 13  2  0  0  0
 11 30  1  0  0  0
 13 14  1  0  0  0
 13 31  1  0  0  0
 14 15  2  0  0  0
 14 19  1  0  0  0
 15 16  1  0  0  0
 15 32  1  0  0  0
 16 17  2  0  0  0
 16 33  1  0  0  0
 17 18  1  0  0  0
 17 22  1  0  0  0
 18 19  2  0  0  0
 18 20  1  0  0  0
 19 34  1  0  0  0
 20 21  1  0  0  0
 21 35  1  0  0  0
 21 36  1  0  0  0
 21 37  1  0  0  0
 22 38  1  0  0  0
M  END
> <s_m_entry_id>
10450

> <s_m_entry_name>
dock_pv.519

> <s_m_Source_Path>
/home/csk/Desktop/cluster/DUD-E-result/met

> <s_m_Source_File>
dock_pv.maegz

> <i_m_Source_File_Index>
519

> <chembl_id>
CHEMBL3824255

> <chembl_pref_name>
None

> <i_lp_mmshare_version>
53161

> <i_f3d_flags>
0

> <r_lp_tautomer_probability>
0.999999772200052

> <s_lp_Force_Field>
OPLS_2005

> <r_lp_Energy>
15.602773

> <b_lp_Chiralities_Consistent>
1

> <s_lp_Variant>
CHEMBL3717_lig2419-1

> <s_i_glide_gridfile>
glide-grid_3lq8

> <i_i_glide_lignum>
2745

> <i_i_glide_rotatable_bonds>
7

> <r_i_docking_score>
-7.18730092147776

> <r_i_glide_ligand_efficiency>
-0.326695496430807

> <r_i_glide_ligand_efficiency_sa>
-0.915413629203914

> <r_i_glide_ligand_efficiency_ln>
-1.75683850838012

> <r_i_glide_gscore>
-7.18730092147776

> <r_i_glide_lipo>
-2.95210410278318

> <r_i_glide_hbond>
-0.32

> <r_i_glide_metal>
0

> <r_i_glide_rewards>
-2.72200168049485

> <r_i_glide_evdw>
-37.483470916748

> <r_i_glide_ecoul>
-2.2534396648407

> <r_i_glide_erotb>
1.01899435736378

> <r_i_glide_esite>
0

> <r_i_glide_emodel>
-55.4257892255244

> <r_i_glide_energy>
-39.7369105815887

> <r_i_glide_einternal>
4.06874465942383

> <i_i_glide_confnum>
29

> <i_i_glide_posenum>
265

> <r_i_glide_eff_state_penalty>
0

> <s_user_duplicate_titles>
CHEMBL3717_lig2419

> <s_m_subgroup_title>
dock_pv

> <s_m_subgroupid>
dock_pv

> <b_m_subgroup_collapsed>
1

$$$$
CHEMBL3717_lig2546
                    3D
 Schrodinger Suite 2021-1.
 45 49  0  0  1  0            999 V2000
   -6.6611    2.9180   30.0722 C   0  0  0  0  0  0
   -5.1571    2.6178   30.2086 C   0  0  0  0  0  0
   -4.6530    1.4269   30.2174 N   0  0  0  0  0  0
   -5.4150    0.2846   30.3243 N   0  0  0  0  0  0
   -4.9065   -0.8537   29.8089 C   0  0  0  0  0  0
   -5.5496   -1.8619   30.3800 C   0  0  0  0  0  0
   -5.4877   -3.2129   30.2852 O   0  0  0  0  0  0
   -6.4095   -1.3586   31.2635 N   0  0  0  0  0  0
   -6.3394   -0.0169   31.2920 C   0  0  0  0  0  0
   -6.9607    0.7267   32.0513 O   0  0  0  0  0  0
   -4.2706    3.8133   30.3498 C   0  0  0  0  0  0
   -4.7253    5.1440   30.2077 C   0  0  0  0  0  0
   -3.8971    6.2247   30.2101 N   0  0  0  0  0  0
   -2.6018    5.9512   30.3652 C   0  0  0  0  0  0
   -1.5314    6.7863   30.2654 N   0  0  0  0  0  0
   -0.4126    6.0403   30.5838 N   0  0  0  0  0  0
   -0.7813    4.7522   30.7757 N   0  0  0  0  0  0
    0.2029    3.7355   31.1313 C   0  0  0  0  0  0
    1.5288    3.8446   30.3863 C   0  0  0  0  0  0
    1.5477    3.6746   29.0020 C   0  0  0  0  0  0
    2.7238    3.8311   28.2791 C   0  0  0  0  0  0
    3.9272    4.1561   28.9462 C   0  0  0  0  0  0
    5.0542    4.3543   28.2080 N   0  0  0  0  0  0
    6.2078    4.6312   28.8543 C   0  0  0  0  0  0
    6.3082    4.7557   30.2334 C   0  0  0  0  0  0
    5.1615    4.5861   30.9958 C   0  0  0  0  0  0
    3.9283    4.2845   30.3670 C   0  0  0  0  0  0
    2.7107    4.1314   31.0749 C   0  0  0  0  0  0
   -2.1505    4.6356   30.6081 C   0  0  0  0  0  0
   -2.9444    3.5576   30.6098 N   0  0  0  0  0  0
   -7.0804    3.1929   31.0413 H   0  0  0  0  0  0
   -6.8823    3.7228   29.3778 H   0  0  0  0  0  0
   -7.2360    2.0655   29.7145 H   0  0  0  0  0  0
   -4.1270   -0.8214   29.0608 H   0  0  0  0  0  0
   -4.6879   -3.4776   29.8195 H   0  0  0  0  0  0
   -7.0042   -1.9214   31.8521 H   0  0  0  0  0  0
   -5.7577    5.4019   30.0334 H   0  0  0  0  0  0
    0.3673    3.8066   32.2079 H   0  0  0  0  0  0
   -0.2385    2.7571   30.9457 H   0  0  0  0  0  0
    0.6324    3.4425   28.4758 H   0  0  0  0  0  0
    2.7175    3.7204   27.2047 H   0  0  0  0  0  0
    7.0824    4.7559   28.2307 H   0  0  0  0  0  0
    7.2550    5.0039   30.6916 H   0  0  0  0  0  0
    5.2037    4.7498   32.0612 H   0  0  0  0  0  0
    2.7071    4.2584   32.1485 H   0  0  0  0  0  0
  1  2  1  0  0  0
  1 31  1  0  0  0
  1 32  1  0  0  0
  1 33  1  0  0  0
  2  3  2  0  0  0
  2 11  1  0  0  0
  3  4  1  0  0  0
  4  5  1  0  0  0
  4  9  1  0  0  0
  5  6  2  0  0  0
  5 34  1  0  0  0
  6  7  1  0  0  0
  6  8  1  0  0  0
  7 35  1  0  0  0
  8  9  1  0  0  0
  8 36  1  0  0  0
  9 10  2  0  0  0
 11 12  2  0  0  0
 11 30  1  0  0  0
 12 13  1  0  0  0
 12 37  1  0  0  0
 13 14  2  0  0  0
 14 15  1  0  0  0
 14 29  1  0  0  0
 15 16  2  0  0  0
 16 17  1  0  0  0
 17 18  1  0  0  0
 17 29  1  0  0  0
 18 19  1  0  0  0
 18 38  1  0  0  0
 18 39  1  0  0  0
 19 20  2  0  0  0
 19 28  1  0  0  0
 20 21  1  0  0  0
 20 40  1  0  0  0
 21 22  2  0  0  0
 21 41  1  0  0  0
 22 23  1  0  0  0
 22 27  1  0  0  0
 23 24  2  0  0  0
 24 25  1  0  0  0
 24 42  1  0  0  0
 25 26  2  0  0  0
 25 43  1  0  0  0
 26 27  1  0  0  0
 26 44  1  0  0  0
 27 28  2  0  0  0
 28 45  1  0  0  0
 29 30  2  0  0  0
M  END
> <s_m_entry_id>
10451

> <s_m_entry_name>
dock_pv.520

> <s_m_Source_Path>
/home/csk/Desktop/cluster/DUD-E-result/met

> <s_m_Source_File>
dock_pv.maegz

> <i_m_Source_File_Index>
520

> <chembl_id>
CHEMBL3956952

> <chembl_pref_name>
None

> <i_lp_mmshare_version>
53161

> <i_f3d_flags>
0

> <r_lp_tautomer_probability>
1

> <s_lp_Force_Field>
OPLS_2005

> <r_lp_Energy>
78.241927

> <b_lp_Chiralities_Consistent>
1

> <s_lp_Variant>
CHEMBL3717_lig2546-1

> <s_i_glide_gridfile>
glide-grid_3lq8

> <i_i_glide_lignum>
2890

> <i_i_glide_rotatable_bonds>
5

> <r_i_docking_score>
-7.18728020911484

> <r_i_glide_ligand_efficiency>
-0.239576006970495

> <r_i_glide_ligand_efficiency_sa>
-0.744418355661378

> <r_i_glide_ligand_efficiency_ln>
-1.63302837520104

> <r_i_glide_gscore>
-7.18728020911484

> <r_i_glide_lipo>
-2.90480515655666

> <r_i_glide_hbond>
0

> <r_i_glide_metal>
0

> <r_i_glide_rewards>
-2.3270419659584

> <r_i_glide_evdw>
-43.0793800354004

> <r_i_glide_ecoul>
-1.92288053035736

> <r_i_glide_erotb>
0.486967994723839

> <r_i_glide_esite>
0

> <r_i_glide_emodel>
-62.7719595958914

> <r_i_glide_energy>
-45.0022605657578

> <r_i_glide_einternal>
2.99328184127808

> <i_i_glide_confnum>
7

> <i_i_glide_posenum>
126

> <r_i_glide_eff_state_penalty>
0

> <s_user_duplicate_titles>
CHEMBL3717_lig2546

> <s_m_subgroup_title>
dock_pv

> <s_m_subgroupid>
dock_pv

> <b_m_subgroup_collapsed>
1

$$$$
CHEMBL3717_lig854
                    3D
 Schrodinger Suite 2021-1.
 31 33  0  0  1  0            999 V2000
   -3.1743   -1.2165   31.4601 C   0  0  0  0  0  0
   -4.2714   -1.4312   30.6040 C   0  0  0  0  0  0
   -4.9199   -0.4077   29.9866 N   0  0  0  0  0  0
   -4.4186    0.8162   30.1883 C   0  0  0  0  0  0
   -3.2940    1.0061   31.0080 N   0  0  0  0  0  0
   -2.6691    0.0275   31.6952 N   0  0  0  0  0  0
   -3.0030    2.3570   30.9145 C   0  0  0  0  0  0
   -3.9472    2.9526   30.2080 N   0  0  0  0  0  0
   -4.8293    2.0081   29.7054 N   0  0  0  0  0  0
   -1.8198    3.0439   31.5991 C   0  0  0  0  0  0
   -1.2761    4.3120   30.9348 C   0  0  0  0  0  0
    0.0604    4.3570   30.5225 C   0  0  0  0  0  0
    0.5835    5.5219   29.9645 C   0  0  0  0  0  0
   -0.2272    6.6444   29.8157 C   0  0  0  0  0  0
   -1.5632    6.6072   30.2080 C   0  0  0  0  0  0
   -2.0838    5.4464   30.7816 C   0  0  0  0  0  0
    0.3060    7.7921   29.2967 O   0  0  0  0  0  0
   -4.7506   -2.7071   30.3178 N   0  0  0  0  0  0
   -2.4426   -2.3543   32.1587 C   0  0  0  0  0  0
   -2.0940    3.3080   32.6080 H   0  0  0  0  0  0
   -0.9941    2.3570   31.7526 H   0  0  0  0  0  0
    0.7001    3.4937   30.6369 H   0  0  0  0  0  0
    1.6177    5.5570   29.6552 H   0  0  0  0  0  0
   -2.1892    7.4786   30.0946 H   0  0  0  0  0  0
   -3.1136    5.4302   31.1083 H   0  0  0  0  0  0
   -0.2488    8.5775   29.3826 H   0  0  0  0  0  0
   -4.2292   -3.5283   30.6080 H   0  0  0  0  0  0
   -5.4738   -2.7835   29.6190 H   0  0  0  0  0  0
   -1.7653   -2.8430   31.4577 H   0  0  0  0  0  0
   -1.8546   -2.0027   33.0079 H   0  0  0  0  0  0
   -3.1461   -3.0994   32.5322 H   0  0  0  0  0  0
  1  2  1  0  0  0
  1  6  2  0  0  0
  1 19  1  0  0  0
  2  3  2  0  0  0
  2 18  1  0  0  0
  3  4  1  0  0  0
  4  5  1  0  0  0
  4  9  2  0  0  0
  5  6  1  0  0  0
  5  7  1  0  0  0
  7  8  2  0  0  0
  7 10  1  0  0  0
  8  9  1  0  0  0
 10 11  1  0  0  0
 10 20  1  0  0  0
 10 21  1  0  0  0
 11 12  1  0  0  0
 11 16  2  0  0  0
 12 13  2  0  0  0
 12 22  1  0  0  0
 13 14  1  0  0  0
 13 23  1  0  0  0
 14 15  2  0  0  0
 14 17  1  0  0  0
 15 16  1  0  0  0
 15 24  1  0  0  0
 16 25  1  0  0  0
 17 26  1  0  0  0
 18 27  1  0  0  0
 18 28  1  0  0  0
 19 29  1  0  0  0
 19 30  1  0  0  0
 19 31  1  0  0  0
M  END
> <s_m_entry_id>
10452

> <s_m_entry_name>
dock_pv.521

> <s_m_Source_Path>
/home/csk/Desktop/cluster/DUD-E-result/met

> <s_m_Source_File>
dock_pv.maegz

> <i_m_Source_File_Index>
521

> <chembl_id>
CHEMBL1822003

> <chembl_pref_name>
None

> <i_lp_mmshare_version>
53161

> <i_f3d_flags>
0

> <r_lp_tautomer_probability>
0.999999999997365

> <s_lp_Force_Field>
OPLS_2005

> <r_lp_Energy>
15.90093

> <b_lp_Chiralities_Consistent>
1

> <s_lp_Variant>
CHEMBL3717_lig854-1

> <s_i_glide_gridfile>
glide-grid_3lq8

> <i_i_glide_lignum>
922

> <i_i_glide_rotatable_bonds>
3

> <r_i_docking_score>
-7.18673272974245

> <r_i_glide_ligand_efficiency>
-0.378249091039076

> <r_i_glide_ligand_efficiency_sa>
-1.00932049716562

> <r_i_glide_ligand_efficiency_ln>
-1.82199110385558

> <r_i_glide_gscore>
-7.18673272974245

> <r_i_glide_lipo>
-2.25384257646141

> <r_i_glide_hbond>
-0.406139145434124

> <r_i_glide_metal>
0

> <r_i_glide_rewards>
-2.77001570249342

> <r_i_glide_evdw>
-28.7549648284912

> <r_i_glide_ecoul>
-5.37561655044556

> <r_i_glide_erotb>
0.536708702827988

> <r_i_glide_esite>
-0.049353284190088

> <r_i_glide_emodel>
-48.0854125588762

> <r_i_glide_energy>
-34.1305813789368

> <r_i_glide_einternal>
0.360242813825607

> <i_i_glide_confnum>
1

> <i_i_glide_posenum>
365

> <r_i_glide_eff_state_penalty>
0

> <s_user_duplicate_titles>
CHEMBL3717_lig854

> <s_m_subgroup_title>
dock_pv

> <s_m_subgroupid>
dock_pv

> <b_m_subgroup_collapsed>
1

$$$$
CHEMBL3717_lig4268
                    3D
 Schrodinger Suite 2021-1.
 35 38  0  0  1  0            999 V2000
   -3.1391    3.8073   30.6080 N   0  0  0  0  0  0
   -4.4769    3.9457   30.5725 N   0  0  0  0  0  0
   -5.1671    5.1572   30.7004 C   0  0  0  0  0  0
   -4.4939    6.3036   30.8556 N   0  0  0  0  0  0
   -3.1399    6.2045   30.8528 C   0  0  0  0  0  0
   -2.4580    4.9846   30.7188 C   0  0  0  0  0  0
   -6.6458    3.5611   30.4168 N   0  0  0  0  0  0
   -6.4974    4.9257   30.6352 N   0  0  0  0  0  0
   -5.4544    2.9981   30.3627 C   0  0  0  0  0  0
   -5.1656    1.5352   30.1061 C   0  0  0  0  0  0
   -4.4474    1.0236   31.2215 O   0  0  0  0  0  0
   -2.8932   -0.4914   32.1689 C   0  0  0  0  0  0
   -3.6934   -0.1216   31.0837 C   0  0  0  0  0  0
   -3.6697   -0.9452   29.9444 C   0  0  0  0  0  0
   -2.8480   -2.0722   29.9272 C   0  0  0  0  0  0
   -2.0751   -2.3538   31.0555 C   0  0  0  0  0  0
   -2.0893   -1.5837   32.1724 N   0  0  0  0  0  0
   -0.9662    4.9032   30.6603 C   0  0  0  0  0  0
   -0.2084    5.9997   30.2250 C   0  0  0  0  0  0
    1.1775    5.9285   30.1660 C   0  0  0  0  0  0
    1.8296    4.7563   30.5332 C   0  0  0  0  0  0
    1.1001    3.6513   30.9545 C   0  0  0  0  0  0
   -0.2879    3.7253   31.0105 C   0  0  0  0  0  0
    3.1782    4.6918   30.4771 F   0  0  0  0  0  0
   -2.6111    7.1390   30.9493 H   0  0  0  0  0  0
   -4.5993    1.4390   29.1777 H   0  0  0  0  0  0
   -6.0923    0.9713   29.9932 H   0  0  0  0  0  0
   -2.8888    0.1097   33.0640 H   0  0  0  0  0  0
   -4.2741   -0.7350   29.0751 H   0  0  0  0  0  0
   -2.8228   -2.7221   29.0646 H   0  0  0  0  0  0
   -1.4398   -3.2292   31.0768 H   0  0  0  0  0  0
   -0.6826    6.9195   29.9145 H   0  0  0  0  0  0
    1.7461    6.7781   29.8249 H   0  0  0  0  0  0
    1.6103    2.7403   31.2332 H   0  0  0  0  0  0
   -0.8371    2.8569   31.3457 H   0  0  0  0  0  0
  1  2  1  0  0  0
  1  6  2  0  0  0
  2  3  1  0  0  0
  2  9  1  0  0  0
  3  4  1  0  0  0
  3  8  2  0  0  0
  4  5  2  0  0  0
  5  6  1  0  0  0
  5 25  1  0  0  0
  6 18  1  0  0  0
  7  8  1  0  0  0
  7  9  2  0  0  0
  9 10  1  0  0  0
 10 11  1  0  0  0
 10 26  1  0  0  0
 10 27  1  0  0  0
 11 13  1  0  0  0
 12 13  1  0  0  0
 12 17  2  0  0  0
 12 28  1  0  0  0
 13 14  2  0  0  0
 14 15  1  0  0  0
 14 29  1  0  0  0
 15 16  2  0  0  0
 15 30  1  0  0  0
 16 17  1  0  0  0
 16 31  1  0  0  0
 18 19  1  0  0  0
 18 23  2  0  0  0
 19 20  2  0  0  0
 19 32  1  0  0  0
 20 21  1  0  0  0
 20 33  1  0  0  0
 21 22  2  0  0  0
 21 24  1  0  0  0
 22 23  1  0  0  0
 22 34  1  0  0  0
 23 35  1  0  0  0
M  END
> <s_m_entry_id>
10454

> <s_m_entry_name>
dock_pv.523

> <s_m_Source_Path>
/home/csk/Desktop/cluster/DUD-E-result/met

> <s_m_Source_File>
dock_pv.maegz

> <i_m_Source_File_Index>
523

> <chembl_id>
CHEMBL2170963

> <chembl_pref_name>
None

> <i_lp_mmshare_version>
53161

> <i_f3d_flags>
0

> <r_lp_tautomer_probability>
1

> <s_lp_Force_Field>
OPLS_2005

> <r_lp_Energy>
25.499591

> <b_lp_Chiralities_Consistent>
1

> <s_lp_Variant>
CHEMBL3717_lig4268-1

> <s_i_glide_gridfile>
glide-grid_3lq8

> <i_i_glide_lignum>
5483

> <i_i_glide_rotatable_bonds>
4

> <r_i_docking_score>
-7.18599649985864

> <r_i_glide_ligand_efficiency>
-0.299416520827443

> <r_i_glide_ligand_efficiency_sa>
-0.863666696097712

> <r_i_glide_ligand_efficiency_ln>
-1.71993870630915

> <r_i_glide_gscore>
-7.18599649985864

> <r_i_glide_lipo>
-2.96280084744462

> <r_i_glide_hbond>
0

> <r_i_glide_metal>
0

> <r_i_glide_rewards>
-3.15851622088826

> <r_i_glide_evdw>
-40.4987449645996

> <r_i_glide_ecoul>
1.60149323940277

> <r_i_glide_erotb>
0.720033830793796

> <r_i_glide_esite>
0

> <r_i_glide_emodel>
-55.6530806722078

> <r_i_glide_energy>
-38.8972517251968

> <r_i_glide_einternal>
0.611297130584717

> <i_i_glide_confnum>
40

> <i_i_glide_posenum>
211

> <r_i_glide_eff_state_penalty>
0

> <s_user_duplicate_titles>
CHEMBL3717_lig4268

> <s_m_subgroup_title>
dock_pv

> <s_m_subgroupid>
dock_pv

> <b_m_subgroup_collapsed>
1

$$$$
CHEMBL3717_lig1575
                    3D
 Schrodinger Suite 2021-1.
 44 46  0  0  1  0            999 V2000
   -2.1209    5.0412   30.6172 C   0  0  0  0  0  0
   -2.8264    6.2462   30.6078 C   0  0  0  0  0  0
   -4.1782    6.3168   30.6096 N   0  0  0  0  0  0
   -4.8824    5.1570   30.6075 C   0  0  0  0  0  0
   -4.2669    3.8918   30.5893 C   0  0  0  0  0  0
   -2.8630    3.8541   30.6123 C   0  0  0  0  0  0
   -0.6294    5.0307   30.6124 C   0  0  0  0  0  0
   -6.2686    5.2944   30.6083 N   0  0  0  0  0  0
    0.2385    6.0549   30.1991 C   0  0  0  0  0  0
    1.5060    5.7411   30.3147 N   0  0  0  0  0  0
    1.5123    4.4967   30.8077 N   0  0  0  0  0  0
    0.2402    4.0221   31.0061 C   0  0  0  0  0  0
    2.7840    3.8417   31.1185 C   0  0  0  0  0  0
   -5.2474    2.3914   30.5974 S   0  0  0  0  0  0
   -4.2737    0.9744   30.0090 C   0  0  1  0  0  0
   -4.7560   -0.3439   30.6450 C   0  0  0  0  0  0
   -4.1105    0.9004   28.4823 C   0  0  0  0  0  0
   -5.9817   -0.9447   30.2726 C   0  0  0  0  0  0
   -6.3544   -2.1802   30.8055 C   0  0  0  0  0  0
   -5.5384   -2.8240   31.7299 C   0  0  0  0  0  0
   -4.3563   -2.2254   32.1452 C   0  0  0  0  0  0
   -3.9617   -0.9908   31.6225 C   0  0  0  0  0  0
   -2.4934   -0.2983   32.2430 Cl  0  0  0  0  0  0
   -7.1053   -0.2052   29.1805 Cl  0  0  0  0  0  0
   -3.5851   -2.8464   33.0638 F   0  0  0  0  0  0
    3.6818    3.7296   29.8681 C   0  0  0  0  0  0
    4.9306    3.1575   30.2079 O   0  0  0  0  0  0
   -2.3054    7.1925   30.6084 H   0  0  0  0  0  0
   -2.3213    2.9262   30.6243 H   0  0  0  0  0  0
   -6.8240    4.4600   30.4914 H   0  0  0  0  0  0
   -6.6280    6.1992   30.3361 H   0  0  0  0  0  0
   -0.0560    7.0201   29.8142 H   0  0  0  0  0  0
    0.0680    3.0372   31.4107 H   0  0  0  0  0  0
    3.2574    4.4483   31.8913 H   0  0  0  0  0  0
    2.5427    2.8474   31.5014 H   0  0  0  0  0  0
   -3.2663    1.1488   30.3541 H   0  0  0  0  0  0
   -3.4427    0.0842   28.2078 H   0  0  0  0  0  0
   -5.0491    0.7572   27.9559 H   0  0  0  0  0  0
   -3.6941    1.8234   28.0878 H   0  0  0  0  0  0
   -7.2811   -2.6422   30.4989 H   0  0  0  0  0  0
   -5.8216   -3.7870   32.1310 H   0  0  0  0  0  0
    3.1813    3.1509   29.0905 H   0  0  0  0  0  0
    3.8448    4.7074   29.4124 H   0  0  0  0  0  0
    5.4069    2.9387   29.3969 H   0  0  0  0  0  0
  1  2  2  0  0  0
  1  6  1  0  0  0
  1  7  1  0  0  0
  2  3  1  0  0  0
  2 28  1  0  0  0
  3  4  2  0  0  0
  4  5  1  0  0  0
  4  8  1  0  0  0
  5  6  2  0  0  0
  5 14  1  0  0  0
  6 29  1  0  0  0
  7  9  1  0  0  0
  7 12  2  0  0  0
  8 30  1  0  0  0
  8 31  1  0  0  0
  9 10  2  0  0  0
  9 32  1  0  0  0
 10 11  1  0  0  0
 11 12  1  0  0  0
 11 13  1  0  0  0
 12 33  1  0  0  0
 13 26  1  0  0  0
 13 34  1  0  0  0
 13 35  1  0  0  0
 14 15  1  0  0  0
 15 16  1  0  0  0
 15 17  1  0  0  0
 15 36  1  0  0  0
 16 18  2  0  0  0
 16 22  1  0  0  0
 17 37  1  0  0  0
 17 38  1  0  0  0
 17 39  1  0  0  0
 18 19  1  0  0  0
 18 24  1  0  0  0
 19 20  2  0  0  0
 19 40  1  0  0  0
 20 21  1  0  0  0
 20 41  1  0  0  0
 21 22  2  0  0  0
 21 25  1  0  0  0
 22 23  1  0  0  0
 26 27  1  0  0  0
 26 42  1  0  0  0
 26 43  1  0  0  0
 27 44  1  0  0  0
M  END
> <s_m_entry_id>
10455

> <s_m_entry_name>
dock_pv.524

> <s_m_Source_Path>
/home/csk/Desktop/cluster/DUD-E-result/met

> <s_m_Source_File>
dock_pv.maegz

> <i_m_Source_File_Index>
524

> <chembl_id>
CHEMBL2442129

> <chembl_pref_name>
None

> <i_lp_mmshare_version>
53161

> <i_f3d_flags>
0

> <r_lp_tautomer_probability>
0.999999772200052

> <s_lp_Force_Field>
OPLS_2005

> <r_lp_Energy>
15.128731

> <b_lp_Chiralities_Consistent>
1

> <s_lp_Variant>
CHEMBL3717_lig1575-2

> <s_i_glide_gridfile>
glide-grid_3lq8

> <i_i_glide_lignum>
1825

> <i_i_glide_rotatable_bonds>
7

> <r_i_docking_score>
-7.18279189574948

> <r_i_glide_ligand_efficiency>
-0.266029329472203

> <r_i_glide_ligand_efficiency_sa>
-0.79808798753982

> <r_i_glide_ligand_efficiency_ln>
-1.67203553575124

> <r_i_glide_gscore>
-7.18279189574948

> <r_i_glide_lipo>
-3.13303927128416

> <r_i_glide_hbond>
-0.374201468055921

> <r_i_glide_metal>
0

> <r_i_glide_rewards>
-1.38348998227358

> <r_i_glide_evdw>
-43.097053527832

> <r_i_glide_ecoul>
-4.99150657653809

> <r_i_glide_erotb>
0.652353924268495

> <r_i_glide_esite>
-0.0408364355320007

> <r_i_glide_emodel>
-65.3582845752105

> <r_i_glide_energy>
-48.0885601043701

> <r_i_glide_einternal>
6.56963443756104

> <i_i_glide_confnum>
29

> <i_i_glide_posenum>
325

> <r_i_glide_eff_state_penalty>
0

> <s_user_duplicate_titles>
CHEMBL3717_lig1575

> <s_m_subgroup_title>
dock_pv

> <s_m_subgroupid>
dock_pv

> <b_m_subgroup_collapsed>
1

$$$$
CHEMBL3717_lig1323
                    3D
 Schrodinger Suite 2021-1.
 37 41  0  0  1  0            999 V2000
   -1.6773    3.9088   30.6083 N   0  0  0  0  0  0
   -2.9136    4.4486   30.6081 N   0  0  0  0  0  0
   -3.2009    5.8200   30.6073 C   0  0  0  0  0  0
   -2.2148    6.7209   30.5878 N   0  0  0  0  0  0
   -0.9496    6.2139   30.6057 C   0  0  0  0  0  0
   -0.6809    4.8391   30.6111 C   0  0  0  0  0  0
   -5.1016    4.7363   30.6053 N   0  0  0  0  0  0
   -4.5363    6.0020   30.6155 N   0  0  0  0  0  0
   -4.1411    3.8283   30.5665 C   0  0  0  0  0  0
   -4.2953    2.3244   30.4699 C   0  0  0  0  0  0
   -5.9592    1.7527   30.0422 S   0  0  0  0  0  0
   -7.2616   -1.9196   29.6042 C   0  0  0  0  0  0
   -6.2609   -2.8158   29.8077 N   0  0  0  0  0  0
   -5.0907   -2.2319   30.0780 C   0  0  0  0  0  0
   -4.8531   -0.8411   30.1758 C   0  0  0  0  0  0
   -5.9805   -0.0164   29.9550 C   0  0  0  0  0  0
   -7.1888   -0.5668   29.6620 N   0  0  0  0  0  0
   -2.9115   -1.9480   30.5738 N   0  0  0  0  0  0
   -3.8847   -2.8429   30.3294 N   0  0  0  0  0  0
   -3.4545   -0.7608   30.4868 C   0  0  0  0  0  0
    0.7048    4.3235   30.6125 C   0  0  0  0  0  0
    1.1988    3.6002   29.5216 C   0  0  0  0  0  0
    2.5191    3.1571   29.5147 C   0  0  0  0  0  0
    3.3433    3.4271   30.6044 C   0  0  0  0  0  0
    2.8590    4.1422   31.6956 C   0  0  0  0  0  0
    1.5431    4.5968   31.6961 C   0  0  0  0  0  0
    4.6232    2.9932   30.6038 F   0  0  0  0  0  0
   -0.1456    6.9362   30.6000 H   0  0  0  0  0  0
   -4.0030    1.8566   31.4072 H   0  0  0  0  0  0
   -3.6295    1.9478   29.6943 H   0  0  0  0  0  0
   -8.2276   -2.3345   29.3588 H   0  0  0  0  0  0
   -3.6938   -3.8447   30.3693 H   0  0  0  0  0  0
   -2.8335    0.1041   30.6475 H   0  0  0  0  0  0
    0.5658    3.3863   28.6720 H   0  0  0  0  0  0
    2.9008    2.5972   28.6727 H   0  0  0  0  0  0
    3.5034    4.3524   32.5340 H   0  0  0  0  0  0
    1.1731    5.1589   32.5412 H   0  0  0  0  0  0
  1  2  1  0  0  0
  1  6  2  0  0  0
  2  3  1  0  0  0
  2  9  1  0  0  0
  3  4  1  0  0  0
  3  8  2  0  0  0
  4  5  2  0  0  0
  5  6  1  0  0  0
  5 28  1  0  0  0
  6 21  1  0  0  0
  7  8  1  0  0  0
  7  9  2  0  0  0
  9 10  1  0  0  0
 10 11  1  0  0  0
 10 29  1  0  0  0
 10 30  1  0  0  0
 11 16  1  0  0  0
 12 13  1  0  0  0
 12 17  2  0  0  0
 12 31  1  0  0  0
 13 14  2  0  0  0
 14 15  1  0  0  0
 14 19  1  0  0  0
 15 16  2  0  0  0
 15 20  1  0  0  0
 16 17  1  0  0  0
 18 19  1  0  0  0
 18 20  2  0  0  0
 19 32  1  0  0  0
 20 33  1  0  0  0
 21 22  1  0  0  0
 21 26  2  0  0  0
 22 23  2  0  0  0
 22 34  1  0  0  0
 23 24  1  0  0  0
 23 35  1  0  0  0
 24 25  2  0  0  0
 24 27  1  0  0  0
 25 26  1  0  0  0
 25 36  1  0  0  0
 26 37  1  0  0  0
M  END
> <s_m_entry_id>
10456

> <s_m_entry_name>
dock_pv.525

> <s_m_Source_Path>
/home/csk/Desktop/cluster/DUD-E-result/met

> <s_m_Source_File>
dock_pv.maegz

> <i_m_Source_File_Index>
525

> <chembl_id>
CHEMBL2170965

> <chembl_pref_name>
None

> <i_lp_mmshare_version>
53161

> <i_f3d_flags>
0

> <r_lp_tautomer_probability>
1

> <s_lp_Force_Field>
OPLS_2005

> <r_lp_Energy>
16.54334

> <b_lp_Chiralities_Consistent>
1

> <s_lp_Variant>
CHEMBL3717_lig1323-1

> <s_i_glide_gridfile>
glide-grid_3lq8

> <i_i_glide_lignum>
1509

> <i_i_glide_rotatable_bonds>
4

> <r_i_docking_score>
-7.18241624469374

> <r_i_glide_ligand_efficiency>
-0.266015416470138

> <r_i_glide_ligand_efficiency_sa>
-0.798046248533672

> <r_i_glide_ligand_efficiency_ln>
-1.67194809037856

> <r_i_glide_gscore>
-7.18241624469374

> <r_i_glide_lipo>
-2.62149459091089

> <r_i_glide_hbond>
-0.16

> <r_i_glide_metal>
0

> <r_i_glide_rewards>
-2.32888527539001

> <r_i_glide_evdw>
-42.3469696044922

> <r_i_glide_ecoul>
-2.62707686424255

> <r_i_glide_erotb>
0.538866722338813

> <r_i_glide_esite>
-0.0994930908706556

> <r_i_glide_emodel>
-61.7956729429036

> <r_i_glide_energy>
-44.9740464687347

> <r_i_glide_einternal>
4.47012662887573

> <i_i_glide_confnum>
68

> <i_i_glide_posenum>
199

> <r_i_glide_eff_state_penalty>
0

> <s_user_duplicate_titles>
CHEMBL3717_lig1323

> <s_m_subgroup_title>
dock_pv

> <s_m_subgroupid>
dock_pv

> <b_m_subgroup_collapsed>
1

$$$$
CHEMBL3717_lig2508
                    3D
 Schrodinger Suite 2021-1.
 44 47  0  0  1  0            999 V2000
   -5.4052    1.0849   29.9451 C   0  0  0  0  0  0
   -4.1037    1.4260   30.7009 C   0  0  0  0  0  0
   -3.4307    0.5873   31.4060 N   0  0  0  0  0  0
   -3.9433   -0.6542   31.5544 N   0  0  0  0  0  0
   -3.2771   -1.7207   32.0811 C   0  0  0  0  0  0
   -1.6940   -1.7681   32.6079 S   0  0  0  0  0  0
   -4.0240   -2.8429   32.1378 N   0  0  0  0  0  0
   -3.6682    2.8470   30.6080 C   0  0  0  0  0  0
   -4.5397    3.8899   30.2504 C   0  0  0  0  0  0
   -4.0763    5.2037   30.1553 C   0  0  0  0  0  0
   -2.7156    5.4460   30.3960 C   0  0  0  0  0  0
   -1.9619    6.5662   30.2741 N   0  0  0  0  0  0
   -0.7496    6.1702   30.6080 C   0  0  0  0  0  0
   -0.6612    4.8273   30.9839 C   0  0  0  0  0  0
    0.4919    3.9550   31.4751 C   0  0  0  0  0  0
    1.7600    4.0530   30.6353 C   0  0  0  0  0  0
    2.9974    4.2778   31.2448 C   0  0  0  0  0  0
    4.1734    4.3589   30.4585 C   0  0  0  0  0  0
    5.4605    4.5871   31.0080 C   0  0  0  0  0  0
    6.5682    4.6319   30.1737 C   0  0  0  0  0  0
    6.3682    4.5104   28.8035 C   0  0  0  0  0  0
    5.1562    4.3570   28.2272 N   0  0  0  0  0  0
    4.0765    4.2289   29.0412 C   0  0  0  0  0  0
    2.8263    3.9573   28.4567 C   0  0  0  0  0  0
    1.6984    3.8566   29.2548 C   0  0  0  0  0  0
    0.5272    3.5572   28.6709 F   0  0  0  0  0  0
   -1.9377    4.3458   30.7941 N   0  0  0  0  0  0
   -2.3610    3.0806   30.9282 N   0  0  0  0  0  0
   -5.4813    1.6274   29.0038 H   0  0  0  0  0  0
   -5.5015    0.0280   29.6978 H   0  0  0  0  0  0
   -6.2738    1.3458   30.5506 H   0  0  0  0  0  0
   -4.8474   -0.7975   31.1295 H   0  0  0  0  0  0
   -3.5640   -3.7434   32.1977 H   0  0  0  0  0  0
   -5.0126   -2.8096   31.9396 H   0  0  0  0  0  0
   -5.5834    3.7012   30.0438 H   0  0  0  0  0  0
   -4.7407    6.0021   29.8536 H   0  0  0  0  0  0
    0.0779    6.8654   30.6018 H   0  0  0  0  0  0
    0.7089    4.2055   32.5129 H   0  0  0  0  0  0
    0.2199    2.8986   31.4822 H   0  0  0  0  0  0
    3.0713    4.3957   32.3164 H   0  0  0  0  0  0
    5.5730    4.7569   32.0685 H   0  0  0  0  0  0
    7.5597    4.7969   30.5696 H   0  0  0  0  0  0
    7.2082    4.5628   28.1265 H   0  0  0  0  0  0
    2.7473    3.8222   27.3881 H   0  0  0  0  0  0
  1  2  1  0  0  0
  1 29  1  0  0  0
  1 30  1  0  0  0
  1 31  1  0  0  0
  2  3  2  0  0  0
  2  8  1  0  0  0
  3  4  1  0  0  0
  4  5  1  0  0  0
  4 32  1  0  0  0
  5  6  2  0  0  0
  5  7  1  0  0  0
  7 33  1  0  0  0
  7 34  1  0  0  0
  8  9  1  0  0  0
  8 28  2  0  0  0
  9 10  2  0  0  0
  9 35  1  0  0  0
 10 11  1  0  0  0
 10 36  1  0  0  0
 11 12  2  0  0  0
 11 27  1  0  0  0
 12 13  1  0  0  0
 13 14  2  0  0  0
 13 37  1  0  0  0
 14 15  1  0  0  0
 14 27  1  0  0  0
 15 16  1  0  0  0
 15 38  1  0  0  0
 15 39  1  0  0  0
 16 17  2  0  0  0
 16 25  1  0  0  0
 17 18  1  0  0  0
 17 40  1  0  0  0
 18 19  2  0  0  0
 18 23  1  0  0  0
 19 20  1  0  0  0
 19 41  1  0  0  0
 20 21  2  0  0  0
 20 42  1  0  0  0
 21 22  1  0  0  0
 21 43  1  0  0  0
 22 23  2  0  0  0
 23 24  1  0  0  0
 24 25  2  0  0  0
 24 44  1  0  0  0
 25 26  1  0  0  0
 27 28  1  0  0  0
M  END
> <s_m_entry_id>
10457

> <s_m_entry_name>
dock_pv.526

> <s_m_Source_Path>
/home/csk/Desktop/cluster/DUD-E-result/met

> <s_m_Source_File>
dock_pv.maegz

> <i_m_Source_File_Index>
526

> <chembl_id>
CHEMBL3674493

> <chembl_pref_name>
None

> <i_lp_mmshare_version>
53161

> <i_f3d_flags>
0

> <r_lp_tautomer_probability>
1

> <s_lp_Force_Field>
OPLS_2005

> <r_lp_Energy>
17.449801

> <b_lp_Chiralities_Consistent>
1

> <s_lp_Variant>
CHEMBL3717_lig2508-1

> <s_i_glide_gridfile>
glide-grid_3lq8

> <i_i_glide_lignum>
2842

> <i_i_glide_rotatable_bonds>
5

> <r_i_docking_score>
-7.18240531607467

> <r_i_glide_ligand_efficiency>
-0.256514475574096

> <r_i_glide_ligand_efficiency_sa>
-0.778929026789584

> <r_i_glide_ligand_efficiency_ln>
-1.65791003153362

> <r_i_glide_gscore>
-7.18240531607467

> <r_i_glide_lipo>
-3.44062325907025

> <r_i_glide_hbond>
-0.050040001461022

> <r_i_glide_metal>
0

> <r_i_glide_rewards>
-1.68452582598785

> <r_i_glide_evdw>
-42.0154228210449

> <r_i_glide_ecoul>
-2.35377526283264

> <r_i_glide_erotb>
0.504789081469584

> <r_i_glide_esite>
-0.0581678805479902

> <r_i_glide_emodel>
-56.2563128299647

> <r_i_glide_energy>
-44.3691980838776

> <r_i_glide_einternal>
11.9495296478271

> <i_i_glide_confnum>
12

> <i_i_glide_posenum>
190

> <r_i_glide_eff_state_penalty>
0

> <s_user_duplicate_titles>
CHEMBL3717_lig2508

> <s_m_subgroup_title>
dock_pv

> <s_m_subgroupid>
dock_pv

> <b_m_subgroup_collapsed>
1

$$$$
CHEMBL3717_lig1880
                    3D
 Schrodinger Suite 2021-1.
 41 45  0  0  1  0            999 V2000
   -3.8491    2.7498   30.5796 C   0  0  0  0  0  0
   -4.6138    3.9058   30.3092 C   0  0  0  0  0  0
   -4.0970    5.1670   30.3059 N   0  0  0  0  0  0
   -2.5138    2.8503   30.8723 N   0  0  0  0  0  0
   -2.0218    4.0920   30.8335 C   0  0  0  0  0  0
   -2.7864    5.2442   30.5509 C   0  0  0  0  0  0
   -1.9668    6.3317   30.5204 N   0  0  0  0  0  0
   -0.6871    5.8801   30.7904 N   0  0  0  0  0  0
   -0.7299    4.5479   31.0085 N   0  0  0  0  0  0
    0.4591    3.8077   31.4106 C   0  0  0  0  0  0
    1.6695    3.9324   30.4997 C   0  0  0  0  0  0
    1.5494    3.7203   29.1250 C   0  0  0  0  0  0
    2.6523    3.8216   28.2769 C   0  0  0  0  0  0
    2.9213    4.2138   31.0465 C   0  0  0  0  0  0
    4.0046    4.3210   30.2178 N   0  0  0  0  0  0
    3.9054    4.1502   28.8251 C   0  0  0  0  0  0
    5.1058    4.3570   28.2250 N   0  0  0  0  0  0
    5.9341    4.5869   29.2185 C   0  0  0  0  0  0
    5.3261    4.5849   30.4665 C   0  0  0  0  0  0
   -4.3683    1.4568   30.4399 N   0  0  0  0  0  0
   -5.8124    1.2180   30.2335 C   0  0  0  0  0  0
   -6.1553   -0.1937   29.7109 C   0  0  0  0  0  0
   -5.5741   -1.1789   30.5482 O   0  0  0  0  0  0
   -4.1601   -1.0715   30.5555 C   0  0  0  0  0  0
   -3.7442    0.3017   31.1244 C   0  0  0  0  0  0
   -5.6674    3.8587   30.0883 H   0  0  0  0  0  0
    0.1925    2.7569   31.4741 H   0  0  0  0  0  0
    0.7099    4.1291   32.4210 H   0  0  0  0  0  0
    0.5867    3.4699   28.7051 H   0  0  0  0  0  0
    2.5368    3.6553   27.2177 H   0  0  0  0  0  0
    3.1008    4.3577   32.1011 H   0  0  0  0  0  0
    6.9844    4.7527   29.0335 H   0  0  0  0  0  0
    5.7287    4.7567   31.4507 H   0  0  0  0  0  0
   -6.3496    1.4234   31.1607 H   0  0  0  0  0  0
   -6.1918    1.9127   29.4854 H   0  0  0  0  0  0
   -5.8235   -0.3201   28.6775 H   0  0  0  0  0  0
   -7.2358   -0.3364   29.7054 H   0  0  0  0  0  0
   -3.7539   -1.2205   29.5520 H   0  0  0  0  0  0
   -3.7532   -1.8719   31.1737 H   0  0  0  0  0  0
   -2.6586    0.3598   31.0400 H   0  0  0  0  0  0
   -3.9741    0.3526   32.1898 H   0  0  0  0  0  0
  1  2  1  0  0  0
  1  4  2  0  0  0
  1 20  1  0  0  0
  2  3  2  0  0  0
  2 26  1  0  0  0
  3  6  1  0  0  0
  4  5  1  0  0  0
  5  6  2  0  0  0
  5  9  1  0  0  0
  6  7  1  0  0  0
  7  8  2  0  0  0
  8  9  1  0  0  0
  9 10  1  0  0  0
 10 11  1  0  0  0
 10 27  1  0  0  0
 10 28  1  0  0  0
 11 12  1  0  0  0
 11 14  2  0  0  0
 12 13  2  0  0  0
 12 29  1  0  0  0
 13 16  1  0  0  0
 13 30  1  0  0  0
 14 15  1  0  0  0
 14 31  1  0  0  0
 15 16  1  0  0  0
 15 19  1  0  0  0
 16 17  2  0  0  0
 17 18  1  0  0  0
 18 19  2  0  0  0
 18 32  1  0  0  0
 19 33  1  0  0  0
 20 21  1  0  0  0
 20 25  1  0  0  0
 21 22  1  0  0  0
 21 34  1  0  0  0
 21 35  1  0  0  0
 22 23  1  0  0  0
 22 36  1  0  0  0
 22 37  1  0  0  0
 23 24  1  0  0  0
 24 25  1  0  0  0
 24 38  1  0  0  0
 24 39  1  0  0  0
 25 40  1  0  0  0
 25 41  1  0  0  0
M  END
> <s_m_entry_id>
10458

> <s_m_entry_name>
dock_pv.527

> <s_m_Source_Path>
/home/csk/Desktop/cluster/DUD-E-result/met

> <s_m_Source_File>
dock_pv.maegz

> <i_m_Source_File_Index>
527

> <chembl_id>
CHEMBL3334566

> <chembl_pref_name>
None

> <i_lp_mmshare_version>
53161

> <i_f3d_flags>
0

> <r_lp_tautomer_probability>
1

> <s_lp_Force_Field>
OPLS_2005

> <r_lp_Energy>
31.834576

> <b_lp_Chiralities_Consistent>
1

> <s_lp_Variant>
CHEMBL3717_lig1880-1

> <s_i_glide_gridfile>
glide-grid_3lq8

> <i_i_glide_lignum>
2172

> <i_i_glide_rotatable_bonds>
3

> <r_i_docking_score>
-7.18219042170752

> <r_i_glide_ligand_efficiency>
-0.287287616868301

> <r_i_glide_ligand_efficiency_sa>
-0.840034086790491

> <r_i_glide_ligand_efficiency_ln>
-1.70239436282339

> <r_i_glide_gscore>
-7.18219042170752

> <r_i_glide_lipo>
-2.247746292195

> <r_i_glide_hbond>
0

> <r_i_glide_metal>
0

> <r_i_glide_rewards>
-3.28387555014944

> <r_i_glide_evdw>
-41.4838829040527

> <r_i_glide_ecoul>
-0.514448344707489

> <r_i_glide_erotb>
0.500792817545683

> <r_i_glide_esite>
0

> <r_i_glide_emodel>
-58.0554701436822

> <r_i_glide_energy>
-41.9983312487602

> <r_i_glide_einternal>
1.38365077972412

> <i_i_glide_confnum>
3

> <i_i_glide_posenum>
174

> <r_i_glide_eff_state_penalty>
0

> <s_user_duplicate_titles>
CHEMBL3717_lig1880

> <s_m_subgroup_title>
dock_pv

> <s_m_subgroupid>
dock_pv

> <b_m_subgroup_collapsed>
1

$$$$
CHEMBL3717_lig1569
                    3D
 Schrodinger Suite 2021-1.
 38 40  0  0  1  0            999 V2000
   -5.3731    1.3927   30.6448 C   0  0  0  0  0  0
   -6.7115    1.6459   30.9719 C   0  0  0  0  0  0
   -7.2757    2.8811   30.9004 N   0  0  0  0  0  0
   -6.4949    3.9218   30.5168 C   0  0  0  0  0  0
   -5.1361    3.7596   30.2080 C   0  0  0  0  0  0
   -4.5952    2.4786   30.2406 C   0  0  0  0  0  0
   -4.7570    0.0513   30.7663 C   0  0  0  0  0  0
   -7.1270    5.1570   30.4047 N   0  0  0  0  0  0
   -4.0940    5.0929   29.6948 S   0  0  0  0  0  0
   -3.0659    5.5038   31.0799 C   0  0  1  0  0  0
   -1.5438    5.4060   30.7859 C   0  0  0  0  0  0
   -3.6940    6.7686   31.6528 C   0  0  0  0  0  0
   -0.8128    6.4620   30.2080 C   0  0  0  0  0  0
    0.5514    6.3509   29.9495 C   0  0  0  0  0  0
    1.2319    5.1879   30.2739 C   0  0  0  0  0  0
    0.5444    4.1283   30.8486 C   0  0  0  0  0  0
   -0.8342    4.2163   31.0853 C   0  0  0  0  0  0
   -1.6071    2.8362   31.8050 Cl  0  0  0  0  0  0
   -1.5317    7.9570   29.8080 Cl  0  0  0  0  0  0
    1.2404    3.0224   31.1938 F   0  0  0  0  0  0
   -4.9492   -0.7563   31.8948 C   0  0  0  0  0  0
   -4.3114   -1.9414   32.0738 N   0  0  0  0  0  0
   -3.4733   -2.3156   31.0751 C   0  0  0  0  0  0
   -3.2323   -1.6381   29.9264 N   0  0  0  0  0  0
   -3.8881   -0.4583   29.7904 C   0  0  0  0  0  0
   -7.3611    0.8461   31.2976 H   0  0  0  0  0  0
   -3.5598    2.3306   29.9731 H   0  0  0  0  0  0
   -6.6202    5.8991   29.9354 H   0  0  0  0  0  0
   -8.1349    5.1800   30.4485 H   0  0  0  0  0  0
   -3.2890    4.7570   31.8080 H   0  0  0  0  0  0
   -3.2940    7.0463   32.6080 H   0  0  0  0  0  0
   -3.6940    7.6325   30.9998 H   0  0  0  0  0  0
   -4.7518    6.5672   31.8080 H   0  0  0  0  0  0
    1.0886    7.1788   29.5092 H   0  0  0  0  0  0
    2.2934    5.1094   30.0901 H   0  0  0  0  0  0
   -5.5975   -0.4430   32.6989 H   0  0  0  0  0  0
   -2.9424   -3.2430   31.2024 H   0  0  0  0  0  0
   -3.6940    0.0806   28.8740 H   0  0  0  0  0  0
  1  2  2  0  0  0
  1  6  1  0  0  0
  1  7  1  0  0  0
  2  3  1  0  0  0
  2 26  1  0  0  0
  3  4  2  0  0  0
  4  5  1  0  0  0
  4  8  1  0  0  0
  5  6  2  0  0  0
  5  9  1  0  0  0
  6 27  1  0  0  0
  7 21  2  0  0  0
  7 25  1  0  0  0
  8 28  1  0  0  0
  8 29  1  0  0  0
  9 10  1  0  0  0
 10 11  1  0  0  0
 10 12  1  0  0  0
 10 30  1  0  0  0
 11 13  2  0  0  0
 11 17  1  0  0  0
 12 31  1  0  0  0
 12 32  1  0  0  0
 12 33  1  0  0  0
 13 14  1  0  0  0
 13 19  1  0  0  0
 14 15  2  0  0  0
 14 34  1  0  0  0
 15 16  1  0  0  0
 15 35  1  0  0  0
 16 17  2  0  0  0
 16 20  1  0  0  0
 17 18  1  0  0  0
 21 22  1  0  0  0
 21 36  1  0  0  0
 22 23  2  0  0  0
 23 24  1  0  0  0
 23 37  1  0  0  0
 24 25  2  0  0  0
 25 38  1  0  0  0
M  END
> <s_m_entry_id>
10459

> <s_m_entry_name>
dock_pv.528

> <s_m_Source_Path>
/home/csk/Desktop/cluster/DUD-E-result/met

> <s_m_Source_File>
dock_pv.maegz

> <i_m_Source_File_Index>
528

> <chembl_id>
CHEMBL2442135

> <chembl_pref_name>
None

> <i_lp_mmshare_version>
53161

> <i_f3d_flags>
0

> <r_lp_tautomer_probability>
0.999999772200052

> <s_lp_Force_Field>
OPLS_2005

> <r_lp_Energy>
8.683507

> <b_lp_Chiralities_Consistent>
1

> <s_lp_Variant>
CHEMBL3717_lig1569-2

> <s_i_glide_gridfile>
glide-grid_3lq8

> <i_i_glide_lignum>
1813

> <i_i_glide_rotatable_bonds>
4

> <r_i_docking_score>
-7.18000192722336

> <r_i_glide_ligand_efficiency>
-0.287200077088935

> <r_i_glide_ligand_efficiency_sa>
-0.8397781189231

> <r_i_glide_ligand_efficiency_ln>
-1.70187562404676

> <r_i_glide_gscore>
-7.18000192722336

> <r_i_glide_lipo>
-3.89518091412849

> <r_i_glide_hbond>
-0.259822330685166

> <r_i_glide_metal>
0

> <r_i_glide_rewards>
-1.57618348955741

> <r_i_glide_evdw>
-28.4612331390381

> <r_i_glide_ecoul>
-3.16236186027527

> <r_i_glide_erotb>
0.500572560927986

> <r_i_glide_esite>
-0.0519718177870903

> <r_i_glide_emodel>
-35.32088660958

> <r_i_glide_energy>
-31.6235949993134

> <r_i_glide_einternal>
12.5044202804565

> <i_i_glide_confnum>
15

> <i_i_glide_posenum>
67

> <r_i_glide_eff_state_penalty>
0

> <s_user_duplicate_titles>
CHEMBL3717_lig1569

> <s_m_subgroup_title>
dock_pv

> <s_m_subgroupid>
dock_pv

> <b_m_subgroup_collapsed>
1

$$$$
CHEMBL3717_lig2603
                    3D
 Schrodinger Suite 2021-1.
 52 56  0  0  1  0            999 V2000
   -6.3507    2.8565   30.4670 C   0  0  0  0  0  0
   -4.8311    2.6218   30.5092 C   0  0  0  0  0  0
   -4.2928    1.4649   30.4013 N   0  0  0  0  0  0
   -5.2308    0.4563   30.1062 O   0  0  0  0  0  0
   -4.6368   -0.8416   30.1319 C   0  0  0  0  0  0
   -5.6837   -1.8274   29.5772 C   0  0  0  0  0  0
   -5.1145   -3.2521   29.4474 C   0  0  0  0  0  0
   -3.9171   -3.2364   28.6080 N   0  0  2  0  0  0
   -2.8581   -2.4835   29.2734 C   0  0  0  0  0  0
   -3.2788   -1.0028   29.3930 C   0  0  0  0  0  0
   -3.9942    3.8473   30.6071 C   0  0  0  0  0  0
   -4.4876    5.1333   30.3000 C   0  0  0  0  0  0
   -3.6930    6.2335   30.2081 N   0  0  0  0  0  0
   -2.3907    6.0140   30.3958 C   0  0  0  0  0  0
   -1.3408    6.8609   30.2082 N   0  0  0  0  0  0
   -0.2046    6.1753   30.5998 N   0  0  0  0  0  0
   -0.5474    4.9132   30.9527 N   0  0  0  0  0  0
    0.4556    3.9527   31.4083 C   0  0  0  0  0  0
    1.7264    3.9474   30.5802 C   0  0  0  0  0  0
    1.6572    3.7370   29.2027 C   0  0  0  0  0  0
    2.7948    3.8508   28.4132 C   0  0  0  0  0  0
    4.0354    4.1736   29.0086 C   0  0  0  0  0  0
    5.1146    4.3569   28.2080 N   0  0  0  0  0  0
    6.3059    4.6220   28.7863 C   0  0  0  0  0  0
    6.4943    4.7405   30.1580 C   0  0  0  0  0  0
    5.3936    4.6014   30.9888 C   0  0  0  0  0  0
    4.1236    4.3178   30.4252 C   0  0  0  0  0  0
    2.9504    4.2025   31.1994 C   0  0  0  0  0  0
   -1.9080    4.7462   30.7871 C   0  0  0  0  0  0
   -2.6685    3.6556   30.9123 N   0  0  0  0  0  0
   -6.6592    3.6356   31.1634 H   0  0  0  0  0  0
   -6.6634    3.1514   29.4660 H   0  0  0  0  0  0
   -6.9284    1.9673   30.7209 H   0  0  0  0  0  0
   -4.4802   -1.0695   31.1885 H   0  0  0  0  0  0
   -6.0634   -1.5074   28.6075 H   0  0  0  0  0  0
   -6.5285   -1.8843   30.2643 H   0  0  0  0  0  0
   -5.8526   -3.9235   29.0084 H   0  0  0  0  0  0
   -4.8744   -3.6432   30.4367 H   0  0  0  0  0  0
   -4.1341   -2.6947   27.7729 H   0  0  0  0  0  0
   -1.9458   -2.5729   28.6827 H   0  0  0  0  0  0
   -2.6504   -2.9157   30.2542 H   0  0  0  0  0  0
   -2.4963   -0.5081   29.9679 H   0  0  0  0  0  0
   -3.2939   -0.5514   28.4003 H   0  0  0  0  0  0
   -5.5217    5.3152   30.0454 H   0  0  0  0  0  0
    0.7061    4.1984   32.4411 H   0  0  0  0  0  0
    0.0152    2.9552   31.4075 H   0  0  0  0  0  0
    0.7069    3.5219   28.7329 H   0  0  0  0  0  0
    2.7287    3.7220   27.3426 H   0  0  0  0  0  0
    7.1387    4.7488   28.1100 H   0  0  0  0  0  0
    7.4699    4.9743   30.5595 H   0  0  0  0  0  0
    5.4983    4.7570   32.0515 H   0  0  0  0  0  0
    3.0120    4.3540   32.2674 H   0  0  0  0  0  0
  1  2  1  0  0  0
  1 31  1  0  0  0
  1 32  1  0  0  0
  1 33  1  0  0  0
  2  3  2  0  0  0
  2 11  1  0  0  0
  3  4  1  0  0  0
  4  5  1  0  0  0
  5  6  1  0  0  0
  5 10  1  0  0  0
  5 34  1  0  0  0
  6  7  1  0  0  0
  6 35  1  0  0  0
  6 36  1  0  0  0
  7  8  1  0  0  0
  7 37  1  0  0  0
  7 38  1  0  0  0
  8  9  1  0  0  0
  8 39  1  0  0  0
  9 10  1  0  0  0
  9 40  1  0  0  0
  9 41  1  0  0  0
 10 42  1  0  0  0
 10 43  1  0  0  0
 11 12  2  0  0  0
 11 30  1  0  0  0
 12 13  1  0  0  0
 12 44  1  0  0  0
 13 14  2  0  0  0
 14 15  1  0  0  0
 14 29  1  0  0  0
 15 16  2  0  0  0
 16 17  1  0  0  0
 17 18  1  0  0  0
 17 29  1  0  0  0
 18 19  1  0  0  0
 18 45  1  0  0  0
 18 46  1  0  0  0
 19 20  2  0  0  0
 19 28  1  0  0  0
 20 21  1  0  0  0
 20 47  1  0  0  0
 21 22  2  0  0  0
 21 48  1  0  0  0
 22 23  1  0  0  0
 22 27  1  0  0  0
 23 24  2  0  0  0
 24 25  1  0  0  0
 24 49  1  0  0  0
 25 26  2  0  0  0
 25 50  1  0  0  0
 26 27  1  0  0  0
 26 51  1  0  0  0
 27 28  2  0  0  0
 28 52  1  0  0  0
 29 30  2  0  0  0
M  END
> <s_m_entry_id>
10461

> <s_m_entry_name>
dock_pv.530

> <s_m_Source_Path>
/home/csk/Desktop/cluster/DUD-E-result/met

> <s_m_Source_File>
dock_pv.maegz

> <i_m_Source_File_Index>
530

> <chembl_id>
CHEMBL3648249

> <chembl_pref_name>
None

> <i_lp_mmshare_version>
53161

> <i_f3d_flags>
0

> <r_lp_tautomer_probability>
1

> <s_lp_Force_Field>
OPLS_2005

> <r_lp_Energy>
38.491382

> <b_lp_Chiralities_Consistent>
1

> <s_lp_Variant>
CHEMBL3717_lig2603-1

> <s_i_glide_gridfile>
glide-grid_3lq8

> <i_i_glide_lignum>
2955

> <i_i_glide_rotatable_bonds>
5

> <r_i_docking_score>
-7.17402110335676

> <r_i_glide_ligand_efficiency>
-0.239134036778559

> <r_i_glide_ligand_efficiency_sa>
-0.743045051515889

> <r_i_glide_ligand_efficiency_ln>
-1.63001576190328

> <r_i_glide_gscore>
-7.17402110335676

> <r_i_glide_lipo>
-2.72200319420787

> <r_i_glide_hbond>
-0.150544007553139

> <r_i_glide_metal>
0

> <r_i_glide_rewards>
-2.36849037253586

> <r_i_glide_evdw>
-43.7613639831543

> <r_i_glide_ecoul>
-1.53034961223602

> <r_i_glide_erotb>
0.484637111933229

> <r_i_glide_esite>
0

> <r_i_glide_emodel>
-56.4001684778791

> <r_i_glide_energy>
-45.2917135953903

> <r_i_glide_einternal>
11.7232494354248

> <i_i_glide_confnum>
5

> <i_i_glide_posenum>
11

> <r_i_glide_eff_state_penalty>
0

> <s_user_duplicate_titles>
CHEMBL3717_lig2603

> <s_m_subgroup_title>
dock_pv

> <s_m_subgroupid>
dock_pv

> <b_m_subgroup_collapsed>
1

$$$$
CHEMBL3717_lig1033
                    3D
 Schrodinger Suite 2021-1.
 38 40  0  0  1  0            999 V2000
   -1.9374    5.5946   30.6403 C   0  0  0  0  0  0
   -2.7038    6.7571   30.6080 C   0  0  0  0  0  0
   -4.0915    6.6837   30.6084 C   0  0  0  0  0  0
   -4.6995    5.4386   30.5598 C   0  0  0  0  0  0
   -3.9662    4.2705   30.4998 C   0  0  0  0  0  0
   -2.5597    4.3343   30.6090 C   0  0  0  0  0  0
   -1.6703    3.1021   30.6472 C   0  0  0  0  0  0
   -4.9412    3.1974   30.3012 C   0  0  0  0  0  0
   -6.2692    3.8465   30.3881 C   0  0  0  0  0  0
   -6.0387    5.1565   30.5162 N   0  0  0  0  0  0
   -7.3741    3.3104   30.3196 O   0  0  0  0  0  0
   -4.6814    1.9569   30.0979 N   0  0  0  0  0  0
   -5.6941    1.0565   30.0904 N   0  0  0  0  0  0
   -5.4885   -0.2751   30.0926 C   0  0  0  0  0  0
   -4.0884   -0.8584   29.7935 C   0  0  0  0  0  0
   -3.1335   -1.0011   30.9890 C   0  0  0  0  0  0
   -3.0835   -0.0634   32.0299 C   0  0  0  0  0  0
   -2.0977   -0.1412   33.0070 C   0  0  0  0  0  0
   -1.1779   -1.1821   32.9778 C   0  0  0  0  0  0
   -1.2342   -2.1405   31.9693 C   0  0  0  0  0  0
   -2.2022   -2.0436   30.9728 C   0  0  0  0  0  0
   -0.1952   -1.2433   33.9272 O   0  0  0  0  0  0
   -6.4201   -1.0446   30.3170 O   0  0  0  0  0  0
   -0.0372    5.7800   30.6946 Br  0  0  0  0  0  0
   -2.2108    7.7184   30.6067 H   0  0  0  0  0  0
   -4.6909    7.5790   30.6085 H   0  0  0  0  0  0
   -0.9704    3.1299   29.8126 H   0  0  0  0  0  0
   -1.0779    3.0999   31.5625 H   0  0  0  0  0  0
   -2.2128    2.1639   30.6071 H   0  0  0  0  0  0
   -6.7744    5.8472   30.5260 H   0  0  0  0  0  0
   -6.6177    1.4412   30.2478 H   0  0  0  0  0  0
   -3.5965   -0.2482   29.0351 H   0  0  0  0  0  0
   -4.2315   -1.8311   29.3186 H   0  0  0  0  0  0
   -3.7851    0.7499   32.0892 H   0  0  0  0  0  0
   -2.0543    0.5990   33.7921 H   0  0  0  0  0  0
   -0.5170   -2.9474   31.9388 H   0  0  0  0  0  0
   -2.2159   -2.7786   30.1795 H   0  0  0  0  0  0
    0.5087   -1.8511   33.6534 H   0  0  0  0  0  0
  1  2  1  0  0  0
  1  6  2  0  0  0
  1 24  1  0  0  0
  2  3  2  0  0  0
  2 25  1  0  0  0
  3  4  1  0  0  0
  3 26  1  0  0  0
  4  5  2  0  0  0
  4 10  1  0  0  0
  5  6  1  0  0  0
  5  8  1  0  0  0
  6  7  1  0  0  0
  7 27  1  0  0  0
  7 28  1  0  0  0
  7 29  1  0  0  0
  8  9  1  0  0  0
  8 12  2  0  0  0
  9 10  1  0  0  0
  9 11  2  0  0  0
 10 30  1  0  0  0
 12 13  1  0  0  0
 13 14  1  0  0  0
 13 31  1  0  0  0
 14 15  1  0  0  0
 14 23  2  0  0  0
 15 16  1  0  0  0
 15 32  1  0  0  0
 15 33  1  0  0  0
 16 17  2  0  0  0
 16 21  1  0  0  0
 17 18  1  0  0  0
 17 34  1  0  0  0
 18 19  2  0  0  0
 18 35  1  0  0  0
 19 20  1  0  0  0
 19 22  1  0  0  0
 20 21  2  0  0  0
 20 36  1  0  0  0
 21 37  1  0  0  0
 22 38  1  0  0  0
M  END
> <s_m_entry_id>
10462

> <s_m_entry_name>
dock_pv.531

> <s_m_Source_Path>
/home/csk/Desktop/cluster/DUD-E-result/met

> <s_m_Source_File>
dock_pv.maegz

> <i_m_Source_File_Index>
531

> <chembl_id>
CHEMBL1823266

> <chembl_pref_name>
None

> <i_lp_mmshare_version>
53161

> <i_f3d_flags>
0

> <r_lp_tautomer_probability>
0.999999999997365

> <s_lp_Force_Field>
OPLS_2005

> <r_lp_Energy>
35.710884

> <b_lp_Chiralities_Consistent>
1

> <s_lp_Variant>
CHEMBL3717_lig1033-1

> <s_i_glide_gridfile>
glide-grid_3lq8

> <i_i_glide_lignum>
1151

> <i_i_glide_rotatable_bonds>
5

> <r_i_docking_score>
-7.17125179402531

> <r_i_glide_ligand_efficiency>
-0.298802158084388

> <r_i_glide_ligand_efficiency_sa>
-0.86189456729522

> <r_i_glide_ligand_efficiency_ln>
-1.71640962161277

> <r_i_glide_gscore>
-7.17125179402531

> <r_i_glide_lipo>
-2.97892228275325

> <r_i_glide_hbond>
-0.32

> <r_i_glide_metal>
0

> <r_i_glide_rewards>
-1.7444885039709

> <r_i_glide_evdw>
-37.3565101623535

> <r_i_glide_ecoul>
-5.14098405838013

> <r_i_glide_erotb>
0.51706116728327

> <r_i_glide_esite>
-0.00592905770972818

> <r_i_glide_emodel>
-56.3960356692108

> <r_i_glide_energy>
-42.4974942207336

> <r_i_glide_einternal>
5.42918491363525

> <i_i_glide_confnum>
8

> <i_i_glide_posenum>
215

> <r_i_glide_eff_state_penalty>
0

> <s_user_duplicate_titles>
CHEMBL3717_lig1033

> <s_m_subgroup_title>
dock_pv

> <s_m_subgroupid>
dock_pv

> <b_m_subgroup_collapsed>
1

$$$$
CHEMBL3717_lig1228
                    3D
 Schrodinger Suite 2021-1.
 44 48  0  0  1  0            999 V2000
   -4.4946    6.3989   30.6111 N   0  0  0  0  0  0
   -3.1448    6.4862   30.6167 C   0  0  0  0  0  0
   -2.3155    5.3679   30.6340 C   0  0  0  0  0  0
   -2.9235    4.1135   30.6080 C   0  0  0  0  0  0
   -4.3178    3.9924   30.5338 C   0  0  0  0  0  0
   -5.0704    5.1727   30.5836 C   0  0  0  0  0  0
   -0.8377    5.4870   30.6076 C   0  0  0  0  0  0
    0.1112    4.5170   30.8990 C   0  0  0  0  0  0
    1.3284    5.0880   30.6483 N   0  0  0  0  0  0
    1.2171    6.3450   30.2080 N   0  0  0  0  0  0
   -0.0688    6.5883   30.2037 C   0  0  0  0  0  0
   -4.8695    2.6150   30.3941 C   0  0  0  0  0  0
   -4.0893    1.6216   30.8952 O   0  0  0  0  0  0
   -5.9840    2.2173   29.8087 N   0  0  0  0  0  0
   -6.4609    5.1564   30.6065 N   0  0  0  0  0  0
   -5.9183    0.8501   29.8935 C   0  0  0  0  0  0
   -4.7571    0.4877   30.5881 C   0  0  0  0  0  0
   -4.3759   -0.8259   30.8820 C   0  0  0  0  0  0
   -5.2400   -1.8149   30.3877 C   0  0  0  0  0  0
   -6.4050   -1.4905   29.6777 C   0  0  0  0  0  0
   -6.7694   -0.1603   29.4241 C   0  0  0  0  0  0
    2.6335    4.4546   30.6936 C   0  0  0  0  0  0
   -3.1439   -1.1137   31.6686 C   0  0  0  0  0  0
   -2.8008   -0.1836   32.6070 N   0  0  0  0  0  0
   -1.6928   -0.3842   33.3574 C   0  0  0  0  0  0
   -0.8944   -1.5116   33.2161 C   0  0  0  0  0  0
   -1.2221   -2.4425   32.2303 C   0  0  0  0  0  0
   -2.3601   -2.2496   31.4469 C   0  0  0  0  0  0
   -2.7306    7.4827   30.6218 H   0  0  0  0  0  0
   -2.3020    3.2295   30.5818 H   0  0  0  0  0  0
    0.0330    3.4894   31.2221 H   0  0  0  0  0  0
   -0.4463    7.5461   29.8756 H   0  0  0  0  0  0
   -6.9191    4.2739   30.4249 H   0  0  0  0  0  0
   -6.9192    6.0301   30.3859 H   0  0  0  0  0  0
   -5.0138   -2.8585   30.5625 H   0  0  0  0  0  0
   -7.0358   -2.2901   29.3160 H   0  0  0  0  0  0
   -7.6686    0.0794   28.8763 H   0  0  0  0  0  0
    2.5993    3.5827   31.3488 H   0  0  0  0  0  0
    3.3780    5.1561   31.0703 H   0  0  0  0  0  0
    2.9121    4.1382   29.6874 H   0  0  0  0  0  0
   -1.4720    0.3587   34.1074 H   0  0  0  0  0  0
   -0.0389   -1.6510   33.8544 H   0  0  0  0  0  0
   -0.5906   -3.3036   32.0763 H   0  0  0  0  0  0
   -2.6211   -2.9684   30.6831 H   0  0  0  0  0  0
  1  2  2  0  0  0
  1  6  1  0  0  0
  2  3  1  0  0  0
  2 29  1  0  0  0
  3  4  2  0  0  0
  3  7  1  0  0  0
  4  5  1  0  0  0
  4 30  1  0  0  0
  5 12  1  0  0  0
  5  6  2  0  0  0
  6 15  1  0  0  0
  7 11  1  0  0  0
  7  8  2  0  0  0
  8  9  1  0  0  0
  8 31  1  0  0  0
  9 10  1  0  0  0
  9 22  1  0  0  0
 10 11  2  0  0  0
 11 32  1  0  0  0
 12 14  2  0  0  0
 12 13  1  0  0  0
 13 17  1  0  0  0
 14 16  1  0  0  0
 15 33  1  0  0  0
 15 34  1  0  0  0
 16 17  2  0  0  0
 16 21  1  0  0  0
 17 18  1  0  0  0
 18 19  2  0  0  0
 18 23  1  0  0  0
 19 20  1  0  0  0
 19 35  1  0  0  0
 20 21  2  0  0  0
 20 36  1  0  0  0
 21 37  1  0  0  0
 22 38  1  0  0  0
 22 39  1  0  0  0
 22 40  1  0  0  0
 23 24  2  0  0  0
 23 28  1  0  0  0
 24 25  1  0  0  0
 25 26  2  0  0  0
 25 41  1  0  0  0
 26 27  1  0  0  0
 26 42  1  0  0  0
 27 28  2  0  0  0
 27 43  1  0  0  0
 28 44  1  0  0  0
M  END
> <s_m_entry_id>
10463

> <s_m_entry_name>
dock_pv.532

> <s_m_Source_Path>
/home/csk/Desktop/cluster/DUD-E-result/met

> <s_m_Source_File>
dock_pv.maegz

> <i_m_Source_File_Index>
532

> <chembl_id>
CHEMBL2032298

> <chembl_pref_name>
None

> <i_lp_mmshare_version>
53161

> <i_f3d_flags>
0

> <r_lp_tautomer_probability>
0.999999772200052

> <s_lp_Force_Field>
OPLS_2005

> <r_lp_Energy>
21.253406

> <b_lp_Chiralities_Consistent>
1

> <s_lp_Variant>
CHEMBL3717_lig1228-1

> <s_i_glide_gridfile>
glide-grid_3lq8

> <i_i_glide_lignum>
1406

> <i_i_glide_rotatable_bonds>
3

> <r_i_docking_score>
-7.17038170155587

> <r_i_glide_ligand_efficiency>
-0.256085060769853

> <r_i_glide_ligand_efficiency_sa>
-0.777625070532108

> <r_i_glide_ligand_efficiency_ln>
-1.65513462827402

> <r_i_glide_gscore>
-7.17038170155587

> <r_i_glide_lipo>
-3.39479304081337

> <r_i_glide_hbond>
0

> <r_i_glide_metal>
0

> <r_i_glide_rewards>
-1.71745818572673

> <r_i_glide_evdw>
-44.123966217041

> <r_i_glide_ecoul>
-1.85261607170105

> <r_i_glide_erotb>
0.425960246591431

> <r_i_glide_esite>
0

> <r_i_glide_emodel>
-64.1874751122797

> <r_i_glide_energy>
-45.9765822887421

> <r_i_glide_einternal>
0.806277930736542

> <i_i_glide_confnum>
3

> <i_i_glide_posenum>
22

> <r_i_glide_eff_state_penalty>
0

> <s_user_duplicate_titles>
CHEMBL3717_lig1228

> <s_m_subgroup_title>
dock_pv

> <s_m_subgroupid>
dock_pv

> <b_m_subgroup_collapsed>
1

$$$$
CHEMBL3717_lig441
                    3D
 Schrodinger Suite 2021-1.
 50 55  0  0  1  0            999 V2000
   -3.5330    5.0331   30.6494 C   0  0  0  0  0  0
   -4.5969    5.9207   30.8231 C   0  0  0  0  0  0
   -5.9065    5.5565   30.8429 N   0  0  0  0  0  0
   -3.7997    3.6742   30.4807 C   0  0  0  0  0  0
   -5.1447    3.3022   30.4630 C   0  0  0  0  0  0
   -6.1761    4.2649   30.6432 C   0  0  0  0  0  0
   -7.4244    3.5756   30.5695 C   0  0  0  0  0  0
   -7.1213    2.2451   30.3445 C   0  0  0  0  0  0
   -5.7519    2.0791   30.2849 N   0  0  0  0  0  0
   -4.8992    0.6334   29.9458 S   0  0  0  0  0  0
   -4.3345    0.8376   28.6098 O   0  0  0  0  0  0
   -4.0432    0.3906   31.1122 O   0  0  0  0  0  0
   -6.1448   -0.6629   29.8550 C   0  0  0  0  0  0
   -7.8508   -1.9777   29.2394 N   0  0  0  0  0  0
   -7.1253   -0.9287   28.9071 C   0  0  0  0  0  0
   -7.3435   -2.4060   30.3741 C   0  0  0  0  0  0
   -6.2899   -1.6342   30.8255 N   0  0  0  0  0  0
   -5.7409   -2.0420   32.0314 C   0  0  0  0  0  0
   -6.3713   -3.1686   32.5223 C   0  0  0  0  0  0
   -7.6738   -3.7280   31.4802 S   0  0  0  0  0  0
   -7.4340   -0.0423   27.4661 Cl  0  0  0  0  0  0
   -2.1273    5.4994   30.6265 C   0  0  0  0  0  0
   -1.6381    6.7367   30.1940 C   0  0  0  0  0  0
   -0.3328    6.8080   30.2035 N   0  0  0  0  0  0
    0.0739    5.6423   30.7269 N   0  0  0  0  0  0
   -0.9789    4.7975   30.9670 C   0  0  0  0  0  0
    1.5116    5.3781   30.7719 C   0  0  0  0  0  0
    1.9913    4.4040   31.8712 C   0  0  0  0  0  0
    1.9749    2.9293   31.4326 C   0  0  0  0  0  0
    2.6321    2.7570   30.1400 N   0  0  2  0  0  0
    1.9669    3.5051   29.0804 C   0  0  0  0  0  0
    2.0806    4.9975   29.3945 C   0  0  0  0  0  0
   -4.4116    6.9743   30.9552 H   0  0  0  0  0  0
   -3.0126    2.9474   30.3434 H   0  0  0  0  0  0
   -8.4156    3.9946   30.6551 H   0  0  0  0  0  0
   -7.7823    1.3998   30.2154 H   0  0  0  0  0  0
   -4.9168   -1.4977   32.4698 H   0  0  0  0  0  0
   -6.1446   -3.7094   33.4308 H   0  0  0  0  0  0
   -2.2273    7.5554   29.8213 H   0  0  0  0  0  0
   -0.8266    3.7922   31.3257 H   0  0  0  0  0  0
    1.9095    6.3632   31.0080 H   0  0  0  0  0  0
    1.4112    4.5453   32.7837 H   0  0  0  0  0  0
    3.0039    4.6623   32.1835 H   0  0  0  0  0  0
    0.9584    2.5411   31.3872 H   0  0  0  0  0  0
    2.5087    2.3230   32.1656 H   0  0  0  0  0  0
    2.5923    1.7765   29.8914 H   0  0  0  0  0  0
    0.9211    3.1986   29.0101 H   0  0  0  0  0  0
    2.4398    3.2760   28.1245 H   0  0  0  0  0  0
    3.1225    5.3105   29.3152 H   0  0  0  0  0  0
    1.5791    5.5576   28.6065 H   0  0  0  0  0  0
  1  4  1  0  0  0
  1 22  1  0  0  0
  1  2  2  0  0  0
  2  3  1  0  0  0
  2 33  1  0  0  0
  3  6  2  0  0  0
  4  5  2  0  0  0
  4 34  1  0  0  0
  5  9  1  0  0  0
  5  6  1  0  0  0
  6  7  1  0  0  0
  7  8  2  0  0  0
  7 35  1  0  0  0
  8  9  1  0  0  0
  8 36  1  0  0  0
  9 10  1  0  0  0
 10 11  2  0  0  0
 10 12  2  0  0  0
 10 13  1  0  0  0
 13 15  2  0  0  0
 13 17  1  0  0  0
 14 15  1  0  0  0
 14 16  2  0  0  0
 15 21  1  0  0  0
 16 17  1  0  0  0
 16 20  1  0  0  0
 17 18  1  0  0  0
 18 19  2  0  0  0
 18 37  1  0  0  0
 19 20  1  0  0  0
 19 38  1  0  0  0
 22 23  1  0  0  0
 22 26  2  0  0  0
 23 24  2  0  0  0
 23 39  1  0  0  0
 24 25  1  0  0  0
 25 26  1  0  0  0
 25 27  1  0  0  0
 26 40  1  0  0  0
 27 28  1  0  0  0
 27 32  1  0  0  0
 27 41  1  0  0  0
 28 29  1  0  0  0
 28 42  1  0  0  0
 28 43  1  0  0  0
 29 30  1  0  0  0
 29 44  1  0  0  0
 29 45  1  0  0  0
 30 31  1  0  0  0
 30 46  1  0  0  0
 31 32  1  0  0  0
 31 47  1  0  0  0
 31 48  1  0  0  0
 32 49  1  0  0  0
 32 50  1  0  0  0
M  END
> <s_m_entry_id>
10464

> <s_m_entry_name>
dock_pv.533

> <s_m_Source_Path>
/home/csk/Desktop/cluster/DUD-E-result/met

> <s_m_Source_File>
dock_pv.maegz

> <i_m_Source_File_Index>
533

> <chembl_id>
CHEMBL564371

> <chembl_pref_name>
None

> <i_lp_mmshare_version>
53161

> <i_f3d_flags>
0

> <r_lp_tautomer_probability>
1

> <s_lp_Force_Field>
OPLS_2005

> <r_lp_Energy>
19.619039

> <b_lp_Chiralities_Consistent>
1

> <s_lp_Variant>
CHEMBL3717_lig441-1

> <s_i_glide_gridfile>
glide-grid_3lq8

> <i_i_glide_lignum>
465

> <i_i_glide_rotatable_bonds>
4

> <r_i_docking_score>
-7.16998853908564

> <r_i_glide_ligand_efficiency>
-0.224062141846426

> <r_i_glide_ligand_efficiency_sa>
-0.711352958524743

> <r_i_glide_ligand_efficiency_ln>
-1.6055558804072

> <r_i_glide_gscore>
-7.16998853908564

> <r_i_glide_lipo>
-3.8124569752033

> <r_i_glide_hbond>
0

> <r_i_glide_metal>
0

> <r_i_glide_rewards>
-1.12971550248695

> <r_i_glide_evdw>
-50.4017372131348

> <r_i_glide_ecoul>
-0.211377844214439

> <r_i_glide_erotb>
0.341546294376014

> <r_i_glide_esite>
-0.0175688184824944

> <r_i_glide_emodel>
-65.4377644052604

> <r_i_glide_energy>
-50.6131150573492

> <r_i_glide_einternal>
6.94482898712158

> <i_i_glide_confnum>
24

> <i_i_glide_posenum>
230

> <r_i_glide_eff_state_penalty>
0

> <s_user_duplicate_titles>
CHEMBL3717_lig441,565609

> <s_m_subgroup_title>
dock_pv

> <s_m_subgroupid>
dock_pv

> <b_m_subgroup_collapsed>
1

$$$$
CHEMBL3717_lig3870
                    3D
 Schrodinger Suite 2021-1.
 44 46  0  0  1  0            999 V2000
   -7.7202    1.5837   29.0982 Cl  0  0  0  0  0  0
    1.7608    2.9449   30.9929 F   0  0  0  0  0  0
    2.8845    4.7568   30.6737 F   0  0  0  0  0  0
    1.9997    4.3571   32.6079 F   0  0  0  0  0  0
   -3.0278    2.8250   30.8610 O   0  0  0  0  0  0
   -7.5255   -6.0888   28.5335 O   0  0  0  0  0  0
   -5.2941   -6.3624   29.0080 O   0  0  0  0  0  0
   -6.6586   -2.5916   30.3992 N   0  0  2  0  0  0
   -6.4877   -4.6687   30.2225 C   0  0  0  0  0  0
   -5.8969   -0.1654   30.1425 C   0  0  0  0  0  0
   -5.6430   -3.4662   29.8084 C   0  0  0  0  0  0
   -7.6349   -3.6642   30.1755 C   0  0  0  0  0  0
   -6.9228   -1.2689   29.8340 C   0  0  0  0  0  0
   -6.1980    1.1659   29.8105 C   0  0  0  0  0  0
    0.5308    4.9654   30.9017 C   0  0  0  0  0  0
    1.8206    4.2421   31.2927 C   0  0  0  0  0  0
   -4.0205    1.8994   30.6079 C   0  0  0  0  0  0
   -1.8948    4.9571   30.6310 C   0  0  0  0  0  0
   -5.2756    2.1878   30.0543 C   0  0  0  0  0  0
   -4.6579   -0.4366   30.7405 C   0  0  0  0  0  0
   -0.7043    4.3132   31.0042 C   0  0  0  0  0  0
   -6.5166   -5.7719   29.1569 C   0  0  0  0  0  0
   -3.7317    0.5811   30.9561 C   0  0  0  0  0  0
    0.5638    6.2801   30.4218 C   0  0  0  0  0  0
   -3.2328    4.2174   30.6080 C   0  0  0  0  0  0
   -1.8431    6.2896   30.2080 C   0  0  0  0  0  0
   -0.6167    6.9405   30.0842 C   0  0  0  0  0  0
   -4.6350   -6.0426   29.6522 H   0  0  0  0  0  0
   -6.2621   -5.0692   31.2126 H   0  0  0  0  0  0
   -4.6543   -3.3968   30.2640 H   0  0  0  0  0  0
   -5.5159   -3.3436   28.7304 H   0  0  0  0  0  0
   -8.1486   -3.6119   29.2100 H   0  0  0  0  0  0
   -8.3875   -3.7406   30.9621 H   0  0  0  0  0  0
   -7.0446   -1.3424   28.7510 H   0  0  0  0  0  0
   -7.8847   -0.9465   30.2357 H   0  0  0  0  0  0
   -5.5517    3.1997   29.8062 H   0  0  0  0  0  0
   -4.3919   -1.4368   31.0416 H   0  0  0  0  0  0
   -0.7287    3.2882   31.3471 H   0  0  0  0  0  0
   -2.7766    0.3431   31.4014 H   0  0  0  0  0  0
    1.5045    6.7991   30.3175 H   0  0  0  0  0  0
   -3.6943    4.3768   29.6333 H   0  0  0  0  0  0
   -3.8936    4.6486   31.3611 H   0  0  0  0  0  0
   -2.7487    6.8048   29.9246 H   0  0  0  0  0  0
   -0.5787    7.9581   29.7235 H   0  0  0  0  0  0
  1 14  1  0  0  0
  2 16  1  0  0  0
  3 16  1  0  0  0
  4 16  1  0  0  0
  5 17  1  0  0  0
  5 25  1  0  0  0
  6 22  2  0  0  0
  7 22  1  0  0  0
  7 28  1  0  0  0
  8 11  1  0  0  0
  8 12  1  0  0  0
  8 13  1  0  0  0
  9 11  1  0  0  0
  9 12  1  0  0  0
  9 22  1  0  0  0
  9 29  1  0  0  0
 10 13  1  0  0  0
 10 14  1  0  0  0
 10 20  2  0  0  0
 11 30  1  0  0  0
 11 31  1  0  0  0
 12 32  1  0  0  0
 12 33  1  0  0  0
 13 34  1  0  0  0
 13 35  1  0  0  0
 14 19  2  0  0  0
 15 16  1  0  0  0
 15 21  2  0  0  0
 15 24  1  0  0  0
 17 19  1  0  0  0
 17 23  2  0  0  0
 18 21  1  0  0  0
 18 25  1  0  0  0
 18 26  2  0  0  0
 19 36  1  0  0  0
 20 23  1  0  0  0
 20 37  1  0  0  0
 21 38  1  0  0  0
 23 39  1  0  0  0
 24 27  2  0  0  0
 24 40  1  0  0  0
 25 41  1  0  0  0
 25 42  1  0  0  0
 26 27  1  0  0  0
 26 43  1  0  0  0
 27 44  1  0  0  0
M  END
> <s_m_entry_id>
10465

> <s_m_entry_name>
dock_pv.534

> <s_m_Source_Path>
/home/csk/Desktop/cluster/DUD-E-result/met

> <s_m_Source_File>
dock_pv.maegz

> <i_m_Source_File_Index>
534

> <chembl_id>
CHEMBL1986265

> <chembl_pref_name>
None

> <i_lp_mmshare_version>
53161

> <i_f3d_flags>
0

> <r_lp_tautomer_probability>
1

> <s_lp_Force_Field>
OPLS_2005

> <r_lp_Energy>
24.82859

> <b_lp_Chiralities_Consistent>
1

> <s_lp_Variant>
CHEMBL3717_lig3870-1

> <s_i_glide_gridfile>
glide-grid_3lq8

> <i_i_glide_lignum>
4913

> <i_i_glide_rotatable_bonds>
8

> <r_i_docking_score>
-7.16813019028334

> <r_i_glide_ligand_efficiency>
-0.265486303343827

> <r_i_glide_ligand_efficiency_sa>
-0.796458909156482

> <r_i_glide_ligand_efficiency_ln>
-1.66862253243583

> <r_i_glide_gscore>
-7.16813019028334

> <r_i_glide_lipo>
-2.9740337837512

> <r_i_glide_hbond>
0

> <r_i_glide_metal>
0

> <r_i_glide_rewards>
-2.59867036655866

> <r_i_glide_evdw>
-31.6577587127686

> <r_i_glide_ecoul>
-4.72973251342773

> <r_i_glide_erotb>
0.735691462634299

> <r_i_glide_esite>
-0.03876968995518

> <r_i_glide_emodel>
-52.4330130648808

> <r_i_glide_energy>
-36.3874912261963

> <r_i_glide_einternal>
3.48958563804626

> <i_i_glide_confnum>
77

> <i_i_glide_posenum>
29

> <r_i_glide_eff_state_penalty>
0

> <s_user_duplicate_titles>
CHEMBL3717_lig3870

> <s_m_subgroup_title>
dock_pv

> <s_m_subgroupid>
dock_pv

> <b_m_subgroup_collapsed>
1

$$$$
CHEMBL3717_lig3789
                    3D
 Schrodinger Suite 2021-1.
 35 37  0  0  1  0            999 V2000
    2.3060    4.1627   32.7061 Cl  0  0  0  0  0  0
   -1.6932    3.5584   30.8052 S   0  0  0  0  0  0
    0.5236    5.7161   31.0066 O   0  0  0  0  0  0
   -3.0856    5.6746   30.5496 N   0  0  0  0  0  0
   -3.2942    0.9738   31.0032 N   0  0  0  0  0  0
   -5.1123   -0.5394   30.5315 N   0  0  0  0  0  0
   -3.0620   -1.3352   31.3275 N   0  0  0  0  0  0
   -3.4248    3.3880   30.6082 C   0  0  0  0  0  0
   -3.9633    4.6874   30.5807 C   0  0  0  0  0  0
   -4.0655    2.0263   30.6021 C   0  0  0  0  0  0
   -1.8420    5.2745   30.6082 C   0  0  0  0  0  0
   -0.6795    6.2426   30.4474 C   0  0  0  0  0  0
   -5.3772    1.8304   30.1510 C   0  0  0  0  0  0
   -3.8526   -0.2604   30.9438 C   0  0  0  0  0  0
    1.3496    4.8828   30.2724 C   0  0  0  0  0  0
   -5.4151    5.1253   30.6059 C   0  0  0  0  0  0
    2.2717    4.1042   30.9825 C   0  0  0  0  0  0
   -5.8633    0.5208   30.1359 C   0  0  0  0  0  0
    1.3044    4.7573   28.8754 C   0  0  0  0  0  0
    3.1504    3.2507   30.3118 C   0  0  0  0  0  0
    2.1764    3.9012   28.2071 C   0  0  0  0  0  0
    3.1066    3.1571   28.9221 C   0  0  0  0  0  0
   -2.0836   -1.1702   31.5015 H   0  0  0  0  0  0
   -3.4127   -2.2664   31.1543 H   0  0  0  0  0  0
   -0.8968    7.1523   31.0000 H   0  0  0  0  0  0
   -0.5642    6.5905   29.4220 H   0  0  0  0  0  0
   -5.9947    2.6423   29.8037 H   0  0  0  0  0  0
   -6.0268    4.4670   31.2243 H   0  0  0  0  0  0
   -5.5503    6.1303   31.0093 H   0  0  0  0  0  0
   -5.8508    5.1361   29.6051 H   0  0  0  0  0  0
   -6.8631    0.3011   29.7915 H   0  0  0  0  0  0
    0.6156    5.3260   28.2747 H   0  0  0  0  0  0
    3.8597    2.6542   30.8670 H   0  0  0  0  0  0
    2.1311    3.8176   27.1301 H   0  0  0  0  0  0
    3.7854    2.5013   28.3967 H   0  0  0  0  0  0
  1 17  1  0  0  0
  2  8  1  0  0  0
  2 11  1  0  0  0
  3 12  1  0  0  0
  3 15  1  0  0  0
  4  9  1  0  0  0
  4 11  2  0  0  0
  5 10  1  0  0  0
  5 14  2  0  0  0
  6 14  1  0  0  0
  6 18  2  0  0  0
  7 14  1  0  0  0
  7 23  1  0  0  0
  7 24  1  0  0  0
  8  9  2  0  0  0
  8 10  1  0  0  0
  9 16  1  0  0  0
 10 13  2  0  0  0
 11 12  1  0  0  0
 12 25  1  0  0  0
 12 26  1  0  0  0
 13 18  1  0  0  0
 13 27  1  0  0  0
 15 17  1  0  0  0
 15 19  2  0  0  0
 16 28  1  0  0  0
 16 29  1  0  0  0
 16 30  1  0  0  0
 17 20  2  0  0  0
 18 31  1  0  0  0
 19 21  1  0  0  0
 19 32  1  0  0  0
 20 22  1  0  0  0
 20 33  1  0  0  0
 21 22  2  0  0  0
 21 34  1  0  0  0
 22 35  1  0  0  0
M  END
> <s_m_entry_id>
10466

> <s_m_entry_name>
dock_pv.535

> <s_m_Source_Path>
/home/csk/Desktop/cluster/DUD-E-result/met

> <s_m_Source_File>
dock_pv.maegz

> <i_m_Source_File_Index>
535

> <chembl_id>
CHEMBL1375640

> <chembl_pref_name>
None

> <i_lp_mmshare_version>
53161

> <i_f3d_flags>
0

> <r_lp_tautomer_probability>
0.999999987636

> <s_lp_Force_Field>
OPLS_2005

> <r_lp_Energy>
6.782556

> <b_lp_Chiralities_Consistent>
1

> <s_lp_Variant>
CHEMBL3717_lig3789-1

> <s_i_glide_gridfile>
glide-grid_3lq8

> <i_i_glide_lignum>
4798

> <i_i_glide_rotatable_bonds>
4

> <r_i_docking_score>
-7.16720965622126

> <r_i_glide_ligand_efficiency>
-0.325782257100966

> <r_i_glide_ligand_efficiency_sa>
-0.912854696686035

> <r_i_glide_ligand_efficiency_ln>
-1.75192747030472

> <r_i_glide_gscore>
-7.16720965622126

> <r_i_glide_lipo>
-3.81243403094073

> <r_i_glide_hbond>
0

> <r_i_glide_metal>
0

> <r_i_glide_rewards>
-2.01094160779347

> <r_i_glide_evdw>
-39.1518669128418

> <r_i_glide_ecoul>
-0.443971425294876

> <r_i_glide_erotb>
0.680355041949262

> <r_i_glide_esite>
0

> <r_i_glide_emodel>
-55.132854379919

> <r_i_glide_energy>
-39.5958383381367

> <r_i_glide_einternal>
0.667964220046997

> <i_i_glide_confnum>
11

> <i_i_glide_posenum>
134

> <r_i_glide_eff_state_penalty>
0

> <s_user_duplicate_titles>
CHEMBL3717_lig3789

> <s_m_subgroup_title>
dock_pv

> <s_m_subgroupid>
dock_pv

> <b_m_subgroup_collapsed>
1

$$$$
CHEMBL3717_lig2623
                    3D
 Schrodinger Suite 2021-1.
 51 55  0  0  1  0            999 V2000
   -7.4966    2.7791   29.8123 C   0  0  0  0  0  0
   -6.1319    2.5592   30.4842 C   0  0  0  0  0  0
   -5.7797    1.4488   31.0079 N   0  0  0  0  0  0
   -6.7212    0.4141   30.8141 O   0  0  0  0  0  0
   -6.3188   -0.7658   31.5144 C   0  0  0  0  0  0
   -4.9224   -1.2554   31.1268 C   0  0  0  0  0  0
   -4.5115   -1.2419   29.7929 C   0  0  0  0  0  0
   -3.2217   -1.6412   29.4558 C   0  0  0  0  0  0
   -2.3416   -2.0435   30.4587 C   0  0  0  0  0  0
   -2.7491   -2.0741   31.7896 C   0  0  0  0  0  0
   -4.0480   -1.6952   32.1203 C   0  0  0  0  0  0
   -5.2440    3.7470   30.5656 C   0  0  0  0  0  0
   -5.7562    5.0522   30.6078 C   0  0  0  0  0  0
   -4.8942    6.1462   30.6126 C   0  0  0  0  0  0
   -3.5195    5.9120   30.6075 C   0  0  0  0  0  0
   -2.4500    6.7333   30.5931 N   0  0  0  0  0  0
   -1.3341    5.9110   30.6079 N   0  0  0  0  0  0
   -1.7217    4.6473   30.6204 C   0  0  0  0  0  0
   -0.8234    3.4215   30.6143 C   0  0  0  0  0  0
    0.6758    3.7092   30.5842 C   0  0  0  0  0  0
    1.3272    4.0194   31.7729 C   0  0  0  0  0  0
    2.6933    4.2587   31.8078 C   0  0  0  0  0  0
    3.4489    4.2344   30.6191 C   0  0  0  0  0  0
    4.7789    4.5237   30.6866 N   0  0  0  0  0  0
    5.4778    4.6030   29.5331 C   0  0  0  0  0  0
    4.9157    4.3535   28.2892 C   0  0  0  0  0  0
    3.5761    3.9569   28.2120 C   0  0  0  0  0  0
    2.7938    3.9347   29.3895 C   0  0  0  0  0  0
    1.4013    3.6563   29.3913 C   0  0  0  0  0  0
   -3.1010    4.5788   30.6081 N   0  0  0  0  0  0
   -3.8973    3.4909   30.5847 N   0  0  0  0  0  0
   -7.4761    3.5743   29.0683 H   0  0  0  0  0  0
   -7.8722    1.8846   29.3169 H   0  0  0  0  0  0
   -8.2381    3.0640   30.5576 H   0  0  0  0  0  0
   -7.0339   -1.5575   31.2909 H   0  0  0  0  0  0
   -6.3891   -0.5820   32.5895 H   0  0  0  0  0  0
   -5.1827   -0.9081   29.0128 H   0  0  0  0  0  0
   -2.9076   -1.6255   28.4231 H   0  0  0  0  0  0
   -1.3389   -2.3469   30.1997 H   0  0  0  0  0  0
   -2.0645   -2.4023   32.5583 H   0  0  0  0  0  0
   -4.3837   -1.7375   33.1431 H   0  0  0  0  0  0
   -6.8206    5.2393   30.6022 H   0  0  0  0  0  0
   -5.2877    7.1540   30.6077 H   0  0  0  0  0  0
   -1.0334    2.8117   31.4942 H   0  0  0  0  0  0
   -1.0774    2.7824   29.7733 H   0  0  0  0  0  0
    0.7620    4.0760   32.6849 H   0  0  0  0  0  0
    3.1782    4.4972   32.7382 H   0  0  0  0  0  0
    6.5213    4.8702   29.6168 H   0  0  0  0  0  0
    5.5317    4.4172   27.4080 H   0  0  0  0  0  0
    3.1060    3.7200   27.2691 H   0  0  0  0  0  0
    0.9062    3.4188   28.4609 H   0  0  0  0  0  0
  1  2  1  0  0  0
  1 32  1  0  0  0
  1 33  1  0  0  0
  1 34  1  0  0  0
  2  3  2  0  0  0
  2 12  1  0  0  0
  3  4  1  0  0  0
  4  5  1  0  0  0
  5  6  1  0  0  0
  5 35  1  0  0  0
  5 36  1  0  0  0
  6  7  2  0  0  0
  6 11  1  0  0  0
  7  8  1  0  0  0
  7 37  1  0  0  0
  8  9  2  0  0  0
  8 38  1  0  0  0
  9 10  1  0  0  0
  9 39  1  0  0  0
 10 11  2  0  0  0
 10 40  1  0  0  0
 11 41  1  0  0  0
 12 13  1  0  0  0
 12 31  2  0  0  0
 13 14  2  0  0  0
 13 42  1  0  0  0
 14 15  1  0  0  0
 14 43  1  0  0  0
 15 16  2  0  0  0
 15 30  1  0  0  0
 16 17  1  0  0  0
 17 18  2  0  0  0
 18 19  1  0  0  0
 18 30  1  0  0  0
 19 20  1  0  0  0
 19 44  1  0  0  0
 19 45  1  0  0  0
 20 21  2  0  0  0
 20 29  1  0  0  0
 21 22  1  0  0  0
 21 46  1  0  0  0
 22 23  2  0  0  0
 22 47  1  0  0  0
 23 24  1  0  0  0
 23 28  1  0  0  0
 24 25  2  0  0  0
 25 26  1  0  0  0
 25 48  1  0  0  0
 26 27  2  0  0  0
 26 49  1  0  0  0
 27 28  1  0  0  0
 27 50  1  0  0  0
 28 29  2  0  0  0
 29 51  1  0  0  0
 30 31  1  0  0  0
M  END
> <s_m_entry_id>
10467

> <s_m_entry_name>
dock_pv.536

> <s_m_Source_Path>
/home/csk/Desktop/cluster/DUD-E-result/met

> <s_m_Source_File>
dock_pv.maegz

> <i_m_Source_File_Index>
536

> <chembl_id>
CHEMBL3651392

> <chembl_pref_name>
None

> <i_lp_mmshare_version>
53161

> <i_f3d_flags>
0

> <r_lp_tautomer_probability>
1

> <s_lp_Force_Field>
OPLS_2005

> <r_lp_Energy>
30.474006

> <b_lp_Chiralities_Consistent>
1

> <s_lp_Variant>
CHEMBL3717_lig2623-1

> <s_i_glide_gridfile>
glide-grid_3lq8

> <i_i_glide_lignum>
2979

> <i_i_glide_rotatable_bonds>
6

> <r_i_docking_score>
-7.1633227534676

> <r_i_glide_ligand_efficiency>
-0.231074927531213

> <r_i_glide_ligand_efficiency_sa>
-0.725894305768392

> <r_i_glide_ligand_efficiency_ln>
-1.61554881038484

> <r_i_glide_gscore>
-7.1633227534676

> <r_i_glide_lipo>
-3.39973689650353

> <r_i_glide_hbond>
0

> <r_i_glide_metal>
0

> <r_i_glide_rewards>
-1.85046590368393

> <r_i_glide_evdw>
-44.1869277954102

> <r_i_glide_ecoul>
-1.95746672153473

> <r_i_glide_erotb>
0.589846444720572

> <r_i_glide_esite>
0

> <r_i_glide_emodel>
-63.2731176612242

> <r_i_glide_energy>
-46.1443945169449

> <r_i_glide_einternal>
3.87543535232544

> <i_i_glide_confnum>
20

> <i_i_glide_posenum>
150

> <r_i_glide_eff_state_penalty>
0

> <s_user_duplicate_titles>
CHEMBL3717_lig2623

> <s_m_subgroup_title>
dock_pv

> <s_m_subgroupid>
dock_pv

> <b_m_subgroup_collapsed>
1

$$$$
CHEMBL3717_lig1318
                    3D
 Schrodinger Suite 2021-1.
 39 42  0  0  1  0            999 V2000
   -2.2436   -1.7013   31.6354 C   0  0  0  0  0  0
   -2.8652   -0.5538   32.1500 C   0  0  0  0  0  0
   -3.8215    0.1207   31.3963 C   0  0  0  0  0  0
   -4.1592   -0.3221   30.1140 C   0  0  0  0  0  0
   -3.5342   -1.4608   29.6006 C   0  0  0  0  0  0
   -2.5883   -2.1445   30.3591 C   0  0  0  0  0  0
   -1.2925   -2.4425   32.3086 O   0  0  0  0  0  0
   -5.1932    0.3993   29.2429 C   0  0  0  0  0  0
   -6.4771    3.5690   30.5867 C   0  0  0  0  0  0
   -5.3591    2.7955   30.2042 C   0  0  0  0  0  0
   -6.3437    4.8426   30.9774 N   0  0  0  0  0  0
   -4.1010    3.2388   30.2080 N   0  0  0  0  0  0
   -3.9580    4.5383   30.6061 C   0  0  0  0  0  0
   -5.0657    5.3215   30.9766 C   0  0  0  0  0  0
   -5.8709    1.5686   29.8161 N   0  0  0  0  0  0
   -7.2123    1.5745   29.9859 N   0  0  0  0  0  0
   -7.6032    2.8124   30.4663 N   0  0  0  0  0  0
   -2.5590    5.0496   30.6216 C   0  0  0  0  0  0
   -1.5019    4.2114   31.0075 C   0  0  0  0  0  0
   -0.1860    4.6542   30.9433 C   0  0  0  0  0  0
    0.0823    5.9419   30.4963 C   0  0  0  0  0  0
   -0.9524    6.8004   30.1373 C   0  0  0  0  0  0
   -2.2704    6.3566   30.2083 C   0  0  0  0  0  0
    1.3612    6.3567   30.4068 F   0  0  0  0  0  0
   -0.8760   -2.0354   33.6072 C   0  0  0  0  0  0
   -2.6193   -0.1699   33.1279 H   0  0  0  0  0  0
   -4.2959    0.9943   31.8079 H   0  0  0  0  0  0
   -3.7820   -1.8218   28.6117 H   0  0  0  0  0  0
   -2.1244   -3.0362   29.9582 H   0  0  0  0  0  0
   -4.6961    0.7382   28.3330 H   0  0  0  0  0  0
   -5.9459   -0.3244   28.9230 H   0  0  0  0  0  0
   -4.9461    6.3484   31.2873 H   0  0  0  0  0  0
   -1.6966    3.2012   31.3385 H   0  0  0  0  0  0
    0.6245    3.9980   31.2230 H   0  0  0  0  0  0
   -0.7298    7.8023   29.7989 H   0  0  0  0  0  0
   -3.0669    7.0181   29.9068 H   0  0  0  0  0  0
   -0.1276   -2.7315   33.9856 H   0  0  0  0  0  0
   -1.6944   -2.0454   34.3218 H   0  0  0  0  0  0
   -0.4228   -1.0426   33.5909 H   0  0  0  0  0  0
  1  2  1  0  0  0
  1  6  2  0  0  0
  1  7  1  0  0  0
  2  3  2  0  0  0
  2 26  1  0  0  0
  3  4  1  0  0  0
  3 27  1  0  0  0
  4  5  2  0  0  0
  4  8  1  0  0  0
  5  6  1  0  0  0
  5 28  1  0  0  0
  6 29  1  0  0  0
  7 25  1  0  0  0
  8 15  1  0  0  0
  8 30  1  0  0  0
  8 31  1  0  0  0
  9 10  1  0  0  0
  9 11  2  0  0  0
  9 17  1  0  0  0
 10 12  2  0  0  0
 10 15  1  0  0  0
 11 14  1  0  0  0
 12 13  1  0  0  0
 13 14  2  0  0  0
 13 18  1  0  0  0
 14 32  1  0  0  0
 15 16  1  0  0  0
 16 17  2  0  0  0
 18 19  1  0  0  0
 18 23  2  0  0  0
 19 20  2  0  0  0
 19 33  1  0  0  0
 20 21  1  0  0  0
 20 34  1  0  0  0
 21 22  2  0  0  0
 21 24  1  0  0  0
 22 23  1  0  0  0
 22 35  1  0  0  0
 23 36  1  0  0  0
 25 37  1  0  0  0
 25 38  1  0  0  0
 25 39  1  0  0  0
M  END
> <s_m_entry_id>
10468

> <s_m_entry_name>
dock_pv.537

> <s_m_Source_Path>
/home/csk/Desktop/cluster/DUD-E-result/met

> <s_m_Source_File>
dock_pv.maegz

> <i_m_Source_File_Index>
537

> <chembl_id>
CHEMBL2170811

> <chembl_pref_name>
None

> <i_lp_mmshare_version>
53161

> <i_f3d_flags>
0

> <r_lp_tautomer_probability>
1

> <s_lp_Force_Field>
OPLS_2005

> <r_lp_Energy>
28.076333

> <b_lp_Chiralities_Consistent>
1

> <s_lp_Variant>
CHEMBL3717_lig1318-1

> <s_i_glide_gridfile>
glide-grid_3lq8

> <i_i_glide_lignum>
1504

> <i_i_glide_rotatable_bonds>
4

> <r_i_docking_score>
-7.16013543064215

> <r_i_glide_ligand_efficiency>
-0.286405417225686

> <r_i_glide_ligand_efficiency_sa>
-0.837454519389608

> <r_i_glide_ligand_efficiency_ln>
-1.69716666900615

> <r_i_glide_gscore>
-7.16013543064215

> <r_i_glide_lipo>
-3.00525164880006

> <r_i_glide_hbond>
0

> <r_i_glide_metal>
0

> <r_i_glide_rewards>
-2.62512446835489

> <r_i_glide_evdw>
-41.221435546875

> <r_i_glide_ecoul>
0.185530424118042

> <r_i_glide_erotb>
0.503482900238843

> <r_i_glide_esite>
0

> <r_i_glide_emodel>
-57.8025120646364

> <r_i_glide_energy>
-41.035905122757

> <r_i_glide_einternal>
1.86652481555939

> <i_i_glide_confnum>
2

> <i_i_glide_posenum>
4

> <r_i_glide_eff_state_penalty>
0

> <s_user_duplicate_titles>
CHEMBL3717_lig1318

> <s_m_subgroup_title>
dock_pv

> <s_m_subgroupid>
dock_pv

> <b_m_subgroup_collapsed>
1

$$$$
CHEMBL3717_lig2509
                    3D
 Schrodinger Suite 2021-1.
 44 47  0  0  1  0            999 V2000
   -5.7240    1.1701   30.3004 C   0  0  0  0  0  0
   -4.2114    1.3815   30.5303 C   0  0  0  0  0  0
   -3.3666    0.4185   30.6352 N   0  0  0  0  0  0
   -3.7326   -0.7684   30.1055 N   0  0  0  0  0  0
   -2.9807   -1.8762   30.1921 C   0  0  0  0  0  0
   -1.9689   -2.0211   30.8767 O   0  0  0  0  0  0
   -3.4519   -2.8431   29.4150 N   0  0  0  0  0  0
   -3.7649    2.8043   30.6033 C   0  0  0  0  0  0
   -4.6100    3.8783   30.2689 C   0  0  0  0  0  0
   -4.1195    5.1831   30.2084 C   0  0  0  0  0  0
   -2.7532    5.3851   30.4431 C   0  0  0  0  0  0
   -1.9772    6.4887   30.3205 N   0  0  0  0  0  0
   -0.7668    6.0553   30.6081 C   0  0  0  0  0  0
   -0.7067    4.7089   30.9765 C   0  0  0  0  0  0
    0.4433    3.8141   31.4239 C   0  0  0  0  0  0
    1.6965    3.9557   30.5795 C   0  0  0  0  0  0
    1.6267    3.8058   29.1936 C   0  0  0  0  0  0
    2.7666    3.9284   28.4069 C   0  0  0  0  0  0
    4.0147    4.2082   29.0095 C   0  0  0  0  0  0
    5.1060    4.3570   28.2142 N   0  0  0  0  0  0
    6.3058    4.5621   28.8024 C   0  0  0  0  0  0
    6.4859    4.6832   30.1749 C   0  0  0  0  0  0
    5.3732    4.5907   30.9976 C   0  0  0  0  0  0
    4.0995    4.3329   30.4279 C   0  0  0  0  0  0
    2.9227    4.2047   31.1995 C   0  0  0  0  0  0
   -1.9998    4.2608   30.8195 N   0  0  0  0  0  0
   -2.4524    3.0010   30.9360 N   0  0  0  0  0  0
   -6.3198    1.7749   30.9857 H   0  0  0  0  0  0
   -6.0002    1.4213   29.2758 H   0  0  0  0  0  0
   -6.0455    0.1410   30.4585 H   0  0  0  0  0  0
   -4.5862   -0.7640   29.5682 H   0  0  0  0  0  0
   -3.1221   -3.7918   29.5691 H   0  0  0  0  0  0
   -4.0808   -2.6454   28.6522 H   0  0  0  0  0  0
   -5.6480    3.7228   30.0136 H   0  0  0  0  0  0
   -4.7614    6.0006   29.9136 H   0  0  0  0  0  0
    0.0803    6.7270   30.5844 H   0  0  0  0  0  0
    0.7058    4.0302   32.4601 H   0  0  0  0  0  0
    0.1704    2.7582   31.4082 H   0  0  0  0  0  0
    0.6792    3.5898   28.7202 H   0  0  0  0  0  0
    2.7025    3.8180   27.3342 H   0  0  0  0  0  0
    7.1501    4.6390   28.1336 H   0  0  0  0  0  0
    7.4663    4.8818   30.5826 H   0  0  0  0  0  0
    5.4738    4.7561   32.0591 H   0  0  0  0  0  0
    2.9866    4.3074   32.2731 H   0  0  0  0  0  0
  1  2  1  0  0  0
  1 28  1  0  0  0
  1 29  1  0  0  0
  1 30  1  0  0  0
  2  3  2  0  0  0
  2  8  1  0  0  0
  3  4  1  0  0  0
  4  5  1  0  0  0
  4 31  1  0  0  0
  5  6  2  0  0  0
  5  7  1  0  0  0
  7 32  1  0  0  0
  7 33  1  0  0  0
  8  9  1  0  0  0
  8 27  2  0  0  0
  9 10  2  0  0  0
  9 34  1  0  0  0
 10 11  1  0  0  0
 10 35  1  0  0  0
 11 12  2  0  0  0
 11 26  1  0  0  0
 12 13  1  0  0  0
 13 14  2  0  0  0
 13 36  1  0  0  0
 14 15  1  0  0  0
 14 26  1  0  0  0
 15 16  1  0  0  0
 15 37  1  0  0  0
 15 38  1  0  0  0
 16 17  2  0  0  0
 16 25  1  0  0  0
 17 18  1  0  0  0
 17 39  1  0  0  0
 18 19  2  0  0  0
 18 40  1  0  0  0
 19 20  1  0  0  0
 19 24  1  0  0  0
 20 21  2  0  0  0
 21 22  1  0  0  0
 21 41  1  0  0  0
 22 23  2  0  0  0
 22 42  1  0  0  0
 23 24  1  0  0  0
 23 43  1  0  0  0
 24 25  2  0  0  0
 25 44  1  0  0  0
 26 27  1  0  0  0
M  END
> <s_m_entry_id>
10469

> <s_m_entry_name>
dock_pv.538

> <s_m_Source_Path>
/home/csk/Desktop/cluster/DUD-E-result/met

> <s_m_Source_File>
dock_pv.maegz

> <i_m_Source_File_Index>
538

> <chembl_id>
CHEMBL3674494

> <chembl_pref_name>
None

> <i_lp_mmshare_version>
53161

> <i_f3d_flags>
0

> <r_lp_tautomer_probability>
1

> <s_lp_Force_Field>
OPLS_2005

> <r_lp_Energy>
19.502316

> <b_lp_Chiralities_Consistent>
1

> <s_lp_Variant>
CHEMBL3717_lig2509-1

> <s_i_glide_gridfile>
glide-grid_3lq8

> <i_i_glide_lignum>
2843

> <i_i_glide_rotatable_bonds>
5

> <r_i_docking_score>
-7.15512869453762

> <r_i_glide_ligand_efficiency>
-0.265004766464356

> <r_i_glide_ligand_efficiency_sa>
-0.795014298519656

> <r_i_glide_ligand_efficiency_ln>
-1.66559599857263

> <r_i_glide_gscore>
-7.15512869453762

> <r_i_glide_lipo>
-3.50292448950374

> <r_i_glide_hbond>
-0.0873794577970802

> <r_i_glide_metal>
0

> <r_i_glide_rewards>
-1.50542776397581

> <r_i_glide_evdw>
-41.4682273864746

> <r_i_glide_ecoul>
-3.44926881790161

> <r_i_glide_erotb>
0.59359498530182

> <r_i_glide_esite>
-0.0621902765538272

> <r_i_glide_emodel>
-57.700614620353

> <r_i_glide_energy>
-44.9174962043762

> <r_i_glide_einternal>
10.5859003067017

> <i_i_glide_confnum>
31

> <i_i_glide_posenum>
1

> <r_i_glide_eff_state_penalty>
0

> <s_user_duplicate_titles>
CHEMBL3717_lig2509

> <s_m_subgroup_title>
dock_pv

> <s_m_subgroupid>
dock_pv

> <b_m_subgroup_collapsed>
1

$$$$
CHEMBL3717_lig1216
                    3D
 Schrodinger Suite 2021-1.
 54 58  0  0  1  0            999 V2000
   -6.1613    5.0792   30.7589 N   0  0  0  0  0  0
   -4.8689    5.4763   30.7753 C   0  0  0  0  0  0
   -3.7937    4.5999   30.6076 C   0  0  0  0  0  0
   -4.0874    3.2445   30.4067 C   0  0  0  0  0  0
   -5.4181    2.7975   30.3702 C   0  0  0  0  0  0
   -6.4255    3.7685   30.5547 C   0  0  0  0  0  0
   -2.4007    5.1289   30.6091 C   0  0  0  0  0  0
   -1.1963    4.5123   30.9393 C   0  0  0  0  0  0
   -0.2072    5.4441   30.7145 N   0  0  0  0  0  0
   -0.7050    6.5819   30.2077 N   0  0  0  0  0  0
   -2.0010    6.4100   30.2078 C   0  0  0  0  0  0
    1.2560    5.3166   30.7911 C   0  0  0  0  0  0
    1.7991    4.3547   31.8684 C   0  0  0  0  0  0
    1.9161    2.8831   31.4076 C   0  0  0  0  0  0
    2.5453    2.7571   30.0913 N   0  0  2  0  0  0
    1.8852    3.5474   29.0517 C   0  0  0  0  0  0
    1.9038    5.0373   29.4227 C   0  0  0  0  0  0
   -5.6986    1.3364   30.1579 C   0  0  0  0  0  0
   -6.9287    0.9947   29.6674 O   0  0  0  0  0  0
   -4.8930    0.3169   30.4074 N   0  0  0  0  0  0
   -7.7797    3.4528   30.5423 N   0  0  0  0  0  0
   -5.6564   -0.7854   30.1150 C   0  0  0  0  0  0
   -6.9123   -0.3607   29.6599 C   0  0  0  0  0  0
   -7.9381   -1.2284   29.2936 C   0  0  0  0  0  0
   -7.6610   -2.5905   29.4081 C   0  0  0  0  0  0
   -6.4117   -3.0699   29.8569 C   0  0  0  0  0  0
   -5.3925   -2.1656   30.2069 C   0  0  0  0  0  0
   -6.0943   -4.4441   29.9488 N   0  0  0  0  0  0
   -6.9259   -5.5108   29.8946 C   0  0  0  0  0  0
   -8.1532   -5.4601   29.8376 O   0  0  0  0  0  0
   -6.2702   -6.8851   29.9204 C   0  0  0  0  0  0
   -4.7143    6.5340   30.9287 H   0  0  0  0  0  0
   -3.2795    2.5401   30.2668 H   0  0  0  0  0  0
   -0.9638    3.5176   31.2851 H   0  0  0  0  0  0
   -2.6544    7.1890   29.8534 H   0  0  0  0  0  0
    1.5501    6.3282   31.0805 H   0  0  0  0  0  0
    2.7797    4.6930   32.2056 H   0  0  0  0  0  0
    1.1979    4.4348   32.7739 H   0  0  0  0  0  0
    2.5460    2.3418   32.1152 H   0  0  0  0  0  0
    0.9585    2.3613   31.4017 H   0  0  0  0  0  0
    2.5266    1.7844   29.8101 H   0  0  0  0  0  0
    2.3919    3.3847   28.0999 H   0  0  0  0  0  0
    0.8584    3.1961   28.9353 H   0  0  0  0  0  0
    1.4177    5.6285   28.6462 H   0  0  0  0  0  0
    2.9261    5.4159   29.4071 H   0  0  0  0  0  0
   -8.0429    2.5066   30.3007 H   0  0  0  0  0  0
   -8.4519    4.2046   30.5667 H   0  0  0  0  0  0
   -8.8915   -0.8642   28.9417 H   0  0  0  0  0  0
   -8.4435   -3.2667   29.1023 H   0  0  0  0  0  0
   -4.4284   -2.5169   30.5458 H   0  0  0  0  0  0
   -5.1217   -4.6607   30.1492 H   0  0  0  0  0  0
   -6.2797   -7.2853   30.9329 H   0  0  0  0  0  0
   -5.2399   -6.8403   29.5726 H   0  0  0  0  0  0
   -6.8118   -7.5731   29.2720 H   0  0  0  0  0  0
  1  6  1  0  0  0
  1  2  2  0  0  0
  2  3  1  0  0  0
  2 32  1  0  0  0
  3  7  1  0  0  0
  3  4  2  0  0  0
  4  5  1  0  0  0
  4 33  1  0  0  0
  5 18  1  0  0  0
  5  6  2  0  0  0
  6 21  1  0  0  0
  7 11  1  0  0  0
  7  8  2  0  0  0
  8  9  1  0  0  0
  8 34  1  0  0  0
  9 12  1  0  0  0
  9 10  1  0  0  0
 10 11  2  0  0  0
 11 35  1  0  0  0
 12 17  1  0  0  0
 12 13  1  0  0  0
 12 36  1  0  0  0
 13 14  1  0  0  0
 13 37  1  0  0  0
 13 38  1  0  0  0
 14 15  1  0  0  0
 14 39  1  0  0  0
 14 40  1  0  0  0
 15 16  1  0  0  0
 15 41  1  0  0  0
 16 17  1  0  0  0
 16 42  1  0  0  0
 16 43  1  0  0  0
 17 44  1  0  0  0
 17 45  1  0  0  0
 18 19  1  0  0  0
 18 20  2  0  0  0
 19 23  1  0  0  0
 20 22  1  0  0  0
 21 46  1  0  0  0
 21 47  1  0  0  0
 22 23  2  0  0  0
 22 27  1  0  0  0
 23 24  1  0  0  0
 24 25  2  0  0  0
 24 48  1  0  0  0
 25 26  1  0  0  0
 25 49  1  0  0  0
 26 27  2  0  0  0
 26 28  1  0  0  0
 27 50  1  0  0  0
 28 29  1  0  0  0
 28 51  1  0  0  0
 29 30  2  0  0  0
 29 31  1  0  0  0
 31 52  1  0  0  0
 31 53  1  0  0  0
 31 54  1  0  0  0
M  END
> <s_m_entry_id>
10470

> <s_m_entry_name>
dock_pv.539

> <s_m_Source_Path>
/home/csk/Desktop/cluster/DUD-E-result/met

> <s_m_Source_File>
dock_pv.maegz

> <i_m_Source_File_Index>
539

> <chembl_id>
CHEMBL2032159

> <chembl_pref_name>
None

> <i_lp_mmshare_version>
53161

> <i_f3d_flags>
0

> <r_lp_tautomer_probability>
0.999999772200052

> <s_lp_Force_Field>
OPLS_2005

> <r_lp_Energy>
36.313132

> <b_lp_Chiralities_Consistent>
1

> <s_lp_Variant>
CHEMBL3717_lig1216-1

> <s_i_glide_gridfile>
glide-grid_3lq8

> <i_i_glide_lignum>
1392

> <i_i_glide_rotatable_bonds>
5

> <r_i_docking_score>
-7.15221866475466

> <r_i_glide_ligand_efficiency>
-0.230716731121118

> <r_i_glide_ligand_efficiency_sa>
-0.724769074497251

> <r_i_glide_ligand_efficiency_ln>
-1.61304449808062

> <r_i_glide_gscore>
-7.15221866475466

> <r_i_glide_lipo>
-3.52985100953527

> <r_i_glide_hbond>
-0.16

> <r_i_glide_metal>
0

> <r_i_glide_rewards>
-1.25988361787464

> <r_i_glide_evdw>
-44.4317321777344

> <r_i_glide_ecoul>
-2.24146723747253

> <r_i_glide_erotb>
0.453656805847162

> <r_i_glide_esite>
-0.0983341486843139

> <r_i_glide_emodel>
-60.5546386326635

> <r_i_glide_energy>
-46.6731994152069

> <r_i_glide_einternal>
5.47437477111816

> <i_i_glide_confnum>
1

> <i_i_glide_posenum>
14

> <r_i_glide_eff_state_penalty>
0

> <s_user_duplicate_titles>
CHEMBL3717_lig1216,CHEMBL3717_lig1229

> <s_m_subgroup_title>
dock_pv

> <s_m_subgroupid>
dock_pv

> <b_m_subgroup_collapsed>
1

$$$$
CHEMBL3717_lig999
                    3D
 Schrodinger Suite 2021-1.
 35 38  0  0  1  0            999 V2000
   -3.7491    4.7228   30.6079 C   0  0  0  0  0  0
   -4.8124    5.5556   30.9927 C   0  0  0  0  0  0
   -6.1110    5.1394   31.0097 N   0  0  0  0  0  0
   -6.3268    3.8786   30.6074 C   0  0  0  0  0  0
   -5.2556    3.0660   30.2077 N   0  0  0  0  0  0
   -3.9665    3.4365   30.2081 N   0  0  0  0  0  0
   -5.8239    1.8687   29.8227 C   0  0  0  0  0  0
   -7.1307    1.9275   30.0038 N   0  0  0  0  0  0
   -7.4784    3.1798   30.4972 N   0  0  0  0  0  0
   -5.0627    0.6954   29.2038 C   0  0  0  0  0  0
   -4.1749   -0.1451   30.1278 C   0  0  0  0  0  0
   -3.6852   -1.3698   29.6593 C   0  0  0  0  0  0
   -2.8532   -2.1500   30.4611 C   0  0  0  0  0  0
   -2.4928   -1.6959   31.7279 C   0  0  0  0  0  0
   -2.9681   -0.4767   32.2037 C   0  0  0  0  0  0
   -3.8183    0.2866   31.4090 C   0  0  0  0  0  0
   -1.6763   -2.4427   32.5047 F   0  0  0  0  0  0
   -2.3255    5.1667   30.6192 C   0  0  0  0  0  0
   -1.9800    6.4596   30.2080 C   0  0  0  0  0  0
   -0.6458    6.8551   30.1505 C   0  0  0  0  0  0
    0.3552    5.9656   30.5315 C   0  0  0  0  0  0
    0.0315    4.6841   30.9668 C   0  0  0  0  0  0
   -1.3026    4.2877   31.0077 C   0  0  0  0  0  0
   -4.6363    6.5719   31.3123 H   0  0  0  0  0  0
   -4.4305    1.0519   28.3898 H   0  0  0  0  0  0
   -5.7669    0.0142   28.7223 H   0  0  0  0  0  0
   -3.9500   -1.7214   28.6714 H   0  0  0  0  0  0
   -2.4951   -3.1103   30.1076 H   0  0  0  0  0  0
   -2.6831   -0.1254   33.1839 H   0  0  0  0  0  0
   -4.1956    1.2128   31.8008 H   0  0  0  0  0  0
   -2.7434    7.1543   29.8957 H   0  0  0  0  0  0
   -0.3894    7.8504   29.8152 H   0  0  0  0  0  0
    1.3898    6.2745   30.4919 H   0  0  0  0  0  0
    0.8107    3.9964   31.2624 H   0  0  0  0  0  0
   -1.5391    3.2846   31.3334 H   0  0  0  0  0  0
  1  2  1  0  0  0
  1  6  2  0  0  0
  1 18  1  0  0  0
  2  3  2  0  0  0
  2 24  1  0  0  0
  3  4  1  0  0  0
  4  5  1  0  0  0
  4  9  2  0  0  0
  5  6  1  0  0  0
  5  7  1  0  0  0
  7  8  2  0  0  0
  7 10  1  0  0  0
  8  9  1  0  0  0
 10 11  1  0  0  0
 10 25  1  0  0  0
 10 26  1  0  0  0
 11 12  2  0  0  0
 11 16  1  0  0  0
 12 13  1  0  0  0
 12 27  1  0  0  0
 13 14  2  0  0  0
 13 28  1  0  0  0
 14 15  1  0  0  0
 14 17  1  0  0  0
 15 16  2  0  0  0
 15 29  1  0  0  0
 16 30  1  0  0  0
 18 19  1  0  0  0
 18 23  2  0  0  0
 19 20  2  0  0  0
 19 31  1  0  0  0
 20 21  1  0  0  0
 20 32  1  0  0  0
 21 22  2  0  0  0
 21 33  1  0  0  0
 22 23  1  0  0  0
 22 34  1  0  0  0
 23 35  1  0  0  0
M  END
> <s_m_entry_id>
10472

> <s_m_entry_name>
dock_pv.541

> <s_m_Source_Path>
/home/csk/Desktop/cluster/DUD-E-result/met

> <s_m_Source_File>
dock_pv.maegz

> <i_m_Source_File_Index>
541

> <chembl_id>
CHEMBL1822975

> <chembl_pref_name>
None

> <i_lp_mmshare_version>
53161

> <i_f3d_flags>
0

> <r_lp_tautomer_probability>
1

> <s_lp_Force_Field>
OPLS_2005

> <r_lp_Energy>
23.559934

> <b_lp_Chiralities_Consistent>
1

> <s_lp_Variant>
CHEMBL3717_lig999-1

> <s_i_glide_gridfile>
glide-grid_3lq8

> <i_i_glide_lignum>
1111

> <i_i_glide_rotatable_bonds>
3

> <r_i_docking_score>
-7.14578569944391

> <r_i_glide_ligand_efficiency>
-0.310686334758431

> <r_i_glide_ligand_efficiency_sa>
-0.883550607587155

> <r_i_glide_ligand_efficiency_ln>
-1.72791577652791

> <r_i_glide_gscore>
-7.14578569944391

> <r_i_glide_lipo>
-3.02867529957558

> <r_i_glide_hbond>
0

> <r_i_glide_metal>
0

> <r_i_glide_rewards>
-2.89402150451743

> <r_i_glide_evdw>
-38.0064659118652

> <r_i_glide_ecoul>
0.55512547492981

> <r_i_glide_erotb>
0.593965579002894

> <r_i_glide_esite>
0

> <r_i_glide_emodel>
-52.8155717839495

> <r_i_glide_energy>
-37.4513404369354

> <r_i_glide_einternal>
1.66109216213226

> <i_i_glide_confnum>
1

> <i_i_glide_posenum>
300

> <r_i_glide_eff_state_penalty>
0

> <s_user_duplicate_titles>
CHEMBL3717_lig999

> <s_m_subgroup_title>
dock_pv

> <s_m_subgroupid>
dock_pv

> <b_m_subgroup_collapsed>
1

$$$$
CHEMBL3717_lig1657
                    3D
 Schrodinger Suite 2021-1.
 57 60  0  0  1  0            999 V2000
   -5.7922    2.7726   30.3629 C   0  0  0  0  0  0
   -6.3511    4.0485   30.4592 C   0  0  0  0  0  0
   -5.5106    5.1575   30.5735 C   0  0  0  0  0  0
   -4.4134    2.5680   30.4395 C   0  0  0  0  0  0
   -3.5463    3.6870   30.6072 C   0  0  0  0  0  0
   -4.1063    5.0001   30.6084 C   0  0  0  0  0  0
   -3.3294    6.1146   30.6447 N   0  0  0  0  0  0
   -1.9851    5.9572   30.6952 C   0  0  0  0  0  0
   -1.3300    4.7252   30.7630 C   0  0  0  0  0  0
   -2.1317    3.5798   30.7183 C   0  0  0  0  0  0
    0.0569    4.6381   30.8262 N   0  0  0  0  0  0
    0.7876    3.5744   31.5384 C   0  0  0  0  0  0
    2.0103    3.0479   30.7527 C   0  0  0  0  0  0
    2.9353    4.1449   30.4669 N   0  0  0  0  0  0
    2.2262    5.1232   29.6369 C   0  0  0  0  0  0
    0.9826    5.6877   30.3644 C   0  0  0  0  0  0
   -3.9166    1.2690   30.2549 N   0  0  0  0  0  0
   -7.8699    4.2137   30.3977 C   0  0  0  0  0  0
   -8.2278    5.4804   30.2078 F   0  0  0  0  0  0
   -8.3781    3.4898   29.4033 F   0  0  0  0  0  0
   -8.3970    3.7940   31.5458 F   0  0  0  0  0  0
   -4.1189    0.3556   31.3737 C   0  0  0  0  0  0
   -4.6494   -0.9647   30.8324 C   0  0  0  0  0  0
   -3.9401   -1.6707   29.8524 C   0  0  0  0  0  0
   -4.4386   -2.8727   29.3223 C   0  0  0  0  0  0
   -5.6621   -3.3577   29.8080 C   0  0  0  0  0  0
   -6.3641   -2.6681   30.7960 C   0  0  0  0  0  0
   -5.8580   -1.4765   31.3101 C   0  0  0  0  0  0
    4.1098    3.6438   29.7583 C   0  0  0  0  0  0
   -3.6933   -3.6433   28.2635 C   0  0  0  0  0  0
   -2.3596   -3.0818   27.7822 C   0  0  0  0  0  0
   -4.0944   -4.6994   27.7711 O   0  0  0  0  0  0
   -6.4421    1.9165   30.2362 H   0  0  0  0  0  0
   -5.9206    6.1583   30.6054 H   0  0  0  0  0  0
   -1.4248    6.8786   30.7071 H   0  0  0  0  0  0
   -1.6896    2.5966   30.7090 H   0  0  0  0  0  0
    1.1214    3.9658   32.4997 H   0  0  0  0  0  0
    0.1245    2.7562   31.8050 H   0  0  0  0  0  0
    2.5191    2.2855   31.3444 H   0  0  0  0  0  0
    1.6844    2.5617   29.8294 H   0  0  0  0  0  0
    1.9334    4.6859   28.6797 H   0  0  0  0  0  0
    2.8946    5.9509   29.4080 H   0  0  0  0  0  0
    0.4722    6.3761   29.6899 H   0  0  0  0  0  0
    1.2944    6.2812   31.2253 H   0  0  0  0  0  0
   -4.3232    0.8459   29.4301 H   0  0  0  0  0  0
   -4.8049    0.7551   32.1244 H   0  0  0  0  0  0
   -3.1620    0.1729   31.8659 H   0  0  0  0  0  0
   -3.0042   -1.2575   29.5017 H   0  0  0  0  0  0
   -6.0704   -4.2880   29.4339 H   0  0  0  0  0  0
   -7.2986   -3.0626   31.1650 H   0  0  0  0  0  0
   -6.4151   -0.9476   32.0712 H   0  0  0  0  0  0
    3.8423    3.1564   28.8183 H   0  0  0  0  0  0
    4.8004    4.4575   29.5326 H   0  0  0  0  0  0
    4.6481    2.9199   30.3725 H   0  0  0  0  0  0
   -1.6920   -2.9882   28.6364 H   0  0  0  0  0  0
   -2.4944   -2.0942   27.3411 H   0  0  0  0  0  0
   -1.9073   -3.7431   27.0419 H   0  0  0  0  0  0
  1  2  2  0  0  0
  1  4  1  0  0  0
  1 33  1  0  0  0
  2  3  1  0  0  0
  2 18  1  0  0  0
  3  6  2  0  0  0
  3 34  1  0  0  0
  4  5  2  0  0  0
  4 17  1  0  0  0
  5  6  1  0  0  0
  5 10  1  0  0  0
  6  7  1  0  0  0
  7  8  2  0  0  0
  8  9  1  0  0  0
  8 35  1  0  0  0
  9 10  2  0  0  0
  9 11  1  0  0  0
 10 36  1  0  0  0
 11 12  1  0  0  0
 11 16  1  0  0  0
 12 13  1  0  0  0
 12 37  1  0  0  0
 12 38  1  0  0  0
 13 14  1  0  0  0
 13 39  1  0  0  0
 13 40  1  0  0  0
 14 15  1  0  0  0
 14 29  1  0  0  0
 15 16  1  0  0  0
 15 41  1  0  0  0
 15 42  1  0  0  0
 16 43  1  0  0  0
 16 44  1  0  0  0
 17 22  1  0  0  0
 17 45  1  0  0  0
 18 19  1  0  0  0
 18 20  1  0  0  0
 18 21  1  0  0  0
 22 23  1  0  0  0
 22 46  1  0  0  0
 22 47  1  0  0  0
 23 24  2  0  0  0
 23 28  1  0  0  0
 24 25  1  0  0  0
 24 48  1  0  0  0
 25 26  2  0  0  0
 25 30  1  0  0  0
 26 27  1  0  0  0
 26 49  1  0  0  0
 27 28  2  0  0  0
 27 50  1  0  0  0
 28 51  1  0  0  0
 29 52  1  0  0  0
 29 53  1  0  0  0
 29 54  1  0  0  0
 30 31  1  0  0  0
 30 32  2  0  0  0
 31 55  1  0  0  0
 31 56  1  0  0  0
 31 57  1  0  0  0
M  END
> <s_m_entry_id>
10473

> <s_m_entry_name>
dock_pv.542

> <s_m_Source_Path>
/home/csk/Desktop/cluster/DUD-E-result/met

> <s_m_Source_File>
dock_pv.maegz

> <i_m_Source_File_Index>
542

> <chembl_id>
CHEMBL3221113

> <chembl_pref_name>
None

> <i_lp_mmshare_version>
53161

> <i_f3d_flags>
0

> <r_lp_tautomer_probability>
0.99995

> <s_lp_Force_Field>
OPLS_2005

> <r_lp_Energy>
55.450124

> <b_lp_Chiralities_Consistent>
1

> <s_lp_Variant>
CHEMBL3717_lig1657-1

> <s_i_glide_gridfile>
glide-grid_3lq8

> <i_i_glide_lignum>
1911

> <i_i_glide_rotatable_bonds>
6

> <r_i_docking_score>
-7.14292231494355

> <r_i_glide_ligand_efficiency>
-0.223216322341986

> <r_i_glide_ligand_efficiency_sa>
-0.708667648985598

> <r_i_glide_ligand_efficiency_ln>
-1.59949501502438

> <r_i_glide_gscore>
-7.14292231494355

> <r_i_glide_lipo>
-3.72540992119059

> <r_i_glide_hbond>
-0.141233297228426

> <r_i_glide_metal>
0

> <r_i_glide_rewards>
-1.21311082597541

> <r_i_glide_evdw>
-42.3220024108887

> <r_i_glide_ecoul>
-1.77502548694611

> <r_i_glide_erotb>
0.408276669792431

> <r_i_glide_esite>
-0.0890909967552078

> <r_i_glide_emodel>
-56.3088109542144

> <r_i_glide_energy>
-44.0970278978348

> <r_i_glide_einternal>
11.3955059051514

> <i_i_glide_confnum>
11

> <i_i_glide_posenum>
28

> <r_i_glide_eff_state_penalty>
0

> <s_user_duplicate_titles>
CHEMBL3717_lig1657

> <s_m_subgroup_title>
dock_pv

> <s_m_subgroupid>
dock_pv

> <b_m_subgroup_collapsed>
1

$$$$
CHEMBL3717_lig3929
                    3D
 Schrodinger Suite 2021-1.
 36 39  0  0  1  0            999 V2000
   -8.5705    5.1570   30.2080 N   0  0  0  0  0  0
   -8.0311    3.9128   30.1076 C   0  0  0  0  0  0
   -8.7541    2.8496   29.8750 N   0  0  0  0  0  0
   -7.9055    1.8092   29.8080 N   0  0  0  0  0  0
   -6.5952    2.2006   29.9921 C   0  0  0  0  0  0
   -5.3987    1.4854   29.9758 C   0  0  0  0  0  0
   -4.2336    2.2166   30.1968 C   0  0  0  0  0  0
   -4.2361    3.5964   30.4368 C   0  0  0  0  0  0
   -5.4431    4.3065   30.4332 C   0  0  0  0  0  0
   -6.6399    3.6012   30.2080 C   0  0  0  0  0  0
   -2.9239    4.2634   30.6998 C   0  0  0  0  0  0
   -2.6385    5.4927   30.2992 N   0  0  0  0  0  0
   -1.3148    5.7542   30.6080 N   0  0  0  0  0  0
   -0.8426    4.6783   31.2478 N   0  0  0  0  0  0
    0.5717    4.6406   31.6437 C   0  0  0  0  0  0
    1.5804    4.2487   30.5595 C   0  0  0  0  0  0
    1.1845    3.7730   29.3024 C   0  0  0  0  0  0
    2.1406    3.4293   28.3496 C   0  0  0  0  0  0
    3.4938    3.5570   28.6512 C   0  0  0  0  0  0
    3.9000    4.0164   29.9010 C   0  0  0  0  0  0
    2.9432    4.3570   30.8538 C   0  0  0  0  0  0
   -1.8416    3.7414   31.4080 C   0  0  0  0  0  0
   -1.6940    1.9570   32.6080 I   0  0  0  0  0  0
   -8.1216    5.9370   29.7468 H   0  0  0  0  0  0
   -9.5768    5.2436   30.2138 H   0  0  0  0  0  0
   -8.2525    0.8778   29.6290 H   0  0  0  0  0  0
   -5.3667    0.4206   29.7939 H   0  0  0  0  0  0
   -3.2954    1.6821   30.1733 H   0  0  0  0  0  0
   -5.4583    5.3740   30.5998 H   0  0  0  0  0  0
    0.7060    3.9570   32.4796 H   0  0  0  0  0  0
    0.8314    5.6304   32.0227 H   0  0  0  0  0  0
    0.1406    3.6550   29.0524 H   0  0  0  0  0  0
    1.8308    3.0576   27.3833 H   0  0  0  0  0  0
    4.2355    3.2844   27.9146 H   0  0  0  0  0  0
    4.9522    4.1076   30.1272 H   0  0  0  0  0  0
    3.2647    4.7153   31.8209 H   0  0  0  0  0  0
  1  2  1  0  0  0
  1 24  1  0  0  0
  1 25  1  0  0  0
  2  3  2  0  0  0
  2 10  1  0  0  0
  3  4  1  0  0  0
  4  5  1  0  0  0
  4 26  1  0  0  0
  5  6  2  0  0  0
  5 10  1  0  0  0
  6  7  1  0  0  0
  6 27  1  0  0  0
  7  8  2  0  0  0
  7 28  1  0  0  0
  8  9  1  0  0  0
  8 11  1  0  0  0
  9 10  2  0  0  0
  9 29  1  0  0  0
 11 12  1  0  0  0
 11 22  2  0  0  0
 12 13  2  0  0  0
 13 14  1  0  0  0
 14 15  1  0  0  0
 14 22  1  0  0  0
 15 16  1  0  0  0
 15 30  1  0  0  0
 15 31  1  0  0  0
 16 17  2  0  0  0
 16 21  1  0  0  0
 17 18  1  0  0  0
 17 32  1  0  0  0
 18 19  2  0  0  0
 18 33  1  0  0  0
 19 20  1  0  0  0
 19 34  1  0  0  0
 20 21  2  0  0  0
 20 35  1  0  0  0
 21 36  1  0  0  0
 22 23  1  0  0  0
M  END
> <s_m_entry_id>
10474

> <s_m_entry_name>
dock_pv.543

> <s_m_Source_Path>
/home/csk/Desktop/cluster/DUD-E-result/met

> <s_m_Source_File>
dock_pv.maegz

> <i_m_Source_File_Index>
543

> <chembl_id>
CHEMBL1975128

> <chembl_pref_name>
None

> <i_lp_mmshare_version>
53161

> <i_f3d_flags>
0

> <r_lp_tautomer_probability>
1

> <s_lp_Force_Field>
OPLS_2005

> <r_lp_Energy>
16.412442

> <b_lp_Chiralities_Consistent>
1

> <s_lp_Variant>
CHEMBL3717_lig3929-1

> <s_i_glide_gridfile>
glide-grid_3lq8

> <i_i_glide_lignum>
4992

> <i_i_glide_rotatable_bonds>
3

> <r_i_docking_score>
-7.14057860193989

> <r_i_glide_ligand_efficiency>
-0.310459939214778

> <r_i_glide_ligand_efficiency_sa>
-0.882906768776847

> <r_i_glide_ligand_efficiency_ln>
-1.72665665313609

> <r_i_glide_gscore>
-7.14057860193989

> <r_i_glide_lipo>
-3.59678564702507

> <r_i_glide_hbond>
0

> <r_i_glide_metal>
0

> <r_i_glide_rewards>
-1.6969722552418

> <r_i_glide_evdw>
-34.6768913269043

> <r_i_glide_ecoul>
-2.78567886352539

> <r_i_glide_erotb>
0.342082835060146

> <r_i_glide_esite>
-0.0372071388591414

> <r_i_glide_emodel>
-51.5068259532075

> <r_i_glide_energy>
-37.4625701904297

> <r_i_glide_einternal>
1.66534662246704

> <i_i_glide_confnum>
13

> <i_i_glide_posenum>
26

> <r_i_glide_eff_state_penalty>
0

> <s_user_duplicate_titles>
CHEMBL3717_lig3929

> <s_m_subgroup_title>
dock_pv

> <s_m_subgroupid>
dock_pv

> <b_m_subgroup_collapsed>
1

$$$$
CHEMBL3717_lig2018
                    3D
 Schrodinger Suite 2021-1.
 42 44  0  0  1  0            999 V2000
    2.2686    3.4302   29.2053 C   0  0  0  0  0  0
    3.0764    3.6988   30.3045 C   0  0  0  0  0  0
    2.4949    4.1304   31.4931 C   0  0  0  0  0  0
    1.1204    4.3183   31.5918 C   0  0  0  0  0  0
    0.2986    4.0299   30.5017 C   0  0  0  0  0  0
    0.8876    3.5857   29.3088 C   0  0  0  0  0  0
   -1.1555    4.1583   30.6236 C   0  0  0  0  0  0
   -1.9703    3.1553   30.6074 N   0  0  0  0  0  0
   -3.3688    3.3183   30.6075 N   0  0  0  0  0  0
   -4.0107    4.5474   30.6080 C   0  0  0  0  0  0
   -3.0783    5.6490   30.7879 C   0  0  0  0  0  0
   -1.7365    5.4742   30.7659 C   0  0  0  0  0  0
   -5.2128    4.7473   30.4264 O   0  0  0  0  0  0
   -4.2193    2.1299   30.3009 C   0  0  0  0  0  0
   -3.8293    0.7220   30.7910 C   0  0  0  0  0  0
   -4.4640   -0.3932   30.2215 C   0  0  0  0  0  0
   -4.1649   -1.6966   30.6566 C   0  0  0  0  0  0
   -3.1792   -1.8874   31.6249 C   0  0  0  0  0  0
   -2.5507   -0.7886   32.2045 C   0  0  0  0  0  0
   -2.8930    0.5029   31.8067 C   0  0  0  0  0  0
   -4.8178   -2.8424   30.1767 N   0  0  0  0  0  0
   -6.1520   -2.9417   29.8083 C   0  0  0  0  0  0
   -6.4124   -4.2209   29.4736 O   0  0  0  0  0  0
   -6.9880   -2.0347   29.8065 O   0  0  0  0  0  0
   -7.7363   -4.6301   29.1590 C   0  0  0  0  0  0
    2.8207    3.0082   28.0455 F   0  0  0  0  0  0
    3.2620    4.3568   32.5680 F   0  0  0  0  0  0
    4.1452    3.5652   30.2355 H   0  0  0  0  0  0
    0.7074    4.6582   32.5301 H   0  0  0  0  0  0
    0.2950    3.3371   28.4467 H   0  0  0  0  0  0
   -3.4942    6.6402   30.8919 H   0  0  0  0  0  0
   -1.1018    6.3471   30.8357 H   0  0  0  0  0  0
   -4.3119    2.0857   29.2148 H   0  0  0  0  0  0
   -5.2345    2.2743   30.6790 H   0  0  0  0  0  0
   -5.2028   -0.2452   29.4467 H   0  0  0  0  0  0
   -2.9208   -2.8851   31.9525 H   0  0  0  0  0  0
   -1.8056   -0.9360   32.9723 H   0  0  0  0  0  0
   -2.4061    1.3298   32.2993 H   0  0  0  0  0  0
   -4.3086   -3.7184   30.2240 H   0  0  0  0  0  0
   -7.7388   -5.6784   28.8615 H   0  0  0  0  0  0
   -8.1528   -4.0449   28.3381 H   0  0  0  0  0  0
   -8.3912   -4.5185   30.0239 H   0  0  0  0  0  0
  1  2  2  0  0  0
  1  6  1  0  0  0
  1 26  1  0  0  0
  2  3  1  0  0  0
  2 28  1  0  0  0
  3  4  2  0  0  0
  3 27  1  0  0  0
  4  5  1  0  0  0
  4 29  1  0  0  0
  5  6  2  0  0  0
  5  7  1  0  0  0
  6 30  1  0  0  0
  7  8  2  0  0  0
  7 12  1  0  0  0
  8  9  1  0  0  0
  9 10  1  0  0  0
  9 14  1  0  0  0
 10 11  1  0  0  0
 10 13  2  0  0  0
 11 12  2  0  0  0
 11 31  1  0  0  0
 12 32  1  0  0  0
 14 15  1  0  0  0
 14 33  1  0  0  0
 14 34  1  0  0  0
 15 16  2  0  0  0
 15 20  1  0  0  0
 16 17  1  0  0  0
 16 35  1  0  0  0
 17 18  2  0  0  0
 17 21  1  0  0  0
 18 19  1  0  0  0
 18 36  1  0  0  0
 19 20  2  0  0  0
 19 37  1  0  0  0
 20 38  1  0  0  0
 21 22  1  0  0  0
 21 39  1  0  0  0
 22 23  1  0  0  0
 22 24  2  0  0  0
 23 25  1  0  0  0
 25 40  1  0  0  0
 25 41  1  0  0  0
 25 42  1  0  0  0
M  END
> <s_m_entry_id>
10475

> <s_m_entry_name>
dock_pv.544

> <s_m_Source_Path>
/home/csk/Desktop/cluster/DUD-E-result/met

> <s_m_Source_File>
dock_pv.maegz

> <i_m_Source_File_Index>
544

> <chembl_id>
CHEMBL3402744

> <chembl_pref_name>
None

> <i_lp_mmshare_version>
53161

> <i_f3d_flags>
0

> <r_lp_tautomer_probability>
1

> <s_lp_Force_Field>
OPLS_2005

> <r_lp_Energy>
35.140843

> <b_lp_Chiralities_Consistent>
1

> <s_lp_Variant>
CHEMBL3717_lig2018-1

> <s_i_glide_gridfile>
glide-grid_3lq8

> <i_i_glide_lignum>
2314

> <i_i_glide_rotatable_bonds>
6

> <r_i_docking_score>
-7.13781163272619

> <r_i_glide_ligand_efficiency>
-0.264363393804674

> <r_i_glide_ligand_efficiency_sa>
-0.793090180542722

> <r_i_glide_ligand_efficiency_ln>
-1.66156487207701

> <r_i_glide_gscore>
-7.13781163272619

> <r_i_glide_lipo>
-3.48512051706035

> <r_i_glide_hbond>
-0.14106411636782

> <r_i_glide_metal>
0

> <r_i_glide_rewards>
-2.19106897584223

> <r_i_glide_evdw>
-37.2105560302734

> <r_i_glide_ecoul>
-0.641959369182587

> <r_i_glide_erotb>
0.699898838772333

> <r_i_glide_esite>
-0.0636351553370644

> <r_i_glide_emodel>
-50.5999666941618

> <r_i_glide_energy>
-37.852515399456

> <r_i_glide_einternal>
8.89470863342285

> <i_i_glide_confnum>
28

> <i_i_glide_posenum>
60

> <r_i_glide_eff_state_penalty>
0

> <s_user_duplicate_titles>
CHEMBL3717_lig2018

> <s_m_subgroup_title>
dock_pv

> <s_m_subgroupid>
dock_pv

> <b_m_subgroup_collapsed>
1

$$$$
CHEMBL3717_lig1260
                    3D
 Schrodinger Suite 2021-1.
 43 45  0  0  1  0            999 V2000
   -4.6298    4.4338   30.4621 C   0  0  0  0  0  0
   -3.2878    4.0364   30.6171 C   0  0  0  0  0  0
   -3.0041    2.6684   30.6079 C   0  0  0  0  0  0
   -4.0263    1.7483   30.3899 C   0  0  0  0  0  0
   -5.3175    2.2278   30.1696 C   0  0  0  0  0  0
   -5.6259    3.5483   30.2084 N   0  0  0  0  0  0
   -2.2213    4.9833   31.0687 C   0  0  0  0  0  0
   -2.3780    5.5572   32.1335 O   0  0  0  0  0  0
   -1.1242    5.0927   30.3059 N   0  0  0  0  0  0
   -3.2955   -1.7527   29.7777 N   0  0  0  0  0  0
   -3.1005   -1.7563   31.1030 N   0  0  0  0  0  0
   -3.3498   -0.5184   31.4710 C   0  0  0  0  0  0
   -3.7215    0.3084   30.4000 C   0  0  0  0  0  0
   -3.6874   -0.5299   29.3101 C   0  0  0  0  0  0
   -3.0990   -2.9638   29.0072 C   0  0  0  0  0  0
    0.0834    5.8601   30.5975 C   0  0  2  0  0  0
    0.2781    7.0409   29.6223 C   0  0  0  0  0  0
    1.2675    4.8873   30.7315 C   0  0  0  0  0  0
    1.7272    4.1462   29.6295 C   0  0  0  0  0  0
    2.6877    3.1571   29.7641 C   0  0  0  0  0  0
    3.1711    2.8289   31.0229 C   0  0  0  0  0  0
    2.7278    3.5465   32.1311 C   0  0  0  0  0  0
    1.8341    4.6040   31.9869 C   0  0  0  0  0  0
    3.1056    2.4985   28.6594 F   0  0  0  0  0  0
    1.5060    5.5567   33.3897 Cl  0  0  0  0  0  0
    1.1062    4.3570   28.0585 Cl  0  0  0  0  0  0
   -5.0339    5.7599   30.6078 N   0  0  0  0  0  0
   -2.0005    2.3150   30.7993 H   0  0  0  0  0  0
   -6.1344    1.5457   29.9867 H   0  0  0  0  0  0
   -1.0983    4.5536   29.4566 H   0  0  0  0  0  0
   -3.2576   -0.2097   32.5015 H   0  0  0  0  0  0
   -3.8398   -0.3583   28.2544 H   0  0  0  0  0  0
   -3.1747   -2.7491   27.9410 H   0  0  0  0  0  0
   -3.8678   -3.6847   29.2802 H   0  0  0  0  0  0
   -2.1132   -3.3768   29.2168 H   0  0  0  0  0  0
   -0.0461    6.3565   31.5473 H   0  0  0  0  0  0
    1.2169    7.5585   29.8059 H   0  0  0  0  0  0
    0.2562    6.7564   28.5735 H   0  0  0  0  0  0
   -0.5182    7.7755   29.7513 H   0  0  0  0  0  0
    3.8910    2.0324   31.1363 H   0  0  0  0  0  0
    3.1063    3.3034   33.1117 H   0  0  0  0  0  0
   -4.3517    6.4550   30.8638 H   0  0  0  0  0  0
   -5.9739    6.0174   30.3362 H   0  0  0  0  0  0
  1  2  1  0  0  0
  1  6  2  0  0  0
  1 27  1  0  0  0
  2  3  2  0  0  0
  2  7  1  0  0  0
  3  4  1  0  0  0
  3 28  1  0  0  0
  4  5  2  0  0  0
  4 13  1  0  0  0
  5  6  1  0  0  0
  5 29  1  0  0  0
  7  8  2  0  0  0
  7  9  1  0  0  0
  9 16  1  0  0  0
  9 30  1  0  0  0
 10 11  1  0  0  0
 10 14  1  0  0  0
 10 15  1  0  0  0
 11 12  2  0  0  0
 12 13  1  0  0  0
 12 31  1  0  0  0
 13 14  2  0  0  0
 14 32  1  0  0  0
 15 33  1  0  0  0
 15 34  1  0  0  0
 15 35  1  0  0  0
 16 17  1  0  0  0
 16 18  1  0  0  0
 16 36  1  0  0  0
 17 37  1  0  0  0
 17 38  1  0  0  0
 17 39  1  0  0  0
 18 19  1  0  0  0
 18 23  2  0  0  0
 19 20  2  0  0  0
 19 26  1  0  0  0
 20 21  1  0  0  0
 20 24  1  0  0  0
 21 22  2  0  0  0
 21 40  1  0  0  0
 22 23  1  0  0  0
 22 41  1  0  0  0
 23 25  1  0  0  0
 27 42  1  0  0  0
 27 43  1  0  0  0
M  END
> <s_m_entry_id>
10476

> <s_m_entry_name>
dock_pv.545

> <s_m_Source_Path>
/home/csk/Desktop/cluster/DUD-E-result/met

> <s_m_Source_File>
dock_pv.maegz

> <i_m_Source_File_Index>
545

> <chembl_id>
CHEMBL2071448

> <chembl_pref_name>
None

> <i_lp_mmshare_version>
53161

> <i_f3d_flags>
0

> <r_lp_tautomer_probability>
0.999999772200052

> <s_lp_Force_Field>
OPLS_2005

> <r_lp_Energy>
19.349187

> <b_lp_Chiralities_Consistent>
1

> <s_lp_Variant>
CHEMBL3717_lig1260-1

> <s_i_glide_gridfile>
glide-grid_3lq8

> <i_i_glide_lignum>
1438

> <i_i_glide_rotatable_bonds>
5

> <r_i_docking_score>
-7.13655734744181

> <r_i_glide_ligand_efficiency>
-0.264316938794141

> <r_i_glide_ligand_efficiency_sa>
-0.792950815511278

> <r_i_glide_ligand_efficiency_ln>
-1.66127289514132

> <r_i_glide_gscore>
-7.13655734744181

> <r_i_glide_lipo>
-3.77739253142814

> <r_i_glide_hbond>
-0.0286432928058147

> <r_i_glide_metal>
0

> <r_i_glide_rewards>
-2.13828271416095

> <r_i_glide_evdw>
-26.8687610626221

> <r_i_glide_ecoul>
-2.07897639274597

> <r_i_glide_erotb>
0.472291715196351

> <r_i_glide_esite>
-0.00924601220025491

> <r_i_glide_emodel>
-32.2385669320559

> <r_i_glide_energy>
-28.947737455368

> <r_i_glide_einternal>
11.6450242996216

> <i_i_glide_confnum>
17

> <i_i_glide_posenum>
340

> <r_i_glide_eff_state_penalty>
0

> <s_user_duplicate_titles>
CHEMBL3717_lig1260

> <s_m_subgroup_title>
dock_pv

> <s_m_subgroupid>
dock_pv

> <b_m_subgroup_collapsed>
1

$$$$
CHEMBL3717_lig4375
                    3D
 Schrodinger Suite 2021-1.
 40 44  0  0  1  0            999 V2000
    6.7740    4.3569   29.4541 O   0  0  0  0  0  0
    5.5761    4.2349   29.6814 C   0  0  0  0  0  0
    4.6658    3.9574   28.7142 N   0  0  0  0  0  0
    3.3010    3.8486   28.9387 C   0  0  0  0  0  0
    2.2514    3.5466   28.0829 C   0  0  0  0  0  0
    1.1053    3.5569   28.8626 C   0  0  0  0  0  0
    1.3975    3.8828   30.1640 N   0  0  0  0  0  0
    0.4538    3.9626   31.2777 C   0  0  0  0  0  0
   -0.8459    4.6750   30.9246 C   0  0  0  0  0  0
   -0.9653    5.9581   30.6591 N   0  0  0  0  0  0
   -2.2958    6.2623   30.4055 N   0  0  0  0  0  0
   -2.9656    5.0895   30.4584 C   0  0  0  0  0  0
   -4.2983    4.7292   30.2081 C   0  0  0  0  0  0
   -4.6237    3.3681   30.2621 C   0  0  0  0  0  0
   -3.6497    2.4145   30.6019 C   0  0  0  0  0  0
   -2.3648    2.7573   30.9068 N   0  0  0  0  0  0
   -2.0733    4.0606   30.7939 N   0  0  0  0  0  0
   -3.9524    0.9481   30.6567 C   0  0  0  0  0  0
   -4.8945    0.3805   29.7864 C   0  0  0  0  0  0
   -5.1531   -0.9877   29.8075 C   0  0  0  0  0  0
   -4.4701   -1.8089   30.7004 C   0  0  0  0  0  0
   -3.5384   -1.2669   31.5802 C   0  0  0  0  0  0
   -3.2872    0.1016   31.5600 C   0  0  0  0  0  0
    2.7625    4.0303   30.2148 C   0  0  0  0  0  0
    3.6884    4.3007   31.2947 C   0  0  0  0  0  0
    5.0102    4.3589   31.0080 C   0  0  0  0  0  0
    5.0678    3.8091   27.8047 H   0  0  0  0  0  0
    2.3134    3.3225   27.0278 H   0  0  0  0  0  0
    0.0815    3.3366   28.6079 H   0  0  0  0  0  0
    0.2783    2.9413   31.6172 H   0  0  0  0  0  0
    0.9444    4.4772   32.1047 H   0  0  0  0  0  0
   -5.0344    5.4735   29.9381 H   0  0  0  0  0  0
   -5.6384    3.0583   30.0563 H   0  0  0  0  0  0
   -5.4170    0.9901   29.0637 H   0  0  0  0  0  0
   -5.8647   -1.4141   29.1156 H   0  0  0  0  0  0
   -4.6565   -2.8740   30.7072 H   0  0  0  0  0  0
   -3.0106   -1.9095   32.2700 H   0  0  0  0  0  0
   -2.5571    0.5028   32.2491 H   0  0  0  0  0  0
    3.3468    4.4349   32.3096 H   0  0  0  0  0  0
    5.7094    4.5724   31.8019 H   0  0  0  0  0  0
  1  2  2  0  0  0
  2  3  1  0  0  0
  2 26  1  0  0  0
  3  4  1  0  0  0
  3 27  1  0  0  0
  4  5  1  0  0  0
  4 24  2  0  0  0
  5  6  2  0  0  0
  5 28  1  0  0  0
  6  7  1  0  0  0
  6 29  1  0  0  0
  7  8  1  0  0  0
  7 24  1  0  0  0
  8  9  1  0  0  0
  8 30  1  0  0  0
  8 31  1  0  0  0
  9 10  2  0  0  0
  9 17  1  0  0  0
 10 11  1  0  0  0
 11 12  2  0  0  0
 12 13  1  0  0  0
 12 17  1  0  0  0
 13 14  2  0  0  0
 13 32  1  0  0  0
 14 15  1  0  0  0
 14 33  1  0  0  0
 15 16  2  0  0  0
 15 18  1  0  0  0
 16 17  1  0  0  0
 18 19  2  0  0  0
 18 23  1  0  0  0
 19 20  1  0  0  0
 19 34  1  0  0  0
 20 21  2  0  0  0
 20 35  1  0  0  0
 21 22  1  0  0  0
 21 36  1  0  0  0
 22 23  2  0  0  0
 22 37  1  0  0  0
 23 38  1  0  0  0
 24 25  1  0  0  0
 25 26  2  0  0  0
 25 39  1  0  0  0
 26 40  1  0  0  0
M  END
> <s_m_entry_id>
10478

> <s_m_entry_name>
dock_pv.547

> <s_m_Source_Path>
/home/csk/Desktop/cluster/DUD-E-result/met

> <s_m_Source_File>
dock_pv.maegz

> <i_m_Source_File_Index>
547

> <chembl_id>
CHEMBL3668199

> <chembl_pref_name>
None

> <i_lp_mmshare_version>
53161

> <i_f3d_flags>
0

> <r_lp_tautomer_probability>
1

> <s_lp_Force_Field>
OPLS_2005

> <r_lp_Energy>
34.325928

> <b_lp_Chiralities_Consistent>
1

> <s_lp_Variant>
CHEMBL3717_lig4375-1

> <s_i_glide_gridfile>
glide-grid_3lq8

> <i_i_glide_lignum>
5600

> <i_i_glide_rotatable_bonds>
3

> <r_i_docking_score>
-7.13220864635826

> <r_i_glide_ligand_efficiency>
-0.274315717167625

> <r_i_glide_ligand_efficiency_sa>
-0.812659232728865

> <r_i_glide_ligand_efficiency_ln>
-1.67497579791186

> <r_i_glide_gscore>
-7.13220864635826

> <r_i_glide_lipo>
-2.82156039182802

> <r_i_glide_hbond>
-0.00282956461269567

> <r_i_glide_metal>
0

> <r_i_glide_rewards>
-2.71446478885725

> <r_i_glide_evdw>
-42.9085159301758

> <r_i_glide_ecoul>
0.444910943508148

> <r_i_glide_erotb>
0.485335253922267

> <r_i_glide_esite>
0

> <r_i_glide_emodel>
-58.0018790393406

> <r_i_glide_energy>
-42.4636049866676

> <r_i_glide_einternal>
3.77440786361694

> <i_i_glide_confnum>
17

> <i_i_glide_posenum>
132

> <r_i_glide_eff_state_penalty>
0

> <s_user_duplicate_titles>
CHEMBL3717_lig4375

> <s_m_subgroup_title>
dock_pv

> <s_m_subgroupid>
dock_pv

> <b_m_subgroup_collapsed>
1

$$$$
CHEMBL3717_lig3315 
                    3D
 Schrodinger Suite 2021-1.
 46 49  0  0  1  0            999 V2000
    3.2469    3.5156   30.7373 C   0  0  0  0  0  0
    2.2411    2.7680   31.3477 C   0  0  0  0  0  0
    0.9340    3.1568   31.4015 N   0  0  0  0  0  0
    2.9080    4.7563   30.2119 C   0  0  0  0  0  0
    1.6024    5.1625   30.3086 N   0  0  0  0  0  0
    0.6084    4.3395   30.8613 C   0  0  0  0  0  0
   -0.6240    5.0142   30.6031 C   0  0  0  0  0  0
   -0.1896    6.2389   30.0677 C   0  0  0  0  0  0
    1.1050    6.3316   29.8663 N   0  0  0  0  0  0
   -2.0189    4.5141   30.6874 C   0  0  0  0  0  0
   -3.1917    5.2908   30.6410 C   0  0  0  0  0  0
   -4.6069    4.2928   30.5354 S   0  0  0  0  0  0
   -3.6699    2.8391   30.6109 C   0  0  0  0  0  0
   -2.3130    3.1388   30.6972 C   0  0  0  0  0  0
   -4.3316    1.5588   30.5698 C   0  0  0  0  0  0
   -5.4441    1.4349   30.0624 O   0  0  0  0  0  0
   -3.6678    0.5879   31.2282 N   0  0  0  0  0  0
   -4.0737   -0.7814   31.6263 C   0  0  1  0  0  0
   -3.3855    6.7784   30.6081 C   0  0  0  0  0  0
   -5.2471   -1.4991   30.8817 C   0  0  0  0  0  0
   -4.8731   -1.8033   29.4198 C   0  0  0  0  0  0
   -3.5766   -2.6311   29.3222 C   0  0  0  0  0  0
   -2.4233   -2.0579   30.1728 C   0  0  0  0  0  0
   -2.8379   -1.7345   31.6303 C   0  0  1  0  0  0
   -1.7143   -1.2596   32.4289 N   0  0  0  0  0  0
    4.8618    2.9203   30.6129 Cl  0  0  0  0  0  0
   -6.3926   -0.8221   30.9501 F   0  0  0  0  0  0
   -5.4912   -2.6585   31.4992 F   0  0  0  0  0  0
    2.4665    1.8048   31.7823 H   0  0  0  0  0  0
    3.6081    5.4145   29.7186 H   0  0  0  0  0  0
   -0.8178    7.0480   29.7319 H   0  0  0  0  0  0
   -1.5517    2.3756   30.7197 H   0  0  0  0  0  0
   -2.7685    0.8452   31.6056 H   0  0  0  0  0  0
   -4.3960   -0.6593   32.6621 H   0  0  0  0  0  0
   -2.9376    7.2056   29.7229 H   0  0  0  0  0  0
   -4.4333    7.0833   30.6361 H   0  0  0  0  0  0
   -2.8953    7.2880   31.4081 H   0  0  0  0  0  0
   -5.6887   -2.3344   28.9299 H   0  0  0  0  0  0
   -4.7490   -0.8670   28.8775 H   0  0  0  0  0  0
   -3.7916   -3.6428   29.6549 H   0  0  0  0  0  0
   -3.2683   -2.7177   28.2790 H   0  0  0  0  0  0
   -1.5893   -2.7618   30.1628 H   0  0  0  0  0  0
   -2.0710   -1.1511   29.6867 H   0  0  0  0  0  0
   -3.1516   -2.6738   32.0902 H   0  0  0  0  0  0
   -1.9721   -1.2133   33.4037 H   0  0  0  0  0  0
   -0.9501   -1.9197   32.3644 H   0  0  0  0  0  0
  1  2  1  0  0  0
  1  4  2  0  0  0
  1 26  1  0  0  0
  2  3  2  0  0  0
  2 29  1  0  0  0
  3  6  1  0  0  0
  4  5  1  0  0  0
  4 30  1  0  0  0
  5  6  1  0  0  0
  5  9  1  0  0  0
  6  7  2  0  0  0
  7  8  1  0  0  0
  7 10  1  0  0  0
  8  9  2  0  0  0
  8 31  1  0  0  0
 10 11  2  0  0  0
 10 14  1  0  0  0
 11 12  1  0  0  0
 11 19  1  0  0  0
 12 13  1  0  0  0
 13 14  2  0  0  0
 13 15  1  0  0  0
 14 32  1  0  0  0
 15 16  2  0  0  0
 15 17  1  0  0  0
 17 18  1  0  0  0
 17 33  1  0  0  0
 18 20  1  0  0  0
 18 24  1  0  0  0
 18 34  1  0  0  0
 19 35  1  0  0  0
 19 36  1  0  0  0
 19 37  1  0  0  0
 20 21  1  0  0  0
 20 27  1  0  0  0
 20 28  1  0  0  0
 21 22  1  0  0  0
 21 38  1  0  0  0
 21 39  1  0  0  0
 22 23  1  0  0  0
 22 40  1  0  0  0
 22 41  1  0  0  0
 23 24  1  0  0  0
 23 42  1  0  0  0
 23 43  1  0  0  0
 24 25  1  0  0  0
 24 44  1  0  0  0
 25 45  1  0  0  0
 25 46  1  0  0  0
M  END
> <s_m_entry_id>
10479

> <s_m_entry_name>
dock_pv.548

> <s_m_Source_Path>
/home/csk/Desktop/cluster/DUD-E-result/met

> <s_m_Source_File>
dock_pv.maegz

> <i_m_Source_File_Index>
548

> <chembl_id>
CHEMBL4552628

> <chembl_pref_name>
None

> <i_lp_mmshare_version>
53161

> <i_f3d_flags>
0

> <r_lp_tautomer_probability>
1

> <s_lp_Force_Field>
OPLS_2005

> <r_lp_Energy>
23.554812

> <b_lp_Chiralities_Consistent>
1

> <s_lp_Variant>
CHEMBL3717_lig3315 -1

> <s_i_glide_gridfile>
glide-grid_3lq8

> <i_i_glide_lignum>
4038

> <i_i_glide_rotatable_bonds>
4

> <r_i_docking_score>
-7.13122107937863

> <r_i_glide_ligand_efficiency>
-0.254686467120665

> <r_i_glide_ligand_efficiency_sa>
-0.773378116485568

> <r_i_glide_ligand_efficiency_ln>
-1.64609520686968

> <r_i_glide_gscore>
-7.13122107937863

> <r_i_glide_lipo>
-3.17744917678127

> <r_i_glide_hbond>
0

> <r_i_glide_metal>
0

> <r_i_glide_rewards>
-2.23394696295559

> <r_i_glide_evdw>
-41.9996032714844

> <r_i_glide_ecoul>
-0.268504768610001

> <r_i_glide_erotb>
0.437567371652079

> <r_i_glide_esite>
-0.017136432428129

> <r_i_glide_emodel>
-56.2230908655649

> <r_i_glide_energy>
-42.2681080400944

> <r_i_glide_einternal>
6.23003005981445

> <i_i_glide_confnum>
1

> <i_i_glide_posenum>
97

> <r_i_glide_eff_state_penalty>
0

> <s_user_duplicate_titles>
CHEMBL3717_lig3315 

> <s_m_subgroup_title>
dock_pv

> <s_m_subgroupid>
dock_pv

> <b_m_subgroup_collapsed>
1

$$$$
CHEMBL3717_lig1325
                    3D
 Schrodinger Suite 2021-1.
 35 38  0  0  1  0            999 V2000
   -4.6331   -1.7136   31.0103 C   0  0  0  0  0  0
   -3.7036   -2.4434   31.6785 C   0  0  0  0  0  0
   -2.4895   -1.8287   32.2594 C   0  0  0  0  0  0
   -2.4971   -0.3650   32.1535 C   0  0  0  0  0  0
   -3.4632    0.2929   31.4741 C   0  0  0  0  0  0
   -4.5086   -0.3449   30.8190 N   0  0  0  0  0  0
   -1.5878   -2.4421   32.8231 O   0  0  0  0  0  0
   -5.1134    0.2922   29.6452 C   0  0  0  0  0  0
   -4.3261    3.2249   30.2053 N   0  0  0  0  0  0
   -5.5775    2.7505   30.2096 N   0  0  0  0  0  0
   -6.7221    3.5011   30.5041 C   0  0  0  0  0  0
   -6.6178    4.8051   30.7972 N   0  0  0  0  0  0
   -5.3509    5.3139   30.8121 C   0  0  0  0  0  0
   -4.2127    4.5382   30.5396 C   0  0  0  0  0  0
   -7.3348    1.4281   30.1160 N   0  0  0  0  0  0
   -7.8069    2.6968   30.4370 N   0  0  0  0  0  0
   -6.0213    1.4664   29.9891 C   0  0  0  0  0  0
   -2.8135    5.0528   30.6075 C   0  0  0  0  0  0
   -2.5126    6.3649   30.2275 C   0  0  0  0  0  0
   -1.1944    6.8156   30.2035 C   0  0  0  0  0  0
   -0.1668    5.9570   30.5889 C   0  0  0  0  0  0
   -0.4455    4.6608   31.0011 C   0  0  0  0  0  0
   -1.7612    4.2124   31.0076 C   0  0  0  0  0  0
    1.1125    6.3840   30.5586 F   0  0  0  0  0  0
   -5.5296   -2.1660   30.6078 H   0  0  0  0  0  0
   -3.8699   -3.5020   31.8060 H   0  0  0  0  0  0
   -1.7244    0.2029   32.6483 H   0  0  0  0  0  0
   -3.4653    1.3634   31.4393 H   0  0  0  0  0  0
   -4.3197    0.5927   28.9587 H   0  0  0  0  0  0
   -5.6865   -0.4492   29.0849 H   0  0  0  0  0  0
   -5.2693    6.3610   31.0585 H   0  0  0  0  0  0
   -3.3012    7.0287   29.9108 H   0  0  0  0  0  0
   -0.9639    7.8238   29.8925 H   0  0  0  0  0  0
    0.3575    4.0025   31.2975 H   0  0  0  0  0  0
   -1.9550    3.1948   31.3149 H   0  0  0  0  0  0
  1  2  2  0  0  0
  1  6  1  0  0  0
  1 25  1  0  0  0
  2  3  1  0  0  0
  2 26  1  0  0  0
  3  4  1  0  0  0
  3  7  2  0  0  0
  4  5  2  0  0  0
  4 27  1  0  0  0
  5  6  1  0  0  0
  5 28  1  0  0  0
  6  8  1  0  0  0
  8 17  1  0  0  0
  8 29  1  0  0  0
  8 30  1  0  0  0
  9 10  1  0  0  0
  9 14  2  0  0  0
 10 11  1  0  0  0
 10 17  1  0  0  0
 11 12  1  0  0  0
 11 16  2  0  0  0
 12 13  2  0  0  0
 13 14  1  0  0  0
 13 31  1  0  0  0
 14 18  1  0  0  0
 15 16  1  0  0  0
 15 17  2  0  0  0
 18 19  1  0  0  0
 18 23  2  0  0  0
 19 20  2  0  0  0
 19 32  1  0  0  0
 20 21  1  0  0  0
 20 33  1  0  0  0
 21 22  2  0  0  0
 21 24  1  0  0  0
 22 23  1  0  0  0
 22 34  1  0  0  0
 23 35  1  0  0  0
M  END
> <s_m_entry_id>
10480

> <s_m_entry_name>
dock_pv.549

> <s_m_Source_Path>
/home/csk/Desktop/cluster/DUD-E-result/met

> <s_m_Source_File>
dock_pv.maegz

> <i_m_Source_File_Index>
549

> <chembl_id>
CHEMBL2170962

> <chembl_pref_name>
None

> <i_lp_mmshare_version>
53161

> <i_f3d_flags>
0

> <r_lp_tautomer_probability>
1

> <s_lp_Force_Field>
OPLS_2005

> <r_lp_Energy>
16.954809

> <b_lp_Chiralities_Consistent>
1

> <s_lp_Variant>
CHEMBL3717_lig1325-1

> <s_i_glide_gridfile>
glide-grid_3lq8

> <i_i_glide_lignum>
1511

> <i_i_glide_rotatable_bonds>
3

> <r_i_docking_score>
-7.12519406029984

> <r_i_glide_ligand_efficiency>
-0.296883085845827

> <r_i_glide_ligand_efficiency_sa>
-0.856359005078177

> <r_i_glide_ligand_efficiency_ln>
-1.70538589248058

> <r_i_glide_gscore>
-7.12519406029984

> <r_i_glide_lipo>
-2.85488215841736

> <r_i_glide_hbond>
0

> <r_i_glide_metal>
0

> <r_i_glide_rewards>
-2.96590262026515

> <r_i_glide_evdw>
-38.7377471923828

> <r_i_glide_ecoul>
0.616351366043091

> <r_i_glide_erotb>
0.540025373095347

> <r_i_glide_esite>
0

> <r_i_glide_emodel>
-52.9162208008956

> <r_i_glide_energy>
-38.1213958263397

> <r_i_glide_einternal>
3.86746764183044

> <i_i_glide_confnum>
22

> <i_i_glide_posenum>
53

> <r_i_glide_eff_state_penalty>
0

> <s_user_duplicate_titles>
CHEMBL3717_lig1325

> <s_m_subgroup_title>
dock_pv

> <s_m_subgroupid>
dock_pv

> <b_m_subgroup_collapsed>
1

$$$$
CHEMBL3717_lig1566
                    3D
 Schrodinger Suite 2021-1.
 45 48  0  0  1  0            999 V2000
   -2.4681    4.8927   30.7464 C   0  0  0  0  0  0
   -3.2333    6.0570   30.8798 C   0  0  0  0  0  0
   -4.5833    6.0793   30.8306 N   0  0  0  0  0  0
   -5.2444    4.9121   30.6643 C   0  0  0  0  0  0
   -4.5823    3.6791   30.5558 C   0  0  0  0  0  0
   -3.1803    3.6911   30.6079 C   0  0  0  0  0  0
   -0.9734    4.9382   30.6764 C   0  0  0  0  0  0
   -6.6312    5.0183   30.6065 N   0  0  0  0  0  0
   -5.5032    2.1513   30.4222 S   0  0  0  0  0  0
   -4.3993    0.7482   30.0592 C   0  0  1  0  0  0
   -4.9888   -0.5895   30.5540 C   0  0  0  0  0  0
   -3.9242    0.7077   28.5997 C   0  0  0  0  0  0
   -6.1349   -1.1601   29.9527 C   0  0  0  0  0  0
   -6.6251   -2.3885   30.3948 C   0  0  0  0  0  0
   -6.0065   -3.0626   31.4411 C   0  0  0  0  0  0
   -4.8925   -2.5094   32.0607 C   0  0  0  0  0  0
   -4.3785   -1.2827   31.6285 C   0  0  0  0  0  0
   -2.9841   -0.6674   32.4642 Cl  0  0  0  0  0  0
   -7.0070   -0.3961   28.6652 Cl  0  0  0  0  0  0
   -4.3130   -3.1754   33.0879 F   0  0  0  0  0  0
   -0.3202    6.0913   30.2077 C   0  0  0  0  0  0
    1.0605    6.1228   30.0328 C   0  0  0  0  0  0
   -0.1824    3.8228   31.0084 C   0  0  0  0  0  0
    1.2026    3.8551   30.8314 C   0  0  0  0  0  0
    1.8060    4.9870   30.3323 C   0  0  0  0  0  0
    3.1673    4.7570   30.2006 N   0  0  0  0  0  0
    3.5434    3.5376   30.6078 C   0  0  0  0  0  0
    2.2715    2.8312   31.0667 C   0  0  0  0  0  0
    4.6795    3.0720   30.6080 O   0  0  0  0  0  0
   -2.7726    7.0238   31.0069 H   0  0  0  0  0  0
   -2.6249    2.7786   30.4915 H   0  0  0  0  0  0
   -7.1550    4.1850   30.3821 H   0  0  0  0  0  0
   -7.0193    5.9370   30.4464 H   0  0  0  0  0  0
   -3.5025    0.9377   30.6319 H   0  0  0  0  0  0
   -3.3423   -0.1908   28.3887 H   0  0  0  0  0  0
   -4.7491    0.7570   27.8939 H   0  0  0  0  0  0
   -3.2940    1.5570   28.3638 H   0  0  0  0  0  0
   -7.4946   -2.8227   29.9229 H   0  0  0  0  0  0
   -6.3877   -4.0163   31.7748 H   0  0  0  0  0  0
   -0.8779    6.9712   29.9250 H   0  0  0  0  0  0
    1.5060    7.0265   29.6520 H   0  0  0  0  0  0
   -0.6426    2.9254   31.3924 H   0  0  0  0  0  0
    3.8247    5.4253   29.8299 H   0  0  0  0  0  0
    2.3585    2.5370   32.1121 H   0  0  0  0  0  0
    2.1383    1.9572   30.4395 H   0  0  0  0  0  0
  1  2  2  0  0  0
  1  6  1  0  0  0
  1  7  1  0  0  0
  2  3  1  0  0  0
  2 30  1  0  0  0
  3  4  2  0  0  0
  4  5  1  0  0  0
  4  8  1  0  0  0
  5  6  2  0  0  0
  5  9  1  0  0  0
  6 31  1  0  0  0
  7 21  2  0  0  0
  7 23  1  0  0  0
  8 32  1  0  0  0
  8 33  1  0  0  0
  9 10  1  0  0  0
 10 11  1  0  0  0
 10 12  1  0  0  0
 10 34  1  0  0  0
 11 13  2  0  0  0
 11 17  1  0  0  0
 12 35  1  0  0  0
 12 36  1  0  0  0
 12 37  1  0  0  0
 13 14  1  0  0  0
 13 19  1  0  0  0
 14 15  2  0  0  0
 14 38  1  0  0  0
 15 16  1  0  0  0
 15 39  1  0  0  0
 16 17  2  0  0  0
 16 20  1  0  0  0
 17 18  1  0  0  0
 21 22  1  0  0  0
 21 40  1  0  0  0
 22 25  2  0  0  0
 22 41  1  0  0  0
 23 24  2  0  0  0
 23 42  1  0  0  0
 24 25  1  0  0  0
 24 28  1  0  0  0
 25 26  1  0  0  0
 26 27  1  0  0  0
 26 43  1  0  0  0
 27 28  1  0  0  0
 27 29  2  0  0  0
 28 44  1  0  0  0
 28 45  1  0  0  0
M  END
> <s_m_entry_id>
10481

> <s_m_entry_name>
dock_pv.550

> <s_m_Source_Path>
/home/csk/Desktop/cluster/DUD-E-result/met

> <s_m_Source_File>
dock_pv.maegz

> <i_m_Source_File_Index>
550

> <chembl_id>
CHEMBL2442138

> <chembl_pref_name>
None

> <i_lp_mmshare_version>
53161

> <i_f3d_flags>
0

> <r_lp_tautomer_probability>
0.999999772200052

> <s_lp_Force_Field>
OPLS_2005

> <r_lp_Energy>
33.395212

> <b_lp_Chiralities_Consistent>
1

> <s_lp_Variant>
CHEMBL3717_lig1566-2

> <s_i_glide_gridfile>
glide-grid_3lq8

> <i_i_glide_lignum>
1807

> <i_i_glide_rotatable_bonds>
4

> <r_i_docking_score>
-7.12162613496408

> <r_i_glide_ligand_efficiency>
-0.245573314998761

> <r_i_glide_ligand_efficiency_sa>
-0.754479026763294

> <r_i_glide_ligand_efficiency_ln>
-1.63067179604962

> <r_i_glide_gscore>
-7.12162613496408

> <r_i_glide_lipo>
-3.59041448360871

> <r_i_glide_hbond>
0

> <r_i_glide_metal>
0

> <r_i_glide_rewards>
-1.4705184712548

> <r_i_glide_evdw>
-45.6990013122559

> <r_i_glide_ecoul>
-0.880758106708527

> <r_i_glide_erotb>
0.39862710362431

> <r_i_glide_esite>
-0.0422565021058113

> <r_i_glide_emodel>
-61.826703445975

> <r_i_glide_energy>
-46.5797594189644

> <r_i_glide_einternal>
2.9577784538269

> <i_i_glide_confnum>
3

> <i_i_glide_posenum>
18

> <r_i_glide_eff_state_penalty>
0

> <s_user_duplicate_titles>
CHEMBL3717_lig1566

> <s_m_subgroup_title>
dock_pv

> <s_m_subgroupid>
dock_pv

> <b_m_subgroup_collapsed>
1

$$$$
CHEMBL3717_lig3867
                    3D
 Schrodinger Suite 2021-1.
 49 52  0  0  1  0            999 V2000
   -5.3163    3.4025   30.5147 O   0  0  0  0  0  0
   -6.8745    1.0755   31.4061 O   0  0  0  0  0  0
   -3.1219   -2.0432   31.4477 N   0  0  0  0  0  0
   -3.9056    6.7570   30.6080 N   0  0  0  0  0  0
    4.3018    3.5582   29.8473 N   0  0  0  0  0  0
   -5.3454   -1.8403   31.7141 C   0  0  0  0  0  0
   -4.9601   -1.0754   30.5545 C   0  0  0  0  0  0
   -4.1647   -2.4376   32.2557 C   0  0  0  0  0  0
   -3.5925   -1.2480   30.4354 C   0  0  0  0  0  0
   -6.5720   -2.0839   32.3551 C   0  0  0  0  0  0
   -5.8693   -0.2610   29.6480 C   0  0  0  0  0  0
   -4.1911   -3.2492   33.3954 C   0  0  0  0  0  0
   -6.1871    1.1596   30.1695 C   0  0  2  0  0  0
   -6.6004   -2.9005   33.4831 C   0  0  0  0  0  0
   -5.4349   -3.4734   33.9846 C   0  0  0  0  0  0
   -4.3395    4.3742   30.5794 C   0  0  0  0  0  0
   -2.0523    5.2000   30.6279 C   0  0  0  0  0  0
   -4.9311    2.0424   30.3253 C   0  0  0  0  0  0
   -2.9563    4.1290   30.6080 C   0  0  0  0  0  0
   -4.7576    5.7030   30.6079 C   0  0  0  0  0  0
   -2.5779    6.4922   30.6081 C   0  0  0  0  0  0
   -0.5944    5.0167   30.6054 C   0  0  0  0  0  0
    1.5104    3.8235   29.9930 C   0  0  0  0  0  0
    0.0522    3.9901   30.0202 C   0  0  0  0  0  0
    2.3199    4.2172   31.0661 C   0  0  0  0  0  0
    2.1160    3.2939   28.8486 C   0  0  0  0  0  0
    3.7016    4.0634   30.9542 C   0  0  0  0  0  0
    3.5057    3.1850   28.8132 C   0  0  0  0  0  0
   -6.3268    0.5867   32.0279 H   0  0  0  0  0  0
   -2.1507   -2.3086   31.5286 H   0  0  0  0  0  0
   -2.9043   -0.8672   29.6920 H   0  0  0  0  0  0
   -7.4847   -1.6487   31.9754 H   0  0  0  0  0  0
   -6.8006   -0.8015   29.4698 H   0  0  0  0  0  0
   -5.4124   -0.1740   28.6602 H   0  0  0  0  0  0
   -3.2941   -3.6967   33.7962 H   0  0  0  0  0  0
   -6.8608    1.6412   29.4587 H   0  0  0  0  0  0
   -7.5417   -3.0941   33.9769 H   0  0  0  0  0  0
   -5.4981   -4.1050   34.8582 H   0  0  0  0  0  0
   -4.3248    1.9628   29.4200 H   0  0  0  0  0  0
   -4.3175    1.6894   31.1560 H   0  0  0  0  0  0
   -2.5768    3.1188   30.6063 H   0  0  0  0  0  0
   -5.8108    5.9440   30.5823 H   0  0  0  0  0  0
   -1.9267    7.3536   30.5961 H   0  0  0  0  0  0
   -0.0178    5.7832   31.1043 H   0  0  0  0  0  0
   -0.5134    3.2135   29.5255 H   0  0  0  0  0  0
    1.8911    4.6305   31.9677 H   0  0  0  0  0  0
    1.5249    2.9823   27.9988 H   0  0  0  0  0  0
    4.3505    4.3571   31.7649 H   0  0  0  0  0  0
    4.0030    2.7826   27.9441 H   0  0  0  0  0  0
  1 16  1  0  0  0
  1 18  1  0  0  0
  2 13  1  0  0  0
  2 29  1  0  0  0
  3  8  1  0  0  0
  3  9  1  0  0  0
  3 30  1  0  0  0
  4 20  1  0  0  0
  4 21  2  0  0  0
  5 27  2  0  0  0
  5 28  1  0  0  0
  6  7  1  0  0  0
  6  8  1  0  0  0
  6 10  2  0  0  0
  7  9  2  0  0  0
  7 11  1  0  0  0
  8 12  2  0  0  0
  9 31  1  0  0  0
 10 14  1  0  0  0
 10 32  1  0  0  0
 11 13  1  0  0  0
 11 33  1  0  0  0
 11 34  1  0  0  0
 12 15  1  0  0  0
 12 35  1  0  0  0
 13 18  1  0  0  0
 13 36  1  0  0  0
 14 15  2  0  0  0
 14 37  1  0  0  0
 15 38  1  0  0  0
 16 19  1  0  0  0
 16 20  2  0  0  0
 17 19  2  0  0  0
 17 21  1  0  0  0
 17 22  1  0  0  0
 18 39  1  0  0  0
 18 40  1  0  0  0
 19 41  1  0  0  0
 20 42  1  0  0  0
 21 43  1  0  0  0
 22 24  2  3  0  0
 22 44  1  0  0  0
 23 24  1  0  0  0
 23 25  2  0  0  0
 23 26  1  0  0  0
 24 45  1  0  0  0
 25 27  1  0  0  0
 25 46  1  0  0  0
 26 28  2  0  0  0
 26 47  1  0  0  0
 27 48  1  0  0  0
 28 49  1  0  0  0
M  END
> <s_m_entry_id>
10483

> <s_m_entry_name>
dock_pv.552

> <s_m_Source_Path>
/home/csk/Desktop/cluster/DUD-E-result/met

> <s_m_Source_File>
dock_pv.maegz

> <i_m_Source_File_Index>
552

> <chembl_id>
CHEMBL1993584

> <chembl_pref_name>
None

> <i_lp_mmshare_version>
53161

> <i_f3d_flags>
0

> <r_lp_tautomer_probability>
1

> <s_lp_Force_Field>
OPLS_2005

> <r_lp_Energy>
21.142293

> <b_lp_Chiralities_Consistent>
1

> <s_lp_Variant>
CHEMBL3717_lig3867-1

> <s_i_glide_gridfile>
glide-grid_3lq8

> <i_i_glide_lignum>
4907

> <i_i_glide_rotatable_bonds>
8

> <r_i_docking_score>
-7.11482757616246

> <r_i_glide_ligand_efficiency>
-0.254100984862945

> <r_i_glide_ligand_efficiency_sa>
-0.77160024752052

> <r_i_glide_ligand_efficiency_ln>
-1.64231110499322

> <r_i_glide_gscore>
-7.11482757616246

> <r_i_glide_lipo>
-3.31631366949706

> <r_i_glide_hbond>
-0.253692150285102

> <r_i_glide_metal>
0

> <r_i_glide_rewards>
-2.12396258744061

> <r_i_glide_evdw>
-41.9322853088379

> <r_i_glide_ecoul>
-1.07762062549591

> <r_i_glide_erotb>
0.839497685459311

> <r_i_glide_esite>
-0.00209949513271371

> <r_i_glide_emodel>
-60.1858590630991

> <r_i_glide_energy>
-43.0099059343338

> <r_i_glide_einternal>
2.31138586997986

> <i_i_glide_confnum>
2

> <i_i_glide_posenum>
174

> <r_i_glide_eff_state_penalty>
0

> <s_user_duplicate_titles>
CHEMBL3717_lig3867

> <s_m_subgroup_title>
dock_pv

> <s_m_subgroupid>
dock_pv

> <b_m_subgroup_collapsed>
1

$$$$
CHEMBL3717_lig1863
                    3D
 Schrodinger Suite 2021-1.
 38 42  0  0  1  0            999 V2000
   -3.4172    4.7486   30.6080 C   0  0  0  0  0  0
   -4.4289    5.6501   30.9690 C   0  0  0  0  0  0
   -5.7496    5.3050   30.9791 N   0  0  0  0  0  0
   -3.6939    3.4734   30.2087 N   0  0  0  0  0  0
   -4.9888    3.1562   30.2273 C   0  0  0  0  0  0
   -6.0176    4.0464   30.6080 C   0  0  0  0  0  0
   -7.2147    3.4015   30.5340 N   0  0  0  0  0  0
   -6.9559    2.1155   30.0940 N   0  0  0  0  0  0
   -5.6253    1.9723   29.8979 N   0  0  0  0  0  0
   -1.9705    5.1041   30.6082 C   0  0  0  0  0  0
   -0.8759    4.2592   30.7488 C   0  0  0  0  0  0
    0.2394    5.0388   30.5960 N   0  0  0  0  0  0
   -0.0615    6.3200   30.3616 N   0  0  0  0  0  0
   -1.3759    6.3569   30.3801 C   0  0  0  0  0  0
   -5.0887    0.7368   29.3216 C   0  0  0  0  0  0
   -4.1418   -0.1129   30.1741 C   0  0  0  0  0  0
    1.6304    4.6265   30.6268 C   0  0  0  0  0  0
   -3.9325   -1.4389   29.7989 C   0  0  0  0  0  0
   -3.0035   -2.2476   30.4463 C   0  0  0  0  0  0
   -3.4264    0.3891   31.2638 C   0  0  0  0  0  0
   -2.5488   -0.4193   31.9356 N   0  0  0  0  0  0
   -2.3031   -1.7462   31.5524 C   0  0  0  0  0  0
   -1.3742   -2.3245   32.3578 N   0  0  0  0  0  0
   -1.0555   -1.3859   33.2227 C   0  0  0  0  0  0
   -1.7307   -0.1888   33.0093 C   0  0  0  0  0  0
   -4.1925    6.6594   31.2671 H   0  0  0  0  0  0
   -0.7976    3.1951   30.9158 H   0  0  0  0  0  0
   -1.9024    7.2838   30.2074 H   0  0  0  0  0  0
   -4.5535    1.0164   28.4130 H   0  0  0  0  0  0
   -5.9244    0.1169   28.9887 H   0  0  0  0  0  0
    1.6972    3.5530   30.8073 H   0  0  0  0  0  0
    2.0981    4.8570   29.6689 H   0  0  0  0  0  0
    2.1501    5.1573   31.4242 H   0  0  0  0  0  0
   -4.4792   -1.8580   28.9698 H   0  0  0  0  0  0
   -2.8304   -3.2429   30.0861 H   0  0  0  0  0  0
   -3.4882    1.4005   31.6102 H   0  0  0  0  0  0
   -0.3297   -1.5697   34.0031 H   0  0  0  0  0  0
   -1.6941    0.7565   33.5208 H   0  0  0  0  0  0
  1  2  1  0  0  0
  1  4  2  0  0  0
  1 10  1  0  0  0
  2  3  2  0  0  0
  2 26  1  0  0  0
  3  6  1  0  0  0
  4  5  1  0  0  0
  5  6  2  0  0  0
  5  9  1  0  0  0
  6  7  1  0  0  0
  7  8  2  0  0  0
  8  9  1  0  0  0
  9 15  1  0  0  0
 10 11  2  0  0  0
 10 14  1  0  0  0
 11 12  1  0  0  0
 11 27  1  0  0  0
 12 13  1  0  0  0
 12 17  1  0  0  0
 13 14  2  0  0  0
 14 28  1  0  0  0
 15 16  1  0  0  0
 15 29  1  0  0  0
 15 30  1  0  0  0
 16 18  1  0  0  0
 16 20  2  0  0  0
 17 31  1  0  0  0
 17 32  1  0  0  0
 17 33  1  0  0  0
 18 19  2  0  0  0
 18 34  1  0  0  0
 19 22  1  0  0  0
 19 35  1  0  0  0
 20 21  1  0  0  0
 20 36  1  0  0  0
 21 22  1  0  0  0
 21 25  1  0  0  0
 22 23  2  0  0  0
 23 24  1  0  0  0
 24 25  2  0  0  0
 24 37  1  0  0  0
 25 38  1  0  0  0
M  END
> <s_m_entry_id>
10484

> <s_m_entry_name>
dock_pv.553

> <s_m_Source_Path>
/home/csk/Desktop/cluster/DUD-E-result/met

> <s_m_Source_File>
dock_pv.maegz

> <i_m_Source_File_Index>
553

> <chembl_id>
CHEMBL3334542

> <chembl_pref_name>
None

> <i_lp_mmshare_version>
53161

> <i_f3d_flags>
0

> <r_lp_tautomer_probability>
1

> <s_lp_Force_Field>
OPLS_2005

> <r_lp_Energy>
19.607919

> <b_lp_Chiralities_Consistent>
1

> <s_lp_Variant>
CHEMBL3717_lig1863-1

> <s_i_glide_gridfile>
glide-grid_3lq8

> <i_i_glide_lignum>
2151

> <i_i_glide_rotatable_bonds>
3

> <r_i_docking_score>
-7.10714014105395

> <r_i_glide_ligand_efficiency>
-0.284285605642158

> <r_i_glide_ligand_efficiency_sa>
-0.831256152724354

> <r_i_glide_ligand_efficiency_ln>
-1.68460519723308

> <r_i_glide_gscore>
-7.10714014105395

> <r_i_glide_lipo>
-2.45229039015888

> <r_i_glide_hbond>
0

> <r_i_glide_metal>
0

> <r_i_glide_rewards>
-3.03937585936284

> <r_i_glide_evdw>
-40.8476943969727

> <r_i_glide_ecoul>
-0.582511186599731

> <r_i_glide_erotb>
0.514287506306363

> <r_i_glide_esite>
0

> <r_i_glide_emodel>
-57.3386089769937

> <r_i_glide_energy>
-41.4302055835724

> <r_i_glide_einternal>
2.13814735412598

> <i_i_glide_confnum>
7

> <i_i_glide_posenum>
25

> <r_i_glide_eff_state_penalty>
0

> <s_user_duplicate_titles>
CHEMBL3717_lig1863

> <s_m_subgroup_title>
dock_pv

> <s_m_subgroupid>
dock_pv

> <b_m_subgroup_collapsed>
1

$$$$
CHEMBL3717_lig3385 
                    3D
 Schrodinger Suite 2021-1.
 54 58  0  0  1  0            999 V2000
   -6.0569    5.0073   31.0119 C   0  0  0  0  0  0
   -5.0940    4.0865   30.5631 C   0  0  0  0  0  0
   -5.4570    2.8732   30.0515 N   0  0  0  0  0  0
   -7.3957    4.7621   30.9770 N   0  0  0  0  0  0
   -7.7547    3.5907   30.4441 C   0  0  0  0  0  0
   -6.7793    2.6783   29.9790 C   0  0  0  0  0  0
   -7.4945    1.6375   29.4232 N   0  0  0  0  0  0
   -8.8220    1.9454   29.6756 C   0  0  0  0  0  0
   -9.0182    3.1015   30.2610 N   0  0  0  0  0  0
   -6.9309    0.4503   28.7687 C   0  0  2  0  0  0
   -7.9258   -0.2436   27.7994 C   0  0  0  0  0  0
   -6.2844   -0.4789   29.7970 C   0  0  0  0  0  0
   -7.0904   -1.2621   30.6259 C   0  0  0  0  0  0
   -6.5366   -2.0551   31.6263 C   0  0  0  0  0  0
   -4.8917   -0.4906   29.9620 C   0  0  0  0  0  0
   -4.3021   -1.2876   30.9725 C   0  0  0  0  0  0
   -5.1390   -2.0732   31.8222 C   0  0  0  0  0  0
   -4.6306   -2.8394   32.8270 N   0  0  0  0  0  0
   -3.2896   -2.8431   33.0080 C   0  0  0  0  0  0
   -2.3962   -2.1190   32.2255 C   0  0  0  0  0  0
   -2.9010   -1.3320   31.1948 C   0  0  0  0  0  0
   -8.3484    0.6422   26.6082 C   0  0  0  0  0  0
   -3.6299    4.3752   30.6078 C   0  0  0  0  0  0
   -2.6914    3.3520   30.8023 C   0  0  0  0  0  0
   -1.3259    3.6207   30.8214 C   0  0  0  0  0  0
   -0.8504    4.9238   30.6236 C   0  0  0  0  0  0
   -1.7859    5.9589   30.4444 C   0  0  0  0  0  0
   -3.1529    5.6814   30.4487 C   0  0  0  0  0  0
    0.6327    5.1945   30.5631 C   0  0  0  0  0  0
    1.3796    4.2312   29.9957 N   0  0  0  0  0  0
    1.1059    6.2395   31.0074 O   0  0  0  0  0  0
    2.8316    4.2757   29.8762 C   0  0  0  0  0  0
   -1.3950    7.2342   30.2079 F   0  0  0  0  0  0
   -4.0984    0.2845   29.1818 F   0  0  0  0  0  0
   -5.7679    5.9586   31.4230 H   0  0  0  0  0  0
   -9.6017    1.2673   29.3686 H   0  0  0  0  0  0
   -6.1357    0.8220   28.1228 H   0  0  0  0  0  0
   -7.4518   -1.1450   27.4083 H   0  0  0  0  0  0
   -8.8056   -0.5986   28.3355 H   0  0  0  0  0  0
   -8.1642   -1.2436   30.5131 H   0  0  0  0  0  0
   -7.1706   -2.6484   32.2677 H   0  0  0  0  0  0
   -2.9286   -3.4613   33.8147 H   0  0  0  0  0  0
   -1.3322   -2.1720   32.4085 H   0  0  0  0  0  0
   -2.2356   -0.7630   30.5614 H   0  0  0  0  0  0
   -9.1222    0.1619   26.0110 H   0  0  0  0  0  0
   -8.7503    1.6034   26.9275 H   0  0  0  0  0  0
   -7.5041    0.8449   25.9500 H   0  0  0  0  0  0
   -3.0193    2.3315   30.9427 H   0  0  0  0  0  0
   -0.6432    2.7998   30.9796 H   0  0  0  0  0  0
   -3.8441    6.4924   30.2787 H   0  0  0  0  0  0
    0.9123    3.4445   29.5697 H   0  0  0  0  0  0
    3.2342    3.2622   29.8283 H   0  0  0  0  0  0
    3.1258    4.7994   28.9636 H   0  0  0  0  0  0
    3.2947    4.7802   30.7266 H   0  0  0  0  0  0
  1  2  2  0  0  0
  1  4  1  0  0  0
  1 35  1  0  0  0
  2  3  1  0  0  0
  2 23  1  0  0  0
  3  6  2  0  0  0
  4  5  2  0  0  0
  5  6  1  0  0  0
  5  9  1  0  0  0
  6  7  1  0  0  0
  7  8  1  0  0  0
  7 10  1  0  0  0
  8  9  2  0  0  0
  8 36  1  0  0  0
 10 11  1  0  0  0
 10 12  1  0  0  0
 10 37  1  0  0  0
 11 22  1  0  0  0
 11 38  1  0  0  0
 11 39  1  0  0  0
 12 13  2  0  0  0
 12 15  1  0  0  0
 13 14  1  0  0  0
 13 40  1  0  0  0
 14 17  2  0  0  0
 14 41  1  0  0  0
 15 16  2  0  0  0
 15 34  1  0  0  0
 16 17  1  0  0  0
 16 21  1  0  0  0
 17 18  1  0  0  0
 18 19  2  0  0  0
 19 20  1  0  0  0
 19 42  1  0  0  0
 20 21  2  0  0  0
 20 43  1  0  0  0
 21 44  1  0  0  0
 22 45  1  0  0  0
 22 46  1  0  0  0
 22 47  1  0  0  0
 23 24  2  0  0  0
 23 28  1  0  0  0
 24 25  1  0  0  0
 24 48  1  0  0  0
 25 26  2  0  0  0
 25 49  1  0  0  0
 26 27  1  0  0  0
 26 29  1  0  0  0
 27 28  2  0  0  0
 27 33  1  0  0  0
 28 50  1  0  0  0
 29 30  1  0  0  0
 29 31  2  0  0  0
 30 32  1  0  0  0
 30 51  1  0  0  0
 32 52  1  0  0  0
 32 53  1  0  0  0
 32 54  1  0  0  0
M  END
> <s_m_entry_id>
10485

> <s_m_entry_name>
dock_pv.554

> <s_m_Source_Path>
/home/csk/Desktop/cluster/DUD-E-result/met

> <s_m_Source_File>
dock_pv.maegz

> <i_m_Source_File_Index>
554

> <chembl_id>
CHEMBL4521417

> <chembl_pref_name>
None

> <i_lp_mmshare_version>
53161

> <i_f3d_flags>
0

> <r_lp_tautomer_probability>
1

> <s_lp_Force_Field>
OPLS_2005

> <r_lp_Energy>
40.089285

> <b_lp_Chiralities_Consistent>
1

> <s_lp_Variant>
CHEMBL3717_lig3385 -1

> <s_i_glide_gridfile>
glide-grid_3lq8

> <i_i_glide_lignum>
4158

> <i_i_glide_rotatable_bonds>
6

> <r_i_docking_score>
-7.10582273161601

> <r_i_glide_ligand_efficiency>
-0.208994786224

> <r_i_glide_ligand_efficiency_sa>
-0.677061975060881

> <r_i_glide_ligand_efficiency_ln>
-1.56987555299046

> <r_i_glide_gscore>
-7.10582273161601

> <r_i_glide_lipo>
-2.81592370396435

> <r_i_glide_hbond>
0

> <r_i_glide_metal>
0

> <r_i_glide_rewards>
-2.29632272834467

> <r_i_glide_evdw>
-45.6803703308105

> <r_i_glide_ecoul>
-0.411196321249008

> <r_i_glide_erotb>
0.382761181006326

> <r_i_glide_esite>
-0.0306395155854348

> <r_i_glide_emodel>
-64.5471924969724

> <r_i_glide_energy>
-46.0915666520596

> <r_i_glide_einternal>
0.601311206817627

> <i_i_glide_confnum>
8

> <i_i_glide_posenum>
71

> <r_i_glide_eff_state_penalty>
0

> <s_user_duplicate_titles>
CHEMBL3717_lig3385 

> <s_m_subgroup_title>
dock_pv

> <s_m_subgroupid>
dock_pv

> <b_m_subgroup_collapsed>
1

$$$$
CHEMBL3717_lig412
                    3D
 Schrodinger Suite 2021-1.
 28 30  0  0  1  0            999 V2000
    1.2951    3.3790   30.9910 C   0  0  0  0  0  0
    2.2229    3.9462   30.1227 C   0  0  0  0  0  0
    1.9930    5.0744   29.4080 N   0  0  0  0  0  0
    0.0310    3.9536   31.1376 C   0  0  0  0  0  0
   -0.2222    5.1136   30.3963 C   0  0  0  0  0  0
    0.8000    5.6565   29.5603 C   0  0  0  0  0  0
    0.3059    6.8712   29.0080 C   0  0  0  0  0  0
   -0.9548    7.0447   29.5201 C   0  0  0  0  0  0
   -1.3243    5.9583   30.2802 N   0  0  0  0  0  0
   -2.8541    5.8854   31.0720 S   0  0  0  0  0  0
   -3.8828    4.5161   30.5434 C   0  0  0  0  0  0
   -2.4940    5.5570   32.4449 O   0  0  0  0  0  0
   -3.5505    7.1337   30.7323 O   0  0  0  0  0  0
   -5.2479    4.7570   30.3566 C   0  0  0  0  0  0
   -6.1306    3.6907   30.2080 C   0  0  0  0  0  0
   -5.6421    2.3861   30.1973 C   0  0  0  0  0  0
   -4.2810    2.1384   30.3553 C   0  0  0  0  0  0
   -3.4056    3.2022   30.5586 C   0  0  0  0  0  0
    1.5495    2.4807   31.5346 H   0  0  0  0  0  0
    3.1949    3.4926   29.9897 H   0  0  0  0  0  0
   -0.6953    3.5298   31.8080 H   0  0  0  0  0  0
    0.8077    7.5570   28.3484 H   0  0  0  0  0  0
   -1.6395    7.8737   29.4080 H   0  0  0  0  0  0
   -5.6407    5.7644   30.3817 H   0  0  0  0  0  0
   -7.1881    3.8765   30.0870 H   0  0  0  0  0  0
   -6.3249    1.5589   30.0661 H   0  0  0  0  0  0
   -3.9119    1.1228   30.3526 H   0  0  0  0  0  0
   -2.3678    2.9846   30.7226 H   0  0  0  0  0  0
  1  4  1  0  0  0
  1  2  2  0  0  0
  1 19  1  0  0  0
  2  3  1  0  0  0
  2 20  1  0  0  0
  3  6  2  0  0  0
  4  5  2  0  0  0
  4 21  1  0  0  0
  5  9  1  0  0  0
  5  6  1  0  0  0
  6  7  1  0  0  0
  7  8  2  0  0  0
  7 22  1  0  0  0
  8  9  1  0  0  0
  8 23  1  0  0  0
  9 10  1  0  0  0
 10 11  1  0  0  0
 10 12  2  0  0  0
 10 13  2  0  0  0
 11 14  2  0  0  0
 11 18  1  0  0  0
 14 15  1  0  0  0
 14 24  1  0  0  0
 15 16  2  0  0  0
 15 25  1  0  0  0
 16 17  1  0  0  0
 16 26  1  0  0  0
 17 18  2  0  0  0
 17 27  1  0  0  0
 18 28  1  0  0  0
M  END
> <s_m_entry_id>
10486

> <s_m_entry_name>
dock_pv.555

> <s_m_Source_Path>
/home/csk/Desktop/cluster/DUD-E-result/met

> <s_m_Source_File>
dock_pv.maegz

> <i_m_Source_File_Index>
555

> <chembl_id>
CHEMBL556118

> <chembl_pref_name>
None

> <i_lp_mmshare_version>
53161

> <i_f3d_flags>
0

> <r_lp_tautomer_probability>
1

> <s_lp_Force_Field>
OPLS_2005

> <r_lp_Energy>
5.197266

> <b_lp_Chiralities_Consistent>
1

> <s_lp_Variant>
CHEMBL3717_lig412-1

> <s_i_glide_gridfile>
glide-grid_3lq8

> <i_i_glide_lignum>
436

> <i_i_glide_rotatable_bonds>
2

> <r_i_docking_score>
-7.10555754353121

> <r_i_glide_ligand_efficiency>
-0.394753196862845

> <r_i_glide_ligand_efficiency_sa>
-1.03454604251801

> <r_i_glide_ligand_efficiency_ln>
-1.82644692736865

> <r_i_glide_gscore>
-7.10555754353121

> <r_i_glide_lipo>
-3.01884019291095

> <r_i_glide_hbond>
0

> <r_i_glide_metal>
0

> <r_i_glide_rewards>
-2.80768865664348

> <r_i_glide_evdw>
-24.2377223968506

> <r_i_glide_ecoul>
-3.97736072540283

> <r_i_glide_erotb>
0.529461534676166

> <r_i_glide_esite>
0

> <r_i_glide_emodel>
-35.6535714253214

> <r_i_glide_energy>
-28.2150831222534

> <r_i_glide_einternal>
3.52228546142578

> <i_i_glide_confnum>
2

> <i_i_glide_posenum>
14

> <r_i_glide_eff_state_penalty>
0

> <s_user_duplicate_titles>
CHEMBL3717_lig412

> <s_m_subgroup_title>
dock_pv

> <s_m_subgroupid>
dock_pv

> <b_m_subgroup_collapsed>
1

$$$$
CHEMBL3717_lig1883
                    3D
 Schrodinger Suite 2021-1.
 45 49  0  0  1  0            999 V2000
   -2.1164    4.9951   30.6212 C   0  0  0  0  0  0
   -2.8478    6.1910   30.6075 C   0  0  0  0  0  0
   -4.2059    6.2249   30.6082 N   0  0  0  0  0  0
   -2.7248    3.7707   30.6344 N   0  0  0  0  0  0
   -4.0662    3.8205   30.6070 C   0  0  0  0  0  0
   -4.8057    5.0304   30.6003 C   0  0  0  0  0  0
   -6.1352    4.7543   30.5939 N   0  0  0  0  0  0
   -6.2563    3.3816   30.6079 N   0  0  0  0  0  0
   -5.0254    2.8060   30.6078 N   0  0  0  0  0  0
   -0.6236    5.0052   30.6081 C   0  0  0  0  0  0
   -4.8840    1.3353   30.7567 C   0  0  1  0  0  0
   -6.1521    0.5286   30.4525 C   0  0  0  0  0  0
    0.2629    4.0074   30.9915 C   0  0  0  0  0  0
    1.5276    4.5033   30.8028 N   0  0  0  0  0  0
    1.5052    5.7496   30.3172 N   0  0  0  0  0  0
    0.2315    6.0446   30.2078 C   0  0  0  0  0  0
    2.8077    3.8619   31.1171 C   0  0  0  0  0  0
   -6.7566   -0.2443   31.4488 C   0  0  0  0  0  0
   -7.9230   -0.9563   31.1747 C   0  0  0  0  0  0
   -6.7062    0.5817   29.1681 C   0  0  0  0  0  0
   -7.9008   -0.0984   28.8937 C   0  0  0  0  0  0
   -8.4703   -0.8663   29.9234 N   0  0  0  0  0  0
   -9.6040   -1.4887   29.5285 N   0  0  0  0  0  0
   -9.7769   -1.1181   28.2774 C   0  0  0  0  0  0
   -8.7885   -0.2573   27.8081 C   0  0  0  0  0  0
   -3.6937    0.8029   29.9368 C   0  0  0  0  0  0
    3.6946    3.7162   29.8609 C   0  0  0  0  0  0
    4.9482    3.1572   30.2080 O   0  0  0  0  0  0
   -2.3539    7.1501   30.6073 H   0  0  0  0  0  0
   -4.6446    1.1666   31.8080 H   0  0  0  0  0  0
    0.1052    3.0197   31.3913 H   0  0  0  0  0  0
   -0.0807    7.0074   29.8315 H   0  0  0  0  0  0
    3.2869    4.4925   31.8705 H   0  0  0  0  0  0
    2.5752    2.8788   31.5322 H   0  0  0  0  0  0
   -6.3275   -0.2979   32.4395 H   0  0  0  0  0  0
   -8.4387   -1.5702   31.8975 H   0  0  0  0  0  0
   -6.2195    1.1548   28.4003 H   0  0  0  0  0  0
  -10.6242   -1.4716   27.7059 H   0  0  0  0  0  0
   -8.7241    0.1817   26.8223 H   0  0  0  0  0  0
   -3.6172   -0.2834   30.0117 H   0  0  0  0  0  0
   -3.7699    1.0560   28.8781 H   0  0  0  0  0  0
   -2.7581    1.2002   30.3215 H   0  0  0  0  0  0
    3.1925    3.1063   29.1078 H   0  0  0  0  0  0
    3.8417    4.6805   29.3713 H   0  0  0  0  0  0
    5.4210    2.9166   29.4006 H   0  0  0  0  0  0
  1  2  1  0  0  0
  1  4  2  0  0  0
  1 10  1  0  0  0
  2  3  2  0  0  0
  2 29  1  0  0  0
  3  6  1  0  0  0
  4  5  1  0  0  0
  5  6  2  0  0  0
  5  9  1  0  0  0
  6  7  1  0  0  0
  7  8  2  0  0  0
  8  9  1  0  0  0
  9 11  1  0  0  0
 10 13  2  0  0  0
 10 16  1  0  0  0
 11 12  1  0  0  0
 11 26  1  0  0  0
 11 30  1  0  0  0
 12 18  1  0  0  0
 12 20  2  0  0  0
 13 14  1  0  0  0
 13 31  1  0  0  0
 14 15  1  0  0  0
 14 17  1  0  0  0
 15 16  2  0  0  0
 16 32  1  0  0  0
 17 27  1  0  0  0
 17 33  1  0  0  0
 17 34  1  0  0  0
 18 19  2  0  0  0
 18 35  1  0  0  0
 19 22  1  0  0  0
 19 36  1  0  0  0
 20 21  1  0  0  0
 20 37  1  0  0  0
 21 22  1  0  0  0
 21 25  2  0  0  0
 22 23  1  0  0  0
 23 24  2  0  0  0
 24 25  1  0  0  0
 24 38  1  0  0  0
 25 39  1  0  0  0
 26 40  1  0  0  0
 26 41  1  0  0  0
 26 42  1  0  0  0
 27 28  1  0  0  0
 27 43  1  0  0  0
 27 44  1  0  0  0
 28 45  1  0  0  0
M  END
> <s_m_entry_id>
10488

> <s_m_entry_name>
dock_pv.557

> <s_m_Source_Path>
/home/csk/Desktop/cluster/DUD-E-result/met

> <s_m_Source_File>
dock_pv.maegz

> <i_m_Source_File_Index>
557

> <chembl_id>
CHEMBL3334570

> <chembl_pref_name>
None

> <i_lp_mmshare_version>
53161

> <i_f3d_flags>
0

> <r_lp_tautomer_probability>
1

> <s_lp_Force_Field>
OPLS_2005

> <r_lp_Energy>
26.009283

> <b_lp_Chiralities_Consistent>
1

> <s_lp_Variant>
CHEMBL3717_lig1883-1

> <s_i_glide_gridfile>
glide-grid_3lq8

> <i_i_glide_lignum>
2175

> <i_i_glide_rotatable_bonds>
6

> <r_i_docking_score>
-7.09755125920515

> <r_i_glide_ligand_efficiency>
-0.253483973543041

> <r_i_glide_ligand_efficiency_sa>
-0.769726637753058

> <r_i_glide_ligand_efficiency_ln>
-1.63832322378477

> <r_i_glide_gscore>
-7.09755125920515

> <r_i_glide_lipo>
-2.60388583748038

> <r_i_glide_hbond>
-0.32

> <r_i_glide_metal>
0

> <r_i_glide_rewards>
-2.32601308025785

> <r_i_glide_evdw>
-41.7802200317383

> <r_i_glide_ecoul>
-2.96727633476257

> <r_i_glide_erotb>
0.686450110334379

> <r_i_glide_esite>
0

> <r_i_glide_emodel>
-59.4834283871181

> <r_i_glide_energy>
-44.7474963665009

> <r_i_glide_einternal>
7.0794506072998

> <i_i_glide_confnum>
28

> <i_i_glide_posenum>
168

> <r_i_glide_eff_state_penalty>
0

> <s_user_duplicate_titles>
CHEMBL3717_lig1883

> <s_m_subgroup_title>
dock_pv

> <s_m_subgroupid>
dock_pv

> <b_m_subgroup_collapsed>
1

$$$$
CHEMBL3717_lig4289
                    3D
 Schrodinger Suite 2021-1.
 37 41  0  0  1  0            999 V2000
   -4.7930    1.0844   29.7560 C   0  0  0  0  0  0
   -5.2670    2.4631   30.1885 C   0  0  0  0  0  0
   -6.5237    2.8650   30.2075 N   0  0  0  0  0  0
   -6.5672    4.2244   30.4703 N   0  0  0  0  0  0
   -5.2844    4.6223   30.6113 C   0  0  0  0  0  0
   -4.6879    5.8686   30.8303 C   0  0  0  0  0  0
   -3.2946    5.9285   30.8842 C   0  0  0  0  0  0
   -2.5250    4.7608   30.7576 C   0  0  0  0  0  0
   -3.0908    3.5266   30.6078 N   0  0  0  0  0  0
   -4.4319    3.5176   30.4953 N   0  0  0  0  0  0
   -1.0265    4.8020   30.7199 C   0  0  0  0  0  0
   -0.2541    3.6814   31.0635 C   0  0  0  0  0  0
    1.1370    3.7201   31.0005 C   0  0  0  0  0  0
    1.7750    4.8799   30.5733 C   0  0  0  0  0  0
    1.0294    5.9964   30.2122 C   0  0  0  0  0  0
   -0.3577    5.9579   30.2888 C   0  0  0  0  0  0
   -5.1324    0.0330   30.7019 N   0  0  0  0  0  0
   -6.4240   -0.2695   30.9482 N   0  0  0  0  0  0
   -6.4702   -1.3264   31.8293 N   0  0  0  0  0  0
   -5.1815   -1.6754   32.0977 C   0  0  0  0  0  0
   -4.6377   -2.6844   32.8993 C   0  0  0  0  0  0
   -3.2940   -2.8430   33.0079 N   0  0  0  0  0  0
   -2.4709   -2.0226   32.3048 C   0  0  0  0  0  0
   -2.9072   -0.9884   31.4726 C   0  0  0  0  0  0
   -4.2964   -0.8283   31.3901 C   0  0  0  0  0  0
   -3.7156    1.0537   29.5875 H   0  0  0  0  0  0
   -5.2384    0.8081   28.7990 H   0  0  0  0  0  0
   -5.2947    6.7570   30.9096 H   0  0  0  0  0  0
   -2.8217    6.8907   31.0080 H   0  0  0  0  0  0
   -0.7301    2.7691   31.3930 H   0  0  0  0  0  0
    1.7172    2.8497   31.2719 H   0  0  0  0  0  0
    2.8529    4.9131   30.5148 H   0  0  0  0  0  0
    1.5160    6.8965   29.8695 H   0  0  0  0  0  0
   -0.9029    6.8379   29.9833 H   0  0  0  0  0  0
   -5.2662   -3.3640   33.4526 H   0  0  0  0  0  0
   -1.4134   -2.2150   32.4181 H   0  0  0  0  0  0
   -2.2127   -0.3708   30.9255 H   0  0  0  0  0  0
  1  2  1  0  0  0
  1 17  1  0  0  0
  1 26  1  0  0  0
  1 27  1  0  0  0
  2  3  2  0  0  0
  2 10  1  0  0  0
  3  4  1  0  0  0
  4  5  2  0  0  0
  5  6  1  0  0  0
  5 10  1  0  0  0
  6  7  2  0  0  0
  6 28  1  0  0  0
  7  8  1  0  0  0
  7 29  1  0  0  0
  8  9  2  0  0  0
  8 11  1  0  0  0
  9 10  1  0  0  0
 11 12  2  0  0  0
 11 16  1  0  0  0
 12 13  1  0  0  0
 12 30  1  0  0  0
 13 14  2  0  0  0
 13 31  1  0  0  0
 14 15  1  0  0  0
 14 32  1  0  0  0
 15 16  2  0  0  0
 15 33  1  0  0  0
 16 34  1  0  0  0
 17 18  1  0  0  0
 17 25  1  0  0  0
 18 19  2  0  0  0
 19 20  1  0  0  0
 20 21  2  0  0  0
 20 25  1  0  0  0
 21 22  1  0  0  0
 21 35  1  0  0  0
 22 23  2  0  0  0
 23 24  1  0  0  0
 23 36  1  0  0  0
 24 25  2  0  0  0
 24 37  1  0  0  0
M  END
> <s_m_entry_id>
10489

> <s_m_entry_name>
dock_pv.558

> <s_m_Source_Path>
/home/csk/Desktop/cluster/DUD-E-result/met

> <s_m_Source_File>
dock_pv.maegz

> <i_m_Source_File_Index>
558

> <chembl_id>
CHEMBL3663579

> <chembl_pref_name>
None

> <i_lp_mmshare_version>
53161

> <i_f3d_flags>
0

> <r_lp_tautomer_probability>
1

> <s_lp_Force_Field>
OPLS_2005

> <r_lp_Energy>
20.190499

> <b_lp_Chiralities_Consistent>
1

> <s_lp_Variant>
CHEMBL3717_lig4289-1

> <s_i_glide_gridfile>
glide-grid_3lq8

> <i_i_glide_lignum>
5510

> <i_i_glide_rotatable_bonds>
3

> <r_i_docking_score>
-7.09579500753912

> <r_i_glide_ligand_efficiency>
-0.283831800301565

> <r_i_glide_ligand_efficiency_sa>
-0.829929217860188

> <r_i_glide_ligand_efficiency_ln>
-1.68191606060385

> <r_i_glide_gscore>
-7.09579500753912

> <r_i_glide_lipo>
-3.11315047729886

> <r_i_glide_hbond>
0

> <r_i_glide_metal>
0

> <r_i_glide_rewards>
-2.76985749949519

> <r_i_glide_evdw>
-38.3867874145508

> <r_i_glide_ecoul>
1.22613191604614

> <r_i_glide_erotb>
0.522632552575547

> <r_i_glide_esite>
0

> <r_i_glide_emodel>
-51.1712146513583

> <r_i_glide_energy>
-37.1606554985046

> <r_i_glide_einternal>
3.55182600021362

> <i_i_glide_confnum>
12

> <i_i_glide_posenum>
96

> <r_i_glide_eff_state_penalty>
0

> <s_user_duplicate_titles>
CHEMBL3717_lig4289

> <s_m_subgroup_title>
dock_pv

> <s_m_subgroupid>
dock_pv

> <b_m_subgroup_collapsed>
1

$$$$
CHEMBL3717_lig4288
                    3D
 Schrodinger Suite 2021-1.
 52 56  0  0  1  0            999 V2000
   -3.6951   -4.4429   35.0079 O   0  0  0  0  0  0
   -4.8883   -4.3052   34.7351 C   0  0  0  0  0  0
   -5.3439   -3.4845   33.7603 N   0  0  0  0  0  0
   -4.6044   -2.6378   32.9175 C   0  0  0  0  0  0
   -5.2991   -1.5925   32.3059 C   0  0  0  0  0  0
   -4.6295   -0.7348   31.4291 C   0  0  0  0  0  0
   -5.3865    0.2877   30.8964 O   0  0  0  0  0  0
   -4.8516    1.1711   29.9158 C   0  0  0  0  0  0
   -5.3128    2.5795   30.2083 C   0  0  0  0  0  0
   -6.5639    2.9978   30.2078 N   0  0  0  0  0  0
   -6.5797    4.3732   30.3816 N   0  0  0  0  0  0
   -5.2893    4.7528   30.5131 C   0  0  0  0  0  0
   -4.6618    5.9960   30.6415 C   0  0  0  0  0  0
   -3.2688    6.0277   30.7384 C   0  0  0  0  0  0
   -2.5249    4.8363   30.6989 C   0  0  0  0  0  0
   -3.1219    3.6136   30.6080 N   0  0  0  0  0  0
   -4.4610    3.6283   30.4773 N   0  0  0  0  0  0
   -1.0223    4.8275   30.6807 C   0  0  0  0  0  0
   -0.2927    3.6713   31.0084 C   0  0  0  0  0  0
    1.0981    3.6619   30.9598 C   0  0  0  0  0  0
    1.7817    4.8065   30.5650 C   0  0  0  0  0  0
    1.0814    5.9570   30.2176 C   0  0  0  0  0  0
   -0.3070    5.9655   30.2774 C   0  0  0  0  0  0
   -3.2676   -0.9760   31.1702 C   0  0  0  0  0  0
   -2.6368   -2.0334   31.8181 C   0  0  0  0  0  0
   -3.2816   -2.8430   32.6855 N   0  0  0  0  0  0
   -5.8610   -4.9503   35.4305 N   0  0  0  0  0  0
   -5.5402   -5.8797   36.5250 C   0  0  0  0  0  0
   -6.8648   -6.6018   36.7596 C   0  0  0  0  0  0
   -7.9129   -5.5659   36.3952 C   0  0  0  0  0  0
   -7.3112   -4.8449   35.1918 C   0  0  0  0  0  0
   -6.3427   -3.3950   33.6776 H   0  0  0  0  0  0
   -6.3473   -1.4291   32.5093 H   0  0  0  0  0  0
   -3.7697    1.1626   29.8085 H   0  0  0  0  0  0
   -5.2213    0.8423   28.9451 H   0  0  0  0  0  0
   -5.2477    6.9042   30.6115 H   0  0  0  0  0  0
   -2.7769    6.9827   30.8249 H   0  0  0  0  0  0
   -0.7991    2.7614   31.3043 H   0  0  0  0  0  0
    1.6420    2.7650   31.2162 H   0  0  0  0  0  0
    2.8608    4.7991   30.5179 H   0  0  0  0  0  0
    1.6048    6.8409   29.8901 H   0  0  0  0  0  0
   -0.8141    6.8702   29.9795 H   0  0  0  0  0  0
   -2.6725   -0.3877   30.4942 H   0  0  0  0  0  0
   -1.5951   -2.2513   31.6380 H   0  0  0  0  0  0
   -5.2606   -5.3148   37.4153 H   0  0  0  0  0  0
   -4.7572   -6.5895   36.2508 H   0  0  0  0  0  0
   -6.9608   -6.9801   37.7778 H   0  0  0  0  0  0
   -6.9444   -7.4600   36.0898 H   0  0  0  0  0  0
   -8.8924   -5.9949   36.1824 H   0  0  0  0  0  0
   -8.0423   -4.8662   37.2233 H   0  0  0  0  0  0
   -7.5719   -5.3759   34.2744 H   0  0  0  0  0  0
   -7.6581   -3.8110   35.1565 H   0  0  0  0  0  0
  1  2  2  0  0  0
  2  3  1  0  0  0
  2 27  1  0  0  0
  3  4  1  0  0  0
  3 32  1  0  0  0
  4  5  2  0  0  0
  4 26  1  0  0  0
  5  6  1  0  0  0
  5 33  1  0  0  0
  6  7  1  0  0  0
  6 24  2  0  0  0
  7  8  1  0  0  0
  8  9  1  0  0  0
  8 34  1  0  0  0
  8 35  1  0  0  0
  9 10  2  0  0  0
  9 17  1  0  0  0
 10 11  1  0  0  0
 11 12  2  0  0  0
 12 13  1  0  0  0
 12 17  1  0  0  0
 13 14  2  0  0  0
 13 36  1  0  0  0
 14 15  1  0  0  0
 14 37  1  0  0  0
 15 16  2  0  0  0
 15 18  1  0  0  0
 16 17  1  0  0  0
 18 19  2  0  0  0
 18 23  1  0  0  0
 19 20  1  0  0  0
 19 38  1  0  0  0
 20 21  2  0  0  0
 20 39  1  0  0  0
 21 22  1  0  0  0
 21 40  1  0  0  0
 22 23  2  0  0  0
 22 41  1  0  0  0
 23 42  1  0  0  0
 24 25  1  0  0  0
 24 43  1  0  0  0
 25 26  2  0  0  0
 25 44  1  0  0  0
 27 28  1  0  0  0
 27 31  1  0  0  0
 28 29  1  0  0  0
 28 45  1  0  0  0
 28 46  1  0  0  0
 29 30  1  0  0  0
 29 47  1  0  0  0
 29 48  1  0  0  0
 30 31  1  0  0  0
 30 49  1  0  0  0
 30 50  1  0  0  0
 31 51  1  0  0  0
 31 52  1  0  0  0
M  END
> <s_m_entry_id>
10492

> <s_m_entry_name>
dock_pv.561

> <s_m_Source_Path>
/home/csk/Desktop/cluster/DUD-E-result/met

> <s_m_Source_File>
dock_pv.maegz

> <i_m_Source_File_Index>
561

> <chembl_id>
CHEMBL3668206

> <chembl_pref_name>
None

> <i_lp_mmshare_version>
53161

> <i_f3d_flags>
0

> <r_lp_tautomer_probability>
1

> <s_lp_Force_Field>
OPLS_2005

> <r_lp_Energy>
56.87397

> <b_lp_Chiralities_Consistent>
1

> <s_lp_Variant>
CHEMBL3717_lig4288-1

> <s_i_glide_gridfile>
glide-grid_3lq8

> <i_i_glide_lignum>
5509

> <i_i_glide_rotatable_bonds>
7

> <r_i_docking_score>
-7.08697994546988

> <r_i_glide_ligand_efficiency>
-0.22861225630548

> <r_i_glide_ligand_efficiency_sa>
-0.718158118035528

> <r_i_glide_ligand_efficiency_ln>
-1.59833116755527

> <r_i_glide_gscore>
-7.08697994546988

> <r_i_glide_lipo>
-2.93656827377285

> <r_i_glide_hbond>
-0.299907843552921

> <r_i_glide_metal>
0

> <r_i_glide_rewards>
-2.12224714812617

> <r_i_glide_evdw>
-43.9546318054199

> <r_i_glide_ecoul>
-2.00837397575378

> <r_i_glide_erotb>
0.800871603235843

> <r_i_glide_esite>
-0.030140596619707

> <r_i_glide_emodel>
-63.0373049409607

> <r_i_glide_energy>
-45.9630057811737

> <r_i_glide_einternal>
4.79190969467163

> <i_i_glide_confnum>
4

> <i_i_glide_posenum>
48

> <r_i_glide_eff_state_penalty>
0

> <s_user_duplicate_titles>
CHEMBL3717_lig4288

> <s_m_subgroup_title>
dock_pv

> <s_m_subgroupid>
dock_pv

> <b_m_subgroup_collapsed>
1

$$$$
CHEMBL3717_lig3931
                    3D
 Schrodinger Suite 2021-1.
 43 45  0  0  1  0            999 V2000
   -9.5205    4.4110   31.4399 O   0  0  0  0  0  0
   -5.3749    4.1720   30.6076 N   0  0  0  0  0  0
   -5.6880   -0.5186   29.7848 N   0  0  0  0  0  0
   -8.0502    5.5566   30.2071 N   0  0  0  0  0  0
   -3.9554   -2.8430   30.6947 N   0  0  0  0  0  0
   -6.3034    3.1607   30.4351 C   0  0  0  0  0  0
   -5.5605    1.9606   30.1952 C   0  0  0  0  0  0
   -4.0923    3.7029   30.4905 C   0  0  0  0  0  0
   -7.7084    3.1848   30.4818 C   0  0  0  0  0  0
   -6.2666    0.7449   30.0045 C   0  0  0  0  0  0
   -4.1781    2.3559   30.2079 C   0  0  0  0  0  0
   -2.8771    4.5530   30.6080 C   0  0  0  0  0  0
   -8.3561    1.9612   30.2954 C   0  0  0  0  0  0
   -7.6591    0.7829   30.0593 C   0  0  0  0  0  0
   -8.5058    4.4298   30.7502 C   0  0  0  0  0  0
   -2.8972    5.9042   30.2488 C   0  0  0  0  0  0
   -1.6781    3.9527   31.0054 C   0  0  0  0  0  0
   -1.7074    6.6274   30.2081 C   0  0  0  0  0  0
   -0.4917    4.6750   30.9702 C   0  0  0  0  0  0
   -0.5048    6.0011   30.5433 C   0  0  0  0  0  0
   -4.2634   -0.7095   29.5340 C   0  0  0  0  0  0
   -3.8542   -2.1841   29.4048 C   0  0  0  0  0  0
    0.8018    6.7560   30.4356 C   0  0  0  0  0  0
   -5.5714    5.1401   30.8139 H   0  0  0  0  0  0
   -6.2942   -1.2117   29.3697 H   0  0  0  0  0  0
   -7.3451    5.5374   29.4864 H   0  0  0  0  0  0
   -8.5482    6.4200   30.3851 H   0  0  0  0  0  0
   -4.9153   -2.8229   31.0068 H   0  0  0  0  0  0
   -3.7054   -3.8355   30.6091 H   0  0  0  0  0  0
   -3.3107    1.7408   30.0379 H   0  0  0  0  0  0
   -9.4364    1.9161   30.3351 H   0  0  0  0  0  0
   -8.2258   -0.1279   29.9284 H   0  0  0  0  0  0
   -3.8196    6.3750   29.9414 H   0  0  0  0  0  0
   -1.6530    2.9137   31.3001 H   0  0  0  0  0  0
   -1.7136    7.6597   29.8883 H   0  0  0  0  0  0
    0.4369    4.1944   31.2427 H   0  0  0  0  0  0
   -3.6876   -0.2594   30.3405 H   0  0  0  0  0  0
   -3.9966   -0.1705   28.6224 H   0  0  0  0  0  0
   -2.8225   -2.2542   29.0583 H   0  0  0  0  0  0
   -4.4726   -2.6972   28.6664 H   0  0  0  0  0  0
    0.6574    7.7866   30.1102 H   0  0  0  0  0  0
    1.3028    6.7557   31.4029 H   0  0  0  0  0  0
    1.4660    6.2599   29.7276 H   0  0  0  0  0  0
  1 15  2  0  0  0
  2  6  1  0  0  0
  2  8  1  0  0  0
  2 24  1  0  0  0
  3 10  1  0  0  0
  3 21  1  0  0  0
  3 25  1  0  0  0
  4 15  1  0  0  0
  4 26  1  0  0  0
  4 27  1  0  0  0
  5 22  1  0  0  0
  5 28  1  0  0  0
  5 29  1  0  0  0
  6  7  1  0  0  0
  6  9  2  0  0  0
  7 10  2  0  0  0
  7 11  1  0  0  0
  8 11  2  0  0  0
  8 12  1  0  0  0
  9 13  1  0  0  0
  9 15  1  0  0  0
 10 14  1  0  0  0
 11 30  1  0  0  0
 12 16  2  0  0  0
 12 17  1  0  0  0
 13 14  2  0  0  0
 13 31  1  0  0  0
 14 32  1  0  0  0
 16 18  1  0  0  0
 16 33  1  0  0  0
 17 19  2  0  0  0
 17 34  1  0  0  0
 18 20  2  0  0  0
 18 35  1  0  0  0
 19 20  1  0  0  0
 19 36  1  0  0  0
 20 23  1  0  0  0
 21 22  1  0  0  0
 21 37  1  0  0  0
 21 38  1  0  0  0
 22 39  1  0  0  0
 22 40  1  0  0  0
 23 41  1  0  0  0
 23 42  1  0  0  0
 23 43  1  0  0  0
M  END
> <s_m_entry_id>
10493

> <s_m_entry_name>
dock_pv.562

> <s_m_Source_Path>
/home/csk/Desktop/cluster/DUD-E-result/met

> <s_m_Source_File>
dock_pv.maegz

> <i_m_Source_File_Index>
562

> <chembl_id>
CHEMBL1996048

> <chembl_pref_name>
None

> <i_lp_mmshare_version>
53161

> <i_f3d_flags>
0

> <r_lp_tautomer_probability>
1

> <s_lp_Force_Field>
OPLS_2005

> <r_lp_Energy>
16.362312

> <b_lp_Chiralities_Consistent>
1

> <s_lp_Variant>
CHEMBL3717_lig3931-1

> <s_i_glide_gridfile>
glide-grid_3lq8

> <i_i_glide_lignum>
4994

> <i_i_glide_rotatable_bonds>
5

> <r_i_docking_score>
-7.08638482102135

> <r_i_glide_ligand_efficiency>
-0.308103687870493

> <r_i_glide_ligand_efficiency_sa>
-0.87620590338961

> <r_i_glide_ligand_efficiency_ln>
-1.71355210550795

> <r_i_glide_gscore>
-7.08638482102135

> <r_i_glide_lipo>
-2.93758113734351

> <r_i_glide_hbond>
-0.376854185077558

> <r_i_glide_metal>
0

> <r_i_glide_rewards>
-1.92318303030303

> <r_i_glide_evdw>
-28.6782188415527

> <r_i_glide_ecoul>
-6.38283920288086

> <r_i_glide_erotb>
0.583636712412971

> <r_i_glide_esite>
-0.041066358200458

> <r_i_glide_emodel>
-47.2525571567466

> <r_i_glide_energy>
-35.0610580444336

> <r_i_glide_einternal>
4.80607128143311

> <i_i_glide_confnum>
2

> <i_i_glide_posenum>
350

> <r_i_glide_eff_state_penalty>
0

> <s_user_duplicate_titles>
CHEMBL3717_lig3931

> <s_m_subgroup_title>
dock_pv

> <s_m_subgroupid>
dock_pv

> <b_m_subgroup_collapsed>
1

$$$$
CHEMBL3717_lig968
                    3D
 Schrodinger Suite 2021-1.
 35 37  0  0  1  0            999 V2000
   -7.8923    3.0595   29.9642 C   0  0  0  0  0  0
   -7.7537    1.6780   29.8119 C   0  0  0  0  0  0
   -6.4956    1.0849   29.9244 C   0  0  0  0  0  0
   -5.3876    1.8964   30.1785 C   0  0  0  0  0  0
   -5.5008    3.2709   30.2935 C   0  0  0  0  0  0
   -6.7726    3.8597   30.2106 C   0  0  0  0  0  0
   -7.0015    5.5570   30.4251 Cl  0  0  0  0  0  0
   -4.1513    3.7903   30.4960 C   0  0  0  0  0  0
   -3.2942    2.5944   30.6080 C   0  0  0  0  0  0
   -4.0748    1.5369   30.3610 N   0  0  0  0  0  0
   -2.0940    2.5729   30.8727 O   0  0  0  0  0  0
   -3.7886    5.0230   30.5718 N   0  0  0  0  0  0
   -2.4573    5.3058   30.6080 N   0  0  0  0  0  0
   -1.9967    6.5589   30.4524 C   0  0  0  0  0  0
   -0.5178    6.7826   30.0573 C   0  0  0  0  0  0
    0.4765    5.6325   30.2831 C   0  0  0  0  0  0
    0.9508    4.8821   29.2013 C   0  0  0  0  0  0
    1.9307    3.9032   29.3765 C   0  0  0  0  0  0
    2.4446    3.6627   30.6541 C   0  0  0  0  0  0
    1.9602    4.3783   31.7436 C   0  0  0  0  0  0
    0.9972    5.3675   31.5544 C   0  0  0  0  0  0
    3.4488    2.7570   30.8517 O   0  0  0  0  0  0
    2.5699    2.9362   27.8605 Br  0  0  0  0  0  0
   -2.7113    7.5562   30.6073 O   0  0  0  0  0  0
   -6.3328   -0.6264   29.7534 Cl  0  0  0  0  0  0
   -8.8711    3.5110   29.8903 H   0  0  0  0  0  0
   -8.6235    1.0673   29.6177 H   0  0  0  0  0  0
   -3.7367    0.5857   30.3564 H   0  0  0  0  0  0
   -1.8465    4.4984   30.5658 H   0  0  0  0  0  0
   -0.1556    7.6515   30.6077 H   0  0  0  0  0  0
   -0.5031    7.0802   29.0080 H   0  0  0  0  0  0
    0.5851    5.0781   28.2080 H   0  0  0  0  0  0
    2.3630    4.2007   32.7299 H   0  0  0  0  0  0
    0.7079    5.9569   32.4055 H   0  0  0  0  0  0
    3.7190    2.3571   30.0216 H   0  0  0  0  0  0
  1  2  1  0  0  0
  1  6  2  0  0  0
  1 26  1  0  0  0
  2  3  2  0  0  0
  2 27  1  0  0  0
  3  4  1  0  0  0
  3 25  1  0  0  0
  4  5  2  0  0  0
  4 10  1  0  0  0
  5  6  1  0  0  0
  5  8  1  0  0  0
  6  7  1  0  0  0
  8  9  1  0  0  0
  8 12  2  0  0  0
  9 10  1  0  0  0
  9 11  2  0  0  0
 10 28  1  0  0  0
 12 13  1  0  0  0
 13 14  1  0  0  0
 13 29  1  0  0  0
 14 15  1  0  0  0
 14 24  2  0  0  0
 15 16  1  0  0  0
 15 30  1  0  0  0
 15 31  1  0  0  0
 16 17  1  0  0  0
 16 21  2  0  0  0
 17 18  2  0  0  0
 17 32  1  0  0  0
 18 19  1  0  0  0
 18 23  1  0  0  0
 19 20  2  0  0  0
 19 22  1  0  0  0
 20 21  1  0  0  0
 20 33  1  0  0  0
 21 34  1  0  0  0
 22 35  1  0  0  0
M  END
> <s_m_entry_id>
10494

> <s_m_entry_name>
dock_pv.563

> <s_m_Source_Path>
/home/csk/Desktop/cluster/DUD-E-result/met

> <s_m_Source_File>
dock_pv.maegz

> <i_m_Source_File_Index>
563

> <chembl_id>
CHEMBL1822780

> <chembl_pref_name>
None

> <i_lp_mmshare_version>
53161

> <i_f3d_flags>
0

> <r_lp_tautomer_probability>
0.999999999997365

> <s_lp_Force_Field>
OPLS_2005

> <r_lp_Energy>
36.766466

> <b_lp_Chiralities_Consistent>
1

> <s_lp_Variant>
CHEMBL3717_lig968-1

> <s_i_glide_gridfile>
glide-grid_3lq8

> <i_i_glide_lignum>
1063

> <i_i_glide_rotatable_bonds>
5

> <r_i_docking_score>
-7.0826584152265

> <r_i_glide_ligand_efficiency>
-0.28330633660906

> <r_i_glide_ligand_efficiency_sa>
-0.828392752704165

> <r_i_glide_ligand_efficiency_ln>
-1.67880229455385

> <r_i_glide_gscore>
-7.0826584152265

> <r_i_glide_lipo>
-3.27810538269138

> <r_i_glide_hbond>
-0.32

> <r_i_glide_metal>
0

> <r_i_glide_rewards>
-1.53369343573195

> <r_i_glide_evdw>
-39.0190963745117

> <r_i_glide_ecoul>
-2.71450304985046

> <r_i_glide_erotb>
0.407270679399997

> <r_i_glide_esite>
0

> <r_i_glide_emodel>
-53.8052922318456

> <r_i_glide_energy>
-41.7335994243622

> <r_i_glide_einternal>
4.02185344696045

> <i_i_glide_confnum>
10

> <i_i_glide_posenum>
73

> <r_i_glide_eff_state_penalty>
0

> <s_user_duplicate_titles>
CHEMBL3717_lig968

> <s_m_subgroup_title>
dock_pv

> <s_m_subgroupid>
dock_pv

> <b_m_subgroup_collapsed>
1

$$$$
CHEMBL3717_lig1297
                    3D
 Schrodinger Suite 2021-1.
 44 48  0  0  1  0            999 V2000
   -5.8928    2.7613   30.3763 N   0  0  0  0  0  0
   -5.5560    1.3558   30.1357 C   0  0  0  0  0  0
   -6.8528    0.5550   30.1589 C   0  0  1  0  0  0
   -7.8685    1.5546   29.6456 C   0  0  0  0  0  0
   -7.3377    2.8931   30.1720 C   0  0  0  0  0  0
   -6.7893   -0.6842   29.4070 N   0  0  0  0  0  0
   -3.2059    5.8452   30.6089 C   0  0  0  0  0  0
   -2.8112    4.4929   30.6287 C   0  0  0  0  0  0
   -4.4937    6.1924   30.6120 N   0  0  0  0  0  0
   -3.6548    3.4579   30.6072 N   0  0  0  0  0  0
   -4.9737    3.8101   30.5330 C   0  0  0  0  0  0
   -5.3782    5.1557   30.5908 C   0  0  0  0  0  0
   -1.4320    4.5149   30.6609 N   0  0  0  0  0  0
   -1.0017    5.7972   30.6078 N   0  0  0  0  0  0
   -2.1002    6.6347   30.5622 N   0  0  0  0  0  0
   -0.5262    3.3718   30.6755 C   0  0  0  0  0  0
    5.0123    4.7140   30.6080 N   0  0  0  0  0  0
    5.6902    4.7392   29.4418 C   0  0  0  0  0  0
    5.1290    4.3570   28.2326 C   0  0  0  0  0  0
    3.8044    3.9147   28.2080 C   0  0  0  0  0  0
    3.0424    3.9353   29.3921 C   0  0  0  0  0  0
    1.6675    3.5985   29.4321 C   0  0  0  0  0  0
    0.9650    3.6785   30.6367 C   0  0  0  0  0  0
    1.6254    4.0436   31.8075 C   0  0  0  0  0  0
    2.9767    4.3567   31.7879 C   0  0  0  0  0  0
    3.7039    4.3351   30.5872 C   0  0  0  0  0  0
   -5.0215    1.2473   29.1905 H   0  0  0  0  0  0
   -4.8937    1.0149   30.9329 H   0  0  0  0  0  0
   -7.1071    0.2923   31.1876 H   0  0  0  0  0  0
   -8.8675    1.3505   30.0323 H   0  0  0  0  0  0
   -7.9170    1.5661   28.5558 H   0  0  0  0  0  0
   -7.8465    3.1730   31.0955 H   0  0  0  0  0  0
   -7.5266    3.6477   29.4073 H   0  0  0  0  0  0
   -6.5830   -0.4947   28.4349 H   0  0  0  0  0  0
   -6.0240   -1.2531   29.7415 H   0  0  0  0  0  0
   -6.4192    5.4351   30.5413 H   0  0  0  0  0  0
   -0.7947    2.7571   29.8184 H   0  0  0  0  0  0
   -0.7571    2.7831   31.5646 H   0  0  0  0  0  0
    6.7185    5.0638   29.4919 H   0  0  0  0  0  0
    5.7365    4.3697   27.3428 H   0  0  0  0  0  0
    3.3398    3.5704   27.2967 H   0  0  0  0  0  0
    1.1666    3.3061   28.5194 H   0  0  0  0  0  0
    1.0938    4.1046   32.7437 H   0  0  0  0  0  0
    3.4828    4.6696   32.6774 H   0  0  0  0  0  0
  1  2  1  0  0  0
  1  5  1  0  0  0
  1 11  1  0  0  0
  2  3  1  0  0  0
  2 27  1  0  0  0
  2 28  1  0  0  0
  3  4  1  0  0  0
  3  6  1  0  0  0
  3 29  1  0  0  0
  4  5  1  0  0  0
  4 30  1  0  0  0
  4 31  1  0  0  0
  5 32  1  0  0  0
  5 33  1  0  0  0
  6 34  1  0  0  0
  6 35  1  0  0  0
  7  8  1  0  0  0
  7  9  2  0  0  0
  7 15  1  0  0  0
  8 10  2  0  0  0
  8 13  1  0  0  0
  9 12  1  0  0  0
 10 11  1  0  0  0
 11 12  2  0  0  0
 12 36  1  0  0  0
 13 14  1  0  0  0
 13 16  1  0  0  0
 14 15  2  0  0  0
 16 23  1  0  0  0
 16 37  1  0  0  0
 16 38  1  0  0  0
 17 18  2  0  0  0
 17 26  1  0  0  0
 18 19  1  0  0  0
 18 39  1  0  0  0
 19 20  2  0  0  0
 19 40  1  0  0  0
 20 21  1  0  0  0
 20 41  1  0  0  0
 21 22  2  0  0  0
 21 26  1  0  0  0
 22 23  1  0  0  0
 22 42  1  0  0  0
 23 24  2  0  0  0
 24 25  1  0  0  0
 24 43  1  0  0  0
 25 26  2  0  0  0
 25 44  1  0  0  0
M  END
> <s_m_entry_id>
10495

> <s_m_entry_name>
dock_pv.564

> <s_m_Source_Path>
/home/csk/Desktop/cluster/DUD-E-result/met

> <s_m_Source_File>
dock_pv.maegz

> <i_m_Source_File_Index>
564

> <chembl_id>
CHEMBL2170806

> <chembl_pref_name>
None

> <i_lp_mmshare_version>
53161

> <i_f3d_flags>
0

> <r_lp_tautomer_probability>
1

> <s_lp_Force_Field>
OPLS_2005

> <r_lp_Energy>
45.094862

> <b_lp_Chiralities_Consistent>
1

> <s_lp_Variant>
CHEMBL3717_lig1297-1

> <s_i_glide_gridfile>
glide-grid_3lq8

> <i_i_glide_lignum>
1483

> <i_i_glide_rotatable_bonds>
3

> <r_i_docking_score>
-7.08134132188682

> <r_i_glide_ligand_efficiency>
-0.272359281611032

> <r_i_glide_ligand_efficiency_sa>
-0.806863300090658

> <r_i_glide_ligand_efficiency_ln>
-1.66302977366905

> <r_i_glide_gscore>
-7.08134132188682

> <r_i_glide_lipo>
-3.08601436571637

> <r_i_glide_hbond>
0

> <r_i_glide_metal>
0

> <r_i_glide_rewards>
-2.31043717037242

> <r_i_glide_evdw>
-38.5404510498047

> <r_i_glide_ecoul>
-1.55475234985352

> <r_i_glide_erotb>
0.475345619170234

> <r_i_glide_esite>
0

> <r_i_glide_emodel>
-54.2228108439283

> <r_i_glide_energy>
-40.0952033996582

> <r_i_glide_einternal>
2.13101673126221

> <i_i_glide_confnum>
3

> <i_i_glide_posenum>
192

> <r_i_glide_eff_state_penalty>
0

> <s_user_duplicate_titles>
CHEMBL3717_lig1297

> <s_m_subgroup_title>
dock_pv

> <s_m_subgroupid>
dock_pv

> <b_m_subgroup_collapsed>
1

$$$$
CHEMBL3717_lig2017
                    3D
 Schrodinger Suite 2021-1.
 45 47  0  0  1  0            999 V2000
    2.6148    4.1254   31.2347 C   0  0  0  0  0  0
    3.0698    3.6789   29.9979 C   0  0  0  0  0  0
    2.1546    3.3958   28.9940 C   0  0  0  0  0  0
    0.7947    3.5570   29.2417 C   0  0  0  0  0  0
    0.3252    4.0169   30.4769 C   0  0  0  0  0  0
    1.2533    4.3174   31.4774 C   0  0  0  0  0  0
   -1.1214    4.1462   30.6820 C   0  0  0  0  0  0
   -1.9416    3.1505   30.6080 N   0  0  0  0  0  0
   -3.3383    3.3163   30.6080 N   0  0  0  0  0  0
   -3.9711    4.5493   30.6080 C   0  0  0  0  0  0
   -3.0401    5.6350   30.8763 C   0  0  0  0  0  0
   -1.6983    5.4525   30.8937 C   0  0  0  0  0  0
   -5.1620    4.7594   30.3733 O   0  0  0  0  0  0
   -4.1887    2.1340   30.2770 C   0  0  0  0  0  0
   -3.8172    0.7254   30.7802 C   0  0  0  0  0  0
   -4.4500   -0.3899   30.2085 C   0  0  0  0  0  0
   -4.1575   -1.6930   30.6506 C   0  0  0  0  0  0
   -3.1798   -1.8838   31.6264 C   0  0  0  0  0  0
   -2.5544   -0.7849   32.2080 C   0  0  0  0  0  0
   -2.8940    0.5065   31.8080 C   0  0  0  0  0  0
   -4.8089   -2.8384   30.1692 N   0  0  0  0  0  0
   -6.1444   -2.9358   29.8080 C   0  0  0  0  0  0
   -6.4050   -4.2134   29.4552 O   0  0  0  0  0  0
   -6.9798   -2.0285   29.8133 O   0  0  0  0  0  0
   -7.7251   -4.6403   29.1281 C   0  0  0  0  0  0
    3.5060    4.3570   32.2080 F   0  0  0  0  0  0
    2.5821    2.9503   27.7916 F   0  0  0  0  0  0
   -8.5371   -4.9638   30.3911 C   0  0  0  0  0  0
    4.1259    3.5398   29.8209 H   0  0  0  0  0  0
    0.1020    3.2809   28.4690 H   0  0  0  0  0  0
    0.9329    4.6662   32.4484 H   0  0  0  0  0  0
   -3.4548    6.6234   31.0106 H   0  0  0  0  0  0
   -1.0625    6.3188   31.0082 H   0  0  0  0  0  0
   -4.2518    2.0899   29.1883 H   0  0  0  0  0  0
   -5.2134    2.2848   30.6260 H   0  0  0  0  0  0
   -5.1819   -0.2429   29.4268 H   0  0  0  0  0  0
   -2.9266   -2.8808   31.9590 H   0  0  0  0  0  0
   -1.8169   -0.9332   32.9830 H   0  0  0  0  0  0
   -2.4095    1.3334   32.3028 H   0  0  0  0  0  0
   -4.2980   -3.7142   30.2081 H   0  0  0  0  0  0
   -7.6460   -5.5360   28.5114 H   0  0  0  0  0  0
   -8.2402   -3.8928   28.5219 H   0  0  0  0  0  0
   -9.5275   -5.3359   30.1297 H   0  0  0  0  0  0
   -8.6694   -4.0785   31.0138 H   0  0  0  0  0  0
   -8.0405   -5.7260   30.9921 H   0  0  0  0  0  0
  1  2  2  0  0  0
  1  6  1  0  0  0
  1 26  1  0  0  0
  2  3  1  0  0  0
  2 29  1  0  0  0
  3  4  2  0  0  0
  3 27  1  0  0  0
  4  5  1  0  0  0
  4 30  1  0  0  0
  5  6  2  0  0  0
  5  7  1  0  0  0
  6 31  1  0  0  0
  7  8  2  0  0  0
  7 12  1  0  0  0
  8  9  1  0  0  0
  9 10  1  0  0  0
  9 14  1  0  0  0
 10 11  1  0  0  0
 10 13  2  0  0  0
 11 12  2  0  0  0
 11 32  1  0  0  0
 12 33  1  0  0  0
 14 15  1  0  0  0
 14 34  1  0  0  0
 14 35  1  0  0  0
 15 16  2  0  0  0
 15 20  1  0  0  0
 16 17  1  0  0  0
 16 36  1  0  0  0
 17 18  2  0  0  0
 17 21  1  0  0  0
 18 19  1  0  0  0
 18 37  1  0  0  0
 19 20  2  0  0  0
 19 38  1  0  0  0
 20 39  1  0  0  0
 21 22  1  0  0  0
 21 40  1  0  0  0
 22 23  1  0  0  0
 22 24  2  0  0  0
 23 25  1  0  0  0
 25 28  1  0  0  0
 25 41  1  0  0  0
 25 42  1  0  0  0
 28 43  1  0  0  0
 28 44  1  0  0  0
 28 45  1  0  0  0
M  END
> <s_m_entry_id>
10496

> <s_m_entry_name>
dock_pv.565

> <s_m_Source_Path>
/home/csk/Desktop/cluster/DUD-E-result/met

> <s_m_Source_File>
dock_pv.maegz

> <i_m_Source_File_Index>
565

> <chembl_id>
CHEMBL3402745

> <chembl_pref_name>
None

> <i_lp_mmshare_version>
53161

> <i_f3d_flags>
0

> <r_lp_tautomer_probability>
1

> <s_lp_Force_Field>
OPLS_2005

> <r_lp_Energy>
33.830093

> <b_lp_Chiralities_Consistent>
1

> <s_lp_Variant>
CHEMBL3717_lig2017-1

> <s_i_glide_gridfile>
glide-grid_3lq8

> <i_i_glide_lignum>
2313

> <i_i_glide_rotatable_bonds>
7

> <r_i_docking_score>
-7.07935720070485

> <r_i_glide_ligand_efficiency>
-0.252834185739459

> <r_i_glide_ligand_efficiency_sa>
-0.767753499276833

> <r_i_glide_ligand_efficiency_ln>
-1.63412350088213

> <r_i_glide_gscore>
-7.07935720070485

> <r_i_glide_lipo>
-3.51200890998811

> <r_i_glide_hbond>
-0.144995838841334

> <r_i_glide_metal>
0

> <r_i_glide_rewards>
-2.10778280751573

> <r_i_glide_evdw>
-38.7317771911621

> <r_i_glide_ecoul>
-0.667141020298004

> <r_i_glide_erotb>
0.785920213168286

> <r_i_glide_esite>
-0.0638298449251458

> <r_i_glide_emodel>
-47.9459914000393

> <r_i_glide_energy>
-39.3989182114601

> <r_i_glide_einternal>
7.54722309112549

> <i_i_glide_confnum>
10

> <i_i_glide_posenum>
23

> <r_i_glide_eff_state_penalty>
0

> <s_user_duplicate_titles>
CHEMBL3717_lig2017

> <s_m_subgroup_title>
dock_pv

> <s_m_subgroupid>
dock_pv

> <b_m_subgroup_collapsed>
1

$$$$
CHEMBL3717_lig3516
                    3D
 Schrodinger Suite 2021-1.
 27 29  0  0  1  0            999 V2000
    6.3697    4.3564   31.0056 Br  0  0  0  0  0  0
    0.7060    3.8484   29.4072 N   0  0  0  0  0  0
    3.5684    4.3570   31.3640 N   0  0  0  0  0  0
    3.0185    3.5669   28.6710 N   0  0  0  0  0  0
    2.3169    4.2756   30.9032 C   0  0  0  0  0  0
    2.0699    3.8598   29.5689 C   0  0  0  0  0  0
    0.0815    4.2944   30.5543 C   0  0  0  0  0  0
    1.0553    4.5779   31.5010 C   0  0  0  0  0  0
   -1.3889    4.4693   30.6081 C   0  0  0  0  0  0
    4.5613    4.1138   30.4647 C   0  0  0  0  0  0
    4.2831    3.7320   29.1497 C   0  0  0  0  0  0
   -1.9411    5.7515   30.6117 C   0  0  0  0  0  0
   -2.2178    3.3469   30.6093 C   0  0  0  0  0  0
   -3.3262    5.9094   30.6101 C   0  0  0  0  0  0
   -3.6007    3.5038   30.6080 C   0  0  0  0  0  0
   -4.1545    4.7862   30.6081 C   0  0  0  0  0  0
   -5.6625    4.9638   30.6544 C   0  0  0  0  0  0
    0.1941    3.5890   28.5765 H   0  0  0  0  0  0
    0.8727    4.9564   32.4948 H   0  0  0  0  0  0
    5.0896    3.5572   28.4534 H   0  0  0  0  0  0
   -1.2998    6.6213   30.6039 H   0  0  0  0  0  0
   -1.7877    2.3567   30.6084 H   0  0  0  0  0  0
   -3.7572    6.8990   30.6238 H   0  0  0  0  0  0
   -4.2360    2.6286   30.6172 H   0  0  0  0  0  0
   -6.1954    4.0113   30.6378 H   0  0  0  0  0  0
   -6.0033    5.5560   29.8082 H   0  0  0  0  0  0
   -5.9503    5.5029   31.5576 H   0  0  0  0  0  0
  1 10  1  0  0  0
  2  6  1  0  0  0
  2  7  1  0  0  0
  2 18  1  0  0  0
  3  5  2  0  0  0
  3 10  1  0  0  0
  4  6  2  0  0  0
  4 11  1  0  0  0
  5  6  1  0  0  0
  5  8  1  0  0  0
  7  8  2  0  0  0
  7  9  1  0  0  0
  8 19  1  0  0  0
  9 12  2  0  0  0
  9 13  1  0  0  0
 10 11  2  0  0  0
 11 20  1  0  0  0
 12 14  1  0  0  0
 12 21  1  0  0  0
 13 15  2  0  0  0
 13 22  1  0  0  0
 14 16  2  0  0  0
 14 23  1  0  0  0
 15 16  1  0  0  0
 15 24  1  0  0  0
 16 17  1  0  0  0
 17 25  1  0  0  0
 17 26  1  0  0  0
 17 27  1  0  0  0
M  END
> <s_m_entry_id>
10497

> <s_m_entry_name>
dock_pv.566

> <s_m_Source_Path>
/home/csk/Desktop/cluster/DUD-E-result/met

> <s_m_Source_File>
dock_pv.maegz

> <i_m_Source_File_Index>
566

> <chembl_id>
CHEMBL1965169

> <chembl_pref_name>
None

> <i_lp_mmshare_version>
53161

> <i_f3d_flags>
0

> <r_lp_tautomer_probability>
0.999999572927183

> <s_lp_Force_Field>
OPLS_2005

> <r_lp_Energy>
12.499218

> <b_lp_Chiralities_Consistent>
1

> <s_lp_Variant>
CHEMBL3717_lig3516-1

> <s_i_glide_gridfile>
glide-grid_3lq8

> <i_i_glide_lignum>
4345

> <i_i_glide_rotatable_bonds>
1

> <r_i_docking_score>
-7.07445659038471

> <r_i_glide_ligand_efficiency>
-0.416144505316747

> <r_i_glide_ligand_efficiency_sa>
-1.07002470456399

> <r_i_glide_ligand_efficiency_ln>
-1.84556818402878

> <r_i_glide_gscore>
-7.07445659038471

> <r_i_glide_lipo>
-3.06599265254163

> <r_i_glide_hbond>
0

> <r_i_glide_metal>
0

> <r_i_glide_rewards>
-2.39081175684335

> <r_i_glide_evdw>
-32.9886245727539

> <r_i_glide_ecoul>
-1.24855387210846

> <r_i_glide_erotb>
0.219062128454237

> <r_i_glide_esite>
0

> <r_i_glide_emodel>
-45.0460521016071

> <r_i_glide_energy>
-34.2371784448624

> <r_i_glide_einternal>
5.13143682479858

> <i_i_glide_confnum>
2

> <i_i_glide_posenum>
279

> <r_i_glide_eff_state_penalty>
0

> <s_user_duplicate_titles>
CHEMBL3717_lig3516

> <s_m_subgroup_title>
dock_pv

> <s_m_subgroupid>
dock_pv

> <b_m_subgroup_collapsed>
1

$$$$
CHEMBL3717_lig1822
                    3D
 Schrodinger Suite 2021-1.
 44 48  0  0  1  0            999 V2000
   -6.0929   -2.4817   29.9700 N   0  0  0  0  0  0
   -4.3516    1.9966   30.3306 N   0  0  0  0  0  0
   -4.5245    3.3504   30.4723 C   0  0  0  0  0  0
   -5.7984    3.8876   30.4491 N   0  0  0  0  0  0
   -6.9154    3.0874   30.2524 C   0  0  0  0  0  0
   -6.7604    1.6862   30.1227 C   0  0  0  0  0  0
   -7.8558    0.8092   29.9613 C   0  0  0  0  0  0
   -7.6318   -0.5622   29.8960 C   0  0  0  0  0  0
   -6.3371   -1.0956   29.9680 C   0  0  0  0  0  0
   -5.2434   -0.2307   30.0812 C   0  0  0  0  0  0
   -5.4332    1.1715   30.1759 C   0  0  0  0  0  0
   -6.2344    5.1579   30.6057 N   0  0  0  0  0  0
   -7.5362    5.0451   30.4020 C   0  0  0  0  0  0
   -8.0403    3.8404   30.2188 N   0  0  0  0  0  0
    0.1587    6.5024   30.5184 O   0  0  0  0  0  0
   -0.3795    7.6843   29.9837 C   0  0  0  0  0  0
   -1.7778    7.5551   29.9629 O   0  0  0  0  0  0
   -2.0369    6.2527   30.2628 C   0  0  0  0  0  0
   -0.8756    5.6281   30.6081 C   0  0  0  0  0  0
   -3.2520    5.5725   30.2453 C   0  0  0  0  0  0
   -3.2832    4.2027   30.6072 C   0  0  0  0  0  0
   -2.0629    3.6016   31.0047 C   0  0  0  0  0  0
   -0.8501    4.3002   31.0083 C   0  0  0  0  0  0
   -7.1920   -3.4428   29.9563 C   0  0  0  0  0  0
   -6.7601   -4.9072   30.1715 C   0  0  0  0  0  0
   -6.1149   -5.6101   28.9628 C   0  0  0  0  0  0
   -4.8952   -4.9994   28.6079 O   0  0  0  0  0  0
   -5.2275   -2.7988   29.5510 H   0  0  0  0  0  0
   -8.8611    1.2047   29.9149 H   0  0  0  0  0  0
   -8.4912   -1.2078   29.7952 H   0  0  0  0  0  0
   -4.2388   -0.6250   30.1324 H   0  0  0  0  0  0
   -8.1760    5.9174   30.3807 H   0  0  0  0  0  0
   -0.0959    8.5344   30.6055 H   0  0  0  0  0  0
   -0.0182    7.8195   28.9628 H   0  0  0  0  0  0
   -4.1258    6.0966   29.8960 H   0  0  0  0  0  0
   -2.0461    2.5597   31.2892 H   0  0  0  0  0  0
    0.0684    3.8097   31.2935 H   0  0  0  0  0  0
   -7.7168   -3.3449   29.0042 H   0  0  0  0  0  0
   -7.9292   -3.1698   30.7117 H   0  0  0  0  0  0
   -7.6442   -5.4762   30.4561 H   0  0  0  0  0  0
   -6.0936   -4.9747   31.0325 H   0  0  0  0  0  0
   -6.7778   -5.5394   28.0990 H   0  0  0  0  0  0
   -5.9556   -6.6697   29.1631 H   0  0  0  0  0  0
   -4.2440   -5.2367   29.2950 H   0  0  0  0  0  0
  1  9  1  0  0  0
  1 24  1  0  0  0
  1 28  1  0  0  0
  2  3  2  0  0  0
  2 11  1  0  0  0
  3  4  1  0  0  0
  3 21  1  0  0  0
  4  5  1  0  0  0
  4 12  1  0  0  0
  5  6  1  0  0  0
  5 14  2  0  0  0
  6  7  1  0  0  0
  6 11  2  0  0  0
  7  8  2  0  0  0
  7 29  1  0  0  0
  8  9  1  0  0  0
  8 30  1  0  0  0
  9 10  2  0  0  0
 10 11  1  0  0  0
 10 31  1  0  0  0
 12 13  2  0  0  0
 13 14  1  0  0  0
 13 32  1  0  0  0
 15 16  1  0  0  0
 15 19  1  0  0  0
 16 17  1  0  0  0
 16 33  1  0  0  0
 16 34  1  0  0  0
 17 18  1  0  0  0
 18 19  1  0  0  0
 18 20  2  0  0  0
 19 23  2  0  0  0
 20 21  1  0  0  0
 20 35  1  0  0  0
 21 22  2  0  0  0
 22 23  1  0  0  0
 22 36  1  0  0  0
 23 37  1  0  0  0
 24 25  1  0  0  0
 24 38  1  0  0  0
 24 39  1  0  0  0
 25 26  1  0  0  0
 25 40  1  0  0  0
 25 41  1  0  0  0
 26 27  1  0  0  0
 26 42  1  0  0  0
 26 43  1  0  0  0
 27 44  1  0  0  0
M  END
> <s_m_entry_id>
10498

> <s_m_entry_name>
dock_pv.567

> <s_m_Source_Path>
/home/csk/Desktop/cluster/DUD-E-result/met

> <s_m_Source_File>
dock_pv.maegz

> <i_m_Source_File_Index>
567

> <chembl_id>
CHEMBL3309997

> <chembl_pref_name>
None

> <i_lp_mmshare_version>
53161

> <i_f3d_flags>
0

> <r_lp_tautomer_probability>
1

> <s_lp_Force_Field>
OPLS_2005

> <r_lp_Energy>
41.288062

> <b_lp_Chiralities_Consistent>
1

> <s_lp_Variant>
CHEMBL3717_lig1822-1

> <s_i_glide_gridfile>
glide-grid_3lq8

> <i_i_glide_lignum>
2108

> <i_i_glide_rotatable_bonds>
6

> <r_i_docking_score>
-7.07428268400423

> <r_i_glide_ligand_efficiency>
-0.262010469777935

> <r_i_glide_ligand_efficiency_sa>
-0.78603140847026

> <r_i_glide_ligand_efficiency_ln>
-1.64677638017111

> <r_i_glide_gscore>
-7.07428268400423

> <r_i_glide_lipo>
-1.9063500265063

> <r_i_glide_hbond>
-0.486062448942588

> <r_i_glide_metal>
0

> <r_i_glide_rewards>
-2.36545117901463

> <r_i_glide_evdw>
-34.5058097839355

> <r_i_glide_ecoul>
-8.67763996124268

> <r_i_glide_erotb>
0.727543809328529

> <r_i_glide_esite>
-0.0170263554860667

> <r_i_glide_emodel>
-58.6273021255811

> <r_i_glide_energy>
-43.1834497451782

> <r_i_glide_einternal>
4.47706937789917

> <i_i_glide_confnum>
45

> <i_i_glide_posenum>
389

> <r_i_glide_eff_state_penalty>
0

> <s_user_duplicate_titles>
CHEMBL3717_lig1822

> <s_m_subgroup_title>
dock_pv

> <s_m_subgroupid>
dock_pv

> <b_m_subgroup_collapsed>
1

$$$$
CHEMBL3717_lig3966
                    3D
 Schrodinger Suite 2021-1.
 51 54  0  0  1  0            999 V2000
   -6.8745   -1.0602   31.6941 O   0  0  0  0  0  0
   -3.9291    5.6284   30.2080 O   0  0  0  0  0  0
    1.5057    4.3465   28.4499 O   0  0  0  0  0  0
   -4.5820    1.3682   30.7458 N   0  0  0  0  0  0
   -6.1300    3.2005   30.2112 N   0  0  0  0  0  0
   -3.2941    1.1633   31.0080 N   0  0  0  0  0  0
   -2.6742    2.3774   30.9184 N   0  0  0  0  0  0
   -6.3649    0.2301   31.8081 N   0  0  0  0  0  0
   -6.1559   -1.8076   30.7635 N   0  0  0  0  0  0
   -1.8049    4.9391   30.6080 N   0  0  0  0  0  0
   -4.3253   -1.4131   29.4080 N   0  0  0  0  0  0
   -1.2038    6.0969   30.2333 N   0  0  0  0  0  0
   -4.8481    2.7189   30.4906 C   0  0  0  0  0  0
   -3.5516    3.3240   30.6080 C   0  0  0  0  0  0
   -5.3992    0.2675   30.9283 C   0  0  0  0  0  0
   -3.1374    4.7250   30.4700 C   0  0  0  0  0  0
   -5.2432   -0.9836   30.3186 C   0  0  0  0  0  0
   -6.5467    4.6012   30.2621 C   0  0  0  0  0  0
   -7.3258    2.4263   29.8494 C   0  0  0  0  0  0
   -8.0720    4.6326   30.2456 C   0  0  0  0  0  0
   -8.4044    3.4165   29.4080 C   0  0  0  0  0  0
    0.9981    5.0422   30.6875 C   0  0  0  0  0  0
    0.0750    6.0923   30.2152 C   0  0  0  0  0  0
    1.7235    4.2152   29.8072 C   0  0  0  0  0  0
    1.2192    4.9234   32.0622 C   0  0  0  0  0  0
    2.6381    3.2886   30.3384 C   0  0  0  0  0  0
    2.1360    4.0107   32.5669 C   0  0  0  0  0  0
    2.8221    3.1689   31.7075 C   0  0  0  0  0  0
    2.4637    3.8263   27.5356 C   0  0  0  0  0  0
    2.3060    2.3570   27.1739 C   0  0  0  0  0  0
   -1.1786    4.1812   30.8391 H   0  0  0  0  0  0
   -3.7919   -0.7743   28.8366 H   0  0  0  0  0  0
   -4.3187   -2.3764   29.1050 H   0  0  0  0  0  0
   -6.2030    5.0483   31.1957 H   0  0  0  0  0  0
   -6.1629    5.1569   29.4081 H   0  0  0  0  0  0
   -7.0957    1.7510   29.0240 H   0  0  0  0  0  0
   -7.7272    1.8712   30.6930 H   0  0  0  0  0  0
   -8.4745    4.5601   31.2573 H   0  0  0  0  0  0
   -8.4570    5.5557   29.8083 H   0  0  0  0  0  0
   -8.3541    3.6204   28.3382 H   0  0  0  0  0  0
   -9.4090    3.0437   29.6114 H   0  0  0  0  0  0
    0.5956    6.9625   29.8247 H   0  0  0  0  0  0
    0.7060    5.5571   32.7644 H   0  0  0  0  0  0
    3.2260    2.6462   29.7078 H   0  0  0  0  0  0
    2.3057    3.9571   33.6294 H   0  0  0  0  0  0
    3.5060    2.4320   32.0976 H   0  0  0  0  0  0
    2.3059    4.3570   26.6080 H   0  0  0  0  0  0
    3.4843    4.0556   27.8482 H   0  0  0  0  0  0
    3.1173    2.0204   26.5286 H   0  0  0  0  0  0
    2.3062    1.7239   28.0543 H   0  0  0  0  0  0
    1.3777    2.1829   26.6350 H   0  0  0  0  0  0
  1  8  1  0  0  0
  1  9  1  0  0  0
  2 16  2  0  0  0
  3 24  1  0  0  0
  3 29  1  0  0  0
  4  6  1  0  0  0
  4 13  1  0  0  0
  4 15  1  0  0  0
  5 13  1  0  0  0
  5 18  1  0  0  0
  5 19  1  0  0  0
  6  7  2  0  0  0
  7 14  1  0  0  0
  8 15  2  0  0  0
  9 17  2  0  0  0
 10 12  1  0  0  0
 10 16  1  0  0  0
 10 31  1  0  0  0
 11 17  1  0  0  0
 11 32  1  0  0  0
 11 33  1  0  0  0
 12 23  2  3  0  0
 13 14  2  0  0  0
 14 16  1  0  0  0
 15 17  1  0  0  0
 18 20  1  0  0  0
 18 34  1  0  0  0
 18 35  1  0  0  0
 19 21  1  0  0  0
 19 36  1  0  0  0
 19 37  1  0  0  0
 20 21  1  0  0  0
 20 38  1  0  0  0
 20 39  1  0  0  0
 21 40  1  0  0  0
 21 41  1  0  0  0
 22 23  1  0  0  0
 22 24  1  0  0  0
 22 25  2  0  0  0
 23 42  1  0  0  0
 24 26  2  0  0  0
 25 27  1  0  0  0
 25 43  1  0  0  0
 26 28  1  0  0  0
 26 44  1  0  0  0
 27 28  2  0  0  0
 27 45  1  0  0  0
 28 46  1  0  0  0
 29 30  1  0  0  0
 29 47  1  0  0  0
 29 48  1  0  0  0
 30 49  1  0  0  0
 30 50  1  0  0  0
 30 51  1  0  0  0
M  END
> <s_m_entry_id>
10499

> <s_m_entry_name>
dock_pv.568

> <s_m_Source_Path>
/home/csk/Desktop/cluster/DUD-E-result/met

> <s_m_Source_File>
dock_pv.maegz

> <i_m_Source_File_Index>
568

> <chembl_id>
CHEMBL1992732

> <chembl_pref_name>
None

> <i_lp_mmshare_version>
53161

> <i_f3d_flags>
0

> <r_lp_tautomer_probability>
1

> <s_lp_Force_Field>
OPLS_2005

> <r_lp_Energy>
59.522708

> <b_lp_Chiralities_Consistent>
1

> <s_lp_Variant>
CHEMBL3717_lig3966-2

> <s_i_glide_gridfile>
glide-grid_3lq8

> <i_i_glide_lignum>
5045

> <i_i_glide_rotatable_bonds>
8

> <r_i_docking_score>
-7.07344963075651

> <r_i_glide_ligand_efficiency>
-0.235781654358551

> <r_i_glide_ligand_efficiency_sa>
-0.732628419899861

> <r_i_glide_ligand_efficiency_ln>
-1.60716482751454

> <r_i_glide_gscore>
-7.07344963075651

> <r_i_glide_lipo>
-3.09371662341981

> <r_i_glide_hbond>
0

> <r_i_glide_metal>
0

> <r_i_glide_rewards>
-2.43478845661692

> <r_i_glide_evdw>
-41.284969329834

> <r_i_glide_ecoul>
-1.46669948101044

> <r_i_glide_erotb>
0.81508918547951

> <r_i_glide_esite>
-0.0757803475560243

> <r_i_glide_emodel>
-51.3851794278789

> <r_i_glide_energy>
-42.7516688108444

> <r_i_glide_einternal>
11.2650356292725

> <i_i_glide_confnum>
1

> <i_i_glide_posenum>
56

> <r_i_glide_eff_state_penalty>
0

> <s_user_duplicate_titles>
CHEMBL3717_lig3966

> <s_m_subgroup_title>
dock_pv

> <s_m_subgroupid>
dock_pv

> <b_m_subgroup_collapsed>
1

$$$$
CHEMBL3717_lig4117
                    3D
 Schrodinger Suite 2021-1.
 33 36  0  0  1  0            999 V2000
   -3.6844    7.1434   30.6084 O   0  0  0  0  0  0
   -7.9796    2.5956   29.9710 N   0  0  0  0  0  0
   -7.2787    4.8970   30.4011 N   0  0  0  0  0  0
   -6.1111    5.5389   30.6120 N   0  0  0  0  0  0
   -3.7844    4.8552   30.5991 N   0  0  0  0  0  0
    1.1648    5.6995   30.2578 N   0  0  0  0  0  0
   -5.6888    3.3426   30.2888 C   0  0  0  0  0  0
   -7.0799    3.5473   30.2085 C   0  0  0  0  0  0
   -5.1496    4.6414   30.5321 C   0  0  0  0  0  0
   -6.1453    0.9851   29.8534 C   0  0  0  0  0  0
   -7.5368    1.3181   29.7931 C   0  0  0  0  0  0
   -5.2246    2.0316   30.1069 C   0  0  0  0  0  0
   -3.1367    6.0376   30.6077 C   0  0  0  0  0  0
   -5.7426   -0.3574   29.6558 C   0  0  0  0  0  0
   -8.4792    0.2946   29.5355 C   0  0  0  0  0  0
   -1.6318    5.9306   30.5441 C   0  0  0  0  0  0
   -6.6978   -1.3413   29.4082 C   0  0  0  0  0  0
   -8.0522   -1.0190   29.3457 C   0  0  0  0  0  0
   -0.9453    4.7932   31.0085 C   0  0  0  0  0  0
   -0.8808    6.9502   29.9367 C   0  0  0  0  0  0
    0.4397    4.7214   30.8508 C   0  0  0  0  0  0
    0.4996    6.7912   29.8097 C   0  0  0  0  0  0
   -8.1507    5.4065   30.3666 H   0  0  0  0  0  0
   -3.2197    4.0231   30.5476 H   0  0  0  0  0  0
   -4.1693    1.8028   30.1498 H   0  0  0  0  0  0
   -4.6930   -0.6159   29.6862 H   0  0  0  0  0  0
   -9.5289    0.5428   29.4847 H   0  0  0  0  0  0
   -6.3820   -2.3630   29.2501 H   0  0  0  0  0  0
   -8.7748   -1.7982   29.1442 H   0  0  0  0  0  0
   -1.4600    3.9708   31.4847 H   0  0  0  0  0  0
   -1.3498    7.8471   29.5569 H   0  0  0  0  0  0
    0.9913    3.8602   31.2008 H   0  0  0  0  0  0
    1.1023    7.5618   29.3511 H   0  0  0  0  0  0
  1 13  2  0  0  0
  2  8  2  0  0  0
  2 11  1  0  0  0
  3  4  1  0  0  0
  3  8  1  0  0  0
  3 23  1  0  0  0
  4  9  2  0  0  0
  5  9  1  0  0  0
  5 13  1  0  0  0
  5 24  1  0  0  0
  6 21  2  0  0  0
  6 22  1  0  0  0
  7  8  1  0  0  0
  7  9  1  0  0  0
  7 12  2  0  0  0
 10 11  1  0  0  0
 10 12  1  0  0  0
 10 14  2  0  0  0
 11 15  2  0  0  0
 12 25  1  0  0  0
 13 16  1  0  0  0
 14 17  1  0  0  0
 14 26  1  0  0  0
 15 18  1  0  0  0
 15 27  1  0  0  0
 16 19  2  0  0  0
 16 20  1  0  0  0
 17 18  2  0  0  0
 17 28  1  0  0  0
 18 29  1  0  0  0
 19 21  1  0  0  0
 19 30  1  0  0  0
 20 22  2  0  0  0
 20 31  1  0  0  0
 21 32  1  0  0  0
 22 33  1  0  0  0
M  END
> <s_m_entry_id>
10500

> <s_m_entry_name>
dock_pv.569

> <s_m_Source_Path>
/home/csk/Desktop/cluster/DUD-E-result/met

> <s_m_Source_File>
dock_pv.maegz

> <i_m_Source_File_Index>
569

> <chembl_id>
CHEMBL1990415

> <chembl_pref_name>
None

> <i_lp_mmshare_version>
53161

> <i_f3d_flags>
0

> <r_lp_tautomer_probability>
1

> <s_lp_Force_Field>
OPLS_2005

> <r_lp_Energy>
23.137837

> <b_lp_Chiralities_Consistent>
1

> <s_lp_Variant>
CHEMBL3717_lig4117-1

> <s_i_glide_gridfile>
glide-grid_3lq8

> <i_i_glide_lignum>
5262

> <i_i_glide_rotatable_bonds>
3

> <r_i_docking_score>
-7.07264882805077

> <r_i_glide_ligand_efficiency>
-0.321484037638672

> <r_i_glide_ligand_efficiency_sa>
-0.900810916713306

> <r_i_glide_ligand_efficiency_ln>
-1.72881335470984

> <r_i_glide_gscore>
-7.07264882805077

> <r_i_glide_lipo>
-2.35177235735462

> <r_i_glide_hbond>
-0.32

> <r_i_glide_metal>
0

> <r_i_glide_rewards>
-2.6465038543862

> <r_i_glide_evdw>
-36.9482917785645

> <r_i_glide_ecoul>
-3.73068571090698

> <r_i_glide_erotb>
0.65264482925432

> <r_i_glide_esite>
0

> <r_i_glide_emodel>
-57.1304463107668

> <r_i_glide_energy>
-40.6789774894714

> <r_i_glide_einternal>
0.825527667999268

> <i_i_glide_confnum>
5

> <i_i_glide_posenum>
299

> <r_i_glide_eff_state_penalty>
0

> <s_user_duplicate_titles>
CHEMBL3717_lig4117

> <s_m_subgroup_title>
dock_pv

> <s_m_subgroupid>
dock_pv

> <b_m_subgroup_collapsed>
1

$$$$
CHEMBL3717_lig317
                    3D
 Schrodinger Suite 2021-1.
 34 37  0  0  1  0            999 V2000
   -2.9127    5.1498   30.7217 C   0  0  0  0  0  0
   -3.9880    6.0385   30.8408 C   0  0  0  0  0  0
   -5.3010    5.5582   30.7960 C   0  0  0  0  0  0
   -4.3487    3.3899   30.5166 N   0  0  0  0  0  0
   -5.4955    4.1873   30.6024 C   0  0  0  0  0  0
   -6.5961    3.4190   30.4479 N   0  0  0  0  0  0
   -6.1397    2.1295   30.2246 N   0  0  0  0  0  0
   -4.8205    2.1186   30.2835 C   0  0  0  0  0  0
   -3.9117    0.9246   30.0527 C   0  0  0  0  0  0
   -4.4352   -0.4081   30.5683 C   0  0  0  0  0  0
   -4.2275   -1.5523   29.7982 C   0  0  0  0  0  0
   -4.6683   -2.7863   30.2550 C   0  0  0  0  0  0
   -5.3087   -2.8793   31.4867 C   0  0  0  0  0  0
   -5.5262   -1.7444   32.2620 C   0  0  0  0  0  0
   -5.0796   -0.5069   31.8072 C   0  0  0  0  0  0
   -5.6939   -4.1088   31.9425 O   0  0  0  0  0  0
   -1.5080    5.6525   30.6080 C   0  0  0  0  0  0
   -0.1276    4.6492   31.0008 S   0  0  0  0  0  0
    0.9699    5.8644   30.4381 C   0  0  0  0  0  0
    0.3046    6.9861   29.9715 C   0  0  0  0  0  0
   -1.0818    6.8789   30.0965 C   0  0  0  0  0  0
   -3.0720    3.8027   30.6080 N   0  0  0  0  0  0
   -3.8154    7.0991   30.9445 H   0  0  0  0  0  0
   -6.1436    6.2327   30.8446 H   0  0  0  0  0  0
   -2.9478    1.0763   30.5410 H   0  0  0  0  0  0
   -3.6940    0.8471   28.9861 H   0  0  0  0  0  0
   -3.7263   -1.4925   28.8417 H   0  0  0  0  0  0
   -4.4933   -3.6662   29.6550 H   0  0  0  0  0  0
   -6.0214   -1.8218   33.2186 H   0  0  0  0  0  0
   -5.2402    0.3677   32.4204 H   0  0  0  0  0  0
   -5.1551   -4.7908   31.5123 H   0  0  0  0  0  0
    2.0350    5.6881   30.4673 H   0  0  0  0  0  0
    0.7948    7.8571   29.5625 H   0  0  0  0  0  0
   -1.7533    7.6601   29.7733 H   0  0  0  0  0  0
  1  2  1  0  0  0
  1 22  2  0  0  0
  1 17  1  0  0  0
  2  3  2  0  0  0
  2 23  1  0  0  0
  3  5  1  0  0  0
  3 24  1  0  0  0
  4  5  1  0  0  0
  4 22  1  0  0  0
  4  8  1  0  0  0
  5  6  2  0  0  0
  6  7  1  0  0  0
  7  8  2  0  0  0
  8  9  1  0  0  0
  9 10  1  0  0  0
  9 25  1  0  0  0
  9 26  1  0  0  0
 10 11  2  0  0  0
 10 15  1  0  0  0
 11 12  1  0  0  0
 11 27  1  0  0  0
 12 13  2  0  0  0
 12 28  1  0  0  0
 13 14  1  0  0  0
 13 16  1  0  0  0
 14 15  2  0  0  0
 14 29  1  0  0  0
 15 30  1  0  0  0
 16 31  1  0  0  0
 17 18  1  0  0  0
 17 21  2  0  0  0
 18 19  1  0  0  0
 19 20  2  0  0  0
 19 32  1  0  0  0
 20 21  1  0  0  0
 20 33  1  0  0  0
 21 34  1  0  0  0
M  END
> <s_m_entry_id>
10501

> <s_m_entry_name>
dock_pv.570

> <s_m_Source_Path>
/home/csk/Desktop/cluster/DUD-E-result/met

> <s_m_Source_File>
dock_pv.maegz

> <i_m_Source_File_Index>
570

> <chembl_id>
CHEMBL523386

> <chembl_pref_name>
None

> <i_lp_mmshare_version>
53161

> <i_f3d_flags>
0

> <r_lp_tautomer_probability>
0.999999999997365

> <s_lp_Force_Field>
OPLS_2005

> <r_lp_Energy>
12.020788

> <b_lp_Chiralities_Consistent>
1

> <s_lp_Variant>
CHEMBL3717_lig317-1

> <s_i_glide_gridfile>
glide-grid_3lq8

> <i_i_glide_lignum>
333

> <i_i_glide_rotatable_bonds>
4

> <r_i_docking_score>
-7.07064991243394

> <r_i_glide_ligand_efficiency>
-0.321393177837907

> <r_i_glide_ligand_efficiency_sa>
-0.90055632397825

> <r_i_glide_ligand_efficiency_ln>
-1.72832474682087

> <r_i_glide_gscore>
-7.07064991243394

> <r_i_glide_lipo>
-2.64373662852237

> <r_i_glide_hbond>
-0.16

> <r_i_glide_metal>
0

> <r_i_glide_rewards>
-2.58445017954172

> <r_i_glide_evdw>
-34.8083610534668

> <r_i_glide_ecoul>
-3.50496411323547

> <r_i_glide_erotb>
0.583699565288799

> <r_i_glide_esite>
0

> <r_i_glide_emodel>
-51.7951223452813

> <r_i_glide_energy>
-38.3133251667023

> <r_i_glide_einternal>
3.06842041015625

> <i_i_glide_confnum>
4

> <i_i_glide_posenum>
206

> <r_i_glide_eff_state_penalty>
0

> <s_user_duplicate_titles>
CHEMBL3717_lig317,486737

> <s_m_subgroup_title>
dock_pv

> <s_m_subgroupid>
dock_pv

> <b_m_subgroup_collapsed>
1

$$$$
CHEMBL3717_lig2877
                    3D
 Schrodinger Suite 2021-1.
 52 57  0  0  1  0            999 V2000
   -5.6398   -2.4372   32.7712 C   0  0  0  0  0  0
   -5.0734   -1.7677   31.6726 C   0  0  0  0  0  0
   -5.7712   -0.8351   30.9638 N   0  0  0  0  0  0
   -6.9093   -2.1931   33.2091 N   0  0  0  0  0  0
   -7.5828   -1.2613   32.5220 C   0  0  0  0  0  0
   -7.0035   -0.6016   31.4152 C   0  0  0  0  0  0
   -7.9727    0.2715   30.9522 N   0  0  0  0  0  0
   -9.0657    0.1761   31.7450 N   0  0  0  0  0  0
   -8.8426   -0.7823   32.7170 N   0  0  0  0  0  0
   -7.9404    1.2288   29.8391 C   0  0  2  0  0  0
   -7.5579    0.5128   28.5228 C   0  0  0  0  0  0
   -7.0882    2.4739   30.1242 C   0  0  0  0  0  0
   -7.7196    3.7112   30.2774 C   0  0  0  0  0  0
   -6.9868    4.8700   30.5144 C   0  0  0  0  0  0
   -5.6904    2.4013   30.2077 C   0  0  0  0  0  0
   -4.9169    3.5646   30.4472 C   0  0  0  0  0  0
   -5.5791    4.8128   30.6085 C   0  0  0  0  0  0
   -4.8921    5.9570   30.8525 N   0  0  0  0  0  0
   -3.5409    5.9117   30.8927 C   0  0  0  0  0  0
   -2.7834    4.7518   30.7080 C   0  0  0  0  0  0
   -3.4995    3.5561   30.5226 C   0  0  0  0  0  0
   -1.2848    4.7964   30.6782 C   0  0  0  0  0  0
   -3.6904   -2.0215   31.1907 C   0  0  0  0  0  0
   -0.5339    3.6632   31.0177 C   0  0  0  0  0  0
    0.8557    3.6771   30.9552 C   0  0  0  0  0  0
    1.5150    4.8281   30.5434 C   0  0  0  0  0  0
    0.7942    5.9691   30.2035 C   0  0  0  0  0  0
   -0.5971    5.9545   30.2715 C   0  0  0  0  0  0
    2.8644    4.8310   30.4684 F   0  0  0  0  0  0
   -2.6331   -2.2249   32.0899 C   0  0  0  0  0  0
   -1.3443   -2.4268   31.5937 C   0  0  0  0  0  0
   -1.0661   -2.4430   30.2673 N   0  0  0  0  0  0
   -2.0937   -2.2627   29.4001 C   0  0  0  0  0  0
   -3.4023   -2.0429   29.8173 C   0  0  0  0  0  0
   -5.0871   -3.1918   33.3087 H   0  0  0  0  0  0
   -8.9712    1.5611   29.6929 H   0  0  0  0  0  0
   -7.7312    1.1567   27.6606 H   0  0  0  0  0  0
   -6.5092    0.2155   28.4984 H   0  0  0  0  0  0
   -8.1529   -0.3892   28.3719 H   0  0  0  0  0  0
   -8.7952    3.7866   30.2033 H   0  0  0  0  0  0
   -7.4872    5.8234   30.6081 H   0  0  0  0  0  0
   -5.1753    1.4642   30.0701 H   0  0  0  0  0  0
   -3.0672    6.8640   31.0708 H   0  0  0  0  0  0
   -2.9899    2.6167   30.3708 H   0  0  0  0  0  0
   -1.0206    2.7570   31.3452 H   0  0  0  0  0  0
    1.4216    2.7949   31.2157 H   0  0  0  0  0  0
    1.3137    6.8584   29.8788 H   0  0  0  0  0  0
   -1.1311    6.8460   29.9802 H   0  0  0  0  0  0
   -2.8020   -2.2204   33.1539 H   0  0  0  0  0  0
   -0.5069   -2.5793   32.2600 H   0  0  0  0  0  0
   -1.8545   -2.2837   28.3471 H   0  0  0  0  0  0
   -4.1789   -1.8988   29.0791 H   0  0  0  0  0  0
  1  2  2  0  0  0
  1  4  1  0  0  0
  1 35  1  0  0  0
  2  3  1  0  0  0
  2 23  1  0  0  0
  3  6  2  0  0  0
  4  5  2  0  0  0
  5  6  1  0  0  0
  5  9  1  0  0  0
  6  7  1  0  0  0
  7  8  1  0  0  0
  7 10  1  0  0  0
  8  9  2  0  0  0
 10 11  1  0  0  0
 10 12  1  0  0  0
 10 36  1  0  0  0
 11 37  1  0  0  0
 11 38  1  0  0  0
 11 39  1  0  0  0
 12 13  2  0  0  0
 12 15  1  0  0  0
 13 14  1  0  0  0
 13 40  1  0  0  0
 14 17  2  0  0  0
 14 41  1  0  0  0
 15 16  2  0  0  0
 15 42  1  0  0  0
 16 17  1  0  0  0
 16 21  1  0  0  0
 17 18  1  0  0  0
 18 19  2  0  0  0
 19 20  1  0  0  0
 19 43  1  0  0  0
 20 21  2  0  0  0
 20 22  1  0  0  0
 21 44  1  0  0  0
 22 24  2  0  0  0
 22 28  1  0  0  0
 23 30  2  0  0  0
 23 34  1  0  0  0
 24 25  1  0  0  0
 24 45  1  0  0  0
 25 26  2  0  0  0
 25 46  1  0  0  0
 26 27  1  0  0  0
 26 29  1  0  0  0
 27 28  2  0  0  0
 27 47  1  0  0  0
 28 48  1  0  0  0
 30 31  1  0  0  0
 30 49  1  0  0  0
 31 32  2  0  0  0
 31 50  1  0  0  0
 32 33  1  0  0  0
 33 34  2  0  0  0
 33 51  1  0  0  0
 34 52  1  0  0  0
M  END
> <s_m_entry_id>
10502

> <s_m_entry_name>
dock_pv.571

> <s_m_Source_Path>
/home/csk/Desktop/cluster/DUD-E-result/met

> <s_m_Source_File>
dock_pv.maegz

> <i_m_Source_File_Index>
571

> <chembl_id>
CHEMBL4072776

> <chembl_pref_name>
None

> <i_lp_mmshare_version>
53161

> <i_f3d_flags>
0

> <r_lp_tautomer_probability>
1

> <s_lp_Force_Field>
OPLS_2005

> <r_lp_Energy>
37.643444

> <b_lp_Chiralities_Consistent>
1

> <s_lp_Variant>
CHEMBL3717_lig2877-1

> <s_i_glide_gridfile>
glide-grid_3lq8

> <i_i_glide_lignum>
3526

> <i_i_glide_rotatable_bonds>
4

> <r_i_docking_score>
-7.06671315166392

> <r_i_glide_ligand_efficiency>
-0.207844504460704

> <r_i_glide_ligand_efficiency_sa>
-0.673335508690091

> <r_i_glide_ligand_efficiency_ln>
-1.56123514979249

> <r_i_glide_gscore>
-7.06671315166392

> <r_i_glide_lipo>
-3.85081173345728

> <r_i_glide_hbond>
0

> <r_i_glide_metal>
0

> <r_i_glide_rewards>
-1.64666705975635

> <r_i_glide_evdw>
-43.9721984863281

> <r_i_glide_ecoul>
1.64943218231201

> <r_i_glide_erotb>
0.400044344487106

> <r_i_glide_esite>
-0.0180836059677922

> <r_i_glide_emodel>
-58.4981449666228

> <r_i_glide_energy>
-42.3227663040161

> <r_i_glide_einternal>
2.69136905670166

> <i_i_glide_confnum>
4

> <i_i_glide_posenum>
55

> <r_i_glide_eff_state_penalty>
0

> <s_user_duplicate_titles>
CHEMBL3717_lig2877

> <s_m_subgroup_title>
dock_pv

> <s_m_subgroupid>
dock_pv

> <b_m_subgroup_collapsed>
1

$$$$
CHEMBL3717_lig914
                    3D
 Schrodinger Suite 2021-1.
 34 36  0  0  1  0            999 V2000
   -8.2378    3.4265   30.0429 C   0  0  0  0  0  0
   -8.1592    2.0279   30.0203 C   0  0  0  0  0  0
   -6.9882    1.3472   30.1517 N   0  0  0  0  0  0
   -5.8713    2.0976   30.3079 C   0  0  0  0  0  0
   -5.8487    3.4741   30.3371 C   0  0  0  0  0  0
   -7.0590    4.1633   30.2066 C   0  0  0  0  0  0
   -4.4680    3.8759   30.4885 C   0  0  0  0  0  0
   -3.7051    2.6097   30.5975 C   0  0  0  0  0  0
   -4.5956    1.6159   30.4553 N   0  0  0  0  0  0
   -2.4944    2.4851   30.7788 O   0  0  0  0  0  0
   -4.0352    5.0818   30.5286 N   0  0  0  0  0  0
   -2.6972    5.3007   30.5400 N   0  0  0  0  0  0
   -2.2064    6.5479   30.4190 C   0  0  0  0  0  0
   -0.7345    6.7642   30.0086 C   0  0  0  0  0  0
    0.2513    5.6032   30.1774 C   0  0  0  0  0  0
    0.3918    4.9617   31.4063 C   0  0  0  0  0  0
    1.3889    4.0126   31.6009 C   0  0  0  0  0  0
    2.2373    3.6814   30.5495 C   0  0  0  0  0  0
    2.0933    4.2929   29.3075 C   0  0  0  0  0  0
    1.1059    5.2592   29.1273 C   0  0  0  0  0  0
    3.2246    2.7570   30.7466 O   0  0  0  0  0  0
   -2.8941    7.5549   30.6079 O   0  0  0  0  0  0
   -9.1873    3.9292   29.9278 H   0  0  0  0  0  0
   -9.0486    1.4280   29.8918 H   0  0  0  0  0  0
   -7.0932    5.2442   30.2088 H   0  0  0  0  0  0
   -4.3522    0.6373   30.4778 H   0  0  0  0  0  0
   -2.1180    4.4735   30.4639 H   0  0  0  0  0  0
   -0.3513    7.5919   30.6079 H   0  0  0  0  0  0
   -0.7317    7.1185   28.9782 H   0  0  0  0  0  0
   -0.2689    5.2176   32.2103 H   0  0  0  0  0  0
    1.5062    3.5569   32.5712 H   0  0  0  0  0  0
    2.7574    4.0356   28.4953 H   0  0  0  0  0  0
    1.0271    5.7642   28.1788 H   0  0  0  0  0  0
    3.1610    2.3368   31.6051 H   0  0  0  0  0  0
  1  2  1  0  0  0
  1  6  2  0  0  0
  1 23  1  0  0  0
  2  3  2  0  0  0
  2 24  1  0  0  0
  3  4  1  0  0  0
  4  5  2  0  0  0
  4  9  1  0  0  0
  5  6  1  0  0  0
  5  7  1  0  0  0
  6 25  1  0  0  0
  7  8  1  0  0  0
  7 11  2  0  0  0
  8  9  1  0  0  0
  8 10  2  0  0  0
  9 26  1  0  0  0
 11 12  1  0  0  0
 12 13  1  0  0  0
 12 27  1  0  0  0
 13 14  1  0  0  0
 13 22  2  0  0  0
 14 15  1  0  0  0
 14 28  1  0  0  0
 14 29  1  0  0  0
 15 16  2  0  0  0
 15 20  1  0  0  0
 16 17  1  0  0  0
 16 30  1  0  0  0
 17 18  2  0  0  0
 17 31  1  0  0  0
 18 19  1  0  0  0
 18 21  1  0  0  0
 19 20  2  0  0  0
 19 32  1  0  0  0
 20 33  1  0  0  0
 21 34  1  0  0  0
M  END
> <s_m_entry_id>
10503

> <s_m_entry_name>
dock_pv.572

> <s_m_Source_Path>
/home/csk/Desktop/cluster/DUD-E-result/met

> <s_m_Source_File>
dock_pv.maegz

> <i_m_Source_File_Index>
572

> <chembl_id>
CHEMBL1822564

> <chembl_pref_name>
None

> <i_lp_mmshare_version>
53161

> <i_f3d_flags>
0

> <r_lp_tautomer_probability>
0.999999999997365

> <s_lp_Force_Field>
OPLS_2005

> <r_lp_Energy>
32.43402

> <b_lp_Chiralities_Consistent>
1

> <s_lp_Variant>
CHEMBL3717_lig914-1

> <s_i_glide_gridfile>
glide-grid_3lq8

> <i_i_glide_lignum>
993

> <i_i_glide_rotatable_bonds>
5

> <r_i_docking_score>
-7.06310595129204

> <r_i_glide_ligand_efficiency>
-0.321050270513274

> <r_i_glide_ligand_efficiency_sa>
-0.89959548416885

> <r_i_glide_ligand_efficiency_ln>
-1.72648072754512

> <r_i_glide_gscore>
-7.06310595129204

> <r_i_glide_lipo>
-2.86411297065236

> <r_i_glide_hbond>
-0.32

> <r_i_glide_metal>
0

> <r_i_glide_rewards>
-2.5001089216545

> <r_i_glide_evdw>
-33.7043685913086

> <r_i_glide_ecoul>
-3.52229881286621

> <r_i_glide_erotb>
0.834679192510185

> <r_i_glide_esite>
0

> <r_i_glide_emodel>
-48.7408632334381

> <r_i_glide_energy>
-37.2266674041748

> <r_i_glide_einternal>
5.19432735443115

> <i_i_glide_confnum>
9

> <i_i_glide_posenum>
94

> <r_i_glide_eff_state_penalty>
0

> <s_user_duplicate_titles>
CHEMBL3717_lig914

> <s_m_subgroup_title>
dock_pv

> <s_m_subgroupid>
dock_pv

> <b_m_subgroup_collapsed>
1

$$$$
CHEMBL3717_lig2089
                    3D
 Schrodinger Suite 2021-1.
 47 51  0  0  1  0            999 V2000
   -0.8291    4.5931   30.6081 C   0  0  0  0  0  0
   -1.2511    5.9254   30.6081 C   0  0  0  0  0  0
   -2.6051    6.2638   30.6090 C   0  0  0  0  0  0
   -1.7940    3.5816   30.6106 C   0  0  0  0  0  0
   -3.1272    3.9070   30.6078 N   0  0  0  0  0  0
   -3.5641    5.2412   30.6091 C   0  0  0  0  0  0
   -4.9162    5.2724   30.6141 N   0  0  0  0  0  0
   -5.3388    3.9576   30.5987 N   0  0  0  0  0  0
   -4.2889    3.1620   30.5582 C   0  0  0  0  0  0
    0.6147    4.2665   30.5196 C   0  0  0  0  0  0
    1.1036    3.5573   29.4185 C   0  0  0  0  0  0
    2.4557    3.2439   29.3194 C   0  0  0  0  0  0
    3.3285    3.6416   30.3261 C   0  0  0  0  0  0
    2.8565    4.3566   31.4230 C   0  0  0  0  0  0
    1.5042    4.6756   31.5173 C   0  0  0  0  0  0
   -4.3578    1.6493   30.4712 C   0  0  0  0  0  0
   -5.1007    1.2939   29.3077 O   0  0  0  0  0  0
   -6.3179    0.6990   29.5428 C   0  0  0  0  0  0
   -7.4669    1.4885   29.5619 C   0  0  0  0  0  0
   -8.6992    0.8916   29.8045 C   0  0  0  0  0  0
   -8.8565   -0.4351   30.0181 N   0  0  0  0  0  0
   -6.4409   -0.7039   29.7606 C   0  0  0  0  0  0
   -7.7497   -1.2297   29.9940 C   0  0  0  0  0  0
   -7.9171   -2.6177   30.2038 C   0  0  0  0  0  0
   -6.8129   -3.4823   30.1808 C   0  0  0  0  0  0
   -5.5401   -2.9606   29.9528 C   0  0  0  0  0  0
   -5.3402   -1.5968   29.7448 C   0  0  0  0  0  0
   -6.8938   -4.8491   30.3588 O   0  0  0  0  0  0
   -8.1646   -5.4482   30.5941 C   0  0  0  0  0  0
   -2.9829    7.5579   30.6076 F   0  0  0  0  0  0
   -0.5178    6.7196   30.5886 H   0  0  0  0  0  0
   -1.5445    2.5329   30.5915 H   0  0  0  0  0  0
    0.4303    3.2402   28.6346 H   0  0  0  0  0  0
    2.8196    2.6863   28.4693 H   0  0  0  0  0  0
    4.3774    3.3915   30.2550 H   0  0  0  0  0  0
    3.5350    4.6665   32.2026 H   0  0  0  0  0  0
    1.1401    5.2270   32.3726 H   0  0  0  0  0  0
   -3.3830    1.1731   30.3907 H   0  0  0  0  0  0
   -4.7951    1.2499   31.3896 H   0  0  0  0  0  0
   -7.4000    2.5546   29.3982 H   0  0  0  0  0  0
   -9.5993    1.4896   29.8303 H   0  0  0  0  0  0
   -8.9179   -2.9888   30.3749 H   0  0  0  0  0  0
   -4.6948   -3.6359   29.9297 H   0  0  0  0  0  0
   -4.3460   -1.2158   29.5489 H   0  0  0  0  0  0
   -8.0372   -6.5243   30.7076 H   0  0  0  0  0  0
   -8.6189   -5.0711   31.5139 H   0  0  0  0  0  0
   -8.8512   -5.2822   29.7612 H   0  0  0  0  0  0
  1  2  1  0  0  0
  1  4  2  0  0  0
  1 10  1  0  0  0
  2  3  2  0  0  0
  2 31  1  0  0  0
  3  6  1  0  0  0
  3 30  1  0  0  0
  4  5  1  0  0  0
  4 32  1  0  0  0
  5  6  1  0  0  0
  5  9  1  0  0  0
  6  7  2  0  0  0
  7  8  1  0  0  0
  8  9  2  0  0  0
  9 16  1  0  0  0
 10 11  2  0  0  0
 10 15  1  0  0  0
 11 12  1  0  0  0
 11 33  1  0  0  0
 12 13  2  0  0  0
 12 34  1  0  0  0
 13 14  1  0  0  0
 13 35  1  0  0  0
 14 15  2  0  0  0
 14 36  1  0  0  0
 15 37  1  0  0  0
 16 17  1  0  0  0
 16 38  1  0  0  0
 16 39  1  0  0  0
 17 18  1  0  0  0
 18 19  2  0  0  0
 18 22  1  0  0  0
 19 20  1  0  0  0
 19 40  1  0  0  0
 20 21  2  0  0  0
 20 41  1  0  0  0
 21 23  1  0  0  0
 22 23  1  0  0  0
 22 27  2  0  0  0
 23 24  2  0  0  0
 24 25  1  0  0  0
 24 42  1  0  0  0
 25 26  2  0  0  0
 25 28  1  0  0  0
 26 27  1  0  0  0
 26 43  1  0  0  0
 27 44  1  0  0  0
 28 29  1  0  0  0
 29 45  1  0  0  0
 29 46  1  0  0  0
 29 47  1  0  0  0
M  END
> <s_m_entry_id>
10504

> <s_m_entry_name>
dock_pv.573

> <s_m_Source_Path>
/home/csk/Desktop/cluster/DUD-E-result/met

> <s_m_Source_File>
dock_pv.maegz

> <i_m_Source_File_Index>
573

> <chembl_id>
CHEMBL3414731

> <chembl_pref_name>
None

> <i_lp_mmshare_version>
53161

> <i_f3d_flags>
0

> <r_lp_tautomer_probability>
1

> <s_lp_Force_Field>
OPLS_2005

> <r_lp_Energy>
27.559058

> <b_lp_Chiralities_Consistent>
1

> <s_lp_Variant>
CHEMBL3717_lig2089-1

> <s_i_glide_gridfile>
glide-grid_3lq8

> <i_i_glide_lignum>
2385

> <i_i_glide_rotatable_bonds>
5

> <r_i_docking_score>
-7.05990685686977

> <r_i_glide_ligand_efficiency>
-0.235330228562326

> <r_i_glide_ligand_efficiency_sa>
-0.731225734993395

> <r_i_glide_ligand_efficiency_ln>
-1.60408776172713

> <r_i_glide_gscore>
-7.05990685686977

> <r_i_glide_lipo>
-3.0397922200152

> <r_i_glide_hbond>
0

> <r_i_glide_metal>
0

> <r_i_glide_rewards>
-2.30861046017219

> <r_i_glide_evdw>
-40.199047088623

> <r_i_glide_ecoul>
-1.27106559276581

> <r_i_glide_erotb>
0.489108016663643

> <r_i_glide_esite>
0

> <r_i_glide_emodel>
-52.0929056933038

> <r_i_glide_energy>
-41.4701126813889

> <r_i_glide_einternal>
11.8185024261475

> <i_i_glide_confnum>
9

> <i_i_glide_posenum>
114

> <r_i_glide_eff_state_penalty>
0

> <s_user_duplicate_titles>
CHEMBL3717_lig2089

> <s_m_subgroup_title>
dock_pv

> <s_m_subgroupid>
dock_pv

> <b_m_subgroup_collapsed>
1

$$$$
CHEMBL3717_lig4108
                    3D
 Schrodinger Suite 2021-1.
 31 34  0  0  1  0            999 V2000
    1.7438    5.4630   30.6090 Br  0  0  0  0  0  0
   -4.1446    5.7969   30.2092 N   0  0  0  0  0  0
   -8.1525    4.1610   30.1345 N   0  0  0  0  0  0
   -0.9155    4.5147   30.7448 N   0  0  0  0  0  0
   -2.0611    7.0703   30.1534 N   0  0  0  0  0  0
   -5.8851    4.0436   30.2847 C   0  0  0  0  0  0
   -4.4927    4.4725   30.3793 C   0  0  0  0  0  0
   -6.4161    2.7043   30.2077 C   0  0  0  0  0  0
   -2.2384    4.6781   30.6081 C   0  0  0  0  0  0
   -2.7823    5.9571   30.3224 C   0  0  0  0  0  0
   -7.8421    2.8132   30.1061 C   0  0  0  0  0  0
   -3.3257    3.7513   30.6080 C   0  0  0  0  0  0
   -6.9870    4.8794   30.2173 C   0  0  0  0  0  0
   -5.8453    1.4187   30.1869 C   0  0  0  0  0  0
   -8.6708    1.6883   29.9917 C   0  0  0  0  0  0
   -0.1492    5.6197   30.5203 C   0  0  0  0  0  0
   -0.7172    6.8610   30.2079 C   0  0  0  0  0  0
   -6.6713    0.3036   30.0671 C   0  0  0  0  0  0
   -8.0517    0.4394   29.9735 C   0  0  0  0  0  0
   -9.4820    4.7396   30.0154 C   0  0  0  0  0  0
   -4.8338    6.4966   29.9717 H   0  0  0  0  0  0
   -3.2582    2.6887   30.7719 H   0  0  0  0  0  0
   -7.0427    5.9584   30.2086 H   0  0  0  0  0  0
   -4.7788    1.2788   30.2431 H   0  0  0  0  0  0
   -9.7447    1.7749   29.9122 H   0  0  0  0  0  0
   -0.0934    7.7257   30.0323 H   0  0  0  0  0  0
   -6.2331   -0.6846   30.0398 H   0  0  0  0  0  0
   -8.6586   -0.4500   29.8797 H   0  0  0  0  0  0
   -9.4508    5.8135   30.2082 H   0  0  0  0  0  0
   -9.8611    4.5657   29.0075 H   0  0  0  0  0  0
  -10.1491    4.2695   30.7384 H   0  0  0  0  0  0
  1 16  1  0  0  0
  2  7  1  0  0  0
  2 10  1  0  0  0
  2 21  1  0  0  0
  3 11  1  0  0  0
  3 13  1  0  0  0
  3 20  1  0  0  0
  4  9  2  0  0  0
  4 16  1  0  0  0
  5 10  2  0  0  0
  5 17  1  0  0  0
  6  7  1  0  0  0
  6  8  1  0  0  0
  6 13  2  0  0  0
  7 12  2  0  0  0
  8 11  1  0  0  0
  8 14  2  0  0  0
  9 10  1  0  0  0
  9 12  1  0  0  0
 11 15  2  0  0  0
 12 22  1  0  0  0
 13 23  1  0  0  0
 14 18  1  0  0  0
 14 24  1  0  0  0
 15 19  1  0  0  0
 15 25  1  0  0  0
 16 17  2  0  0  0
 17 26  1  0  0  0
 18 19  2  0  0  0
 18 27  1  0  0  0
 19 28  1  0  0  0
 20 29  1  0  0  0
 20 30  1  0  0  0
 20 31  1  0  0  0
M  END
> <s_m_entry_id>
10505

> <s_m_entry_name>
dock_pv.574

> <s_m_Source_Path>
/home/csk/Desktop/cluster/DUD-E-result/met

> <s_m_Source_File>
dock_pv.maegz

> <i_m_Source_File_Index>
574

> <chembl_id>
CHEMBL1978167

> <chembl_pref_name>
None

> <i_lp_mmshare_version>
53161

> <i_f3d_flags>
0

> <r_lp_tautomer_probability>
0.999999572927183

> <s_lp_Force_Field>
OPLS_2005

> <r_lp_Energy>
14.145785

> <b_lp_Chiralities_Consistent>
1

> <s_lp_Variant>
CHEMBL3717_lig4108-1

> <s_i_glide_gridfile>
glide-grid_3lq8

> <i_i_glide_lignum>
5246

> <i_i_glide_rotatable_bonds>
1

> <r_i_docking_score>
-7.0586746264717

> <r_i_glide_ligand_efficiency>
-0.352933731323585

> <r_i_glide_ligand_efficiency_sa>
-0.958009536838666

> <r_i_glide_ligand_efficiency_ln>
-1.76655344833536

> <r_i_glide_gscore>
-7.0586746264717

> <r_i_glide_lipo>
-2.37425636972266

> <r_i_glide_hbond>
-0.261084449222238

> <r_i_glide_metal>
0

> <r_i_glide_rewards>
-2.29696507829896

> <r_i_glide_evdw>
-31.449068069458

> <r_i_glide_ecoul>
-4.51081609725952

> <r_i_glide_erotb>
0.122707088833991

> <r_i_glide_esite>
0

> <r_i_glide_emodel>
-50.1065067541804

> <r_i_glide_energy>
-35.9598841667175

> <r_i_glide_einternal>
0.0127552505582571

> <i_i_glide_confnum>
1

> <i_i_glide_posenum>
309

> <r_i_glide_eff_state_penalty>
0

> <s_user_duplicate_titles>
CHEMBL3717_lig4108

> <s_m_subgroup_title>
dock_pv

> <s_m_subgroupid>
dock_pv

> <b_m_subgroup_collapsed>
1

$$$$
CHEMBL3717_lig3437
                    3D
 Schrodinger Suite 2021-1.
 42 45  0  0  1  0            999 V2000
   -5.6175   -3.6286   29.6770 F   0  0  0  0  0  0
   -3.1190    4.5865   30.5952 N   0  0  0  0  0  0
   -2.6108    6.7667   30.2084 N   0  0  0  0  0  0
   -3.3339    2.2058   30.6079 N   0  0  0  0  0  0
   -3.4153   -0.1280   30.6093 N   0  0  0  0  0  0
   -6.1282    2.4077   30.5764 N   0  0  0  0  0  0
    2.6675    2.7582   31.4554 N   0  0  0  0  0  0
   -1.7302    4.6992   30.7123 C   0  0  0  0  0  0
   -1.4630    6.0598   30.3926 C   0  0  0  0  0  0
   -3.9413    3.4258   30.6079 C   0  0  0  0  0  0
   -3.5533    5.8750   30.3318 C   0  0  0  0  0  0
   -0.6820    3.8059   30.9988 C   0  0  0  0  0  0
    0.6281    4.3061   30.9206 C   0  0  0  0  0  0
   -0.1464    6.5220   30.2771 C   0  0  0  0  0  0
   -4.1100    1.0889   30.5894 C   0  0  0  0  0  0
   -5.3437    3.5127   30.6078 C   0  0  0  0  0  0
    0.8857    5.6301   30.5545 C   0  0  0  0  0  0
   -4.0224   -1.4636   30.6452 C   0  0  1  0  0  0
   -5.5077    1.2018   30.5586 C   0  0  0  0  0  0
   -3.6487   -2.2940   29.4079 C   0  0  0  0  0  0
   -4.4714   -3.3587   29.0085 C   0  0  0  0  0  0
    1.7633    3.4418   31.2180 C   0  0  0  0  0  0
   -2.4811   -2.0425   28.6708 C   0  0  0  0  0  0
   -4.0930   -4.1802   27.9446 C   0  0  0  0  0  0
   -3.6389   -2.1967   31.9417 C   0  0  0  0  0  0
   -2.1594   -2.8011   27.5494 C   0  0  0  0  0  0
   -2.9641   -3.8754   27.1906 C   0  0  0  0  0  0
   -2.4199   -0.0849   30.7696 H   0  0  0  0  0  0
   -4.6005    6.0838   30.1758 H   0  0  0  0  0  0
   -0.8691    2.7689   31.2485 H   0  0  0  0  0  0
    0.0601    7.5473   30.0079 H   0  0  0  0  0  0
   -5.8781    4.4504   30.6273 H   0  0  0  0  0  0
    1.9063    5.9844   30.4907 H   0  0  0  0  0  0
   -5.1065   -1.3906   30.6356 H   0  0  0  0  0  0
   -6.1667    0.3495   30.5322 H   0  0  0  0  0  0
   -1.8182   -1.2432   28.9509 H   0  0  0  0  0  0
   -4.6921   -5.0391   27.6880 H   0  0  0  0  0  0
   -4.0847   -3.1904   31.9848 H   0  0  0  0  0  0
   -2.5587   -2.3197   32.0261 H   0  0  0  0  0  0
   -3.9845   -1.6470   32.8157 H   0  0  0  0  0  0
   -1.2947   -2.5521   26.9539 H   0  0  0  0  0  0
   -2.7052   -4.4709   26.3301 H   0  0  0  0  0  0
  1 21  1  0  0  0
  2  8  1  0  0  0
  2 10  1  0  0  0
  2 11  1  0  0  0
  3  9  1  0  0  0
  3 11  2  0  0  0
  4 10  2  0  0  0
  4 15  1  0  0  0
  5 15  1  0  0  0
  5 18  1  0  0  0
  5 28  1  0  0  0
  6 16  2  0  0  0
  6 19  1  0  0  0
  7 22  3  0  0  0
  8  9  1  0  0  0
  8 12  2  0  0  0
  9 14  2  0  0  0
 10 16  1  0  0  0
 11 29  1  0  0  0
 12 13  1  0  0  0
 12 30  1  0  0  0
 13 17  2  0  0  0
 13 22  1  0  0  0
 14 17  1  0  0  0
 14 31  1  0  0  0
 15 19  2  0  0  0
 16 32  1  0  0  0
 17 33  1  0  0  0
 18 20  1  0  0  0
 18 25  1  0  0  0
 18 34  1  0  0  0
 19 35  1  0  0  0
 20 21  1  0  0  0
 20 23  2  0  0  0
 21 24  2  0  0  0
 23 26  1  0  0  0
 23 36  1  0  0  0
 24 27  1  0  0  0
 24 37  1  0  0  0
 25 38  1  0  0  0
 25 39  1  0  0  0
 25 40  1  0  0  0
 26 27  2  0  0  0
 26 41  1  0  0  0
 27 42  1  0  0  0
M  END
> <s_m_entry_id>
10506

> <s_m_entry_name>
dock_pv.575

> <s_m_Source_Path>
/home/csk/Desktop/cluster/DUD-E-result/met

> <s_m_Source_File>
dock_pv.maegz

> <i_m_Source_File_Index>
575

> <chembl_id>
CHEMBL1977138

> <chembl_pref_name>
None

> <i_lp_mmshare_version>
53161

> <i_f3d_flags>
0

> <r_lp_tautomer_probability>
1

> <s_lp_Force_Field>
OPLS_2005

> <r_lp_Energy>
24.529843

> <b_lp_Chiralities_Consistent>
1

> <s_lp_Variant>
CHEMBL3717_lig3437-2

> <s_i_glide_gridfile>
glide-grid_3lq8

> <i_i_glide_lignum>
4231

> <i_i_glide_rotatable_bonds>
4

> <r_i_docking_score>
-7.05172529874308

> <r_i_glide_ligand_efficiency>
-0.261175011064559

> <r_i_glide_ligand_efficiency_sa>
-0.783525032332886

> <r_i_glide_ligand_efficiency_ln>
-1.64152539276988

> <r_i_glide_gscore>
-7.05172529874308

> <r_i_glide_lipo>
-2.23267304997308

> <r_i_glide_hbond>
-0.143946112100493

> <r_i_glide_metal>
0

> <r_i_glide_rewards>
-3.16446608334016

> <r_i_glide_evdw>
-36.2087898254395

> <r_i_glide_ecoul>
-1.58774757385254

> <r_i_glide_erotb>
0.596588072109596

> <r_i_glide_esite>
-0.0586264980890876

> <r_i_glide_emodel>
-48.6009159923522

> <r_i_glide_energy>
-37.796537399292

> <r_i_glide_einternal>
11.3510494232178

> <i_i_glide_confnum>
25

> <i_i_glide_posenum>
75

> <r_i_glide_eff_state_penalty>
0

> <s_user_duplicate_titles>
CHEMBL3717_lig3437

> <s_m_subgroup_title>
dock_pv

> <s_m_subgroupid>
dock_pv

> <b_m_subgroup_collapsed>
1

$$$$
CHEMBL3717_lig591
                    3D
 Schrodinger Suite 2021-1.
 35 38  0  0  1  0            999 V2000
   -2.6383    6.2008   30.6081 N   0  0  0  0  0  0
   -1.3146    5.8995   30.6079 C   0  0  0  0  0  0
   -0.8279    4.5895   30.6080 C   0  0  0  0  0  0
   -1.7683    3.5572   30.6252 C   0  0  0  0  0  0
   -3.1439    3.8247   30.6080 C   0  0  0  0  0  0
   -3.5306    5.1791   30.6110 C   0  0  0  0  0  0
   -4.0810    2.6543   30.4908 C   0  0  0  0  0  0
   -3.5438    1.3988   30.6086 O   0  0  0  0  0  0
   -5.3704    2.6849   30.2079 N   0  0  0  0  0  0
    0.6191    4.2833   30.5133 C   0  0  0  0  0  0
   -5.7156    1.3663   30.1047 C   0  0  0  0  0  0
   -4.5883    0.5691   30.3526 C   0  0  0  0  0  0
   -4.6069   -0.8278   30.3108 C   0  0  0  0  0  0
   -5.8343   -1.4194   29.9980 C   0  0  0  0  0  0
   -6.9749   -0.6469   29.7474 C   0  0  0  0  0  0
   -6.9394    0.7533   29.7980 C   0  0  0  0  0  0
   -4.8696    5.5573   30.6080 N   0  0  0  0  0  0
    1.5057    4.6914   31.5126 C   0  0  0  0  0  0
    2.8556    4.3570   31.4284 C   0  0  0  0  0  0
    3.3275    3.6348   30.3351 C   0  0  0  0  0  0
    2.4565    3.2353   29.3260 C   0  0  0  0  0  0
    1.1056    3.5571   29.4196 C   0  0  0  0  0  0
   -0.6358    6.7400   30.5787 H   0  0  0  0  0  0
   -1.4151    2.5377   30.6076 H   0  0  0  0  0  0
   -3.7199   -1.4156   30.4954 H   0  0  0  0  0  0
   -5.9030   -2.4974   29.9418 H   0  0  0  0  0  0
   -7.9022   -1.1468   29.5047 H   0  0  0  0  0  0
   -7.8225    1.3419   29.5993 H   0  0  0  0  0  0
   -5.5592    4.8250   30.5028 H   0  0  0  0  0  0
   -5.1068    6.5177   30.4065 H   0  0  0  0  0  0
    1.1451    5.2493   32.3648 H   0  0  0  0  0  0
    3.5352    4.6640   32.2084 H   0  0  0  0  0  0
    4.3757    3.3821   30.2666 H   0  0  0  0  0  0
    2.8222    2.6695   28.4810 H   0  0  0  0  0  0
    0.4323    3.2319   28.6386 H   0  0  0  0  0  0
  1  6  1  0  0  0
  1  2  2  0  0  0
  2  3  1  0  0  0
  2 23  1  0  0  0
  3 10  1  0  0  0
  3  4  2  0  0  0
  4  5  1  0  0  0
  4 24  1  0  0  0
  5  6  2  0  0  0
  5  7  1  0  0  0
  6 17  1  0  0  0
  7  8  1  0  0  0
  7  9  2  0  0  0
  8 12  1  0  0  0
  9 11  1  0  0  0
 10 18  2  0  0  0
 10 22  1  0  0  0
 11 12  2  0  0  0
 11 16  1  0  0  0
 12 13  1  0  0  0
 13 14  2  0  0  0
 13 25  1  0  0  0
 14 15  1  0  0  0
 14 26  1  0  0  0
 15 16  2  0  0  0
 15 27  1  0  0  0
 16 28  1  0  0  0
 17 29  1  0  0  0
 17 30  1  0  0  0
 18 19  1  0  0  0
 18 31  1  0  0  0
 19 20  2  0  0  0
 19 32  1  0  0  0
 20 21  1  0  0  0
 20 33  1  0  0  0
 21 22  2  0  0  0
 21 34  1  0  0  0
 22 35  1  0  0  0
M  END
> <s_m_entry_id>
10507

> <s_m_entry_name>
dock_pv.576

> <s_m_Source_Path>
/home/csk/Desktop/cluster/DUD-E-result/met

> <s_m_Source_File>
dock_pv.maegz

> <i_m_Source_File_Index>
576

> <chembl_id>
CHEMBL1170303

> <chembl_pref_name>
None

> <i_lp_mmshare_version>
53161

> <i_f3d_flags>
0

> <r_lp_tautomer_probability>
0.999999772200052

> <s_lp_Force_Field>
OPLS_2005

> <r_lp_Energy>
23.188949

> <b_lp_Chiralities_Consistent>
1

> <s_lp_Variant>
CHEMBL3717_lig591-1

> <s_i_glide_gridfile>
glide-grid_3lq8

> <i_i_glide_lignum>
645

> <i_i_glide_rotatable_bonds>
2

> <r_i_docking_score>
-7.04523480421337

> <r_i_glide_ligand_efficiency>
-0.320237945646062

> <r_i_glide_ligand_efficiency_sa>
-0.897319317943997

> <r_i_glide_ligand_efficiency_ln>
-1.72211236733316

> <r_i_glide_gscore>
-7.04523480421337

> <r_i_glide_lipo>
-3.20156031477334

> <r_i_glide_hbond>
-0.034171064645324

> <r_i_glide_metal>
0

> <r_i_glide_rewards>
-2.15012281818182

> <r_i_glide_evdw>
-35.9740295410156

> <r_i_glide_ecoul>
-2.00668931007385

> <r_i_glide_erotb>
0.44032426694898

> <r_i_glide_esite>
0

> <r_i_glide_emodel>
-51.9395655898653

> <r_i_glide_energy>
-37.9807188510895

> <r_i_glide_einternal>
2.021817445755

> <i_i_glide_confnum>
11

> <i_i_glide_posenum>
400

> <r_i_glide_eff_state_penalty>
0

> <s_user_duplicate_titles>
CHEMBL3717_lig591

> <s_m_subgroup_title>
dock_pv

> <s_m_subgroupid>
dock_pv

> <b_m_subgroup_collapsed>
1

$$$$
CHEMBL3717_lig314
                    3D
 Schrodinger Suite 2021-1.
 36 39  0  0  1  0            999 V2000
    0.6455    5.0390   30.4669 C   0  0  0  0  0  0
    0.5651    6.4136   30.2120 C   0  0  0  0  0  0
   -0.6758    7.0574   30.2075 C   0  0  0  0  0  0
   -1.6276    4.8986   30.6080 N   0  0  0  0  0  0
   -1.8205    6.2731   30.4097 C   0  0  0  0  0  0
   -3.1418    6.5519   30.4447 N   0  0  0  0  0  0
   -3.7907    5.3332   30.5673 N   0  0  0  0  0  0
   -2.8980    4.3601   30.6178 C   0  0  0  0  0  0
   -3.1497    2.8560   30.7301 C   0  0  0  0  0  0
   -4.4874    2.3090   30.2150 C   0  0  0  0  0  0
   -5.7050    2.8795   30.6073 C   0  0  0  0  0  0
   -6.9111    2.3107   30.2061 C   0  0  0  0  0  0
   -6.9046    1.1689   29.4097 C   0  0  0  0  0  0
   -5.7021    0.5958   29.0091 C   0  0  0  0  0  0
   -4.4962    1.1621   29.4125 C   0  0  0  0  0  0
   -8.0883    0.6127   29.0100 O   0  0  0  0  0  0
    1.9820    4.3717   30.5421 C   0  0  0  0  0  0
    2.2567    2.8891   31.4078 S   0  0  0  0  0  0
    3.9076    2.8048   31.0080 N   0  0  0  0  0  0
    4.2259    3.8771   30.3214 C   0  0  0  0  0  0
    3.1962    4.7551   30.0013 C   0  0  0  0  0  0
    5.6825    4.0369   29.9578 C   0  0  0  0  0  0
   -0.4472    4.2530   30.6740 N   0  0  0  0  0  0
    1.4628    6.9920   30.0537 H   0  0  0  0  0  0
   -0.7540    8.1223   30.0373 H   0  0  0  0  0  0
   -3.0232    2.5343   31.7628 H   0  0  0  0  0  0
   -2.3480    2.3365   30.2081 H   0  0  0  0  0  0
   -5.7295    3.7530   31.2408 H   0  0  0  0  0  0
   -7.8478    2.7508   30.5141 H   0  0  0  0  0  0
   -5.6971   -0.2937   28.3973 H   0  0  0  0  0  0
   -3.5747    0.6869   29.1117 H   0  0  0  0  0  0
   -7.9603   -0.1723   28.4733 H   0  0  0  0  0  0
    3.3456    5.6329   29.4072 H   0  0  0  0  0  0
    5.9527    5.0872   29.8421 H   0  0  0  0  0  0
    6.3576    3.6210   30.7048 H   0  0  0  0  0  0
    5.9081    3.5571   29.0089 H   0  0  0  0  0  0
  1  2  1  0  0  0
  1 23  2  0  0  0
  1 17  1  0  0  0
  2  3  2  0  0  0
  2 24  1  0  0  0
  3  5  1  0  0  0
  3 25  1  0  0  0
  4 23  1  0  0  0
  4  8  1  0  0  0
  4  5  1  0  0  0
  5  6  2  0  0  0
  6  7  1  0  0  0
  7  8  2  0  0  0
  8  9  1  0  0  0
  9 10  1  0  0  0
  9 26  1  0  0  0
  9 27  1  0  0  0
 10 11  2  0  0  0
 10 15  1  0  0  0
 11 12  1  0  0  0
 11 28  1  0  0  0
 12 13  2  0  0  0
 12 29  1  0  0  0
 13 14  1  0  0  0
 13 16  1  0  0  0
 14 15  2  0  0  0
 14 30  1  0  0  0
 15 31  1  0  0  0
 16 32  1  0  0  0
 17 18  1  0  0  0
 17 21  2  0  0  0
 18 19  1  0  0  0
 19 20  2  0  0  0
 20 21  1  0  0  0
 20 22  1  0  0  0
 21 33  1  0  0  0
 22 34  1  0  0  0
 22 35  1  0  0  0
 22 36  1  0  0  0
M  END
> <s_m_entry_id>
10508

> <s_m_entry_name>
dock_pv.577

> <s_m_Source_Path>
/home/csk/Desktop/cluster/DUD-E-result/met

> <s_m_Source_File>
dock_pv.maegz

> <i_m_Source_File_Index>
577

> <chembl_id>
CHEMBL523413

> <chembl_pref_name>
None

> <i_lp_mmshare_version>
53161

> <i_f3d_flags>
0

> <r_lp_tautomer_probability>
0.999999999997365

> <s_lp_Force_Field>
OPLS_2005

> <r_lp_Energy>
11.206543

> <b_lp_Chiralities_Consistent>
1

> <s_lp_Variant>
CHEMBL3717_lig314-1

> <s_i_glide_gridfile>
glide-grid_3lq8

> <i_i_glide_lignum>
330

> <i_i_glide_rotatable_bonds>
4

> <r_i_docking_score>
-7.04459575454737

> <r_i_glide_ligand_efficiency>
-0.306286771936842

> <r_i_glide_ligand_efficiency_sa>
-0.871038836166134

> <r_i_glide_ligand_efficiency_ln>
-1.70344713031224

> <r_i_glide_gscore>
-7.04459575454737

> <r_i_glide_lipo>
-3.21944986808711

> <r_i_glide_hbond>
0

> <r_i_glide_metal>
0

> <r_i_glide_rewards>
-2.14979163021691

> <r_i_glide_evdw>
-37.4830436706543

> <r_i_glide_ecoul>
-2.25373578071594

> <r_i_glide_erotb>
0.536858294396755

> <r_i_glide_esite>
0

> <r_i_glide_emodel>
-54.5721757730995

> <r_i_glide_energy>
-39.7367794513702

> <r_i_glide_einternal>
1.68658030033112

> <i_i_glide_confnum>
2

> <i_i_glide_posenum>
11

> <r_i_glide_eff_state_penalty>
0

> <s_user_duplicate_titles>
CHEMBL3717_lig314,486797

> <s_m_subgroup_title>
dock_pv

> <s_m_subgroupid>
dock_pv

> <b_m_subgroup_collapsed>
1

$$$$
CHEMBL3717_lig3038
                    3D
 Schrodinger Suite 2021-1.
 44 47  0  0  1  0            999 V2000
   -5.4424    0.4533   29.6210 N   0  0  0  0  0  0
   -6.7693    0.7548   29.5826 C   0  0  0  0  0  0
   -7.3249    1.9713   29.8105 N   0  0  0  0  0  0
   -4.5785    1.4555   29.9136 C   0  0  0  0  0  0
   -5.0371    2.7571   30.1770 C   0  0  0  0  0  0
   -6.4367    2.9279   30.1084 C   0  0  0  0  0  0
   -6.6615    4.2719   30.3319 N   0  0  0  0  0  0
   -5.5043    4.9203   30.5922 N   0  0  0  0  0  0
   -4.5112    4.0616   30.4755 C   0  0  0  0  0  0
   -7.6916   -0.2481   29.2659 N   0  0  0  0  0  0
   -7.2755   -1.6199   29.0036 C   0  0  0  0  0  0
   -7.9223    5.0150   30.2934 C   0  0  0  0  0  0
   -8.8052    4.7570   31.5189 C   0  0  0  0  0  0
   -9.2656    3.4494   31.5125 O   0  0  0  0  0  0
   -9.0753    2.8536   32.7752 C   0  0  0  0  0  0
   -8.5237    3.9840   33.6362 C   0  0  0  0  0  0
   -8.0929    4.9449   32.6995 O   0  0  0  0  0  0
   -3.0776    4.4804   30.6301 C   0  0  0  0  0  0
   -2.6958    5.8200   30.4925 C   0  0  0  0  0  0
   -1.3541    6.1834   30.5985 C   0  0  0  0  0  0
   -0.3709    5.2242   30.8387 C   0  0  0  0  0  0
   -0.7562    3.8891   31.0085 C   0  0  0  0  0  0
   -2.0945    3.5265   30.9151 C   0  0  0  0  0  0
    0.9380    5.6646   30.8948 O   0  0  0  0  0  0
    1.9788    4.7055   31.0694 C   0  0  0  0  0  0
   -3.5323    1.1961   29.8983 H   0  0  0  0  0  0
   -8.6719   -0.0108   29.2675 H   0  0  0  0  0  0
   -8.1251   -2.2225   28.6819 H   0  0  0  0  0  0
   -6.5232   -1.6427   28.2144 H   0  0  0  0  0  0
   -6.8495   -2.0748   29.8987 H   0  0  0  0  0  0
   -8.4695    4.7381   29.3909 H   0  0  0  0  0  0
   -7.7173    6.0843   30.2100 H   0  0  0  0  0  0
   -9.6831    5.4094   31.5180 H   0  0  0  0  0  0
   -8.3528    2.0398   32.7025 H   0  0  0  0  0  0
  -10.0203    2.4967   33.1842 H   0  0  0  0  0  0
   -7.6748    3.6133   34.2078 H   0  0  0  0  0  0
   -9.2633    4.4035   34.3195 H   0  0  0  0  0  0
   -3.4361    6.5786   30.2846 H   0  0  0  0  0  0
   -1.0683    7.2176   30.4727 H   0  0  0  0  0  0
   -0.0317    3.1185   31.2190 H   0  0  0  0  0  0
   -2.3517    2.4944   31.0802 H   0  0  0  0  0  0
    2.9506    5.1925   31.0136 H   0  0  0  0  0  0
    1.9100    4.2192   32.0438 H   0  0  0  0  0  0
    1.9587    3.9441   30.2877 H   0  0  0  0  0  0
  1  2  2  0  0  0
  1  4  1  0  0  0
  2  3  1  0  0  0
  2 10  1  0  0  0
  3  6  2  0  0  0
  4  5  2  0  0  0
  4 26  1  0  0  0
  5  6  1  0  0  0
  5  9  1  0  0  0
  6  7  1  0  0  0
  7  8  1  0  0  0
  7 12  1  0  0  0
  8  9  2  0  0  0
  9 18  1  0  0  0
 10 11  1  0  0  0
 10 27  1  0  0  0
 11 28  1  0  0  0
 11 29  1  0  0  0
 11 30  1  0  0  0
 12 13  1  0  0  0
 12 31  1  0  0  0
 12 32  1  0  0  0
 13 14  1  0  0  0
 13 17  1  0  0  0
 13 33  1  0  0  0
 14 15  1  0  0  0
 15 16  1  0  0  0
 15 34  1  0  0  0
 15 35  1  0  0  0
 16 17  1  0  0  0
 16 36  1  0  0  0
 16 37  1  0  0  0
 18 19  2  0  0  0
 18 23  1  0  0  0
 19 20  1  0  0  0
 19 38  1  0  0  0
 20 21  2  0  0  0
 20 39  1  0  0  0
 21 22  1  0  0  0
 21 24  1  0  0  0
 22 23  2  0  0  0
 22 40  1  0  0  0
 23 41  1  0  0  0
 24 25  1  0  0  0
 25 42  1  0  0  0
 25 43  1  0  0  0
 25 44  1  0  0  0
M  END
> <s_m_entry_id>
10509

> <s_m_entry_name>
dock_pv.578

> <s_m_Source_Path>
/home/csk/Desktop/cluster/DUD-E-result/met

> <s_m_Source_File>
dock_pv.maegz

> <i_m_Source_File_Index>
578

> <chembl_id>
CHEMBL4209569

> <chembl_pref_name>
None

> <i_lp_mmshare_version>
53161

> <i_f3d_flags>
0

> <r_lp_tautomer_probability>
1

> <s_lp_Force_Field>
OPLS_2005

> <r_lp_Energy>
11.968785

> <b_lp_Chiralities_Consistent>
1

> <s_lp_Variant>
CHEMBL3717_lig3038-1

> <s_i_glide_gridfile>
glide-grid_3lq8

> <i_i_glide_lignum>
3751

> <i_i_glide_rotatable_bonds>
5

> <r_i_docking_score>
-7.04274571051443

> <r_i_glide_ligand_efficiency>
-0.281709828420577

> <r_i_glide_ligand_efficiency_sa>
-0.823724534446848

> <r_i_glide_ligand_efficiency_ln>
-1.66934178744985

> <r_i_glide_gscore>
-7.04274571051443

> <r_i_glide_lipo>
-2.81662184031246

> <r_i_glide_hbond>
-0.32

> <r_i_glide_metal>
0

> <r_i_glide_rewards>
-2.12881563152979

> <r_i_glide_evdw>
-34.6657867431641

> <r_i_glide_ecoul>
-3.34804534912109

> <r_i_glide_erotb>
0.487833561881647

> <r_i_glide_esite>
-0.0296456610274509

> <r_i_glide_emodel>
-51.6048979075503

> <r_i_glide_energy>
-38.0138320922852

> <r_i_glide_einternal>
2.76204752922058

> <i_i_glide_confnum>
2

> <i_i_glide_posenum>
9

> <r_i_glide_eff_state_penalty>
0

> <s_user_duplicate_titles>
CHEMBL3717_lig3038

> <s_m_subgroup_title>
dock_pv

> <s_m_subgroupid>
dock_pv

> <b_m_subgroup_collapsed>
1

$$$$
CHEMBL3717_lig4200
                    3D
 Schrodinger Suite 2021-1.
 41 43  0  0  1  0            999 V2000
   -2.9979   -1.2866   31.8120 S   0  0  0  0  0  0
   -6.5456    0.9372   29.8491 O   0  0  0  0  0  0
   -4.0419   -2.0761   32.4715 O   0  0  0  0  0  0
   -2.0935   -0.4394   32.5962 O   0  0  0  0  0  0
   -7.2417    4.3287   31.0024 N   0  0  0  0  0  0
    1.5059    5.7211   30.4228 N   0  0  0  0  0  0
   -3.7627   -0.2572   30.6142 N   0  0  2  0  0  0
   -3.4953    4.8047   30.6079 C   0  0  0  0  0  0
   -4.8456    4.1726   30.6057 C   0  0  0  0  0  0
   -1.0581    4.5954   30.7858 C   0  0  0  0  0  0
   -0.9218    5.9623   30.4038 C   0  0  0  0  0  0
   -2.3544    4.0423   30.8987 C   0  0  0  0  0  0
   -3.3390    6.1599   30.3050 C   0  0  0  0  0  0
   -5.0180    2.8371   30.2087 C   0  0  0  0  0  0
   -2.0788    6.7470   30.2079 C   0  0  0  0  0  0
   -6.2889    2.2438   30.2095 C   0  0  0  0  0  0
   -5.9988    4.8770   30.9776 C   0  0  0  0  0  0
    0.1154    3.8306   31.0087 C   0  0  0  0  0  0
    0.3880    6.4562   30.2306 C   0  0  0  0  0  0
   -7.3624    3.0304   30.6290 C   0  0  0  0  0  0
    1.3561    4.4349   30.8143 C   0  0  0  0  0  0
   -5.6336    0.2320   29.0035 C   0  0  0  0  0  0
   -4.8303   -0.8340   29.7703 C   0  0  0  0  0  0
   -1.9475   -2.4416   30.7673 C   0  0  0  0  0  0
   -3.0895    0.3042   30.0872 H   0  0  0  0  0  0
   -2.4401    3.0013   31.1725 H   0  0  0  0  0  0
   -4.2090    6.7611   30.0884 H   0  0  0  0  0  0
   -4.1611    2.2625   29.8976 H   0  0  0  0  0  0
   -1.9734    7.7875   29.9330 H   0  0  0  0  0  0
   -5.9463    5.9114   31.2844 H   0  0  0  0  0  0
    0.0406    2.7975   31.3119 H   0  0  0  0  0  0
    0.5394    7.4813   29.9273 H   0  0  0  0  0  0
   -8.3587    2.6178   30.6635 H   0  0  0  0  0  0
    2.2670    3.8747   30.9670 H   0  0  0  0  0  0
   -4.9809    0.8810   28.4184 H   0  0  0  0  0  0
   -6.2377   -0.2793   28.2534 H   0  0  0  0  0  0
   -4.3119   -1.4379   29.0196 H   0  0  0  0  0  0
   -5.4662   -1.5387   30.3119 H   0  0  0  0  0  0
   -1.3659   -3.0768   31.4332 H   0  0  0  0  0  0
   -1.2833   -1.8464   30.1435 H   0  0  0  0  0  0
   -2.6027   -3.0549   30.1483 H   0  0  0  0  0  0
  1  3  2  0  0  0
  1  4  2  0  0  0
  1  7  1  0  0  0
  1 24  1  0  0  0
  2 16  1  0  0  0
  2 22  1  0  0  0
  5 17  2  0  0  0
  5 20  1  0  0  0
  6 19  2  0  0  0
  6 21  1  0  0  0
  7 23  1  0  0  0
  7 25  1  0  0  0
  8  9  1  0  0  0
  8 12  1  0  0  0
  8 13  2  0  0  0
  9 14  2  0  0  0
  9 17  1  0  0  0
 10 11  1  0  0  0
 10 12  2  0  0  0
 10 18  1  0  0  0
 11 15  2  0  0  0
 11 19  1  0  0  0
 12 26  1  0  0  0
 13 15  1  0  0  0
 13 27  1  0  0  0
 14 16  1  0  0  0
 14 28  1  0  0  0
 15 29  1  0  0  0
 16 20  2  0  0  0
 17 30  1  0  0  0
 18 21  2  0  0  0
 18 31  1  0  0  0
 19 32  1  0  0  0
 20 33  1  0  0  0
 21 34  1  0  0  0
 22 23  1  0  0  0
 22 35  1  0  0  0
 22 36  1  0  0  0
 23 37  1  0  0  0
 23 38  1  0  0  0
 24 39  1  0  0  0
 24 40  1  0  0  0
 24 41  1  0  0  0
M  END
> <s_m_entry_id>
10510

> <s_m_entry_name>
dock_pv.579

> <s_m_Source_Path>
/home/csk/Desktop/cluster/DUD-E-result/met

> <s_m_Source_File>
dock_pv.maegz

> <i_m_Source_File_Index>
579

> <chembl_id>
CHEMBL1964804

> <chembl_pref_name>
None

> <i_lp_mmshare_version>
53161

> <i_f3d_flags>
0

> <r_lp_tautomer_probability>
1

> <s_lp_Force_Field>
OPLS_2005

> <r_lp_Energy>
18.467482

> <b_lp_Chiralities_Consistent>
1

> <s_lp_Variant>
CHEMBL3717_lig4200-1

> <s_i_glide_gridfile>
glide-grid_3lq8

> <i_i_glide_lignum>
5393

> <i_i_glide_rotatable_bonds>
6

> <r_i_docking_score>
-7.03947340843446

> <r_i_glide_ligand_efficiency>
-0.293311392018102

> <r_i_glide_ligand_efficiency_sa>
-0.846056457312481

> <r_i_glide_ligand_efficiency_ln>
-1.68486900702479

> <r_i_glide_gscore>
-7.03947340843446

> <r_i_glide_lipo>
-3.70958036164833

> <r_i_glide_hbond>
0

> <r_i_glide_metal>
0

> <r_i_glide_rewards>
-1.89530785000314

> <r_i_glide_evdw>
-40.3920860290527

> <r_i_glide_ecoul>
-1.35197257995605

> <r_i_glide_erotb>
0.804521141251023

> <r_i_glide_esite>
-0.0167061495879714

> <r_i_glide_emodel>
-56.1311295609926

> <r_i_glide_energy>
-41.7440586090088

> <r_i_glide_einternal>
8.13154792785645

> <i_i_glide_confnum>
110

> <i_i_glide_posenum>
281

> <r_i_glide_eff_state_penalty>
0

> <s_user_duplicate_titles>
CHEMBL3717_lig4200

> <s_m_subgroup_title>
dock_pv

> <s_m_subgroupid>
dock_pv

> <b_m_subgroup_collapsed>
1

$$$$
CHEMBL3717_lig1383
                    3D
 Schrodinger Suite 2021-1.
 49 52  0  0  1  0            999 V2000
   -4.4637    4.1050   30.6080 C   0  0  0  0  0  0
   -5.5259    5.0296   30.5526 C   0  0  0  0  0  0
   -6.8146    4.6204   30.4241 N   0  0  0  0  0  0
   -7.0924    3.2943   30.3913 C   0  0  0  0  0  0
   -6.1133    2.3086   30.4703 C   0  0  0  0  0  0
   -4.7857    2.7409   30.5750 C   0  0  0  0  0  0
   -6.5162    0.9858   30.4594 O   0  0  0  0  0  0
   -5.5504   -0.0694   30.3630 C   0  0  2  0  0  0
   -4.8189   -0.0477   29.0080 C   0  0  0  0  0  0
   -6.2305   -1.4339   30.5795 C   0  0  0  0  0  0
   -5.6459   -2.3883   31.4410 C   0  0  0  0  0  0
   -6.2315   -3.6427   31.6047 C   0  0  0  0  0  0
   -7.3968   -3.9723   30.9226 C   0  0  0  0  0  0
   -7.9835   -3.0494   30.0639 C   0  0  0  0  0  0
   -7.4094   -1.7869   29.8816 C   0  0  0  0  0  0
   -8.1811   -0.7100   28.7603 Cl  0  0  0  0  0  0
   -4.1784   -2.0878   32.3132 Cl  0  0  0  0  0  0
   -9.1115   -3.3950   29.4000 F   0  0  0  0  0  0
   -3.0097    4.4774   30.7398 C   0  0  0  0  0  0
   -5.2101    6.3545   30.6080 O   0  0  0  0  0  0
   -2.5090    5.6657   30.4974 N   0  0  0  0  0  0
   -1.1568    5.5005   30.5655 C   0  0  0  0  0  0
   -0.8175    4.1899   30.9627 C   0  0  0  0  0  0
   -2.0329    3.5763   31.1128 N   0  0  0  0  0  0
   -0.1538    6.3999   30.2080 C   0  0  0  0  0  0
    1.1575    5.9361   30.2242 C   0  0  0  0  0  0
    1.5038    4.6423   30.6532 C   0  0  0  0  0  0
    0.5026    3.7564   31.0761 C   0  0  0  0  0  0
    2.9413    4.1673   30.6552 C   0  0  0  0  0  0
    3.7687    4.7570   29.7754 N   0  0  0  0  0  0
    3.3030    3.2606   31.4078 O   0  0  0  0  0  0
    5.1795    4.4246   29.6296 C   0  0  0  0  0  0
   -5.8286    6.8498   30.0571 H   0  0  0  0  0  0
   -8.1337    3.0208   30.3030 H   0  0  0  0  0  0
   -3.9932    2.0169   30.6523 H   0  0  0  0  0  0
   -4.8306    0.0905   31.1628 H   0  0  0  0  0  0
   -4.1840   -0.9269   28.8913 H   0  0  0  0  0  0
   -5.5525   -0.0430   28.2080 H   0  0  0  0  0  0
   -4.1835    0.8208   28.8547 H   0  0  0  0  0  0
   -5.7676   -4.3732   32.2523 H   0  0  0  0  0  0
   -7.8401   -4.9488   31.0498 H   0  0  0  0  0  0
   -2.2248    2.6177   31.3585 H   0  0  0  0  0  0
   -0.3929    7.3973   29.8663 H   0  0  0  0  0  0
    1.9060    6.6154   29.8750 H   0  0  0  0  0  0
    0.7444    2.7570   31.4027 H   0  0  0  0  0  0
    3.3885    5.4333   29.1322 H   0  0  0  0  0  0
    5.6161    4.9851   28.8027 H   0  0  0  0  0  0
    5.3064    3.3611   29.4248 H   0  0  0  0  0  0
    5.7297    4.6724   30.5381 H   0  0  0  0  0  0
  1  6  2  0  0  0
  1 19  1  0  0  0
  1  2  1  0  0  0
  2 20  1  0  0  0
  2  3  2  0  0  0
  3  4  1  0  0  0
  4 34  1  0  0  0
  4  5  2  0  0  0
  5  6  1  0  0  0
  5  7  1  0  0  0
  6 35  1  0  0  0
  7  8  1  0  0  0
  8  9  1  0  0  0
  8 10  1  0  0  0
  8 36  1  0  0  0
  9 37  1  0  0  0
  9 38  1  0  0  0
  9 39  1  0  0  0
 10 11  2  0  0  0
 10 15  1  0  0  0
 11 12  1  0  0  0
 11 17  1  0  0  0
 12 13  2  0  0  0
 12 40  1  0  0  0
 13 14  1  0  0  0
 13 41  1  0  0  0
 14 15  2  0  0  0
 14 18  1  0  0  0
 15 16  1  0  0  0
 19 21  2  0  0  0
 19 24  1  0  0  0
 20 33  1  0  0  0
 21 22  1  0  0  0
 22 23  2  0  0  0
 22 25  1  0  0  0
 23 24  1  0  0  0
 23 28  1  0  0  0
 24 42  1  0  0  0
 25 26  2  0  0  0
 25 43  1  0  0  0
 26 27  1  0  0  0
 26 44  1  0  0  0
 27 28  2  0  0  0
 27 29  1  0  0  0
 28 45  1  0  0  0
 29 30  1  0  0  0
 29 31  2  0  0  0
 30 32  1  0  0  0
 30 46  1  0  0  0
 32 47  1  0  0  0
 32 48  1  0  0  0
 32 49  1  0  0  0
M  END
> <s_m_entry_id>
10511

> <s_m_entry_name>
dock_pv.580

> <s_m_Source_Path>
/home/csk/Desktop/cluster/DUD-E-result/met

> <s_m_Source_File>
dock_pv.maegz

> <i_m_Source_File_Index>
580

> <chembl_id>
CHEMBL2376645

> <chembl_pref_name>
None

> <i_lp_mmshare_version>
53161

> <i_f3d_flags>
0

> <r_lp_tautomer_probability>
0.2648

> <s_lp_Force_Field>
OPLS_2005

> <r_lp_Energy>
28.486697

> <b_lp_Chiralities_Consistent>
1

> <s_lp_Variant>
CHEMBL3717_lig1383-2

> <s_i_glide_gridfile>
glide-grid_3lq8

> <i_i_glide_lignum>
1578

> <i_i_glide_rotatable_bonds>
7

> <r_i_docking_score>
-7.03941791772112

> <r_i_glide_ligand_efficiency>
-0.219981809928785

> <r_i_glide_ligand_efficiency_sa>
-0.698398712182822

> <r_i_glide_ligand_efficiency_ln>
-1.57631755906297

> <r_i_glide_gscore>
-7.03941791772112

> <r_i_glide_lipo>
-2.93745957615564

> <r_i_glide_hbond>
-0.240609311099145

> <r_i_glide_metal>
0

> <r_i_glide_rewards>
-1.39501737977894

> <r_i_glide_evdw>
-40.1161308288574

> <r_i_glide_ecoul>
-6.0568151473999

> <r_i_glide_erotb>
0.447997162865457

> <r_i_glide_esite>
0

> <r_i_glide_emodel>
-61.2343616649083

> <r_i_glide_energy>
-46.1729459762573

> <r_i_glide_einternal>
5.42031288146973

> <i_i_glide_confnum>
5

> <i_i_glide_posenum>
102

> <r_i_glide_eff_state_penalty>
0

> <s_user_duplicate_titles>
CHEMBL3717_lig1383

> <s_m_subgroup_title>
dock_pv

> <s_m_subgroupid>
dock_pv

> <b_m_subgroup_collapsed>
1

$$$$
CHEMBL3717_lig3865
                    3D
 Schrodinger Suite 2021-1.
 38 41  0  0  1  0            999 V2000
   -4.0100    7.1570   30.6080 Cl  0  0  0  0  0  0
   -5.9592    2.6259   30.0026 O   0  0  0  0  0  0
    2.4771    4.6219   31.8541 N   0  0  0  0  0  0
    3.8551    3.9782   29.9790 N   0  0  0  0  0  0
   -3.8552    4.5086   30.5653 N   0  0  0  0  0  0
   -3.8006    2.0790   30.5169 N   0  0  0  0  0  0
    0.4128    4.4504   30.9549 C   0  0  0  0  0  0
    1.3910    4.0352   29.9850 C   0  0  0  0  0  0
   -1.0628    4.4853   30.8127 C   0  0  0  0  0  0
    2.6770    4.1977   30.5691 C   0  0  0  0  0  0
    1.1381    4.8250   32.0646 C   0  0  0  0  0  0
   -1.7837    3.2955   30.7423 C   0  0  0  0  0  0
   -3.1712    3.3300   30.6080 C   0  0  0  0  0  0
   -1.7603    5.6928   30.7706 C   0  0  0  0  0  0
    1.3576    3.5510   28.6746 C   0  0  0  0  0  0
   -3.1512    5.6667   30.6487 C   0  0  0  0  0  0
   -5.0810    1.7867   30.2080 C   0  0  0  0  0  0
    2.5667    3.3101   28.0194 C   0  0  0  0  0  0
    3.7649    3.5570   28.6911 C   0  0  0  0  0  0
   -5.4033    0.3099   30.1689 C   0  0  0  0  0  0
   -6.6985   -0.1236   30.4849 C   0  0  0  0  0  0
   -4.4319   -0.6443   29.8171 C   0  0  0  0  0  0
   -7.0121   -1.4804   30.4720 C   0  0  0  0  0  0
   -4.7466   -2.0007   29.8080 C   0  0  0  0  0  0
   -6.0338   -2.4131   30.1386 C   0  0  0  0  0  0
    3.1827    4.8330   32.5436 H   0  0  0  0  0  0
   -3.1982    1.2857   30.6630 H   0  0  0  0  0  0
    0.8015    5.2161   33.0080 H   0  0  0  0  0  0
   -1.2678    2.3570   30.7814 H   0  0  0  0  0  0
   -1.2307    6.6321   30.8263 H   0  0  0  0  0  0
    0.4080    3.3612   28.2080 H   0  0  0  0  0  0
    2.5726    2.9326   27.0077 H   0  0  0  0  0  0
    4.7060    3.3764   28.1951 H   0  0  0  0  0  0
   -7.4682    0.5875   30.7520 H   0  0  0  0  0  0
   -3.4297   -0.3554   29.5351 H   0  0  0  0  0  0
   -8.0102   -1.8083   30.7228 H   0  0  0  0  0  0
   -3.9977   -2.7325   29.5390 H   0  0  0  0  0  0
   -6.2738   -3.4664   30.1305 H   0  0  0  0  0  0
  1 16  1  0  0  0
  2 17  2  0  0  0
  3 10  1  0  0  0
  3 11  1  0  0  0
  3 26  1  0  0  0
  4 10  2  0  0  0
  4 19  1  0  0  0
  5 13  2  0  0  0
  5 16  1  0  0  0
  6 13  1  0  0  0
  6 17  1  0  0  0
  6 27  1  0  0  0
  7  8  1  0  0  0
  7  9  1  0  0  0
  7 11  2  0  0  0
  8 10  1  0  0  0
  8 15  2  0  0  0
  9 12  2  0  0  0
  9 14  1  0  0  0
 11 28  1  0  0  0
 12 13  1  0  0  0
 12 29  1  0  0  0
 14 16  2  0  0  0
 14 30  1  0  0  0
 15 18  1  0  0  0
 15 31  1  0  0  0
 17 20  1  0  0  0
 18 19  2  0  0  0
 18 32  1  0  0  0
 19 33  1  0  0  0
 20 21  2  0  0  0
 20 22  1  0  0  0
 21 23  1  0  0  0
 21 34  1  0  0  0
 22 24  2  0  0  0
 22 35  1  0  0  0
 23 25  2  0  0  0
 23 36  1  0  0  0
 24 25  1  0  0  0
 24 37  1  0  0  0
 25 38  1  0  0  0
M  END
> <s_m_entry_id>
10513

> <s_m_entry_name>
dock_pv.582

> <s_m_Source_Path>
/home/csk/Desktop/cluster/DUD-E-result/met

> <s_m_Source_File>
dock_pv.maegz

> <i_m_Source_File_Index>
582

> <chembl_id>
CHEMBL1993413

> <chembl_pref_name>
None

> <i_lp_mmshare_version>
53161

> <i_f3d_flags>
0

> <r_lp_tautomer_probability>
0.999998432528457

> <s_lp_Force_Field>
OPLS_2005

> <r_lp_Energy>
17.675166

> <b_lp_Chiralities_Consistent>
1

> <s_lp_Variant>
CHEMBL3717_lig3865-1

> <s_i_glide_gridfile>
glide-grid_3lq8

> <i_i_glide_lignum>
4905

> <i_i_glide_rotatable_bonds>
4

> <r_i_docking_score>
-7.03355542325901

> <r_i_glide_ligand_efficiency>
-0.281342216930361

> <r_i_glide_ligand_efficiency_sa>
-0.822649631929837

> <r_i_glide_ligand_efficiency_ln>
-1.66716341395963

> <r_i_glide_gscore>
-7.03355542325901

> <r_i_glide_lipo>
-3.18808492761797

> <r_i_glide_hbond>
0

> <r_i_glide_metal>
0

> <r_i_glide_rewards>
-2.40401617452022

> <r_i_glide_evdw>
-38.447566986084

> <r_i_glide_ecoul>
-0.967698633670807

> <r_i_glide_erotb>
0.626078823233991

> <r_i_glide_esite>
0

> <r_i_glide_emodel>
-53.0587934019086

> <r_i_glide_energy>
-39.4152656197548

> <r_i_glide_einternal>
4.51672029495239

> <i_i_glide_confnum>
9

> <i_i_glide_posenum>
136

> <r_i_glide_eff_state_penalty>
0

> <s_user_duplicate_titles>
CHEMBL3717_lig3865

> <s_m_subgroup_title>
dock_pv

> <s_m_subgroupid>
dock_pv

> <b_m_subgroup_collapsed>
1

$$$$
CHEMBL3717_lig1862
                    3D
 Schrodinger Suite 2021-1.
 35 39  0  0  1  0            999 V2000
    0.5487    4.8807   30.4510 C   0  0  0  0  0  0
    0.3593    6.2533   30.2136 C   0  0  0  0  0  0
   -0.8760    6.8357   30.2077 N   0  0  0  0  0  0
   -0.4951    4.0283   30.6577 N   0  0  0  0  0  0
   -1.6934    4.6172   30.6080 C   0  0  0  0  0  0
   -1.9024    6.0019   30.4219 C   0  0  0  0  0  0
   -3.2395    6.2598   30.4726 N   0  0  0  0  0  0
   -3.8800    5.0406   30.6084 N   0  0  0  0  0  0
   -2.9526    4.0537   30.6205 N   0  0  0  0  0  0
    1.8942    4.2451   30.5101 C   0  0  0  0  0  0
    3.0904    4.6908   29.9758 C   0  0  0  0  0  0
    4.0409    3.7628   30.2932 N   0  0  0  0  0  0
    3.5406    2.7546   31.0079 N   0  0  0  0  0  0
    2.2643    3.0351   31.1215 C   0  0  0  0  0  0
   -3.2755    2.6334   30.7714 C   0  0  0  0  0  0
   -4.6258    2.1500   30.2651 C   0  0  0  0  0  0
    5.4644    3.8203   30.0215 C   0  0  0  0  0  0
   -4.6910    0.6007   29.4077 S   0  0  0  0  0  0
   -5.9001    2.6953   30.4180 C   0  0  0  0  0  0
   -6.9061    1.9025   29.8082 C   0  0  0  0  0  0
   -6.4115    0.7576   29.2156 C   0  0  0  0  0  0
   -7.5535    0.1207   28.6502 C   0  0  0  0  0  0
   -8.6399    0.8191   28.8844 N   0  0  0  0  0  0
   -8.2548    1.9070   29.5977 N   0  0  0  0  0  0
    1.1972    6.9135   30.0524 H   0  0  0  0  0  0
    3.3527    5.5585   29.4046 H   0  0  0  0  0  0
    1.5961    2.3707   31.6485 H   0  0  0  0  0  0
   -3.1090    2.3568   31.8079 H   0  0  0  0  0  0
   -2.4943    2.1021   30.2309 H   0  0  0  0  0  0
    5.6442    4.3967   29.1126 H   0  0  0  0  0  0
    5.9703    4.2998   30.8600 H   0  0  0  0  0  0
    5.8579    2.8135   29.8822 H   0  0  0  0  0  0
   -6.1038    3.6193   30.9372 H   0  0  0  0  0  0
   -7.5981   -0.8032   28.0913 H   0  0  0  0  0  0
   -8.9396    2.5913   29.8842 H   0  0  0  0  0  0
  1  2  1  0  0  0
  1  4  2  0  0  0
  1 10  1  0  0  0
  2  3  2  0  0  0
  2 25  1  0  0  0
  3  6  1  0  0  0
  4  5  1  0  0  0
  5  6  2  0  0  0
  5  9  1  0  0  0
  6  7  1  0  0  0
  7  8  2  0  0  0
  8  9  1  0  0  0
  9 15  1  0  0  0
 10 11  2  0  0  0
 10 14  1  0  0  0
 11 12  1  0  0  0
 11 26  1  0  0  0
 12 13  1  0  0  0
 12 17  1  0  0  0
 13 14  2  0  0  0
 14 27  1  0  0  0
 15 16  1  0  0  0
 15 28  1  0  0  0
 15 29  1  0  0  0
 16 18  1  0  0  0
 16 19  2  0  0  0
 17 30  1  0  0  0
 17 31  1  0  0  0
 17 32  1  0  0  0
 18 21  1  0  0  0
 19 20  1  0  0  0
 19 33  1  0  0  0
 20 21  2  0  0  0
 20 24  1  0  0  0
 21 22  1  0  0  0
 22 23  2  0  0  0
 22 34  1  0  0  0
 23 24  1  0  0  0
 24 35  1  0  0  0
M  END
> <s_m_entry_id>
10514

> <s_m_entry_name>
dock_pv.583

> <s_m_Source_Path>
/home/csk/Desktop/cluster/DUD-E-result/met

> <s_m_Source_File>
dock_pv.maegz

> <i_m_Source_File_Index>
583

> <chembl_id>
CHEMBL3334541

> <chembl_pref_name>
None

> <i_lp_mmshare_version>
53161

> <i_f3d_flags>
0

> <r_lp_tautomer_probability>
0.7198

> <s_lp_Force_Field>
OPLS_2005

> <r_lp_Energy>
51.481045

> <b_lp_Chiralities_Consistent>
1

> <s_lp_Variant>
CHEMBL3717_lig1862-1

> <s_i_glide_gridfile>
glide-grid_3lq8

> <i_i_glide_lignum>
2149

> <i_i_glide_rotatable_bonds>
3

> <r_i_docking_score>
-7.03299085952534

> <r_i_glide_ligand_efficiency>
-0.293041285813556

> <r_i_glide_ligand_efficiency_sa>
-0.845277336198418

> <r_i_glide_ligand_efficiency_ln>
-1.68331743560605

> <r_i_glide_gscore>
-7.03299085952534

> <r_i_glide_lipo>
-2.47144117449506

> <r_i_glide_hbond>
0

> <r_i_glide_metal>
0

> <r_i_glide_rewards>
-2.73158673561427

> <r_i_glide_evdw>
-42.3839454650879

> <r_i_glide_ecoul>
-1.39266955852509

> <r_i_glide_erotb>
0.498134757617135

> <r_i_glide_esite>
0

> <r_i_glide_emodel>
-58.9005993216169

> <r_i_glide_energy>
-43.776615023613

> <r_i_glide_einternal>
5.24515151977539

> <i_i_glide_confnum>
2

> <i_i_glide_posenum>
117

> <r_i_glide_eff_state_penalty>
0

> <s_user_duplicate_titles>
CHEMBL3717_lig1862

> <s_m_subgroup_title>
dock_pv

> <s_m_subgroupid>
dock_pv

> <b_m_subgroup_collapsed>
1

$$$$
CHEMBL3717_lig429
                    3D
 Schrodinger Suite 2021-1.
 59 62  0  0  1  0            999 V2000
   -3.4924    2.5526   30.6080 C   0  0  0  0  0  0
   -4.4855    3.4952   30.3042 C   0  0  0  0  0  0
   -4.2844    4.8348   30.2081 N   0  0  0  0  0  0
   -2.1804    3.0205   30.8148 C   0  0  0  0  0  0
   -1.9400    4.3844   30.6080 C   0  0  0  0  0  0
   -3.0267    5.2638   30.3286 C   0  0  0  0  0  0
   -2.4918    6.5774   30.2080 C   0  0  0  0  0  0
   -1.1229    6.4508   30.2378 C   0  0  0  0  0  0
   -0.7855    5.1653   30.6036 N   0  0  0  0  0  0
    0.8389    4.7147   30.9608 S   0  0  0  0  0  0
    1.8266    4.1019   29.6020 C   0  0  0  0  0  0
    1.4580    5.9570   31.4079 O   0  0  0  0  0  0
    0.7044    3.5462   31.8080 O   0  0  0  0  0  0
    1.1749    3.4622   28.5648 C   0  0  0  0  0  0
    1.9039    2.8779   27.5244 C   0  0  0  0  0  0
    3.2773    2.9394   27.5064 C   0  0  0  0  0  0
    3.9442    3.5572   28.5493 C   0  0  0  0  0  0
    3.2452    4.0757   29.6442 C   0  0  0  0  0  0
    4.0441    4.4482   30.8310 N   0  3  0  0  0  0
    3.5333    4.3569   31.9394 O   0  0  0  0  0  0
    5.2224    4.7566   30.6620 O   0  5  0  0  0  0
   -3.8112    1.1972   30.7106 N   0  0  0  0  0  0
   -4.7257    0.5258   29.7634 C   0  0  0  0  0  0
   -5.4841   -0.7198   30.2993 C   0  0  0  0  0  0
   -4.6247   -1.5252   31.1918 N   0  0  0  0  0  0
   -3.1926   -1.2221   31.2647 C   0  0  0  0  0  0
   -3.1181    0.2720   31.6306 C   0  0  0  0  0  0
   -5.1691   -2.4160   32.1351 C   0  0  0  0  0  0
   -4.5248   -3.0001   33.0111 O   0  0  0  0  0  0
   -6.5201   -2.5648   31.9659 O   0  0  0  0  0  0
   -7.3756   -3.3749   32.7874 C   0  0  0  0  0  0
   -6.9763   -4.8693   32.7272 C   0  0  0  0  0  0
   -8.7725   -3.1974   32.1609 C   0  0  0  0  0  0
   -7.4016   -2.8594   34.2466 C   0  0  0  0  0  0
   -5.5142    3.1886   30.1835 H   0  0  0  0  0  0
   -1.3685    2.3572   31.0468 H   0  0  0  0  0  0
   -3.0233    7.4936   30.0434 H   0  0  0  0  0  0
   -0.3548    7.2094   30.1494 H   0  0  0  0  0  0
    0.1002    3.3713   28.6026 H   0  0  0  0  0  0
    1.3935    2.3575   26.7278 H   0  0  0  0  0  0
    3.8248    2.4843   26.6953 H   0  0  0  0  0  0
    5.0254    3.5570   28.5388 H   0  0  0  0  0  0
   -5.4212    1.2189   29.2923 H   0  0  0  0  0  0
   -4.0589    0.1655   28.9771 H   0  0  0  0  0  0
   -5.9067   -1.3241   29.4954 H   0  0  0  0  0  0
   -6.3227   -0.3516   30.8921 H   0  0  0  0  0  0
   -2.6657   -1.8295   32.0027 H   0  0  0  0  0  0
   -2.7040   -1.3932   30.3047 H   0  0  0  0  0  0
   -3.6305    0.3569   32.5902 H   0  0  0  0  0  0
   -2.0940    0.5583   31.8177 H   0  0  0  0  0  0
   -7.7135   -5.4995   33.2252 H   0  0  0  0  0  0
   -6.0152   -5.0587   33.2048 H   0  0  0  0  0  0
   -6.8910   -5.2125   31.6956 H   0  0  0  0  0  0
   -9.0802   -2.1510   32.1672 H   0  0  0  0  0  0
   -8.7870   -3.5273   31.1211 H   0  0  0  0  0  0
   -9.5310   -3.7669   32.6987 H   0  0  0  0  0  0
   -7.6496   -1.7978   34.2851 H   0  0  0  0  0  0
   -8.1414   -3.3918   34.8439 H   0  0  0  0  0  0
   -6.4391   -2.9810   34.7429 H   0  0  0  0  0  0
  1  4  1  0  0  0
  1 22  1  0  0  0
  1  2  2  0  0  0
  2  3  1  0  0  0
  2 35  1  0  0  0
  3  6  2  0  0  0
  4  5  2  0  0  0
  4 36  1  0  0  0
  5  9  1  0  0  0
  5  6  1  0  0  0
  6  7  1  0  0  0
  7  8  2  0  0  0
  7 37  1  0  0  0
  8  9  1  0  0  0
  8 38  1  0  0  0
  9 10  1  0  0  0
 10 11  1  0  0  0
 10 12  2  0  0  0
 10 13  2  0  0  0
 11 18  1  0  0  0
 11 14  2  0  0  0
 14 15  1  0  0  0
 14 39  1  0  0  0
 15 16  2  0  0  0
 15 40  1  0  0  0
 16 17  1  0  0  0
 16 41  1  0  0  0
 17 18  2  0  0  0
 17 42  1  0  0  0
 18 19  1  0  0  0
 19 20  2  0  0  0
 19 21  1  0  0  0
 22 23  1  0  0  0
 22 27  1  0  0  0
 23 24  1  0  0  0
 23 43  1  0  0  0
 23 44  1  0  0  0
 24 25  1  0  0  0
 24 45  1  0  0  0
 24 46  1  0  0  0
 25 26  1  0  0  0
 25 28  1  0  0  0
 26 27  1  0  0  0
 26 47  1  0  0  0
 26 48  1  0  0  0
 27 49  1  0  0  0
 27 50  1  0  0  0
 28 29  2  0  0  0
 28 30  1  0  0  0
 30 31  1  0  0  0
 31 32  1  0  0  0
 31 33  1  0  0  0
 31 34  1  0  0  0
 32 51  1  0  0  0
 32 52  1  0  0  0
 32 53  1  0  0  0
 33 54  1  0  0  0
 33 55  1  0  0  0
 33 56  1  0  0  0
 34 57  1  0  0  0
 34 58  1  0  0  0
 34 59  1  0  0  0
M  CHG  2  19   1  21  -1
M  END
> <s_m_entry_id>
10515

> <s_m_entry_name>
dock_pv.584

> <s_m_Source_Path>
/home/csk/Desktop/cluster/DUD-E-result/met

> <s_m_Source_File>
dock_pv.maegz

> <i_m_Source_File_Index>
584

> <chembl_id>
CHEMBL556627

> <chembl_pref_name>
None

> <i_lp_mmshare_version>
53161

> <i_f3d_flags>
0

> <r_lp_tautomer_probability>
1

> <s_lp_Force_Field>
OPLS_2005

> <r_lp_Energy>
36.5588

> <b_lp_Chiralities_Consistent>
1

> <s_lp_Variant>
CHEMBL3717_lig429-1

> <s_i_glide_gridfile>
glide-grid_3lq8

> <i_i_glide_lignum>
453

> <i_i_glide_rotatable_bonds>
7

> <r_i_docking_score>
-7.03088130059957

> <r_i_glide_ligand_efficiency>
-0.206790626488223

> <r_i_glide_ligand_efficiency_sa>
-0.669921353177348

> <r_i_glide_ligand_efficiency_ln>
-1.55331888884299

> <r_i_glide_gscore>
-7.03088130059957

> <r_i_glide_lipo>
-3.73608473714198

> <r_i_glide_hbond>
0

> <r_i_glide_metal>
0

> <r_i_glide_rewards>
-1.63956331736296

> <r_i_glide_evdw>
-39.5278778076172

> <r_i_glide_ecoul>
-0.660560786724091

> <r_i_glide_erotb>
0.427666293352564

> <r_i_glide_esite>
-0.00742153105771277

> <r_i_glide_emodel>
-38.2009634856864

> <r_i_glide_energy>
-40.1884385943413

> <r_i_glide_einternal>
6.39217233657837

> <i_i_glide_confnum>
14

> <i_i_glide_posenum>
4

> <r_i_glide_eff_state_penalty>
0

> <s_user_duplicate_titles>
CHEMBL3717_lig429,565710

> <s_m_subgroup_title>
dock_pv

> <s_m_subgroupid>
dock_pv

> <b_m_subgroup_collapsed>
1

$$$$
CHEMBL3717_lig2365
                    3D
 Schrodinger Suite 2021-1.
 40 44  0  0  1  0            999 V2000
   -8.9136   -1.0211   29.5273 N   0  0  0  0  0  0
   -9.6808   -1.4525   30.5584 C   0  0  0  0  0  0
   -9.3493   -1.2687   31.8999 C   0  0  0  0  0  0
   -8.1611   -0.6114   32.2149 C   0  0  0  0  0  0
   -7.3270   -0.1477   31.1662 C   0  0  0  0  0  0
   -6.1006    0.5173   31.4064 C   0  0  0  0  0  0
   -5.3114    0.9464   30.3382 C   0  0  0  0  0  0
   -5.7307    0.7252   29.0257 C   0  0  0  0  0  0
   -6.9338    0.0762   28.7541 C   0  0  0  0  0  0
   -7.7481   -0.3759   29.8177 C   0  0  0  0  0  0
   -3.9762    1.6278   30.5995 C   0  0  0  0  0  0
   -1.5924    3.5738   30.6105 N   0  0  0  0  0  0
   -2.8883    3.9356   30.6089 N   0  0  0  0  0  0
   -3.3610    5.2578   30.6081 C   0  0  0  0  0  0
   -2.5059    6.2867   30.6082 N   0  0  0  0  0  0
   -1.1834    5.9571   30.6080 C   0  0  0  0  0  0
   -0.7326    4.6304   30.6084 C   0  0  0  0  0  0
   -5.0928    3.9186   30.6079 N   0  0  0  0  0  0
   -4.7096    5.2528   30.6094 N   0  0  0  0  0  0
   -4.0182    3.1483   30.6054 C   0  0  0  0  0  0
    0.7060    4.2951   30.5664 C   0  0  0  0  0  0
    1.3000    3.8604   29.3770 C   0  0  0  0  0  0
    2.6643    3.5648   29.3240 C   0  0  0  0  0  0
    3.4444    3.6762   30.4825 C   0  0  0  0  0  0
    2.8560    4.1098   31.6699 C   0  0  0  0  0  0
    1.5014    4.4341   31.7068 C   0  0  0  0  0  0
    5.1304    3.2949   30.4743 Cl  0  0  0  0  0  0
    3.3496    3.0872   27.8102 Cl  0  0  0  0  0  0
  -10.5897   -1.9688   30.2864 H   0  0  0  0  0  0
   -9.9998   -1.6333   32.6815 H   0  0  0  0  0  0
   -7.8634   -0.4586   33.2449 H   0  0  0  0  0  0
   -5.7821    0.6833   32.4266 H   0  0  0  0  0  0
   -5.1071    1.0441   28.2067 H   0  0  0  0  0  0
   -7.2378   -0.1029   27.7311 H   0  0  0  0  0  0
   -3.5567    1.2485   31.5308 H   0  0  0  0  0  0
   -3.2953    1.2808   29.8246 H   0  0  0  0  0  0
   -0.4811    6.7782   30.5954 H   0  0  0  0  0  0
    0.7042    3.7619   28.4801 H   0  0  0  0  0  0
    3.4533    4.2181   32.5621 H   0  0  0  0  0  0
    1.0669    4.7831   32.6307 H   0  0  0  0  0  0
  1  2  2  0  0  0
  1 10  1  0  0  0
  2  3  1  0  0  0
  2 29  1  0  0  0
  3  4  2  0  0  0
  3 30  1  0  0  0
  4  5  1  0  0  0
  4 31  1  0  0  0
  5  6  2  0  0  0
  5 10  1  0  0  0
  6  7  1  0  0  0
  6 32  1  0  0  0
  7  8  2  0  0  0
  7 11  1  0  0  0
  8  9  1  0  0  0
  8 33  1  0  0  0
  9 10  2  0  0  0
  9 34  1  0  0  0
 11 20  1  0  0  0
 11 35  1  0  0  0
 11 36  1  0  0  0
 12 13  1  0  0  0
 12 17  2  0  0  0
 13 14  1  0  0  0
 13 20  1  0  0  0
 14 15  1  0  0  0
 14 19  2  0  0  0
 15 16  2  0  0  0
 16 17  1  0  0  0
 16 37  1  0  0  0
 17 21  1  0  0  0
 18 19  1  0  0  0
 18 20  2  0  0  0
 21 22  1  0  0  0
 21 26  2  0  0  0
 22 23  2  0  0  0
 22 38  1  0  0  0
 23 24  1  0  0  0
 23 28  1  0  0  0
 24 25  2  0  0  0
 24 27  1  0  0  0
 25 26  1  0  0  0
 25 39  1  0  0  0
 26 40  1  0  0  0
M  END
> <s_m_entry_id>
10516

> <s_m_entry_name>
dock_pv.585

> <s_m_Source_Path>
/home/csk/Desktop/cluster/DUD-E-result/met

> <s_m_Source_File>
dock_pv.maegz

> <i_m_Source_File_Index>
585

> <chembl_id>
CHEMBL3800427

> <chembl_pref_name>
None

> <i_lp_mmshare_version>
53161

> <i_f3d_flags>
0

> <r_lp_tautomer_probability>
1

> <s_lp_Force_Field>
OPLS_2005

> <r_lp_Energy>
27.133248

> <b_lp_Chiralities_Consistent>
1

> <s_lp_Variant>
CHEMBL3717_lig2365-1

> <s_i_glide_gridfile>
glide-grid_3lq8

> <i_i_glide_lignum>
2689

> <i_i_glide_rotatable_bonds>
3

> <r_i_docking_score>
-7.0276907159061

> <r_i_glide_ligand_efficiency>
-0.250988954139504

> <r_i_glide_ligand_efficiency_sa>
-0.762150289356076

> <r_i_glide_ligand_efficiency_ln>
-1.62219735919667

> <r_i_glide_gscore>
-7.0276907159061

> <r_i_glide_lipo>
-2.99933088220869

> <r_i_glide_hbond>
0

> <r_i_glide_metal>
0

> <r_i_glide_rewards>
-2.21012154544197

> <r_i_glide_evdw>
-44.6003494262695

> <r_i_glide_ecoul>
0.373255372047424

> <r_i_glide_erotb>
0.35579087725092

> <r_i_glide_esite>
0

> <r_i_glide_emodel>
-59.8925558173835

> <r_i_glide_energy>
-44.2270940542221

> <r_i_glide_einternal>
4.60075855255127

> <i_i_glide_confnum>
2

> <i_i_glide_posenum>
53

> <r_i_glide_eff_state_penalty>
0

> <s_user_duplicate_titles>
CHEMBL3717_lig2365

> <s_m_subgroup_title>
dock_pv

> <s_m_subgroupid>
dock_pv

> <b_m_subgroup_collapsed>
1

$$$$
CHEMBL3717_lig664
                    3D
 Schrodinger Suite 2021-1.
 50 53  0  0  1  0            999 V2000
   -5.4353    3.5874   30.5294 C   0  0  0  0  0  0
   -5.7579    4.9374   30.5645 C   0  0  0  0  0  0
   -4.7588    5.8987   30.6081 C   0  0  0  0  0  0
   -4.1006    3.1461   30.5775 C   0  0  0  0  0  0
   -3.0642    4.1269   30.6081 C   0  0  0  0  0  0
   -3.4045    5.5136   30.6084 C   0  0  0  0  0  0
   -2.4635    6.4917   30.6073 N   0  0  0  0  0  0
   -1.1603    6.1265   30.6039 C   0  0  0  0  0  0
   -0.7075    4.8046   30.6185 C   0  0  0  0  0  0
   -1.6801    3.7978   30.6383 C   0  0  0  0  0  0
    0.6479    4.4969   30.5827 N   0  0  0  0  0  0
    1.2336    3.4834   31.4758 C   0  0  0  0  0  0
    2.5273    2.8478   30.9175 C   0  0  0  0  0  0
    3.5270    3.8849   30.6619 N   0  0  0  0  0  0
    2.9825    4.7814   29.6406 C   0  0  0  0  0  0
    1.6727    5.4522   30.1241 C   0  0  0  0  0  0
   -3.7310    1.8108   30.6093 O   0  0  0  0  0  0
    4.7670    3.2855   30.1786 C   0  0  0  0  0  0
   -4.7433    0.8034   30.6715 C   0  0  0  0  0  0
   -4.2367   -0.4911   31.2904 C   0  0  0  0  0  0
   -2.9975   -0.5791   31.9390 C   0  0  0  0  0  0
   -2.6103   -1.7538   32.6076 C   0  0  0  0  0  0
   -3.5039   -2.8407   32.6088 C   0  0  0  0  0  0
   -4.7191   -2.7698   31.9341 C   0  0  0  0  0  0
   -5.0829   -1.6011   31.2756 C   0  0  0  0  0  0
   -1.3221   -1.8137   33.3480 N   0  3  0  0  0  0
   -0.5716   -0.8430   33.2942 O   0  0  0  0  0  0
   -1.0782   -2.8106   34.0241 O   0  5  0  0  0  0
   -6.2597    2.8949   30.4696 H   0  0  0  0  0  0
   -6.7934    5.2452   30.5305 H   0  0  0  0  0  0
   -5.0202    6.9472   30.6083 H   0  0  0  0  0  0
   -0.4631    6.9509   30.5956 H   0  0  0  0  0  0
   -1.3922    2.7583   30.6249 H   0  0  0  0  0  0
    1.4766    3.9722   32.4209 H   0  0  0  0  0  0
    0.5113    2.7084   31.7220 H   0  0  0  0  0  0
    2.9169    2.1296   31.6407 H   0  0  0  0  0  0
    2.3054    2.2899   30.0051 H   0  0  0  0  0  0
    2.7978    4.2428   28.7082 H   0  0  0  0  0  0
    3.7157    5.5558   29.4076 H   0  0  0  0  0  0
    1.2725    6.0633   29.3146 H   0  0  0  0  0  0
    1.9054    6.1211   30.9530 H   0  0  0  0  0  0
    5.5277    4.0515   30.0203 H   0  0  0  0  0  0
    5.1625    2.5733   30.9032 H   0  0  0  0  0  0
    4.6201    2.7591   29.2341 H   0  0  0  0  0  0
   -5.1321    0.6166   29.6695 H   0  0  0  0  0  0
   -5.5697    1.1027   31.3167 H   0  0  0  0  0  0
   -2.3519    0.2866   31.9582 H   0  0  0  0  0  0
   -3.2940   -3.7506   33.1452 H   0  0  0  0  0  0
   -5.3817   -3.6235   31.9304 H   0  0  0  0  0  0
   -6.0409   -1.5520   30.7777 H   0  0  0  0  0  0
  1  2  2  0  0  0
  1  4  1  0  0  0
  1 29  1  0  0  0
  2  3  1  0  0  0
  2 30  1  0  0  0
  3  6  2  0  0  0
  3 31  1  0  0  0
  4 17  1  0  0  0
  4  5  2  0  0  0
  5 10  1  0  0  0
  5  6  1  0  0  0
  6  7  1  0  0  0
  7  8  2  0  0  0
  8  9  1  0  0  0
  8 32  1  0  0  0
  9 10  2  0  0  0
  9 11  1  0  0  0
 10 33  1  0  0  0
 11 16  1  0  0  0
 11 12  1  0  0  0
 12 13  1  0  0  0
 12 34  1  0  0  0
 12 35  1  0  0  0
 13 14  1  0  0  0
 13 36  1  0  0  0
 13 37  1  0  0  0
 14 15  1  0  0  0
 14 18  1  0  0  0
 15 16  1  0  0  0
 15 38  1  0  0  0
 15 39  1  0  0  0
 16 40  1  0  0  0
 16 41  1  0  0  0
 17 19  1  0  0  0
 18 42  1  0  0  0
 18 43  1  0  0  0
 18 44  1  0  0  0
 19 20  1  0  0  0
 19 45  1  0  0  0
 19 46  1  0  0  0
 20 21  2  0  0  0
 20 25  1  0  0  0
 21 22  1  0  0  0
 21 47  1  0  0  0
 22 23  2  0  0  0
 22 26  1  0  0  0
 23 24  1  0  0  0
 23 48  1  0  0  0
 24 25  2  0  0  0
 24 49  1  0  0  0
 25 50  1  0  0  0
 26 27  2  0  0  0
 26 28  1  0  0  0
M  CHG  2  26   1  28  -1
M  END
> <s_m_entry_id>
10517

> <s_m_entry_name>
dock_pv.586

> <s_m_Source_Path>
/home/csk/Desktop/cluster/DUD-E-result/met

> <s_m_Source_File>
dock_pv.maegz

> <i_m_Source_File_Index>
586

> <chembl_id>
CHEMBL1766507

> <chembl_pref_name>
None

> <i_lp_mmshare_version>
53161

> <i_f3d_flags>
0

> <r_lp_tautomer_probability>
1

> <s_lp_Force_Field>
OPLS_2005

> <r_lp_Energy>
52.878055

> <b_lp_Chiralities_Consistent>
1

> <s_lp_Variant>
CHEMBL3717_lig664-1

> <s_i_glide_gridfile>
glide-grid_3lq8

> <i_i_glide_lignum>
722

> <i_i_glide_rotatable_bonds>
5

> <r_i_docking_score>
-7.02535652326462

> <r_i_glide_ligand_efficiency>
-0.250905590116594

> <r_i_glide_ligand_efficiency_sa>
-0.761897147083738

> <r_i_glide_ligand_efficiency_ln>
-1.62165855900014

> <r_i_glide_gscore>
-7.02535652326462

> <r_i_glide_lipo>
-3.43597825428272

> <r_i_glide_hbond>
0

> <r_i_glide_metal>
0

> <r_i_glide_rewards>
-1.73556332642545

> <r_i_glide_evdw>
-43.2812156677246

> <r_i_glide_ecoul>
-1.49106287956238

> <r_i_glide_erotb>
0.541294563035696

> <r_i_glide_esite>
-0.00738929027156455

> <r_i_glide_emodel>
-61.7247827144055

> <r_i_glide_energy>
-44.772278547287

> <r_i_glide_einternal>
1.26547372341156

> <i_i_glide_confnum>
8

> <i_i_glide_posenum>
237

> <r_i_glide_eff_state_penalty>
0

> <s_user_duplicate_titles>
CHEMBL3717_lig664

> <s_m_subgroup_title>
dock_pv

> <s_m_subgroupid>
dock_pv

> <b_m_subgroup_collapsed>
1

$$$$
CHEMBL3717_lig1855
                    3D
 Schrodinger Suite 2021-1.
 41 45  0  0  1  0            999 V2000
   -5.0746    4.1710   30.5782 C   0  0  0  0  0  0
   -5.2720    5.5570   30.6080 C   0  0  0  0  0  0
   -4.2759    6.4799   30.6080 N   0  0  0  0  0  0
   -3.7641    3.6702   30.6080 C   0  0  0  0  0  0
   -2.7393    4.6232   30.6101 C   0  0  0  0  0  0
   -3.0343    6.0046   30.5866 C   0  0  0  0  0  0
   -1.8832    6.7205   30.5027 N   0  0  0  0  0  0
   -0.8448    5.8204   30.5693 N   0  0  0  0  0  0
   -1.3565    4.5695   30.6284 N   0  0  0  0  0  0
   -6.2390    3.2427   30.4806 C   0  0  0  0  0  0
   -6.2528    1.8597   30.6079 C   0  0  0  0  0  0
   -7.5496    1.4641   30.4184 N   0  0  0  0  0  0
   -8.3653    2.4906   30.1607 N   0  0  0  0  0  0
   -7.5863    3.5470   30.2080 C   0  0  0  0  0  0
   -0.5041    3.3842   30.6586 C   0  0  0  0  0  0
    0.9971    3.6461   30.6295 C   0  0  0  0  0  0
    1.6491    4.0269   31.8000 C   0  0  0  0  0  0
    2.9967    4.3570   31.7819 C   0  0  0  0  0  0
    1.7056    3.5579   29.4289 C   0  0  0  0  0  0
    3.0767    3.9117   29.3908 C   0  0  0  0  0  0
    3.7296    4.3278   30.5852 C   0  0  0  0  0  0
    5.0340    4.7203   30.6080 N   0  0  0  0  0  0
    5.7153    4.7471   29.4437 C   0  0  0  0  0  0
    5.1608    4.3570   28.2340 C   0  0  0  0  0  0
    3.8411    3.9007   28.2080 C   0  0  0  0  0  0
   -8.0796    0.1132   30.4132 C   0  0  0  0  0  0
   -6.2671    5.9755   30.5905 H   0  0  0  0  0  0
   -3.5566    2.6107   30.6002 H   0  0  0  0  0  0
   -5.4764    1.1362   30.8082 H   0  0  0  0  0  0
   -7.9906    4.5321   30.0239 H   0  0  0  0  0  0
   -0.7916    2.7675   29.8082 H   0  0  0  0  0  0
   -0.7628    2.8158   31.5531 H   0  0  0  0  0  0
    1.1060    4.1029   32.7292 H   0  0  0  0  0  0
    3.4950    4.6907   32.6680 H   0  0  0  0  0  0
    1.2085    3.2625   28.5151 H   0  0  0  0  0  0
    6.7401    5.0817   29.4961 H   0  0  0  0  0  0
    5.7687    4.3763   27.3440 H   0  0  0  0  0  0
    3.3811    3.5570   27.2946 H   0  0  0  0  0  0
   -7.3391   -0.5791   30.8152 H   0  0  0  0  0  0
   -8.9793    0.0686   31.0284 H   0  0  0  0  0  0
   -8.3217   -0.1745   29.3895 H   0  0  0  0  0  0
  1  2  2  0  0  0
  1  4  1  0  0  0
  1 10  1  0  0  0
  2  3  1  0  0  0
  2 27  1  0  0  0
  3  6  2  0  0  0
  4  5  2  0  0  0
  4 28  1  0  0  0
  5  6  1  0  0  0
  5  9  1  0  0  0
  6  7  1  0  0  0
  7  8  2  0  0  0
  8  9  1  0  0  0
  9 15  1  0  0  0
 10 11  2  0  0  0
 10 14  1  0  0  0
 11 12  1  0  0  0
 11 29  1  0  0  0
 12 13  1  0  0  0
 12 26  1  0  0  0
 13 14  2  0  0  0
 14 30  1  0  0  0
 15 16  1  0  0  0
 15 31  1  0  0  0
 15 32  1  0  0  0
 16 17  2  0  0  0
 16 19  1  0  0  0
 17 18  1  0  0  0
 17 33  1  0  0  0
 18 21  2  0  0  0
 18 34  1  0  0  0
 19 20  2  0  0  0
 19 35  1  0  0  0
 20 21  1  0  0  0
 20 25  1  0  0  0
 21 22  1  0  0  0
 22 23  2  0  0  0
 23 24  1  0  0  0
 23 36  1  0  0  0
 24 25  2  0  0  0
 24 37  1  0  0  0
 25 38  1  0  0  0
 26 39  1  0  0  0
 26 40  1  0  0  0
 26 41  1  0  0  0
M  END
> <s_m_entry_id>
10518

> <s_m_entry_name>
dock_pv.587

> <s_m_Source_Path>
/home/csk/Desktop/cluster/DUD-E-result/met

> <s_m_Source_File>
dock_pv.maegz

> <i_m_Source_File_Index>
587

> <chembl_id>
CHEMBL3334554

> <chembl_pref_name>
None

> <i_lp_mmshare_version>
53161

> <i_f3d_flags>
0

> <r_lp_tautomer_probability>
1

> <s_lp_Force_Field>
OPLS_2005

> <r_lp_Energy>
14.461221

> <b_lp_Chiralities_Consistent>
1

> <s_lp_Variant>
CHEMBL3717_lig1855-1

> <s_i_glide_gridfile>
glide-grid_3lq8

> <i_i_glide_lignum>
2141

> <i_i_glide_rotatable_bonds>
3

> <r_i_docking_score>
-7.02517781014384

> <r_i_glide_ligand_efficiency>
-0.270199146543994

> <r_i_glide_ligand_efficiency_sa>
-0.800463908454279

> <r_i_glide_ligand_efficiency_ln>
-1.64983995722372

> <r_i_glide_gscore>
-7.02517781014384

> <r_i_glide_lipo>
-3.35917275708698

> <r_i_glide_hbond>
-0.0243768489072214

> <r_i_glide_metal>
0

> <r_i_glide_rewards>
-1.86571949853767

> <r_i_glide_evdw>
-37.6543769836426

> <r_i_glide_ecoul>
-2.54007434844971

> <r_i_glide_erotb>
0.487821295837617

> <r_i_glide_esite>
0

> <r_i_glide_emodel>
-54.6487296259328

> <r_i_glide_energy>
-40.1944513320923

> <r_i_glide_einternal>
2.3055317401886

> <i_i_glide_confnum>
4

> <i_i_glide_posenum>
41

> <r_i_glide_eff_state_penalty>
0

> <s_user_duplicate_titles>
CHEMBL3717_lig1855

> <s_m_subgroup_title>
dock_pv

> <s_m_subgroupid>
dock_pv

> <b_m_subgroup_collapsed>
1

$$$$
CHEMBL3717_lig1656
                    3D
 Schrodinger Suite 2021-1.
 53 56  0  0  1  0            999 V2000
   -6.8086    2.7815   30.1873 C   0  0  0  0  0  0
   -7.4265    4.0218   30.3196 C   0  0  0  0  0  0
   -6.6405    5.1571   30.5315 C   0  0  0  0  0  0
   -5.4269    2.6364   30.2636 C   0  0  0  0  0  0
   -4.6032    3.7854   30.4922 C   0  0  0  0  0  0
   -5.2290    5.0602   30.6084 C   0  0  0  0  0  0
   -4.5069    6.1984   30.7885 N   0  0  0  0  0  0
   -3.1617    6.1090   30.8747 C   0  0  0  0  0  0
   -2.4361    4.9167   30.8051 C   0  0  0  0  0  0
   -3.1801    3.7474   30.6080 C   0  0  0  0  0  0
   -1.0449    4.9033   30.9325 N   0  0  0  0  0  0
   -0.1662    6.0431   30.6097 C   0  0  0  0  0  0
    0.8806    5.7303   29.5219 C   0  0  0  0  0  0
    1.7070    4.5922   29.9241 N   0  0  0  0  0  0
    0.8303    3.4334   30.0992 C   0  0  0  0  0  0
   -0.2081    3.7193   31.2119 C   0  0  0  0  0  0
   -4.9253    1.3421   30.1047 N   0  0  0  0  0  0
   -8.9522    4.1005   30.2340 C   0  0  0  0  0  0
   -9.4977    3.1845   31.0385 F   0  0  0  0  0  0
   -9.4268    5.2916   30.5962 F   0  0  0  0  0  0
   -9.3366    3.8494   28.9809 F   0  0  0  0  0  0
   -4.3559    0.7571   31.3122 C   0  0  0  0  0  0
   -3.4271   -0.4107   31.0365 C   0  0  0  0  0  0
   -3.4224   -1.0803   29.8080 C   0  0  0  0  0  0
   -2.4964   -2.0894   29.5630 C   0  0  0  0  0  0
   -1.5822   -2.4430   30.5580 C   0  0  0  0  0  0
   -1.6257   -1.8318   31.8084 C   0  0  0  0  0  0
   -2.5480   -0.8157   32.0461 C   0  0  0  0  0  0
    2.7198    4.3108   28.9117 C   0  0  0  0  0  0
   -2.4940   -2.7397   28.2635 C   0  0  0  0  0  0
   -2.4940   -3.2453   27.2252 N   0  0  0  0  0  0
   -7.4252    1.9093   30.0200 H   0  0  0  0  0  0
   -7.0975    6.1344   30.6080 H   0  0  0  0  0  0
   -2.6709    7.0579   31.0081 H   0  0  0  0  0  0
   -2.6810    2.8003   30.4845 H   0  0  0  0  0  0
   -0.7347    6.9062   30.2701 H   0  0  0  0  0  0
    0.3362    6.3568   31.5232 H   0  0  0  0  0  0
    0.3953    5.5538   28.5600 H   0  0  0  0  0  0
    1.5060    6.6128   29.4078 H   0  0  0  0  0  0
    1.4378    2.5745   30.3881 H   0  0  0  0  0  0
    0.3284    3.1684   29.1650 H   0  0  0  0  0  0
    0.3060    3.8744   32.1624 H   0  0  0  0  0  0
   -0.8115    2.8279   31.3716 H   0  0  0  0  0  0
   -5.5780    0.7113   29.6620 H   0  0  0  0  0  0
   -5.1441    0.4562   32.0051 H   0  0  0  0  0  0
   -3.7495    1.5055   31.8080 H   0  0  0  0  0  0
   -4.1136   -0.8020   29.0241 H   0  0  0  0  0  0
   -0.8564   -3.2240   30.3816 H   0  0  0  0  0  0
   -0.9285   -2.1283   32.5784 H   0  0  0  0  0  0
   -2.5565   -0.3220   33.0071 H   0  0  0  0  0  0
    3.3194    3.4444   29.1932 H   0  0  0  0  0  0
    2.2774    4.1123   27.9336 H   0  0  0  0  0  0
    3.4022    5.1559   28.8165 H   0  0  0  0  0  0
  1  2  2  0  0  0
  1  4  1  0  0  0
  1 32  1  0  0  0
  2  3  1  0  0  0
  2 18  1  0  0  0
  3  6  2  0  0  0
  3 33  1  0  0  0
  4  5  2  0  0  0
  4 17  1  0  0  0
  5  6  1  0  0  0
  5 10  1  0  0  0
  6  7  1  0  0  0
  7  8  2  0  0  0
  8  9  1  0  0  0
  8 34  1  0  0  0
  9 10  2  0  0  0
  9 11  1  0  0  0
 10 35  1  0  0  0
 11 12  1  0  0  0
 11 16  1  0  0  0
 12 13  1  0  0  0
 12 36  1  0  0  0
 12 37  1  0  0  0
 13 14  1  0  0  0
 13 38  1  0  0  0
 13 39  1  0  0  0
 14 15  1  0  0  0
 14 29  1  0  0  0
 15 16  1  0  0  0
 15 40  1  0  0  0
 15 41  1  0  0  0
 16 42  1  0  0  0
 16 43  1  0  0  0
 17 22  1  0  0  0
 17 44  1  0  0  0
 18 19  1  0  0  0
 18 20  1  0  0  0
 18 21  1  0  0  0
 22 23  1  0  0  0
 22 45  1  0  0  0
 22 46  1  0  0  0
 23 24  2  0  0  0
 23 28  1  0  0  0
 24 25  1  0  0  0
 24 47  1  0  0  0
 25 26  2  0  0  0
 25 30  1  0  0  0
 26 27  1  0  0  0
 26 48  1  0  0  0
 27 28  2  0  0  0
 27 49  1  0  0  0
 28 50  1  0  0  0
 29 51  1  0  0  0
 29 52  1  0  0  0
 29 53  1  0  0  0
 30 31  3  0  0  0
M  END
> <s_m_entry_id>
10519

> <s_m_entry_name>
dock_pv.588

> <s_m_Source_Path>
/home/csk/Desktop/cluster/DUD-E-result/met

> <s_m_Source_File>
dock_pv.maegz

> <i_m_Source_File_Index>
588

> <chembl_id>
CHEMBL3221111

> <chembl_pref_name>
None

> <i_lp_mmshare_version>
53161

> <i_f3d_flags>
0

> <r_lp_tautomer_probability>
1

> <s_lp_Force_Field>
OPLS_2005

> <r_lp_Energy>
47.209236

> <b_lp_Chiralities_Consistent>
1

> <s_lp_Variant>
CHEMBL3717_lig1656-1

> <s_i_glide_gridfile>
glide-grid_3lq8

> <i_i_glide_lignum>
1910

> <i_i_glide_rotatable_bonds>
5

> <r_i_docking_score>
-7.02459252733828

> <r_i_glide_ligand_efficiency>
-0.226599758946396

> <r_i_glide_ligand_efficiency_sa>
-0.71183609777595

> <r_i_glide_ligand_efficiency_ln>
-1.58426089282185

> <r_i_glide_gscore>
-7.02459252733828

> <r_i_glide_lipo>
-4.08149448485144

> <r_i_glide_hbond>
0

> <r_i_glide_metal>
0

> <r_i_glide_rewards>
-1.16369099980485

> <r_i_glide_evdw>
-45.3037300109863

> <r_i_glide_ecoul>
0.55750584602356

> <r_i_glide_erotb>
0.438376328782174

> <r_i_glide_esite>
-0.0362227478183861

> <r_i_glide_emodel>
-60.0183343608273

> <r_i_glide_energy>
-44.7462241649628

> <r_i_glide_einternal>
4.24401187896729

> <i_i_glide_confnum>
27

> <i_i_glide_posenum>
177

> <r_i_glide_eff_state_penalty>
0

> <s_user_duplicate_titles>
CHEMBL3717_lig1656

> <s_m_subgroup_title>
dock_pv

> <s_m_subgroupid>
dock_pv

> <b_m_subgroup_collapsed>
1

$$$$
CHEMBL3717_lig1191
                    3D
 Schrodinger Suite 2021-1.
 54 58  0  0  1  0            999 V2000
   -6.9476    4.6267   30.4771 N   0  0  0  0  0  0
   -5.7090    5.1566   30.6090 C   0  0  0  0  0  0
   -4.5394    4.3997   30.5353 C   0  0  0  0  0  0
   -4.6722    3.0264   30.3215 C   0  0  0  0  0  0
   -5.9391    2.4353   30.2091 C   0  0  0  0  0  0
   -7.0556    3.2912   30.2770 C   0  0  0  0  0  0
   -3.1934    5.0164   30.6715 C   0  0  0  0  0  0
   -1.9940    4.4202   31.0435 C   0  0  0  0  0  0
   -1.0272    5.3946   30.9721 N   0  0  0  0  0  0
   -1.5510    6.5724   30.6080 N   0  0  0  0  0  0
   -2.8369    6.3539   30.4737 C   0  0  0  0  0  0
   -5.9913    0.9436   30.0540 C   0  0  0  0  0  0
   -7.2119    0.3224   30.0442 O   0  0  0  0  0  0
   -4.9484    0.1419   29.9682 N   0  0  0  0  0  0
   -8.3588    2.8306   30.1377 N   0  0  0  0  0  0
   -5.4998   -1.1036   29.9014 C   0  0  0  0  0  0
   -6.8991   -0.9982   29.9491 C   0  0  0  0  0  0
   -7.7575   -2.0990   29.9079 C   0  0  0  0  0  0
   -7.1504   -3.3522   29.8083 C   0  0  0  0  0  0
   -5.7549   -3.4803   29.7647 C   0  0  0  0  0  0
   -4.9076   -2.3680   29.8080 C   0  0  0  0  0  0
    0.4085    5.3391   31.3139 C   0  0  0  0  0  0
   -7.9204   -4.4613   29.7519 F   0  0  0  0  0  0
    0.9424    3.9768   31.7670 C   0  0  0  0  0  0
    1.0875    3.0026   30.6068 C   0  0  0  0  0  0
    1.8934    3.5678   29.5316 N   0  0  2  0  0  0
    1.3469    4.8348   29.0244 C   0  0  0  0  0  0
    1.3029    5.8432   30.1767 C   0  0  0  0  0  0
    2.1321    2.5738   28.4872 C   0  0  0  0  0  0
    3.1133    3.0446   27.4091 C   0  0  0  0  0  0
    4.3071    3.5570   27.9897 O   0  0  0  0  0  0
   -5.6685    6.2266   30.7509 H   0  0  0  0  0  0
   -3.7816    2.4182   30.2596 H   0  0  0  0  0  0
   -1.7574    3.4114   31.3370 H   0  0  0  0  0  0
   -3.5138    7.1480   30.2086 H   0  0  0  0  0  0
   -8.5075    1.8414   29.9925 H   0  0  0  0  0  0
   -9.1197    3.4936   30.1580 H   0  0  0  0  0  0
   -8.8304   -1.9909   29.9446 H   0  0  0  0  0  0
   -5.3100   -4.4573   29.6689 H   0  0  0  0  0  0
   -3.8340   -2.4870   29.7650 H   0  0  0  0  0  0
    0.5265    5.9827   32.1788 H   0  0  0  0  0  0
    0.3061    3.5569   32.5233 H   0  0  0  0  0  0
    1.8858    4.0889   32.3050 H   0  0  0  0  0  0
    0.1069    2.7568   30.2012 H   0  0  0  0  0  0
    1.5575    2.0941   30.9831 H   0  0  0  0  0  0
    1.9672    5.2326   28.2300 H   0  0  0  0  0  0
    0.3603    4.6546   28.5960 H   0  0  0  0  0  0
    2.3065    5.9595   30.5793 H   0  0  0  0  0  0
    1.0265    6.8482   29.8566 H   0  0  0  0  0  0
    1.1826    2.3570   27.9936 H   0  0  0  0  0  0
    2.4627    1.6150   28.8753 H   0  0  0  0  0  0
    2.6325    3.8095   26.8067 H   0  0  0  0  0  0
    3.3621    2.2237   26.7351 H   0  0  0  0  0  0
    4.8949    2.8201   28.2112 H   0  0  0  0  0  0
  1  2  2  0  0  0
  1  6  1  0  0  0
  2  3  1  0  0  0
  2 32  1  0  0  0
  3  4  2  0  0  0
  3  7  1  0  0  0
  4  5  1  0  0  0
  4 33  1  0  0  0
  5 12  1  0  0  0
  5  6  2  0  0  0
  6 15  1  0  0  0
  7 11  1  0  0  0
  7  8  2  0  0  0
  8  9  1  0  0  0
  8 34  1  0  0  0
  9 10  1  0  0  0
  9 22  1  0  0  0
 10 11  2  0  0  0
 11 35  1  0  0  0
 12 13  1  0  0  0
 12 14  2  0  0  0
 13 17  1  0  0  0
 14 16  1  0  0  0
 15 36  1  0  0  0
 15 37  1  0  0  0
 16 17  2  0  0  0
 16 21  1  0  0  0
 17 18  1  0  0  0
 18 19  2  0  0  0
 18 38  1  0  0  0
 19 20  1  0  0  0
 19 23  1  0  0  0
 20 21  2  0  0  0
 20 39  1  0  0  0
 21 40  1  0  0  0
 22 24  1  0  0  0
 22 28  1  0  0  0
 22 41  1  0  0  0
 24 25  1  0  0  0
 24 42  1  0  0  0
 24 43  1  0  0  0
 25 26  1  0  0  0
 25 44  1  0  0  0
 25 45  1  0  0  0
 26 27  1  0  0  0
 26 29  1  0  0  0
 27 28  1  0  0  0
 27 46  1  0  0  0
 27 47  1  0  0  0
 28 48  1  0  0  0
 28 49  1  0  0  0
 29 30  1  0  0  0
 29 50  1  0  0  0
 29 51  1  0  0  0
 30 31  1  0  0  0
 30 52  1  0  0  0
 30 53  1  0  0  0
 31 54  1  0  0  0
M  END
> <s_m_entry_id>
10520

> <s_m_entry_name>
dock_pv.589

> <s_m_Source_Path>
/home/csk/Desktop/cluster/DUD-E-result/met

> <s_m_Source_File>
dock_pv.maegz

> <i_m_Source_File_Index>
589

> <chembl_id>
CHEMBL2032293

> <chembl_pref_name>
None

> <i_lp_mmshare_version>
53161

> <i_f3d_flags>
0

> <r_lp_tautomer_probability>
0.999999772200052

> <s_lp_Force_Field>
OPLS_2005

> <r_lp_Energy>
41.993776

> <b_lp_Chiralities_Consistent>
1

> <s_lp_Variant>
CHEMBL3717_lig1191-1

> <s_i_glide_gridfile>
glide-grid_3lq8

> <i_i_glide_lignum>
1367

> <i_i_glide_rotatable_bonds>
6

> <r_i_docking_score>
-7.02365445780657

> <r_i_glide_ligand_efficiency>
-0.226569498638922

> <r_i_glide_ligand_efficiency_sa>
-0.711741038631623

> <r_i_glide_ligand_efficiency_ln>
-1.58404932939407

> <r_i_glide_gscore>
-7.02365445780657

> <r_i_glide_lipo>
-3.80432958739856

> <r_i_glide_hbond>
-0.32

> <r_i_glide_metal>
0

> <r_i_glide_rewards>
-1.17582904509641

> <r_i_glide_evdw>
-33.2247467041016

> <r_i_glide_ecoul>
-4.11516714096069

> <r_i_glide_erotb>
0.555016581037579

> <r_i_glide_esite>
0

> <r_i_glide_emodel>
-48.4518726548192

> <r_i_glide_energy>
-37.3399138450623

> <r_i_glide_einternal>
5.13111591339111

> <i_i_glide_confnum>
20

> <i_i_glide_posenum>
86

> <r_i_glide_eff_state_penalty>
0

> <s_user_duplicate_titles>
CHEMBL3717_lig1191

> <s_m_subgroup_title>
dock_pv

> <s_m_subgroupid>
dock_pv

> <b_m_subgroup_collapsed>
1

$$$$
CHEMBL3717_lig2403
                    3D
 Schrodinger Suite 2021-1.
 42 43  0  0  1  0            999 V2000
   -2.7999    5.1564   30.9424 C   0  0  0  0  0  0
   -1.3387    5.1555   30.9550 C   0  0  0  0  0  0
   -0.5866    4.1679   30.4169 C   0  0  0  0  0  0
   -3.4585    6.0990   31.3804 O   0  0  0  0  0  0
   -3.3215    4.0282   30.4143 O   0  0  0  0  0  0
    0.8776    4.1024   30.4042 C   0  0  0  0  0  0
    1.4991    3.6383   29.2456 C   0  0  0  0  0  0
    2.8956    3.5458   29.1563 C   0  0  0  0  0  0
    3.6659    3.8945   30.2713 C   0  0  0  0  0  0
    3.0491    4.3568   31.4342 C   0  0  0  0  0  0
    1.6616    4.4775   31.4973 C   0  0  0  0  0  0
    3.5598    3.1331   28.0199 O   0  0  0  0  0  0
    2.8229    2.4538   27.0089 C   0  0  0  0  0  0
    5.0290    3.7572   30.2322 O   0  0  0  0  0  0
   -4.7078    3.7411   30.3941 C   0  0  0  0  0  0
   -4.9442    2.3825   29.6844 C   0  0  0  0  0  0
   -4.4606    1.1122   30.3957 C   0  0  0  0  0  0
   -5.1786   -0.0724   30.1989 C   0  0  0  0  0  0
   -4.7604   -1.2596   30.7980 C   0  0  0  0  0  0
   -3.6212   -1.2611   31.5982 C   0  0  0  0  0  0
   -2.8941   -0.0932   31.7977 C   0  0  0  0  0  0
   -3.3047    1.0864   31.1858 C   0  0  0  0  0  0
   -3.1858   -2.4431   32.1906 N   0  0  0  0  0  0
   -0.8701    6.0099   31.4078 H   0  0  0  0  0  0
   -1.0652    3.3171   29.9487 H   0  0  0  0  0  0
    0.8742    3.3661   28.4079 H   0  0  0  0  0  0
    3.6491    4.6220   32.2915 H   0  0  0  0  0  0
    1.1971    4.8374   32.4054 H   0  0  0  0  0  0
    3.4953    2.1473   26.2092 H   0  0  0  0  0  0
    2.3412    1.5572   27.3970 H   0  0  0  0  0  0
    2.0498    3.1010   26.6017 H   0  0  0  0  0  0
    5.3060    3.3817   29.3868 H   0  0  0  0  0  0
   -5.1132    3.7274   31.4056 H   0  0  0  0  0  0
   -5.2247    4.5332   29.8474 H   0  0  0  0  0  0
   -6.0200    2.2906   29.5330 H   0  0  0  0  0  0
   -4.4989    2.3872   28.6905 H   0  0  0  0  0  0
   -6.0591   -0.0846   29.5735 H   0  0  0  0  0  0
   -5.3165   -2.1714   30.6333 H   0  0  0  0  0  0
   -2.0093   -0.0966   32.4165 H   0  0  0  0  0  0
   -2.7030    1.9636   31.3579 H   0  0  0  0  0  0
   -2.2363   -2.4539   32.5317 H   0  0  0  0  0  0
   -3.5635   -3.3047   31.8103 H   0  0  0  0  0  0
  1  2  1  0  0  0
  1  4  2  0  0  0
  1  5  1  0  0  0
  2  3  2  0  0  0
  2 24  1  0  0  0
  3  6  1  0  0  0
  3 25  1  0  0  0
  5 15  1  0  0  0
  6  7  1  0  0  0
  6 11  2  0  0  0
  7  8  2  0  0  0
  7 26  1  0  0  0
  8  9  1  0  0  0
  8 12  1  0  0  0
  9 10  2  0  0  0
  9 14  1  0  0  0
 10 11  1  0  0  0
 10 27  1  0  0  0
 11 28  1  0  0  0
 12 13  1  0  0  0
 13 29  1  0  0  0
 13 30  1  0  0  0
 13 31  1  0  0  0
 14 32  1  0  0  0
 15 16  1  0  0  0
 15 33  1  0  0  0
 15 34  1  0  0  0
 16 17  1  0  0  0
 16 35  1  0  0  0
 16 36  1  0  0  0
 17 18  1  0  0  0
 17 22  2  0  0  0
 18 19  2  0  0  0
 18 37  1  0  0  0
 19 20  1  0  0  0
 19 38  1  0  0  0
 20 21  2  0  0  0
 20 23  1  0  0  0
 21 22  1  0  0  0
 21 39  1  0  0  0
 22 40  1  0  0  0
 23 41  1  0  0  0
 23 42  1  0  0  0
M  END
> <s_m_entry_id>
10521

> <s_m_entry_name>
dock_pv.590

> <s_m_Source_Path>
/home/csk/Desktop/cluster/DUD-E-result/met

> <s_m_Source_File>
dock_pv.maegz

> <i_m_Source_File_Index>
590

> <chembl_id>
CHEMBL3823086

> <chembl_pref_name>
None

> <i_lp_mmshare_version>
53161

> <i_f3d_flags>
0

> <r_lp_tautomer_probability>
1

> <s_lp_Force_Field>
OPLS_2005

> <r_lp_Energy>
17.462816

> <b_lp_Chiralities_Consistent>
1

> <s_lp_Variant>
CHEMBL3717_lig2403-1

> <s_i_glide_gridfile>
glide-grid_3lq8

> <i_i_glide_lignum>
2729

> <i_i_glide_rotatable_bonds>
8

> <r_i_docking_score>
-7.01776525019478

> <r_i_glide_ligand_efficiency>
-0.305120228269338

> <r_i_glide_ligand_efficiency_sa>
-0.867721341153031

> <r_i_glide_ligand_efficiency_ln>
-1.69695927107422

> <r_i_glide_gscore>
-7.01776525019478

> <r_i_glide_lipo>
-3.45020845911504

> <r_i_glide_hbond>
0

> <r_i_glide_metal>
0

> <r_i_glide_rewards>
-2.27233570971114

> <r_i_glide_evdw>
-39.0343780517578

> <r_i_glide_ecoul>
-2.99718880653381

> <r_i_glide_erotb>
1.1349458778968

> <r_i_glide_esite>
-0.02886973569744

> <r_i_glide_emodel>
-56.4562081636752

> <r_i_glide_energy>
-42.0315668582916

> <r_i_glide_einternal>
4.4296875

> <i_i_glide_confnum>
23

> <i_i_glide_posenum>
340

> <r_i_glide_eff_state_penalty>
0

> <s_user_duplicate_titles>
CHEMBL3717_lig2403

> <s_m_subgroup_title>
dock_pv

> <s_m_subgroupid>
dock_pv

> <b_m_subgroup_collapsed>
1

$$$$
CHEMBL3717_lig1204
                    3D
 Schrodinger Suite 2021-1.
 51 55  0  0  1  0            999 V2000
   -5.9211    5.1919   30.7083 N   0  0  0  0  0  0
   -4.6639    5.7047   30.6900 C   0  0  0  0  0  0
   -3.5172    4.9141   30.6100 C   0  0  0  0  0  0
   -3.6949    3.5335   30.5278 C   0  0  0  0  0  0
   -4.9767    2.9778   30.5000 C   0  0  0  0  0  0
   -6.0702    3.8499   30.6076 C   0  0  0  0  0  0
   -2.1403    5.4713   30.6081 C   0  0  0  0  0  0
   -0.9678    4.8194   30.9592 C   0  0  0  0  0  0
    0.0608    5.6931   30.7223 N   0  0  0  0  0  0
   -0.3878    6.8485   30.2080 N   0  0  0  0  0  0
   -1.6940    6.7375   30.2079 C   0  0  0  0  0  0
    1.5068    5.4455   30.7323 C   0  0  0  0  0  0
    2.0151    4.4683   31.8166 C   0  0  0  0  0  0
    1.9302    2.9815   31.4081 C   0  0  0  0  0  0
    2.5006    2.7571   30.0800 N   0  0  2  0  0  0
    1.8521    3.5521   29.0387 C   0  0  0  0  0  0
    2.0255    5.0495   29.3371 C   0  0  0  0  0  0
   -5.0628    1.5039   30.3476 C   0  0  0  0  0  0
   -6.0158    0.8227   31.0544 O   0  0  0  0  0  0
   -4.2355    0.7669   29.6384 N   0  0  0  0  0  0
   -7.3815    3.3870   30.5845 N   0  0  0  0  0  0
   -4.6587   -0.5025   29.8822 C   0  0  0  0  0  0
   -5.7543   -0.4816   30.7617 C   0  0  0  0  0  0
   -6.4024   -1.6351   31.2278 C   0  0  0  0  0  0
   -5.8981   -2.8483   30.7262 C   0  0  0  0  0  0
   -4.8373   -2.8772   29.8148 C   0  0  0  0  0  0
   -4.1747   -1.7211   29.4082 C   0  0  0  0  0  0
   -6.4188   -4.0495   31.1267 O   0  0  0  0  0  0
   -7.5573   -1.5942   32.2179 C   0  0  0  0  0  0
   -4.5892    6.7781   30.7475 H   0  0  0  0  0  0
   -2.8322    2.8858   30.4599 H   0  0  0  0  0  0
   -0.7878    3.8165   31.3064 H   0  0  0  0  0  0
   -2.3091    7.5468   29.8536 H   0  0  0  0  0  0
    1.9059    6.4322   30.9638 H   0  0  0  0  0  0
    3.0482    4.7067   32.0739 H   0  0  0  0  0  0
    1.4932    4.6455   32.7579 H   0  0  0  0  0  0
    2.4859    2.3720   32.1218 H   0  0  0  0  0  0
    0.9058    2.6168   31.4152 H   0  0  0  0  0  0
    2.3939    1.7789   29.8383 H   0  0  0  0  0  0
    2.2965    3.3030   28.0741 H   0  0  0  0  0  0
    0.7938    3.2881   28.9843 H   0  0  0  0  0  0
    1.5064    5.6321   28.5753 H   0  0  0  0  0  0
    3.0705    5.3372   29.2206 H   0  0  0  0  0  0
   -7.5487    2.3910   30.5500 H   0  0  0  0  0  0
   -8.1363    4.0559   30.6091 H   0  0  0  0  0  0
   -4.4997   -3.8182   29.4080 H   0  0  0  0  0  0
   -3.3440   -1.7626   28.7169 H   0  0  0  0  0  0
   -5.8204   -4.7705   30.9036 H   0  0  0  0  0  0
   -7.4582   -0.7376   32.8876 H   0  0  0  0  0  0
   -8.5071   -1.5125   31.6887 H   0  0  0  0  0  0
   -7.5818   -2.4859   32.8455 H   0  0  0  0  0  0
  1  6  1  0  0  0
  1  2  2  0  0  0
  2  3  1  0  0  0
  2 30  1  0  0  0
  3  4  2  0  0  0
  3  7  1  0  0  0
  4  5  1  0  0  0
  4 31  1  0  0  0
  5 18  1  0  0  0
  5  6  2  0  0  0
  6 21  1  0  0  0
  7 11  1  0  0  0
  7  8  2  0  0  0
  8  9  1  0  0  0
  8 32  1  0  0  0
  9 12  1  0  0  0
  9 10  1  0  0  0
 10 11  2  0  0  0
 11 33  1  0  0  0
 12 17  1  0  0  0
 12 13  1  0  0  0
 12 34  1  0  0  0
 13 14  1  0  0  0
 13 35  1  0  0  0
 13 36  1  0  0  0
 14 15  1  0  0  0
 14 37  1  0  0  0
 14 38  1  0  0  0
 15 16  1  0  0  0
 15 39  1  0  0  0
 16 17  1  0  0  0
 16 40  1  0  0  0
 16 41  1  0  0  0
 17 42  1  0  0  0
 17 43  1  0  0  0
 18 19  1  0  0  0
 18 20  2  0  0  0
 19 23  1  0  0  0
 20 22  1  0  0  0
 21 44  1  0  0  0
 21 45  1  0  0  0
 22 23  2  0  0  0
 22 27  1  0  0  0
 23 24  1  0  0  0
 24 25  2  0  0  0
 24 29  1  0  0  0
 25 26  1  0  0  0
 25 28  1  0  0  0
 26 27  2  0  0  0
 26 46  1  0  0  0
 27 47  1  0  0  0
 28 48  1  0  0  0
 29 49  1  0  0  0
 29 50  1  0  0  0
 29 51  1  0  0  0
M  END
> <s_m_entry_id>
10522

> <s_m_entry_name>
dock_pv.591

> <s_m_Source_Path>
/home/csk/Desktop/cluster/DUD-E-result/met

> <s_m_Source_File>
dock_pv.maegz

> <i_m_Source_File_Index>
591

> <chembl_id>
CHEMBL2032280

> <chembl_pref_name>
None

> <i_lp_mmshare_version>
53161

> <i_f3d_flags>
0

> <r_lp_tautomer_probability>
0.999999772200052

> <s_lp_Force_Field>
OPLS_2005

> <r_lp_Energy>
30.317161

> <b_lp_Chiralities_Consistent>
1

> <s_lp_Variant>
CHEMBL3717_lig1204-1

> <s_i_glide_gridfile>
glide-grid_3lq8

> <i_i_glide_lignum>
1380

> <i_i_glide_rotatable_bonds>
4

> <r_i_docking_score>
-7.01488221524379

> <r_i_glide_ligand_efficiency>
-0.24189249018082

> <r_i_glide_ligand_efficiency_sa>
-0.743170366755425

> <r_i_glide_ligand_efficiency_ln>
-1.60623014522593

> <r_i_glide_gscore>
-7.01488221524379

> <r_i_glide_lipo>
-3.50558084199084

> <r_i_glide_hbond>
0

> <r_i_glide_metal>
0

> <r_i_glide_rewards>
-1.52768075866861

> <r_i_glide_evdw>
-41.6715507507324

> <r_i_glide_ecoul>
-1.87922143936157

> <r_i_glide_erotb>
0.38384013885652

> <r_i_glide_esite>
0

> <r_i_glide_emodel>
-55.2158467388468

> <r_i_glide_energy>
-43.550772190094

> <r_i_glide_einternal>
6.23736429214478

> <i_i_glide_confnum>
3

> <i_i_glide_posenum>
5

> <r_i_glide_eff_state_penalty>
0

> <s_user_duplicate_titles>
CHEMBL3717_lig1204

> <s_m_subgroup_title>
dock_pv

> <s_m_subgroupid>
dock_pv

> <b_m_subgroup_collapsed>
1

$$$$
CHEMBL3717_lig3862
                    3D
 Schrodinger Suite 2021-1.
 40 43  0  0  1  0            999 V2000
   -6.8962    4.2167   30.5998 N   0  0  0  0  0  0
   -5.5778    3.9009   30.6079 C   0  0  0  0  0  0
   -5.0823    2.6388   30.5810 N   0  0  0  0  0  0
   -5.9673    1.6173   30.6073 C   0  0  0  0  0  0
   -7.3478    1.8468   30.5758 C   0  0  0  0  0  0
   -7.7696    3.1778   30.5731 C   0  0  0  0  0  0
   -5.3831    0.3474   30.6155 N   0  0  0  0  0  0
   -5.8477   -0.9443   30.9216 C   0  0  0  0  0  0
   -5.1700   -2.1039   30.4554 C   0  0  0  0  0  0
   -5.7324   -3.3586   30.7570 C   0  0  0  0  0  0
   -6.8773   -3.4784   31.5382 C   0  0  0  0  0  0
   -7.4915   -2.3427   32.0455 C   0  0  0  0  0  0
   -6.9767   -1.0883   31.7409 C   0  0  0  0  0  0
   -3.8744   -2.0381   29.6529 C   0  0  0  0  0  0
   -3.3758   -3.2380   29.2329 O   0  0  0  0  0  0
   -3.2945   -0.9804   29.4086 O   0  0  0  0  0  0
   -4.7040    4.9925   30.5965 N   0  0  0  0  0  0
   -3.3050    5.1097   30.6410 C   0  0  0  0  0  0
   -2.7918    6.3562   30.2870 C   0  0  0  0  0  0
   -1.0583    4.2065   30.9820 C   0  0  0  0  0  0
   -2.4447    4.0644   31.0080 C   0  0  0  0  0  0
   -0.5271    5.4227   30.5405 C   0  0  0  0  0  0
   -1.4036    6.4850   30.2080 C   0  0  0  0  0  0
   -0.5858    7.5239   29.8080 N   0  0  0  0  0  0
    0.7060    7.1570   29.8079 N   0  0  0  0  0  0
    0.7706    5.9411   30.2779 C   0  0  0  0  0  0
   -8.0658    1.0440   30.5271 H   0  0  0  0  0  0
   -8.8202    3.4298   30.5423 H   0  0  0  0  0  0
   -4.4301    0.3510   30.2746 H   0  0  0  0  0  0
   -5.2944   -4.2806   30.4053 H   0  0  0  0  0  0
   -7.2760   -4.4566   31.7641 H   0  0  0  0  0  0
   -8.3633   -2.4317   32.6766 H   0  0  0  0  0  0
   -7.4560   -0.2279   32.1795 H   0  0  0  0  0  0
   -3.6893   -3.9963   29.7399 H   0  0  0  0  0  0
   -5.1948    5.8621   30.4547 H   0  0  0  0  0  0
   -3.4547    7.1571   30.0156 H   0  0  0  0  0  0
   -0.4139    3.3814   31.2484 H   0  0  0  0  0  0
   -2.8324    3.1111   31.3271 H   0  0  0  0  0  0
   -0.8445    8.4587   29.5074 H   0  0  0  0  0  0
    1.7202    5.4395   30.3904 H   0  0  0  0  0  0
  1  2  2  0  0  0
  1  6  1  0  0  0
  2 17  1  0  0  0
  2  3  1  0  0  0
  3  4  2  0  0  0
  4  7  1  0  0  0
  4  5  1  0  0  0
  5  6  2  0  0  0
  5 27  1  0  0  0
  6 28  1  0  0  0
  7  8  1  0  0  0
  7 29  1  0  0  0
  8 13  1  0  0  0
  8  9  2  0  0  0
  9 14  1  0  0  0
  9 10  1  0  0  0
 10 11  2  0  0  0
 10 30  1  0  0  0
 11 12  1  0  0  0
 11 31  1  0  0  0
 12 13  2  0  0  0
 12 32  1  0  0  0
 13 33  1  0  0  0
 14 15  1  0  0  0
 14 16  2  0  0  0
 15 34  1  0  0  0
 17 18  1  0  0  0
 17 35  1  0  0  0
 18 19  2  0  0  0
 18 21  1  0  0  0
 19 23  1  0  0  0
 19 36  1  0  0  0
 20 22  1  0  0  0
 20 21  2  0  0  0
 20 37  1  0  0  0
 21 38  1  0  0  0
 22 23  2  0  0  0
 22 26  1  0  0  0
 23 24  1  0  0  0
 24 25  1  0  0  0
 24 39  1  0  0  0
 25 26  2  0  0  0
 26 40  1  0  0  0
M  END
> <s_m_entry_id>
10523

> <s_m_entry_name>
dock_pv.592

> <s_m_Source_Path>
/home/csk/Desktop/cluster/DUD-E-result/met

> <s_m_Source_File>
dock_pv.maegz

> <i_m_Source_File_Index>
592

> <chembl_id>
CHEMBL244378

> <chembl_pref_name>
None

> <i_lp_mmshare_version>
53161

> <i_f3d_flags>
0

> <r_lp_tautomer_probability>
0.999999624730965

> <s_lp_Force_Field>
OPLS_2005

> <r_lp_Energy>
19.64027

> <b_lp_Chiralities_Consistent>
1

> <s_lp_Variant>
CHEMBL3717_lig3862-1

> <s_i_glide_gridfile>
glide-grid_3lq8

> <i_i_glide_lignum>
4902

> <i_i_glide_rotatable_bonds>
6

> <r_i_docking_score>
-7.01487782695513

> <r_i_glide_ligand_efficiency>
-0.269802993344428

> <r_i_glide_ligand_efficiency_sa>
-0.799290306159353

> <r_i_glide_ligand_efficiency_ln>
-1.64742103996885

> <r_i_glide_gscore>
-7.01487782695513

> <r_i_glide_lipo>
-2.5162676542637

> <r_i_glide_hbond>
-0.144

> <r_i_glide_metal>
0

> <r_i_glide_rewards>
-2.33979725789354

> <r_i_glide_evdw>
-36.8920402526855

> <r_i_glide_ecoul>
-6.18896722793579

> <r_i_glide_erotb>
0.792431043310425

> <r_i_glide_esite>
-0.0342968612836681

> <r_i_glide_emodel>
-62.4181317002009

> <r_i_glide_energy>
-43.0810074806213

> <r_i_glide_einternal>
4.38015079498291

> <i_i_glide_confnum>
3

> <i_i_glide_posenum>
180

> <r_i_glide_eff_state_penalty>
0

> <s_user_duplicate_titles>
CHEMBL3717_lig3862

> <s_m_subgroup_title>
dock_pv

> <s_m_subgroupid>
dock_pv

> <b_m_subgroup_collapsed>
1

$$$$
CHEMBL3717_lig2400
                    3D
 Schrodinger Suite 2021-1.
 42 43  0  0  1  0            999 V2000
   -2.9235    4.9386   30.8594 C   0  0  0  0  0  0
   -1.4670    4.9609   30.9257 C   0  0  0  0  0  0
   -0.6847    4.0060   30.3843 C   0  0  0  0  0  0
   -3.5873    5.9656   31.0094 O   0  0  0  0  0  0
   -3.4501    3.7081   30.5992 O   0  0  0  0  0  0
    0.7826    3.9948   30.3986 C   0  0  0  0  0  0
    1.4422    3.5565   29.2503 C   0  0  0  0  0  0
    2.8425    3.5137   29.1825 C   0  0  0  0  0  0
    3.5787    3.9078   30.3040 C   0  0  0  0  0  0
    2.9281    4.3566   31.4531 C   0  0  0  0  0  0
    1.5353    4.4125   31.5004 C   0  0  0  0  0  0
    3.5413    3.1033   28.0641 O   0  0  0  0  0  0
    2.8279    2.4679   27.0107 C   0  0  0  0  0  0
    4.9488    3.8361   30.2805 O   0  0  0  0  0  0
   -4.8525    3.5246   30.4313 C   0  0  0  0  0  0
   -5.1657    2.2692   29.5864 C   0  0  0  0  0  0
   -4.7802    0.9233   30.1856 C   0  0  0  0  0  0
   -4.0958   -0.0156   29.4078 C   0  0  0  0  0  0
   -3.8004   -1.2839   29.9084 C   0  0  0  0  0  0
   -4.1606   -1.6098   31.2237 C   0  0  0  0  0  0
   -4.8459   -0.6777   32.0023 C   0  0  0  0  0  0
   -5.1710    0.5731   31.4782 C   0  0  0  0  0  0
   -3.8876   -2.8415   31.7605 O   0  0  0  0  0  0
   -3.1863   -2.1935   29.0841 O   0  0  0  0  0  0
   -1.0284    5.8184   31.4116 H   0  0  0  0  0  0
   -1.1361    3.1563   29.8884 H   0  0  0  0  0  0
    0.8425    3.2442   28.4084 H   0  0  0  0  0  0
    3.5079    4.6651   32.3094 H   0  0  0  0  0  0
    1.0491    4.7613   32.4001 H   0  0  0  0  0  0
    3.5067    2.1856   26.2087 H   0  0  0  0  0  0
    2.3540    1.5571   27.3613 H   0  0  0  0  0  0
    2.0614    3.1281   26.6067 H   0  0  0  0  0  0
    5.2472    3.4726   29.4397 H   0  0  0  0  0  0
   -5.3373    3.4696   31.4047 H   0  0  0  0  0  0
   -5.2800    4.3914   29.9214 H   0  0  0  0  0  0
   -6.2406    2.2416   29.4070 H   0  0  0  0  0  0
   -4.6916    2.3579   28.6086 H   0  0  0  0  0  0
   -3.8190    0.2241   28.3905 H   0  0  0  0  0  0
   -5.1512   -0.9299   33.0070 H   0  0  0  0  0  0
   -5.7325    1.2631   32.0880 H   0  0  0  0  0  0
   -3.6906   -3.5139   31.0947 H   0  0  0  0  0  0
   -3.2872   -1.9647   28.1535 H   0  0  0  0  0  0
  1  2  1  0  0  0
  1  4  2  0  0  0
  1  5  1  0  0  0
  2  3  2  0  0  0
  2 25  1  0  0  0
  3  6  1  0  0  0
  3 26  1  0  0  0
  5 15  1  0  0  0
  6  7  1  0  0  0
  6 11  2  0  0  0
  7  8  2  0  0  0
  7 27  1  0  0  0
  8  9  1  0  0  0
  8 12  1  0  0  0
  9 10  2  0  0  0
  9 14  1  0  0  0
 10 11  1  0  0  0
 10 28  1  0  0  0
 11 29  1  0  0  0
 12 13  1  0  0  0
 13 30  1  0  0  0
 13 31  1  0  0  0
 13 32  1  0  0  0
 14 33  1  0  0  0
 15 16  1  0  0  0
 15 34  1  0  0  0
 15 35  1  0  0  0
 16 17  1  0  0  0
 16 36  1  0  0  0
 16 37  1  0  0  0
 17 18  1  0  0  0
 17 22  2  0  0  0
 18 19  2  0  0  0
 18 38  1  0  0  0
 19 20  1  0  0  0
 19 24  1  0  0  0
 20 21  2  0  0  0
 20 23  1  0  0  0
 21 22  1  0  0  0
 21 39  1  0  0  0
 22 40  1  0  0  0
 23 41  1  0  0  0
 24 42  1  0  0  0
M  END
> <s_m_entry_id>
10524

> <s_m_entry_name>
dock_pv.593

> <s_m_Source_Path>
/home/csk/Desktop/cluster/DUD-E-result/met

> <s_m_Source_File>
dock_pv.maegz

> <i_m_Source_File_Index>
593

> <chembl_id>
CHEMBL3823553

> <chembl_pref_name>
None

> <i_lp_mmshare_version>
53161

> <i_f3d_flags>
0

> <r_lp_tautomer_probability>
0.999999999999776

> <s_lp_Force_Field>
OPLS_2005

> <r_lp_Energy>
14.633824

> <b_lp_Chiralities_Consistent>
1

> <s_lp_Variant>
CHEMBL3717_lig2400-1

> <s_i_glide_gridfile>
glide-grid_3lq8

> <i_i_glide_lignum>
2726

> <i_i_glide_rotatable_bonds>
10

> <r_i_docking_score>
-7.01390729142824

> <r_i_glide_ligand_efficiency>
-0.292246137142843

> <r_i_glide_ligand_efficiency_sa>
-0.842983730543516

> <r_i_glide_ligand_efficiency_ln>
-1.67874986207254

> <r_i_glide_gscore>
-7.01390729142824

> <r_i_glide_lipo>
-3.15722157680051

> <r_i_glide_hbond>
0

> <r_i_glide_metal>
0

> <r_i_glide_rewards>
-2.13735525964088

> <r_i_glide_evdw>
-39.8719711303711

> <r_i_glide_ecoul>
-5.06555700302124

> <r_i_glide_erotb>
1.03410165198489

> <r_i_glide_esite>
0

> <r_i_glide_emodel>
-61.8083559569302

> <r_i_glide_energy>
-44.9375281333923

> <r_i_glide_einternal>
7.09097146987915

> <i_i_glide_confnum>
64

> <i_i_glide_posenum>
387

> <r_i_glide_eff_state_penalty>
0

> <s_user_duplicate_titles>
CHEMBL3717_lig2400

> <s_m_subgroup_title>
dock_pv

> <s_m_subgroupid>
dock_pv

> <b_m_subgroup_collapsed>
1

$$$$
CHEMBL3717_lig2643
                    3D
 Schrodinger Suite 2021-1.
 37 40  0  0  1  0            999 V2000
   -3.8362   -1.5269   31.3130 C   0  0  0  0  0  0
   -2.9741   -0.2463   31.2878 C   0  0  2  0  0  0
   -2.5387   -0.0433   32.7376 N   0  0  0  0  0  0
   -1.4121   -0.4311   32.9722 O   0  0  0  0  0  0
   -3.6754    1.0210   30.7690 C   0  0  0  0  0  0
   -4.9920    1.0038   30.2722 C   0  0  0  0  0  0
   -5.6872    2.1379   29.9846 N   0  0  0  0  0  0
   -5.0308    3.2800   30.2083 C   0  0  0  0  0  0
   -5.5164    4.5512   30.2080 N   0  0  0  0  0  0
   -4.4790    5.3805   30.5714 N   0  0  0  0  0  0
   -3.3794    4.6344   30.8176 N   0  0  0  0  0  0
   -2.2657    5.2531   31.5276 C   0  0  0  0  0  0
   -0.8885    5.0693   30.9114 C   0  0  0  0  0  0
   -0.0649    4.0047   31.2945 C   0  0  0  0  0  0
    1.2561    3.9046   30.7949 C   0  0  0  0  0  0
    2.1818    2.9211   31.2349 C   0  0  0  0  0  0
    3.4587    2.8849   30.6846 C   0  0  0  0  0  0
    3.7882    3.8004   29.6923 C   0  0  0  0  0  0
    2.9360    4.7570   29.2533 N   0  0  0  0  0  0
    1.6940    4.8365   29.8074 C   0  0  0  0  0  0
    0.8194    5.8786   29.4088 C   0  0  0  0  0  0
   -0.4291    6.0129   29.9954 C   0  0  0  0  0  0
   -1.2137    7.0563   29.6381 F   0  0  0  0  0  0
   -3.6737    3.2923   30.6080 C   0  0  0  0  0  0
   -2.9658    2.1879   30.8907 N   0  0  0  0  0  0
   -4.1641   -1.8039   30.3104 H   0  0  0  0  0  0
   -3.2712   -2.3755   31.7030 H   0  0  0  0  0  0
   -4.7214   -1.4075   31.9393 H   0  0  0  0  0  0
   -2.0941   -0.4428   30.6778 H   0  0  0  0  0  0
   -5.5482    0.0867   30.1515 H   0  0  0  0  0  0
   -2.4750    6.3200   31.6153 H   0  0  0  0  0  0
   -2.2745    4.8828   32.5493 H   0  0  0  0  0  0
   -0.4126    3.2589   31.9943 H   0  0  0  0  0  0
    1.9065    2.2024   31.9909 H   0  0  0  0  0  0
    4.1739    2.1431   31.0077 H   0  0  0  0  0  0
    4.7645    3.7791   29.2282 H   0  0  0  0  0  0
    1.1060    6.5946   28.6575 H   0  0  0  0  0  0
  1  2  1  0  0  0
  1 26  1  0  0  0
  1 27  1  0  0  0
  1 28  1  0  0  0
  2  3  1  0  0  0
  2  5  1  0  0  0
  2 29  1  0  0  0
  3  4  2  0  0  0
  5  6  2  0  0  0
  5 25  1  0  0  0
  6  7  1  0  0  0
  6 30  1  0  0  0
  7  8  2  0  0  0
  8  9  1  0  0  0
  8 24  1  0  0  0
  9 10  2  0  0  0
 10 11  1  0  0  0
 11 12  1  0  0  0
 11 24  1  0  0  0
 12 13  1  0  0  0
 12 31  1  0  0  0
 12 32  1  0  0  0
 13 14  2  0  0  0
 13 22  1  0  0  0
 14 15  1  0  0  0
 14 33  1  0  0  0
 15 16  2  0  0  0
 15 20  1  0  0  0
 16 17  1  0  0  0
 16 34  1  0  0  0
 17 18  2  0  0  0
 17 35  1  0  0  0
 18 19  1  0  0  0
 18 36  1  0  0  0
 19 20  2  0  0  0
 20 21  1  0  0  0
 21 22  2  0  0  0
 21 37  1  0  0  0
 22 23  1  0  0  0
 24 25  2  0  0  0
M  END
> <s_m_entry_id>
10525

> <s_m_entry_name>
dock_pv.594

> <s_m_Source_Path>
/home/csk/Desktop/cluster/DUD-E-result/met

> <s_m_Source_File>
dock_pv.maegz

> <i_m_Source_File_Index>
594

> <chembl_id>
CHEMBL3651412

> <chembl_pref_name>
None

> <i_lp_mmshare_version>
53161

> <i_f3d_flags>
0

> <r_lp_tautomer_probability>
1

> <s_lp_Force_Field>
OPLS_2005

> <r_lp_Energy>
18.211018

> <b_lp_Chiralities_Consistent>
1

> <s_lp_Variant>
CHEMBL3717_lig2643-1

> <s_i_glide_gridfile>
glide-grid_3lq8

> <i_i_glide_lignum>
3002

> <i_i_glide_rotatable_bonds>
4

> <r_i_docking_score>
-7.01196623241334

> <r_i_glide_ligand_efficiency>
-0.280478649296534

> <r_i_glide_ligand_efficiency_sa>
-0.82012454485309

> <r_i_glide_ligand_efficiency_ln>
-1.66204612875336

> <r_i_glide_gscore>
-7.01196623241334

> <r_i_glide_lipo>
-3.32992930891544

> <r_i_glide_hbond>
0

> <r_i_glide_metal>
0

> <r_i_glide_rewards>
-2.21677166917819

> <r_i_glide_evdw>
-36.7026824951172

> <r_i_glide_ecoul>
-0.856017291545868

> <r_i_glide_erotb>
0.498271464168021

> <r_i_glide_esite>
0

> <r_i_glide_emodel>
-50.8419577377736

> <r_i_glide_energy>
-37.5586997866631

> <r_i_glide_einternal>
2.79733061790466

> <i_i_glide_confnum>
4

> <i_i_glide_posenum>
67

> <r_i_glide_eff_state_penalty>
0

> <s_user_duplicate_titles>
CHEMBL3717_lig2643

> <s_m_subgroup_title>
dock_pv

> <s_m_subgroupid>
dock_pv

> <b_m_subgroup_collapsed>
1

$$$$
CHEMBL3717_lig4023
                    3D
 Schrodinger Suite 2021-1.
 37 39  0  0  1  0            999 V2000
   -4.4924    6.7114   30.6074 Cl  0  0  0  0  0  0
   -1.7990    3.1604   30.9080 N   0  0  0  0  0  0
   -3.7460    1.8008   30.5668 N   0  0  0  0  0  0
   -3.9663    4.1065   30.4375 N   0  0  0  0  0  0
   -3.5905   -0.5946   30.5651 N   0  0  0  0  0  0
    0.0797    4.6317   31.2660 N   0  0  0  0  0  0
   -3.0350   -1.6270   31.2113 N   0  0  0  0  0  0
   -3.1270    3.0566   30.6157 C   0  0  0  0  0  0
   -1.2834    4.4178   31.0083 C   0  0  0  0  0  0
   -3.2887    0.6239   31.1101 C   0  0  0  0  0  0
   -3.4421    5.3461   30.6090 C   0  0  0  0  0  0
   -2.0893    5.5466   30.8721 C   0  0  0  0  0  0
   -2.4960    0.3042   32.2056 C   0  0  0  0  0  0
   -2.3628   -1.0919   32.2067 C   0  0  0  0  0  0
    1.0541    3.5578   31.4331 C   0  0  0  0  0  0
    2.1862    3.6959   30.4288 C   0  0  0  0  0  0
   -1.5799   -1.9728   33.1500 C   0  0  0  0  0  0
    2.0309    3.2257   29.1219 C   0  0  0  0  0  0
    3.3811    4.3086   30.8155 C   0  0  0  0  0  0
    3.0772    3.3512   28.2110 C   0  0  0  0  0  0
    4.4256    4.4367   29.9047 C   0  0  0  0  0  0
    4.2688    3.9569   28.6083 C   0  0  0  0  0  0
   -4.6904    1.8622   30.2198 H   0  0  0  0  0  0
    0.4180    5.5816   31.3023 H   0  0  0  0  0  0
   -4.1458   -0.7276   29.7312 H   0  0  0  0  0  0
   -1.6893    6.5423   30.9885 H   0  0  0  0  0  0
   -2.0520    0.9989   32.9019 H   0  0  0  0  0  0
    1.4676    3.6227   32.4408 H   0  0  0  0  0  0
    0.6104    2.5672   31.3537 H   0  0  0  0  0  0
   -2.2123   -2.7263   33.6198 H   0  0  0  0  0  0
   -1.1098   -1.4005   33.9505 H   0  0  0  0  0  0
   -0.7823   -2.5051   32.6299 H   0  0  0  0  0  0
    1.1055    2.7569   28.8166 H   0  0  0  0  0  0
    3.5036    4.6846   31.8202 H   0  0  0  0  0  0
    2.9648    2.9761   27.2039 H   0  0  0  0  0  0
    5.3522    4.9080   30.1993 H   0  0  0  0  0  0
    5.0837    4.0504   27.9053 H   0  0  0  0  0  0
  1 11  1  0  0  0
  2  8  1  0  0  0
  2  9  2  0  0  0
  3 10  1  0  0  0
  3  8  1  0  0  0
  3 23  1  0  0  0
  4  8  2  0  0  0
  4 11  1  0  0  0
  5  7  1  0  0  0
  5 25  1  0  0  0
  5 10  1  0  0  0
  6  9  1  0  0  0
  6 15  1  0  0  0
  6 24  1  0  0  0
  7 14  2  0  0  0
  9 12  1  0  0  0
 10 13  2  0  0  0
 11 12  2  0  0  0
 12 26  1  0  0  0
 13 14  1  0  0  0
 13 27  1  0  0  0
 14 17  1  0  0  0
 15 16  1  0  0  0
 15 28  1  0  0  0
 15 29  1  0  0  0
 16 18  2  0  0  0
 16 19  1  0  0  0
 17 30  1  0  0  0
 17 31  1  0  0  0
 17 32  1  0  0  0
 18 20  1  0  0  0
 18 33  1  0  0  0
 19 21  2  0  0  0
 19 34  1  0  0  0
 20 22  2  0  0  0
 20 35  1  0  0  0
 21 22  1  0  0  0
 21 36  1  0  0  0
 22 37  1  0  0  0
M  END
> <s_m_entry_id>
10526

> <s_m_entry_name>
dock_pv.595

> <s_m_Source_Path>
/home/csk/Desktop/cluster/DUD-E-result/met

> <s_m_Source_File>
dock_pv.maegz

> <i_m_Source_File_Index>
595

> <chembl_id>
CHEMBL2005449

> <chembl_pref_name>
None

> <i_lp_mmshare_version>
53161

> <i_f3d_flags>
0

> <r_lp_tautomer_probability>
0.15739995007316

> <s_lp_Force_Field>
OPLS_2005

> <r_lp_Energy>
0.597555

> <b_lp_Chiralities_Consistent>
1

> <s_lp_Variant>
CHEMBL3717_lig4023-2

> <s_i_glide_gridfile>
glide-grid_3lq8

> <i_i_glide_lignum>
5124

> <i_i_glide_rotatable_bonds>
5

> <r_i_docking_score>
-7.00708559710458

> <r_i_glide_ligand_efficiency>
-0.318503890777481

> <r_i_glide_ligand_efficiency_sa>
-0.892460428005725

> <r_i_glide_ligand_efficiency_ln>
-1.71278730958964

> <r_i_glide_gscore>
-7.00708559710458

> <r_i_glide_lipo>
-3.76388484445845

> <r_i_glide_hbond>
0

> <r_i_glide_metal>
0

> <r_i_glide_rewards>
-2.10669300456583

> <r_i_glide_evdw>
-41.1834716796875

> <r_i_glide_ecoul>
-0.104049660265446

> <r_i_glide_erotb>
0.938273284943892

> <r_i_glide_esite>
0

> <r_i_glide_emodel>
-54.0059097819691

> <r_i_glide_energy>
-41.2875213399529

> <r_i_glide_einternal>
7.29994297027588

> <i_i_glide_confnum>
22

> <i_i_glide_posenum>
2

> <r_i_glide_eff_state_penalty>
0

> <s_user_duplicate_titles>
CHEMBL3717_lig4023

> <s_m_subgroup_title>
dock_pv

> <s_m_subgroupid>
dock_pv

> <b_m_subgroup_collapsed>
1

$$$$
CHEMBL3717_lig2023
                    3D
 Schrodinger Suite 2021-1.
 64 66  0  0  1  0            999 V2000
    0.5948    6.3523   30.0215 C   0  0  0  0  0  0
    0.1477    5.1251   30.5197 C   0  0  0  0  0  0
   -1.2187    4.9516   30.8113 C   0  0  0  0  0  0
   -2.1282    5.9995   30.6014 C   0  0  0  0  0  0
   -1.6435    7.2120   30.1113 C   0  0  0  0  0  0
   -0.2981    7.3925   29.8082 C   0  0  0  0  0  0
   -3.5101    5.9250   30.8576 N   0  0  0  0  0  0
   -4.4157    4.9012   30.6468 C   0  0  0  0  0  0
   -4.0895    3.7392   30.2080 N   0  0  0  0  0  0
   -5.0672    2.7608   29.9744 N   0  0  0  0  0  0
   -6.4250    2.8996   30.2085 C   0  0  0  0  0  0
   -6.7366    4.2026   30.7747 C   0  0  0  0  0  0
   -5.7945    5.1548   30.9678 C   0  0  0  0  0  0
   -4.6114    1.5561   29.2638 C   0  0  0  0  0  0
   -4.3591    0.2895   30.0791 C   0  0  0  0  0  0
   -3.7862   -0.7873   29.4070 C   0  0  0  0  0  0
   -3.6780   -2.0431   30.0073 C   0  0  0  0  0  0
   -4.0590   -2.1907   31.3429 C   0  0  0  0  0  0
   -4.5712   -1.1015   32.0521 C   0  0  0  0  0  0
   -4.7352    0.1321   31.4178 C   0  0  0  0  0  0
   -7.3009    2.0730   29.9468 O   0  0  0  0  0  0
   -3.3540   -3.1965   29.2795 N   0  0  0  0  0  0
   -2.8317   -3.2974   27.9992 C   0  0  0  0  0  0
   -3.2953   -4.4387   27.4687 O   0  0  0  0  0  0
   -2.0944   -2.4913   27.4204 O   0  0  0  0  0  0
   -3.4552   -4.5822   26.0659 C   0  0  0  0  0  0
   -4.0131   -5.9760   25.6930 C   0  0  0  0  0  0
   -5.3769   -6.3823   26.2890 C   0  0  0  0  0  0
   -5.4152   -6.4340   27.8339 C   0  0  0  0  0  0
   -6.5374   -7.2104   28.3638 N   0  0  0  0  0  0
   -6.3885   -7.3296   29.8134 C   0  0  0  0  0  0
   -7.8250   -6.5838   28.0676 C   0  0  0  0  0  0
    1.1691    4.0126   30.7235 C   0  0  0  0  0  0
    0.6530    3.0034   31.4079 F   0  0  0  0  0  0
    1.5712    3.5593   29.5361 F   0  0  0  0  0  0
    2.2289    4.4669   31.3945 F   0  0  0  0  0  0
    1.6415    6.5000   29.8074 H   0  0  0  0  0  0
   -1.5783    4.0073   31.1939 H   0  0  0  0  0  0
   -2.3132    8.0338   29.9468 H   0  0  0  0  0  0
    0.0541    8.3458   29.4339 H   0  0  0  0  0  0
   -3.9369    6.8233   31.0145 H   0  0  0  0  0  0
   -7.7681    4.4024   31.0232 H   0  0  0  0  0  0
   -6.1013    6.0980   31.3887 H   0  0  0  0  0  0
   -3.6932    1.7893   28.7286 H   0  0  0  0  0  0
   -5.3187    1.2935   28.4747 H   0  0  0  0  0  0
   -3.5176   -0.6595   28.3680 H   0  0  0  0  0  0
   -3.9947   -3.1596   31.8206 H   0  0  0  0  0  0
   -4.8947   -1.2234   33.0761 H   0  0  0  0  0  0
   -5.1917    0.9415   31.9668 H   0  0  0  0  0  0
   -3.6227   -4.0815   29.7044 H   0  0  0  0  0  0
   -2.4956   -4.4285   25.5766 H   0  0  0  0  0  0
   -4.1198   -3.8028   25.6969 H   0  0  0  0  0  0
   -3.2972   -6.7434   25.9660 H   0  0  0  0  0  0
   -4.0765   -6.0237   24.6071 H   0  0  0  0  0  0
   -5.7244   -7.3278   25.8710 H   0  0  0  0  0  0
   -6.0943   -5.6431   25.9415 H   0  0  0  0  0  0
   -5.4698   -5.4216   28.2395 H   0  0  0  0  0  0
   -4.4706   -6.8406   28.2001 H   0  0  0  0  0  0
   -5.4452   -7.8134   30.0683 H   0  0  0  0  0  0
   -7.1895   -7.9372   30.2356 H   0  0  0  0  0  0
   -6.4057   -6.3549   30.3063 H   0  0  0  0  0  0
   -8.0058   -6.5469   26.9941 H   0  0  0  0  0  0
   -8.6420   -7.1555   28.5078 H   0  0  0  0  0  0
   -7.8808   -5.5639   28.4527 H   0  0  0  0  0  0
  1  2  2  0  0  0
  1  6  1  0  0  0
  1 37  1  0  0  0
  2  3  1  0  0  0
  2 33  1  0  0  0
  3  4  2  0  0  0
  3 38  1  0  0  0
  4  5  1  0  0  0
  4  7  1  0  0  0
  5  6  2  0  0  0
  5 39  1  0  0  0
  6 40  1  0  0  0
  7  8  1  0  0  0
  7 41  1  0  0  0
  8  9  2  0  0  0
  8 13  1  0  0  0
  9 10  1  0  0  0
 10 11  1  0  0  0
 10 14  1  0  0  0
 11 12  1  0  0  0
 11 21  2  0  0  0
 12 13  2  0  0  0
 12 42  1  0  0  0
 13 43  1  0  0  0
 14 15  1  0  0  0
 14 44  1  0  0  0
 14 45  1  0  0  0
 15 16  2  0  0  0
 15 20  1  0  0  0
 16 17  1  0  0  0
 16 46  1  0  0  0
 17 18  2  0  0  0
 17 22  1  0  0  0
 18 19  1  0  0  0
 18 47  1  0  0  0
 19 20  2  0  0  0
 19 48  1  0  0  0
 20 49  1  0  0  0
 22 23  1  0  0  0
 22 50  1  0  0  0
 23 24  1  0  0  0
 23 25  2  0  0  0
 24 26  1  0  0  0
 26 27  1  0  0  0
 26 51  1  0  0  0
 26 52  1  0  0  0
 27 28  1  0  0  0
 27 53  1  0  0  0
 27 54  1  0  0  0
 28 29  1  0  0  0
 28 55  1  0  0  0
 28 56  1  0  0  0
 29 30  1  0  0  0
 29 57  1  0  0  0
 29 58  1  0  0  0
 30 31  1  0  0  0
 30 32  1  0  0  0
 31 59  1  0  0  0
 31 60  1  0  0  0
 31 61  1  0  0  0
 32 62  1  0  0  0
 32 63  1  0  0  0
 32 64  1  0  0  0
 33 34  1  0  0  0
 33 35  1  0  0  0
 33 36  1  0  0  0
M  END
> <s_m_entry_id>
10527

> <s_m_entry_name>
dock_pv.596

> <s_m_Source_Path>
/home/csk/Desktop/cluster/DUD-E-result/met

> <s_m_Source_File>
dock_pv.maegz

> <i_m_Source_File_Index>
596

> <chembl_id>
CHEMBL3417464

> <chembl_pref_name>
None

> <i_lp_mmshare_version>
53161

> <i_f3d_flags>
0

> <r_lp_tautomer_probability>
0.999999999999446

> <s_lp_Force_Field>
OPLS_2005

> <r_lp_Energy>
41.303156

> <b_lp_Chiralities_Consistent>
1

> <s_lp_Variant>
CHEMBL3717_lig2023-1

> <s_i_glide_gridfile>
glide-grid_3lq8

> <i_i_glide_lignum>
2319

> <i_i_glide_rotatable_bonds>
13

> <r_i_docking_score>
-7.00627553995138

> <r_i_glide_ligand_efficiency>
-0.194618764998649

> <r_i_glide_ligand_efficiency_sa>
-0.64261700252765

> <r_i_glide_ligand_efficiency_ln>
-1.52858003512719

> <r_i_glide_gscore>
-7.00627553995138

> <r_i_glide_lipo>
-3.41552608762071

> <r_i_glide_hbond>
-0.187323230687272

> <r_i_glide_metal>
0

> <r_i_glide_rewards>
-1.66113340109513

> <r_i_glide_evdw>
-49.822566986084

> <r_i_glide_ecoul>
-0.486806899309158

> <r_i_glide_erotb>
0.886860990368044

> <r_i_glide_esite>
-0.0650044267157405

> <r_i_glide_emodel>
-60.7732454481773

> <r_i_glide_energy>
-50.3093738853931

> <r_i_glide_einternal>
15.2286987304688

> <i_i_glide_confnum>
12

> <i_i_glide_posenum>
37

> <r_i_glide_eff_state_penalty>
0

> <s_user_duplicate_titles>
CHEMBL3717_lig2023

> <s_m_subgroup_title>
dock_pv

> <s_m_subgroupid>
dock_pv

> <b_m_subgroup_collapsed>
1

$$$$
CHEMBL3717_lig4359
                    3D
 Schrodinger Suite 2021-1.
 46 50  0  0  1  0            999 V2000
   -3.6939   -5.1360   27.5016 C   0  0  0  0  0  0
   -4.8963   -4.9192   28.2127 O   0  0  0  0  0  0
   -5.0060   -3.7939   29.0080 C   0  0  0  0  0  0
   -4.0223   -2.8066   29.1559 C   0  0  0  0  0  0
   -4.2045   -1.6598   29.8564 N   0  0  0  0  0  0
   -5.4180   -1.4484   30.4509 C   0  0  0  0  0  0
   -5.6928   -0.2549   31.1897 C   0  0  0  0  0  0
   -4.7880    0.7907   31.4081 N   0  0  0  0  0  0
   -4.0763    1.4367   30.3201 C   0  0  0  0  0  0
   -4.1483    2.9479   30.4791 C   0  0  0  0  0  0
   -5.2621    3.6563   30.4730 N   0  0  0  0  0  0
   -4.9527    5.0021   30.5722 N   0  0  0  0  0  0
   -3.6034    5.0883   30.6036 C   0  0  0  0  0  0
   -2.7298    6.1915   30.6081 C   0  0  0  0  0  0
   -3.2031    7.4597   30.6079 F   0  0  0  0  0  0
   -1.3523    5.9570   30.6084 C   0  0  0  0  0  0
   -0.8350    4.6615   30.6424 C   0  0  0  0  0  0
   -1.7048    3.5718   30.6481 C   0  0  0  0  0  0
   -3.0590    3.7894   30.6079 N   0  0  0  0  0  0
    0.6299    4.4478   30.6714 C   0  0  0  0  0  0
    1.5511    4.5994   31.7009 C   0  0  0  0  0  0
    2.8114    4.3459   31.4078 N   0  0  0  0  0  0
    2.9747    3.9939   30.1553 C   0  0  0  0  0  0
    4.3289    3.6690   29.5671 C   0  0  0  0  0  0
    1.4973    3.9571   29.2430 S   0  0  0  0  0  0
   -6.9356   -0.1224   31.8083 C   0  0  0  0  0  0
   -7.8825   -1.1307   31.6827 C   0  0  0  0  0  0
   -7.6681   -2.2672   30.9846 N   0  0  0  0  0  0
   -6.4587   -2.4289   30.3838 C   0  0  0  0  0  0
   -6.2220   -3.6128   29.6590 C   0  0  0  0  0  0
   -3.7639   -6.0584   26.9259 H   0  0  0  0  0  0
   -3.4744   -4.3216   26.8087 H   0  0  0  0  0  0
   -2.8750   -5.2437   28.2078 H   0  0  0  0  0  0
   -3.0580   -2.9004   28.6813 H   0  0  0  0  0  0
   -5.0919    1.4435   32.1150 H   0  0  0  0  0  0
   -4.5189    1.1442   29.3654 H   0  0  0  0  0  0
   -3.0588    1.0464   30.2967 H   0  0  0  0  0  0
   -0.6767    6.8006   30.6058 H   0  0  0  0  0  0
   -1.3671    2.5492   30.6433 H   0  0  0  0  0  0
    1.3032    4.9053   32.7064 H   0  0  0  0  0  0
    4.9242    3.0405   30.2292 H   0  0  0  0  0  0
    4.9079    4.5720   29.3762 H   0  0  0  0  0  0
    4.2507    3.1395   28.6171 H   0  0  0  0  0  0
   -7.1716    0.7522   32.3982 H   0  0  0  0  0  0
   -8.8476   -1.0404   32.1611 H   0  0  0  0  0  0
   -7.0022   -4.3548   29.5791 H   0  0  0  0  0  0
  1  2  1  0  0  0
  1 31  1  0  0  0
  1 32  1  0  0  0
  1 33  1  0  0  0
  2  3  1  0  0  0
  3  4  2  0  0  0
  3 30  1  0  0  0
  4  5  1  0  0  0
  4 34  1  0  0  0
  5  6  2  0  0  0
  6  7  1  0  0  0
  6 29  1  0  0  0
  7  8  1  0  0  0
  7 26  2  0  0  0
  8  9  1  0  0  0
  8 35  1  0  0  0
  9 10  1  0  0  0
  9 36  1  0  0  0
  9 37  1  0  0  0
 10 11  2  0  0  0
 10 19  1  0  0  0
 11 12  1  0  0  0
 12 13  2  0  0  0
 13 14  1  0  0  0
 13 19  1  0  0  0
 14 15  1  0  0  0
 14 16  2  0  0  0
 16 17  1  0  0  0
 16 38  1  0  0  0
 17 18  2  0  0  0
 17 20  1  0  0  0
 18 19  1  0  0  0
 18 39  1  0  0  0
 20 21  2  0  0  0
 20 25  1  0  0  0
 21 22  1  0  0  0
 21 40  1  0  0  0
 22 23  2  0  0  0
 23 24  1  0  0  0
 23 25  1  0  0  0
 24 41  1  0  0  0
 24 42  1  0  0  0
 24 43  1  0  0  0
 26 27  1  0  0  0
 26 44  1  0  0  0
 27 28  2  0  0  0
 27 45  1  0  0  0
 28 29  1  0  0  0
 29 30  2  0  0  0
 30 46  1  0  0  0
M  END
> <s_m_entry_id>
10528

> <s_m_entry_name>
dock_pv.597

> <s_m_Source_Path>
/home/csk/Desktop/cluster/DUD-E-result/met

> <s_m_Source_File>
dock_pv.maegz

> <i_m_Source_File_Index>
597

> <chembl_id>
CHEMBL3668183

> <chembl_pref_name>
None

> <i_lp_mmshare_version>
53161

> <i_f3d_flags>
0

> <r_lp_tautomer_probability>
1

> <s_lp_Force_Field>
OPLS_2005

> <r_lp_Energy>
27.691885

> <b_lp_Chiralities_Consistent>
1

> <s_lp_Variant>
CHEMBL3717_lig4359-1

> <s_i_glide_gridfile>
glide-grid_3lq8

> <i_i_glide_lignum>
5584

> <i_i_glide_rotatable_bonds>
5

> <r_i_docking_score>
-7.00164778548434

> <r_i_glide_ligand_efficiency>
-0.233388259516145

> <r_i_glide_ligand_efficiency_sa>
-0.725191585654386

> <r_i_glide_ligand_efficiency_ln>
-1.59085066592494

> <r_i_glide_gscore>
-7.00164778548434

> <r_i_glide_lipo>
-2.7759873477849

> <r_i_glide_hbond>
-0.312421623705618

> <r_i_glide_metal>
0

> <r_i_glide_rewards>
-1.93216818039186

> <r_i_glide_evdw>
-40.122917175293

> <r_i_glide_ecoul>
-2.80568075180054

> <r_i_glide_erotb>
0.44592733793277

> <r_i_glide_esite>
0

> <r_i_glide_emodel>
-53.0861041868763

> <r_i_glide_energy>
-42.9285979270935

> <r_i_glide_einternal>
11.0323143005371

> <i_i_glide_confnum>
20

> <i_i_glide_posenum>
113

> <r_i_glide_eff_state_penalty>
0

> <s_user_duplicate_titles>
CHEMBL3717_lig4359

> <s_m_subgroup_title>
dock_pv

> <s_m_subgroupid>
dock_pv

> <b_m_subgroup_collapsed>
1

$$$$
CHEMBL3717_lig1834
                    3D
 Schrodinger Suite 2021-1.
 41 45  0  0  1  0            999 V2000
    0.7658    5.8125   30.3070 C   0  0  0  0  0  0
    0.3053    7.0687   29.9253 C   0  0  0  0  0  0
   -1.0534    7.3613   29.9311 C   0  0  0  0  0  0
   -0.1273    4.8038   30.6603 C   0  0  0  0  0  0
   -1.5288    5.0474   30.6082 C   0  0  0  0  0  0
   -1.9895    6.3568   30.2637 C   0  0  0  0  0  0
   -3.3144    6.6594   30.2082 N   0  0  0  0  0  0
   -4.1782    5.6294   30.3572 C   0  0  0  0  0  0
   -3.8602    4.3413   30.6081 N   0  0  0  0  0  0
   -2.5438    4.0610   30.7919 C   0  0  0  0  0  0
   -2.1975    2.7570   31.1902 N   0  0  0  0  0  0
   -2.9166    1.5493   31.2297 C   0  0  0  0  0  0
   -3.9944    1.3015   30.3652 C   0  0  0  0  0  0
   -3.0859   -0.6858   32.2081 C   0  0  0  0  0  0
   -2.4941    0.5749   32.1444 C   0  0  0  0  0  0
   -4.1662   -0.9484   31.3618 C   0  0  0  0  0  0
   -4.6058    0.0472   30.4580 C   0  0  0  0  0  0
   -5.6589   -0.5525   29.8073 N   0  0  0  0  0  0
   -5.8101   -1.8191   30.3319 C   0  0  0  0  0  0
   -4.9184   -2.0855   31.2566 N   0  0  0  0  0  0
   -6.8647   -2.7815   29.8922 C   0  0  0  0  0  0
   -6.6415   -4.1623   29.9767 C   0  0  0  0  0  0
   -7.6225   -5.0713   29.5761 C   0  0  0  0  0  0
   -8.8512   -4.6008   29.0932 C   0  0  0  0  0  0
   -9.0827   -3.2270   29.0144 C   0  0  0  0  0  0
   -8.0953   -2.3234   29.4075 C   0  0  0  0  0  0
   -7.2844   -6.7640   29.6808 Cl  0  0  0  0  0  0
  -10.0958   -5.6879   28.5823 Cl  0  0  0  0  0  0
    1.8275    5.6128   30.3119 H   0  0  0  0  0  0
    1.0117    7.8323   29.6372 H   0  0  0  0  0  0
   -1.3941    8.3564   29.6716 H   0  0  0  0  0  0
    0.2442    3.8218   30.9145 H   0  0  0  0  0  0
   -5.2291    5.8624   30.2463 H   0  0  0  0  0  0
   -1.2676    2.6949   31.5713 H   0  0  0  0  0  0
   -4.3262    2.0322   29.6454 H   0  0  0  0  0  0
   -2.7309   -1.4357   32.8989 H   0  0  0  0  0  0
   -1.6715    0.7923   32.8096 H   0  0  0  0  0  0
   -6.2305   -0.1889   29.0609 H   0  0  0  0  0  0
   -5.6945   -4.5338   30.3482 H   0  0  0  0  0  0
  -10.0281   -2.8612   28.6416 H   0  0  0  0  0  0
   -8.2978   -1.2649   29.3405 H   0  0  0  0  0  0
  1  2  2  0  0  0
  1  4  1  0  0  0
  1 29  1  0  0  0
  2  3  1  0  0  0
  2 30  1  0  0  0
  3  6  2  0  0  0
  3 31  1  0  0  0
  4  5  2  0  0  0
  4 32  1  0  0  0
  5  6  1  0  0  0
  5 10  1  0  0  0
  6  7  1  0  0  0
  7  8  2  0  0  0
  8  9  1  0  0  0
  8 33  1  0  0  0
  9 10  2  0  0  0
 10 11  1  0  0  0
 11 12  1  0  0  0
 11 34  1  0  0  0
 12 13  2  0  0  0
 12 15  1  0  0  0
 13 17  1  0  0  0
 13 35  1  0  0  0
 14 16  1  0  0  0
 14 15  2  0  0  0
 14 36  1  0  0  0
 15 37  1  0  0  0
 16 17  2  0  0  0
 16 20  1  0  0  0
 17 18  1  0  0  0
 18 19  1  0  0  0
 18 38  1  0  0  0
 19 20  2  0  0  0
 19 21  1  0  0  0
 21 22  2  0  0  0
 21 26  1  0  0  0
 22 23  1  0  0  0
 22 39  1  0  0  0
 23 24  2  0  0  0
 23 27  1  0  0  0
 24 25  1  0  0  0
 24 28  1  0  0  0
 25 26  2  0  0  0
 25 40  1  0  0  0
 26 41  1  0  0  0
M  END
> <s_m_entry_id>
10529

> <s_m_entry_name>
dock_pv.598

> <s_m_Source_Path>
/home/csk/Desktop/cluster/DUD-E-result/met

> <s_m_Source_File>
dock_pv.maegz

> <i_m_Source_File_Index>
598

> <chembl_id>
CHEMBL3321910

> <chembl_pref_name>
None

> <i_lp_mmshare_version>
53161

> <i_f3d_flags>
0

> <r_lp_tautomer_probability>
0.999978000241998

> <s_lp_Force_Field>
OPLS_2005

> <r_lp_Energy>
22.065244

> <b_lp_Chiralities_Consistent>
1

> <s_lp_Variant>
CHEMBL3717_lig1834-1

> <s_i_glide_gridfile>
glide-grid_3lq8

> <i_i_glide_lignum>
2120

> <i_i_glide_rotatable_bonds>
3

> <r_i_docking_score>
-6.99632857375926

> <r_i_glide_ligand_efficiency>
-0.249868877634259

> <r_i_glide_ligand_efficiency_sa>
-0.758749077396372

> <r_i_glide_ligand_efficiency_ln>
-1.61495805595667

> <r_i_glide_gscore>
-6.99632857375926

> <r_i_glide_lipo>
-2.82638828089014

> <r_i_glide_hbond>
-0.280038837583296

> <r_i_glide_metal>
0

> <r_i_glide_rewards>
-2.27369165097363

> <r_i_glide_evdw>
-31.998327255249

> <r_i_glide_ecoul>
-2.34840607643127

> <r_i_glide_erotb>
0.357352248486547

> <r_i_glide_esite>
-0.0213847785715963

> <r_i_glide_emodel>
-46.2674959967346

> <r_i_glide_energy>
-34.3467333316803

> <r_i_glide_einternal>
4.14451169967651

> <i_i_glide_confnum>
1

> <i_i_glide_posenum>
15

> <r_i_glide_eff_state_penalty>
0

> <s_user_duplicate_titles>
CHEMBL3717_lig1834

> <s_m_subgroup_title>
dock_pv

> <s_m_subgroupid>
dock_pv

> <b_m_subgroup_collapsed>
1

$$$$
CHEMBL3717_lig3737
                    3D
 Schrodinger Suite 2021-1.
 34 36  0  0  1  0            999 V2000
    1.1061    6.7570   30.2607 F   0  0  0  0  0  0
    1.6728    5.1570   31.6243 F   0  0  0  0  0  0
    1.6398    4.8175   29.4843 F   0  0  0  0  0  0
   -6.9057    2.0702   29.9386 O   0  0  0  0  0  0
   -3.7943    6.3903   30.6217 N   0  0  0  0  0  0
   -4.6963    2.2562   30.4730 N   0  0  0  0  0  0
   -5.6876    0.2171   30.2600 N   0  0  0  0  0  0
   -3.8103   -0.2218   31.7225 N   0  0  0  0  0  0
   -3.0923   -2.3716   30.0622 N   0  0  0  0  0  0
   -3.0793    4.0580   30.6080 C   0  0  0  0  0  0
   -2.8050    5.4603   30.6191 C   0  0  0  0  0  0
   -0.4098    4.9925   30.6079 C   0  0  0  0  0  0
   -4.4440    3.6385   30.5300 C   0  0  0  0  0  0
   -1.4653    5.9095   30.6080 C   0  0  0  0  0  0
    1.0350    5.4486   30.4919 C   0  0  0  0  0  0
   -1.9809    3.1570   30.6616 C   0  0  0  0  0  0
   -0.6764    3.6287   30.6594 C   0  0  0  0  0  0
   -5.4443    4.6176   30.5537 C   0  0  0  0  0  0
   -5.0745    5.9562   30.6081 C   0  0  0  0  0  0
   -5.8254    1.5624   30.2268 C   0  0  0  0  0  0
   -4.5520   -0.5383   30.6182 C   0  0  0  0  0  0
   -4.1960   -1.6211   29.8077 C   0  0  0  0  0  0
   -2.7117   -0.9779   31.9830 C   0  0  0  0  0  0
   -2.3534   -2.0435   31.1541 C   0  0  0  0  0  0
   -3.8927    1.6788   30.6625 H   0  0  0  0  0  0
   -6.4522   -0.3083   29.8641 H   0  0  0  0  0  0
   -1.2755    6.9736   30.5804 H   0  0  0  0  0  0
   -2.1476    2.0907   30.6722 H   0  0  0  0  0  0
    0.1424    2.9231   30.6636 H   0  0  0  0  0  0
   -6.4937    4.3679   30.5267 H   0  0  0  0  0  0
   -5.8325    6.7265   30.6080 H   0  0  0  0  0  0
   -4.7615   -1.8842   28.9244 H   0  0  0  0  0  0
   -2.1286   -0.7192   32.8545 H   0  0  0  0  0  0
   -1.4828   -2.6516   31.3515 H   0  0  0  0  0  0
  1 15  1  0  0  0
  2 15  1  0  0  0
  3 15  1  0  0  0
  4 20  2  0  0  0
  5 11  1  0  0  0
  5 19  2  0  0  0
  6 13  1  0  0  0
  6 20  1  0  0  0
  6 25  1  0  0  0
  7 20  1  0  0  0
  7 21  1  0  0  0
  7 26  1  0  0  0
  8 21  1  0  0  0
  8 23  2  0  0  0
  9 22  1  0  0  0
  9 24  2  0  0  0
 10 11  1  0  0  0
 10 13  1  0  0  0
 10 16  2  0  0  0
 11 14  2  0  0  0
 12 14  1  0  0  0
 12 15  1  0  0  0
 12 17  2  0  0  0
 13 18  2  0  0  0
 14 27  1  0  0  0
 16 17  1  0  0  0
 16 28  1  0  0  0
 17 29  1  0  0  0
 18 19  1  0  0  0
 18 30  1  0  0  0
 19 31  1  0  0  0
 21 22  2  0  0  0
 22 32  1  0  0  0
 23 24  1  0  0  0
 23 33  1  0  0  0
 24 34  1  0  0  0
M  END
> <s_m_entry_id>
10531

> <s_m_entry_name>
dock_pv.600

> <s_m_Source_Path>
/home/csk/Desktop/cluster/DUD-E-result/met

> <s_m_Source_File>
dock_pv.maegz

> <i_m_Source_File_Index>
600

> <chembl_id>
CHEMBL2003817

> <chembl_pref_name>
None

> <i_lp_mmshare_version>
53161

> <i_f3d_flags>
0

> <r_lp_tautomer_probability>
1

> <s_lp_Force_Field>
OPLS_2005

> <r_lp_Energy>
26.20095

> <b_lp_Chiralities_Consistent>
1

> <s_lp_Variant>
CHEMBL3717_lig3737-1

> <s_i_glide_gridfile>
glide-grid_3lq8

> <i_i_glide_lignum>
4719

> <i_i_glide_rotatable_bonds>
5

> <r_i_docking_score>
-6.99035513538592

> <r_i_glide_ligand_efficiency>
-0.291264797307747

> <r_i_glide_ligand_efficiency_sa>
-0.840153056635527

> <r_i_glide_ligand_efficiency_ln>
-1.67311275039359

> <r_i_glide_gscore>
-6.99035513538592

> <r_i_glide_lipo>
-2.46657334734119

> <r_i_glide_hbond>
0

> <r_i_glide_metal>
0

> <r_i_glide_rewards>
-3.03851972649609

> <r_i_glide_evdw>
-34.6768760681152

> <r_i_glide_ecoul>
-1.73627257347107

> <r_i_glide_erotb>
0.509022627877781

> <r_i_glide_esite>
0

> <r_i_glide_emodel>
-47.5403650778635

> <r_i_glide_energy>
-36.4131486415863

> <r_i_glide_einternal>
3.56902194023132

> <i_i_glide_confnum>
1

> <i_i_glide_posenum>
13

> <r_i_glide_eff_state_penalty>
0

> <s_user_duplicate_titles>
CHEMBL3717_lig3737

> <s_m_subgroup_title>
dock_pv

> <s_m_subgroupid>
dock_pv

> <b_m_subgroup_collapsed>
1

$$$$
CHEMBL3717_lig3326 
                    3D
 Schrodinger Suite 2021-1.
 43 47  0  0  1  0            999 V2000
   -4.9214    3.3264   30.2481 C   0  0  0  0  0  0
   -3.9754    2.3161   30.5121 C   0  0  0  0  0  0
   -2.6714    2.6298   30.7865 N   0  0  0  0  0  0
   -4.6076    4.6530   30.2075 N   0  0  0  0  0  0
   -3.3180    4.9499   30.3994 C   0  0  0  0  0  0
   -2.3799    3.9331   30.7025 C   0  0  0  0  0  0
   -1.1891    4.5984   30.9003 N   0  0  0  0  0  0
   -1.4579    5.9223   30.6084 C   0  0  0  0  0  0
   -2.7154    6.1773   30.3336 N   0  0  0  0  0  0
    0.0479    4.0486   31.4357 C   0  0  0  0  0  0
    1.2744    4.0000   30.5507 C   0  0  0  0  0  0
    1.1995    3.6690   29.1984 C   0  0  0  0  0  0
    2.3508    3.6287   28.4170 C   0  0  0  0  0  0
    2.5103    4.2492   31.1503 C   0  0  0  0  0  0
    3.6896    4.2319   30.3843 C   0  0  0  0  0  0
    3.6055    3.9351   28.9958 C   0  0  0  0  0  0
    4.7058    3.9639   28.2079 N   0  0  0  0  0  0
    5.8893    4.3570   28.7427 C   0  0  0  0  0  0
    6.0685    4.6129   30.0939 C   0  0  0  0  0  0
    4.9632    4.5243   30.9289 C   0  0  0  0  0  0
   -4.3290    0.8564   30.5061 C   0  0  0  0  0  0
   -3.5773   -0.0872   31.2278 C   0  0  0  0  0  0
   -3.8917   -1.4459   31.1842 C   0  0  0  0  0  0
   -4.9739   -1.8823   30.4249 C   0  0  0  0  0  0
   -5.7409   -0.9639   29.7156 C   0  0  0  0  0  0
   -5.4151    0.3901   29.7501 C   0  0  0  0  0  0
   -5.2938   -3.2389   30.3650 N   0  0  0  0  0  0
   -5.9609    3.0952   30.0728 H   0  0  0  0  0  0
   -0.6685    6.6554   30.6849 H   0  0  0  0  0  0
   -0.1496    3.0441   31.8081 H   0  0  0  0  0  0
    0.3060    4.6748   32.2868 H   0  0  0  0  0  0
    0.2459    3.4386   28.7468 H   0  0  0  0  0  0
    2.2893    3.3858   27.3657 H   0  0  0  0  0  0
    2.5796    4.4811   32.2038 H   0  0  0  0  0  0
    6.7286    4.4026   28.0641 H   0  0  0  0  0  0
    7.0395    4.8900   30.4781 H   0  0  0  0  0  0
    5.0592    4.7568   31.9770 H   0  0  0  0  0  0
   -2.7338    0.2268   31.8246 H   0  0  0  0  0  0
   -3.2937   -2.1559   31.7368 H   0  0  0  0  0  0
   -6.5749   -1.2952   29.1149 H   0  0  0  0  0  0
   -6.0116    1.0695   29.1610 H   0  0  0  0  0  0
   -6.0123   -3.5124   29.7140 H   0  0  0  0  0  0
   -4.5731   -3.9177   30.6083 H   0  0  0  0  0  0
  1  2  2  0  0  0
  1  4  1  0  0  0
  1 28  1  0  0  0
  2  3  1  0  0  0
  2 21  1  0  0  0
  3  6  2  0  0  0
  4  5  2  0  0  0
  5  6  1  0  0  0
  5  9  1  0  0  0
  6  7  1  0  0  0
  7  8  1  0  0  0
  7 10  1  0  0  0
  8  9  2  0  0  0
  8 29  1  0  0  0
 10 11  1  0  0  0
 10 30  1  0  0  0
 10 31  1  0  0  0
 11 12  2  0  0  0
 11 14  1  0  0  0
 12 13  1  0  0  0
 12 32  1  0  0  0
 13 16  2  0  0  0
 13 33  1  0  0  0
 14 15  2  0  0  0
 14 34  1  0  0  0
 15 16  1  0  0  0
 15 20  1  0  0  0
 16 17  1  0  0  0
 17 18  2  0  0  0
 18 19  1  0  0  0
 18 35  1  0  0  0
 19 20  2  0  0  0
 19 36  1  0  0  0
 20 37  1  0  0  0
 21 22  2  0  0  0
 21 26  1  0  0  0
 22 23  1  0  0  0
 22 38  1  0  0  0
 23 24  2  0  0  0
 23 39  1  0  0  0
 24 25  1  0  0  0
 24 27  1  0  0  0
 25 26  2  0  0  0
 25 40  1  0  0  0
 26 41  1  0  0  0
 27 42  1  0  0  0
 27 43  1  0  0  0
M  END
> <s_m_entry_id>
10532

> <s_m_entry_name>
dock_pv.601

> <s_m_Source_Path>
/home/csk/Desktop/cluster/DUD-E-result/met

> <s_m_Source_File>
dock_pv.maegz

> <i_m_Source_File_Index>
601

> <chembl_id>
CHEMBL4529060

> <chembl_pref_name>
None

> <i_lp_mmshare_version>
53161

> <i_f3d_flags>
0

> <r_lp_tautomer_probability>
1

> <s_lp_Force_Field>
OPLS_2005

> <r_lp_Energy>
29.655327

> <b_lp_Chiralities_Consistent>
1

> <s_lp_Variant>
CHEMBL3717_lig3326 -1

> <s_i_glide_gridfile>
glide-grid_3lq8

> <i_i_glide_lignum>
4049

> <i_i_glide_rotatable_bonds>
3

> <r_i_docking_score>
-6.99029013450709

> <r_i_glide_ligand_efficiency>
-0.258899634611374

> <r_i_glide_ligand_efficiency_sa>
-0.776698902980831

> <r_i_glide_ligand_efficiency_ln>
-1.62722429937358

> <r_i_glide_gscore>
-6.99029013450709

> <r_i_glide_lipo>
-2.93311130087285

> <r_i_glide_hbond>
-0.16

> <r_i_glide_metal>
0

> <r_i_glide_rewards>
-1.98907580359758

> <r_i_glide_evdw>
-39.6940116882324

> <r_i_glide_ecoul>
-2.22510957717896

> <r_i_glide_erotb>
0.46104839423149

> <r_i_glide_esite>
-0.0506844032796935

> <r_i_glide_emodel>
-55.7770248440749

> <r_i_glide_energy>
-41.9191212654114

> <r_i_glide_einternal>
2.51265168190002

> <i_i_glide_confnum>
11

> <i_i_glide_posenum>
60

> <r_i_glide_eff_state_penalty>
0

> <s_user_duplicate_titles>
CHEMBL3717_lig3326 

> <s_m_subgroup_title>
dock_pv

> <s_m_subgroupid>
dock_pv

> <b_m_subgroup_collapsed>
1

$$$$
CHEMBL3717_lig4370
                    3D
 Schrodinger Suite 2021-1.
 51 55  0  0  1  0            999 V2000
   -0.2865   -1.4293   34.2107 C   0  0  0  0  0  0
   -1.1524   -2.4015   33.6288 O   0  0  0  0  0  0
   -2.2997   -1.9564   33.0077 C   0  0  0  0  0  0
   -2.4852   -0.6412   32.5638 C   0  0  0  0  0  0
   -3.7155   -0.2196   32.0676 C   0  0  0  0  0  0
   -4.7997   -1.1245   31.9333 C   0  0  0  0  0  0
   -6.0787   -0.7910   31.3872 C   0  0  0  0  0  0
   -6.3751    0.6004   30.8411 C   0  0  0  0  0  0
   -5.8006    0.8622   29.4268 C   0  0  0  0  0  0
   -4.4577    1.6304   29.3702 C   0  0  0  0  0  0
   -4.4939    2.9760   30.0920 C   0  0  0  0  0  0
   -5.5733    3.7276   30.2082 N   0  0  0  0  0  0
   -5.2229    4.9766   30.6834 N   0  0  0  0  0  0
   -3.8831    4.9513   30.8326 C   0  0  0  0  0  0
   -2.9568    5.9332   31.1805 C   0  0  0  0  0  0
   -1.6098    5.5746   31.1729 C   0  0  0  0  0  0
   -1.2045    4.2805   30.8694 C   0  0  0  0  0  0
   -2.0903    3.2748   30.6069 N   0  0  0  0  0  0
   -3.3874    3.6646   30.5575 N   0  0  0  0  0  0
    0.2494    4.0167   30.6882 C   0  0  0  0  0  0
    0.7368    3.5565   29.4602 C   0  0  0  0  0  0
    2.1008    3.3686   29.2543 C   0  0  0  0  0  0
    2.9950    3.6561   30.2814 C   0  0  0  0  0  0
    2.5347    4.1410   31.5017 C   0  0  0  0  0  0
    1.1687    4.3389   31.6939 C   0  0  0  0  0  0
   -7.0753   -1.7704   31.3386 C   0  0  0  0  0  0
   -6.8022   -3.0406   31.8285 C   0  0  0  0  0  0
   -5.6088   -3.3938   32.3547 N   0  0  0  0  0  0
   -4.6161   -2.4620   32.3948 C   0  0  0  0  0  0
   -3.3710   -2.8432   32.9311 C   0  0  0  0  0  0
    0.4557   -1.9297   34.8333 H   0  0  0  0  0  0
   -0.8333   -0.7361   34.8522 H   0  0  0  0  0  0
    0.2459   -0.8544   33.4510 H   0  0  0  0  0  0
   -1.6915    0.0856   32.6290 H   0  0  0  0  0  0
   -3.8427    0.8166   31.8065 H   0  0  0  0  0  0
   -7.4596    0.7162   30.7961 H   0  0  0  0  0  0
   -6.0720    1.3545   31.5676 H   0  0  0  0  0  0
   -5.7111   -0.0761   28.8750 H   0  0  0  0  0  0
   -6.5412    1.4370   28.8710 H   0  0  0  0  0  0
   -3.6388    0.9968   29.7007 H   0  0  0  0  0  0
   -4.2163    1.8094   28.3223 H   0  0  0  0  0  0
   -3.2820    6.9378   31.4033 H   0  0  0  0  0  0
   -0.8605    6.3307   31.3600 H   0  0  0  0  0  0
    0.0525    3.3199   28.6583 H   0  0  0  0  0  0
    2.4595    2.9978   28.3045 H   0  0  0  0  0  0
    4.0535    3.5093   30.1225 H   0  0  0  0  0  0
    3.2337    4.3741   32.2902 H   0  0  0  0  0  0
    0.8226    4.7434   32.6302 H   0  0  0  0  0  0
   -8.0473   -1.5500   30.9247 H   0  0  0  0  0  0
   -7.5552   -3.8129   31.8011 H   0  0  0  0  0  0
   -3.2940   -3.8484   33.3127 H   0  0  0  0  0  0
  1  2  1  0  0  0
  1 31  1  0  0  0
  1 32  1  0  0  0
  1 33  1  0  0  0
  2  3  1  0  0  0
  3  4  2  0  0  0
  3 30  1  0  0  0
  4  5  1  0  0  0
  4 34  1  0  0  0
  5  6  2  0  0  0
  5 35  1  0  0  0
  6  7  1  0  0  0
  6 29  1  0  0  0
  7  8  1  0  0  0
  7 26  2  0  0  0
  8  9  1  0  0  0
  8 36  1  0  0  0
  8 37  1  0  0  0
  9 10  1  0  0  0
  9 38  1  0  0  0
  9 39  1  0  0  0
 10 11  1  0  0  0
 10 40  1  0  0  0
 10 41  1  0  0  0
 11 12  2  0  0  0
 11 19  1  0  0  0
 12 13  1  0  0  0
 13 14  2  0  0  0
 14 15  1  0  0  0
 14 19  1  0  0  0
 15 16  2  0  0  0
 15 42  1  0  0  0
 16 17  1  0  0  0
 16 43  1  0  0  0
 17 18  2  0  0  0
 17 20  1  0  0  0
 18 19  1  0  0  0
 20 21  2  0  0  0
 20 25  1  0  0  0
 21 22  1  0  0  0
 21 44  1  0  0  0
 22 23  2  0  0  0
 22 45  1  0  0  0
 23 24  1  0  0  0
 23 46  1  0  0  0
 24 25  2  0  0  0
 24 47  1  0  0  0
 25 48  1  0  0  0
 26 27  1  0  0  0
 26 49  1  0  0  0
 27 28  2  0  0  0
 27 50  1  0  0  0
 28 29  1  0  0  0
 29 30  2  0  0  0
 30 51  1  0  0  0
M  END
> <s_m_entry_id>
10533

> <s_m_entry_name>
dock_pv.602

> <s_m_Source_Path>
/home/csk/Desktop/cluster/DUD-E-result/met

> <s_m_Source_File>
dock_pv.maegz

> <i_m_Source_File_Index>
602

> <chembl_id>
CHEMBL3668194

> <chembl_pref_name>
None

> <i_lp_mmshare_version>
53161

> <i_f3d_flags>
0

> <r_lp_tautomer_probability>
1

> <s_lp_Force_Field>
OPLS_2005

> <r_lp_Energy>
24.094091

> <b_lp_Chiralities_Consistent>
1

> <s_lp_Variant>
CHEMBL3717_lig4370-1

> <s_i_glide_gridfile>
glide-grid_3lq8

> <i_i_glide_lignum>
5595

> <i_i_glide_rotatable_bonds>
6

> <r_i_docking_score>
-6.98620166900375

> <r_i_glide_ligand_efficiency>
-0.232873388966792

> <r_i_glide_ligand_efficiency_sa>
-0.723591763148892

> <r_i_glide_ligand_efficiency_ln>
-1.58734113996163

> <r_i_glide_gscore>
-6.98620166900375

> <r_i_glide_lipo>
-3.58094027121245

> <r_i_glide_hbond>
0

> <r_i_glide_metal>
0

> <r_i_glide_rewards>
-2.3475489836967

> <r_i_glide_evdw>
-39.6972618103027

> <r_i_glide_ecoul>
2.01287984848022

> <r_i_glide_erotb>
0.625218699148501

> <r_i_glide_esite>
0

> <r_i_glide_emodel>
-48.6028642191516

> <r_i_glide_energy>
-37.6843819618225

> <r_i_glide_einternal>
4.73586654663086

> <i_i_glide_confnum>
8

> <i_i_glide_posenum>
30

> <r_i_glide_eff_state_penalty>
0

> <s_user_duplicate_titles>
CHEMBL3717_lig4370

> <s_m_subgroup_title>
dock_pv

> <s_m_subgroupid>
dock_pv

> <b_m_subgroup_collapsed>
1

$$$$
CHEMBL3717_lig2654
                    3D
 Schrodinger Suite 2021-1.
 48 51  0  0  1  0            999 V2000
   -6.1651   -2.4825   33.2704 C   0  0  0  0  0  0
   -5.3942   -1.7726   32.1680 C   0  0  0  0  0  0
   -5.9649   -1.1250   31.1203 C   0  0  0  0  0  0
   -7.3805   -1.0826   30.9455 C   0  0  0  0  0  0
   -8.5250   -1.0268   30.7850 N   0  0  0  0  0  0
   -5.0646   -0.5017   30.0499 C   0  0  2  0  0  0
   -3.7345   -1.3500   29.9603 C   0  0  2  0  0  0
   -3.9581   -2.5931   29.2007 C   0  0  0  0  0  0
   -4.1325   -3.5703   28.6074 N   0  0  0  0  0  0
   -3.2561   -1.7901   31.3584 C   0  0  0  0  0  0
   -4.0494   -1.9036   32.3557 N   0  0  0  0  0  0
   -1.7922   -2.1140   31.5841 C   0  0  0  0  0  0
   -4.8958    1.0196   30.2391 C   0  0  0  0  0  0
   -6.0166    1.8475   30.0962 C   0  0  0  0  0  0
   -5.9379    3.2361   30.2109 C   0  0  0  0  0  0
   -4.6843    3.8196   30.4372 C   0  0  0  0  0  0
   -4.3867    5.1501   30.5446 N   0  0  0  0  0  0
   -3.0579    5.1447   30.7418 N   0  0  0  0  0  0
   -2.4603    3.9071   30.7655 C   0  0  0  0  0  0
   -0.7591    3.5577   31.0089 S   0  0  0  0  0  0
    0.0869    5.0412   30.3967 C   0  0  0  0  0  0
    1.4536    4.6130   29.8911 C   0  0  0  0  0  0
    1.5740    4.0280   28.6285 C   0  0  0  0  0  0
    2.8002    3.5238   28.2083 C   0  0  0  0  0  0
    3.9058    3.6199   29.0489 C   0  0  0  0  0  0
    3.8018    4.2254   30.2986 C   0  0  0  0  0  0
    2.5709    4.7188   30.7221 C   0  0  0  0  0  0
   -3.5315    2.9926   30.5885 C   0  0  0  0  0  0
   -3.6498    1.5950   30.5161 C   0  0  0  0  0  0
   -5.8992   -3.5398   33.3001 H   0  0  0  0  0  0
   -5.9319   -2.0430   34.2387 H   0  0  0  0  0  0
   -7.2446   -2.4159   33.1367 H   0  0  0  0  0  0
   -5.5651   -0.5874   29.0818 H   0  0  0  0  0  0
   -2.9475   -0.8115   29.4343 H   0  0  0  0  0  0
   -1.4662   -2.8983   30.9012 H   0  0  0  0  0  0
   -1.1688   -1.2428   31.4082 H   0  0  0  0  0  0
   -1.5930   -2.4585   32.5999 H   0  0  0  0  0  0
   -6.9810    1.4078   29.8845 H   0  0  0  0  0  0
   -6.8214    3.8473   30.0957 H   0  0  0  0  0  0
   -2.5496    6.0067   30.8682 H   0  0  0  0  0  0
   -0.4756    5.5481   29.6142 H   0  0  0  0  0  0
    0.1907    5.7522   31.2173 H   0  0  0  0  0  0
    0.7092    3.9262   27.9929 H   0  0  0  0  0  0
    2.8871    3.0438   27.2446 H   0  0  0  0  0  0
    4.8484    3.2038   28.7323 H   0  0  0  0  0  0
    4.6660    4.2946   30.9423 H   0  0  0  0  0  0
    2.4802    5.1569   31.7050 H   0  0  0  0  0  0
   -2.7685    0.9869   30.6407 H   0  0  0  0  0  0
  1  2  1  0  0  0
  1 30  1  0  0  0
  1 31  1  0  0  0
  1 32  1  0  0  0
  2  3  2  0  0  0
  2 11  1  0  0  0
  3  4  1  0  0  0
  3  6  1  0  0  0
  4  5  3  0  0  0
  6  7  1  0  0  0
  6 33  1  0  0  0
  6 13  1  0  0  0
  7  8  1  0  0  0
  7 10  1  0  0  0
  7 34  1  0  0  0
  8  9  3  0  0  0
 10 11  2  0  0  0
 10 12  1  0  0  0
 12 35  1  0  0  0
 12 36  1  0  0  0
 12 37  1  0  0  0
 13 14  1  0  0  0
 13 29  2  0  0  0
 14 15  2  0  0  0
 14 38  1  0  0  0
 15 16  1  0  0  0
 15 39  1  0  0  0
 16 17  2  0  0  0
 16 28  1  0  0  0
 17 18  1  0  0  0
 18 40  1  0  0  0
 18 19  1  0  0  0
 19 28  2  0  0  0
 19 20  1  0  0  0
 20 21  1  0  0  0
 21 22  1  0  0  0
 21 41  1  0  0  0
 21 42  1  0  0  0
 22 23  2  0  0  0
 22 27  1  0  0  0
 23 24  1  0  0  0
 23 43  1  0  0  0
 24 25  2  0  0  0
 24 44  1  0  0  0
 25 26  1  0  0  0
 25 45  1  0  0  0
 26 27  2  0  0  0
 26 46  1  0  0  0
 27 47  1  0  0  0
 28 29  1  0  0  0
 29 48  1  0  0  0
M  END
> <s_m_entry_id>
10534

> <s_m_entry_name>
dock_pv.603

> <s_m_Source_Path>
/home/csk/Desktop/cluster/DUD-E-result/met

> <s_m_Source_File>
dock_pv.maegz

> <i_m_Source_File_Index>
603

> <chembl_id>
CHEMBL3648320

> <chembl_pref_name>
None

> <i_lp_mmshare_version>
53161

> <i_f3d_flags>
0

> <r_lp_tautomer_probability>
0.0196078431372549

> <s_lp_Force_Field>
OPLS_2005

> <r_lp_Energy>
37.428474

> <b_lp_Chiralities_Consistent>
1

> <s_lp_Variant>
CHEMBL3717_lig2654-5

> <s_i_glide_gridfile>
glide-grid_3lq8

> <i_i_glide_lignum>
3025

> <i_i_glide_rotatable_bonds>
4

> <r_i_docking_score>
-6.98593814518662

> <r_i_glide_ligand_efficiency>
-0.240894418799538

> <r_i_glide_ligand_efficiency_sa>
-0.740103975260919

> <r_i_glide_ligand_efficiency_ln>
-1.59960268714113

> <r_i_glide_gscore>
-6.98593814518662

> <r_i_glide_lipo>
-3.77682999343227

> <r_i_glide_hbond>
0

> <r_i_glide_metal>
0

> <r_i_glide_rewards>
-1.48454140964875

> <r_i_glide_evdw>
-42.5500679016113

> <r_i_glide_ecoul>
-0.383122444152832

> <r_i_glide_erotb>
0.495567498373856

> <r_i_glide_esite>
-0.0351624787759604

> <r_i_glide_emodel>
-56.0466420945733

> <r_i_glide_energy>
-42.9331903457642

> <r_i_glide_einternal>
6.25323820114136

> <i_i_glide_confnum>
8

> <i_i_glide_posenum>
88

> <r_i_glide_eff_state_penalty>
0

> <s_user_duplicate_titles>
CHEMBL3717_lig2654

> <s_m_subgroup_title>
dock_pv

> <s_m_subgroupid>
dock_pv

> <b_m_subgroup_collapsed>
1

$$$$
CHEMBL3717_lig4183
                    3D
 Schrodinger Suite 2021-1.
 52 55  0  0  1  0            999 V2000
   -4.9014    2.0513   30.2924 O   0  0  0  0  0  0
    3.2721    4.7947   30.0101 N   0  0  0  0  0  0
    3.6766    3.6699   30.6077 N   0  0  0  0  0  0
   -4.4987    5.6255   30.8388 N   0  0  0  0  0  0
   -4.8937   -2.8431   30.8205 N   0  0  0  0  0  0
    1.4538    3.9288   30.9304 C   0  0  0  0  0  0
    1.9329    5.0510   30.2259 C   0  0  0  0  0  0
   -0.7889    4.8376   30.7553 C   0  0  0  0  0  0
    0.0804    3.8307   31.2039 C   0  0  0  0  0  0
    2.6265    3.1473   31.1830 C   0  0  0  0  0  0
   -2.2694    4.6556   30.8086 C   0  0  0  0  0  0
    1.1060    6.1214   29.8833 C   0  0  0  0  0  0
   -0.2508    5.9838   30.1588 C   0  0  0  0  0  0
   -2.8429    3.3910   30.6080 C   0  0  0  0  0  0
   -4.2344    3.2406   30.4974 C   0  0  0  0  0  0
   -3.1521    5.7372   30.9390 C   0  0  0  0  0  0
   -5.0133    4.3930   30.6082 C   0  0  0  0  0  0
    2.7827    1.8826   31.9705 C   0  0  0  0  0  0
   -4.2002    0.8308   30.0527 C   0  0  0  0  0  0
   -5.0505   -0.3899   30.4886 C   0  0  1  0  0  0
   -6.4938   -0.4110   29.8976 C   0  0  0  0  0  0
   -7.4004    0.7311   30.3547 C   0  0  0  0  0  0
   -4.2820   -1.6961   30.1710 C   0  0  0  0  0  0
   -7.9938    1.5699   29.4069 C   0  0  0  0  0  0
   -7.6252    0.9536   31.7177 C   0  0  0  0  0  0
   -8.7836    2.6408   29.8174 C   0  0  0  0  0  0
   -8.4169    2.0227   32.1288 C   0  0  0  0  0  0
   -8.9901    2.8634   31.1769 C   0  0  0  0  0  0
    3.9363    5.3683   29.5115 H   0  0  0  0  0  0
   -4.3934   -3.7076   30.6083 H   0  0  0  0  0  0
   -4.8518   -2.7436   31.8235 H   0  0  0  0  0  0
   -0.3047    2.9580   31.7081 H   0  0  0  0  0  0
    1.4823    7.0112   29.4076 H   0  0  0  0  0  0
   -0.9041    6.7772   29.8273 H   0  0  0  0  0  0
   -2.1882    2.5461   30.4768 H   0  0  0  0  0  0
   -2.7870    6.7407   31.0885 H   0  0  0  0  0  0
   -6.0888    4.3288   30.5285 H   0  0  0  0  0  0
    1.8318    1.4155   32.2077 H   0  0  0  0  0  0
    3.3758    1.1579   31.4081 H   0  0  0  0  0  0
    3.2780    2.0500   32.9256 H   0  0  0  0  0  0
   -3.2688    0.7794   30.6164 H   0  0  0  0  0  0
   -3.9474    0.7739   28.9925 H   0  0  0  0  0  0
   -5.1283   -0.3276   31.5749 H   0  0  0  0  0  0
   -6.9989   -1.3364   30.1776 H   0  0  0  0  0  0
   -6.4343   -0.4328   28.8084 H   0  0  0  0  0  0
   -4.2472   -1.8647   29.0934 H   0  0  0  0  0  0
   -3.2485   -1.6267   30.5151 H   0  0  0  0  0  0
   -7.8334    1.4027   28.3524 H   0  0  0  0  0  0
   -7.1787    0.3092   32.4617 H   0  0  0  0  0  0
   -9.2321    3.2963   29.0846 H   0  0  0  0  0  0
   -8.5814    2.1965   33.1818 H   0  0  0  0  0  0
   -9.6026    3.6949   31.4936 H   0  0  0  0  0  0
  1 15  1  0  0  0
  1 19  1  0  0  0
  2  3  1  0  0  0
  2  7  1  0  0  0
  2 29  1  0  0  0
  3 10  2  0  0  0
  4 16  1  0  0  0
  4 17  2  0  0  0
  5 23  1  0  0  0
  5 30  1  0  0  0
  5 31  1  0  0  0
  6  7  1  0  0  0
  6  9  2  0  0  0
  6 10  1  0  0  0
  7 12  2  0  0  0
  8  9  1  0  0  0
  8 11  1  0  0  0
  8 13  2  0  0  0
  9 32  1  0  0  0
 10 18  1  0  0  0
 11 14  1  0  0  0
 11 16  2  0  0  0
 12 13  1  0  0  0
 12 33  1  0  0  0
 13 34  1  0  0  0
 14 15  2  0  0  0
 14 35  1  0  0  0
 15 17  1  0  0  0
 16 36  1  0  0  0
 17 37  1  0  0  0
 18 38  1  0  0  0
 18 39  1  0  0  0
 18 40  1  0  0  0
 19 20  1  0  0  0
 19 41  1  0  0  0
 19 42  1  0  0  0
 20 21  1  0  0  0
 20 23  1  0  0  0
 20 43  1  0  0  0
 21 22  1  0  0  0
 21 44  1  0  0  0
 21 45  1  0  0  0
 22 24  2  0  0  0
 22 25  1  0  0  0
 23 46  1  0  0  0
 23 47  1  0  0  0
 24 26  1  0  0  0
 24 48  1  0  0  0
 25 27  2  0  0  0
 25 49  1  0  0  0
 26 28  2  0  0  0
 26 50  1  0  0  0
 27 28  1  0  0  0
 27 51  1  0  0  0
 28 52  1  0  0  0
M  END
> <s_m_entry_id>
10535

> <s_m_entry_name>
dock_pv.604

> <s_m_Source_Path>
/home/csk/Desktop/cluster/DUD-E-result/met

> <s_m_Source_File>
dock_pv.maegz

> <i_m_Source_File_Index>
604

> <chembl_id>
CHEMBL2000271

> <chembl_pref_name>
None

> <i_lp_mmshare_version>
53161

> <i_f3d_flags>
0

> <r_lp_tautomer_probability>
0.980392156862745

> <s_lp_Force_Field>
OPLS_2005

> <r_lp_Energy>
22.05967

> <b_lp_Chiralities_Consistent>
1

> <s_lp_Variant>
CHEMBL3717_lig4183-2

> <s_i_glide_gridfile>
glide-grid_3lq8

> <i_i_glide_lignum>
5366

> <i_i_glide_rotatable_bonds>
7

> <r_i_docking_score>
-6.98523059569348

> <r_i_glide_ligand_efficiency>
-0.249472521274767

> <r_i_glide_ligand_efficiency_sa>
-0.757545506047543

> <r_i_glide_ligand_efficiency_ln>
-1.61239631676829

> <r_i_glide_gscore>
-6.98523059569348

> <r_i_glide_lipo>
-3.76764329413343

> <r_i_glide_hbond>
-0.138091488305982

> <r_i_glide_metal>
0

> <r_i_glide_rewards>
-1.63606636929704

> <r_i_glide_evdw>
-38.3543090820312

> <r_i_glide_ecoul>
-1.47890746593475

> <r_i_glide_erotb>
0.696122130034739

> <r_i_glide_esite>
0

> <r_i_glide_emodel>
-55.7471558754387

> <r_i_glide_energy>
-39.833216547966

> <r_i_glide_einternal>
0.867039561271667

> <i_i_glide_confnum>
12

> <i_i_glide_posenum>
187

> <r_i_glide_eff_state_penalty>
0

> <s_user_duplicate_titles>
CHEMBL3717_lig4183

> <s_m_subgroup_title>
dock_pv

> <s_m_subgroupid>
dock_pv

> <b_m_subgroup_collapsed>
1

$$$$
CHEMBL3717_lig2083
                    3D
 Schrodinger Suite 2021-1.
 43 47  0  0  1  0            999 V2000
   -3.6654    1.8467   30.7889 C   0  0  0  0  0  0
   -0.1902    4.7832   30.6082 C   0  0  0  0  0  0
   -0.5935    6.1084   30.4252 C   0  0  0  0  0  0
   -1.9453    6.4577   30.3576 C   0  0  0  0  0  0
   -1.1630    3.7937   30.7222 C   0  0  0  0  0  0
   -2.4906    4.1192   30.6135 N   0  0  0  0  0  0
   -2.9174    5.4466   30.4494 C   0  0  0  0  0  0
   -4.2692    5.4698   30.3906 N   0  0  0  0  0  0
   -4.6959    4.1547   30.4827 N   0  0  0  0  0  0
   -3.6463    3.3629   30.6080 C   0  0  0  0  0  0
    1.2517    4.4060   30.6273 C   0  0  0  0  0  0
   -4.9641    1.1588   30.3864 C   0  0  0  0  0  0
   -5.2793    1.0051   29.0356 C   0  0  0  0  0  0
   -6.4485    0.3571   28.6395 C   0  0  0  0  0  0
   -5.8234    0.6547   31.3648 C   0  0  0  0  0  0
   -7.0170   -0.0097   30.9952 C   0  0  0  0  0  0
   -7.3367   -0.1610   29.6107 C   0  0  0  0  0  0
   -8.4694   -0.7973   29.1965 N   0  0  0  0  0  0
   -9.3060   -1.2962   30.1418 C   0  0  0  0  0  0
   -9.0694   -1.1934   31.5096 C   0  0  0  0  0  0
   -7.9186   -0.5438   31.9502 C   0  0  0  0  0  0
   -2.3036    7.7517   30.2079 F   0  0  0  0  0  0
    1.8850    3.3016   31.2274 C   0  0  0  0  0  0
    3.1810    3.2525   31.0129 N   0  0  0  0  0  0
    3.4357    4.3369   30.2761 N   0  0  0  0  0  0
    2.3031    5.0615   30.0127 C   0  0  0  0  0  0
    4.7928    4.5953   29.8305 C   0  0  0  0  0  0
   -9.9554   -1.7234   32.4078 O   0  0  0  0  0  0
   -3.3968    1.5740   31.8080 H   0  0  0  0  0  0
   -2.8799    1.3791   30.2075 H   0  0  0  0  0  0
    0.1475    6.8890   30.3390 H   0  0  0  0  0  0
   -0.9223    2.7569   30.8428 H   0  0  0  0  0  0
   -4.6027    1.3803   28.2813 H   0  0  0  0  0  0
   -6.6731    0.2288   27.5900 H   0  0  0  0  0  0
   -5.5878    0.7565   32.4138 H   0  0  0  0  0  0
  -10.1924   -1.7960   29.7787 H   0  0  0  0  0  0
   -7.6978   -0.4433   33.0033 H   0  0  0  0  0  0
    1.3981    2.5322   31.8065 H   0  0  0  0  0  0
    2.3290    5.9529   29.4083 H   0  0  0  0  0  0
    4.8426    5.5556   29.3171 H   0  0  0  0  0  0
    5.4625    4.6166   30.6912 H   0  0  0  0  0  0
    5.1057    3.8062   29.1454 H   0  0  0  0  0  0
   -9.6860   -1.5896   33.3192 H   0  0  0  0  0  0
  1 10  1  0  0  0
  1 12  1  0  0  0
  1 29  1  0  0  0
  1 30  1  0  0  0
  2  3  1  0  0  0
  2  5  2  0  0  0
  2 11  1  0  0  0
  3  4  2  0  0  0
  3 31  1  0  0  0
  4  7  1  0  0  0
  4 22  1  0  0  0
  5  6  1  0  0  0
  5 32  1  0  0  0
  6  7  1  0  0  0
  6 10  1  0  0  0
  7  8  2  0  0  0
  8  9  1  0  0  0
  9 10  2  0  0  0
 11 23  1  0  0  0
 11 26  2  0  0  0
 12 13  2  0  0  0
 12 15  1  0  0  0
 13 14  1  0  0  0
 13 33  1  0  0  0
 14 17  2  0  0  0
 14 34  1  0  0  0
 15 16  2  0  0  0
 15 35  1  0  0  0
 16 17  1  0  0  0
 16 21  1  0  0  0
 17 18  1  0  0  0
 18 19  2  0  0  0
 19 20  1  0  0  0
 19 36  1  0  0  0
 20 21  2  0  0  0
 20 28  1  0  0  0
 21 37  1  0  0  0
 23 24  2  0  0  0
 23 38  1  0  0  0
 24 25  1  0  0  0
 25 26  1  0  0  0
 25 27  1  0  0  0
 26 39  1  0  0  0
 27 40  1  0  0  0
 27 41  1  0  0  0
 27 42  1  0  0  0
 28 43  1  0  0  0
M  END
> <s_m_entry_id>
10536

> <s_m_entry_name>
dock_pv.605

> <s_m_Source_Path>
/home/csk/Desktop/cluster/DUD-E-result/met

> <s_m_Source_File>
dock_pv.maegz

> <i_m_Source_File_Index>
605

> <chembl_id>
CHEMBL3414743

> <chembl_pref_name>
None

> <i_lp_mmshare_version>
53161

> <i_f3d_flags>
0

> <r_lp_tautomer_probability>
1

> <s_lp_Force_Field>
OPLS_2005

> <r_lp_Energy>
17.983773

> <b_lp_Chiralities_Consistent>
1

> <s_lp_Variant>
CHEMBL3717_lig2083-1

> <s_i_glide_gridfile>
glide-grid_3lq8

> <i_i_glide_lignum>
2379

> <i_i_glide_rotatable_bonds>
4

> <r_i_docking_score>
-6.97549403422952

> <r_i_glide_ligand_efficiency>
-0.249124786936769

> <r_i_glide_ligand_efficiency_sa>
-0.756489579792806

> <r_i_glide_ligand_efficiency_ln>
-1.61014883250454

> <r_i_glide_gscore>
-6.97549403422952

> <r_i_glide_lipo>
-2.83340726333306

> <r_i_glide_hbond>
0

> <r_i_glide_metal>
0

> <r_i_glide_rewards>
-2.55134703010183

> <r_i_glide_evdw>
-37.9544143676758

> <r_i_glide_ecoul>
-0.701630651950836

> <r_i_glide_erotb>
0.413872713658441

> <r_i_glide_esite>
-0.0016471382766583

> <r_i_glide_emodel>
-53.3525488632286

> <r_i_glide_energy>
-38.6560450196266

> <r_i_glide_einternal>
1.07251572608948

> <i_i_glide_confnum>
2

> <i_i_glide_posenum>
56

> <r_i_glide_eff_state_penalty>
0

> <s_user_duplicate_titles>
CHEMBL3717_lig2083

> <s_m_subgroup_title>
dock_pv

> <s_m_subgroupid>
dock_pv

> <b_m_subgroup_collapsed>
1

$$$$
CHEMBL3717_lig2191
                    3D
 Schrodinger Suite 2021-1.
 41 43  0  0  1  0            999 V2000
   -4.4552    0.9330   29.7208 N   0  0  2  0  0  0
   -5.4510   -0.0993   29.4080 C   0  0  0  0  0  0
   -4.3398   -1.1371   29.5188 C   0  0  0  0  0  0
   -3.6940   -0.1073   30.4237 C   0  0  0  0  0  0
   -4.7178   -2.4430   30.2221 C   0  0  0  0  0  0
   -5.0921   -2.5160   31.3905 O   0  0  0  0  0  0
   -4.4940   -3.5120   29.4080 O   0  0  0  0  0  0
   -4.8676    2.1551   30.4071 C   0  0  0  0  0  0
   -3.7290    3.1575   30.6080 C   0  0  0  0  0  0
   -2.5225    2.7570   31.1925 C   0  0  0  0  0  0
   -1.5090    3.6722   31.4080 C   0  0  0  0  0  0
   -1.6590    5.0051   31.0080 C   0  0  0  0  0  0
   -2.8896    5.4256   30.5000 C   0  0  0  0  0  0
   -3.9208    4.5081   30.2936 C   0  0  0  0  0  0
   -0.6191    5.9193   31.0009 O   0  0  0  0  0  0
    0.7187    5.5378   31.3739 C   0  0  0  0  0  0
    1.4738    4.7385   30.3027 C   0  0  0  0  0  0
    2.8756    4.7570   30.2457 C   0  0  0  0  0  0
    3.5663    4.0616   29.2417 C   0  0  0  0  0  0
    2.8416    3.2927   28.3207 C   0  0  0  0  0  0
    1.4752    3.2242   28.4204 C   0  0  0  0  0  0
    0.7959    3.9569   29.3699 C   0  0  0  0  0  0
    3.5060    2.4124   27.0080 Cl  0  0  0  0  0  0
    5.2859    4.1920   29.1588 Cl  0  0  0  0  0  0
   -5.9152    0.0158   28.4273 H   0  0  0  0  0  0
   -6.2440   -0.2097   30.1534 H   0  0  0  0  0  0
   -3.7758   -1.3225   28.6080 H   0  0  0  0  0  0
   -3.9433   -0.2089   31.4842 H   0  0  0  0  0  0
   -2.6112   -0.0242   30.3340 H   0  0  0  0  0  0
   -4.3900   -4.3222   29.9332 H   0  0  0  0  0  0
   -5.6593    2.6227   29.8199 H   0  0  0  0  0  0
   -5.3009    1.9068   31.3773 H   0  0  0  0  0  0
   -2.3644    1.7433   31.5154 H   0  0  0  0  0  0
   -0.5782    3.3049   31.8080 H   0  0  0  0  0  0
   -3.0240    6.4560   30.2080 H   0  0  0  0  0  0
   -4.8567    4.8484   29.8734 H   0  0  0  0  0  0
    1.2543    6.4728   31.5288 H   0  0  0  0  0  0
    0.7399    5.0170   32.3317 H   0  0  0  0  0  0
    3.4347    5.3257   30.9719 H   0  0  0  0  0  0
    0.9218    2.6066   27.7339 H   0  0  0  0  0  0
   -0.2686    3.8720   29.3374 H   0  0  0  0  0  0
  1  2  1  0  0  0
  1  4  1  0  0  0
  1  8  1  0  0  0
  2  3  1  0  0  0
  2 25  1  0  0  0
  2 26  1  0  0  0
  3  4  1  0  0  0
  3  5  1  0  0  0
  3 27  1  0  0  0
  4 28  1  0  0  0
  4 29  1  0  0  0
  5  6  2  0  0  0
  5  7  1  0  0  0
  7 30  1  0  0  0
  8  9  1  0  0  0
  8 31  1  0  0  0
  8 32  1  0  0  0
  9 10  1  0  0  0
  9 14  2  0  0  0
 10 11  2  0  0  0
 10 33  1  0  0  0
 11 12  1  0  0  0
 11 34  1  0  0  0
 12 13  2  0  0  0
 12 15  1  0  0  0
 13 14  1  0  0  0
 13 35  1  0  0  0
 14 36  1  0  0  0
 15 16  1  0  0  0
 16 17  1  0  0  0
 16 37  1  0  0  0
 16 38  1  0  0  0
 17 18  1  0  0  0
 17 22  2  0  0  0
 18 19  2  0  0  0
 18 39  1  0  0  0
 19 20  1  0  0  0
 19 24  1  0  0  0
 20 21  2  0  0  0
 20 23  1  0  0  0
 21 22  1  0  0  0
 21 40  1  0  0  0
 22 41  1  0  0  0
M  END
> <s_m_entry_id>
10537

> <s_m_entry_name>
dock_pv.606

> <s_m_Source_Path>
/home/csk/Desktop/cluster/DUD-E-result/met

> <s_m_Source_File>
dock_pv.maegz

> <i_m_Source_File_Index>
606

> <chembl_id>
CHEMBL3741589

> <chembl_pref_name>
None

> <i_lp_mmshare_version>
53161

> <i_f3d_flags>
0

> <r_lp_tautomer_probability>
1

> <s_lp_Force_Field>
OPLS_2005

> <r_lp_Energy>
24.313173

> <b_lp_Chiralities_Consistent>
1

> <s_lp_Variant>
CHEMBL3717_lig2191-1

> <s_i_glide_gridfile>
glide-grid_3lq8

> <i_i_glide_lignum>
2509

> <i_i_glide_rotatable_bonds>
7

> <r_i_docking_score>
-6.97453235352952

> <r_i_glide_ligand_efficiency>
-0.290605514730397

> <r_i_glide_ligand_efficiency_sa>
-0.838251356609753

> <r_i_glide_ligand_efficiency_ln>
-1.6693256326352

> <r_i_glide_gscore>
-6.97453235352952

> <r_i_glide_lipo>
-3.82784119388974

> <r_i_glide_hbond>
0

> <r_i_glide_metal>
0

> <r_i_glide_rewards>
-1.60350506410938

> <r_i_glide_evdw>
-30.7525386810303

> <r_i_glide_ecoul>
-5.53548669815063

> <r_i_glide_erotb>
0.860887730078734

> <r_i_glide_esite>
-0.0361238868350217

> <r_i_glide_emodel>
-51.6595072696331

> <r_i_glide_energy>
-36.2880253791809

> <r_i_glide_einternal>
6.34236526489258

> <i_i_glide_confnum>
128

> <i_i_glide_posenum>
162

> <r_i_glide_eff_state_penalty>
0

> <s_user_duplicate_titles>
CHEMBL3717_lig2191

> <s_m_subgroup_title>
dock_pv

> <s_m_subgroupid>
dock_pv

> <b_m_subgroup_collapsed>
1

$$$$
CHEMBL3717_lig1875
                    3D
 Schrodinger Suite 2021-1.
 41 45  0  0  1  0            999 V2000
   -3.6038    4.4765   30.6080 C   0  0  0  0  0  0
   -4.7205    5.3053   30.8029 C   0  0  0  0  0  0
   -6.0019    4.8520   30.7214 N   0  0  0  0  0  0
   -3.7274    3.1418   30.3295 N   0  0  0  0  0  0
   -4.9961    2.7295   30.2079 C   0  0  0  0  0  0
   -6.1275    3.5585   30.4079 C   0  0  0  0  0  0
   -7.2627    2.8332   30.2115 N   0  0  0  0  0  0
   -6.8686    1.5580   29.8572 N   0  0  0  0  0  0
   -5.5181    1.5026   29.8311 N   0  0  0  0  0  0
   -2.2152    5.0267   30.6039 C   0  0  0  0  0  0
   -0.9992    4.3530   30.6460 C   0  0  0  0  0  0
   -0.0189    5.2904   30.4274 N   0  0  0  0  0  0
   -0.5300    6.5078   30.2085 N   0  0  0  0  0  0
   -1.8250    6.3557   30.3608 C   0  0  0  0  0  0
   -4.8449    0.2620   29.4568 C   0  0  0  0  0  0
   -4.6164   -0.7164   30.6049 C   0  0  0  0  0  0
    1.4204    5.0859   30.2631 C   0  0  0  0  0  0
   -3.3249   -1.1803   30.8682 C   0  0  0  0  0  0
   -3.1003   -2.1095   31.8796 C   0  0  0  0  0  0
   -5.7022   -1.1875   31.3581 C   0  0  0  0  0  0
   -5.4869   -2.1359   32.3737 C   0  0  0  0  0  0
   -4.1701   -2.5738   32.5968 N   0  0  0  0  0  0
   -4.0973   -3.4919   33.5912 N   0  0  0  0  0  0
   -5.3383   -3.6522   33.9976 C   0  0  0  0  0  0
   -6.2563   -2.8513   33.3223 C   0  0  0  0  0  0
    2.0477    4.2851   31.4178 C   0  0  0  0  0  0
    3.3767    4.3519   31.3506 F   0  0  0  0  0  0
    1.7126    2.9976   31.3722 F   0  0  0  0  0  0
    1.6850    4.7560   32.6087 F   0  0  0  0  0  0
   -4.6101    6.3581   31.0086 H   0  0  0  0  0  0
   -0.7600    3.3067   30.7613 H   0  0  0  0  0  0
   -2.4924    7.1904   30.2191 H   0  0  0  0  0  0
   -5.4257   -0.2304   28.6745 H   0  0  0  0  0  0
   -3.8976    0.5321   28.9886 H   0  0  0  0  0  0
    1.9057    6.0620   30.2121 H   0  0  0  0  0  0
    1.5930    4.5955   29.3042 H   0  0  0  0  0  0
   -2.4932   -0.8396   30.2722 H   0  0  0  0  0  0
   -2.1277   -2.5122   32.1201 H   0  0  0  0  0  0
   -6.7043   -0.8423   31.1565 H   0  0  0  0  0  0
   -5.5762   -4.3470   34.7912 H   0  0  0  0  0  0
   -7.3209   -2.8076   33.4944 H   0  0  0  0  0  0
  1  2  1  0  0  0
  1  4  2  0  0  0
  1 10  1  0  0  0
  2  3  2  0  0  0
  2 30  1  0  0  0
  3  6  1  0  0  0
  4  5  1  0  0  0
  5  6  2  0  0  0
  5  9  1  0  0  0
  6  7  1  0  0  0
  7  8  2  0  0  0
  8  9  1  0  0  0
  9 15  1  0  0  0
 10 11  2  0  0  0
 10 14  1  0  0  0
 11 12  1  0  0  0
 11 31  1  0  0  0
 12 13  1  0  0  0
 12 17  1  0  0  0
 13 14  2  0  0  0
 14 32  1  0  0  0
 15 16  1  0  0  0
 15 33  1  0  0  0
 15 34  1  0  0  0
 16 18  1  0  0  0
 16 20  2  0  0  0
 17 26  1  0  0  0
 17 35  1  0  0  0
 17 36  1  0  0  0
 18 19  2  0  0  0
 18 37  1  0  0  0
 19 22  1  0  0  0
 19 38  1  0  0  0
 20 21  1  0  0  0
 20 39  1  0  0  0
 21 22  1  0  0  0
 21 25  2  0  0  0
 22 23  1  0  0  0
 23 24  2  0  0  0
 24 25  1  0  0  0
 24 40  1  0  0  0
 25 41  1  0  0  0
 26 27  1  0  0  0
 26 28  1  0  0  0
 26 29  1  0  0  0
M  END
> <s_m_entry_id>
10538

> <s_m_entry_name>
dock_pv.607

> <s_m_Source_Path>
/home/csk/Desktop/cluster/DUD-E-result/met

> <s_m_Source_File>
dock_pv.maegz

> <i_m_Source_File_Index>
607

> <chembl_id>
CHEMBL3334561

> <chembl_pref_name>
None

> <i_lp_mmshare_version>
53161

> <i_f3d_flags>
0

> <r_lp_tautomer_probability>
1

> <s_lp_Force_Field>
OPLS_2005

> <r_lp_Energy>
23.956974

> <b_lp_Chiralities_Consistent>
1

> <s_lp_Variant>
CHEMBL3717_lig1875-1

> <s_i_glide_gridfile>
glide-grid_3lq8

> <i_i_glide_lignum>
2165

> <i_i_glide_rotatable_bonds>
5

> <r_i_docking_score>
-6.97079350041498

> <r_i_glide_ligand_efficiency>
-0.240372189669482

> <r_i_glide_ligand_efficiency_sa>
-0.738499521919584

> <r_i_glide_ligand_efficiency_ln>
-1.59613494752348

> <r_i_glide_gscore>
-6.97079350041498

> <r_i_glide_lipo>
-2.06359528178355

> <r_i_glide_hbond>
0

> <r_i_glide_metal>
0

> <r_i_glide_rewards>
-3.13636802954545

> <r_i_glide_evdw>
-42.6641998291016

> <r_i_glide_ecoul>
-0.632706582546234

> <r_i_glide_erotb>
0.491474755017806

> <r_i_glide_esite>
-0.0341889652667679

> <r_i_glide_emodel>
-59.5067090485799

> <r_i_glide_energy>
-43.2969064116478

> <r_i_glide_einternal>
3.73498916625977

> <i_i_glide_confnum>
10

> <i_i_glide_posenum>
35

> <r_i_glide_eff_state_penalty>
0

> <s_user_duplicate_titles>
CHEMBL3717_lig1875

> <s_m_subgroup_title>
dock_pv

> <s_m_subgroupid>
dock_pv

> <b_m_subgroup_collapsed>
1

$$$$
CHEMBL3717_lig4026
                    3D
 Schrodinger Suite 2021-1.
 51 55  0  0  1  0            999 V2000
   -5.0403    1.5879   30.3798 C   0  0  0  0  0  0
   -4.3091    1.2225   29.2498 C   0  0  0  0  0  0
   -3.8274   -0.0712   29.0854 C   0  0  0  0  0  0
   -5.3116    0.6530   31.3866 C   0  0  0  0  0  0
   -4.8677   -0.6720   31.2224 C   0  0  0  0  0  0
   -4.1188   -1.0281   30.0608 C   0  0  0  0  0  0
   -4.2938   -2.8185   31.1778 N   0  0  0  0  0  0
   -4.9560   -1.8914   31.9470 C   0  0  0  0  0  0
   -5.4883    3.0055   30.4872 C   0  0  0  0  0  0
   -4.7552    4.2087   30.5803 C   0  0  0  0  0  0
   -6.8165    3.3916   30.4480 N   0  0  0  0  0  0
   -6.7872    4.7569   30.5128 C   0  0  0  0  0  0
   -5.5830    5.2435   30.6086 N   0  0  0  0  0  0
   -3.2632    4.4435   30.6561 C   0  0  0  0  0  0
   -2.3710    3.3894   30.9203 C   0  0  0  0  0  0
   -1.0011    3.6196   31.0083 C   0  0  0  0  0  0
   -0.5030    4.9071   30.8541 C   0  0  0  0  0  0
   -1.3678    5.9676   30.6076 C   0  0  0  0  0  0
   -2.7387    5.7372   30.5171 C   0  0  0  0  0  0
    0.8264    5.1307   30.9540 F   0  0  0  0  0  0
   -8.0215    2.5691   30.3033 C   0  0  0  0  0  0
   -8.5538    2.0076   31.6473 C   0  0  0  0  0  0
   -8.6521    2.9857   32.7359 N   0  0  0  0  0  0
   -9.6623    4.0241   32.4875 C   0  0  0  0  0  0
   -9.7497    5.0042   33.6756 C   0  0  0  0  0  0
  -10.0354    4.2995   34.8804 O   0  0  0  0  0  0
   -9.0432    3.3252   35.1774 C   0  0  0  0  0  0
   -8.9034    2.3113   34.0189 C   0  0  0  0  0  0
   -3.7609   -2.3444   30.0420 N   0  0  0  0  0  0
   -4.0970    1.9519   28.4835 H   0  0  0  0  0  0
   -3.2642   -0.3434   28.2075 H   0  0  0  0  0  0
   -5.8464    0.9445   32.2781 H   0  0  0  0  0  0
   -5.4194   -2.1770   32.8802 H   0  0  0  0  0  0
   -7.6987    5.3299   30.4669 H   0  0  0  0  0  0
   -2.7228    2.3824   31.0744 H   0  0  0  0  0  0
   -0.3217    2.8043   31.2093 H   0  0  0  0  0  0
   -0.9733    6.9665   30.4896 H   0  0  0  0  0  0
   -3.3923    6.5743   30.3227 H   0  0  0  0  0  0
   -7.7897    1.7521   29.6158 H   0  0  0  0  0  0
   -8.7903    3.1717   29.8161 H   0  0  0  0  0  0
   -7.9129    1.1820   31.9536 H   0  0  0  0  0  0
   -9.5333    1.5529   31.4823 H   0  0  0  0  0  0
  -10.6314    3.5632   32.3048 H   0  0  0  0  0  0
   -9.4238    4.5720   31.5768 H   0  0  0  0  0  0
   -8.8155    5.5570   33.7777 H   0  0  0  0  0  0
  -10.5331    5.7410   33.5040 H   0  0  0  0  0  0
   -8.0950    3.8259   35.3678 H   0  0  0  0  0  0
   -9.3154    2.8061   36.0941 H   0  0  0  0  0  0
   -8.0934    1.6095   34.2316 H   0  0  0  0  0  0
   -9.8114    1.7065   33.9469 H   0  0  0  0  0  0
   -4.1867   -3.8021   31.4086 H   0  0  0  0  0  0
  1  2  1  0  0  0
  1  9  1  0  0  0
  1  4  2  0  0  0
  2  3  2  0  0  0
  2 30  1  0  0  0
  3  6  1  0  0  0
  3 31  1  0  0  0
  4 32  1  0  0  0
  4  5  1  0  0  0
  5  6  1  0  0  0
  5  8  2  0  0  0
  6 29  2  0  0  0
  7 51  1  0  0  0
  7 29  1  0  0  0
  7  8  1  0  0  0
  8 33  1  0  0  0
  9 10  2  0  0  0
  9 11  1  0  0  0
 10 13  1  0  0  0
 10 14  1  0  0  0
 11 12  1  0  0  0
 11 21  1  0  0  0
 12 13  2  0  0  0
 12 34  1  0  0  0
 14 15  2  0  0  0
 14 19  1  0  0  0
 15 16  1  0  0  0
 15 35  1  0  0  0
 16 17  2  0  0  0
 16 36  1  0  0  0
 17 18  1  0  0  0
 17 20  1  0  0  0
 18 19  2  0  0  0
 18 37  1  0  0  0
 19 38  1  0  0  0
 21 22  1  0  0  0
 21 39  1  0  0  0
 21 40  1  0  0  0
 22 23  1  0  0  0
 22 41  1  0  0  0
 22 42  1  0  0  0
 23 24  1  0  0  0
 23 28  1  0  0  0
 24 25  1  0  0  0
 24 43  1  0  0  0
 24 44  1  0  0  0
 25 26  1  0  0  0
 25 45  1  0  0  0
 25 46  1  0  0  0
 26 27  1  0  0  0
 27 28  1  0  0  0
 27 47  1  0  0  0
 27 48  1  0  0  0
 28 49  1  0  0  0
 28 50  1  0  0  0
M  END
> <s_m_entry_id>
10539

> <s_m_entry_name>
dock_pv.608

> <s_m_Source_Path>
/home/csk/Desktop/cluster/DUD-E-result/met

> <s_m_Source_File>
dock_pv.maegz

> <i_m_Source_File_Index>
608

> <chembl_id>
CHEMBL1682558

> <chembl_pref_name>
None

> <i_lp_mmshare_version>
53161

> <i_f3d_flags>
0

> <r_lp_tautomer_probability>
0.0196078431372549

> <s_lp_Force_Field>
OPLS_2005

> <r_lp_Energy>
51.3323

> <b_lp_Chiralities_Consistent>
1

> <s_lp_Variant>
CHEMBL3717_lig4026-2

> <s_i_glide_gridfile>
glide-grid_3lq8

> <i_i_glide_lignum>
5128

> <i_i_glide_rotatable_bonds>
5

> <r_i_docking_score>
-6.96511128471898

> <r_i_glide_ligand_efficiency>
-0.240176251197206

> <r_i_glide_ligand_efficiency_sa>
-0.737897536855088

> <r_i_glide_ligand_efficiency_ln>
-1.59483386421766

> <r_i_glide_gscore>
-6.96511128471898

> <r_i_glide_lipo>
-2.4797945900978

> <r_i_glide_hbond>
-0.402090988553025

> <r_i_glide_metal>
0

> <r_i_glide_rewards>
-2.28186469554667

> <r_i_glide_evdw>
-34.6957550048828

> <r_i_glide_ecoul>
-4.19929933547974

> <r_i_glide_erotb>
0.636792041517734

> <r_i_glide_esite>
-0.073470401473118

> <r_i_glide_emodel>
-53.8481368488383

> <r_i_glide_energy>
-38.8950543403625

> <r_i_glide_einternal>
2.20730018615723

> <i_i_glide_confnum>
12

> <i_i_glide_posenum>
242

> <r_i_glide_eff_state_penalty>
0

> <s_user_duplicate_titles>
CHEMBL3717_lig4026

> <s_m_subgroup_title>
dock_pv

> <s_m_subgroupid>
dock_pv

> <b_m_subgroup_collapsed>
1

$$$$
CHEMBL3717_lig1870
                    3D
 Schrodinger Suite 2021-1.
 41 45  0  0  1  0            999 V2000
   -2.1070    5.1304   30.6102 C   0  0  0  0  0  0
   -2.8408    6.3276   30.6054 C   0  0  0  0  0  0
   -4.2006    6.3584   30.6082 N   0  0  0  0  0  0
   -2.7100    3.9039   30.6085 N   0  0  0  0  0  0
   -4.0490    3.9613   30.5961 C   0  0  0  0  0  0
   -4.7973    5.1617   30.6051 C   0  0  0  0  0  0
   -6.1264    4.8730   30.6079 N   0  0  0  0  0  0
   -6.2376    3.4974   30.6082 N   0  0  0  0  0  0
   -4.9982    2.9520   30.5828 N   0  0  0  0  0  0
   -0.6164    5.1436   30.6119 C   0  0  0  0  0  0
    0.2734    4.1509   31.0081 C   0  0  0  0  0  0
    1.5342    4.6664   30.8413 N   0  0  0  0  0  0
    1.5053    5.9030   30.3296 N   0  0  0  0  0  0
    0.2322    6.1867   30.2036 C   0  0  0  0  0  0
   -4.8101    1.5051   30.6836 C   0  0  0  0  0  0
   -5.8406    0.7003   29.9189 C   0  0  0  0  0  0
    2.8180    4.0449   31.1632 C   0  0  0  0  0  0
   -5.8938    0.7570   28.6086 N   0  0  0  0  0  0
   -6.8941   -0.0470   28.2076 N   0  0  0  0  0  0
   -6.8428   -0.1892   30.4272 C   0  0  0  0  0  0
   -7.5015   -0.6675   29.2720 C   0  0  0  0  0  0
   -8.5104   -1.5441   29.2392 N   0  0  0  0  0  0
   -8.9020   -1.9904   30.4616 C   0  0  0  0  0  0
   -8.3390   -1.5832   31.6766 C   0  0  0  0  0  0
   -7.2879   -0.6616   31.6754 C   0  0  0  0  0  0
    3.6265    3.7568   29.8809 C   0  0  0  0  0  0
    4.8702    3.1651   30.2082 O   0  0  0  0  0  0
   -2.3463    7.2853   30.5985 H   0  0  0  0  0  0
    0.1226    3.1577   31.4055 H   0  0  0  0  0  0
   -0.0798    7.1408   29.8058 H   0  0  0  0  0  0
   -3.8078    1.2690   30.3185 H   0  0  0  0  0  0
   -4.8228    1.2371   31.7394 H   0  0  0  0  0  0
    2.5986    3.1189   31.6977 H   0  0  0  0  0  0
    3.3449    4.7494   31.8079 H   0  0  0  0  0  0
   -7.0813   -0.1788   27.2272 H   0  0  0  0  0  0
   -9.7099   -2.7073   30.4553 H   0  0  0  0  0  0
   -8.7138   -1.9786   32.6088 H   0  0  0  0  0  0
   -6.8388   -0.3359   32.6072 H   0  0  0  0  0  0
    3.7865    4.6728   29.3098 H   0  0  0  0  0  0
    3.0557    3.1148   29.2072 H   0  0  0  0  0  0
    5.3258    2.9099   29.3957 H   0  0  0  0  0  0
  1  2  1  0  0  0
  1  4  2  0  0  0
  1 10  1  0  0  0
  2  3  2  0  0  0
  2 28  1  0  0  0
  3  6  1  0  0  0
  4  5  1  0  0  0
  5  6  2  0  0  0
  5  9  1  0  0  0
  6  7  1  0  0  0
  7  8  2  0  0  0
  8  9  1  0  0  0
  9 15  1  0  0  0
 10 11  2  0  0  0
 10 14  1  0  0  0
 11 12  1  0  0  0
 11 29  1  0  0  0
 12 13  1  0  0  0
 12 17  1  0  0  0
 13 14  2  0  0  0
 14 30  1  0  0  0
 15 16  1  0  0  0
 15 31  1  0  0  0
 15 32  1  0  0  0
 16 18  2  0  0  0
 16 20  1  0  0  0
 17 26  1  0  0  0
 17 33  1  0  0  0
 17 34  1  0  0  0
 18 19  1  0  0  0
 19 21  1  0  0  0
 19 35  1  0  0  0
 20 21  2  0  0  0
 20 25  1  0  0  0
 21 22  1  0  0  0
 22 23  2  0  0  0
 23 24  1  0  0  0
 23 36  1  0  0  0
 24 25  2  0  0  0
 24 37  1  0  0  0
 25 38  1  0  0  0
 26 27  1  0  0  0
 26 39  1  0  0  0
 26 40  1  0  0  0
 27 41  1  0  0  0
M  END
> <s_m_entry_id>
10540

> <s_m_entry_name>
dock_pv.609

> <s_m_Source_Path>
/home/csk/Desktop/cluster/DUD-E-result/met

> <s_m_Source_File>
dock_pv.maegz

> <i_m_Source_File_Index>
609

> <chembl_id>
CHEMBL3334549

> <chembl_pref_name>
None

> <i_lp_mmshare_version>
53161

> <i_f3d_flags>
0

> <r_lp_tautomer_probability>
0.960980075423508

> <s_lp_Force_Field>
OPLS_2005

> <r_lp_Energy>
18.429831

> <b_lp_Chiralities_Consistent>
1

> <s_lp_Variant>
CHEMBL3717_lig1870-1

> <s_i_glide_gridfile>
glide-grid_3lq8

> <i_i_glide_lignum>
2158

> <i_i_glide_rotatable_bonds>
6

> <r_i_docking_score>
-6.96498280456294

> <r_i_glide_ligand_efficiency>
-0.257962326094924

> <r_i_glide_ligand_efficiency_sa>
-0.773886977434569

> <r_i_glide_ligand_efficiency_ln>
-1.62133317018652

> <r_i_glide_gscore>
-6.96498280456294

> <r_i_glide_lipo>
-2.24167614876865

> <r_i_glide_hbond>
-0.328830815242431

> <r_i_glide_metal>
0

> <r_i_glide_rewards>
-2.4561903485062

> <r_i_glide_evdw>
-42.1064567565918

> <r_i_glide_ecoul>
-3.64016151428223

> <r_i_glide_erotb>
0.7312057737946

> <r_i_glide_esite>
-0.0181442008683338

> <r_i_glide_emodel>
-61.6264484948498

> <r_i_glide_energy>
-45.746618270874

> <r_i_glide_einternal>
6.83311414718628

> <i_i_glide_confnum>
8

> <i_i_glide_posenum>
360

> <r_i_glide_eff_state_penalty>
0

> <s_user_duplicate_titles>
CHEMBL3717_lig1870

> <s_m_subgroup_title>
dock_pv

> <s_m_subgroupid>
dock_pv

> <b_m_subgroup_collapsed>
1

$$$$
CHEMBL3717_lig2324
                    3D
 Schrodinger Suite 2021-1.
 44 47  0  0  1  0            999 V2000
   -9.0179    2.1397   31.1031 C   0  0  0  0  0  0
   -8.0639    1.3101   30.4844 C   0  0  0  0  0  0
   -6.7692    1.7898   30.2341 C   0  0  0  0  0  0
   -8.6916    3.4521   31.4715 C   0  0  0  0  0  0
   -7.4023    3.8982   31.2042 C   0  0  0  0  0  0
   -6.4651    3.0986   30.6073 C   0  0  0  0  0  0
   -5.3392    3.8796   30.4903 N   0  0  0  0  0  0
   -5.6048    5.1569   30.9865 C   0  0  0  0  0  0
   -6.8802    5.1257   31.4701 O   0  0  0  0  0  0
   -4.8945    6.1591   31.0080 O   0  0  0  0  0  0
   -4.0941    3.5409   29.8080 C   0  0  0  0  0  0
   -2.8539    3.3249   30.6967 C   0  0  0  0  0  0
   -2.4555    4.5232   31.3675 O   0  0  0  0  0  0
   -1.4250    5.2376   30.7888 C   0  0  0  0  0  0
   -1.6980    6.5035   30.2767 C   0  0  0  0  0  0
   -0.6662    7.2556   29.7339 C   0  0  0  0  0  0
    0.6018    6.8049   29.5922 N   0  0  0  0  0  0
   -0.0753    4.7684   30.7409 C   0  0  0  0  0  0
    0.9045    5.5761   30.0875 C   0  0  0  0  0  0
    2.2332    5.1011   29.9611 C   0  0  0  0  0  0
    2.6269    3.8954   30.5489 C   0  0  0  0  0  0
    1.6795    3.1540   31.2406 C   0  0  0  0  0  0
    0.3479    3.5566   31.3207 C   0  0  0  0  0  0
    3.9067    3.3761   30.4997 O   0  0  0  0  0  0
    4.9077    4.0700   29.7608 C   0  0  0  0  0  0
   -8.4279   -0.1141   30.1055 C   0  0  0  0  0  0
  -10.0133    1.7658   31.2971 H   0  0  0  0  0  0
   -6.0344    1.1546   29.7620 H   0  0  0  0  0  0
   -9.4267    4.0874   31.9407 H   0  0  0  0  0  0
   -4.2259    2.7042   29.1196 H   0  0  0  0  0  0
   -3.8898    4.4079   29.1794 H   0  0  0  0  0  0
   -3.0739    2.5583   31.4375 H   0  0  0  0  0  0
   -2.0507    2.8979   30.0942 H   0  0  0  0  0  0
   -2.6904    6.9188   30.3400 H   0  0  0  0  0  0
   -0.8485    8.2687   29.4080 H   0  0  0  0  0  0
    2.9426    5.6897   29.4080 H   0  0  0  0  0  0
    1.9765    2.2202   31.6912 H   0  0  0  0  0  0
   -0.3747    2.9314   31.8187 H   0  0  0  0  0  0
    5.8442    3.5162   29.8187 H   0  0  0  0  0  0
    4.6395    4.1497   28.7063 H   0  0  0  0  0  0
    5.0870    5.0688   30.1616 H   0  0  0  0  0  0
   -9.1802   -0.5220   30.7824 H   0  0  0  0  0  0
   -7.5600   -0.7713   30.1712 H   0  0  0  0  0  0
   -8.8151   -0.1510   29.0865 H   0  0  0  0  0  0
  1  2  2  0  0  0
  1  4  1  0  0  0
  1 27  1  0  0  0
  2  3  1  0  0  0
  2 26  1  0  0  0
  3  6  2  0  0  0
  3 28  1  0  0  0
  4  5  2  0  0  0
  4 29  1  0  0  0
  5  6  1  0  0  0
  5  9  1  0  0  0
  6  7  1  0  0  0
  7  8  1  0  0  0
  7 11  1  0  0  0
  8  9  1  0  0  0
  8 10  2  0  0  0
 11 12  1  0  0  0
 11 30  1  0  0  0
 11 31  1  0  0  0
 12 13  1  0  0  0
 12 32  1  0  0  0
 12 33  1  0  0  0
 13 14  1  0  0  0
 14 15  2  0  0  0
 14 18  1  0  0  0
 15 16  1  0  0  0
 15 34  1  0  0  0
 16 17  2  0  0  0
 16 35  1  0  0  0
 17 19  1  0  0  0
 18 19  1  0  0  0
 18 23  2  0  0  0
 19 20  2  0  0  0
 20 21  1  0  0  0
 20 36  1  0  0  0
 21 22  2  0  0  0
 21 24  1  0  0  0
 22 23  1  0  0  0
 22 37  1  0  0  0
 23 38  1  0  0  0
 24 25  1  0  0  0
 25 39  1  0  0  0
 25 40  1  0  0  0
 25 41  1  0  0  0
 26 42  1  0  0  0
 26 43  1  0  0  0
 26 44  1  0  0  0
M  END
> <s_m_entry_id>
10541

> <s_m_entry_name>
dock_pv.610

> <s_m_Source_Path>
/home/csk/Desktop/cluster/DUD-E-result/met

> <s_m_Source_File>
dock_pv.maegz

> <i_m_Source_File_Index>
610

> <chembl_id>
CHEMBL3786588

> <chembl_pref_name>
None

> <i_lp_mmshare_version>
53161

> <i_f3d_flags>
0

> <r_lp_tautomer_probability>
1

> <s_lp_Force_Field>
OPLS_2005

> <r_lp_Energy>
38.785499

> <b_lp_Chiralities_Consistent>
1

> <s_lp_Variant>
CHEMBL3717_lig2324-1

> <s_i_glide_gridfile>
glide-grid_3lq8

> <i_i_glide_lignum>
2642

> <i_i_glide_rotatable_bonds>
5

> <r_i_docking_score>
-6.96443517339498

> <r_i_glide_ligand_efficiency>
-0.267862891284422

> <r_i_glide_ligand_efficiency_sa>
-0.793542761440519

> <r_i_glide_ligand_efficiency_ln>
-1.6355747482961

> <r_i_glide_gscore>
-6.96443517339498

> <r_i_glide_lipo>
-3.76406778117729

> <r_i_glide_hbond>
-0.0355948073961766

> <r_i_glide_metal>
0

> <r_i_glide_rewards>
-1.69184391641614

> <r_i_glide_evdw>
-37.337589263916

> <r_i_glide_ecoul>
-1.51406836509705

> <r_i_glide_erotb>
0.621061049554988

> <r_i_glide_esite>
0

> <r_i_glide_emodel>
-48.2594537783785

> <r_i_glide_energy>
-38.8516576290131

> <r_i_glide_einternal>
9.54866790771484

> <i_i_glide_confnum>
5

> <i_i_glide_posenum>
42

> <r_i_glide_eff_state_penalty>
0

> <s_user_duplicate_titles>
CHEMBL3717_lig2324

> <s_m_subgroup_title>
dock_pv

> <s_m_subgroupid>
dock_pv

> <b_m_subgroup_collapsed>
1

$$$$
CHEMBL3717_lig3474
                    3D
 Schrodinger Suite 2021-1.
 63 68  0  0  1  0            999 V2000
   -9.7450   -0.4659   29.6235 S   0  0  0  0  0  0
   -5.5473   -4.8430   28.6710 O   0  0  0  0  0  0
   -7.3142    4.9481   30.0645 N   0  0  0  0  0  0
   -8.1758    3.9287   29.9327 N   0  0  0  0  0  0
    0.4514    4.5745   30.3909 N   0  0  0  0  0  0
    2.9765    3.9509   29.1177 N   0  0  0  0  0  0
   -6.0989    3.1656   30.2608 C   0  0  0  0  0  0
   -6.0305    4.5248   30.2581 C   0  0  0  0  0  0
   -4.6587    5.0064   30.4347 C   0  0  0  0  0  0
   -7.4475    2.8304   30.0474 C   0  0  0  0  0  0
   -3.8726    3.8590   30.5729 C   0  0  0  0  0  0
   -4.7209    2.5930   30.4723 C   0  0  0  0  0  0
   -8.0297    1.4936   29.9242 C   0  0  0  0  0  0
   -4.0924    6.2758   30.4636 C   0  0  0  0  0  0
   -2.4990    3.9960   30.7798 C   0  0  0  0  0  0
   -1.9123    5.2678   30.8048 C   0  0  0  0  0  0
   -7.2925    0.2971   29.9545 C   0  0  0  0  0  0
   -2.7117    6.4016   30.6088 C   0  0  0  0  0  0
   -9.3882    1.2259   29.7493 C   0  0  0  0  0  0
   -8.0661   -0.8481   29.8103 C   0  0  0  0  0  0
   -0.4413    5.4375   31.1581 C   0  0  0  0  0  0
   -7.6138   -2.2269   29.8036 C   0  0  0  0  0  0
    0.9032    5.2491   29.1686 C   0  0  0  0  0  0
    1.6460    4.2376   31.1836 C   0  0  0  0  0  0
   -7.1507   -3.3582   29.7938 C   0  0  0  0  0  0
    1.7656    4.2621   28.3493 C   0  0  0  0  0  0
    2.5714    3.2993   30.3721 C   0  0  0  0  0  0
   -6.4797   -4.6750   29.7448 C   0  0  0  0  0  0
   -3.3801   -4.4420   27.7115 C   0  0  0  0  0  0
   -3.5116   -4.4499   26.2046 C   0  0  0  0  0  0
   -2.5366   -3.5030   26.8830 C   0  0  0  0  0  0
   -4.4906   -3.8779   28.6073 C   0  0  0  0  0  0
    3.8425    3.0681   28.3572 C   0  0  0  0  0  0
   -7.5987    5.9131   29.9738 H   0  0  0  0  0  0
   -4.6614    1.9842   31.3747 H   0  0  0  0  0  0
   -4.4050    1.9653   29.6387 H   0  0  0  0  0  0
   -4.7092    7.1556   30.3507 H   0  0  0  0  0  0
   -1.8780    3.1226   30.9290 H   0  0  0  0  0  0
   -6.2220    0.2609   30.0759 H   0  0  0  0  0  0
   -2.2683    7.3848   30.6132 H   0  0  0  0  0  0
  -10.1898    1.9466   29.6880 H   0  0  0  0  0  0
   -0.1360    6.4827   31.0780 H   0  0  0  0  0  0
   -0.3679    5.1588   32.2080 H   0  0  0  0  0  0
    0.0610    5.6079   28.5842 H   0  0  0  0  0  0
    1.4956    6.1355   29.4098 H   0  0  0  0  0  0
    2.1840    5.1403   31.4771 H   0  0  0  0  0  0
    1.3470    3.7308   32.1028 H   0  0  0  0  0  0
    2.0298    4.7136   27.3987 H   0  0  0  0  0  0
    1.1985    3.3566   28.1249 H   0  0  0  0  0  0
    3.4547    3.0612   30.9659 H   0  0  0  0  0  0
    2.0602    2.3573   30.1686 H   0  0  0  0  0  0
   -7.2525   -5.4382   29.6560 H   0  0  0  0  0  0
   -5.9826   -4.8399   30.7017 H   0  0  0  0  0  0
   -2.8931   -5.2950   28.1820 H   0  0  0  0  0  0
   -4.4014   -4.0427   25.7286 H   0  0  0  0  0  0
   -3.1151   -5.3086   25.6605 H   0  0  0  0  0  0
   -1.4758   -3.6762   26.7351 H   0  0  0  0  0  0
   -2.7573   -2.4421   26.9665 H   0  0  0  0  0  0
   -4.0876   -3.6430   29.5934 H   0  0  0  0  0  0
   -4.8700   -2.9363   28.2079 H   0  0  0  0  0  0
    4.2107    3.5521   27.4555 H   0  0  0  0  0  0
    4.7058    2.7947   28.9667 H   0  0  0  0  0  0
    3.3259    2.1530   28.0595 H   0  0  0  0  0  0
  1 19  1  0  0  0
  1 20  1  0  0  0
  2 28  1  0  0  0
  2 32  1  0  0  0
  3  4  1  0  0  0
  3  8  1  0  0  0
  3 34  1  0  0  0
  4 10  2  0  0  0
  5 21  1  0  0  0
  5 23  1  0  0  0
  5 24  1  0  0  0
  6 26  1  0  0  0
  6 27  1  0  0  0
  6 33  1  0  0  0
  7  8  2  0  0  0
  7 10  1  0  0  0
  7 12  1  0  0  0
  8  9  1  0  0  0
  9 11  1  0  0  0
  9 14  2  0  0  0
 10 13  1  0  0  0
 11 12  1  0  0  0
 11 15  2  0  0  0
 12 35  1  0  0  0
 12 36  1  0  0  0
 13 17  1  0  0  0
 13 19  2  0  0  0
 14 18  1  0  0  0
 14 37  1  0  0  0
 15 16  1  0  0  0
 15 38  1  0  0  0
 16 18  2  0  0  0
 16 21  1  0  0  0
 17 20  2  0  0  0
 17 39  1  0  0  0
 18 40  1  0  0  0
 19 41  1  0  0  0
 20 22  1  0  0  0
 21 42  1  0  0  0
 21 43  1  0  0  0
 22 25  3  0  0  0
 23 26  1  0  0  0
 23 44  1  0  0  0
 23 45  1  0  0  0
 24 27  1  0  0  0
 24 46  1  0  0  0
 24 47  1  0  0  0
 25 28  1  0  0  0
 26 48  1  0  0  0
 26 49  1  0  0  0
 27 50  1  0  0  0
 27 51  1  0  0  0
 28 52  1  0  0  0
 28 53  1  0  0  0
 29 30  1  0  0  0
 29 31  1  0  0  0
 29 32  1  0  0  0
 29 54  1  0  0  0
 30 31  1  0  0  0
 30 55  1  0  0  0
 30 56  1  0  0  0
 31 57  1  0  0  0
 31 58  1  0  0  0
 32 59  1  0  0  0
 32 60  1  0  0  0
 33 61  1  0  0  0
 33 62  1  0  0  0
 33 63  1  0  0  0
M  END
> <s_m_entry_id>
10542

> <s_m_entry_name>
dock_pv.611

> <s_m_Source_Path>
/home/csk/Desktop/cluster/DUD-E-result/met

> <s_m_Source_File>
dock_pv.maegz

> <i_m_Source_File_Index>
611

> <chembl_id>
CHEMBL2002446

> <chembl_pref_name>
None

> <i_lp_mmshare_version>
53161

> <i_f3d_flags>
0

> <r_lp_tautomer_probability>
0.5

> <s_lp_Force_Field>
OPLS_2005

> <r_lp_Energy>
73.994647

> <b_lp_Chiralities_Consistent>
1

> <s_lp_Variant>
CHEMBL3717_lig3474-1

> <s_i_glide_gridfile>
glide-grid_3lq8

> <i_i_glide_lignum>
4290

> <i_i_glide_rotatable_bonds>
8

> <r_i_docking_score>
-6.96412086888244

> <r_i_glide_ligand_efficiency>
-0.21103396572371

> <r_i_glide_ligand_efficiency_sa>
-0.676898689065036

> <r_i_glide_ligand_efficiency_ln>
-1.54878442295139

> <r_i_glide_gscore>
-6.96412086888244

> <r_i_glide_lipo>
-3.95498648790422

> <r_i_glide_hbond>
-0.296081628520649

> <r_i_glide_metal>
0

> <r_i_glide_rewards>
-0.738424646391161

> <r_i_glide_evdw>
-40.7715339660645

> <r_i_glide_ecoul>
-4.03644704818726

> <r_i_glide_erotb>
0.669415649464901

> <r_i_glide_esite>
0

> <r_i_glide_emodel>
-60.8420261377118

> <r_i_glide_energy>
-44.8079810142517

> <r_i_glide_einternal>
4.13073015213013

> <i_i_glide_confnum>
5

> <i_i_glide_posenum>
7

> <r_i_glide_eff_state_penalty>
0

> <s_user_duplicate_titles>
CHEMBL3717_lig3474

> <s_m_subgroup_title>
dock_pv

> <s_m_subgroupid>
dock_pv

> <b_m_subgroup_collapsed>
1

$$$$
CHEMBL3717_lig569
                    3D
 Schrodinger Suite 2021-1.
 48 51  0  0  1  0            999 V2000
   -7.6962    5.1570   30.1867 C   0  0  0  0  0  0
   -6.4111    4.7567   30.3328 N   0  0  0  0  0  0
   -6.1692    3.4192   30.3568 C   0  0  0  0  0  0
   -7.2322    2.4856   30.2926 C   0  0  0  0  0  0
   -8.5194    3.0171   30.1193 C   0  0  0  0  0  0
   -8.7719    4.3468   30.0620 N   0  0  0  0  0  0
   -4.8305    2.9887   30.4314 N   0  0  0  0  0  0
   -3.5964    3.6375   30.6079 C   0  0  0  0  0  0
   -3.3772    5.0094   30.4189 C   0  0  0  0  0  0
   -2.1067    5.5580   30.6079 C   0  0  0  0  0  0
   -1.0409    4.7440   31.0073 C   0  0  0  0  0  0
   -1.2692    3.3840   31.2208 C   0  0  0  0  0  0
   -2.5278    2.8335   31.0079 C   0  0  0  0  0  0
   -7.0782    0.9894   30.4163 C   0  0  0  0  0  0
   -7.7226    0.2450   29.6754 O   0  0  0  0  0  0
   -6.2603    0.5646   31.4047 N   0  0  0  0  0  0
   -1.9084    6.8696   30.3430 F   0  0  0  0  0  0
    0.2273    5.2613   31.1586 O   0  0  0  0  0  0
    1.2952    4.6533   30.5274 C   0  0  0  0  0  0
    3.5355    3.4602   29.3304 N   0  0  0  0  0  0
    3.5958    3.9574   30.5894 C   0  0  0  0  0  0
    2.5001    4.5456   31.2212 C   0  0  0  0  0  0
   -6.0375   -0.7648   31.8052 C   0  0  0  0  0  0
   -7.0729   -1.7126   31.8519 C   0  0  0  0  0  0
   -6.8172   -3.0100   32.2940 C   0  0  0  0  0  0
   -5.5302   -3.3745   32.6801 C   0  0  0  0  0  0
   -4.4912   -2.4488   32.6079 C   0  0  0  0  0  0
   -4.7437   -1.1432   32.1887 C   0  0  0  0  0  0
   -5.2931   -4.6227   33.1418 F   0  0  0  0  0  0
   -3.7247   -0.2518   32.1610 F   0  0  0  0  0  0
    2.3565    3.5423   28.6738 C   0  0  0  0  0  0
    1.2233    4.1416   29.2234 C   0  0  0  0  0  0
    2.3075    2.9792   27.4087 N   0  0  0  0  0  0
   -7.8737    6.2215   30.1194 H   0  0  0  0  0  0
   -9.3870    2.3754   30.0406 H   0  0  0  0  0  0
   -4.7390    1.9871   30.3552 H   0  0  0  0  0  0
   -4.1646    5.6645   30.0840 H   0  0  0  0  0  0
   -0.4504    2.7571   31.5364 H   0  0  0  0  0  0
   -2.6669    1.7746   31.1632 H   0  0  0  0  0  0
   -5.7385    1.2641   31.9117 H   0  0  0  0  0  0
    4.5498    3.8756   31.0890 H   0  0  0  0  0  0
    2.5806    4.9060   32.2344 H   0  0  0  0  0  0
   -8.0800   -1.4433   31.5712 H   0  0  0  0  0  0
   -7.6163   -3.7331   32.3452 H   0  0  0  0  0  0
   -3.4941   -2.7426   32.8993 H   0  0  0  0  0  0
    0.3061    4.1925   28.6591 H   0  0  0  0  0  0
    1.4121    2.8759   26.9524 H   0  0  0  0  0  0
    3.1128    2.4602   27.0923 H   0  0  0  0  0  0
  1  6  1  0  0  0
  1  2  2  0  0  0
  1 34  1  0  0  0
  2  3  1  0  0  0
  3  7  1  0  0  0
  3  4  2  0  0  0
  4  5  1  0  0  0
  4 14  1  0  0  0
  5  6  2  0  0  0
  5 35  1  0  0  0
  7  8  1  0  0  0
  7 36  1  0  0  0
  8  9  2  0  0  0
  8 13  1  0  0  0
  9 10  1  0  0  0
  9 37  1  0  0  0
 10 17  1  0  0  0
 10 11  2  0  0  0
 11 18  1  0  0  0
 11 12  1  0  0  0
 12 13  2  0  0  0
 12 38  1  0  0  0
 13 39  1  0  0  0
 14 16  1  0  0  0
 14 15  2  0  0  0
 16 23  1  0  0  0
 16 40  1  0  0  0
 18 19  1  0  0  0
 19 32  2  0  0  0
 19 22  1  0  0  0
 20 31  2  0  0  0
 20 21  1  0  0  0
 21 22  2  0  0  0
 21 41  1  0  0  0
 22 42  1  0  0  0
 23 24  2  0  0  0
 23 28  1  0  0  0
 24 25  1  0  0  0
 24 43  1  0  0  0
 25 26  2  0  0  0
 25 44  1  0  0  0
 26 27  1  0  0  0
 26 29  1  0  0  0
 27 28  2  0  0  0
 27 45  1  0  0  0
 28 30  1  0  0  0
 31 32  1  0  0  0
 31 33  1  0  0  0
 32 46  1  0  0  0
 33 47  1  0  0  0
 33 48  1  0  0  0
M  END
> <s_m_entry_id>
10543

> <s_m_entry_name>
dock_pv.612

> <s_m_Source_Path>
/home/csk/Desktop/cluster/DUD-E-result/met

> <s_m_Source_File>
dock_pv.maegz

> <i_m_Source_File_Index>
612

> <chembl_id>
CHEMBL1098518

> <chembl_pref_name>
None

> <i_lp_mmshare_version>
53161

> <i_f3d_flags>
0

> <r_lp_tautomer_probability>
0.999999169619288

> <s_lp_Force_Field>
OPLS_2005

> <r_lp_Energy>
27.415054

> <b_lp_Chiralities_Consistent>
1

> <s_lp_Variant>
CHEMBL3717_lig569-1

> <s_i_glide_gridfile>
glide-grid_3lq8

> <i_i_glide_lignum>
623

> <i_i_glide_rotatable_bonds>
7

> <r_i_docking_score>
-6.9633579060521

> <r_i_glide_ligand_efficiency>
-0.211010845637942

> <r_i_glide_ligand_efficiency_sa>
-0.676824530596309

> <r_i_glide_ligand_efficiency_ln>
-1.54861474396834

> <r_i_glide_gscore>
-6.9633579060521

> <r_i_glide_lipo>
-3.58621939184956

> <r_i_glide_hbond>
0

> <r_i_glide_metal>
0

> <r_i_glide_rewards>
-1.42422074119672

> <r_i_glide_evdw>
-46.9686546325684

> <r_i_glide_ecoul>
-1.57349789142609

> <r_i_glide_erotb>
0.686289847844615

> <r_i_glide_esite>
-0.0547502055081061

> <r_i_glide_emodel>
-61.3545391892152

> <r_i_glide_energy>
-48.5421525239944

> <r_i_glide_einternal>
12.2728633880615

> <i_i_glide_confnum>
4

> <i_i_glide_posenum>
44

> <r_i_glide_eff_state_penalty>
0

> <s_user_duplicate_titles>
CHEMBL3717_lig569,627376

> <s_m_subgroup_title>
dock_pv

> <s_m_subgroupid>
dock_pv

> <b_m_subgroup_collapsed>
1

$$$$
CHEMBL3717_lig685
                    3D
 Schrodinger Suite 2021-1.
 53 56  0  0  1  0            999 V2000
   -5.2755    2.7665   30.5277 C   0  0  0  0  0  0
   -5.8331    4.0473   30.5046 C   0  0  0  0  0  0
   -4.9902    5.1624   30.5229 C   0  0  0  0  0  0
   -3.8926    2.5705   30.6079 C   0  0  0  0  0  0
   -3.0330    3.7007   30.6080 C   0  0  0  0  0  0
   -3.5843    5.0142   30.5680 C   0  0  0  0  0  0
   -2.7929    6.1250   30.5719 N   0  0  0  0  0  0
   -1.4441    5.9562   30.6076 C   0  0  0  0  0  0
   -0.8060    4.7131   30.6670 C   0  0  0  0  0  0
   -1.6241    3.5830   30.6736 C   0  0  0  0  0  0
    0.5786    4.5796   30.7007 N   0  0  0  0  0  0
    1.2789    3.5571   31.5014 C   0  0  0  0  0  0
    2.4856    2.9226   30.7753 C   0  0  0  0  0  0
    3.4308    3.9560   30.3566 N   0  0  0  0  0  0
    2.7280    4.8221   29.4090 C   0  0  0  0  0  0
    1.5294    5.5289   30.0967 C   0  0  0  0  0  0
   -3.3231    1.3193   30.7206 O   0  0  0  0  0  0
   -7.3514    4.2262   30.4442 C   0  0  0  0  0  0
   -7.9354    3.2057   29.8132 F   0  0  0  0  0  0
   -7.8266    4.2867   31.6887 F   0  0  0  0  0  0
   -7.6941    5.3462   29.8082 F   0  0  0  0  0  0
   -3.9387    0.3670   31.5930 C   0  0  0  0  0  0
   -4.2998   -0.8969   30.8354 C   0  0  0  0  0  0
   -3.4585   -1.3861   29.8313 C   0  0  0  0  0  0
   -3.7721   -2.5615   29.1361 C   0  0  0  0  0  0
   -4.9488   -3.2431   29.4783 C   0  0  0  0  0  0
   -5.7876   -2.7671   30.4839 C   0  0  0  0  0  0
   -5.4647   -1.5951   31.1620 C   0  0  0  0  0  0
   -2.8942   -3.0602   28.0500 N   0  3  0  0  0  0
   -1.8587   -2.4433   27.8071 O   0  0  0  0  0  0
   -3.2629   -4.0423   27.4107 O   0  5  0  0  0  0
    4.5903    3.3466   29.7118 C   0  0  0  0  0  0
   -5.9278    1.9052   30.5044 H   0  0  0  0  0  0
   -5.4064    6.1600   30.4942 H   0  0  0  0  0  0
   -0.8646    6.8671   30.6076 H   0  0  0  0  0  0
   -1.1993    2.5951   30.6900 H   0  0  0  0  0  0
    1.6146    4.0265   32.4279 H   0  0  0  0  0  0
    0.6008    2.7622   31.8079 H   0  0  0  0  0  0
    2.9804    2.2144   31.4420 H   0  0  0  0  0  0
    2.1336    2.3564   29.9109 H   0  0  0  0  0  0
    2.3754    4.2530   28.5458 H   0  0  0  0  0  0
    3.4292    5.5557   29.0150 H   0  0  0  0  0  0
    1.0190    6.1597   29.3686 H   0  0  0  0  0  0
    1.8936    6.1993   30.8761 H   0  0  0  0  0  0
   -4.8079    0.7523   32.1305 H   0  0  0  0  0  0
   -3.2102    0.1004   32.3604 H   0  0  0  0  0  0
   -2.5564   -0.8427   29.5879 H   0  0  0  0  0  0
   -5.2046   -4.1691   28.9853 H   0  0  0  0  0  0
   -6.6835   -3.3131   30.7428 H   0  0  0  0  0  0
   -6.1180   -1.2367   31.9463 H   0  0  0  0  0  0
    5.2977    4.1089   29.3860 H   0  0  0  0  0  0
    5.1181    2.6879   30.4034 H   0  0  0  0  0  0
    4.3041    2.7579   28.8378 H   0  0  0  0  0  0
  1  4  1  0  0  0
  1  2  2  0  0  0
  1 33  1  0  0  0
  2 18  1  0  0  0
  2  3  1  0  0  0
  3  6  2  0  0  0
  3 34  1  0  0  0
  4 17  1  0  0  0
  4  5  2  0  0  0
  5 10  1  0  0  0
  5  6  1  0  0  0
  6  7  1  0  0  0
  7  8  2  0  0  0
  8  9  1  0  0  0
  8 35  1  0  0  0
  9 10  2  0  0  0
  9 11  1  0  0  0
 10 36  1  0  0  0
 11 12  1  0  0  0
 11 16  1  0  0  0
 12 13  1  0  0  0
 12 37  1  0  0  0
 12 38  1  0  0  0
 13 14  1  0  0  0
 13 39  1  0  0  0
 13 40  1  0  0  0
 14 15  1  0  0  0
 14 32  1  0  0  0
 15 16  1  0  0  0
 15 41  1  0  0  0
 15 42  1  0  0  0
 16 43  1  0  0  0
 16 44  1  0  0  0
 17 22  1  0  0  0
 18 19  1  0  0  0
 18 20  1  0  0  0
 18 21  1  0  0  0
 22 23  1  0  0  0
 22 45  1  0  0  0
 22 46  1  0  0  0
 23 24  2  0  0  0
 23 28  1  0  0  0
 24 25  1  0  0  0
 24 47  1  0  0  0
 25 26  2  0  0  0
 25 29  1  0  0  0
 26 27  1  0  0  0
 26 48  1  0  0  0
 27 28  2  0  0  0
 27 49  1  0  0  0
 28 50  1  0  0  0
 29 30  2  0  0  0
 29 31  1  0  0  0
 32 51  1  0  0  0
 32 52  1  0  0  0
 32 53  1  0  0  0
M  CHG  2  29   1  31  -1
M  END
> <s_m_entry_id>
10544

> <s_m_entry_name>
dock_pv.613

> <s_m_Source_Path>
/home/csk/Desktop/cluster/DUD-E-result/met

> <s_m_Source_File>
dock_pv.maegz

> <i_m_Source_File_Index>
613

> <chembl_id>
CHEMBL1766541

> <chembl_pref_name>
None

> <i_lp_mmshare_version>
53161

> <i_f3d_flags>
0

> <r_lp_tautomer_probability>
1

> <s_lp_Force_Field>
OPLS_2005

> <r_lp_Energy>
53.140133

> <b_lp_Chiralities_Consistent>
1

> <s_lp_Variant>
CHEMBL3717_lig685-1

> <s_i_glide_gridfile>
glide-grid_3lq8

> <i_i_glide_lignum>
743

> <i_i_glide_rotatable_bonds>
6

> <r_i_docking_score>
-6.96295849383372

> <r_i_glide_ligand_efficiency>
-0.217592452932304

> <r_i_glide_ligand_efficiency_sa>
-0.690812976572102

> <r_i_glide_ligand_efficiency_ln>
-1.5591962098494

> <r_i_glide_gscore>
-6.96295849383372

> <r_i_glide_lipo>
-3.48490423686512

> <r_i_glide_hbond>
0

> <r_i_glide_metal>
0

> <r_i_glide_rewards>
-1.37697603440675

> <r_i_glide_evdw>
-44.6172370910645

> <r_i_glide_ecoul>
-1.43101954460144

> <r_i_glide_erotb>
0.401746122146795

> <r_i_glide_esite>
-0.0573095584652106

> <r_i_glide_emodel>
-61.6981702324643

> <r_i_glide_energy>
-46.0482566356659

> <r_i_glide_einternal>
5.47723484039307

> <i_i_glide_confnum>
3

> <i_i_glide_posenum>
56

> <r_i_glide_eff_state_penalty>
0

> <s_user_duplicate_titles>
CHEMBL3717_lig685

> <s_m_subgroup_title>
dock_pv

> <s_m_subgroupid>
dock_pv

> <b_m_subgroup_collapsed>
1

$$$$
CHEMBL3717_lig320
                    3D
 Schrodinger Suite 2021-1.
 44 47  0  0  1  0            999 V2000
   -2.0826    4.8898   30.6242 C   0  0  0  0  0  0
   -2.6585    6.1699   30.6081 C   0  0  0  0  0  0
   -4.0513    6.3182   30.6081 C   0  0  0  0  0  0
   -4.1638    3.9318   30.5908 N   0  0  0  0  0  0
   -4.8374    5.1574   30.6043 C   0  0  0  0  0  0
   -6.1710    4.9376   30.6082 N   0  0  0  0  0  0
   -6.3403    3.5627   30.5585 N   0  0  0  0  0  0
   -5.1561    2.9759   30.5436 C   0  0  0  0  0  0
   -4.8687    1.4799   30.4931 C   0  0  0  0  0  0
   -6.0995    0.6048   30.2928 C   0  0  0  0  0  0
   -6.3977    0.1009   29.0245 C   0  0  0  0  0  0
   -7.5163   -0.7064   28.8394 C   0  0  0  0  0  0
   -8.3337   -1.0093   29.9259 C   0  0  0  0  0  0
   -8.0461   -0.5058   31.1929 C   0  0  0  0  0  0
   -6.9260    0.3009   31.3785 C   0  0  0  0  0  0
   -9.4278   -1.8114   29.7487 O   0  0  0  0  0  0
   -0.5999    4.6717   30.6448 C   0  0  0  0  0  0
   -0.0532    3.5570   31.2914 C   0  0  0  0  0  0
    1.3135    3.3011   31.2648 C   0  0  0  0  0  0
    2.1837    4.1496   30.5783 C   0  0  0  0  0  0
    1.6438    5.2800   29.9516 C   0  0  0  0  0  0
    0.2781    5.5465   29.9941 C   0  0  0  0  0  0
    3.6606    3.8137   30.5147 C   0  0  0  0  0  0
    4.0831    2.7643   31.0055 O   0  0  0  0  0  0
    4.4629    4.7115   29.9129 N   0  0  0  0  0  0
    5.9053    4.5781   29.7415 C   0  0  0  0  0  0
   -2.8332    3.7500   30.6081 N   0  0  0  0  0  0
   -2.0295    7.0484   30.6109 H   0  0  0  0  0  0
   -4.5236    7.2891   30.6094 H   0  0  0  0  0  0
   -4.1554    1.2691   29.6944 H   0  0  0  0  0  0
   -4.3721    1.1639   31.4105 H   0  0  0  0  0  0
   -5.7602    0.3238   28.1817 H   0  0  0  0  0  0
   -7.7326   -1.0968   27.8556 H   0  0  0  0  0  0
   -8.6856   -0.7454   32.0291 H   0  0  0  0  0  0
   -6.7013    0.6857   32.3638 H   0  0  0  0  0  0
   -9.4979   -2.1454   28.8523 H   0  0  0  0  0  0
   -0.6959    2.8604   31.8097 H   0  0  0  0  0  0
    1.6837    2.4150   31.7615 H   0  0  0  0  0  0
    2.2739    5.9570   29.4081 H   0  0  0  0  0  0
   -0.0975    6.4163   29.4751 H   0  0  0  0  0  0
    4.0493    5.5571   29.5562 H   0  0  0  0  0  0
    6.1963    4.9508   28.7586 H   0  0  0  0  0  0
    6.2439    3.5447   29.8159 H   0  0  0  0  0  0
    6.4298    5.1672   30.4945 H   0  0  0  0  0  0
  1  2  1  0  0  0
  1 27  2  0  0  0
  1 17  1  0  0  0
  2  3  2  0  0  0
  2 28  1  0  0  0
  3  5  1  0  0  0
  3 29  1  0  0  0
  4 27  1  0  0  0
  4  8  1  0  0  0
  4  5  1  0  0  0
  5  6  2  0  0  0
  6  7  1  0  0  0
  7  8  2  0  0  0
  8  9  1  0  0  0
  9 10  1  0  0  0
  9 30  1  0  0  0
  9 31  1  0  0  0
 10 15  1  0  0  0
 10 11  2  0  0  0
 11 12  1  0  0  0
 11 32  1  0  0  0
 12 13  2  0  0  0
 12 33  1  0  0  0
 13 14  1  0  0  0
 13 16  1  0  0  0
 14 15  2  0  0  0
 14 34  1  0  0  0
 15 35  1  0  0  0
 16 36  1  0  0  0
 17 18  2  0  0  0
 17 22  1  0  0  0
 18 19  1  0  0  0
 18 37  1  0  0  0
 19 20  2  0  0  0
 19 38  1  0  0  0
 20 21  1  0  0  0
 20 23  1  0  0  0
 21 22  2  0  0  0
 21 39  1  0  0  0
 22 40  1  0  0  0
 23 24  2  0  0  0
 23 25  1  0  0  0
 25 26  1  0  0  0
 25 41  1  0  0  0
 26 42  1  0  0  0
 26 43  1  0  0  0
 26 44  1  0  0  0
M  END
> <s_m_entry_id>
10545

> <s_m_entry_name>
dock_pv.614

> <s_m_Source_Path>
/home/csk/Desktop/cluster/DUD-E-result/met

> <s_m_Source_File>
dock_pv.maegz

> <i_m_Source_File_Index>
614

> <chembl_id>
CHEMBL494983

> <chembl_pref_name>
None

> <i_lp_mmshare_version>
53161

> <i_f3d_flags>
0

> <r_lp_tautomer_probability>
0.999999999997365

> <s_lp_Force_Field>
OPLS_2005

> <r_lp_Energy>
26.027701

> <b_lp_Chiralities_Consistent>
1

> <s_lp_Variant>
CHEMBL3717_lig320-1

> <s_i_glide_gridfile>
glide-grid_3lq8

> <i_i_glide_lignum>
336

> <i_i_glide_rotatable_bonds>
6

> <r_i_docking_score>
-6.96285327666176

> <r_i_glide_ligand_efficiency>
-0.257883454691176

> <r_i_glide_ligand_efficiency_sa>
-0.773650363223588

> <r_i_glide_ligand_efficiency_ln>
-1.62083745119914

> <r_i_glide_gscore>
-6.96285327666176

> <r_i_glide_lipo>
-2.74050326736914

> <r_i_glide_hbond>
0

> <r_i_glide_metal>
0

> <r_i_glide_rewards>
-2.82962661720563

> <r_i_glide_evdw>
-41.4603805541992

> <r_i_glide_ecoul>
0.577939569950104

> <r_i_glide_erotb>
0.593604700130453

> <r_i_glide_esite>
0

> <r_i_glide_emodel>
-57.7053023723428

> <r_i_glide_energy>
-40.8824409842491

> <r_i_glide_einternal>
0.395084649324417

> <i_i_glide_confnum>
2

> <i_i_glide_posenum>
52

> <r_i_glide_eff_state_penalty>
0

> <s_user_duplicate_titles>
CHEMBL3717_lig320,486734

> <s_m_subgroup_title>
dock_pv

> <s_m_subgroupid>
dock_pv

> <b_m_subgroup_collapsed>
1

$$$$
CHEMBL3717_lig4098
                    3D
 Schrodinger Suite 2021-1.
 32 33  0  0  1  0            999 V2000
   -4.0757    1.1571   30.6406 O   0  0  0  0  0  0
   -3.3392    7.1386   30.6080 O   0  0  0  0  0  0
   -3.9065    4.8669   30.6027 N   0  0  0  0  0  0
   -2.2025    3.2499   30.6378 N   0  0  0  0  0  0
   -7.5939    1.1534   29.6266 N   0  0  0  0  0  0
   -3.4679    3.5297   30.6080 C   0  0  0  0  0  0
   -4.4840    2.4621   30.6044 C   0  0  0  0  0  0
   -5.8221    2.7517   30.6079 C   0  0  0  0  0  0
   -3.0404    5.9422   30.6080 C   0  0  0  0  0  0
   -5.2700    5.1148   30.6080 C   0  0  0  0  0  0
   -1.2844    4.2565   30.6409 C   0  0  0  0  0  0
   -6.2202    4.1596   30.6080 C   0  0  0  0  0  0
   -1.6451    5.5570   30.6212 C   0  0  0  0  0  0
   -6.8926    1.6683   30.8086 C   0  0  0  0  0  0
    0.1465    3.7634   30.6363 C   0  0  0  0  0  0
   -6.7113    0.4829   28.6735 C   0  0  0  0  0  0
   -8.4940    2.1224   29.0064 C   0  0  0  0  0  0
   -3.1135    1.1201   30.6423 H   0  0  0  0  0  0
   -5.5534    6.1622   30.6080 H   0  0  0  0  0  0
   -7.2660    4.4335   30.6010 H   0  0  0  0  0  0
   -0.9044    6.3411   30.6080 H   0  0  0  0  0  0
   -7.6381    2.0595   31.5026 H   0  0  0  0  0  0
   -6.4471    0.8212   31.3324 H   0  0  0  0  0  0
    0.8506    4.5954   30.6321 H   0  0  0  0  0  0
    0.3445    3.1570   31.5197 H   0  0  0  0  0  0
    0.3361    3.1570   29.7498 H   0  0  0  0  0  0
   -7.2819    0.0463   27.8527 H   0  0  0  0  0  0
   -6.1735   -0.3313   29.1613 H   0  0  0  0  0  0
   -5.9690    1.1570   28.2487 H   0  0  0  0  0  0
   -9.0322    1.6703   28.1722 H   0  0  0  0  0  0
   -9.2398    2.4589   29.7276 H   0  0  0  0  0  0
   -7.9759    3.0044   28.6344 H   0  0  0  0  0  0
  1  7  1  0  0  0
  1 18  1  0  0  0
  2  9  2  0  0  0
  3  6  1  0  0  0
  3  9  1  0  0  0
  3 10  1  0  0  0
  4  6  2  0  0  0
  4 11  1  0  0  0
  5 14  1  0  0  0
  5 16  1  0  0  0
  5 17  1  0  0  0
  6  7  1  0  0  0
  7  8  2  0  0  0
  8 12  1  0  0  0
  8 14  1  0  0  0
  9 13  1  0  0  0
 10 12  2  0  0  0
 10 19  1  0  0  0
 11 13  2  0  0  0
 11 15  1  0  0  0
 12 20  1  0  0  0
 13 21  1  0  0  0
 14 22  1  0  0  0
 14 23  1  0  0  0
 15 24  1  0  0  0
 15 25  1  0  0  0
 15 26  1  0  0  0
 16 27  1  0  0  0
 16 28  1  0  0  0
 16 29  1  0  0  0
 17 30  1  0  0  0
 17 31  1  0  0  0
 17 32  1  0  0  0
M  END
> <s_m_entry_id>
10546

> <s_m_entry_name>
dock_pv.615

> <s_m_Source_Path>
/home/csk/Desktop/cluster/DUD-E-result/met

> <s_m_Source_File>
dock_pv.maegz

> <i_m_Source_File_Index>
615

> <chembl_id>
CHEMBL1988581

> <chembl_pref_name>
None

> <i_lp_mmshare_version>
53161

> <i_f3d_flags>
0

> <r_lp_tautomer_probability>
1

> <s_lp_Force_Field>
OPLS_2005

> <r_lp_Energy>
33.166481

> <b_lp_Chiralities_Consistent>
1

> <s_lp_Variant>
CHEMBL3717_lig4098-1

> <s_i_glide_gridfile>
glide-grid_3lq8

> <i_i_glide_lignum>
5234

> <i_i_glide_rotatable_bonds>
3

> <r_i_docking_score>
-6.96267043811953

> <r_i_glide_ligand_efficiency>
-0.409568849301149

> <r_i_glide_ligand_efficiency_sa>
-1.05311684132055

> <r_i_glide_ligand_efficiency_ln>
-1.81640566625801

> <r_i_glide_gscore>
-6.96267043811953

> <r_i_glide_lipo>
-1.96502162754157

> <r_i_glide_hbond>
-0.32

> <r_i_glide_metal>
0

> <r_i_glide_rewards>
-3.12274711380007

> <r_i_glide_evdw>
-26.3349266052246

> <r_i_glide_ecoul>
-3.68872690200806

> <r_i_glide_erotb>
0.315153668784541

> <r_i_glide_esite>
0

> <r_i_glide_emodel>
-40.0518700353203

> <r_i_glide_energy>
-30.0236535072327

> <r_i_glide_einternal>
2.74183559417725

> <i_i_glide_confnum>
3

> <i_i_glide_posenum>
318

> <r_i_glide_eff_state_penalty>
0

> <s_user_duplicate_titles>
CHEMBL3717_lig4098

> <s_m_subgroup_title>
dock_pv

> <s_m_subgroupid>
dock_pv

> <b_m_subgroup_collapsed>
1

$$$$
CHEMBL3717_lig3734
                    3D
 Schrodinger Suite 2021-1.
 38 41  0  0  1  0            999 V2000
    5.6240    4.3570   27.8256 Cl  0  0  0  0  0  0
   -3.4710    3.2386   30.6079 N   0  0  0  0  0  0
   -2.1488    3.3451   30.8354 N   0  0  0  0  0  0
   -5.4935    2.4343   30.2451 N   0  0  0  0  0  0
   -5.6081    3.8140   30.2080 N   0  0  0  0  0  0
   -0.2737    4.8214   30.9511 N   0  0  0  0  0  0
   -4.2428    2.0935   30.4961 C   0  0  0  0  0  0
   -4.3652    4.3008   30.4033 C   0  0  0  0  0  0
   -3.7825    0.6809   30.6661 C   0  0  0  0  0  0
   -1.6577    4.6165   30.8168 C   0  0  0  0  0  0
   -3.8425    5.6021   30.4315 C   0  0  0  0  0  0
   -2.4649    5.7448   30.6265 C   0  0  0  0  0  0
   -2.8940    0.3284   31.6881 C   0  0  0  0  0  0
   -4.2711   -0.3089   29.8059 C   0  0  0  0  0  0
    0.6620    3.7233   31.1819 C   0  0  0  0  0  0
    1.9167    3.8599   30.3373 C   0  0  0  0  0  0
   -2.4945   -0.9971   31.8450 C   0  0  0  0  0  0
   -3.8624   -1.6324   29.9539 C   0  0  0  0  0  0
   -2.9789   -1.9713   30.9748 C   0  0  0  0  0  0
    1.9016    3.4773   28.9936 C   0  0  0  0  0  0
    3.0900    4.3564   30.9119 C   0  0  0  0  0  0
    4.2151    4.1222   28.7946 C   0  0  0  0  0  0
    3.0552    3.5983   28.2233 C   0  0  0  0  0  0
    4.2401    4.4891   30.1372 C   0  0  0  0  0  0
    0.0836    5.7643   30.9441 H   0  0  0  0  0  0
   -4.4869    6.4577   30.2766 H   0  0  0  0  0  0
   -2.0236    6.7318   30.6175 H   0  0  0  0  0  0
   -2.5066    1.0807   32.3621 H   0  0  0  0  0  0
   -4.9540   -0.0579   29.0055 H   0  0  0  0  0  0
    0.2122    2.7571   30.9736 H   0  0  0  0  0  0
    0.9419    3.7158   32.2295 H   0  0  0  0  0  0
   -1.8057   -1.2668   32.6303 H   0  0  0  0  0  0
   -4.2289   -2.3934   29.2778 H   0  0  0  0  0  0
   -2.6672   -3.0001   31.0889 H   0  0  0  0  0  0
    0.9987    3.0825   28.5491 H   0  0  0  0  0  0
    3.1081    4.6528   31.9517 H   0  0  0  0  0  0
    3.0399    3.3035   27.1839 H   0  0  0  0  0  0
    5.1424    4.8941   30.5729 H   0  0  0  0  0  0
  1 22  1  0  0  0
  2  3  1  0  0  0
  2  7  1  0  0  0
  2  8  1  0  0  0
  3 10  2  0  0  0
  4  5  1  0  0  0
  4  7  2  0  0  0
  5  8  2  0  0  0
  6 10  1  0  0  0
  6 15  1  0  0  0
  6 25  1  0  0  0
  7  9  1  0  0  0
  8 11  1  0  0  0
  9 13  2  0  0  0
  9 14  1  0  0  0
 10 12  1  0  0  0
 11 12  2  0  0  0
 11 26  1  0  0  0
 12 27  1  0  0  0
 13 17  1  0  0  0
 13 28  1  0  0  0
 14 18  2  0  0  0
 14 29  1  0  0  0
 15 16  1  0  0  0
 15 30  1  0  0  0
 15 31  1  0  0  0
 16 20  2  0  0  0
 16 21  1  0  0  0
 17 19  2  0  0  0
 17 32  1  0  0  0
 18 19  1  0  0  0
 18 33  1  0  0  0
 19 34  1  0  0  0
 20 23  1  0  0  0
 20 35  1  0  0  0
 21 24  2  0  0  0
 21 36  1  0  0  0
 22 23  2  0  0  0
 22 24  1  0  0  0
 23 37  1  0  0  0
 24 38  1  0  0  0
M  END
> <s_m_entry_id>
10547

> <s_m_entry_name>
dock_pv.616

> <s_m_Source_Path>
/home/csk/Desktop/cluster/DUD-E-result/met

> <s_m_Source_File>
dock_pv.maegz

> <i_m_Source_File_Index>
616

> <chembl_id>
CHEMBL1381197

> <chembl_pref_name>
None

> <i_lp_mmshare_version>
53161

> <i_f3d_flags>
0

> <r_lp_tautomer_probability>
1

> <s_lp_Force_Field>
OPLS_2005

> <r_lp_Energy>
19.25041

> <b_lp_Chiralities_Consistent>
1

> <s_lp_Variant>
CHEMBL3717_lig3734-1

> <s_i_glide_gridfile>
glide-grid_3lq8

> <i_i_glide_lignum>
4713

> <i_i_glide_rotatable_bonds>
4

> <r_i_docking_score>
-6.96074383091246

> <r_i_glide_ligand_efficiency>
-0.290030992954686

> <r_i_glide_ligand_efficiency_sa>
-0.836594149043206

> <r_i_glide_ligand_efficiency_ln>
-1.66602540645887

> <r_i_glide_gscore>
-6.96074383091246

> <r_i_glide_lipo>
-3.43278143939499

> <r_i_glide_hbond>
0

> <r_i_glide_metal>
0

> <r_i_glide_rewards>
-2.05383628226817

> <r_i_glide_evdw>
-42.909797668457

> <r_i_glide_ecoul>
0.0110830944031477

> <r_i_glide_erotb>
0.669701310013078

> <r_i_glide_esite>
0

> <r_i_glide_emodel>
-58.9065065513204

> <r_i_glide_energy>
-42.8987145740539

> <r_i_glide_einternal>
4.29937028884888

> <i_i_glide_confnum>
1

> <i_i_glide_posenum>
229

> <r_i_glide_eff_state_penalty>
0

> <s_user_duplicate_titles>
CHEMBL3717_lig3734

> <s_m_subgroup_title>
dock_pv

> <s_m_subgroupid>
dock_pv

> <b_m_subgroup_collapsed>
1

$$$$
CHEMBL3717_lig1577
                    3D
 Schrodinger Suite 2021-1.
 51 54  0  0  1  0            999 V2000
   -3.5206    4.8424   30.6079 C   0  0  0  0  0  0
   -4.6359    5.6321   30.9000 C   0  0  0  0  0  0
   -5.9085    5.1572   30.8778 N   0  0  0  0  0  0
   -6.1038    3.8623   30.5245 C   0  0  0  0  0  0
   -5.0394    3.0019   30.2082 C   0  0  0  0  0  0
   -3.7432    3.5058   30.2703 C   0  0  0  0  0  0
   -2.1361    5.3784   30.6081 C   0  0  0  0  0  0
   -7.4281    3.4395   30.4701 N   0  0  0  0  0  0
   -1.6900    6.6445   30.2080 C   0  0  0  0  0  0
   -0.3831    6.7542   30.2074 N   0  0  0  0  0  0
    0.0669    5.5925   30.7111 N   0  0  0  0  0  0
   -0.9636    4.7149   30.9404 C   0  0  0  0  0  0
    1.5182    5.3562   30.7370 C   0  0  0  0  0  0
    2.0207    4.4131   31.8577 C   0  0  0  0  0  0
    2.0038    2.9241   31.4485 C   0  0  0  0  0  0
    2.6258    2.7576   30.1768 O   0  0  0  0  0  0
    1.9501    3.4274   29.1135 C   0  0  0  0  0  0
    2.0638    4.9429   29.3522 C   0  0  0  0  0  0
   -5.2733    1.3290   29.6773 S   0  0  0  0  0  0
   -4.9487    0.2665   31.1207 C   0  0  1  0  0  0
   -5.3857   -1.1767   30.8043 C   0  0  0  0  0  0
   -3.5409    0.3573   31.7506 C   0  0  0  0  0  0
   -6.5208   -1.7347   31.4342 C   0  0  0  0  0  0
   -6.9441   -3.0239   31.1136 C   0  0  0  0  0  0
   -6.2632   -3.7738   30.1626 C   0  0  0  0  0  0
   -5.1440   -3.2431   29.5312 C   0  0  0  0  0  0
   -4.6950   -1.9588   29.8469 C   0  0  0  0  0  0
   -3.2892   -1.3846   29.0079 Cl  0  0  0  0  0  0
   -7.4618   -0.8756   32.6074 Cl  0  0  0  0  0  0
   -4.4932   -3.9893   28.6077 F   0  0  0  0  0  0
   -4.5221    6.6744   31.1598 H   0  0  0  0  0  0
   -2.9111    2.8614   30.0257 H   0  0  0  0  0  0
   -7.6237    2.4955   30.1703 H   0  0  0  0  0  0
   -8.1608    4.1179   30.6103 H   0  0  0  0  0  0
   -2.3097    7.4524   29.8521 H   0  0  0  0  0  0
   -0.7873    3.7075   31.2787 H   0  0  0  0  0  0
    1.9057    6.3541   30.9511 H   0  0  0  0  0  0
    3.0465    4.6960   32.0985 H   0  0  0  0  0  0
    1.4805    4.5861   32.7892 H   0  0  0  0  0  0
    2.5481    2.3290   32.1829 H   0  0  0  0  0  0
    0.9954    2.5172   31.4192 H   0  0  0  0  0  0
    2.4191    3.1526   28.1684 H   0  0  0  0  0  0
    0.9064    3.1132   29.0478 H   0  0  0  0  0  0
    1.5638    5.5055   28.5623 H   0  0  0  0  0  0
    3.1105    5.2387   29.2776 H   0  0  0  0  0  0
   -5.6032    0.6975   31.8755 H   0  0  0  0  0  0
   -3.5429   -0.0493   32.7619 H   0  0  0  0  0  0
   -2.7683   -0.1698   31.1992 H   0  0  0  0  0  0
   -3.2076    1.3893   31.8081 H   0  0  0  0  0  0
   -7.8121   -3.4443   31.5998 H   0  0  0  0  0  0
   -6.5933   -4.7721   29.9178 H   0  0  0  0  0  0
  1  2  2  0  0  0
  1  6  1  0  0  0
  1  7  1  0  0  0
  2  3  1  0  0  0
  2 31  1  0  0  0
  3  4  2  0  0  0
  4  5  1  0  0  0
  4  8  1  0  0  0
  5  6  2  0  0  0
  5 19  1  0  0  0
  6 32  1  0  0  0
  7  9  1  0  0  0
  7 12  2  0  0  0
  8 33  1  0  0  0
  8 34  1  0  0  0
  9 10  2  0  0  0
  9 35  1  0  0  0
 10 11  1  0  0  0
 11 12  1  0  0  0
 11 13  1  0  0  0
 12 36  1  0  0  0
 13 14  1  0  0  0
 13 18  1  0  0  0
 13 37  1  0  0  0
 14 15  1  0  0  0
 14 38  1  0  0  0
 14 39  1  0  0  0
 15 16  1  0  0  0
 15 40  1  0  0  0
 15 41  1  0  0  0
 16 17  1  0  0  0
 17 18  1  0  0  0
 17 42  1  0  0  0
 17 43  1  0  0  0
 18 44  1  0  0  0
 18 45  1  0  0  0
 19 20  1  0  0  0
 20 21  1  0  0  0
 20 22  1  0  0  0
 20 46  1  0  0  0
 21 23  2  0  0  0
 21 27  1  0  0  0
 22 47  1  0  0  0
 22 48  1  0  0  0
 22 49  1  0  0  0
 23 24  1  0  0  0
 23 29  1  0  0  0
 24 25  2  0  0  0
 24 50  1  0  0  0
 25 26  1  0  0  0
 25 51  1  0  0  0
 26 27  2  0  0  0
 26 30  1  0  0  0
 27 28  1  0  0  0
M  END
> <s_m_entry_id>
10548

> <s_m_entry_name>
dock_pv.617

> <s_m_Source_Path>
/home/csk/Desktop/cluster/DUD-E-result/met

> <s_m_Source_File>
dock_pv.maegz

> <i_m_Source_File_Index>
617

> <chembl_id>
CHEMBL2442127

> <chembl_pref_name>
None

> <i_lp_mmshare_version>
53161

> <i_f3d_flags>
0

> <r_lp_tautomer_probability>
0.999999772200052

> <s_lp_Force_Field>
OPLS_2005

> <r_lp_Energy>
22.035958

> <b_lp_Chiralities_Consistent>
1

> <s_lp_Variant>
CHEMBL3717_lig1577-2

> <s_i_glide_gridfile>
glide-grid_3lq8

> <i_i_glide_lignum>
1829

> <i_i_glide_rotatable_bonds>
5

> <r_i_docking_score>
-6.96014203780243

> <r_i_glide_ligand_efficiency>
-0.232004734593414

> <r_i_glide_ligand_efficiency_sa>
-0.720892652046556

> <r_i_glide_ligand_efficiency_ln>
-1.58142010781027

> <r_i_glide_gscore>
-6.96014203780243

> <r_i_glide_lipo>
-3.86679668072391

> <r_i_glide_hbond>
0

> <r_i_glide_metal>
0

> <r_i_glide_rewards>
-1.39880803464434

> <r_i_glide_evdw>
-44.7067222595215

> <r_i_glide_ecoul>
1.15286350250244

> <r_i_glide_erotb>
0.46193336103169

> <r_i_glide_esite>
-0.0940640958651603

> <r_i_glide_emodel>
-55.7517691856598

> <r_i_glide_energy>
-43.553858757019

> <r_i_glide_einternal>
6.89939641952515

> <i_i_glide_confnum>
160

> <i_i_glide_posenum>
275

> <r_i_glide_eff_state_penalty>
0

> <s_user_duplicate_titles>
CHEMBL3717_lig1577

> <s_m_subgroup_title>
dock_pv

> <s_m_subgroupid>
dock_pv

> <b_m_subgroup_collapsed>
1

$$$$
CHEMBL3717_lig3571
                    3D
 Schrodinger Suite 2021-1.
 53 55  0  0  1  0            999 V2000
   -7.1973    2.8352   30.5951 O   0  0  0  0  0  0
   -7.7769   -0.4077   30.0567 O   0  0  0  0  0  0
   -3.8500    2.2166   30.3946 N   0  0  0  0  0  0
   -4.5920   -1.0468   30.0743 N   0  0  0  0  0  0
   -2.2621    3.8904   30.6084 N   0  0  0  0  0  0
   -2.7833    6.2470   30.6083 N   0  0  0  0  0  0
   -0.5738    5.5586   30.8100 N   0  0  0  0  0  0
   -5.0200    1.4737   30.3177 C   0  0  0  0  0  0
   -5.2803    0.1395   30.1852 C   0  0  0  0  0  0
   -6.5032    1.8377   30.4127 C   0  0  0  0  0  0
   -6.7854    0.3129   30.1776 C   0  0  0  0  0  0
   -3.5838    3.5938   30.4896 C   0  0  0  0  0  0
   -3.1646   -1.3232   30.1896 C   0  0  1  0  0  0
   -2.6964   -1.5905   31.6708 C   0  0  0  0  0  0
   -1.9173    5.2050   30.6674 C   0  0  0  0  0  0
   -4.5421    4.6138   30.4024 C   0  0  0  0  0  0
   -4.0943    5.9319   30.4837 C   0  0  0  0  0  0
   -2.8057   -2.4423   29.1921 C   0  0  0  0  0  0
    0.5792    4.7760   30.6983 C   0  0  0  0  0  0
   -3.6600   -2.5493   32.4169 C   0  0  0  0  0  0
   -2.6542   -0.2502   32.4416 C   0  0  0  0  0  0
   -1.2758   -2.2102   31.7300 C   0  0  0  0  0  0
    0.9398    4.1967   29.4794 C   0  0  0  0  0  0
    1.4131    4.6288   31.8067 C   0  0  0  0  0  0
    2.1305    3.4762   29.3634 C   0  0  0  0  0  0
    2.5934    3.8951   31.7024 C   0  0  0  0  0  0
    2.9540    3.3197   30.4829 C   0  0  0  0  0  0
    2.5106    2.8553   28.0329 C   0  0  0  0  0  0
   -2.9865    1.6953   30.4013 H   0  0  0  0  0  0
   -5.1283   -1.9006   30.0103 H   0  0  0  0  0  0
   -0.4177    6.5529   30.8748 H   0  0  0  0  0  0
   -2.6370   -0.4431   29.8234 H   0  0  0  0  0  0
   -5.5885    4.4429   30.2495 H   0  0  0  0  0  0
   -4.7917    6.7551   30.4183 H   0  0  0  0  0  0
   -1.7296   -2.5955   29.1146 H   0  0  0  0  0  0
   -3.2625   -3.3950   29.4630 H   0  0  0  0  0  0
   -3.1528   -2.1943   28.1892 H   0  0  0  0  0  0
   -3.2664   -2.8440   33.3885 H   0  0  0  0  0  0
   -3.8363   -3.4622   31.8527 H   0  0  0  0  0  0
   -4.6351   -2.0931   32.5922 H   0  0  0  0  0  0
   -2.0948    0.5111   31.9010 H   0  0  0  0  0  0
   -3.6536    0.1458   32.6185 H   0  0  0  0  0  0
   -2.1702   -0.3553   33.4101 H   0  0  0  0  0  0
   -0.5556   -1.6432   31.1446 H   0  0  0  0  0  0
   -0.8934   -2.2576   32.7505 H   0  0  0  0  0  0
   -1.2634   -3.2324   31.3514 H   0  0  0  0  0  0
    0.3060    4.3185   28.6156 H   0  0  0  0  0  0
    1.1484    5.0831   32.7494 H   0  0  0  0  0  0
    3.2274    3.7810   32.5680 H   0  0  0  0  0  0
    3.8739    2.7583   30.4067 H   0  0  0  0  0  0
    3.1064    1.9564   28.1828 H   0  0  0  0  0  0
    1.6224    2.5483   27.4785 H   0  0  0  0  0  0
    3.0775    3.5606   27.4264 H   0  0  0  0  0  0
  1 10  2  0  0  0
  2 11  2  0  0  0
  3  8  1  0  0  0
  3 12  1  0  0  0
  3 29  1  0  0  0
  4  9  1  0  0  0
  4 13  1  0  0  0
  4 30  1  0  0  0
  5 12  1  0  0  0
  5 15  2  0  0  0
  6 15  1  0  0  0
  6 17  2  0  0  0
  7 15  1  0  0  0
  7 19  1  0  0  0
  7 31  1  0  0  0
  8  9  2  0  0  0
  8 10  1  0  0  0
  9 11  1  0  0  0
 10 11  1  0  0  0
 12 16  2  0  0  0
 13 14  1  0  0  0
 13 18  1  0  0  0
 13 32  1  0  0  0
 14 20  1  0  0  0
 14 21  1  0  0  0
 14 22  1  0  0  0
 16 17  1  0  0  0
 16 33  1  0  0  0
 17 34  1  0  0  0
 18 35  1  0  0  0
 18 36  1  0  0  0
 18 37  1  0  0  0
 19 23  1  0  0  0
 19 24  2  0  0  0
 20 38  1  0  0  0
 20 39  1  0  0  0
 20 40  1  0  0  0
 21 41  1  0  0  0
 21 42  1  0  0  0
 21 43  1  0  0  0
 22 44  1  0  0  0
 22 45  1  0  0  0
 22 46  1  0  0  0
 23 25  2  0  0  0
 23 47  1  0  0  0
 24 26  1  0  0  0
 24 48  1  0  0  0
 25 27  1  0  0  0
 25 28  1  0  0  0
 26 27  2  0  0  0
 26 49  1  0  0  0
 27 50  1  0  0  0
 28 51  1  0  0  0
 28 52  1  0  0  0
 28 53  1  0  0  0
M  END
> <s_m_entry_id>
10549

> <s_m_entry_name>
dock_pv.618

> <s_m_Source_Path>
/home/csk/Desktop/cluster/DUD-E-result/met

> <s_m_Source_File>
dock_pv.maegz

> <i_m_Source_File_Index>
618

> <chembl_id>
CHEMBL1969523

> <chembl_pref_name>
None

> <i_lp_mmshare_version>
53161

> <i_f3d_flags>
0

> <r_lp_tautomer_probability>
1

> <s_lp_Force_Field>
OPLS_2005

> <r_lp_Energy>
44.785216

> <b_lp_Chiralities_Consistent>
1

> <s_lp_Variant>
CHEMBL3717_lig3571-2

> <s_i_glide_gridfile>
glide-grid_3lq8

> <i_i_glide_lignum>
4433

> <i_i_glide_rotatable_bonds>
7

> <r_i_docking_score>
-6.95257914296304

> <r_i_glide_ligand_efficiency>
-0.248306397962966

> <r_i_glide_ligand_efficiency_sa>
-0.754004468863013

> <r_i_glide_ligand_efficiency_ln>
-1.6048594027898

> <r_i_glide_gscore>
-6.95257914296304

> <r_i_glide_lipo>
-3.58745823939949

> <r_i_glide_hbond>
0

> <r_i_glide_metal>
0

> <r_i_glide_rewards>
-1.69365871365933

> <r_i_glide_evdw>
-47.342227935791

> <r_i_glide_ecoul>
-0.635107576847076

> <r_i_glide_erotb>
0.807994078029784

> <r_i_glide_esite>
-0.0170787346173944

> <r_i_glide_emodel>
-64.8868068879279

> <r_i_glide_energy>
-47.9773355126381

> <r_i_glide_einternal>
5.68880653381348

> <i_i_glide_confnum>
10

> <i_i_glide_posenum>
175

> <r_i_glide_eff_state_penalty>
0

> <s_user_duplicate_titles>
CHEMBL3717_lig3571

> <s_m_subgroup_title>
dock_pv

> <s_m_subgroupid>
dock_pv

> <b_m_subgroup_collapsed>
1

$$$$
CHEMBL3717_lig2600
                    3D
 Schrodinger Suite 2021-1.
 48 51  0  0  1  0            999 V2000
   -6.0319    1.4366   30.3884 C   0  0  0  0  0  0
   -4.5034    1.4644   30.5561 C   0  0  0  0  0  0
   -3.7761    0.4125   30.6288 N   0  0  0  0  0  0
   -4.5057   -0.7923   30.5444 O   0  0  0  0  0  0
   -3.6017   -1.8933   30.5789 C   0  0  0  0  0  0
   -3.0160   -2.1376   31.9981 C   0  0  1  0  0  0
   -3.6939   -3.2353   32.6073 O   0  0  0  0  0  0
   -1.4816   -2.3362   31.9657 C   0  0  0  0  0  0
   -0.8941   -2.3418   33.2558 O   0  0  0  0  0  0
   -3.8886    2.8233   30.6073 C   0  0  0  0  0  0
   -4.6151    4.0123   30.3723 C   0  0  0  0  0  0
   -4.0495    5.2521   30.3774 N   0  0  0  0  0  0
   -2.7342    5.2763   30.6072 C   0  0  0  0  0  0
   -1.8817    6.3363   30.6067 N   0  0  0  0  0  0
   -0.6151    5.8379   30.8518 N   0  0  0  0  0  0
   -0.6944    4.4999   31.0102 N   0  0  0  0  0  0
    0.4707    3.7209   31.4111 C   0  0  0  0  0  0
    1.7149    3.8946   30.5618 C   0  0  0  0  0  0
    1.6475    3.7360   29.1783 C   0  0  0  0  0  0
    2.7866    3.8816   28.3955 C   0  0  0  0  0  0
    4.0268    4.1884   29.0007 C   0  0  0  0  0  0
    5.1161    4.3569   28.2080 N   0  0  0  0  0  0
    6.3054    4.6160   28.7970 C   0  0  0  0  0  0
    6.4780    4.7490   30.1699 C   0  0  0  0  0  0
    5.3705    4.6064   30.9916 C   0  0  0  0  0  0
    4.1056    4.3215   30.4183 C   0  0  0  0  0  0
    2.9305    4.1771   31.1858 C   0  0  0  0  0  0
   -2.0051    4.0916   30.8463 C   0  0  0  0  0  0
   -2.5413    2.8686   30.8720 N   0  0  0  0  0  0
   -6.3195    1.8510   29.4208 H   0  0  0  0  0  0
   -6.4608    0.4355   30.4166 H   0  0  0  0  0  0
   -6.5254    1.9978   31.1843 H   0  0  0  0  0  0
   -2.8138   -1.7433   29.8362 H   0  0  0  0  0  0
   -4.1315   -2.7768   30.2194 H   0  0  0  0  0  0
   -3.2208   -1.2691   32.6236 H   0  0  0  0  0  0
   -3.6928   -3.9811   31.9901 H   0  0  0  0  0  0
   -1.0198   -1.5209   31.4104 H   0  0  0  0  0  0
   -1.2095   -3.2433   31.4339 H   0  0  0  0  0  0
    0.0644   -2.4422   33.1549 H   0  0  0  0  0  0
   -5.6746    4.0113   30.1672 H   0  0  0  0  0  0
    0.7060    3.9715   32.4452 H   0  0  0  0  0  0
    0.1930    2.6736   31.4064 H   0  0  0  0  0  0
    0.7055    3.4990   28.7032 H   0  0  0  0  0  0
    2.7248    3.7691   27.3227 H   0  0  0  0  0  0
    7.1489    4.7252   28.1306 H   0  0  0  0  0  0
    7.4489    4.9800   30.5820 H   0  0  0  0  0  0
    5.4659    4.7558   32.0562 H   0  0  0  0  0  0
    2.9904    4.2882   32.2589 H   0  0  0  0  0  0
  1  2  1  0  0  0
  1 30  1  0  0  0
  1 31  1  0  0  0
  1 32  1  0  0  0
  2  3  2  0  0  0
  2 10  1  0  0  0
  3  4  1  0  0  0
  4  5  1  0  0  0
  5  6  1  0  0  0
  5 33  1  0  0  0
  5 34  1  0  0  0
  6  7  1  0  0  0
  6  8  1  0  0  0
  6 35  1  0  0  0
  7 36  1  0  0  0
  8  9  1  0  0  0
  8 37  1  0  0  0
  8 38  1  0  0  0
  9 39  1  0  0  0
 10 11  2  0  0  0
 10 29  1  0  0  0
 11 12  1  0  0  0
 11 40  1  0  0  0
 12 13  2  0  0  0
 13 14  1  0  0  0
 13 28  1  0  0  0
 14 15  2  0  0  0
 15 16  1  0  0  0
 16 17  1  0  0  0
 16 28  1  0  0  0
 17 18  1  0  0  0
 17 41  1  0  0  0
 17 42  1  0  0  0
 18 19  2  0  0  0
 18 27  1  0  0  0
 19 20  1  0  0  0
 19 43  1  0  0  0
 20 21  2  0  0  0
 20 44  1  0  0  0
 21 22  1  0  0  0
 21 26  1  0  0  0
 22 23  2  0  0  0
 23 24  1  0  0  0
 23 45  1  0  0  0
 24 25  2  0  0  0
 24 46  1  0  0  0
 25 26  1  0  0  0
 25 47  1  0  0  0
 26 27  2  0  0  0
 27 48  1  0  0  0
 28 29  2  0  0  0
M  END
> <s_m_entry_id>
10550

> <s_m_entry_name>
dock_pv.619

> <s_m_Source_Path>
/home/csk/Desktop/cluster/DUD-E-result/met

> <s_m_Source_File>
dock_pv.maegz

> <i_m_Source_File_Index>
619

> <chembl_id>
CHEMBL3648246

> <chembl_pref_name>
None

> <i_lp_mmshare_version>
53161

> <i_f3d_flags>
0

> <r_lp_tautomer_probability>
1

> <s_lp_Force_Field>
OPLS_2005

> <r_lp_Energy>
34.651424

> <b_lp_Chiralities_Consistent>
1

> <s_lp_Variant>
CHEMBL3717_lig2600-2

> <s_i_glide_gridfile>
glide-grid_3lq8

> <i_i_glide_lignum>
2952

> <i_i_glide_rotatable_bonds>
9

> <r_i_docking_score>
-6.94958791090292

> <r_i_glide_ligand_efficiency>
-0.239640962444928

> <r_i_glide_ligand_efficiency_sa>
-0.736252960216709

> <r_i_glide_ligand_efficiency_ln>
-1.59127940525257

> <r_i_glide_gscore>
-6.94958791090292

> <r_i_glide_lipo>
-2.82324675965659

> <r_i_glide_hbond>
0

> <r_i_glide_metal>
0

> <r_i_glide_rewards>
-1.63524472077781

> <r_i_glide_evdw>
-42.7117805480957

> <r_i_glide_ecoul>
-8.2524585723877

> <r_i_glide_erotb>
0.88355195450605

> <r_i_glide_esite>
-0.00119057171162456

> <r_i_glide_emodel>
-66.2400245496908

> <r_i_glide_energy>
-50.9642391204834

> <r_i_glide_einternal>
9.32314395904541

> <i_i_glide_confnum>
29

> <i_i_glide_posenum>
218

> <r_i_glide_eff_state_penalty>
0

> <s_user_duplicate_titles>
CHEMBL3717_lig2600

> <s_m_subgroup_title>
dock_pv

> <s_m_subgroupid>
dock_pv

> <b_m_subgroup_collapsed>
1

$$$$
CHEMBL3717_lig2853
                    3D
 Schrodinger Suite 2021-1.
 37 39  0  0  1  0            999 V2000
   -7.8581    4.7562   30.2253 C   0  0  0  0  0  0
   -6.4477    4.1907   30.2086 C   0  0  0  0  0  0
   -6.1139    2.8764   30.2050 C   0  0  0  0  0  0
   -7.1445    1.8876   30.2527 C   0  0  0  0  0  0
   -7.9985    1.1072   30.2706 N   0  0  0  0  0  0
   -4.6447    2.4358   29.9818 C   0  0  1  0  0  0
   -3.6913    3.5947   30.3753 C   0  0  0  0  0  0
   -4.1226    4.8756   30.4282 C   0  0  0  0  0  0
   -5.4663    5.1570   30.2634 N   0  0  0  0  0  0
   -3.2152    6.0559   30.7809 C   0  0  0  0  0  0
   -2.5224    5.7596   31.8739 F   0  0  0  0  0  0
   -2.3498    6.3099   29.8081 F   0  0  0  0  0  0
   -3.9155    7.1573   31.0081 F   0  0  0  0  0  0
   -2.2985    3.3554   30.6078 C   0  0  0  0  0  0
   -1.1735    3.2151   30.8370 N   0  0  0  0  0  0
   -4.2809    0.9970   30.3789 C   0  0  0  0  0  0
   -4.8472   -0.0834   29.6877 C   0  0  0  0  0  0
   -4.5540   -1.4134   29.9989 C   0  0  0  0  0  0
   -3.6257   -1.6245   31.0202 C   0  0  0  0  0  0
   -3.0940   -2.7575   31.5910 N   0  0  0  0  0  0
   -2.1716   -2.4545   32.5252 N   0  0  0  0  0  0
   -2.0911   -1.1602   32.6080 C   0  0  0  0  0  0
   -1.1208   -0.5011   33.5564 C   0  0  0  0  0  0
   -3.0094   -0.5595   31.7078 C   0  0  0  0  0  0
   -3.3620    0.7465   31.4000 C   0  0  0  0  0  0
   -8.0585    5.2905   29.2961 H   0  0  0  0  0  0
   -8.6204    3.9846   30.3310 H   0  0  0  0  0  0
   -7.9837    5.4590   31.0467 H   0  0  0  0  0  0
   -4.5360    2.3926   28.8970 H   0  0  0  0  0  0
   -5.7251    6.1009   29.9965 H   0  0  0  0  0  0
   -5.5459    0.1040   28.8848 H   0  0  0  0  0  0
   -5.0101   -2.2304   29.4586 H   0  0  0  0  0  0
   -3.2936   -3.7288   31.3499 H   0  0  0  0  0  0
   -0.2922   -0.0431   33.0184 H   0  0  0  0  0  0
   -1.6031    0.2817   34.1404 H   0  0  0  0  0  0
   -0.6834   -1.2036   34.2667 H   0  0  0  0  0  0
   -2.8786    1.5296   31.9462 H   0  0  0  0  0  0
  1  2  1  0  0  0
  1 26  1  0  0  0
  1 27  1  0  0  0
  1 28  1  0  0  0
  2  3  2  0  0  0
  2  9  1  0  0  0
  3  4  1  0  0  0
  3  6  1  0  0  0
  4  5  3  0  0  0
  6  7  1  0  0  0
  6 16  1  0  0  0
  6 29  1  0  0  0
  7  8  2  0  0  0
  7 14  1  0  0  0
  8  9  1  0  0  0
  8 10  1  0  0  0
  9 30  1  0  0  0
 10 11  1  0  0  0
 10 12  1  0  0  0
 10 13  1  0  0  0
 14 15  3  0  0  0
 16 17  2  0  0  0
 16 25  1  0  0  0
 17 18  1  0  0  0
 17 31  1  0  0  0
 18 19  2  0  0  0
 18 32  1  0  0  0
 19 20  1  0  0  0
 19 24  1  0  0  0
 20 21  1  0  0  0
 20 33  1  0  0  0
 21 22  2  0  0  0
 22 23  1  0  0  0
 22 24  1  0  0  0
 23 34  1  0  0  0
 23 35  1  0  0  0
 23 36  1  0  0  0
 24 25  2  0  0  0
 25 37  1  0  0  0
M  END
> <s_m_entry_id>
10551

> <s_m_entry_name>
dock_pv.620

> <s_m_Source_Path>
/home/csk/Desktop/cluster/DUD-E-result/met

> <s_m_Source_File>
dock_pv.maegz

> <i_m_Source_File_Index>
620

> <chembl_id>
CHEMBL3938140

> <chembl_pref_name>
None

> <i_lp_mmshare_version>
53161

> <i_f3d_flags>
0

> <r_lp_tautomer_probability>
0.980392156862745

> <s_lp_Force_Field>
OPLS_2005

> <r_lp_Energy>
6.716938

> <b_lp_Chiralities_Consistent>
1

> <s_lp_Variant>
CHEMBL3717_lig2853-2

> <s_i_glide_gridfile>
glide-grid_3lq8

> <i_i_glide_lignum>
3473

> <i_i_glide_rotatable_bonds>
2

> <r_i_docking_score>
-6.94781052746943

> <r_i_glide_ligand_efficiency>
-0.277912421098777

> <r_i_glide_ligand_efficiency_sa>
-0.812620848090599

> <r_i_glide_ligand_efficiency_ln>
-1.64683930409032

> <r_i_glide_gscore>
-6.94781052746943

> <r_i_glide_lipo>
-2.213209674802

> <r_i_glide_hbond>
-0.398640734360739

> <r_i_glide_metal>
0

> <r_i_glide_rewards>
-2.47590233598183

> <r_i_glide_evdw>
-28.4883003234863

> <r_i_glide_ecoul>
-3.61076903343201

> <r_i_glide_erotb>
0.160983487077056

> <r_i_glide_esite>
-0.0550108982127942

> <r_i_glide_emodel>
-41.0669284501275

> <r_i_glide_energy>
-32.0990693569183

> <r_i_glide_einternal>
3.49090075492859

> <i_i_glide_confnum>
1

> <i_i_glide_posenum>
10

> <r_i_glide_eff_state_penalty>
0

> <s_user_duplicate_titles>
CHEMBL3717_lig2853

> <s_m_subgroup_title>
dock_pv

> <s_m_subgroupid>
dock_pv

> <b_m_subgroup_collapsed>
1

$$$$
CHEMBL3717_lig3746
                    3D
 Schrodinger Suite 2021-1.
 21 22  0  0  1  0            999 V2000
    5.4391    4.3570   28.3214 O   0  0  0  0  0  0
    2.5061    4.2165   30.1372 N   0  0  0  0  0  0
    3.2858    4.7562   29.1792 N   0  0  0  0  0  0
    0.2645    3.8526   30.8744 N   0  0  0  0  0  0
    2.7058    2.4792   31.8414 N   0  0  0  0  0  0
    3.1979    3.2150   30.8064 C   0  0  0  0  0  0
    1.1703    4.6953   30.3021 C   0  0  0  0  0  0
    4.4224    4.1052   29.1983 C   0  0  0  0  0  0
    4.4366    3.1571   30.2083 C   0  0  0  0  0  0
    0.7993    5.9868   29.8843 C   0  0  0  0  0  0
   -1.0204    4.2714   31.0080 C   0  0  0  0  0  0
   -0.5194    6.4099   30.0506 C   0  0  0  0  0  0
   -1.4516    5.5377   30.6103 C   0  0  0  0  0  0
    6.0439    3.6073   28.3133 H   0  0  0  0  0  0
    1.7510    2.5993   32.1508 H   0  0  0  0  0  0
    3.2317    1.7267   32.2569 H   0  0  0  0  0  0
    5.2456    2.4869   30.4507 H   0  0  0  0  0  0
    1.5061    6.6653   29.4372 H   0  0  0  0  0  0
   -1.7105    3.5670   31.4503 H   0  0  0  0  0  0
   -0.8159    7.4012   29.7375 H   0  0  0  0  0  0
   -2.4812    5.8372   30.7405 H   0  0  0  0  0  0
  1 14  1  0  0  0
  1  8  1  0  0  0
  2  3  1  0  0  0
  2  7  1  0  0  0
  2  6  1  0  0  0
  3  8  2  0  0  0
  4  7  1  0  0  0
  4 11  2  0  0  0
  5  6  1  0  0  0
  5 15  1  0  0  0
  5 16  1  0  0  0
  6  9  2  0  0  0
  7 10  2  0  0  0
  8  9  1  0  0  0
  9 17  1  0  0  0
 10 12  1  0  0  0
 10 18  1  0  0  0
 11 13  1  0  0  0
 11 19  1  0  0  0
 12 13  2  0  0  0
 12 20  1  0  0  0
 13 21  1  0  0  0
M  END
> <s_m_entry_id>
10552

> <s_m_entry_name>
dock_pv.621

> <s_m_Source_Path>
/home/csk/Desktop/cluster/DUD-E-result/met

> <s_m_Source_File>
dock_pv.maegz

> <i_m_Source_File_Index>
621

> <chembl_id>
CHEMBL1995765

> <chembl_pref_name>
None

> <i_lp_mmshare_version>
53161

> <i_f3d_flags>
0

> <r_lp_tautomer_probability>
0.0892077209850822

> <s_lp_Force_Field>
OPLS_2005

> <r_lp_Energy>
7.486068

> <b_lp_Chiralities_Consistent>
1

> <s_lp_Variant>
CHEMBL3717_lig3746-2

> <s_i_glide_gridfile>
glide-grid_3lq8

> <i_i_glide_lignum>
4732

> <i_i_glide_rotatable_bonds>
2

> <r_i_docking_score>
-6.94774950656346

> <r_i_glide_ligand_efficiency>
-0.534442269735651

> <r_i_glide_ligand_efficiency_sa>
-1.25665264633923

> <r_i_glide_ligand_efficiency_ln>
-1.94890552709301

> <r_i_glide_gscore>
-6.94774950656346

> <r_i_glide_lipo>
-2.06894592520726

> <r_i_glide_hbond>
-0.317755347040177

> <r_i_glide_metal>
0

> <r_i_glide_rewards>
-3.4326454189714

> <r_i_glide_evdw>
-25.9710502624512

> <r_i_glide_ecoul>
-2.22261881828308

> <r_i_glide_erotb>
0.503542520520394

> <r_i_glide_esite>
0

> <r_i_glide_emodel>
-39.8049891236115

> <r_i_glide_energy>
-28.1936690807343

> <r_i_glide_einternal>
0.70748507976532

> <i_i_glide_confnum>
2

> <i_i_glide_posenum>
224

> <r_i_glide_eff_state_penalty>
0

> <s_user_duplicate_titles>
CHEMBL3717_lig3746

> <s_m_subgroup_title>
dock_pv

> <s_m_subgroupid>
dock_pv

> <b_m_subgroup_collapsed>
1

$$$$
CHEMBL3717_lig3097
                    3D
 Schrodinger Suite 2021-1.
 44 48  0  0  1  0            999 V2000
    0.4085    6.4092   29.9570 S   0  0  0  0  0  0
   -1.1562    5.8055   30.4508 C   0  0  0  0  0  0
   -1.0445    4.4608   30.6816 N   0  0  0  0  0  0
    0.1546    3.8495   30.5096 N   0  0  0  0  0  0
    1.0085    4.7513   30.1183 C   0  0  0  0  0  0
   -3.1197    5.0828   30.9740 N   0  0  0  0  0  0
   -2.3920    6.2180   30.6079 N   0  0  0  0  0  0
   -2.3153    4.0390   30.9988 C   0  0  0  0  0  0
    2.7896    3.7146   28.7053 N   0  0  0  0  0  0
    2.3792    4.4132   29.8250 C   0  0  0  0  0  0
    3.5046    4.6706   30.5897 C   0  0  0  0  0  0
    4.6269    4.2182   29.9027 C   0  0  0  0  0  0
    4.1600    3.6352   28.7416 C   0  0  0  0  0  0
    1.9438    3.1500   27.6670 C   0  0  0  0  0  0
   -2.6334    2.5785   31.2361 C   0  0  0  0  0  0
   -3.9474    2.2482   30.8029 O   0  0  0  0  0  0
   -5.0868   -1.8053   30.4788 N   0  0  0  0  0  0
   -3.8927   -1.4617   31.0093 C   0  0  0  0  0  0
   -3.4690   -0.1459   31.1563 C   0  0  0  0  0  0
   -4.3022    0.9080   30.7409 C   0  0  0  0  0  0
   -5.5816    0.5720   30.2117 C   0  0  0  0  0  0
   -6.5246    1.5474   29.8037 C   0  0  0  0  0  0
   -7.7384    1.1559   29.2443 C   0  0  0  0  0  0
   -8.0684   -0.1870   29.0865 C   0  0  0  0  0  0
   -7.1684   -1.1703   29.5185 C   0  0  0  0  0  0
   -5.9247   -0.8084   30.0820 C   0  0  0  0  0  0
   -9.2898   -0.4565   28.5014 O   0  0  0  0  0  0
   -9.7042   -1.8111   28.3567 C   0  0  0  0  0  0
    3.4985    5.1569   31.5509 H   0  0  0  0  0  0
    5.6588    4.2960   30.2137 H   0  0  0  0  0  0
    4.6977    3.1571   27.9393 H   0  0  0  0  0  0
    2.5291    2.5071   27.0071 H   0  0  0  0  0  0
    1.1493    2.5600   28.1276 H   0  0  0  0  0  0
    1.5153    3.9583   27.0786 H   0  0  0  0  0  0
   -2.4940    2.3381   32.2864 H   0  0  0  0  0  0
   -1.9330    1.9838   30.6552 H   0  0  0  0  0  0
   -3.2612   -2.2835   31.3138 H   0  0  0  0  0  0
   -2.4932    0.0301   31.5834 H   0  0  0  0  0  0
   -6.2833    2.5963   29.9026 H   0  0  0  0  0  0
   -8.4368    1.9117   28.9161 H   0  0  0  0  0  0
   -7.3905   -2.2211   29.4199 H   0  0  0  0  0  0
  -10.6413   -1.8463   27.8016 H   0  0  0  0  0  0
   -9.8734   -2.2753   29.3307 H   0  0  0  0  0  0
   -8.9770   -2.4060   27.8078 H   0  0  0  0  0  0
  1  2  1  0  0  0
  1  5  1  0  0  0
  2  3  1  0  0  0
  2  7  2  0  0  0
  3  4  1  0  0  0
  3  8  1  0  0  0
  4  5  2  0  0  0
  5 10  1  0  0  0
  6  7  1  0  0  0
  6  8  2  0  0  0
  8 15  1  0  0  0
  9 10  1  0  0  0
  9 13  1  0  0  0
  9 14  1  0  0  0
 10 11  2  0  0  0
 11 12  1  0  0  0
 11 29  1  0  0  0
 12 13  2  0  0  0
 12 30  1  0  0  0
 13 31  1  0  0  0
 14 32  1  0  0  0
 14 33  1  0  0  0
 14 34  1  0  0  0
 15 16  1  0  0  0
 15 35  1  0  0  0
 15 36  1  0  0  0
 16 20  1  0  0  0
 17 18  2  0  0  0
 17 26  1  0  0  0
 18 19  1  0  0  0
 18 37  1  0  0  0
 19 20  2  0  0  0
 19 38  1  0  0  0
 20 21  1  0  0  0
 21 22  2  0  0  0
 21 26  1  0  0  0
 22 23  1  0  0  0
 22 39  1  0  0  0
 23 24  2  0  0  0
 23 40  1  0  0  0
 24 25  1  0  0  0
 24 27  1  0  0  0
 25 26  2  0  0  0
 25 41  1  0  0  0
 27 28  1  0  0  0
 28 42  1  0  0  0
 28 43  1  0  0  0
 28 44  1  0  0  0
M  END
> <s_m_entry_id>
10553

> <s_m_entry_name>
dock_pv.622

> <s_m_Source_Path>
/home/csk/Desktop/cluster/DUD-E-result/met

> <s_m_Source_File>
dock_pv.maegz

> <i_m_Source_File_Index>
622

> <chembl_id>
CHEMBL4242184

> <chembl_pref_name>
None

> <i_lp_mmshare_version>
53161

> <i_f3d_flags>
0

> <r_lp_tautomer_probability>
1

> <s_lp_Force_Field>
OPLS_2005

> <r_lp_Energy>
30.768055

> <b_lp_Chiralities_Consistent>
1

> <s_lp_Variant>
CHEMBL3717_lig3097-1

> <s_i_glide_gridfile>
glide-grid_3lq8

> <i_i_glide_lignum>
3811

> <i_i_glide_rotatable_bonds>
5

> <r_i_docking_score>
-6.94712369576991

> <r_i_glide_ligand_efficiency>
-0.248111560563211

> <r_i_glide_ligand_efficiency_sa>
-0.753412827764265

> <r_i_glide_ligand_efficiency_ln>
-1.60360012539873

> <r_i_glide_gscore>
-6.94712369576991

> <r_i_glide_lipo>
-2.84926485205941

> <r_i_glide_hbond>
0

> <r_i_glide_metal>
0

> <r_i_glide_rewards>
-2.32041588907564

> <r_i_glide_evdw>
-43.1612968444824

> <r_i_glide_ecoul>
-0.843305289745331

> <r_i_glide_erotb>
0.507117681051057

> <r_i_glide_esite>
0

> <r_i_glide_emodel>
-58.2579433052431

> <r_i_glide_energy>
-44.0046021342278

> <r_i_glide_einternal>
5.4623441696167

> <i_i_glide_confnum>
4

> <i_i_glide_posenum>
13

> <r_i_glide_eff_state_penalty>
0

> <s_user_duplicate_titles>
CHEMBL3717_lig3097

> <s_m_subgroup_title>
dock_pv

> <s_m_subgroupid>
dock_pv

> <b_m_subgroup_collapsed>
1

$$$$
CHEMBL3717_lig1209
                    3D
 Schrodinger Suite 2021-1.
 48 52  0  0  1  0            999 V2000
   -6.0251    5.1561   30.7118 N   0  0  0  0  0  0
   -4.7447    5.5955   30.7375 C   0  0  0  0  0  0
   -3.6431    4.7509   30.6069 C   0  0  0  0  0  0
   -3.8926    3.3874   30.4309 C   0  0  0  0  0  0
   -5.2054    2.8946   30.3832 C   0  0  0  0  0  0
   -6.2470    3.8331   30.5312 C   0  0  0  0  0  0
   -2.2553    5.2861   30.6083 C   0  0  0  0  0  0
   -1.0672    4.6487   30.9424 C   0  0  0  0  0  0
   -0.0593    5.5565   30.7205 N   0  0  0  0  0  0
   -0.5324    6.7035   30.2080 N   0  0  0  0  0  0
   -1.8332    6.5596   30.2080 C   0  0  0  0  0  0
    1.3967    5.3706   30.7669 C   0  0  0  0  0  0
    1.9207    4.4047   31.8513 C   0  0  0  0  0  0
    1.9366    2.9279   31.4080 C   0  0  0  0  0  0
    2.5500    2.7571   30.0919 N   0  0  2  0  0  0
    1.8928    3.5398   29.0487 C   0  0  0  0  0  0
    1.9883    5.0297   29.3924 C   0  0  0  0  0  0
   -5.3937    1.4172   30.1998 C   0  0  0  0  0  0
   -6.6592    0.9398   29.9868 O   0  0  0  0  0  0
   -4.4473    0.4980   30.2405 N   0  0  0  0  0  0
   -7.5886    3.4719   30.4923 N   0  0  0  0  0  0
   -5.1242   -0.6762   30.0713 C   0  0  0  0  0  0
   -6.4925   -0.4081   29.9188 C   0  0  0  0  0  0
   -7.4536   -1.4119   29.7457 C   0  0  0  0  0  0
   -6.9880   -2.7277   29.7381 C   0  0  0  0  0  0
   -5.6249   -3.0152   29.8723 C   0  0  0  0  0  0
   -4.6730   -2.0035   30.0422 C   0  0  0  0  0  0
   -8.7831   -1.1140   29.5965 O   0  0  0  0  0  0
   -4.6162    6.6595   30.8636 H   0  0  0  0  0  0
   -3.0575    2.7118   30.3092 H   0  0  0  0  0  0
   -0.8612    3.6477   31.2851 H   0  0  0  0  0  0
   -2.4720    7.3521   29.8588 H   0  0  0  0  0  0
    1.7512    6.3721   31.0090 H   0  0  0  0  0  0
    1.3527    4.5282   32.7739 H   0  0  0  0  0  0
    2.9293    4.6946   32.1498 H   0  0  0  0  0  0
    0.9353    2.5018   31.4043 H   0  0  0  0  0  0
    2.5191    2.3429   32.1204 H   0  0  0  0  0  0
    2.4971    1.7804   29.8295 H   0  0  0  0  0  0
    0.8490    3.2284   28.9645 H   0  0  0  0  0  0
    2.3724    3.3360   28.0900 H   0  0  0  0  0  0
    3.0272    5.3572   29.3409 H   0  0  0  0  0  0
    1.5025    5.6215   28.6172 H   0  0  0  0  0  0
   -7.8237    2.5046   30.3118 H   0  0  0  0  0  0
   -8.2882    4.1989   30.5072 H   0  0  0  0  0  0
   -7.6825   -3.5450   29.6077 H   0  0  0  0  0  0
   -5.2952   -4.0432   29.8416 H   0  0  0  0  0  0
   -3.6244   -2.2415   30.1461 H   0  0  0  0  0  0
   -9.3298   -1.8940   29.4825 H   0  0  0  0  0  0
  1  2  2  0  0  0
  1  6  1  0  0  0
  2  3  1  0  0  0
  2 29  1  0  0  0
  3  4  2  0  0  0
  3  7  1  0  0  0
  4  5  1  0  0  0
  4 30  1  0  0  0
  5 18  1  0  0  0
  5  6  2  0  0  0
  6 21  1  0  0  0
  7 11  1  0  0  0
  7  8  2  0  0  0
  8  9  1  0  0  0
  8 31  1  0  0  0
  9 12  1  0  0  0
  9 10  1  0  0  0
 10 11  2  0  0  0
 11 32  1  0  0  0
 12 17  1  0  0  0
 12 13  1  0  0  0
 12 33  1  0  0  0
 13 14  1  0  0  0
 13 34  1  0  0  0
 13 35  1  0  0  0
 14 15  1  0  0  0
 14 36  1  0  0  0
 14 37  1  0  0  0
 15 16  1  0  0  0
 15 38  1  0  0  0
 16 17  1  0  0  0
 16 39  1  0  0  0
 16 40  1  0  0  0
 17 41  1  0  0  0
 17 42  1  0  0  0
 18 19  1  0  0  0
 18 20  2  0  0  0
 19 23  1  0  0  0
 20 22  1  0  0  0
 21 43  1  0  0  0
 21 44  1  0  0  0
 22 23  2  0  0  0
 22 27  1  0  0  0
 23 24  1  0  0  0
 24 25  2  0  0  0
 24 28  1  0  0  0
 25 26  1  0  0  0
 25 45  1  0  0  0
 26 27  2  0  0  0
 26 46  1  0  0  0
 27 47  1  0  0  0
 28 48  1  0  0  0
M  END
> <s_m_entry_id>
10554

> <s_m_entry_name>
dock_pv.623

> <s_m_Source_Path>
/home/csk/Desktop/cluster/DUD-E-result/met

> <s_m_Source_File>
dock_pv.maegz

> <i_m_Source_File_Index>
623

> <chembl_id>
CHEMBL2032275

> <chembl_pref_name>
None

> <i_lp_mmshare_version>
53161

> <i_f3d_flags>
0

> <r_lp_tautomer_probability>
0.999999772200052

> <s_lp_Force_Field>
OPLS_2005

> <r_lp_Energy>
30.574106

> <b_lp_Chiralities_Consistent>
1

> <s_lp_Variant>
CHEMBL3717_lig1209-1

> <s_i_glide_gridfile>
glide-grid_3lq8

> <i_i_glide_lignum>
1385

> <i_i_glide_rotatable_bonds>
4

> <r_i_docking_score>
-6.94017331943317

> <r_i_glide_ligand_efficiency>
-0.247863332836899

> <r_i_glide_ligand_efficiency_sa>
-0.752659062188869

> <r_i_glide_ligand_efficiency_ln>
-1.6019957744683

> <r_i_glide_gscore>
-6.94017331943317

> <r_i_glide_lipo>
-3.52230318845243

> <r_i_glide_hbond>
0

> <r_i_glide_metal>
0

> <r_i_glide_rewards>
-1.60661840885021

> <r_i_glide_evdw>
-43.8453102111816

> <r_i_glide_ecoul>
-0.192346230149269

> <r_i_glide_erotb>
0.409865722950944

> <r_i_glide_esite>
0

> <r_i_glide_emodel>
-55.5527405788411

> <r_i_glide_energy>
-44.0376564413309

> <r_i_glide_einternal>
6.49819993972778

> <i_i_glide_confnum>
5

> <i_i_glide_posenum>
19

> <r_i_glide_eff_state_penalty>
0

> <s_user_duplicate_titles>
CHEMBL3717_lig1209

> <s_m_subgroup_title>
dock_pv

> <s_m_subgroupid>
dock_pv

> <b_m_subgroup_collapsed>
1

$$$$
CHEMBL3717_lig599
                    3D
 Schrodinger Suite 2021-1.
 45 49  0  0  1  0            999 V2000
   -6.0429    5.0780   30.7835 N   0  0  0  0  0  0
   -4.7725    5.5561   30.7778 C   0  0  0  0  0  0
   -3.6487    4.7425   30.6079 C   0  0  0  0  0  0
   -3.8612    3.3743   30.4135 C   0  0  0  0  0  0
   -5.1585    2.8512   30.3991 C   0  0  0  0  0  0
   -6.2190    3.7447   30.5965 C   0  0  0  0  0  0
   -5.3773    1.3899   30.2051 C   0  0  0  0  0  0
   -6.6662    0.9376   30.1196 O   0  0  0  0  0  0
   -4.4423    0.4613   30.1295 N   0  0  0  0  0  0
   -2.2689    5.2946   30.6081 C   0  0  0  0  0  0
   -5.1498   -0.7003   30.0086 C   0  0  0  0  0  0
   -6.5240   -0.4096   29.9981 C   0  0  0  0  0  0
   -7.5172   -1.3878   29.8935 C   0  0  0  0  0  0
   -7.0731   -2.7108   29.8082 C   0  0  0  0  0  0
   -5.7090   -3.0254   29.8186 C   0  0  0  0  0  0
   -4.7262   -2.0336   29.9129 C   0  0  0  0  0  0
   -1.0810    4.6613   30.9493 C   0  0  0  0  0  0
   -0.0729    5.5664   30.7238 N   0  0  0  0  0  0
   -0.5471    6.7120   30.2081 N   0  0  0  0  0  0
   -1.8494    6.5688   30.2078 C   0  0  0  0  0  0
    1.3833    5.3799   30.7762 C   0  0  0  0  0  0
    1.9056    4.4056   31.8548 C   0  0  0  0  0  0
    1.9132    2.9310   31.4080 C   0  0  0  0  0  0
    2.5208    2.7570   30.0888 N   0  0  2  0  0  0
    1.8781    3.5558   29.0484 C   0  0  0  0  0  0
    1.9814    5.0442   29.4031 C   0  0  0  0  0  0
   -4.6667    6.6207   30.9161 H   0  0  0  0  0  0
   -3.0170    2.7174   30.2584 H   0  0  0  0  0  0
   -7.2428    3.3985   30.6034 H   0  0  0  0  0  0
   -8.5661   -1.1320   29.8864 H   0  0  0  0  0  0
   -7.7954   -3.5110   29.7296 H   0  0  0  0  0  0
   -5.4036   -4.0596   29.7524 H   0  0  0  0  0  0
   -3.6766   -2.2903   29.9161 H   0  0  0  0  0  0
   -0.8769    3.6621   31.2958 H   0  0  0  0  0  0
   -2.4899    7.3616   29.8610 H   0  0  0  0  0  0
    1.7359    6.3800   31.0291 H   0  0  0  0  0  0
    1.3416    4.5308   32.7791 H   0  0  0  0  0  0
    2.9157    4.6884   32.1535 H   0  0  0  0  0  0
    0.9093    2.5117   31.4069 H   0  0  0  0  0  0
    2.4927    2.3404   32.1188 H   0  0  0  0  0  0
    2.4542    1.7819   29.8232 H   0  0  0  0  0  0
    0.8333    3.2527   28.9532 H   0  0  0  0  0  0
    2.3629    3.3577   28.0907 H   0  0  0  0  0  0
    3.0221    5.3676   29.3608 H   0  0  0  0  0  0
    1.5042    5.6451   28.6285 H   0  0  0  0  0  0
  1  6  1  0  0  0
  1  2  2  0  0  0
  2  3  1  0  0  0
  2 27  1  0  0  0
  3  4  2  0  0  0
  3 10  1  0  0  0
  4  5  1  0  0  0
  4 28  1  0  0  0
  5  7  1  0  0  0
  5  6  2  0  0  0
  6 29  1  0  0  0
  7  8  1  0  0  0
  7  9  2  0  0  0
  8 12  1  0  0  0
  9 11  1  0  0  0
 10 17  2  0  0  0
 10 20  1  0  0  0
 11 16  1  0  0  0
 11 12  2  0  0  0
 12 13  1  0  0  0
 13 14  2  0  0  0
 13 30  1  0  0  0
 14 15  1  0  0  0
 14 31  1  0  0  0
 15 16  2  0  0  0
 15 32  1  0  0  0
 16 33  1  0  0  0
 17 18  1  0  0  0
 17 34  1  0  0  0
 18 19  1  0  0  0
 18 21  1  0  0  0
 19 20  2  0  0  0
 20 35  1  0  0  0
 21 22  1  0  0  0
 21 26  1  0  0  0
 21 36  1  0  0  0
 22 23  1  0  0  0
 22 37  1  0  0  0
 22 38  1  0  0  0
 23 24  1  0  0  0
 23 39  1  0  0  0
 23 40  1  0  0  0
 24 25  1  0  0  0
 24 41  1  0  0  0
 25 26  1  0  0  0
 25 42  1  0  0  0
 25 43  1  0  0  0
 26 44  1  0  0  0
 26 45  1  0  0  0
M  END
> <s_m_entry_id>
10555

> <s_m_entry_name>
dock_pv.624

> <s_m_Source_Path>
/home/csk/Desktop/cluster/DUD-E-result/met

> <s_m_Source_File>
dock_pv.maegz

> <i_m_Source_File_Index>
624

> <chembl_id>
CHEMBL1172704

> <chembl_pref_name>
None

> <i_lp_mmshare_version>
53161

> <i_f3d_flags>
0

> <r_lp_tautomer_probability>
1

> <s_lp_Force_Field>
OPLS_2005

> <r_lp_Energy>
26.679201

> <b_lp_Chiralities_Consistent>
1

> <s_lp_Variant>
CHEMBL3717_lig599-1

> <s_i_glide_gridfile>
glide-grid_3lq8

> <i_i_glide_lignum>
653

> <i_i_glide_rotatable_bonds>
3

> <r_i_docking_score>
-6.93959169909822

> <r_i_glide_ligand_efficiency>
-0.266907373042239

> <r_i_glide_ligand_efficiency_sa>
-0.790712042407834

> <r_i_glide_ligand_efficiency_ln>
-1.62974033987559

> <r_i_glide_gscore>
-6.93959169909822

> <r_i_glide_lipo>
-3.51019797893968

> <r_i_glide_hbond>
0

> <r_i_glide_metal>
0

> <r_i_glide_rewards>
-1.80955784730843

> <r_i_glide_evdw>
-42.0015869140625

> <r_i_glide_ecoul>
0.0164830889552832

> <r_i_glide_erotb>
0.477771009509722

> <r_i_glide_esite>
0

> <r_i_glide_emodel>
-52.9731162149561

> <r_i_glide_energy>
-41.9851038251072

> <r_i_glide_einternal>
6.51872062683105

> <i_i_glide_confnum>
3

> <i_i_glide_posenum>
26

> <r_i_glide_eff_state_penalty>
0

> <s_user_duplicate_titles>
CHEMBL3717_lig599

> <s_m_subgroup_title>
dock_pv

> <s_m_subgroupid>
dock_pv

> <b_m_subgroup_collapsed>
1

$$$$
CHEMBL3717_lig331
                    3D
 Schrodinger Suite 2021-1.
 36 39  0  0  1  0            999 V2000
   -0.7791    4.6861   30.6084 C   0  0  0  0  0  0
   -1.1080    6.0465   30.6078 C   0  0  0  0  0  0
   -2.3918    6.5001   30.6016 N   0  0  0  0  0  0
   -1.7341    3.7119   30.6087 N   0  0  0  0  0  0
   -2.9947    4.1964   30.6080 N   0  0  0  0  0  0
   -3.3391    5.5581   30.6082 C   0  0  0  0  0  0
   -4.6801    5.6879   30.6079 N   0  0  0  0  0  0
   -5.1905    4.4001   30.5609 N   0  0  0  0  0  0
   -4.1982    3.5255   30.5333 C   0  0  0  0  0  0
   -4.3006    2.0064   30.4520 C   0  0  0  0  0  0
   -5.6505    1.4298   30.0221 C   0  0  0  0  0  0
   -6.8406    1.8049   30.6569 C   0  0  0  0  0  0
   -8.0541    1.2566   30.2501 C   0  0  0  0  0  0
   -8.0767    0.3164   29.2235 C   0  0  0  0  0  0
   -6.8949   -0.0865   28.6080 C   0  0  0  0  0  0
   -5.6847    0.4678   29.0111 C   0  0  0  0  0  0
   -9.2700   -0.2211   28.8226 O   0  0  0  0  0  0
    0.6311    4.2384   30.5514 C   0  0  0  0  0  0
    1.5074    4.5333   31.5986 C   0  0  0  0  0  0
    2.8381    4.1302   31.5302 C   0  0  0  0  0  0
    3.2978    3.4460   30.4074 C   0  0  0  0  0  0
    2.4360    3.1573   29.3528 C   0  0  0  0  0  0
    1.1059    3.5569   29.4269 C   0  0  0  0  0  0
   -0.3348    6.8020   30.5888 H   0  0  0  0  0  0
   -4.0495    1.5583   31.4088 H   0  0  0  0  0  0
   -3.5322    1.6388   29.7714 H   0  0  0  0  0  0
   -6.8336    2.5250   31.4609 H   0  0  0  0  0  0
   -8.9732    1.5575   30.7310 H   0  0  0  0  0  0
   -6.8994   -0.8249   27.8181 H   0  0  0  0  0  0
   -4.7709    0.1401   28.5377 H   0  0  0  0  0  0
   -9.1612   -0.8712   28.1262 H   0  0  0  0  0  0
    1.1578    5.0674   32.4702 H   0  0  0  0  0  0
    3.5111    4.3561   32.3422 H   0  0  0  0  0  0
    4.3319    3.1382   30.3509 H   0  0  0  0  0  0
    2.7942    2.6219   28.4845 H   0  0  0  0  0  0
    0.4377    3.3271   28.6084 H   0  0  0  0  0  0
  1  2  1  0  0  0
  1  4  2  0  0  0
  1 18  1  0  0  0
  2  3  2  0  0  0
  2 24  1  0  0  0
  3  6  1  0  0  0
  4  5  1  0  0  0
  5  9  1  0  0  0
  5  6  1  0  0  0
  6  7  2  0  0  0
  7  8  1  0  0  0
  8  9  2  0  0  0
  9 10  1  0  0  0
 10 11  1  0  0  0
 10 25  1  0  0  0
 10 26  1  0  0  0
 11 12  2  0  0  0
 11 16  1  0  0  0
 12 13  1  0  0  0
 12 27  1  0  0  0
 13 14  2  0  0  0
 13 28  1  0  0  0
 14 15  1  0  0  0
 14 17  1  0  0  0
 15 16  2  0  0  0
 15 29  1  0  0  0
 16 30  1  0  0  0
 17 31  1  0  0  0
 18 19  2  0  0  0
 18 23  1  0  0  0
 19 20  1  0  0  0
 19 32  1  0  0  0
 20 21  2  0  0  0
 20 33  1  0  0  0
 21 22  1  0  0  0
 21 34  1  0  0  0
 22 23  2  0  0  0
 22 35  1  0  0  0
 23 36  1  0  0  0
M  END
> <s_m_entry_id>
10556

> <s_m_entry_name>
dock_pv.625

> <s_m_Source_Path>
/home/csk/Desktop/cluster/DUD-E-result/met

> <s_m_Source_File>
dock_pv.maegz

> <i_m_Source_File_Index>
625

> <chembl_id>
CHEMBL498769

> <chembl_pref_name>
None

> <i_lp_mmshare_version>
53161

> <i_f3d_flags>
0

> <r_lp_tautomer_probability>
0.999999999997365

> <s_lp_Force_Field>
OPLS_2005

> <r_lp_Energy>
23.120699

> <b_lp_Chiralities_Consistent>
1

> <s_lp_Variant>
CHEMBL3717_lig331-1

> <s_i_glide_gridfile>
glide-grid_3lq8

> <i_i_glide_lignum>
347

> <i_i_glide_rotatable_bonds>
4

> <r_i_docking_score>
-6.93941218830569

> <r_i_glide_ligand_efficiency>
-0.301713573404595

> <r_i_glide_ligand_efficiency_sa>
-0.858033267881564

> <r_i_glide_ligand_efficiency_ln>
-1.67801279024315

> <r_i_glide_gscore>
-6.93941218830569

> <r_i_glide_lipo>
-2.7122299133714

> <r_i_glide_hbond>
0

> <r_i_glide_metal>
0

> <r_i_glide_rewards>
-2.91628621470007

> <r_i_glide_evdw>
-38.0602493286133

> <r_i_glide_ecoul>
-0.057997390627861

> <r_i_glide_erotb>
0.600816014790621

> <r_i_glide_esite>
0

> <r_i_glide_emodel>
-52.3564291882359

> <r_i_glide_energy>
-38.1182467192411

> <r_i_glide_einternal>
3.23768162727356

> <i_i_glide_confnum>
11

> <i_i_glide_posenum>
221

> <r_i_glide_eff_state_penalty>
0

> <s_user_duplicate_titles>
CHEMBL3717_lig331,486799

> <s_m_subgroup_title>
dock_pv

> <s_m_subgroupid>
dock_pv

> <b_m_subgroup_collapsed>
1

$$$$
CHEMBL3717_lig4366
                    3D
 Schrodinger Suite 2021-1.
 41 45  0  0  1  0            999 V2000
   -4.6329    1.0401   30.1491 C   0  0  0  0  0  0
   -5.4455   -0.0859   30.8245 C   0  0  0  0  0  0
   -6.8290   -0.1524   30.6154 C   0  0  0  0  0  0
   -7.6160   -1.1327   31.2025 C   0  0  0  0  0  0
   -7.0443   -2.1084   32.0047 C   0  0  0  0  0  0
   -5.6469   -2.1296   32.2022 C   0  0  0  0  0  0
   -5.0247   -3.1382   32.9739 C   0  0  0  0  0  0
   -3.6941   -3.2428   33.1716 N   0  0  0  0  0  0
   -2.9108   -2.3096   32.5815 C   0  0  0  0  0  0
   -3.4035   -1.2513   31.8140 C   0  0  0  0  0  0
   -4.8144   -1.1256   31.6027 C   0  0  0  0  0  0
   -5.1655    2.4731   30.3029 C   0  0  0  0  0  0
   -6.4243    2.8631   30.2082 N   0  0  0  0  0  0
   -6.5085    4.2381   30.3453 N   0  0  0  0  0  0
   -5.2414    4.6774   30.4914 C   0  0  0  0  0  0
   -4.6825    5.9548   30.6198 C   0  0  0  0  0  0
   -3.2945    6.0550   30.7142 C   0  0  0  0  0  0
   -2.4927    4.9035   30.6763 C   0  0  0  0  0  0
   -3.0230    3.6460   30.6080 N   0  0  0  0  0  0
   -4.3621    3.5856   30.4872 N   0  0  0  0  0  0
   -0.9947    4.9832   30.6474 C   0  0  0  0  0  0
   -0.2002    3.8831   31.0081 C   0  0  0  0  0  0
    1.1885    3.9449   30.9471 C   0  0  0  0  0  0
    1.8045    5.1132   30.5153 C   0  0  0  0  0  0
    1.0394    6.2160   30.1485 C   0  0  0  0  0  0
   -0.3469    6.1492   30.2093 C   0  0  0  0  0  0
   -3.6039    1.0308   30.4921 H   0  0  0  0  0  0
   -4.5727    0.7929   29.0880 H   0  0  0  0  0  0
   -7.3241    0.5611   29.9760 H   0  0  0  0  0  0
   -8.6818   -1.1387   31.0257 H   0  0  0  0  0  0
   -7.6615   -2.8705   32.4580 H   0  0  0  0  0  0
   -5.6286   -3.9079   33.4314 H   0  0  0  0  0  0
   -1.8466   -2.4242   32.7317 H   0  0  0  0  0  0
   -2.6988   -0.5638   31.3783 H   0  0  0  0  0  0
   -5.3129    6.8323   30.6080 H   0  0  0  0  0  0
   -2.8527    7.0353   30.8002 H   0  0  0  0  0  0
   -0.6575    2.9643   31.3444 H   0  0  0  0  0  0
    1.7826    3.0871   31.2267 H   0  0  0  0  0  0
    2.8825    5.1579   30.4614 H   0  0  0  0  0  0
    1.5082    7.1257   29.8081 H   0  0  0  0  0  0
   -0.9040    7.0167   29.8902 H   0  0  0  0  0  0
  1  2  1  0  0  0
  1 12  1  0  0  0
  1 27  1  0  0  0
  1 28  1  0  0  0
  2  3  2  0  0  0
  2 11  1  0  0  0
  3  4  1  0  0  0
  3 29  1  0  0  0
  4  5  2  0  0  0
  4 30  1  0  0  0
  5  6  1  0  0  0
  5 31  1  0  0  0
  6  7  2  0  0  0
  6 11  1  0  0  0
  7  8  1  0  0  0
  7 32  1  0  0  0
  8  9  2  0  0  0
  9 10  1  0  0  0
  9 33  1  0  0  0
 10 11  2  0  0  0
 10 34  1  0  0  0
 12 13  2  0  0  0
 12 20  1  0  0  0
 13 14  1  0  0  0
 14 15  2  0  0  0
 15 16  1  0  0  0
 15 20  1  0  0  0
 16 17  2  0  0  0
 16 35  1  0  0  0
 17 18  1  0  0  0
 17 36  1  0  0  0
 18 19  2  0  0  0
 18 21  1  0  0  0
 19 20  1  0  0  0
 21 22  2  0  0  0
 21 26  1  0  0  0
 22 23  1  0  0  0
 22 37  1  0  0  0
 23 24  2  0  0  0
 23 38  1  0  0  0
 24 25  1  0  0  0
 24 39  1  0  0  0
 25 26  2  0  0  0
 25 40  1  0  0  0
 26 41  1  0  0  0
M  END
> <s_m_entry_id>
10557

> <s_m_entry_name>
dock_pv.626

> <s_m_Source_Path>
/home/csk/Desktop/cluster/DUD-E-result/met

> <s_m_Source_File>
dock_pv.maegz

> <i_m_Source_File_Index>
626

> <chembl_id>
CHEMBL3668190

> <chembl_pref_name>
None

> <i_lp_mmshare_version>
53161

> <i_f3d_flags>
0

> <r_lp_tautomer_probability>
1

> <s_lp_Force_Field>
OPLS_2005

> <r_lp_Energy>
23.442347

> <b_lp_Chiralities_Consistent>
1

> <s_lp_Variant>
CHEMBL3717_lig4366-1

> <s_i_glide_gridfile>
glide-grid_3lq8

> <i_i_glide_lignum>
5591

> <i_i_glide_rotatable_bonds>
3

> <r_i_docking_score>
-6.93809065591342

> <r_i_glide_ligand_efficiency>
-0.266849640612055

> <r_i_glide_ligand_efficiency_sa>
-0.790541010310579

> <r_i_glide_ligand_efficiency_ln>
-1.62938782480897

> <r_i_glide_gscore>
-6.93809065591342

> <r_i_glide_lipo>
-2.9679379315355

> <r_i_glide_hbond>
0

> <r_i_glide_metal>
0

> <r_i_glide_rewards>
-2.63295089784536

> <r_i_glide_evdw>
-37.9822731018066

> <r_i_glide_ecoul>
0.425422132015228

> <r_i_glide_erotb>
0.49809850875548

> <r_i_glide_esite>
0

> <r_i_glide_emodel>
-52.6808020289549

> <r_i_glide_energy>
-37.5568509697914

> <r_i_glide_einternal>
0.825802505016327

> <i_i_glide_confnum>
9

> <i_i_glide_posenum>
172

> <r_i_glide_eff_state_penalty>
0

> <s_user_duplicate_titles>
CHEMBL3717_lig4366

> <s_m_subgroup_title>
dock_pv

> <s_m_subgroupid>
dock_pv

> <b_m_subgroup_collapsed>
1

$$$$
CHEMBL3717_lig3173 
                    3D
 Schrodinger Suite 2021-1.
 33 35  0  0  1  0            999 V2000
   -4.5621   -1.3472   30.0481 C   0  0  0  0  0  0
   -3.7195   -1.2860   31.1109 C   0  0  0  0  0  0
   -3.1927   -0.0447   31.6352 C   0  0  0  0  0  0
   -5.0390   -0.2026   29.4059 N   0  0  0  0  0  0
   -4.6041    1.0385   29.8599 C   0  0  0  0  0  0
   -3.6680    1.0635   30.8643 N   0  0  0  0  0  0
   -3.2814    2.3298   31.0137 N   0  0  0  0  0  0
   -4.0617    3.0033   30.2080 C   0  0  0  0  0  0
   -4.8463    2.2543   29.4339 N   0  0  0  0  0  0
   -5.0871   -2.6500   29.4804 C   0  0  0  0  0  0
   -2.4445    0.1186   32.6025 O   0  0  0  0  0  0
   -4.0847    4.7812   30.1509 S   0  0  0  0  0  0
   -2.7369    5.4143   31.2430 C   0  0  0  0  0  0
   -1.2900    5.0970   30.8472 C   0  0  0  0  0  0
   -0.6776    3.9083   31.2474 C   0  0  0  0  0  0
    0.6661    3.6748   30.9921 C   0  0  0  0  0  0
    1.4422    4.6215   30.3245 C   0  0  0  0  0  0
    0.8285    5.8150   29.9166 C   0  0  0  0  0  0
   -0.5196    6.0560   30.1836 C   0  0  0  0  0  0
    2.8838    4.3558   30.0828 N   0  3  0  0  0  0
    3.5237    5.1528   29.4081 O   0  0  0  0  0  0
    3.3894    3.3495   30.5753 O   0  5  0  0  0  0
   -3.3872   -2.2005   31.5802 H   0  0  0  0  0  0
   -5.4898   -0.3006   28.5049 H   0  0  0  0  0  0
   -4.5791   -2.8712   28.5390 H   0  0  0  0  0  0
   -4.8976   -3.4846   30.1601 H   0  0  0  0  0  0
   -6.1626   -2.6001   29.3007 H   0  0  0  0  0  0
   -2.8937    5.1569   32.2857 H   0  0  0  0  0  0
   -2.8610    6.4971   31.2354 H   0  0  0  0  0  0
   -1.2067    3.1603   31.8077 H   0  0  0  0  0  0
    1.1095    2.7548   31.3353 H   0  0  0  0  0  0
    1.3909    6.5770   29.4083 H   0  0  0  0  0  0
   -0.9567    6.9968   29.8783 H   0  0  0  0  0  0
  1  2  2  0  0  0
  1  4  1  0  0  0
  1 10  1  0  0  0
  2  3  1  0  0  0
  2 23  1  0  0  0
  3  6  1  0  0  0
  3 11  2  0  0  0
  4  5  1  0  0  0
  4 24  1  0  0  0
  5  6  1  0  0  0
  5  9  2  0  0  0
  6  7  1  0  0  0
  7  8  2  0  0  0
  8  9  1  0  0  0
  8 12  1  0  0  0
 10 25  1  0  0  0
 10 26  1  0  0  0
 10 27  1  0  0  0
 12 13  1  0  0  0
 13 14  1  0  0  0
 13 28  1  0  0  0
 13 29  1  0  0  0
 14 15  2  0  0  0
 14 19  1  0  0  0
 15 16  1  0  0  0
 15 30  1  0  0  0
 16 17  2  0  0  0
 16 31  1  0  0  0
 17 18  1  0  0  0
 17 20  1  0  0  0
 18 19  2  0  0  0
 18 32  1  0  0  0
 19 33  1  0  0  0
 20 21  2  0  0  0
 20 22  1  0  0  0
M  CHG  2  20   1  22  -1
M  END
> <s_m_entry_id>
10558

> <s_m_entry_name>
dock_pv.627

> <s_m_Source_Path>
/home/csk/Desktop/cluster/DUD-E-result/met

> <s_m_Source_File>
dock_pv.maegz

> <i_m_Source_File_Index>
627

> <chembl_id>
CHEMBL4445265

> <chembl_pref_name>
None

> <i_lp_mmshare_version>
53161

> <i_f3d_flags>
0

> <r_lp_tautomer_probability>
1

> <s_lp_Force_Field>
OPLS_2005

> <r_lp_Energy>
16.294031

> <b_lp_Chiralities_Consistent>
1

> <s_lp_Variant>
CHEMBL3717_lig3173 -1

> <s_i_glide_gridfile>
glide-grid_3lq8

> <i_i_glide_lignum>
3894

> <i_i_glide_rotatable_bonds>
4

> <r_i_docking_score>
-6.93802628404321

> <r_i_glide_ligand_efficiency>
-0.315364831092873

> <r_i_glide_ligand_efficiency_sa>
-0.883664659317242

> <r_i_glide_ligand_efficiency_ln>
-1.69590669447779

> <r_i_glide_gscore>
-6.93802628404321

> <r_i_glide_lipo>
-2.56544360122426

> <r_i_glide_hbond>
-0.021547463715191

> <r_i_glide_metal>
0

> <r_i_glide_rewards>
-2.8721961311488

> <r_i_glide_evdw>
-34.2449111938477

> <r_i_glide_ecoul>
-1.82821083068848

> <r_i_glide_erotb>
0.555022667398789

> <r_i_glide_esite>
-0.0473845710580938

> <r_i_glide_emodel>
-51.3339820022876

> <r_i_glide_energy>
-36.0731220245361

> <r_i_glide_einternal>
0.484702318906784

> <i_i_glide_confnum>
3

> <i_i_glide_posenum>
127

> <r_i_glide_eff_state_penalty>
0

> <s_user_duplicate_titles>
CHEMBL3717_lig3173 

> <s_m_subgroup_title>
dock_pv

> <s_m_subgroupid>
dock_pv

> <b_m_subgroup_collapsed>
1

$$$$
CHEMBL3717_lig3172 
                    3D
 Schrodinger Suite 2021-1.
 31 33  0  0  1  0            999 V2000
   -0.4725    4.8236   30.6371 C   0  0  0  0  0  0
   -1.2172    5.9570   30.6081 C   0  0  0  0  0  0
   -2.6662    5.9642   30.6082 C   0  0  0  0  0  0
   -1.0518    3.5571   30.6660 N   0  0  0  0  0  0
   -2.4395    3.4666   30.6403 C   0  0  0  0  0  0
   -3.1776    4.6298   30.6029 N   0  0  0  0  0  0
   -4.4676    4.2905   30.4837 N   0  0  0  0  0  0
   -4.4247    2.9687   30.4702 C   0  0  0  0  0  0
   -3.2198    2.4214   30.5921 N   0  0  0  0  0  0
    1.0429    4.8162   30.6548 C   0  0  0  0  0  0
   -3.4132    6.9429   30.6083 O   0  0  0  0  0  0
   -5.8951    2.0272   30.2076 S   0  0  0  0  0  0
   -5.7148    0.6186   31.3587 C   0  0  0  0  0  0
   -4.5344   -0.3015   31.0653 C   0  0  0  0  0  0
   -3.5611   -0.5296   32.0454 C   0  0  0  0  0  0
   -2.4944   -1.3936   31.7946 C   0  0  0  0  0  0
   -2.3981   -2.0430   30.5632 C   0  0  0  0  0  0
   -3.3624   -1.8189   29.5803 C   0  0  0  0  0  0
   -4.4274   -0.9523   29.8303 C   0  0  0  0  0  0
   -1.2942   -1.6536   33.0080 Cl  0  0  0  0  0  0
   -0.7272    6.9190   30.5898 H   0  0  0  0  0  0
   -0.4754    2.7323   30.5921 H   0  0  0  0  0  0
    1.4334    4.3264   29.7619 H   0  0  0  0  0  0
    1.4452    5.8292   30.6823 H   0  0  0  0  0  0
    1.4154    4.2862   31.5318 H   0  0  0  0  0  0
   -6.6273    0.0253   31.3037 H   0  0  0  0  0  0
   -5.6778    1.0030   32.3771 H   0  0  0  0  0  0
   -3.6320   -0.0411   33.0063 H   0  0  0  0  0  0
   -1.5811   -2.7224   30.3675 H   0  0  0  0  0  0
   -3.2918   -2.3193   28.6246 H   0  0  0  0  0  0
   -5.1679   -0.7928   29.0583 H   0  0  0  0  0  0
  1  2  2  0  0  0
  1  4  1  0  0  0
  1 10  1  0  0  0
  2  3  1  0  0  0
  2 21  1  0  0  0
  3  6  1  0  0  0
  3 11  2  0  0  0
  4  5  1  0  0  0
  4 22  1  0  0  0
  5  6  1  0  0  0
  5  9  2  0  0  0
  6  7  1  0  0  0
  7  8  2  0  0  0
  8  9  1  0  0  0
  8 12  1  0  0  0
 10 23  1  0  0  0
 10 24  1  0  0  0
 10 25  1  0  0  0
 12 13  1  0  0  0
 13 14  1  0  0  0
 13 26  1  0  0  0
 13 27  1  0  0  0
 14 15  2  0  0  0
 14 19  1  0  0  0
 15 16  1  0  0  0
 15 28  1  0  0  0
 16 17  2  0  0  0
 16 20  1  0  0  0
 17 18  1  0  0  0
 17 29  1  0  0  0
 18 19  2  0  0  0
 18 30  1  0  0  0
 19 31  1  0  0  0
M  END
> <s_m_entry_id>
10559

> <s_m_entry_name>
dock_pv.628

> <s_m_Source_Path>
/home/csk/Desktop/cluster/DUD-E-result/met

> <s_m_Source_File>
dock_pv.maegz

> <i_m_Source_File_Index>
628

> <chembl_id>
CHEMBL4550473

> <chembl_pref_name>
None

> <i_lp_mmshare_version>
53161

> <i_f3d_flags>
0

> <r_lp_tautomer_probability>
1

> <s_lp_Force_Field>
OPLS_2005

> <r_lp_Energy>
16.237053

> <b_lp_Chiralities_Consistent>
1

> <s_lp_Variant>
CHEMBL3717_lig3172 -1

> <s_i_glide_gridfile>
glide-grid_3lq8

> <i_i_glide_lignum>
3893

> <i_i_glide_rotatable_bonds>
3

> <r_i_docking_score>
-6.93784152883584

> <r_i_glide_ligand_efficiency>
-0.346892076441792

> <r_i_glide_ligand_efficiency_sa>
-0.941609962410517

> <r_i_glide_ligand_efficiency_ln>
-1.73631290933939

> <r_i_glide_gscore>
-6.93784152883584

> <r_i_glide_lipo>
-2.17255205680704

> <r_i_glide_hbond>
-0.32

> <r_i_glide_metal>
0

> <r_i_glide_rewards>
-2.61895681720861

> <r_i_glide_evdw>
-37.6628074645996

> <r_i_glide_ecoul>
-3.54801106452942

> <r_i_glide_erotb>
0.589009378089211

> <r_i_glide_esite>
0

> <r_i_glide_emodel>
-54.439684767699

> <r_i_glide_energy>
-41.210818529129

> <r_i_glide_einternal>
3.18490791320801

> <i_i_glide_confnum>
14

> <i_i_glide_posenum>
103

> <r_i_glide_eff_state_penalty>
0

> <s_user_duplicate_titles>
CHEMBL3717_lig3172 

> <s_m_subgroup_title>
dock_pv

> <s_m_subgroupid>
dock_pv

> <b_m_subgroup_collapsed>
1

$$$$
CHEMBL3717_lig4179
                    3D
 Schrodinger Suite 2021-1.
 38 41  0  0  1  0            999 V2000
   -2.8868    4.7432   30.6083 C   0  0  0  0  0  0
   -2.5911    6.0699   30.2655 C   0  0  0  0  0  0
   -1.2854    6.5537   30.2079 C   0  0  0  0  0  0
   -1.8478    3.8688   30.9488 C   0  0  0  0  0  0
   -0.5205    4.3267   30.8987 C   0  0  0  0  0  0
   -0.2393    5.6782   30.5268 C   0  0  0  0  0  0
    1.6507    4.7829   30.8816 N   0  0  0  0  0  0
    0.7616    3.7652   31.1233 C   0  0  0  0  0  0
   -4.3161    4.2714   30.5601 C   0  0  0  0  0  0
   -5.2842    5.1497   30.7753 N   0  0  0  0  0  0
   -4.8239    2.9807   30.2692 C   0  0  0  0  0  0
   -6.1931    3.1427   30.2076 N   0  0  0  0  0  0
   -6.4374    4.4882   30.5297 C   0  0  0  0  0  0
   -7.6779    4.9977   30.5555 N   0  0  0  0  0  0
   -8.7015    4.1631   30.2310 C   0  0  0  0  0  0
   -8.5300    2.8203   29.8990 C   0  0  0  0  0  0
   -7.2359    2.3036   29.8957 C   0  0  0  0  0  0
   -4.0238    0.6752   30.9459 C   0  0  0  0  0  0
   -3.4726   -0.5855   30.2537 C   0  0  0  0  0  0
   -5.2796    0.3005   31.7597 C   0  0  0  0  0  0
    1.0993    5.9536   30.5231 N   0  0  0  0  0  0
   -4.2391    1.7617   29.9867 N   0  0  0  0  0  0
   -3.3961    6.7447   30.0100 H   0  0  0  0  0  0
   -1.0908    7.5786   29.9235 H   0  0  0  0  0  0
   -2.0539    2.8454   31.2194 H   0  0  0  0  0  0
    1.1130    2.7855   31.4075 H   0  0  0  0  0  0
   -9.6883    4.6053   30.2377 H   0  0  0  0  0  0
   -9.3761    2.1992   29.6398 H   0  0  0  0  0  0
   -6.9912    1.2850   29.6293 H   0  0  0  0  0  0
   -3.2699    1.0206   31.6530 H   0  0  0  0  0  0
   -3.3585   -1.4043   30.9650 H   0  0  0  0  0  0
   -4.1411   -0.9293   29.4638 H   0  0  0  0  0  0
   -2.4941   -0.4274   29.8080 H   0  0  0  0  0  0
   -5.0355   -0.4181   32.5413 H   0  0  0  0  0  0
   -5.7262    1.1575   32.2561 H   0  0  0  0  0  0
   -6.0467   -0.1562   31.1324 H   0  0  0  0  0  0
    2.6529    4.6834   30.9551 H   0  0  0  0  0  0
   -3.4707    1.7729   29.3303 H   0  0  0  0  0  0
  1  2  1  0  0  0
  1  9  1  0  0  0
  1  4  2  0  0  0
  2  3  2  0  0  0
  2 23  1  0  0  0
  3  6  1  0  0  0
  3 24  1  0  0  0
  4 25  1  0  0  0
  4  5  1  0  0  0
  5  6  1  0  0  0
  5  8  2  0  0  0
  6 21  2  0  0  0
  7 37  1  0  0  0
  7 21  1  0  0  0
  7  8  1  0  0  0
  8 26  1  0  0  0
  9 10  1  0  0  0
  9 11  2  0  0  0
 10 13  2  0  0  0
 11 12  1  0  0  0
 11 22  1  0  0  0
 12 13  1  0  0  0
 12 17  1  0  0  0
 13 14  1  0  0  0
 14 15  2  0  0  0
 15 16  1  0  0  0
 15 27  1  0  0  0
 16 17  2  0  0  0
 16 28  1  0  0  0
 17 29  1  0  0  0
 18 19  1  0  0  0
 18 20  1  0  0  0
 18 22  1  0  0  0
 18 30  1  0  0  0
 19 31  1  0  0  0
 19 32  1  0  0  0
 19 33  1  0  0  0
 20 34  1  0  0  0
 20 35  1  0  0  0
 20 36  1  0  0  0
 22 38  1  0  0  0
M  END
> <s_m_entry_id>
10560

> <s_m_entry_name>
dock_pv.629

> <s_m_Source_Path>
/home/csk/Desktop/cluster/DUD-E-result/met

> <s_m_Source_File>
dock_pv.maegz

> <i_m_Source_File_Index>
629

> <chembl_id>
CHEMBL1682553

> <chembl_pref_name>
None

> <i_lp_mmshare_version>
53161

> <i_f3d_flags>
0

> <r_lp_tautomer_probability>
0.0196078431372549

> <s_lp_Force_Field>
OPLS_2005

> <r_lp_Energy>
32.711049

> <b_lp_Chiralities_Consistent>
1

> <s_lp_Variant>
CHEMBL3717_lig4179-2

> <s_i_glide_gridfile>
glide-grid_3lq8

> <i_i_glide_lignum>
5360

> <i_i_glide_rotatable_bonds>
3

> <r_i_docking_score>
-6.93783917646127

> <r_i_glide_ligand_efficiency>
-0.315356326202785

> <r_i_glide_ligand_efficiency_sa>
-0.883640828280737

> <r_i_glide_ligand_efficiency_ln>
-1.69586095855985

> <r_i_glide_gscore>
-6.93783917646127

> <r_i_glide_lipo>
-2.95647387394112

> <r_i_glide_hbond>
0

> <r_i_glide_metal>
0

> <r_i_glide_rewards>
-2.53649504738871

> <r_i_glide_evdw>
-36.509204864502

> <r_i_glide_ecoul>
-0.310851782560349

> <r_i_glide_erotb>
0.427217755477707

> <r_i_glide_esite>
0

> <r_i_glide_emodel>
-51.3649911699533

> <r_i_glide_energy>
-36.8200566470623

> <r_i_glide_einternal>
0.293237030506134

> <i_i_glide_confnum>
2

> <i_i_glide_posenum>
40

> <r_i_glide_eff_state_penalty>
0

> <s_user_duplicate_titles>
CHEMBL3717_lig4179,CHEMBL3717_lig4179

> <s_m_subgroup_title>
dock_pv

> <s_m_subgroupid>
dock_pv

> <b_m_subgroup_collapsed>
1

$$$$
CHEMBL3717_lig402
                    3D
 Schrodinger Suite 2021-1.
 37 38  0  0  1  0            999 V2000
    4.2109    4.2806   29.0096 C   0  0  2  0  0  0
    5.4573    4.3570   28.2132 N   0  0  0  0  0  0
    4.5404    3.8875   30.4672 C   0  0  0  0  0  0
    5.5060    2.9240   30.5694 O   0  0  0  0  0  0
    3.9062    4.3570   31.4080 O   0  0  0  0  0  0
   -4.1929    1.7698   30.5611 C   0  0  0  0  0  0
   -5.4886    2.2977   30.5323 C   0  0  0  0  0  0
   -5.6842    3.6818   30.5590 C   0  0  0  0  0  0
   -3.0855    2.6228   30.6080 C   0  0  0  0  0  0
   -3.2846    4.0059   30.6080 C   0  0  0  0  0  0
   -4.5661    4.5136   30.5977 C   0  0  0  0  0  0
   -4.4917    5.8850   30.6080 N   0  0  0  0  0  0
   -3.2259    6.3311   30.6184 C   0  0  0  0  0  0
   -2.3793    5.1532   30.6001 C   0  0  0  0  0  0
   -2.8940    7.5133   30.6080 O   0  0  0  0  0  0
   -1.0366    5.2635   30.5081 C   0  0  0  0  0  0
   -0.1234    4.2552   30.3092 N   0  0  0  0  0  0
    1.0393    4.4493   29.4542 C   0  0  0  0  0  0
    1.8343    3.1570   29.1964 C   0  0  0  0  0  0
    3.1395    3.3515   28.3815 C   0  0  0  0  0  0
    3.7880    5.2837   29.0588 H   0  0  0  0  0  0
    6.1806    4.9164   28.6486 H   0  0  0  0  0  0
    5.8522    3.4458   27.9841 H   0  0  0  0  0  0
    5.8228    2.6635   29.6972 H   0  0  0  0  0  0
   -4.0482    0.6991   30.5463 H   0  0  0  0  0  0
   -6.3395    1.6332   30.4967 H   0  0  0  0  0  0
   -6.6859    4.0855   30.5391 H   0  0  0  0  0  0
   -2.0940    2.1995   30.6257 H   0  0  0  0  0  0
   -5.2885    6.5007   30.5368 H   0  0  0  0  0  0
   -0.5526    6.2325   30.5408 H   0  0  0  0  0  0
   -0.5153    3.3321   30.1914 H   0  0  0  0  0  0
    1.6727    5.2225   29.8910 H   0  0  0  0  0  0
    0.7259    4.8559   28.4912 H   0  0  0  0  0  0
    1.1942    2.4609   28.6533 H   0  0  0  0  0  0
    2.0507    2.6569   30.1416 H   0  0  0  0  0  0
    2.8700    3.7455   27.4018 H   0  0  0  0  0  0
    3.5727    2.3701   28.1833 H   0  0  0  0  0  0
  1  3  1  0  0  0
  1  2  1  0  0  0
  1 20  1  0  0  0
  1 21  1  0  0  0
  2 22  1  0  0  0
  2 23  1  0  0  0
  3  5  2  0  0  0
  3  4  1  0  0  0
  4 24  1  0  0  0
  6  7  2  0  0  0
  6  9  1  0  0  0
  6 25  1  0  0  0
  7  8  1  0  0  0
  7 26  1  0  0  0
  8 11  2  0  0  0
  8 27  1  0  0  0
  9 10  2  0  0  0
  9 28  1  0  0  0
 10 14  1  0  0  0
 10 11  1  0  0  0
 11 12  1  0  0  0
 12 13  1  0  0  0
 12 29  1  0  0  0
 13 14  1  0  0  0
 13 15  2  0  0  0
 14 16  2  0  0  0
 16 17  1  0  0  0
 16 30  1  0  0  0
 17 18  1  0  0  0
 17 31  1  0  0  0
 18 19  1  0  0  0
 18 32  1  0  0  0
 18 33  1  0  0  0
 19 20  1  0  0  0
 19 34  1  0  0  0
 19 35  1  0  0  0
 20 36  1  0  0  0
 20 37  1  0  0  0
M  END
> <s_m_entry_id>
10561

> <s_m_entry_name>
dock_pv.630

> <s_m_Source_Path>
/home/csk/Desktop/cluster/DUD-E-result/met

> <s_m_Source_File>
dock_pv.maegz

> <i_m_Source_File_Index>
630

> <chembl_id>
CHEMBL458352

> <chembl_pref_name>
None

> <i_lp_mmshare_version>
53161

> <i_f3d_flags>
0

> <r_lp_tautomer_probability>
0.499999999999422

> <s_lp_Force_Field>
OPLS_2005

> <r_lp_Energy>
26.891507

> <b_lp_Chiralities_Consistent>
1

> <s_lp_Variant>
CHEMBL3717_lig402-2

> <s_i_glide_gridfile>
glide-grid_3lq8

> <i_i_glide_lignum>
426

> <i_i_glide_rotatable_bonds>
7

> <r_i_docking_score>
-6.93747124600668

> <r_i_glide_ligand_efficiency>
-0.346873562300334

> <r_i_glide_ligand_efficiency_sa>
-0.941559707298837

> <r_i_glide_ligand_efficiency_ln>
-1.73622023976

> <r_i_glide_gscore>
-6.93747124600668

> <r_i_glide_lipo>
-2.53482792895961

> <r_i_glide_hbond>
-0.584669434733561

> <r_i_glide_metal>
0

> <r_i_glide_rewards>
-2.97950154340718

> <r_i_glide_evdw>
-31.3447952270508

> <r_i_glide_ecoul>
-14.1113557815552

> <r_i_glide_erotb>
2.84547078967948

> <r_i_glide_esite>
0

> <r_i_glide_emodel>
-60.5590111155578

> <r_i_glide_energy>
-45.456151008606

> <r_i_glide_einternal>
7.81274747848511

> <i_i_glide_confnum>
63

> <i_i_glide_posenum>
312

> <r_i_glide_eff_state_penalty>
0

> <s_user_duplicate_titles>
CHEMBL3717_lig402

> <s_m_subgroup_title>
dock_pv

> <s_m_subgroupid>
dock_pv

> <b_m_subgroup_collapsed>
1

$$$$
CHEMBL3717_lig1227
                    3D
 Schrodinger Suite 2021-1.
 47 51  0  0  1  0            999 V2000
   -5.9541    5.1573   30.6738 N   0  0  0  0  0  0
   -4.6914    5.6527   30.6671 C   0  0  0  0  0  0
   -3.5556    4.8438   30.6153 C   0  0  0  0  0  0
   -3.7517    3.4628   30.5505 C   0  0  0  0  0  0
   -5.0417    2.9184   30.5068 C   0  0  0  0  0  0
   -6.1214    3.8164   30.5891 C   0  0  0  0  0  0
   -5.1555    1.4343   30.3527 C   0  0  0  0  0  0
   -4.0449    0.7747   29.8991 O   0  0  0  0  0  0
   -6.2108    0.6742   30.5758 N   0  0  0  0  0  0
   -2.1754    5.3962   30.6085 C   0  0  0  0  0  0
   -5.7805   -0.5805   30.2450 C   0  0  0  0  0  0
   -4.4416   -0.5187   29.8280 C   0  0  0  0  0  0
   -3.7080   -1.6294   29.4106 C   0  0  0  0  0  0
   -4.3938   -2.8444   29.3966 C   0  0  0  0  0  0
   -5.7237   -2.9426   29.8234 C   0  0  0  0  0  0
   -6.4395   -1.8189   30.2569 C   0  0  0  0  0  0
   -7.4433    3.3865   30.5527 N   0  0  0  0  0  0
   -0.9991    4.7455   30.9580 C   0  0  0  0  0  0
    0.0237    5.6287   30.7310 N   0  0  0  0  0  0
   -0.4273    6.7798   30.2088 N   0  0  0  0  0  0
   -1.7326    6.6651   30.2078 C   0  0  0  0  0  0
    1.4716    5.4006   30.7631 C   0  0  0  0  0  0
    1.9819    4.4247   31.8447 C   0  0  0  0  0  0
    1.9648    2.9460   31.4080 C   0  0  0  0  0  0
    2.5651    2.7578   30.0884 N   0  0  2  0  0  0
    1.9011    3.5414   29.0500 C   0  0  0  0  0  0
    2.0233    5.0338   29.3785 C   0  0  0  0  0  0
   -4.6052    6.7281   30.7080 H   0  0  0  0  0  0
   -2.8909    2.8114   30.5031 H   0  0  0  0  0  0
   -2.6867   -1.5455   29.0722 H   0  0  0  0  0  0
   -3.8863   -3.7231   29.0227 H   0  0  0  0  0  0
   -6.2065   -3.9097   29.8081 H   0  0  0  0  0  0
   -7.4678   -1.8989   30.5756 H   0  0  0  0  0  0
   -7.6257    2.3930   30.4984 H   0  0  0  0  0  0
   -8.1842    4.0711   30.5533 H   0  0  0  0  0  0
   -0.8096    3.7439   31.3078 H   0  0  0  0  0  0
   -2.3463    7.4808   29.8597 H   0  0  0  0  0  0
    1.8564    6.3907   31.0072 H   0  0  0  0  0  0
    1.4245    4.5626   32.7718 H   0  0  0  0  0  0
    2.9969    4.7029   32.1334 H   0  0  0  0  0  0
    0.9529    2.5451   31.4030 H   0  0  0  0  0  0
    2.5333    2.3491   32.1231 H   0  0  0  0  0  0
    2.4953    1.7800   29.8342 H   0  0  0  0  0  0
    0.8526    3.2437   28.9799 H   0  0  0  0  0  0
    2.3645    3.3232   28.0865 H   0  0  0  0  0  0
    3.0640    5.3475   29.2935 H   0  0  0  0  0  0
    1.5127    5.6161   28.6104 H   0  0  0  0  0  0
  1  2  2  0  0  0
  1  6  1  0  0  0
  2  3  1  0  0  0
  2 28  1  0  0  0
  3  4  2  0  0  0
  3 10  1  0  0  0
  4  5  1  0  0  0
  4 29  1  0  0  0
  5  7  1  0  0  0
  5  6  2  0  0  0
  6 17  1  0  0  0
  7  8  1  0  0  0
  7  9  2  0  0  0
  8 12  1  0  0  0
  9 11  1  0  0  0
 10 18  2  0  0  0
 10 21  1  0  0  0
 11 16  1  0  0  0
 11 12  2  0  0  0
 12 13  1  0  0  0
 13 14  2  0  0  0
 13 30  1  0  0  0
 14 15  1  0  0  0
 14 31  1  0  0  0
 15 16  2  0  0  0
 15 32  1  0  0  0
 16 33  1  0  0  0
 17 34  1  0  0  0
 17 35  1  0  0  0
 18 19  1  0  0  0
 18 36  1  0  0  0
 19 20  1  0  0  0
 19 22  1  0  0  0
 20 21  2  0  0  0
 21 37  1  0  0  0
 22 23  1  0  0  0
 22 27  1  0  0  0
 22 38  1  0  0  0
 23 24  1  0  0  0
 23 39  1  0  0  0
 23 40  1  0  0  0
 24 25  1  0  0  0
 24 41  1  0  0  0
 24 42  1  0  0  0
 25 26  1  0  0  0
 25 43  1  0  0  0
 26 27  1  0  0  0
 26 44  1  0  0  0
 26 45  1  0  0  0
 27 46  1  0  0  0
 27 47  1  0  0  0
M  END
> <s_m_entry_id>
10562

> <s_m_entry_name>
dock_pv.631

> <s_m_Source_Path>
/home/csk/Desktop/cluster/DUD-E-result/met

> <s_m_Source_File>
dock_pv.maegz

> <i_m_Source_File_Index>
631

> <chembl_id>
CHEMBL1199988

> <chembl_pref_name>
None

> <i_lp_mmshare_version>
53161

> <i_f3d_flags>
0

> <r_lp_tautomer_probability>
0.999999772200052

> <s_lp_Force_Field>
OPLS_2005

> <r_lp_Energy>
30.844514

> <b_lp_Chiralities_Consistent>
1

> <s_lp_Variant>
CHEMBL3717_lig1227-1

> <s_i_glide_gridfile>
glide-grid_3lq8

> <i_i_glide_lignum>
1405

> <i_i_glide_rotatable_bonds>
3

> <r_i_docking_score>
-6.93743365058938

> <r_i_glide_ligand_efficiency>
-0.256941987058866

> <r_i_glide_ligand_efficiency_sa>
-0.770825960329759

> <r_i_glide_ligand_efficiency_ln>
-1.61492018132478

> <r_i_glide_gscore>
-6.93743365058938

> <r_i_glide_lipo>
-3.46142520944722

> <r_i_glide_hbond>
0

> <r_i_glide_metal>
0

> <r_i_glide_rewards>
-1.73061130393009

> <r_i_glide_evdw>
-44.0238342285156

> <r_i_glide_ecoul>
0.0857263877987862

> <r_i_glide_erotb>
0.442935616043888

> <r_i_glide_esite>
0

> <r_i_glide_emodel>
-55.3177244392534

> <r_i_glide_energy>
-43.9381078407168

> <r_i_glide_einternal>
6.36473274230957

> <i_i_glide_confnum>
2

> <i_i_glide_posenum>
54

> <r_i_glide_eff_state_penalty>
0

> <s_user_duplicate_titles>
CHEMBL3717_lig1227,CHEMBL3717_lig597,648558

> <s_m_subgroup_title>
dock_pv

> <s_m_subgroupid>
dock_pv

> <b_m_subgroup_collapsed>
1

$$$$
CHEMBL3717_lig3619
                    3D
 Schrodinger Suite 2021-1.
 45 47  0  0  1  0            999 V2000
   -7.3925    4.7599   30.0706 O   0  0  0  0  0  0
   -8.0935   -0.8043   33.2141 O   0  0  0  0  0  0
   -7.0698    2.7195   31.0073 N   0  0  0  0  0  0
    1.9101    5.1577   30.6826 N   0  0  0  0  0  0
   -5.1496    4.1334   30.6079 C   0  0  0  0  0  0
   -2.3677    4.5713   30.7344 C   0  0  0  0  0  0
   -6.6392    3.9043   30.5355 C   0  0  0  0  0  0
   -0.8892    4.7906   30.7496 C   0  0  0  0  0  0
   -8.4038    2.1533   30.7947 C   0  0  1  0  0  0
   -4.6414    5.4325   30.7201 C   0  0  0  0  0  0
   -4.2545    3.0575   30.5387 C   0  0  0  0  0  0
   -3.2668    5.6459   30.7969 C   0  0  0  0  0  0
   -2.8846    3.2768   30.6084 C   0  0  0  0  0  0
   -8.5736    1.5988   29.3716 C   0  0  0  0  0  0
   -0.0119    3.8191   31.2593 C   0  0  0  0  0  0
   -0.3232    5.9596   30.2171 C   0  0  0  0  0  0
   -8.7582    1.1295   31.9035 C   0  0  0  0  0  0
   -7.5997    0.7629   28.8055 C   0  0  0  0  0  0
   -9.6735    1.9954   28.6014 C   0  0  0  0  0  0
    1.3647    4.0349   31.2063 C   0  0  0  0  0  0
    1.0629    6.1031   30.2066 C   0  0  0  0  0  0
   -7.7138    0.3539   27.4798 C   0  0  0  0  0  0
   -9.7913    1.5744   27.2790 C   0  0  0  0  0  0
   -8.8101    0.7569   26.7228 C   0  0  0  0  0  0
   -7.8471   -0.1106   32.0082 C   0  0  0  0  0  0
   -7.5200   -0.4356   33.9002 H   0  0  0  0  0  0
   -6.3974    2.1150   31.4511 H   0  0  0  0  0  0
   -9.1162    2.9745   30.9152 H   0  0  0  0  0  0
   -5.3099    6.2841   30.7524 H   0  0  0  0  0  0
   -4.6043    2.0412   30.4209 H   0  0  0  0  0  0
   -2.9074    6.6589   30.8964 H   0  0  0  0  0  0
   -2.2284    2.4226   30.5328 H   0  0  0  0  0  0
   -0.3843    2.9025   31.6923 H   0  0  0  0  0  0
   -0.9372    6.7428   29.7981 H   0  0  0  0  0  0
   -8.7361    1.6574   32.8588 H   0  0  0  0  0  0
   -9.7937    0.8081   31.7810 H   0  0  0  0  0  0
   -6.7355    0.4581   29.3758 H   0  0  0  0  0  0
  -10.4280    2.6512   29.0155 H   0  0  0  0  0  0
    2.0543    3.2946   31.5836 H   0  0  0  0  0  0
    1.5072    7.0002   29.8062 H   0  0  0  0  0  0
   -6.9509   -0.2732   27.0403 H   0  0  0  0  0  0
  -10.6287    1.8977   26.6797 H   0  0  0  0  0  0
   -8.8908    0.4488   25.6902 H   0  0  0  0  0  0
   -7.9838   -0.7652   31.1489 H   0  0  0  0  0  0
   -6.7967    0.1785   31.9916 H   0  0  0  0  0  0
  1  7  2  0  0  0
  2 25  1  0  0  0
  2 26  1  0  0  0
  3  7  1  0  0  0
  3  9  1  0  0  0
  3 27  1  0  0  0
  4 20  2  0  0  0
  4 21  1  0  0  0
  5  7  1  0  0  0
  5 10  2  0  0  0
  5 11  1  0  0  0
  6  8  1  0  0  0
  6 12  2  0  0  0
  6 13  1  0  0  0
  8 15  2  0  0  0
  8 16  1  0  0  0
  9 14  1  0  0  0
  9 17  1  0  0  0
  9 28  1  0  0  0
 10 12  1  0  0  0
 10 29  1  0  0  0
 11 13  2  0  0  0
 11 30  1  0  0  0
 12 31  1  0  0  0
 13 32  1  0  0  0
 14 18  2  0  0  0
 14 19  1  0  0  0
 15 20  1  0  0  0
 15 33  1  0  0  0
 16 21  2  0  0  0
 16 34  1  0  0  0
 17 25  1  0  0  0
 17 35  1  0  0  0
 17 36  1  0  0  0
 18 22  1  0  0  0
 18 37  1  0  0  0
 19 23  2  0  0  0
 19 38  1  0  0  0
 20 39  1  0  0  0
 21 40  1  0  0  0
 22 24  2  0  0  0
 22 41  1  0  0  0
 23 24  1  0  0  0
 23 42  1  0  0  0
 24 43  1  0  0  0
 25 44  1  0  0  0
 25 45  1  0  0  0
M  END
> <s_m_entry_id>
10565

> <s_m_entry_name>
dock_pv.634

> <s_m_Source_Path>
/home/csk/Desktop/cluster/DUD-E-result/met

> <s_m_Source_File>
dock_pv.maegz

> <i_m_Source_File_Index>
634

> <chembl_id>
CHEMBL1986143

> <chembl_pref_name>
None

> <i_lp_mmshare_version>
53161

> <i_f3d_flags>
0

> <r_lp_tautomer_probability>
1

> <s_lp_Force_Field>
OPLS_2005

> <r_lp_Energy>
15.322218

> <b_lp_Chiralities_Consistent>
1

> <s_lp_Variant>
CHEMBL3717_lig3619-2

> <s_i_glide_gridfile>
glide-grid_3lq8

> <i_i_glide_lignum>
4516

> <i_i_glide_rotatable_bonds>
8

> <r_i_docking_score>
-6.93582530208075

> <r_i_glide_ligand_efficiency>
-0.27743301208323

> <r_i_glide_ligand_efficiency_sa>
-0.811219047626785

> <r_i_glide_ligand_efficiency_ln>
-1.64399844650498

> <r_i_glide_gscore>
-6.93582530208075

> <r_i_glide_lipo>
-3.4186759277231

> <r_i_glide_hbond>
-0.32

> <r_i_glide_metal>
0

> <r_i_glide_rewards>
-2.14955297727365

> <r_i_glide_evdw>
-34.956127166748

> <r_i_glide_ecoul>
-2.15044093132019

> <r_i_glide_erotb>
1.02277610095143

> <r_i_glide_esite>
0

> <r_i_glide_emodel>
-50.0206760819666

> <r_i_glide_energy>
-37.1065680980682

> <r_i_glide_einternal>
5.6576943397522

> <i_i_glide_confnum>
2

> <i_i_glide_posenum>
21

> <r_i_glide_eff_state_penalty>
0

> <s_user_duplicate_titles>
CHEMBL3717_lig3619

> <s_m_subgroup_title>
dock_pv

> <s_m_subgroupid>
dock_pv

> <b_m_subgroup_collapsed>
1

$$$$
CHEMBL3717_lig1296
                    3D
 Schrodinger Suite 2021-1.
 43 47  0  0  1  0            999 V2000
    0.7956    4.7474   30.5165 N   0  0  0  0  0  0
    1.1771    3.3504   30.6872 C   0  0  0  0  0  0
    2.6955    3.2402   30.6145 C   0  0  1  0  0  0
    3.1660    4.6394   30.9412 C   0  0  0  0  0  0
    2.0242    5.5196   30.4295 C   0  0  0  0  0  0
    3.2691    2.2257   31.4063 O   0  0  0  0  0  0
   -3.0130    6.2241   30.4652 C   0  0  0  0  0  0
   -2.7425    4.8481   30.6068 C   0  0  0  0  0  0
   -2.0416    7.1099   30.2138 N   0  0  0  0  0  0
   -1.5140    4.3253   30.6322 N   0  0  0  0  0  0
   -0.5112    5.2398   30.4582 C   0  0  0  0  0  0
   -0.7815    6.5959   30.2089 C   0  0  0  0  0  0
   -3.9803    4.2284   30.6016 N   0  0  0  0  0  0
   -4.9399    5.1790   30.6103 N   0  0  0  0  0  0
   -4.3482    6.4247   30.6017 N   0  0  0  0  0  0
   -4.2619    2.7858   30.5143 C   0  0  0  0  0  0
   -9.5202    0.6524   29.7115 N   0  0  0  0  0  0
   -9.6601   -0.5084   29.0257 C   0  0  0  0  0  0
   -8.5919   -1.2082   28.4746 C   0  0  0  0  0  0
   -7.3054   -0.6931   28.6126 C   0  0  0  0  0  0
   -7.1143    0.5191   29.3191 C   0  0  0  0  0  0
   -5.8379    1.0980   29.5143 C   0  0  0  0  0  0
   -5.6889    2.2692   30.2646 C   0  0  0  0  0  0
   -6.8254    2.8660   30.8249 C   0  0  0  0  0  0
   -8.0982    2.3431   30.6190 C   0  0  0  0  0  0
   -8.2656    1.1600   29.8684 C   0  0  0  0  0  0
    0.8253    3.0371   31.6705 H   0  0  0  0  0  0
    0.7034    2.7568   29.9118 H   0  0  0  0  0  0
    2.9505    3.0191   29.5756 H   0  0  0  0  0  0
    4.1230    4.8787   30.4765 H   0  0  0  0  0  0
    3.2974    4.7577   32.0176 H   0  0  0  0  0  0
    2.1979    5.8587   29.4095 H   0  0  0  0  0  0
    1.9059    6.3853   31.0757 H   0  0  0  0  0  0
    4.2228    2.3081   31.3592 H   0  0  0  0  0  0
    0.0100    7.3094   30.0347 H   0  0  0  0  0  0
   -3.8734    2.3145   31.4082 H   0  0  0  0  0  0
   -3.6244    2.4093   29.7136 H   0  0  0  0  0  0
  -10.6663   -0.8866   28.9294 H   0  0  0  0  0  0
   -8.7579   -2.1353   27.9457 H   0  0  0  0  0  0
   -6.4533   -1.2155   28.2031 H   0  0  0  0  0  0
   -4.9750    0.5958   29.0982 H   0  0  0  0  0  0
   -6.7453    3.7406   31.4497 H   0  0  0  0  0  0
   -8.9624    2.8241   31.0546 H   0  0  0  0  0  0
  1  2  1  0  0  0
  1  5  1  0  0  0
  1 11  1  0  0  0
  2  3  1  0  0  0
  2 27  1  0  0  0
  2 28  1  0  0  0
  3  4  1  0  0  0
  3  6  1  0  0  0
  3 29  1  0  0  0
  4  5  1  0  0  0
  4 30  1  0  0  0
  4 31  1  0  0  0
  5 32  1  0  0  0
  5 33  1  0  0  0
  6 34  1  0  0  0
  7  8  1  0  0  0
  7  9  2  0  0  0
  7 15  1  0  0  0
  8 10  2  0  0  0
  8 13  1  0  0  0
  9 12  1  0  0  0
 10 11  1  0  0  0
 11 12  2  0  0  0
 12 35  1  0  0  0
 13 14  1  0  0  0
 13 16  1  0  0  0
 14 15  2  0  0  0
 16 23  1  0  0  0
 16 36  1  0  0  0
 16 37  1  0  0  0
 17 18  2  0  0  0
 17 26  1  0  0  0
 18 19  1  0  0  0
 18 38  1  0  0  0
 19 20  2  0  0  0
 19 39  1  0  0  0
 20 21  1  0  0  0
 20 40  1  0  0  0
 21 22  2  0  0  0
 21 26  1  0  0  0
 22 23  1  0  0  0
 22 41  1  0  0  0
 23 24  2  0  0  0
 24 25  1  0  0  0
 24 42  1  0  0  0
 25 26  2  0  0  0
 25 43  1  0  0  0
M  END
> <s_m_entry_id>
10566

> <s_m_entry_name>
dock_pv.635

> <s_m_Source_Path>
/home/csk/Desktop/cluster/DUD-E-result/met

> <s_m_Source_File>
dock_pv.maegz

> <i_m_Source_File_Index>
635

> <chembl_id>
CHEMBL2170807

> <chembl_pref_name>
None

> <i_lp_mmshare_version>
53161

> <i_f3d_flags>
0

> <r_lp_tautomer_probability>
1

> <s_lp_Force_Field>
OPLS_2005

> <r_lp_Energy>
46.400918

> <b_lp_Chiralities_Consistent>
1

> <s_lp_Variant>
CHEMBL3717_lig1296-2

> <s_i_glide_gridfile>
glide-grid_3lq8

> <i_i_glide_lignum>
1482

> <i_i_glide_rotatable_bonds>
4

> <r_i_docking_score>
-6.93427213029083

> <r_i_glide_ligand_efficiency>
-0.266702774241955

> <r_i_glide_ligand_efficiency_sa>
-0.790105919267049

> <r_i_glide_ligand_efficiency_ln>
-1.62849105659611

> <r_i_glide_gscore>
-6.93427213029083

> <r_i_glide_lipo>
-2.23632439333175

> <r_i_glide_hbond>
-0.0462123483628887

> <r_i_glide_metal>
0

> <r_i_glide_rewards>
-3.19192584620847

> <r_i_glide_evdw>
-37.4354248046875

> <r_i_glide_ecoul>
-0.40662008523941

> <r_i_glide_erotb>
0.472954710632566

> <r_i_glide_esite>
0

> <r_i_glide_emodel>
-49.6514491974549

> <r_i_glide_energy>
-37.8420448899269

> <r_i_glide_einternal>
6.8304123878479

> <i_i_glide_confnum>
4

> <i_i_glide_posenum>
4

> <r_i_glide_eff_state_penalty>
0

> <s_user_duplicate_titles>
CHEMBL3717_lig1296

> <s_m_subgroup_title>
dock_pv

> <s_m_subgroupid>
dock_pv

> <b_m_subgroup_collapsed>
1

$$$$
CHEMBL3717_lig619
                    3D
 Schrodinger Suite 2021-1.
 34 36  0  0  1  0            999 V2000
   -3.6979    3.5850   30.5455 N   0  0  0  0  0  0
   -5.0492    3.3359   30.5631 C   0  0  0  0  0  0
   -5.6572    4.5786   30.7800 C   0  0  0  0  0  0
   -4.6440    5.5537   30.7176 C   0  0  0  0  0  0
   -3.4070    4.9241   30.6274 C   0  0  0  0  0  0
   -7.0575    4.8369   30.9317 C   0  0  0  0  0  0
   -7.6172    4.7650   32.0223 O   0  0  0  0  0  0
   -7.6926    5.1570   29.8087 N   0  0  0  0  0  0
   -5.5850    1.9450   30.4248 C   0  0  0  0  0  0
   -6.6872    1.5212   31.1765 C   0  0  0  0  0  0
   -7.1689    0.2212   31.0488 C   0  0  0  0  0  0
   -6.5492   -0.6591   30.1651 C   0  0  0  0  0  0
   -5.4543   -0.2479   29.4100 C   0  0  0  0  0  0
   -4.9728    1.0512   29.5377 C   0  0  0  0  0  0
    0.2597    4.9952   30.7234 C   0  0  0  0  0  0
   -1.0142    4.5539   30.8751 N   0  0  0  0  0  0
   -2.0088    5.4497   30.6079 C   0  0  0  0  0  0
   -1.7264    6.7599   30.2075 C   0  0  0  0  0  0
   -0.3818    7.1084   30.0618 C   0  0  0  0  0  0
    0.6276    6.2375   30.3219 N   0  0  0  0  0  0
    1.2805    4.0919   30.9891 N   0  0  0  0  0  0
   -2.9939    2.8660   30.4606 H   0  0  0  0  0  0
   -4.8028    6.6205   30.7898 H   0  0  0  0  0  0
   -7.1558    5.3547   28.9796 H   0  0  0  0  0  0
   -8.6810    5.3621   29.8258 H   0  0  0  0  0  0
   -7.1683    2.1860   31.8776 H   0  0  0  0  0  0
   -8.0150   -0.1031   31.6373 H   0  0  0  0  0  0
   -6.9171   -1.6701   30.0646 H   0  0  0  0  0  0
   -4.9819   -0.9363   28.7241 H   0  0  0  0  0  0
   -4.1258    1.3546   28.9401 H   0  0  0  0  0  0
   -2.5055    7.4628   29.9646 H   0  0  0  0  0  0
   -0.0956    8.0993   29.7364 H   0  0  0  0  0  0
    2.2253    4.3723   30.7803 H   0  0  0  0  0  0
    1.0400    3.1278   31.1652 H   0  0  0  0  0  0
  1  2  1  0  0  0
  1  5  1  0  0  0
  1 22  1  0  0  0
  2  3  2  0  0  0
  2  9  1  0  0  0
  3  4  1  0  0  0
  3  6  1  0  0  0
  4  5  2  0  0  0
  4 23  1  0  0  0
  5 17  1  0  0  0
  6  7  2  0  0  0
  6  8  1  0  0  0
  8 24  1  0  0  0
  8 25  1  0  0  0
  9 10  1  0  0  0
  9 14  2  0  0  0
 10 11  2  0  0  0
 10 26  1  0  0  0
 11 12  1  0  0  0
 11 27  1  0  0  0
 12 13  2  0  0  0
 12 28  1  0  0  0
 13 14  1  0  0  0
 13 29  1  0  0  0
 14 30  1  0  0  0
 15 16  1  0  0  0
 15 20  2  0  0  0
 15 21  1  0  0  0
 16 17  2  0  0  0
 17 18  1  0  0  0
 18 19  2  0  0  0
 18 31  1  0  0  0
 19 20  1  0  0  0
 19 32  1  0  0  0
 21 33  1  0  0  0
 21 34  1  0  0  0
M  END
> <s_m_entry_id>
10567

> <s_m_entry_name>
dock_pv.636

> <s_m_Source_Path>
/home/csk/Desktop/cluster/DUD-E-result/met

> <s_m_Source_File>
dock_pv.maegz

> <i_m_Source_File_Index>
636

> <chembl_id>
CHEMBL1270230

> <chembl_pref_name>
None

> <i_lp_mmshare_version>
53161

> <i_f3d_flags>
0

> <r_lp_tautomer_probability>
0.999999987636

> <s_lp_Force_Field>
OPLS_2005

> <r_lp_Energy>
0.265656

> <b_lp_Chiralities_Consistent>
1

> <s_lp_Variant>
CHEMBL3717_lig619-1

> <s_i_glide_gridfile>
glide-grid_3lq8

> <i_i_glide_lignum>
677

> <i_i_glide_rotatable_bonds>
3

> <r_i_docking_score>
-6.9331238635444

> <r_i_glide_ligand_efficiency>
-0.330148755406876

> <r_i_glide_ligand_efficiency_sa>
-0.910855382169795

> <r_i_glide_ligand_efficiency_ln>
-1.71420086556546

> <r_i_glide_gscore>
-6.9331238635444

> <r_i_glide_lipo>
-2.19790617105297

> <r_i_glide_hbond>
-0.309304133966726

> <r_i_glide_metal>
0

> <r_i_glide_rewards>
-2.48578337083243

> <r_i_glide_evdw>
-34.5535736083984

> <r_i_glide_ecoul>
-4.49995851516724

> <r_i_glide_erotb>
0.462542270002731

> <r_i_glide_esite>
0

> <r_i_glide_emodel>
-52.6887282136823

> <r_i_glide_energy>
-39.0535321235657

> <r_i_glide_einternal>
4.57242822647095

> <i_i_glide_confnum>
1

> <i_i_glide_posenum>
116

> <r_i_glide_eff_state_penalty>
0

> <s_user_duplicate_titles>
CHEMBL3717_lig619

> <s_m_subgroup_title>
dock_pv

> <s_m_subgroupid>
dock_pv

> <b_m_subgroup_collapsed>
1

$$$$
CHEMBL3717_lig1854
                    3D
 Schrodinger Suite 2021-1.
 41 45  0  0  1  0            999 V2000
   -3.7715    4.5304   30.6080 C   0  0  0  0  0  0
   -4.7489    5.4638   30.9838 C   0  0  0  0  0  0
   -6.0800    5.1637   30.9981 N   0  0  0  0  0  0
   -4.0949    3.2687   30.2080 N   0  0  0  0  0  0
   -5.4047    3.0034   30.2080 C   0  0  0  0  0  0
   -6.4037    3.9243   30.6077 C   0  0  0  0  0  0
   -7.6478    3.3640   30.5321 N   0  0  0  0  0  0
   -7.4182    2.1508   30.0868 C   0  0  0  0  0  0
   -6.0882    1.8552   29.8514 N   0  0  0  0  0  0
   -2.3100    4.8169   30.6398 C   0  0  0  0  0  0
   -1.2589    3.9076   30.6859 C   0  0  0  0  0  0
   -0.1046    4.6430   30.6659 N   0  0  0  0  0  0
   -0.3402    5.9566   30.6078 N   0  0  0  0  0  0
   -1.6516    6.0559   30.6078 C   0  0  0  0  0  0
   -5.5670    0.6134   29.2660 C   0  0  0  0  0  0
   -4.5069   -0.1779   30.0381 C   0  0  0  0  0  0
   -4.0878   -1.4039   29.5162 C   0  0  0  0  0  0
   -3.1022   -2.1624   30.1418 C   0  0  0  0  0  0
   -3.9293    0.2905   31.2209 C   0  0  0  0  0  0
   -2.8942   -0.4268   31.8526 C   0  0  0  0  0  0
   -2.4890   -1.6857   31.3205 C   0  0  0  0  0  0
   -1.5332   -2.4429   31.9242 N   0  0  0  0  0  0
   -0.9815   -1.9862   33.0729 C   0  0  0  0  0  0
   -1.2868   -0.7525   33.6315 C   0  0  0  0  0  0
   -2.2329    0.0510   33.0079 C   0  0  0  0  0  0
    1.2648    4.1634   30.6753 C   0  0  0  0  0  0
   -4.4820    6.4598   31.3014 H   0  0  0  0  0  0
   -8.1755    1.4095   29.8790 H   0  0  0  0  0  0
   -1.2371    2.8280   30.7156 H   0  0  0  0  0  0
   -2.1303    7.0226   30.5627 H   0  0  0  0  0  0
   -5.1501    0.8725   28.2916 H   0  0  0  0  0  0
   -6.4109   -0.0498   29.0686 H   0  0  0  0  0  0
   -4.5340   -1.7835   28.6084 H   0  0  0  0  0  0
   -2.8058   -3.1207   29.7361 H   0  0  0  0  0  0
   -4.2540    1.2071   31.6804 H   0  0  0  0  0  0
   -0.2701   -2.6416   33.5521 H   0  0  0  0  0  0
   -0.8089   -0.4381   34.5466 H   0  0  0  0  0  0
   -2.4937    1.0088   33.4299 H   0  0  0  0  0  0
    1.2795    3.0780   30.7774 H   0  0  0  0  0  0
    1.7521    4.4418   29.7400 H   0  0  0  0  0  0
    1.8015    4.6089   31.5143 H   0  0  0  0  0  0
  1  2  2  0  0  0
  1  4  1  0  0  0
  1 10  1  0  0  0
  2  3  1  0  0  0
  2 27  1  0  0  0
  3  6  2  0  0  0
  4  5  2  0  0  0
  5  6  1  0  0  0
  5  9  1  0  0  0
  6  7  1  0  0  0
  7  8  2  0  0  0
  8  9  1  0  0  0
  8 28  1  0  0  0
  9 15  1  0  0  0
 10 11  2  0  0  0
 10 14  1  0  0  0
 11 12  1  0  0  0
 11 29  1  0  0  0
 12 13  1  0  0  0
 12 26  1  0  0  0
 13 14  2  0  0  0
 14 30  1  0  0  0
 15 16  1  0  0  0
 15 31  1  0  0  0
 15 32  1  0  0  0
 16 17  2  0  0  0
 16 19  1  0  0  0
 17 18  1  0  0  0
 17 33  1  0  0  0
 18 21  2  0  0  0
 18 34  1  0  0  0
 19 20  2  0  0  0
 19 35  1  0  0  0
 20 21  1  0  0  0
 20 25  1  0  0  0
 21 22  1  0  0  0
 22 23  2  0  0  0
 23 24  1  0  0  0
 23 36  1  0  0  0
 24 25  2  0  0  0
 24 37  1  0  0  0
 25 38  1  0  0  0
 26 39  1  0  0  0
 26 40  1  0  0  0
 26 41  1  0  0  0
M  END
> <s_m_entry_id>
10568

> <s_m_entry_name>
dock_pv.637

> <s_m_Source_Path>
/home/csk/Desktop/cluster/DUD-E-result/met

> <s_m_Source_File>
dock_pv.maegz

> <i_m_Source_File_Index>
637

> <chembl_id>
CHEMBL3334553

> <chembl_pref_name>
None

> <i_lp_mmshare_version>
53161

> <i_f3d_flags>
0

> <r_lp_tautomer_probability>
1

> <s_lp_Force_Field>
OPLS_2005

> <r_lp_Energy>
22.652404

> <b_lp_Chiralities_Consistent>
1

> <s_lp_Variant>
CHEMBL3717_lig1854-1

> <s_i_glide_gridfile>
glide-grid_3lq8

> <i_i_glide_lignum>
2140

> <i_i_glide_rotatable_bonds>
3

> <r_i_docking_score>
-6.93126580256189

> <r_i_glide_ligand_efficiency>
-0.266587146252381

> <r_i_glide_ligand_efficiency_sa>
-0.78976337180291

> <r_i_glide_ligand_efficiency_ln>
-1.62778503039353

> <r_i_glide_gscore>
-6.93126580256189

> <r_i_glide_lipo>
-2.6220935216231

> <r_i_glide_hbond>
0

> <r_i_glide_metal>
0

> <r_i_glide_rewards>
-2.53650178242865

> <r_i_glide_evdw>
-40.4338340759277

> <r_i_glide_ecoul>
-1.59200060367584

> <r_i_glide_erotb>
0.487821295837617

> <r_i_glide_esite>
0

> <r_i_glide_emodel>
-56.0876952690528

> <r_i_glide_energy>
-42.0258346796036

> <r_i_glide_einternal>
2.96952939033508

> <i_i_glide_confnum>
7

> <i_i_glide_posenum>
108

> <r_i_glide_eff_state_penalty>
0

> <s_user_duplicate_titles>
CHEMBL3717_lig1854

> <s_m_subgroup_title>
dock_pv

> <s_m_subgroupid>
dock_pv

> <b_m_subgroup_collapsed>
1

$$$$
CHEMBL3717_lig1522
                    3D
 Schrodinger Suite 2021-1.
 44 48  0  0  1  0            999 V2000
   -4.2438    4.5735   30.6001 C   0  0  0  0  0  0
   -5.3380    5.4266   30.7994 C   0  0  0  0  0  0
   -6.6429    4.9363   30.6966 C   0  0  0  0  0  0
   -4.3978    3.2520   30.3145 N   0  0  0  0  0  0
   -5.6606    2.8105   30.2082 N   0  0  0  0  0  0
   -6.8164    3.5801   30.3893 C   0  0  0  0  0  0
   -7.9049    2.8033   30.2015 N   0  0  0  0  0  0
   -7.4335    1.5415   29.8709 N   0  0  0  0  0  0
   -6.1126    1.5490   29.8613 C   0  0  0  0  0  0
   -5.2348    0.3519   29.4647 C   0  0  2  0  0  0
   -4.9294   -0.6244   30.6207 C   0  0  0  0  0  0
   -3.6448   -1.1497   30.8233 C   0  0  0  0  0  0
   -3.3934   -2.1107   31.7997 C   0  0  0  0  0  0
   -5.9755   -1.0729   31.4365 C   0  0  0  0  0  0
   -2.8253    5.0521   30.6317 C   0  0  0  0  0  0
   -1.7754    4.1951   31.0097 C   0  0  0  0  0  0
   -0.4493    4.6230   30.9911 C   0  0  0  0  0  0
   -0.1426    5.9185   30.5817 C   0  0  0  0  0  0
   -1.1663    6.7871   30.2070 C   0  0  0  0  0  0
   -2.4922    6.3566   30.2390 C   0  0  0  0  0  0
    1.1405    6.3383   30.5498 F   0  0  0  0  0  0
   -5.7553   -2.0579   32.4310 C   0  0  0  0  0  0
   -4.4447   -2.5949   32.6079 C   0  0  0  0  0  0
   -4.1816   -3.5695   33.5265 N   0  0  0  0  0  0
   -5.2051   -4.0309   34.2836 C   0  0  0  0  0  0
   -6.5093   -3.5513   34.1903 C   0  0  0  0  0  0
   -6.7928   -2.5533   33.2597 C   0  0  0  0  0  0
    0.5361    3.7754   31.3667 F   0  0  0  0  0  0
   -4.0073    0.7865   28.6346 C   0  0  0  0  0  0
   -5.1874    6.4745   31.0068 H   0  0  0  0  0  0
   -7.4977    5.5869   30.8146 H   0  0  0  0  0  0
   -5.8277   -0.2555   28.7799 H   0  0  0  0  0  0
   -2.8122   -0.8422   30.2099 H   0  0  0  0  0  0
   -2.3996   -2.5178   31.9200 H   0  0  0  0  0  0
   -6.9782   -0.7005   31.2959 H   0  0  0  0  0  0
   -1.9843    3.1809   31.3210 H   0  0  0  0  0  0
   -0.9279    7.7927   29.8905 H   0  0  0  0  0  0
   -3.2660    7.0443   29.9350 H   0  0  0  0  0  0
   -4.9615   -4.8170   34.9841 H   0  0  0  0  0  0
   -7.2903   -3.9487   34.8202 H   0  0  0  0  0  0
   -7.7937   -2.1620   33.1581 H   0  0  0  0  0  0
   -3.2940    1.3170   29.2517 H   0  0  0  0  0  0
   -3.4773   -0.0572   28.2074 H   0  0  0  0  0  0
   -4.2829    1.4365   27.8080 H   0  0  0  0  0  0
  1  2  1  0  0  0
  1  4  2  0  0  0
  1 15  1  0  0  0
  2  3  2  0  0  0
  2 30  1  0  0  0
  3  6  1  0  0  0
  3 31  1  0  0  0
  4  5  1  0  0  0
  5  6  1  0  0  0
  5  9  1  0  0  0
  6  7  2  0  0  0
  7  8  1  0  0  0
  8  9  2  0  0  0
  9 10  1  0  0  0
 10 11  1  0  0  0
 10 29  1  0  0  0
 10 32  1  0  0  0
 11 12  2  0  0  0
 11 14  1  0  0  0
 12 13  1  0  0  0
 12 33  1  0  0  0
 13 23  2  0  0  0
 13 34  1  0  0  0
 14 22  2  0  0  0
 14 35  1  0  0  0
 15 16  2  0  0  0
 15 20  1  0  0  0
 16 17  1  0  0  0
 16 36  1  0  0  0
 17 18  2  0  0  0
 17 28  1  0  0  0
 18 19  1  0  0  0
 18 21  1  0  0  0
 19 20  2  0  0  0
 19 37  1  0  0  0
 20 38  1  0  0  0
 22 23  1  0  0  0
 22 27  1  0  0  0
 23 24  1  0  0  0
 24 25  2  0  0  0
 25 26  1  0  0  0
 25 39  1  0  0  0
 26 27  2  0  0  0
 26 40  1  0  0  0
 27 41  1  0  0  0
 29 42  1  0  0  0
 29 43  1  0  0  0
 29 44  1  0  0  0
M  END
> <s_m_entry_id>
10569

> <s_m_entry_name>
dock_pv.638

> <s_m_Source_Path>
/home/csk/Desktop/cluster/DUD-E-result/met

> <s_m_Source_File>
dock_pv.maegz

> <i_m_Source_File_Index>
638

> <chembl_id>
CHEMBL2431822

> <chembl_pref_name>
None

> <i_lp_mmshare_version>
53161

> <i_f3d_flags>
0

> <r_lp_tautomer_probability>
1

> <s_lp_Force_Field>
OPLS_2005

> <r_lp_Energy>
24.696777

> <b_lp_Chiralities_Consistent>
1

> <s_lp_Variant>
CHEMBL3717_lig1522-1

> <s_i_glide_gridfile>
glide-grid_3lq8

> <i_i_glide_lignum>
1748

> <i_i_glide_rotatable_bonds>
3

> <r_i_docking_score>
-6.93004886899915

> <r_i_glide_ligand_efficiency>
-0.238967202379281

> <r_i_glide_ligand_efficiency_sa>
-0.73418295583287

> <r_i_glide_ligand_efficiency_ln>
-1.58680546012396

> <r_i_glide_gscore>
-6.93004886899915

> <r_i_glide_lipo>
-2.76861977202502

> <r_i_glide_hbond>
0

> <r_i_glide_metal>
0

> <r_i_glide_rewards>
-2.75536563765003

> <r_i_glide_evdw>
-40.6454582214355

> <r_i_glide_ecoul>
1.57946586608887

> <r_i_glide_erotb>
0.389289571834342

> <r_i_glide_esite>
0

> <r_i_glide_emodel>
-51.9514997983472

> <r_i_glide_energy>
-39.0659923553467

> <r_i_glide_einternal>
6.53553295135498

> <i_i_glide_confnum>
11

> <i_i_glide_posenum>
400

> <r_i_glide_eff_state_penalty>
0

> <s_user_duplicate_titles>
CHEMBL3717_lig1522

> <s_m_subgroup_title>
dock_pv

> <s_m_subgroupid>
dock_pv

> <b_m_subgroup_collapsed>
1

$$$$
CHEMBL3717_lig4124
                    3D
 Schrodinger Suite 2021-1.
 40 43  0  0  1  0            999 V2000
   -6.5159    3.4051   30.6730 N   0  0  0  0  0  0
   -5.6445    5.3794   30.9431 N   0  0  0  0  0  0
   -6.8229    4.6618   31.0065 N   0  0  0  0  0  0
    0.7790    6.0218   30.5003 N   0  0  0  0  0  0
    1.3773    4.8613   30.8247 N   0  0  0  0  0  0
   -3.2298    5.0215   30.5864 C   0  0  0  0  0  0
   -4.6544    4.5656   30.6090 C   0  0  0  0  0  0
   -0.8665    4.5586   30.8074 C   0  0  0  0  0  0
   -0.5966    5.9090   30.4780 C   0  0  0  0  0  0
   -2.1970    4.1135   30.8600 C   0  0  0  0  0  0
   -5.1784    3.2953   30.3840 C   0  0  0  0  0  0
   -2.9258    6.3559   30.2951 C   0  0  0  0  0  0
   -1.6140    6.8290   30.2075 C   0  0  0  0  0  0
   -8.0946    1.9254   29.4080 C   0  0  0  0  0  0
   -7.5214    2.3509   30.7561 C   0  0  0  0  0  0
    0.4257    3.9845   31.0073 C   0  0  0  0  0  0
   -9.0760    2.6776   28.7347 C   0  0  0  0  0  0
   -7.5988    0.7575   28.8158 C   0  0  0  0  0  0
   -9.5212    2.2575   27.4779 C   0  0  0  0  0  0
   -8.9853    1.1222   26.8716 C   0  0  0  0  0  0
   -8.0312    0.3633   27.5516 C   0  0  0  0  0  0
   -9.6565    3.9599   29.3136 C   0  0  0  0  0  0
   -9.3779    0.7568   25.4548 C   0  0  0  0  0  0
    1.3319    6.8443   30.3096 H   0  0  0  0  0  0
   -2.4201    3.0849   31.1041 H   0  0  0  0  0  0
   -4.7279    2.3481   30.1286 H   0  0  0  0  0  0
   -3.7427    7.0413   30.1123 H   0  0  0  0  0  0
   -1.4025    7.8607   29.9590 H   0  0  0  0  0  0
   -8.3255    2.6696   31.4225 H   0  0  0  0  0  0
   -7.0707    1.5017   31.2701 H   0  0  0  0  0  0
    0.6611    2.9642   31.2683 H   0  0  0  0  0  0
   -6.8422    0.1674   29.3172 H   0  0  0  0  0  0
  -10.2529    2.8447   26.9441 H   0  0  0  0  0  0
   -7.5995   -0.5135   27.0920 H   0  0  0  0  0  0
   -9.9722    3.8181   30.3455 H   0  0  0  0  0  0
   -8.9124    4.7553   29.2911 H   0  0  0  0  0  0
  -10.5306    4.3018   28.7580 H   0  0  0  0  0  0
  -10.1209   -0.0401   25.4497 H   0  0  0  0  0  0
   -9.7735    1.6178   24.9127 H   0  0  0  0  0  0
   -8.4984    0.4216   24.9048 H   0  0  0  0  0  0
  1  3  1  0  0  0
  1 11  1  0  0  0
  1 15  1  0  0  0
  2  3  2  0  0  0
  2  7  1  0  0  0
  4  5  1  0  0  0
  4  9  1  0  0  0
  4 24  1  0  0  0
  5 16  2  0  0  0
  6  7  1  0  0  0
  6 10  1  0  0  0
  6 12  2  0  0  0
  7 11  2  0  0  0
  8  9  1  0  0  0
  8 10  2  0  0  0
  8 16  1  0  0  0
  9 13  2  0  0  0
 10 25  1  0  0  0
 11 26  1  0  0  0
 12 13  1  0  0  0
 12 27  1  0  0  0
 13 28  1  0  0  0
 14 15  1  0  0  0
 14 17  1  0  0  0
 14 18  2  0  0  0
 15 29  1  0  0  0
 15 30  1  0  0  0
 16 31  1  0  0  0
 17 19  2  0  0  0
 17 22  1  0  0  0
 18 21  1  0  0  0
 18 32  1  0  0  0
 19 20  1  0  0  0
 19 33  1  0  0  0
 20 21  2  0  0  0
 20 23  1  0  0  0
 21 34  1  0  0  0
 22 35  1  0  0  0
 22 36  1  0  0  0
 22 37  1  0  0  0
 23 38  1  0  0  0
 23 39  1  0  0  0
 23 40  1  0  0  0
M  END
> <s_m_entry_id>
10570

> <s_m_entry_name>
dock_pv.639

> <s_m_Source_Path>
/home/csk/Desktop/cluster/DUD-E-result/met

> <s_m_Source_File>
dock_pv.maegz

> <i_m_Source_File_Index>
639

> <chembl_id>
CHEMBL1984432

> <chembl_pref_name>
None

> <i_lp_mmshare_version>
53161

> <i_f3d_flags>
0

> <r_lp_tautomer_probability>
0.980392156862745

> <s_lp_Force_Field>
OPLS_2005

> <r_lp_Energy>
13.070026

> <b_lp_Chiralities_Consistent>
1

> <s_lp_Variant>
CHEMBL3717_lig4124-1

> <s_i_glide_gridfile>
glide-grid_3lq8

> <i_i_glide_lignum>
5274

> <i_i_glide_rotatable_bonds>
3

> <r_i_docking_score>
-6.92993962215923

> <r_i_glide_ligand_efficiency>
-0.301301722702575

> <r_i_glide_ligand_efficiency_sa>
-0.856862019270684

> <r_i_glide_ligand_efficiency_ln>
-1.67572223785646

> <r_i_glide_gscore>
-6.92993962215923

> <r_i_glide_lipo>
-3.51077478516724

> <r_i_glide_hbond>
0

> <r_i_glide_metal>
0

> <r_i_glide_rewards>
-2.11122508728937

> <r_i_glide_evdw>
-37.7972412109375

> <r_i_glide_ecoul>
-0.124961949884892

> <r_i_glide_erotb>
0.600666603326994

> <r_i_glide_esite>
0

> <r_i_glide_emodel>
-54.0135129066831

> <r_i_glide_energy>
-37.9222031608224

> <r_i_glide_einternal>
0.607584297657013

> <i_i_glide_confnum>
7

> <i_i_glide_posenum>
127

> <r_i_glide_eff_state_penalty>
0

> <s_user_duplicate_titles>
CHEMBL3717_lig4124

> <s_m_subgroup_title>
dock_pv

> <s_m_subgroupid>
dock_pv

> <b_m_subgroup_collapsed>
1

$$$$
CHEMBL3717_lig1552
                    3D
 Schrodinger Suite 2021-1.
 52 55  0  0  1  0            999 V2000
   -6.0398    3.1003   30.2843 C   0  0  0  0  0  0
   -8.2543    4.0763   30.6374 N   0  0  0  0  0  0
   -6.3641    5.3827   31.0013 N   0  0  0  0  0  0
   -2.9787   -1.8291   30.6093 C   0  0  0  0  0  0
   -2.6542    4.7569   30.6121 C   0  0  0  0  0  0
   -7.3165   -1.7583   29.3418 Cl  0  0  0  0  0  0
    3.7088    4.1641   30.0568 N   0  0  1  0  0  0
   -3.5039   -2.7847   29.7546 C   0  0  0  0  0  0
   -0.4671    4.4295   30.6610 N   0  0  0  0  0  0
   -5.6659   -1.7183   29.8669 C   0  0  0  0  0  0
    3.2613    3.9458   31.4325 C   0  0  0  0  0  0
    0.8557    3.7976   30.6178 C   0  0  0  0  0  0
   -5.1472   -0.7152   30.7190 C   0  0  0  0  0  0
   -0.6181    5.7642   30.6066 N   0  0  0  0  0  0
   -3.0351    0.3567   32.1516 Cl  0  0  0  0  0  0
   -4.6599    3.3012   30.2501 C   0  0  0  0  0  0
   -5.0190    5.5570   30.9663 C   0  0  0  0  0  0
   -6.6778    1.4903   29.9197 S   0  0  0  0  0  0
   -1.6825   -1.9281   30.9819 F   0  0  0  0  0  0
   -1.6722    3.7827   30.6643 C   0  0  0  0  0  0
    1.4161    3.9042   29.1804 C   0  0  0  0  0  0
   -7.1495   -0.0929   32.2068 C   0  0  0  0  0  0
   -4.8455   -2.7444   29.4080 C   0  0  0  0  0  0
    2.8813    3.4301   29.1000 C   0  0  0  0  0  0
    1.8226    4.4678   31.6179 C   0  0  0  0  0  0
   -6.0516    0.4145   31.2567 C   0  0  1  0  0  0
   -4.1244    4.5466   30.6005 C   0  0  0  0  0  0
   -1.9173    5.9538   30.6065 C   0  0  0  0  0  0
   -3.7831   -0.7922   31.0895 C   0  0  0  0  0  0
   -6.8660    4.1781   30.6404 C   0  0  0  0  0  0
   -8.6568    3.2237   30.2724 H   0  0  0  0  0  0
   -8.7894    4.9310   30.6918 H   0  0  0  0  0  0
    3.6111    5.1505   29.8525 H   0  0  0  0  0  0
   -2.8823   -3.5940   29.3951 H   0  0  0  0  0  0
    3.3254    2.8831   31.6797 H   0  0  0  0  0  0
    3.9359    4.4723   32.1067 H   0  0  0  0  0  0
    0.6902    2.7595   30.8890 H   0  0  0  0  0  0
   -4.0112    2.4836   29.9722 H   0  0  0  0  0  0
   -4.6617    6.5360   31.2558 H   0  0  0  0  0  0
   -1.7236    2.7048   30.6879 H   0  0  0  0  0  0
    0.8429    3.2220   28.5513 H   0  0  0  0  0  0
    1.2628    4.8819   28.7181 H   0  0  0  0  0  0
   -6.7445   -0.7794   32.9509 H   0  0  0  0  0  0
   -7.6081    0.7384   32.7422 H   0  0  0  0  0  0
   -7.9500   -0.6134   31.6859 H   0  0  0  0  0  0
   -5.2445   -3.5100   28.7636 H   0  0  0  0  0  0
    2.9487    2.3574   29.2913 H   0  0  0  0  0  0
    3.2745    3.6043   28.0984 H   0  0  0  0  0  0
    1.7723    5.5569   31.6279 H   0  0  0  0  0  0
    1.5184    4.1738   32.6242 H   0  0  0  0  0  0
   -5.4572    1.0775   31.8755 H   0  0  0  0  0  0
   -2.3298    6.9487   30.5774 H   0  0  0  0  0  0
  1 16  2  0  0  0
  1 18  1  0  0  0
  1 30  1  0  0  0
  2 30  1  0  0  0
  2 31  1  0  0  0
  2 32  1  0  0  0
  3 30  2  0  0  0
  3 17  1  0  0  0
  4  8  1  0  0  0
  4 29  2  0  0  0
  4 19  1  0  0  0
  5 27  1  0  0  0
  5 20  2  0  0  0
  5 28  1  0  0  0
  6 10  1  0  0  0
  7 24  1  0  0  0
  7 11  1  0  0  0
  7 33  1  0  0  0
  8 23  2  0  0  0
  8 34  1  0  0  0
  9 20  1  0  0  0
  9 14  1  0  0  0
  9 12  1  0  0  0
 10 13  2  0  0  0
 10 23  1  0  0  0
 11 25  1  0  0  0
 11 35  1  0  0  0
 11 36  1  0  0  0
 12 21  1  0  0  0
 12 25  1  0  0  0
 12 37  1  0  0  0
 13 29  1  0  0  0
 13 26  1  0  0  0
 14 28  2  0  0  0
 15 29  1  0  0  0
 16 27  1  0  0  0
 16 38  1  0  0  0
 17 27  2  0  0  0
 17 39  1  0  0  0
 18 26  1  0  0  0
 20 40  1  0  0  0
 21 24  1  0  0  0
 21 41  1  0  0  0
 21 42  1  0  0  0
 22 26  1  0  0  0
 22 43  1  0  0  0
 22 44  1  0  0  0
 22 45  1  0  0  0
 23 46  1  0  0  0
 24 47  1  0  0  0
 24 48  1  0  0  0
 25 49  1  0  0  0
 25 50  1  0  0  0
 26 51  1  0  0  0
 28 52  1  0  0  0
M  END
> <s_m_entry_id>
10571

> <s_m_entry_name>
dock_pv.640

> <s_m_Source_Path>
/home/csk/Desktop/cluster/DUD-E-result/met

> <s_m_Source_File>
dock_pv.maegz

> <i_m_Source_File_Index>
640

> <chembl_id>
CHEMBL2442112

> <chembl_pref_name>
None

> <i_lp_mmshare_version>
53161

> <i_f3d_flags>
0

> <r_lp_tautomer_probability>
0.999999772200052

> <s_lp_Force_Field>
OPLS_2005

> <r_lp_Energy>
24.987403

> <b_lp_Chiralities_Consistent>
1

> <s_lp_Variant>
CHEMBL3717_lig1552-1

> <s_i_glide_gridfile>
glide-grid_3lq8

> <i_i_glide_lignum>
1779

> <i_i_glide_rotatable_bonds>
5

> <r_i_docking_score>
-6.92702656688164

> <r_i_glide_ligand_efficiency>
-0.230900885562721

> <r_i_glide_ligand_efficiency_sa>
-0.717462736460609

> <r_i_glide_ligand_efficiency_ln>
-1.57389591199511

> <r_i_glide_gscore>
-6.92702656688164

> <r_i_glide_lipo>
-3.78177983077887

> <r_i_glide_hbond>
0

> <r_i_glide_metal>
0

> <r_i_glide_rewards>
-1.20533905889494

> <r_i_glide_evdw>
-44.6247787475586

> <r_i_glide_ecoul>
-1.14921498298645

> <r_i_glide_erotb>
0.463713507618077

> <r_i_glide_esite>
0

> <r_i_glide_emodel>
-62.5422912615142

> <r_i_glide_energy>
-45.773993730545

> <r_i_glide_einternal>
5.00597858428955

> <i_i_glide_confnum>
52

> <i_i_glide_posenum>
113

> <r_i_glide_eff_state_penalty>
0

> <s_user_duplicate_titles>
CHEMBL3717_lig1552,CHEMBL3717_lig1578

> <s_m_subgroup_title>
dock_pv

> <s_m_subgroupid>
dock_pv

> <b_m_subgroup_collapsed>
1

$$$$
CHEMBL3717_lig602
                    3D
 Schrodinger Suite 2021-1.
 50 54  0  0  1  0            999 V2000
   -5.9247    5.2045   30.6094 N   0  0  0  0  0  0
   -4.6600    5.6795   30.6583 C   0  0  0  0  0  0
   -3.5368    4.8583   30.6126 C   0  0  0  0  0  0
   -3.7521    3.4793   30.5263 C   0  0  0  0  0  0
   -5.0509    2.9520   30.4309 C   0  0  0  0  0  0
   -6.1266    3.8673   30.4741 C   0  0  0  0  0  0
   -5.1866    1.4617   30.2696 C   0  0  0  0  0  0
   -6.4414    0.9127   30.2777 O   0  0  0  0  0  0
   -4.2006    0.5963   30.1107 N   0  0  0  0  0  0
   -2.1633    5.4333   30.6081 C   0  0  0  0  0  0
   -4.8354   -0.6088   29.9932 C   0  0  0  0  0  0
   -6.2212   -0.4147   30.0972 C   0  0  0  0  0  0
   -7.1566   -1.4501   30.0173 C   0  0  0  0  0  0
   -6.6396   -2.7310   29.8079 C   0  0  0  0  0  0
   -5.2619   -2.9512   29.6894 C   0  0  0  0  0  0
   -4.3368   -1.9049   29.7946 C   0  0  0  0  0  0
   -0.9566    4.8027   30.8747 C   0  0  0  0  0  0
    0.0397    5.7105   30.6047 N   0  0  0  0  0  0
   -0.4671    6.8750   30.1768 N   0  0  0  0  0  0
   -1.7659    6.7178   30.2082 C   0  0  0  0  0  0
    1.4752    5.4768   30.3999 C   0  0  0  0  0  0
   -7.4556    3.4259   30.3527 N   0  0  0  0  0  0
   -8.5505    4.3404   30.0427 C   0  0  0  0  0  0
    2.1683    4.5736   31.4402 C   0  0  0  0  0  0
    2.0101    3.0661   31.1648 C   0  0  0  0  0  0
    2.3182    2.7569   29.7680 N   0  0  2  0  0  0
    1.5017    3.4806   28.8007 C   0  0  0  0  0  0
    1.7744    4.9758   28.9715 C   0  0  0  0  0  0
   -4.5646    6.7529   30.7228 H   0  0  0  0  0  0
   -2.8992    2.8167   30.4921 H   0  0  0  0  0  0
   -8.2164   -1.2655   30.1024 H   0  0  0  0  0  0
   -7.3148   -3.5702   29.7217 H   0  0  0  0  0  0
   -4.9065   -3.9544   29.4953 H   0  0  0  0  0  0
   -3.2771   -2.0894   29.6944 H   0  0  0  0  0  0
   -0.7356    3.7850   31.1471 H   0  0  0  0  0  0
   -2.4155    7.5172   29.8967 H   0  0  0  0  0  0
    1.9059    6.4726   30.4985 H   0  0  0  0  0  0
   -7.5861    2.4390   30.1696 H   0  0  0  0  0  0
   -9.5005    3.8067   30.0518 H   0  0  0  0  0  0
   -8.6123    5.1481   30.7739 H   0  0  0  0  0  0
   -8.4193    4.7813   29.0531 H   0  0  0  0  0  0
    3.2333    4.8092   31.4563 H   0  0  0  0  0  0
    1.8482    4.8306   32.4506 H   0  0  0  0  0  0
    2.7023    2.5049   31.7948 H   0  0  0  0  0  0
    1.0123    2.7091   31.4077 H   0  0  0  0  0  0
    2.1796    1.7644   29.6132 H   0  0  0  0  0  0
    1.7531    3.1527   27.7905 H   0  0  0  0  0  0
    0.4490    3.2472   28.9673 H   0  0  0  0  0  0
    1.2198    5.5582   28.2360 H   0  0  0  0  0  0
    2.8175    5.1587   28.7178 H   0  0  0  0  0  0
  1  2  2  0  0  0
  1  6  1  0  0  0
  2  3  1  0  0  0
  2 29  1  0  0  0
  3  4  2  0  0  0
  3 10  1  0  0  0
  4  5  1  0  0  0
  4 30  1  0  0  0
  5  7  1  0  0  0
  5  6  2  0  0  0
  6 22  1  0  0  0
  7  8  1  0  0  0
  7  9  2  0  0  0
  8 12  1  0  0  0
  9 11  1  0  0  0
 10 17  2  0  0  0
 10 20  1  0  0  0
 11 16  1  0  0  0
 11 12  2  0  0  0
 12 13  1  0  0  0
 13 14  2  0  0  0
 13 31  1  0  0  0
 14 15  1  0  0  0
 14 32  1  0  0  0
 15 16  2  0  0  0
 15 33  1  0  0  0
 16 34  1  0  0  0
 17 18  1  0  0  0
 17 35  1  0  0  0
 18 19  1  0  0  0
 18 21  1  0  0  0
 19 20  2  0  0  0
 20 36  1  0  0  0
 21 24  1  0  0  0
 21 28  1  0  0  0
 21 37  1  0  0  0
 22 23  1  0  0  0
 22 38  1  0  0  0
 23 39  1  0  0  0
 23 40  1  0  0  0
 23 41  1  0  0  0
 24 25  1  0  0  0
 24 42  1  0  0  0
 24 43  1  0  0  0
 25 26  1  0  0  0
 25 44  1  0  0  0
 25 45  1  0  0  0
 26 27  1  0  0  0
 26 46  1  0  0  0
 27 28  1  0  0  0
 27 47  1  0  0  0
 27 48  1  0  0  0
 28 49  1  0  0  0
 28 50  1  0  0  0
M  END
> <s_m_entry_id>
10572

> <s_m_entry_name>
dock_pv.641

> <s_m_Source_Path>
/home/csk/Desktop/cluster/DUD-E-result/met

> <s_m_Source_File>
dock_pv.maegz

> <i_m_Source_File_Index>
641

> <chembl_id>
CHEMBL1172707

> <chembl_pref_name>
None

> <i_lp_mmshare_version>
53161

> <i_f3d_flags>
0

> <r_lp_tautomer_probability>
0.999999772200052

> <s_lp_Force_Field>
OPLS_2005

> <r_lp_Energy>
30.572674

> <b_lp_Chiralities_Consistent>
1

> <s_lp_Variant>
CHEMBL3717_lig602-1

> <s_i_glide_gridfile>
glide-grid_3lq8

> <i_i_glide_lignum>
656

> <i_i_glide_rotatable_bonds>
4

> <r_i_docking_score>
-6.92678872848627

> <r_i_glide_ligand_efficiency>
-0.247385311731653

> <r_i_glide_ligand_efficiency_sa>
-0.751207508573967

> <r_i_glide_ligand_efficiency_ln>
-1.59890621788908

> <r_i_glide_gscore>
-6.92678872848627

> <r_i_glide_lipo>
-3.50121975372035

> <r_i_glide_hbond>
0

> <r_i_glide_metal>
0

> <r_i_glide_rewards>
-1.63464602694874

> <r_i_glide_evdw>
-42.7275619506836

> <r_i_glide_ecoul>
-0.455222249031067

> <r_i_glide_erotb>
0.41373848707166

> <r_i_glide_esite>
0

> <r_i_glide_emodel>
-54.7451579486765

> <r_i_glide_energy>
-43.1827841997147

> <r_i_glide_einternal>
5.59660339355469

> <i_i_glide_confnum>
4

> <i_i_glide_posenum>
7

> <r_i_glide_eff_state_penalty>
0

> <s_user_duplicate_titles>
CHEMBL3717_lig602

> <s_m_subgroup_title>
dock_pv

> <s_m_subgroupid>
dock_pv

> <b_m_subgroup_collapsed>
1

$$$$
CHEMBL3717_lig1064
                    3D
 Schrodinger Suite 2021-1.
 40 42  0  0  1  0            999 V2000
   -7.0168   -0.5601   31.8155 C   0  0  0  0  0  0
   -6.3987   -1.6437   32.4306 C   0  0  0  0  0  0
   -5.0152   -1.7720   32.3864 C   0  0  0  0  0  0
   -4.2382   -0.8263   31.7083 C   0  0  0  0  0  0
   -4.8561    0.2716   31.0618 C   0  0  0  0  0  0
   -6.2617    0.3977   31.1398 C   0  0  0  0  0  0
   -7.1257    1.7154   30.4153 Cl  0  0  0  0  0  0
   -4.4317   -2.8229   33.0079 F   0  0  0  0  0  0
   -2.5175   -1.0640   31.6968 Cl  0  0  0  0  0  0
   -4.0196    1.2718   30.2433 C   0  0  2  0  0  0
   -4.3361    2.6214   30.6073 O   0  0  0  0  0  0
   -4.2475    1.0729   28.7366 C   0  0  0  0  0  0
   -3.3781    3.6317   30.6066 C   0  0  0  0  0  0
   -3.8136    4.9679   30.6081 C   0  0  0  0  0  0
   -2.9647    6.0268   30.6075 N   0  0  0  0  0  0
   -1.6300    5.7786   30.6084 C   0  0  0  0  0  0
   -1.0920    4.4886   30.6081 C   0  0  0  0  0  0
   -1.9903    3.4181   30.6094 C   0  0  0  0  0  0
   -5.1723    5.2690   30.6077 N   0  0  0  0  0  0
    0.3712    4.2422   30.5835 C   0  0  0  0  0  0
    0.9489    3.5576   29.5063 C   0  0  0  0  0  0
    2.3138    3.2815   29.4923 C   0  0  0  0  0  0
    3.1071    3.6814   30.5651 C   0  0  0  0  0  0
    2.5444    4.3569   31.6442 C   0  0  0  0  0  0
    1.1808    4.6515   31.6459 C   0  0  0  0  0  0
   -8.0914   -0.4645   31.8665 H   0  0  0  0  0  0
   -6.9895   -2.3822   32.9547 H   0  0  0  0  0  0
   -2.9769    1.0605   30.4227 H   0  0  0  0  0  0
   -3.9184    0.0783   28.4321 H   0  0  0  0  0  0
   -5.2957    1.1678   28.4559 H   0  0  0  0  0  0
   -3.6940    1.7908   28.1385 H   0  0  0  0  0  0
   -0.9852    6.6459   30.6028 H   0  0  0  0  0  0
   -1.5652    2.4314   30.6218 H   0  0  0  0  0  0
   -5.8205    4.4977   30.5318 H   0  0  0  0  0  0
   -5.4635    6.2129   30.3931 H   0  0  0  0  0  0
    0.3351    3.2284   28.6791 H   0  0  0  0  0  0
    2.7498    2.7496   28.6597 H   0  0  0  0  0  0
    4.1653    3.4630   30.5562 H   0  0  0  0  0  0
    3.1635    4.6610   32.4754 H   0  0  0  0  0  0
    0.7515    5.1755   32.4889 H   0  0  0  0  0  0
  1  6  1  0  0  0
  1  2  2  0  0  0
  1 26  1  0  0  0
  2  3  1  0  0  0
  2 27  1  0  0  0
  3  4  2  0  0  0
  3  8  1  0  0  0
  4  9  1  0  0  0
  4  5  1  0  0  0
  5 10  1  0  0  0
  5  6  2  0  0  0
  6  7  1  0  0  0
 10 11  1  0  0  0
 10 12  1  0  0  0
 10 28  1  0  0  0
 11 13  1  0  0  0
 12 29  1  0  0  0
 12 30  1  0  0  0
 12 31  1  0  0  0
 13 14  2  0  0  0
 13 18  1  0  0  0
 14 15  1  0  0  0
 14 19  1  0  0  0
 15 16  2  0  0  0
 16 17  1  0  0  0
 16 32  1  0  0  0
 17 18  2  0  0  0
 17 20  1  0  0  0
 18 33  1  0  0  0
 19 34  1  0  0  0
 19 35  1  0  0  0
 20 21  2  0  0  0
 20 25  1  0  0  0
 21 22  1  0  0  0
 21 36  1  0  0  0
 22 23  2  0  0  0
 22 37  1  0  0  0
 23 24  1  0  0  0
 23 38  1  0  0  0
 24 25  2  0  0  0
 24 39  1  0  0  0
 25 40  1  0  0  0
M  END
> <s_m_entry_id>
10573

> <s_m_entry_name>
dock_pv.642

> <s_m_Source_Path>
/home/csk/Desktop/cluster/DUD-E-result/met

> <s_m_Source_File>
dock_pv.maegz

> <i_m_Source_File_Index>
642

> <chembl_id>
CHEMBL1824883

> <chembl_pref_name>
None

> <i_lp_mmshare_version>
53161

> <i_f3d_flags>
0

> <r_lp_tautomer_probability>
0.999999404453161

> <s_lp_Force_Field>
OPLS_2005

> <r_lp_Energy>
21.001869

> <b_lp_Chiralities_Consistent>
1

> <s_lp_Variant>
CHEMBL3717_lig1064-1

> <s_i_glide_gridfile>
glide-grid_3lq8

> <i_i_glide_lignum>
1191

> <i_i_glide_rotatable_bonds>
4

> <r_i_docking_score>
-6.92667229875766

> <r_i_glide_ligand_efficiency>
-0.277066891950307

> <r_i_glide_ligand_efficiency_sa>
-0.810148505864948

> <r_i_glide_ligand_efficiency_ln>
-1.64182891042404

> <r_i_glide_gscore>
-6.92667229875766

> <r_i_glide_lipo>
-3.48469140956346

> <r_i_glide_hbond>
-0.0533428338350047

> <r_i_glide_metal>
0

> <r_i_glide_rewards>
-1.67034013106061

> <r_i_glide_evdw>
-37.6126251220703

> <r_i_glide_ecoul>
-2.33778429031372

> <r_i_glide_erotb>
0.544344146965546

> <r_i_glide_esite>
-0.0313431716135645

> <r_i_glide_emodel>
-53.2002040136026

> <r_i_glide_energy>
-39.950409412384

> <r_i_glide_einternal>
5.85926580429077

> <i_i_glide_confnum>
1

> <i_i_glide_posenum>
188

> <r_i_glide_eff_state_penalty>
0

> <s_user_duplicate_titles>
CHEMBL3717_lig1064

> <s_m_subgroup_title>
dock_pv

> <s_m_subgroupid>
dock_pv

> <b_m_subgroup_collapsed>
1

$$$$
CHEMBL3717_lig1602
                    3D
 Schrodinger Suite 2021-1.
 22 23  0  0  1  0            999 V2000
   -6.6405    3.1637   30.2098 C   0  0  0  0  0  0
   -5.8580    1.9986   30.2792 C   0  0  0  0  0  0
   -4.4684    2.0878   30.4736 C   0  0  0  0  0  0
   -6.0293    4.4185   30.3048 C   0  0  0  0  0  0
   -4.6455    4.5044   30.4850 C   0  0  0  0  0  0
   -3.8816    3.3553   30.5807 C   0  0  0  0  0  0
   -2.4585    3.7747   30.8123 C   0  0  0  0  0  0
   -2.4872    5.1904   30.8085 O   0  0  0  0  0  0
   -3.7351    5.6656   30.6263 C   0  0  0  0  0  0
   -6.7965    5.5556   30.2124 O   0  0  0  0  0  0
   -8.0027    3.0987   30.0214 O   0  0  0  0  0  0
   -6.4490    0.7654   30.1549 O   0  0  0  0  0  0
   -3.6276    0.8217   30.5885 C   0  0  0  0  0  0
   -3.9754    6.8696   30.6051 O   0  0  0  0  0  0
   -2.0831    3.4197   31.7721 H   0  0  0  0  0  0
   -1.7809    3.4105   30.0417 H   0  0  0  0  0  0
   -6.3556    6.2797   29.7425 H   0  0  0  0  0  0
   -8.4008    3.9750   29.9751 H   0  0  0  0  0  0
   -5.8173    0.0424   30.1946 H   0  0  0  0  0  0
   -2.5773    1.0336   30.7913 H   0  0  0  0  0  0
   -3.9972    0.1957   31.4018 H   0  0  0  0  0  0
   -3.6878    0.2351   29.6701 H   0  0  0  0  0  0
  1  2  2  0  0  0
  1  4  1  0  0  0
  1 11  1  0  0  0
  2  3  1  0  0  0
  2 12  1  0  0  0
  3  6  2  0  0  0
  3 13  1  0  0  0
  4  5  2  0  0  0
  4 10  1  0  0  0
  5  6  1  0  0  0
  5  9  1  0  0  0
  6  7  1  0  0  0
  7  8  1  0  0  0
  7 15  1  0  0  0
  7 16  1  0  0  0
  8  9  1  0  0  0
  9 14  2  0  0  0
 10 17  1  0  0  0
 11 18  1  0  0  0
 12 19  1  0  0  0
 13 20  1  0  0  0
 13 21  1  0  0  0
 13 22  1  0  0  0
M  END
> <s_m_entry_id>
10575

> <s_m_entry_name>
dock_pv.644

> <s_m_Source_Path>
/home/csk/Desktop/cluster/DUD-E-result/met

> <s_m_Source_File>
dock_pv.maegz

> <i_m_Source_File_Index>
644

> <chembl_id>
CHEMBL3104854

> <chembl_pref_name>
None

> <i_lp_mmshare_version>
53161

> <i_f3d_flags>
0

> <r_lp_tautomer_probability>
1

> <s_lp_Force_Field>
OPLS_2005

> <r_lp_Energy>
20.284178

> <b_lp_Chiralities_Consistent>
1

> <s_lp_Variant>
CHEMBL3717_lig1602-1

> <s_i_glide_gridfile>
glide-grid_3lq8

> <i_i_glide_lignum>
1855

> <i_i_glide_rotatable_bonds>
3

> <r_i_docking_score>
-6.92383727339154

> <r_i_glide_ligand_efficiency>
-0.494559805242253

> <r_i_glide_ligand_efficiency_sa>
-1.19195948772807

> <r_i_glide_ligand_efficiency_ln>
-1.90264583551465

> <r_i_glide_gscore>
-6.92383727339154

> <r_i_glide_lipo>
-1.39959108947623

> <r_i_glide_hbond>
-0.304

> <r_i_glide_metal>
0

> <r_i_glide_rewards>
-3.20701431040304

> <r_i_glide_evdw>
-19.9032363891602

> <r_i_glide_ecoul>
-6.78713369369507

> <r_i_glide_erotb>
0

> <r_i_glide_esite>
0

> <r_i_glide_emodel>
-36.9105699603522

> <r_i_glide_energy>
-26.6903700828552

> <r_i_glide_einternal>
1.91506028175354

> <i_i_glide_confnum>
1

> <i_i_glide_posenum>
269

> <r_i_glide_eff_state_penalty>
0

> <s_user_duplicate_titles>
CHEMBL3717_lig1602

> <s_m_subgroup_title>
dock_pv

> <s_m_subgroupid>
dock_pv

> <b_m_subgroup_collapsed>
1

$$$$
CHEMBL3717_lig673
                    3D
 Schrodinger Suite 2021-1.
 54 57  0  0  1  0            999 V2000
   -5.5299    2.8364   30.4091 C   0  0  0  0  0  0
   -6.0647    4.1206   30.5058 C   0  0  0  0  0  0
   -5.2058    5.2212   30.6051 C   0  0  0  0  0  0
   -4.1557    2.6116   30.4538 C   0  0  0  0  0  0
   -3.2692    3.7184   30.6069 C   0  0  0  0  0  0
   -3.7998    5.0441   30.6195 C   0  0  0  0  0  0
   -2.9912    6.1435   30.6157 N   0  0  0  0  0  0
   -1.6441    5.9576   30.6077 C   0  0  0  0  0  0
   -1.0246    4.7033   30.6550 C   0  0  0  0  0  0
   -1.8588    3.5822   30.6475 C   0  0  0  0  0  0
    0.3563    4.5380   30.6907 N   0  0  0  0  0  0
    1.3436    5.5115   30.1948 C   0  0  0  0  0  0
    2.6463    4.8341   29.6806 C   0  0  0  0  0  0
    3.2483    3.9780   30.7012 N   0  0  0  0  0  0
    2.2786    2.9301   31.0041 C   0  0  0  0  0  0
    0.9881    3.5493   31.5781 C   0  0  0  0  0  0
   -3.6950    1.3124   30.2065 N   0  0  0  0  0  0
   -7.5824    4.2947   30.4360 C   0  0  0  0  0  0
   -8.0926    3.5472   29.4552 F   0  0  0  0  0  0
   -8.1190    3.9091   31.5953 F   0  0  0  0  0  0
   -7.9285    5.5573   30.2084 F   0  0  0  0  0  0
   -3.7181    0.3777   31.3207 C   0  0  0  0  0  0
   -4.3127   -0.9290   30.8217 C   0  0  0  0  0  0
   -3.6628   -1.6732   29.8279 C   0  0  0  0  0  0
   -4.2407   -2.8413   29.3059 C   0  0  0  0  0  0
   -5.4822   -3.2557   29.8119 C   0  0  0  0  0  0
   -6.1225   -2.5332   30.8199 C   0  0  0  0  0  0
   -5.5415   -1.3691   31.3197 C   0  0  0  0  0  0
    4.4836    3.3867   30.1941 C   0  0  0  0  0  0
   -3.5589   -3.6173   28.2367 N   0  3  0  0  0  0
   -2.4910   -3.1947   27.8068 O   0  0  0  0  0  0
   -4.0931   -4.6373   27.8083 O   0  5  0  0  0  0
   -6.1962    1.9927   30.2857 H   0  0  0  0  0  0
   -5.6050    6.2257   30.6203 H   0  0  0  0  0  0
   -1.0511    6.8600   30.6075 H   0  0  0  0  0  0
   -1.4417    2.5885   30.6138 H   0  0  0  0  0  0
    0.9081    6.1139   29.3981 H   0  0  0  0  0  0
    1.5871    6.1987   31.0074 H   0  0  0  0  0  0
    2.4358    4.2668   28.7703 H   0  0  0  0  0  0
    3.3830    5.5807   29.4078 H   0  0  0  0  0  0
    2.7015    2.2292   31.7267 H   0  0  0  0  0  0
    2.0418    2.3559   30.1049 H   0  0  0  0  0  0
    1.2096    4.0343   32.5289 H   0  0  0  0  0  0
    0.2911    2.7491   31.8078 H   0  0  0  0  0  0
   -4.2102    0.8879   29.4466 H   0  0  0  0  0  0
   -4.2897    0.7527   32.1692 H   0  0  0  0  0  0
   -2.6954    0.1981   31.6566 H   0  0  0  0  0  0
   -2.7111   -1.3259   29.4499 H   0  0  0  0  0  0
   -5.9492   -4.1573   29.4406 H   0  0  0  0  0  0
   -7.0710   -2.8725   31.2081 H   0  0  0  0  0  0
   -6.0535   -0.8065   32.0894 H   0  0  0  0  0  0
    4.9177    2.7108   30.9278 H   0  0  0  0  0  0
    4.3205    2.8277   29.2737 H   0  0  0  0  0  0
    5.2247    4.1622   29.9872 H   0  0  0  0  0  0
  1  2  2  0  0  0
  1  4  1  0  0  0
  1 33  1  0  0  0
  2  3  1  0  0  0
  2 18  1  0  0  0
  3  6  2  0  0  0
  3 34  1  0  0  0
  4  5  2  0  0  0
  4 17  1  0  0  0
  5  6  1  0  0  0
  5 10  1  0  0  0
  6  7  1  0  0  0
  7  8  2  0  0  0
  8  9  1  0  0  0
  8 35  1  0  0  0
  9 10  2  0  0  0
  9 11  1  0  0  0
 10 36  1  0  0  0
 11 12  1  0  0  0
 11 16  1  0  0  0
 12 13  1  0  0  0
 12 37  1  0  0  0
 12 38  1  0  0  0
 13 14  1  0  0  0
 13 39  1  0  0  0
 13 40  1  0  0  0
 14 15  1  0  0  0
 14 29  1  0  0  0
 15 16  1  0  0  0
 15 41  1  0  0  0
 15 42  1  0  0  0
 16 43  1  0  0  0
 16 44  1  0  0  0
 17 22  1  0  0  0
 17 45  1  0  0  0
 18 19  1  0  0  0
 18 20  1  0  0  0
 18 21  1  0  0  0
 22 23  1  0  0  0
 22 46  1  0  0  0
 22 47  1  0  0  0
 23 24  2  0  0  0
 23 28  1  0  0  0
 24 25  1  0  0  0
 24 48  1  0  0  0
 25 26  2  0  0  0
 25 30  1  0  0  0
 26 27  1  0  0  0
 26 49  1  0  0  0
 27 28  2  0  0  0
 27 50  1  0  0  0
 28 51  1  0  0  0
 29 52  1  0  0  0
 29 53  1  0  0  0
 29 54  1  0  0  0
 30 31  2  0  0  0
 30 32  1  0  0  0
M  CHG  2  30   1  32  -1
M  END
> <s_m_entry_id>
10576

> <s_m_entry_name>
dock_pv.645

> <s_m_Source_Path>
/home/csk/Desktop/cluster/DUD-E-result/met

> <s_m_Source_File>
dock_pv.maegz

> <i_m_Source_File_Index>
645

> <chembl_id>
CHEMBL1766528

> <chembl_pref_name>
None

> <i_lp_mmshare_version>
53161

> <i_f3d_flags>
0

> <r_lp_tautomer_probability>
1

> <s_lp_Force_Field>
OPLS_2005

> <r_lp_Energy>
48.919147

> <b_lp_Chiralities_Consistent>
1

> <s_lp_Variant>
CHEMBL3717_lig673-1

> <s_i_glide_gridfile>
glide-grid_3lq8

> <i_i_glide_lignum>
731

> <i_i_glide_rotatable_bonds>
6

> <r_i_docking_score>
-6.92379126287117

> <r_i_glide_ligand_efficiency>
-0.216368476964724

> <r_i_glide_ligand_efficiency_sa>
-0.686927095099551

> <r_i_glide_ligand_efficiency_ln>
-1.55042559917849

> <r_i_glide_gscore>
-6.92379126287117

> <r_i_glide_lipo>
-3.50905993991176

> <r_i_glide_hbond>
0

> <r_i_glide_metal>
0

> <r_i_glide_rewards>
-1.20603635483157

> <r_i_glide_evdw>
-45.4097137451172

> <r_i_glide_ecoul>
-1.1595356464386

> <r_i_glide_erotb>
0.403361226230107

> <r_i_glide_esite>
-0.167640160136301

> <r_i_glide_emodel>
-58.5738691392959

> <r_i_glide_energy>
-46.5692493915558

> <r_i_glide_einternal>
12.0071296691895

> <i_i_glide_confnum>
28

> <i_i_glide_posenum>
70

> <r_i_glide_eff_state_penalty>
0

> <s_user_duplicate_titles>
CHEMBL3717_lig673

> <s_m_subgroup_title>
dock_pv

> <s_m_subgroupid>
dock_pv

> <b_m_subgroup_collapsed>
1

$$$$
CHEMBL3717_lig2525
                    3D
 Schrodinger Suite 2021-1.
 47 51  0  0  1  0            999 V2000
   -5.6343    1.8074   30.5662 C   0  0  0  0  0  0
   -4.0995    1.9394   30.6080 C   0  0  0  0  0  0
   -3.2940    0.9360   30.6612 N   0  0  0  0  0  0
   -3.7531   -0.3468   30.6129 N   0  0  0  0  0  0
   -4.3212   -0.9277   29.4080 C   0  0  0  0  0  0
   -4.6757   -2.3102   29.8887 C   0  0  0  0  0  0
   -3.7410   -2.4430   30.9810 N   0  0  0  0  0  0
   -3.2915   -1.2789   31.4883 C   0  0  0  0  0  0
   -2.6633   -1.1240   32.5366 O   0  0  0  0  0  0
   -3.5666    3.3405   30.6080 C   0  0  0  0  0  0
   -4.3782    4.4519   30.3135 C   0  0  0  0  0  0
   -3.8309    5.7312   30.2080 C   0  0  0  0  0  0
   -2.4443    5.8684   30.3540 C   0  0  0  0  0  0
   -1.6005    6.9128   30.2080 N   0  0  0  0  0  0
   -0.3275    6.4252   30.4614 N   0  0  0  0  0  0
   -0.4017    5.1542   30.8016 C   0  0  0  0  0  0
   -1.7152    4.7194   30.6930 N   0  0  0  0  0  0
   -2.2234    3.4802   30.8531 N   0  0  0  0  0  0
    0.7714    4.3270   31.3253 C   0  0  0  0  0  0
    1.1060    4.7506   32.5476 F   0  0  0  0  0  0
    0.4489    3.0470   31.4080 F   0  0  0  0  0  0
    2.0385    4.3077   30.4741 C   0  0  0  0  0  0
    1.9576    4.1598   29.0895 C   0  0  0  0  0  0
    3.1107    4.1190   28.3142 C   0  0  0  0  0  0
    4.3843    4.2797   28.9125 C   0  0  0  0  0  0
    5.4901    4.3570   28.1231 N   0  0  0  0  0  0
    6.7060    4.3570   28.7187 C   0  0  0  0  0  0
    6.8936    4.3663   30.0949 C   0  0  0  0  0  0
    5.7717    4.4179   30.9105 C   0  0  0  0  0  0
    4.4795    4.3526   30.3303 C   0  0  0  0  0  0
    3.2950    4.3570   31.0932 C   0  0  0  0  0  0
   -6.1202    2.5006   31.2520 H   0  0  0  0  0  0
   -6.0090    1.9940   29.5597 H   0  0  0  0  0  0
   -5.9890    0.8173   30.8505 H   0  0  0  0  0  0
   -3.5773   -0.9461   28.6080 H   0  0  0  0  0  0
   -5.2001   -0.3950   29.0471 H   0  0  0  0  0  0
   -5.7088   -2.4211   30.2238 H   0  0  0  0  0  0
   -4.4580   -3.0507   29.1167 H   0  0  0  0  0  0
   -3.2941   -3.3366   31.1487 H   0  0  0  0  0  0
   -5.4372    4.3451   30.1289 H   0  0  0  0  0  0
   -4.4542    6.5771   29.9555 H   0  0  0  0  0  0
    0.9941    4.0646   28.6077 H   0  0  0  0  0  0
    3.0287    4.0035   27.2461 H   0  0  0  0  0  0
    7.5579    4.3570   28.0544 H   0  0  0  0  0  0
    7.8901    4.4007   30.5102 H   0  0  0  0  0  0
    5.8867    4.5191   31.9754 H   0  0  0  0  0  0
    3.3840    4.4167   32.1683 H   0  0  0  0  0  0
  1  2  1  0  0  0
  1 32  1  0  0  0
  1 33  1  0  0  0
  1 34  1  0  0  0
  2  3  2  0  0  0
  2 10  1  0  0  0
  3  4  1  0  0  0
  4  5  1  0  0  0
  4  8  1  0  0  0
  5  6  1  0  0  0
  5 35  1  0  0  0
  5 36  1  0  0  0
  6  7  1  0  0  0
  6 37  1  0  0  0
  6 38  1  0  0  0
  7  8  1  0  0  0
  7 39  1  0  0  0
  8  9  2  0  0  0
 10 11  1  0  0  0
 10 18  2  0  0  0
 11 12  2  0  0  0
 11 40  1  0  0  0
 12 13  1  0  0  0
 12 41  1  0  0  0
 13 14  2  0  0  0
 13 17  1  0  0  0
 14 15  1  0  0  0
 15 16  2  0  0  0
 16 17  1  0  0  0
 16 19  1  0  0  0
 17 18  1  0  0  0
 19 20  1  0  0  0
 19 21  1  0  0  0
 19 22  1  0  0  0
 22 23  2  0  0  0
 22 31  1  0  0  0
 23 24  1  0  0  0
 23 42  1  0  0  0
 24 25  2  0  0  0
 24 43  1  0  0  0
 25 26  1  0  0  0
 25 30  1  0  0  0
 26 27  2  0  0  0
 27 28  1  0  0  0
 27 44  1  0  0  0
 28 29  2  0  0  0
 28 45  1  0  0  0
 29 30  1  0  0  0
 29 46  1  0  0  0
 30 31  2  0  0  0
 31 47  1  0  0  0
M  END
> <s_m_entry_id>
10577

> <s_m_entry_name>
dock_pv.646

> <s_m_Source_Path>
/home/csk/Desktop/cluster/DUD-E-result/met

> <s_m_Source_File>
dock_pv.maegz

> <i_m_Source_File_Index>
646

> <chembl_id>
CHEMBL4114735

> <chembl_pref_name>
None

> <i_lp_mmshare_version>
53161

> <i_f3d_flags>
0

> <r_lp_tautomer_probability>
1

> <s_lp_Force_Field>
OPLS_2005

> <r_lp_Energy>
53.631444

> <b_lp_Chiralities_Consistent>
1

> <s_lp_Variant>
CHEMBL3717_lig2525-1

> <s_i_glide_gridfile>
glide-grid_3lq8

> <i_i_glide_lignum>
2868

> <i_i_glide_rotatable_bonds>
4

> <r_i_docking_score>
-6.92276306521516

> <r_i_glide_ligand_efficiency>
-0.223314937587586

> <r_i_glide_ligand_efficiency_sa>
-0.701517223524634

> <r_i_glide_ligand_efficiency_ln>
-1.56129522841485

> <r_i_glide_gscore>
-6.92276306521516

> <r_i_glide_lipo>
-2.80923861391073

> <r_i_glide_hbond>
-0.0692428193764734

> <r_i_glide_metal>
0

> <r_i_glide_rewards>
-1.8624866560606

> <r_i_glide_evdw>
-42.2251586914062

> <r_i_glide_ecoul>
-3.031010389328

> <r_i_glide_erotb>
0.444136044060521

> <r_i_glide_esite>
-0.0600215269583621

> <r_i_glide_emodel>
-56.8502841003735

> <r_i_glide_energy>
-45.2561690807343

> <r_i_glide_einternal>
5.80956029891968

> <i_i_glide_confnum>
2

> <i_i_glide_posenum>
35

> <r_i_glide_eff_state_penalty>
0

> <s_user_duplicate_titles>
CHEMBL3717_lig2525

> <s_m_subgroup_title>
dock_pv

> <s_m_subgroupid>
dock_pv

> <b_m_subgroup_collapsed>
1

$$$$
CHEMBL3717_lig2360
                    3D
 Schrodinger Suite 2021-1.
 41 45  0  0  1  0            999 V2000
   -5.9209   -0.6215   29.9720 C   0  0  0  0  0  0
   -5.3076    0.5940   30.2663 C   0  0  0  0  0  0
   -6.0045    1.8145   30.1788 C   0  0  0  0  0  0
   -7.3595    1.7545   29.8095 C   0  0  0  0  0  0
   -7.9813    0.5386   29.5206 C   0  0  0  0  0  0
   -7.2609   -0.6511   29.5961 C   0  0  0  0  0  0
   -5.1942   -1.7786   30.0450 O   0  0  0  0  0  0
   -3.9505    3.0744   30.5186 N   0  0  0  0  0  0
   -3.3458    4.2705   30.6047 N   0  0  0  0  0  0
   -3.9940    5.5064   30.6137 C   0  0  0  0  0  0
   -5.3306    5.5574   30.6081 N   0  0  0  0  0  0
   -5.9806    4.3635   30.4985 C   0  0  0  0  0  0
   -5.3111    3.1275   30.4155 C   0  0  0  0  0  0
   -1.8254    5.8657   30.6616 N   0  0  0  0  0  0
   -3.0676    6.4943   30.6210 N   0  0  0  0  0  0
   -2.0036    4.5568   30.6820 C   0  0  0  0  0  0
   -0.9703    3.4459   30.7395 C   0  0  0  0  0  0
    4.6323    4.4225   30.6329 N   0  0  0  0  0  0
    5.3115    4.3160   29.4740 C   0  0  0  0  0  0
    4.7066    3.9583   28.2780 C   0  0  0  0  0  0
    3.3385    3.7183   28.2262 C   0  0  0  0  0  0
    2.5868    3.8684   29.4088 C   0  0  0  0  0  0
    1.1878    3.6762   29.4531 C   0  0  0  0  0  0
    0.5009    3.8228   30.6583 C   0  0  0  0  0  0
    1.1987    4.1818   31.8095 C   0  0  0  0  0  0
    2.5720    4.3555   31.7999 C   0  0  0  0  0  0
    3.2884    4.2160   30.6035 C   0  0  0  0  0  0
   -4.2641    0.5717   30.5434 H   0  0  0  0  0  0
   -7.9524    2.6501   29.7107 H   0  0  0  0  0  0
   -9.0210    0.5208   29.2269 H   0  0  0  0  0  0
   -7.7450   -1.5877   29.3614 H   0  0  0  0  0  0
   -5.6666   -2.5504   29.7269 H   0  0  0  0  0  0
   -7.0560    4.4392   30.4486 H   0  0  0  0  0  0
   -1.1770    2.7571   29.9229 H   0  0  0  0  0  0
   -1.1170    2.8549   31.6452 H   0  0  0  0  0  0
    6.3757    4.4997   29.5173 H   0  0  0  0  0  0
    5.3261    3.8673   27.4062 H   0  0  0  0  0  0
    2.8504    3.4361   27.3047 H   0  0  0  0  0  0
    0.6690    3.3768   28.5538 H   0  0  0  0  0  0
    0.7060    4.2922   32.7521 H   0  0  0  0  0  0
    3.0979    4.6190   32.7018 H   0  0  0  0  0  0
  1  2  1  0  0  0
  1  6  2  0  0  0
  1  7  1  0  0  0
  2  3  2  0  0  0
  2 28  1  0  0  0
  3  4  1  0  0  0
  3 13  1  0  0  0
  4  5  2  0  0  0
  4 29  1  0  0  0
  5  6  1  0  0  0
  5 30  1  0  0  0
  6 31  1  0  0  0
  7 32  1  0  0  0
  8  9  1  0  0  0
  8 13  2  0  0  0
  9 10  1  0  0  0
  9 16  1  0  0  0
 10 11  1  0  0  0
 10 15  2  0  0  0
 11 12  2  0  0  0
 12 13  1  0  0  0
 12 33  1  0  0  0
 14 15  1  0  0  0
 14 16  2  0  0  0
 16 17  1  0  0  0
 17 24  1  0  0  0
 17 34  1  0  0  0
 17 35  1  0  0  0
 18 19  2  0  0  0
 18 27  1  0  0  0
 19 20  1  0  0  0
 19 36  1  0  0  0
 20 21  2  0  0  0
 20 37  1  0  0  0
 21 22  1  0  0  0
 21 38  1  0  0  0
 22 23  2  0  0  0
 22 27  1  0  0  0
 23 24  1  0  0  0
 23 39  1  0  0  0
 24 25  2  0  0  0
 25 26  1  0  0  0
 25 40  1  0  0  0
 26 27  2  0  0  0
 26 41  1  0  0  0
M  END
> <s_m_entry_id>
10578

> <s_m_entry_name>
dock_pv.647

> <s_m_Source_Path>
/home/csk/Desktop/cluster/DUD-E-result/met

> <s_m_Source_File>
dock_pv.maegz

> <i_m_Source_File_Index>
647

> <chembl_id>
CHEMBL3800471

> <chembl_pref_name>
None

> <i_lp_mmshare_version>
53161

> <i_f3d_flags>
0

> <r_lp_tautomer_probability>
0.999999999997365

> <s_lp_Force_Field>
OPLS_2005

> <r_lp_Energy>
27.030593

> <b_lp_Chiralities_Consistent>
1

> <s_lp_Variant>
CHEMBL3717_lig2360-1

> <s_i_glide_gridfile>
glide-grid_3lq8

> <i_i_glide_lignum>
2684

> <i_i_glide_rotatable_bonds>
4

> <r_i_docking_score>
-6.91785898097353

> <r_i_glide_ligand_efficiency>
-0.256216999295316

> <r_i_glide_ligand_efficiency_sa>
-0.768650997041499

> <r_i_glide_ligand_efficiency_ln>
-1.61036352095186

> <r_i_glide_gscore>
-6.91785898097353

> <r_i_glide_lipo>
-3.20342183190203

> <r_i_glide_hbond>
0

> <r_i_glide_metal>
0

> <r_i_glide_rewards>
-1.92559438550201

> <r_i_glide_evdw>
-41.6066284179688

> <r_i_glide_ecoul>
-1.10001528263092

> <r_i_glide_erotb>
0.456490949723591

> <r_i_glide_esite>
0

> <r_i_glide_emodel>
-58.6691534164048

> <r_i_glide_energy>
-42.7066437005997

> <r_i_glide_einternal>
1.19807064533234

> <i_i_glide_confnum>
2

> <i_i_glide_posenum>
1

> <r_i_glide_eff_state_penalty>
0

> <s_user_duplicate_titles>
CHEMBL3717_lig2360

> <s_m_subgroup_title>
dock_pv

> <s_m_subgroupid>
dock_pv

> <b_m_subgroup_collapsed>
1

$$$$
CHEMBL3717_lig3706
                    3D
 Schrodinger Suite 2021-1.
 39 41  0  0  1  0            999 V2000
   -5.5717    1.1391   30.4440 C   0  0  0  0  0  0
   -4.5068    0.7519   29.6207 C   0  0  0  0  0  0
   -3.8682   -0.4727   29.8271 C   0  0  0  0  0  0
   -4.2825   -1.3173   30.8551 C   0  0  0  0  0  0
   -5.3476   -0.9424   31.6714 C   0  0  0  0  0  0
   -6.0024    0.2720   31.4557 C   0  0  0  0  0  0
   -6.3180    2.4241   30.2073 C   0  0  0  0  0  0
   -5.6745    3.6812   30.4524 N   0  0  0  0  0  0
   -4.3444    3.8806   30.4625 N   0  0  0  0  0  0
   -4.2243    5.1851   30.6319 C   0  0  0  0  0  0
   -5.3585    5.8422   30.7490 N   0  0  0  0  0  0
   -6.2674    4.9174   30.6064 C   0  0  0  0  0  0
   -3.0468    5.9014   30.6533 N   0  0  0  0  0  0
   -1.7156    5.4553   30.6238 C   0  0  0  0  0  0
   -1.3623    4.1636   31.0218 C   0  0  0  0  0  0
   -0.0428    3.7480   30.9409 C   0  0  0  0  0  0
    0.9275    4.5956   30.4270 C   0  0  0  0  0  0
    0.6039    5.9128   30.0956 C   0  0  0  0  0  0
   -0.7196    6.3472   30.2071 C   0  0  0  0  0  0
    2.5590    3.9158   30.1572 S   0  0  0  0  0  0
    3.4158    4.9740   29.6190 O   0  0  0  0  0  0
    2.3131    2.7571   28.8759 N   0  0  0  0  0  0
    2.9279    3.1644   31.3622 O   0  0  0  0  0  0
   -7.4838    2.3779   29.8084 O   0  0  0  0  0  0
   -7.6155    5.1569   30.5854 N   0  0  0  0  0  0
   -4.0934    1.5448   28.6076 F   0  0  0  0  0  0
   -7.0812    0.5822   32.2095 F   0  0  0  0  0  0
   -3.0637   -0.7789   29.1737 H   0  0  0  0  0  0
   -3.7908   -2.2699   31.0048 H   0  0  0  0  0  0
   -5.6879   -1.6007   32.4579 H   0  0  0  0  0  0
   -3.1116    6.9000   30.5605 H   0  0  0  0  0  0
   -2.0911    3.4722   31.4128 H   0  0  0  0  0  0
    0.2261    2.7592   31.2637 H   0  0  0  0  0  0
    1.3606    6.5897   29.7344 H   0  0  0  0  0  0
   -0.9664    7.3596   29.9230 H   0  0  0  0  0  0
    1.7497    1.9447   29.1400 H   0  0  0  0  0  0
    2.0297    3.1788   27.9870 H   0  0  0  0  0  0
   -7.9732    6.1039   30.6079 H   0  0  0  0  0  0
   -8.2584    4.4436   30.2625 H   0  0  0  0  0  0
  1  2  2  0  0  0
  1  7  1  0  0  0
  1  6  1  0  0  0
  2  3  1  0  0  0
  2 26  1  0  0  0
  3  4  2  0  0  0
  3 28  1  0  0  0
  4  5  1  0  0  0
  4 29  1  0  0  0
  5  6  2  0  0  0
  5 30  1  0  0  0
  6 27  1  0  0  0
  7  8  1  0  0  0
  7 24  2  0  0  0
  8  9  1  0  0  0
  8 12  1  0  0  0
  9 10  2  0  0  0
 10 13  1  0  0  0
 10 11  1  0  0  0
 11 12  2  0  0  0
 12 25  1  0  0  0
 13 14  1  0  0  0
 13 31  1  0  0  0
 14 15  2  0  0  0
 14 19  1  0  0  0
 15 16  1  0  0  0
 15 32  1  0  0  0
 16 17  2  0  0  0
 16 33  1  0  0  0
 17 18  1  0  0  0
 17 20  1  0  0  0
 18 19  2  0  0  0
 18 34  1  0  0  0
 19 35  1  0  0  0
 20 21  2  0  0  0
 20 22  1  0  0  0
 20 23  2  0  0  0
 22 36  1  0  0  0
 22 37  1  0  0  0
 25 38  1  0  0  0
 25 39  1  0  0  0
M  END
> <s_m_entry_id>
10580

> <s_m_entry_name>
dock_pv.649

> <s_m_Source_Path>
/home/csk/Desktop/cluster/DUD-E-result/met

> <s_m_Source_File>
dock_pv.maegz

> <i_m_Source_File_Index>
649

> <chembl_id>
CHEMBL191003

> <chembl_pref_name>
JNJ-7706621

> <i_lp_mmshare_version>
53161

> <i_f3d_flags>
0

> <r_lp_tautomer_probability>
1

> <s_lp_Force_Field>
OPLS_2005

> <r_lp_Energy>
31.898483

> <b_lp_Chiralities_Consistent>
1

> <s_lp_Variant>
CHEMBL3717_lig3706-1

> <s_i_glide_gridfile>
glide-grid_3lq8

> <i_i_glide_lignum>
4667

> <i_i_glide_rotatable_bonds>
5

> <r_i_docking_score>
-6.91395135240566

> <r_i_glide_ligand_efficiency>
-0.256072272311321

> <r_i_glide_ligand_efficiency_sa>
-0.76821681608999

> <r_i_glide_ligand_efficiency_ln>
-1.60945388944355

> <r_i_glide_gscore>
-6.91395135240566

> <r_i_glide_lipo>
-2.06355454176611

> <r_i_glide_hbond>
-0.229299668187929

> <r_i_glide_metal>
0

> <r_i_glide_rewards>
-2.33343021050056

> <r_i_glide_evdw>
-45.1241683959961

> <r_i_glide_ecoul>
-3.42703628540039

> <r_i_glide_erotb>
0.502684924801126

> <r_i_glide_esite>
-0.0200879941423268

> <r_i_glide_emodel>
-64.5945365635846

> <r_i_glide_energy>
-48.5512046813965

> <r_i_glide_einternal>
4.38441944122314

> <i_i_glide_confnum>
3

> <i_i_glide_posenum>
338

> <r_i_glide_eff_state_penalty>
0

> <s_user_duplicate_titles>
CHEMBL3717_lig3706,317507

> <s_m_subgroup_title>
dock_pv

> <s_m_subgroupid>
dock_pv

> <b_m_subgroup_collapsed>
1

$$$$
CHEMBL3717_lig3171
                    3D
 Schrodinger Suite 2021-1.
 31 33  0  0  1  0            999 V2000
   -3.3869   -1.4604   31.1088 C   0  0  0  0  0  0
   -4.2006   -1.4910   30.0228 C   0  0  0  0  0  0
   -4.6666   -0.3321   29.4080 N   0  0  0  0  0  0
   -2.8940   -0.2309   31.6968 C   0  0  0  0  0  0
   -3.3669    0.9032   30.9630 N   0  0  0  0  0  0
   -4.2641    0.8957   29.9197 C   0  0  0  0  0  0
   -4.4942    2.1118   29.4981 N   0  0  0  0  0  0
   -3.7342    2.8486   30.3035 C   0  0  0  0  0  0
   -2.9937    2.1714   31.1617 N   0  0  0  0  0  0
   -2.1504   -0.0947   32.6696 O   0  0  0  0  0  0
   -3.7521    4.6238   30.2081 S   0  0  0  0  0  0
   -2.4370    5.1570   31.3588 C   0  0  0  0  0  0
   -1.0175    5.0378   30.8170 C   0  0  0  0  0  0
   -0.2864    3.8616   31.0079 C   0  0  0  0  0  0
    1.0322    3.7727   30.5818 C   0  0  0  0  0  0
    1.6385    4.8747   29.9921 C   0  0  0  0  0  0
    0.9256    6.0613   29.8171 C   0  0  0  0  0  0
   -0.4081    6.1384   30.2083 C   0  0  0  0  0  0
    3.2898    4.7570   29.5055 Cl  0  0  0  0  0  0
   -4.6858   -2.7665   29.3649 C   0  0  0  0  0  0
   -3.0538   -2.3880   31.5503 H   0  0  0  0  0  0
   -5.0699   -0.4123   28.4803 H   0  0  0  0  0  0
   -2.4937    4.6007   32.2834 H   0  0  0  0  0  0
   -2.6477    6.1907   31.6297 H   0  0  0  0  0  0
   -0.7131    3.0139   31.5171 H   0  0  0  0  0  0
    1.5862    2.8569   30.7289 H   0  0  0  0  0  0
    1.4031    6.9352   29.4081 H   0  0  0  0  0  0
   -0.9488    7.0649   30.0778 H   0  0  0  0  0  0
   -4.2490   -3.6429   29.8354 H   0  0  0  0  0  0
   -5.7706   -2.8480   29.4325 H   0  0  0  0  0  0
   -4.3997   -2.7993   28.3125 H   0  0  0  0  0  0
  1  2  2  0  0  0
  1  4  1  0  0  0
  1 21  1  0  0  0
  2  3  1  0  0  0
  2 20  1  0  0  0
  3  6  1  0  0  0
  3 22  1  0  0  0
  4  5  1  0  0  0
  4 10  2  0  0  0
  5  6  1  0  0  0
  5  9  1  0  0  0
  6  7  2  0  0  0
  7  8  1  0  0  0
  8  9  2  0  0  0
  8 11  1  0  0  0
 11 12  1  0  0  0
 12 13  1  0  0  0
 12 23  1  0  0  0
 12 24  1  0  0  0
 13 14  2  0  0  0
 13 18  1  0  0  0
 14 15  1  0  0  0
 14 25  1  0  0  0
 15 16  2  0  0  0
 15 26  1  0  0  0
 16 17  1  0  0  0
 16 19  1  0  0  0
 17 18  2  0  0  0
 17 27  1  0  0  0
 18 28  1  0  0  0
 20 29  1  0  0  0
 20 30  1  0  0  0
 20 31  1  0  0  0
M  END
> <s_m_entry_id>
10581

> <s_m_entry_name>
dock_pv.650

> <s_m_Source_Path>
/home/csk/Desktop/cluster/DUD-E-result/met

> <s_m_Source_File>
dock_pv.maegz

> <i_m_Source_File_Index>
650

> <chembl_id>
CHEMBL3818535

> <chembl_pref_name>
None

> <i_lp_mmshare_version>
53161

> <i_f3d_flags>
0

> <r_lp_tautomer_probability>
1

> <s_lp_Force_Field>
OPLS_2005

> <r_lp_Energy>
13.955013

> <b_lp_Chiralities_Consistent>
1

> <s_lp_Variant>
CHEMBL3717_lig3171-1

> <s_i_glide_gridfile>
glide-grid_3lq8

> <i_i_glide_lignum>
3892

> <i_i_glide_rotatable_bonds>
3

> <r_i_docking_score>
-6.91157454037819

> <r_i_glide_ligand_efficiency>
-0.34557872701891

> <r_i_glide_ligand_efficiency_sa>
-0.93804498360386

> <r_i_glide_ligand_efficiency_ln>
-1.72973914847171

> <r_i_glide_gscore>
-6.91157454037819

> <r_i_glide_lipo>
-2.75558798495923

> <r_i_glide_hbond>
-0.0880361299943415

> <r_i_glide_metal>
0

> <r_i_glide_rewards>
-2.61798073362929

> <r_i_glide_evdw>
-31.523365020752

> <r_i_glide_ecoul>
-2.71513891220093

> <r_i_glide_erotb>
0.589009378089211

> <r_i_glide_esite>
-0.0555399820168058

> <r_i_glide_emodel>
-48.6596794766283

> <r_i_glide_energy>
-34.2385039329529

> <r_i_glide_einternal>
1.00677311420441

> <i_i_glide_confnum>
2

> <i_i_glide_posenum>
337

> <r_i_glide_eff_state_penalty>
0

> <s_user_duplicate_titles>
CHEMBL3717_lig3171

> <s_m_subgroup_title>
dock_pv

> <s_m_subgroupid>
dock_pv

> <b_m_subgroup_collapsed>
1

$$$$
CHEMBL3717_lig1063
                    3D
 Schrodinger Suite 2021-1.
 44 46  0  0  1  0            999 V2000
   -6.5418   -1.7071   32.2306 C   0  0  0  0  0  0
   -7.8766   -1.4892   31.9044 C   0  0  0  0  0  0
   -8.2270   -0.4051   31.1095 C   0  0  0  0  0  0
   -7.2483    0.4761   30.6389 C   0  0  0  0  0  0
   -5.8890    0.2783   30.9823 C   0  0  0  0  0  0
   -5.5517   -0.8380   31.7760 C   0  0  0  0  0  0
   -3.9162   -1.2140   32.2084 Cl  0  0  0  0  0  0
   -9.5300   -0.2217   30.7874 F   0  0  0  0  0  0
   -7.7696    1.7780   29.6135 Cl  0  0  0  0  0  0
   -4.7860    1.2219   30.4725 C   0  0  2  0  0  0
   -5.2087    2.5812   30.6068 O   0  0  0  0  0  0
   -4.4412    0.9075   29.0079 C   0  0  0  0  0  0
   -4.3074    3.6369   30.5995 C   0  0  0  0  0  0
   -4.8259    4.9417   30.6073 C   0  0  0  0  0  0
   -4.0462    6.0489   30.6086 N   0  0  0  0  0  0
   -2.6994    5.8849   30.6164 C   0  0  0  0  0  0
   -2.0808    4.6257   30.6243 C   0  0  0  0  0  0
   -2.9066    3.4971   30.6080 C   0  0  0  0  0  0
   -6.2025    5.1586   30.6083 N   0  0  0  0  0  0
   -0.6898    4.4034   30.6079 N   0  0  0  0  0  0
    0.2804    5.2574   30.2152 C   0  0  0  0  0  0
    1.6051    4.6052   29.9701 C   0  0  0  0  0  0
    0.1500    6.4653   30.0255 O   0  0  0  0  0  0
    2.6068    4.6859   30.9382 C   0  0  0  0  0  0
    3.8722    4.1734   30.6727 C   0  0  0  0  0  0
    4.1212    3.5562   29.4512 C   0  0  0  0  0  0
    3.1153    3.4293   28.4974 C   0  0  0  0  0  0
    1.8559    3.9588   28.7547 C   0  0  0  0  0  0
   -6.2750   -2.5589   32.8393 H   0  0  0  0  0  0
   -8.6380   -2.1675   32.2587 H   0  0  0  0  0  0
   -3.9025    1.0818   31.0909 H   0  0  0  0  0  0
   -4.0927   -0.1203   28.8973 H   0  0  0  0  0  0
   -5.3079    1.0259   28.3573 H   0  0  0  0  0  0
   -3.6580    1.5573   28.6240 H   0  0  0  0  0  0
   -2.1328    6.8022   30.6198 H   0  0  0  0  0  0
   -2.4463    2.5201   30.6019 H   0  0  0  0  0  0
   -6.8038    4.3556   30.4939 H   0  0  0  0  0  0
   -6.5208    6.0879   30.3681 H   0  0  0  0  0  0
   -0.4025    3.4470   30.7485 H   0  0  0  0  0  0
    2.4124    5.1554   31.8918 H   0  0  0  0  0  0
    4.6577    4.2617   31.4063 H   0  0  0  0  0  0
    5.1062    3.1642   29.2449 H   0  0  0  0  0  0
    3.3162    2.9351   27.5572 H   0  0  0  0  0  0
    1.0896    3.8811   27.9970 H   0  0  0  0  0  0
  1  6  1  0  0  0
  1  2  2  0  0  0
  1 29  1  0  0  0
  2  3  1  0  0  0
  2 30  1  0  0  0
  3  4  2  0  0  0
  3  8  1  0  0  0
  4  9  1  0  0  0
  4  5  1  0  0  0
  5 10  1  0  0  0
  5  6  2  0  0  0
  6  7  1  0  0  0
 10 11  1  0  0  0
 10 12  1  0  0  0
 10 31  1  0  0  0
 11 13  1  0  0  0
 12 32  1  0  0  0
 12 33  1  0  0  0
 12 34  1  0  0  0
 13 14  2  0  0  0
 13 18  1  0  0  0
 14 15  1  0  0  0
 14 19  1  0  0  0
 15 16  2  0  0  0
 16 17  1  0  0  0
 16 35  1  0  0  0
 17 18  2  0  0  0
 17 20  1  0  0  0
 18 36  1  0  0  0
 19 37  1  0  0  0
 19 38  1  0  0  0
 20 21  1  0  0  0
 20 39  1  0  0  0
 21 22  1  0  0  0
 21 23  2  0  0  0
 22 24  2  0  0  0
 22 28  1  0  0  0
 24 25  1  0  0  0
 24 40  1  0  0  0
 25 26  2  0  0  0
 25 41  1  0  0  0
 26 27  1  0  0  0
 26 42  1  0  0  0
 27 28  2  0  0  0
 27 43  1  0  0  0
 28 44  1  0  0  0
M  END
> <s_m_entry_id>
10582

> <s_m_entry_name>
dock_pv.651

> <s_m_Source_Path>
/home/csk/Desktop/cluster/DUD-E-result/met

> <s_m_Source_File>
dock_pv.maegz

> <i_m_Source_File_Index>
651

> <chembl_id>
CHEMBL1824882

> <chembl_pref_name>
None

> <i_lp_mmshare_version>
53161

> <i_f3d_flags>
0

> <r_lp_tautomer_probability>
0.999999404453161

> <s_lp_Force_Field>
OPLS_2005

> <r_lp_Energy>
27.162718

> <b_lp_Chiralities_Consistent>
1

> <s_lp_Variant>
CHEMBL3717_lig1063-1

> <s_i_glide_gridfile>
glide-grid_3lq8

> <i_i_glide_lignum>
1189

> <i_i_glide_rotatable_bonds>
6

> <r_i_docking_score>
-6.91121176744048

> <r_i_glide_ligand_efficiency>
-0.246828991694303

> <r_i_glide_ligand_efficiency_sa>
-0.749518193285594

> <r_i_glide_ligand_efficiency_ln>
-1.59531059792027

> <r_i_glide_gscore>
-6.91121176744048

> <r_i_glide_lipo>
-3.41913200204408

> <r_i_glide_hbond>
-0.0402754947500531

> <r_i_glide_metal>
0

> <r_i_glide_rewards>
-1.49940064566242

> <r_i_glide_evdw>
-44.3985557556152

> <r_i_glide_ecoul>
-2.69859576225281

> <r_i_glide_erotb>
0.672313527134754

> <r_i_glide_esite>
0

> <r_i_glide_emodel>
-59.6357975127853

> <r_i_glide_energy>
-47.097151517868

> <r_i_glide_einternal>
12.3732147216797

> <i_i_glide_confnum>
23

> <i_i_glide_posenum>
301

> <r_i_glide_eff_state_penalty>
0

> <s_user_duplicate_titles>
CHEMBL3717_lig1063

> <s_m_subgroup_title>
dock_pv

> <s_m_subgroupid>
dock_pv

> <b_m_subgroup_collapsed>
1

$$$$
CHEMBL3717_lig2085
                    3D
 Schrodinger Suite 2021-1.
 42 46  0  0  1  0            999 V2000
    0.0453    4.4012   31.6192 C   0  0  0  0  0  0
   -3.7382    2.0304   30.6516 C   0  0  0  0  0  0
   -4.8124    2.8337   30.2667 C   0  0  0  0  0  0
   -4.6877    4.2260   30.2079 C   0  0  0  0  0  0
   -2.5336    2.6285   31.0078 C   0  0  0  0  0  0
   -2.3682    3.9769   30.8434 N   0  0  0  0  0  0
   -3.4248    4.8078   30.4341 C   0  0  0  0  0  0
   -2.9643    6.0770   30.3233 N   0  0  0  0  0  0
   -1.6129    6.0375   30.6269 N   0  0  0  0  0  0
   -1.2882    4.8182   31.0081 C   0  0  0  0  0  0
   -3.8193    0.5501   30.7054 C   0  0  0  0  0  0
    1.2465    4.2399   30.7007 C   0  0  0  0  0  0
    1.1076    3.9557   29.3423 C   0  0  0  0  0  0
    2.2241    3.8592   28.5150 C   0  0  0  0  0  0
    2.5211    4.3598   31.2598 C   0  0  0  0  0  0
    3.6714    4.3085   30.4421 C   0  0  0  0  0  0
    3.5181    4.0678   29.0469 C   0  0  0  0  0  0
    4.5856    4.0714   28.2080 N   0  0  0  0  0  0
    5.8116    4.3570   28.7093 C   0  0  0  0  0  0
    6.0566    4.5681   30.0581 C   0  0  0  0  0  0
    4.9820    4.5281   30.9363 C   0  0  0  0  0  0
   -5.7515    4.9825   29.8558 F   0  0  0  0  0  0
   -3.3173   -0.3127   31.6954 C   0  0  0  0  0  0
   -3.4851   -1.5844   31.4143 N   0  0  0  0  0  0
   -4.1103   -1.5818   30.2316 N   0  0  0  0  0  0
   -4.3592   -0.3164   29.7688 C   0  0  0  0  0  0
   -4.4079   -2.8437   29.5812 C   0  0  0  0  0  0
   -0.0454    3.4731   32.1802 H   0  0  0  0  0  0
    0.3142    5.1571   32.3573 H   0  0  0  0  0  0
   -5.7622    2.3768   30.0289 H   0  0  0  0  0  0
   -1.6940    2.0582   31.3512 H   0  0  0  0  0  0
    0.1273    3.8092   28.9180 H   0  0  0  0  0  0
    2.1051    3.6581   27.4596 H   0  0  0  0  0  0
    2.6399    4.5575   32.3153 H   0  0  0  0  0  0
    6.6260    4.3751   27.9992 H   0  0  0  0  0  0
    7.0563    4.7824   30.4071 H   0  0  0  0  0  0
    5.1366    4.7568   31.9792 H   0  0  0  0  0  0
   -2.8185   -0.0070   32.6030 H   0  0  0  0  0  0
   -4.8380   -0.1585   28.8123 H   0  0  0  0  0  0
   -4.9111   -2.6646   28.6306 H   0  0  0  0  0  0
   -3.4781   -3.3830   29.3940 H   0  0  0  0  0  0
   -5.0502   -3.4457   30.2248 H   0  0  0  0  0  0
  1 10  1  0  0  0
  1 12  1  0  0  0
  1 28  1  0  0  0
  1 29  1  0  0  0
  2  3  1  0  0  0
  2  5  2  0  0  0
  2 11  1  0  0  0
  3  4  2  0  0  0
  3 30  1  0  0  0
  4  7  1  0  0  0
  4 22  1  0  0  0
  5  6  1  0  0  0
  5 31  1  0  0  0
  6  7  1  0  0  0
  6 10  1  0  0  0
  7  8  2  0  0  0
  8  9  1  0  0  0
  9 10  2  0  0  0
 11 23  1  0  0  0
 11 26  2  0  0  0
 12 13  2  0  0  0
 12 15  1  0  0  0
 13 14  1  0  0  0
 13 32  1  0  0  0
 14 17  2  0  0  0
 14 33  1  0  0  0
 15 16  2  0  0  0
 15 34  1  0  0  0
 16 17  1  0  0  0
 16 21  1  0  0  0
 17 18  1  0  0  0
 18 19  2  0  0  0
 19 20  1  0  0  0
 19 35  1  0  0  0
 20 21  2  0  0  0
 20 36  1  0  0  0
 21 37  1  0  0  0
 23 24  2  0  0  0
 23 38  1  0  0  0
 24 25  1  0  0  0
 25 26  1  0  0  0
 25 27  1  0  0  0
 26 39  1  0  0  0
 27 40  1  0  0  0
 27 41  1  0  0  0
 27 42  1  0  0  0
M  END
> <s_m_entry_id>
10583

> <s_m_entry_name>
dock_pv.652

> <s_m_Source_Path>
/home/csk/Desktop/cluster/DUD-E-result/met

> <s_m_Source_File>
dock_pv.maegz

> <i_m_Source_File_Index>
652

> <chembl_id>
CHEMBL3414741

> <chembl_pref_name>
None

> <i_lp_mmshare_version>
53161

> <i_f3d_flags>
0

> <r_lp_tautomer_probability>
1

> <s_lp_Force_Field>
OPLS_2005

> <r_lp_Energy>
15.900243

> <b_lp_Chiralities_Consistent>
1

> <s_lp_Variant>
CHEMBL3717_lig2085-1

> <s_i_glide_gridfile>
glide-grid_3lq8

> <i_i_glide_lignum>
2381

> <i_i_glide_rotatable_bonds>
3

> <r_i_docking_score>
-6.91055037662211

> <r_i_glide_ligand_efficiency>
-0.255946310245263

> <r_i_glide_ligand_efficiency_sa>
-0.767838929892233

> <r_i_glide_ligand_efficiency_ln>
-1.60866219835061

> <r_i_glide_gscore>
-6.91055037662211

> <r_i_glide_lipo>
-3.53238983650098

> <r_i_glide_hbond>
0

> <r_i_glide_metal>
0

> <r_i_glide_rewards>
-1.77340013235137

> <r_i_glide_evdw>
-38.6698112487793

> <r_i_glide_ecoul>
-0.714546024799347

> <r_i_glide_erotb>
0.447441054082197

> <r_i_glide_esite>
-0.0115289956930914

> <r_i_glide_emodel>
-51.1874817334006

> <r_i_glide_energy>
-39.3843572735786

> <r_i_glide_einternal>
3.24614572525024

> <i_i_glide_confnum>
2

> <i_i_glide_posenum>
58

> <r_i_glide_eff_state_penalty>
0

> <s_user_duplicate_titles>
CHEMBL3717_lig2085

> <s_m_subgroup_title>
dock_pv

> <s_m_subgroupid>
dock_pv

> <b_m_subgroup_collapsed>
1

$$$$
CHEMBL3717_lig2577
                    3D
 Schrodinger Suite 2021-1.
 46 49  0  0  1  0            999 V2000
   -4.9511    0.3969   29.9988 C   0  0  0  0  0  0
   -3.7012    0.9326   30.7161 C   0  0  0  0  0  0
   -2.8943    0.1882   31.3858 N   0  0  0  0  0  0
   -3.2585   -1.1713   31.3869 O   0  0  0  0  0  0
   -2.0980   -1.9959   31.2907 C   0  0  0  0  0  0
   -1.4007   -2.2714   32.6385 C   0  0  0  0  0  0
   -0.5174   -1.2430   33.0340 O   0  0  0  0  0  0
   -3.4878    2.4087   30.6095 C   0  0  0  0  0  0
   -4.4921    3.3159   30.2186 C   0  0  0  0  0  0
   -4.2239    4.6885   30.1421 C   0  0  0  0  0  0
   -2.9150    5.1251   30.4010 C   0  0  0  0  0  0
   -2.3284    6.3446   30.2975 N   0  0  0  0  0  0
   -1.0680    6.1156   30.6079 C   0  0  0  0  0  0
   -0.7990    4.8008   30.9979 C   0  0  0  0  0  0
    0.4467    4.1080   31.5423 C   0  0  0  0  0  0
    1.6772    4.1311   30.6486 C   0  0  0  0  0  0
    1.5762    3.9283   29.2708 C   0  0  0  0  0  0
    2.7091    3.9608   28.4606 C   0  0  0  0  0  0
    3.9803    4.2246   29.0273 C   0  0  0  0  0  0
    5.0604    4.3564   28.2087 N   0  0  0  0  0  0
    6.2761    4.5470   28.7707 C   0  0  0  0  0  0
    6.4859    4.6613   30.1393 C   0  0  0  0  0  0
    5.3884    4.5892   30.9844 C   0  0  0  0  0  0
    4.0971    4.3644   30.4419 C   0  0  0  0  0  0
    2.9312    4.3089   31.2371 C   0  0  0  0  0  0
   -1.9944    4.1462   30.8056 N   0  0  0  0  0  0
   -2.2355    2.8349   30.9498 N   0  0  0  0  0  0
   -5.8434    0.5961   30.5909 H   0  0  0  0  0  0
   -5.0804    0.8540   29.0181 H   0  0  0  0  0  0
   -4.9279   -0.6795   29.8343 H   0  0  0  0  0  0
   -1.3926   -1.6470   30.5333 H   0  0  0  0  0  0
   -2.4689   -2.9472   30.9095 H   0  0  0  0  0  0
   -0.8605   -3.2171   32.6012 H   0  0  0  0  0  0
   -2.1552   -2.3886   33.4179 H   0  0  0  0  0  0
    0.3835   -1.6018   33.0082 H   0  0  0  0  0  0
   -5.4909    2.9739   29.9881 H   0  0  0  0  0  0
   -4.9872    5.3889   29.8310 H   0  0  0  0  0  0
   -0.3463    6.9205   30.6081 H   0  0  0  0  0  0
    0.7091    4.5616   32.4992 H   0  0  0  0  0  0
    0.2529    3.0597   31.7660 H   0  0  0  0  0  0
    0.6106    3.7485   28.8203 H   0  0  0  0  0  0
    2.6172    3.8267   27.3931 H   0  0  0  0  0  0
    7.1071    4.6192   28.0841 H   0  0  0  0  0  0
    7.4778    4.8423   30.5275 H   0  0  0  0  0  0
    5.5114    4.7552   32.0439 H   0  0  0  0  0  0
    3.0235    4.4326   32.3063 H   0  0  0  0  0  0
  1  2  1  0  0  0
  1 28  1  0  0  0
  1 29  1  0  0  0
  1 30  1  0  0  0
  2  3  2  0  0  0
  2  8  1  0  0  0
  3  4  1  0  0  0
  4  5  1  0  0  0
  5  6  1  0  0  0
  5 31  1  0  0  0
  5 32  1  0  0  0
  6  7  1  0  0  0
  6 33  1  0  0  0
  6 34  1  0  0  0
  7 35  1  0  0  0
  8  9  1  0  0  0
  8 27  2  0  0  0
  9 10  2  0  0  0
  9 36  1  0  0  0
 10 11  1  0  0  0
 10 37  1  0  0  0
 11 12  2  0  0  0
 11 26  1  0  0  0
 12 13  1  0  0  0
 13 14  2  0  0  0
 13 38  1  0  0  0
 14 15  1  0  0  0
 14 26  1  0  0  0
 15 16  1  0  0  0
 15 39  1  0  0  0
 15 40  1  0  0  0
 16 17  2  0  0  0
 16 25  1  0  0  0
 17 18  1  0  0  0
 17 41  1  0  0  0
 18 19  2  0  0  0
 18 42  1  0  0  0
 19 20  1  0  0  0
 19 24  1  0  0  0
 20 21  2  0  0  0
 21 22  1  0  0  0
 21 43  1  0  0  0
 22 23  2  0  0  0
 22 44  1  0  0  0
 23 24  1  0  0  0
 23 45  1  0  0  0
 24 25  2  0  0  0
 25 46  1  0  0  0
 26 27  1  0  0  0
M  END
> <s_m_entry_id>
10584

> <s_m_entry_name>
dock_pv.653

> <s_m_Source_Path>
/home/csk/Desktop/cluster/DUD-E-result/met

> <s_m_Source_File>
dock_pv.maegz

> <i_m_Source_File_Index>
653

> <chembl_id>
CHEMBL3648225

> <chembl_pref_name>
None

> <i_lp_mmshare_version>
53161

> <i_f3d_flags>
0

> <r_lp_tautomer_probability>
1

> <s_lp_Force_Field>
OPLS_2005

> <r_lp_Energy>
21.630084

> <b_lp_Chiralities_Consistent>
1

> <s_lp_Variant>
CHEMBL3717_lig2577-1

> <s_i_glide_gridfile>
glide-grid_3lq8

> <i_i_glide_lignum>
2925

> <i_i_glide_rotatable_bonds>
7

> <r_i_docking_score>
-6.91043510037232

> <r_i_glide_ligand_efficiency>
-0.25594204075453

> <r_i_glide_ligand_efficiency_sa>
-0.767826121420048

> <r_i_glide_ligand_efficiency_ln>
-1.60863536394013

> <r_i_glide_gscore>
-6.91043510037232

> <r_i_glide_lipo>
-3.91878990623761

> <r_i_glide_hbond>
0

> <r_i_glide_metal>
0

> <r_i_glide_rewards>
-0.946771567228408

> <r_i_glide_evdw>
-40.932731628418

> <r_i_glide_ecoul>
-5.86539220809937

> <r_i_glide_erotb>
0.881571785729501

> <r_i_glide_esite>
0

> <r_i_glide_emodel>
-59.0250519977446

> <r_i_glide_energy>
-46.7981238365173

> <r_i_glide_einternal>
9.57078170776367

> <i_i_glide_confnum>
20

> <i_i_glide_posenum>
53

> <r_i_glide_eff_state_penalty>
0

> <s_user_duplicate_titles>
CHEMBL3717_lig2577

> <s_m_subgroup_title>
dock_pv

> <s_m_subgroupid>
dock_pv

> <b_m_subgroup_collapsed>
1

$$$$
CHEMBL3717_lig4123
                    3D
 Schrodinger Suite 2021-1.
 37 39  0  0  1  0            999 V2000
   -3.1058    7.5568   30.6081 Cl  0  0  0  0  0  0
    1.2005    5.4396   31.4054 O   0  0  0  0  0  0
   -5.8284    0.7112   29.5875 N   0  0  0  0  0  0
   -8.1436    1.3893   29.6516 N   0  0  0  0  0  0
   -1.5988    5.4224   30.9671 N   0  0  0  0  0  0
   -0.0844    3.5572   31.1943 N   0  0  0  0  0  0
   -4.7974    2.6408   30.2082 C   0  0  0  0  0  0
   -6.2325    2.8488   30.2083 C   0  0  0  0  0  0
   -3.7003    3.6193   30.5003 C   0  0  0  0  0  0
   -6.8367    1.6186   29.8076 C   0  0  0  0  0  0
   -4.6208    1.3111   29.8366 C   0  0  0  0  0  0
   -2.4105    3.1626   30.8108 C   0  0  0  0  0  0
   -1.3749    4.0818   31.0080 C   0  0  0  0  0  0
   -3.9126    5.0012   30.4444 C   0  0  0  0  0  0
   -7.1138    3.9151   30.4879 C   0  0  0  0  0  0
   -2.8470    5.8629   30.6886 C   0  0  0  0  0  0
   -8.4855    3.7069   30.3235 C   0  0  0  0  0  0
   -8.9439    2.4562   29.9108 C   0  0  0  0  0  0
    1.0833    4.2148   31.3589 C   0  0  0  0  0  0
    2.3337    3.3352   31.5087 C   0  0  0  0  0  0
    3.4490    3.6418   30.4820 C   0  0  0  0  0  0
    3.0584    3.3723   29.0164 C   0  0  0  0  0  0
   -5.9165   -0.2468   29.2760 H   0  0  0  0  0  0
   -0.0265    2.5520   31.1605 H   0  0  0  0  0  0
   -3.7162    0.7354   29.6951 H   0  0  0  0  0  0
   -2.2162    2.1043   30.8697 H   0  0  0  0  0  0
   -4.8652    5.4200   30.1737 H   0  0  0  0  0  0
   -6.7609    4.8774   30.8192 H   0  0  0  0  0  0
   -9.1870    4.5081   30.5100 H   0  0  0  0  0  0
  -10.0031    2.2853   29.7806 H   0  0  0  0  0  0
    2.0746    2.2765   31.4591 H   0  0  0  0  0  0
    2.7161    3.4984   32.5172 H   0  0  0  0  0  0
    4.3218    3.0339   30.7233 H   0  0  0  0  0  0
    3.7791    4.6778   30.5866 H   0  0  0  0  0  0
    3.9134    3.5178   28.3542 H   0  0  0  0  0  0
    2.2654    4.0439   28.6827 H   0  0  0  0  0  0
    2.7062    2.3495   28.8767 H   0  0  0  0  0  0
  1 16  1  0  0  0
  2 19  2  0  0  0
  3 10  1  0  0  0
  3 11  1  0  0  0
  3 23  1  0  0  0
  4 10  2  0  0  0
  4 18  1  0  0  0
  5 13  1  0  0  0
  5 16  2  0  0  0
  6 13  1  0  0  0
  6 19  1  0  0  0
  6 24  1  0  0  0
  7  8  1  0  0  0
  7  9  1  0  0  0
  7 11  2  0  0  0
  8 10  1  0  0  0
  8 15  2  0  0  0
  9 12  1  0  0  0
  9 14  2  0  0  0
 11 25  1  0  0  0
 12 13  2  0  0  0
 12 26  1  0  0  0
 14 16  1  0  0  0
 14 27  1  0  0  0
 15 17  1  0  0  0
 15 28  1  0  0  0
 17 18  2  0  0  0
 17 29  1  0  0  0
 18 30  1  0  0  0
 19 20  1  0  0  0
 20 21  1  0  0  0
 20 31  1  0  0  0
 20 32  1  0  0  0
 21 22  1  0  0  0
 21 33  1  0  0  0
 21 34  1  0  0  0
 22 35  1  0  0  0
 22 36  1  0  0  0
 22 37  1  0  0  0
M  END
> <s_m_entry_id>
10585

> <s_m_entry_name>
dock_pv.654

> <s_m_Source_Path>
/home/csk/Desktop/cluster/DUD-E-result/met

> <s_m_Source_File>
dock_pv.maegz

> <i_m_Source_File_Index>
654

> <chembl_id>
CHEMBL1998470

> <chembl_pref_name>
None

> <i_lp_mmshare_version>
53161

> <i_f3d_flags>
0

> <r_lp_tautomer_probability>
0.999998432528457

> <s_lp_Force_Field>
OPLS_2005

> <r_lp_Energy>
11.011755

> <b_lp_Chiralities_Consistent>
1

> <s_lp_Variant>
CHEMBL3717_lig4123-1

> <s_i_glide_gridfile>
glide-grid_3lq8

> <i_i_glide_lignum>
5273

> <i_i_glide_rotatable_bonds>
5

> <r_i_docking_score>
-6.90864826283431

> <r_i_glide_ligand_efficiency>
-0.314029466492469

> <r_i_glide_ligand_efficiency_sa>
-0.879922915189999

> <r_i_glide_ligand_efficiency_ln>
-1.68872563450498

> <r_i_glide_gscore>
-6.90864826283431

> <r_i_glide_lipo>
-3.19195196721935

> <r_i_glide_hbond>
0

> <r_i_glide_metal>
0

> <r_i_glide_rewards>
-2.25363040181415

> <r_i_glide_evdw>
-36.196891784668

> <r_i_glide_ecoul>
-2.69235849380493

> <r_i_glide_erotb>
0.750632469503316

> <r_i_glide_esite>
0

> <r_i_glide_emodel>
-55.4600177999842

> <r_i_glide_energy>
-38.8892502784729

> <r_i_glide_einternal>
0.897850155830383

> <i_i_glide_confnum>
21

> <i_i_glide_posenum>
92

> <r_i_glide_eff_state_penalty>
0

> <s_user_duplicate_titles>
CHEMBL3717_lig4123

> <s_m_subgroup_title>
dock_pv

> <s_m_subgroupid>
dock_pv

> <b_m_subgroup_collapsed>
1

$$$$
CHEMBL3717_lig4378
                    3D
 Schrodinger Suite 2021-1.
 41 45  0  0  1  0            999 V2000
    0.0800    3.2483   31.4013 F   0  0  0  0  0  0
   -0.8424    4.1535   31.0080 C   0  0  0  0  0  0
   -0.4399    5.4245   30.6080 C   0  0  0  0  0  0
   -1.3924    6.3567   30.2083 C   0  0  0  0  0  0
   -1.0045    7.5825   29.8080 F   0  0  0  0  0  0
   -2.7446    6.0192   30.2182 C   0  0  0  0  0  0
   -3.1735    4.7414   30.6079 C   0  0  0  0  0  0
   -2.1972    3.8157   31.0080 C   0  0  0  0  0  0
   -4.6208    4.3770   30.5371 C   0  0  0  0  0  0
   -5.6189    5.3414   30.7628 C   0  0  0  0  0  0
   -6.9575    5.1342   30.6612 N   0  0  0  0  0  0
   -7.2907    3.8908   30.3342 C   0  0  0  0  0  0
   -8.5781    3.5033   30.1361 O   0  0  0  0  0  0
   -8.5548    2.1453   29.7928 N   0  0  0  0  0  0
   -7.3040    1.7215   29.8388 C   0  0  0  0  0  0
   -6.4194    2.8182   30.1185 C   0  0  0  0  0  0
   -5.0381    3.0722   30.2098 C   0  0  0  0  0  0
   -6.9811    0.2487   29.5873 C   0  0  0  0  0  0
   -6.8938    0.0267   28.2741 F   0  0  0  0  0  0
   -7.9534   -0.5419   30.0485 F   0  0  0  0  0  0
   -5.7095   -0.2166   30.3116 C   0  0  0  0  0  0
   -5.5540    0.0761   31.6691 C   0  0  0  0  0  0
   -4.4117   -0.3063   32.3607 C   0  0  0  0  0  0
   -3.3877   -1.0210   31.7161 C   0  0  0  0  0  0
   -2.2917   -1.3813   32.4386 N   0  0  0  0  0  0
   -1.3236   -2.0862   31.8122 C   0  0  0  0  0  0
   -1.3816   -2.4430   30.4685 C   0  0  0  0  0  0
   -2.4929   -2.0713   29.7127 C   0  0  0  0  0  0
   -3.5379   -1.3472   30.3362 C   0  0  0  0  0  0
   -4.7094   -0.9399   29.6535 C   0  0  0  0  0  0
    0.6077    5.6851   30.6046 H   0  0  0  0  0  0
   -3.4556    6.7561   29.8823 H   0  0  0  0  0  0
   -2.4810    2.8212   31.3236 H   0  0  0  0  0  0
   -5.3536    6.3578   31.0118 H   0  0  0  0  0  0
   -4.3233    2.2854   30.0189 H   0  0  0  0  0  0
   -6.3249    0.6196   32.1995 H   0  0  0  0  0  0
   -4.3072   -0.0450   33.4024 H   0  0  0  0  0  0
   -0.4868   -2.3784   32.4250 H   0  0  0  0  0  0
   -0.5795   -3.0111   30.0268 H   0  0  0  0  0  0
   -2.5715   -2.3381   28.6684 H   0  0  0  0  0  0
   -4.8158   -1.1988   28.6136 H   0  0  0  0  0  0
  1  2  1  0  0  0
  2  3  2  0  0  0
  2  8  1  0  0  0
  3  4  1  0  0  0
  3 31  1  0  0  0
  4  5  1  0  0  0
  4  6  2  0  0  0
  6  7  1  0  0  0
  6 32  1  0  0  0
  7  8  2  0  0  0
  7  9  1  0  0  0
  8 33  1  0  0  0
  9 10  2  0  0  0
  9 17  1  0  0  0
 10 11  1  0  0  0
 10 34  1  0  0  0
 11 12  2  0  0  0
 12 13  1  0  0  0
 12 16  1  0  0  0
 13 14  1  0  0  0
 14 15  2  0  0  0
 15 16  1  0  0  0
 15 18  1  0  0  0
 16 17  2  0  0  0
 17 35  1  0  0  0
 18 19  1  0  0  0
 18 20  1  0  0  0
 18 21  1  0  0  0
 21 22  2  0  0  0
 21 30  1  0  0  0
 22 23  1  0  0  0
 22 36  1  0  0  0
 23 24  2  0  0  0
 23 37  1  0  0  0
 24 25  1  0  0  0
 24 29  1  0  0  0
 25 26  2  0  0  0
 26 27  1  0  0  0
 26 38  1  0  0  0
 27 28  2  0  0  0
 27 39  1  0  0  0
 28 29  1  0  0  0
 28 40  1  0  0  0
 29 30  2  0  0  0
 30 41  1  0  0  0
M  END
> <s_m_entry_id>
10587

> <s_m_entry_name>
dock_pv.656

> <s_m_Source_Path>
/home/csk/Desktop/cluster/DUD-E-result/met

> <s_m_Source_File>
dock_pv.maegz

> <i_m_Source_File_Index>
656

> <chembl_id>
CHEMBL3668203

> <chembl_pref_name>
None

> <i_lp_mmshare_version>
53161

> <i_f3d_flags>
0

> <r_lp_tautomer_probability>
1

> <s_lp_Force_Field>
OPLS_2005

> <r_lp_Energy>
28.778035

> <b_lp_Chiralities_Consistent>
1

> <s_lp_Variant>
CHEMBL3717_lig4378-1

> <s_i_glide_gridfile>
glide-grid_3lq8

> <i_i_glide_lignum>
5604

> <i_i_glide_rotatable_bonds>
3

> <r_i_docking_score>
-6.90364459009748

> <r_i_glide_ligand_efficiency>
-0.230121486336583

> <r_i_glide_ligand_efficiency_sa>
-0.715040961852782

> <r_i_glide_ligand_efficiency_ln>
-1.5685832721027

> <r_i_glide_gscore>
-6.90364459009748

> <r_i_glide_lipo>
-3.6344111622688

> <r_i_glide_hbond>
0

> <r_i_glide_metal>
0

> <r_i_glide_rewards>
-1.52943498862181

> <r_i_glide_evdw>
-37.9793586730957

> <r_i_glide_ecoul>
-1.18213093280792

> <r_i_glide_erotb>
0.352535866141762

> <r_i_glide_esite>
-0.0160467317726574

> <r_i_glide_emodel>
-53.4465575252709

> <r_i_glide_energy>
-39.1614896059036

> <r_i_glide_einternal>
3.09304094314575

> <i_i_glide_confnum>
4

> <i_i_glide_posenum>
196

> <r_i_glide_eff_state_penalty>
0

> <s_user_duplicate_titles>
CHEMBL3717_lig4378

> <s_m_subgroup_title>
dock_pv

> <s_m_subgroupid>
dock_pv

> <b_m_subgroup_collapsed>
1

$$$$
CHEMBL3717_lig4197
                    3D
 Schrodinger Suite 2021-1.
 31 34  0  0  1  0            999 V2000
    1.7395    5.4631   30.6090 Br  0  0  0  0  0  0
   -6.1318   -0.9338   30.0760 F   0  0  0  0  0  0
   -8.1552    4.1608   30.1316 N   0  0  0  0  0  0
   -4.1488    5.7951   30.2089 N   0  0  0  0  0  0
   -0.9192    4.5146   30.7441 N   0  0  0  0  0  0
   -2.0656    7.0704   30.1551 N   0  0  0  0  0  0
   -5.8877    4.0404   30.2809 C   0  0  0  0  0  0
   -4.4952    4.4699   30.3774 C   0  0  0  0  0  0
   -6.4211    2.7017   30.2077 C   0  0  0  0  0  0
   -7.8470    2.8131   30.1048 C   0  0  0  0  0  0
   -2.2421    4.6776   30.6080 C   0  0  0  0  0  0
   -2.7866    5.9569   30.3236 C   0  0  0  0  0  0
   -3.3284    3.7495   30.6081 C   0  0  0  0  0  0
   -6.9886    4.8773   30.2146 C   0  0  0  0  0  0
   -5.8534    1.4154   30.1975 C   0  0  0  0  0  0
   -8.6776    1.6893   29.9954 C   0  0  0  0  0  0
   -6.6798    0.3013   30.0884 C   0  0  0  0  0  0
   -0.1532    5.6196   30.5193 C   0  0  0  0  0  0
   -8.0595    0.4394   29.9896 C   0  0  0  0  0  0
   -0.7213    6.8611   30.2080 C   0  0  0  0  0  0
   -9.4838    4.7409   30.0161 C   0  0  0  0  0  0
   -4.8383    6.4945   29.9721 H   0  0  0  0  0  0
   -3.2600    2.6870   30.7716 H   0  0  0  0  0  0
   -7.0427    5.9563   30.2087 H   0  0  0  0  0  0
   -4.7889    1.2693   30.2589 H   0  0  0  0  0  0
   -9.7513    1.7782   29.9162 H   0  0  0  0  0  0
   -8.6641   -0.4522   29.9053 H   0  0  0  0  0  0
   -0.0963    7.7257   30.0328 H   0  0  0  0  0  0
   -9.4505    5.8145   30.2090 H   0  0  0  0  0  0
   -9.8656    4.5677   29.0098 H   0  0  0  0  0  0
  -10.1504    4.2730   30.7410 H   0  0  0  0  0  0
  1 18  1  0  0  0
  2 17  1  0  0  0
  3 10  1  0  0  0
  3 14  1  0  0  0
  3 21  1  0  0  0
  4  8  1  0  0  0
  4 12  1  0  0  0
  4 22  1  0  0  0
  5 11  2  0  0  0
  5 18  1  0  0  0
  6 12  2  0  0  0
  6 20  1  0  0  0
  7  8  1  0  0  0
  7  9  1  0  0  0
  7 14  2  0  0  0
  8 13  2  0  0  0
  9 10  1  0  0  0
  9 15  2  0  0  0
 10 16  2  0  0  0
 11 12  1  0  0  0
 11 13  1  0  0  0
 13 23  1  0  0  0
 14 24  1  0  0  0
 15 17  1  0  0  0
 15 25  1  0  0  0
 16 19  1  0  0  0
 16 26  1  0  0  0
 17 19  2  0  0  0
 18 20  2  0  0  0
 19 27  1  0  0  0
 20 28  1  0  0  0
 21 29  1  0  0  0
 21 30  1  0  0  0
 21 31  1  0  0  0
M  END
> <s_m_entry_id>
10588

> <s_m_entry_name>
dock_pv.657

> <s_m_Source_Path>
/home/csk/Desktop/cluster/DUD-E-result/met

> <s_m_Source_File>
dock_pv.maegz

> <i_m_Source_File_Index>
657

> <chembl_id>
CHEMBL1993335

> <chembl_pref_name>
None

> <i_lp_mmshare_version>
53161

> <i_f3d_flags>
0

> <r_lp_tautomer_probability>
0.999999572927183

> <s_lp_Force_Field>
OPLS_2005

> <r_lp_Energy>
13.056614

> <b_lp_Chiralities_Consistent>
1

> <s_lp_Variant>
CHEMBL3717_lig4197-1

> <s_i_glide_gridfile>
glide-grid_3lq8

> <i_i_glide_lignum>
5389

> <i_i_glide_rotatable_bonds>
1

> <r_i_docking_score>
-6.9032895639906

> <r_i_glide_ligand_efficiency>
-0.328728074475743

> <r_i_glide_ligand_efficiency_sa>
-0.906935831205945

> <r_i_glide_ligand_efficiency_ln>
-1.70682439528666

> <r_i_glide_gscore>
-6.9032895639906

> <r_i_glide_lipo>
-2.37199192537107

> <r_i_glide_hbond>
-0.263807457514541

> <r_i_glide_metal>
0

> <r_i_glide_rewards>
-2.17506671124479

> <r_i_glide_evdw>
-31.6722431182861

> <r_i_glide_ecoul>
-4.11749315261841

> <r_i_glide_erotb>
0.111611050547079

> <r_i_glide_esite>
-0.00279839160020818

> <r_i_glide_emodel>
-49.4630055501789

> <r_i_glide_energy>
-35.7897362709045

> <r_i_glide_einternal>
0.0120271872729063

> <i_i_glide_confnum>
1

> <i_i_glide_posenum>
192

> <r_i_glide_eff_state_penalty>
0

> <s_user_duplicate_titles>
CHEMBL3717_lig4197

> <s_m_subgroup_title>
dock_pv

> <s_m_subgroupid>
dock_pv

> <b_m_subgroup_collapsed>
1

$$$$
CHEMBL3717_lig3420
                    3D
 Schrodinger Suite 2021-1.
 38 40  0  0  1  0            999 V2000
   -0.6059    7.3333   29.8234 C   0  0  0  0  0  0
    0.7060    6.9016   29.7183 C   0  0  0  0  0  0
    1.0602    5.6111   30.0815 C   0  0  0  0  0  0
    0.0878    4.7269   30.5310 C   0  0  0  0  0  0
   -1.2574    5.1342   30.6080 C   0  0  0  0  0  0
   -1.5856    6.4726   30.3025 C   0  0  0  0  0  0
   -3.1517    7.1566   30.6000 Cl  0  0  0  0  0  0
    0.6164    3.1570   31.0145 Cl  0  0  0  0  0  0
   -2.3367    4.1390   31.0080 C   0  0  0  0  0  0
   -3.5011    4.3570   30.2080 O   0  0  0  0  0  0
   -4.5776    3.5168   30.3753 C   0  0  0  0  0  0
   -5.8529    4.0522   30.6080 C   0  0  0  0  0  0
   -6.9554    3.2857   30.7653 N   0  0  0  0  0  0
   -6.8119    1.9425   30.6667 C   0  0  0  0  0  0
   -5.5950    1.3058   30.3821 C   0  0  0  0  0  0
   -4.4659    2.1269   30.2424 C   0  0  0  0  0  0
   -6.0542    5.4260   30.6715 N   0  0  0  0  0  0
   -5.5199   -0.1714   30.1933 C   0  0  0  0  0  0
   -6.6023   -0.8598   29.6303 C   0  0  0  0  0  0
   -6.5342   -2.2285   29.4080 C   0  0  0  0  0  0
   -5.3703   -2.9217   29.7143 C   0  0  0  0  0  0
   -4.2920   -2.2657   30.3016 C   0  0  0  0  0  0
   -4.3703   -0.8950   30.5441 C   0  0  0  0  0  0
   -5.2940   -4.2531   29.4080 O   0  0  0  0  0  0
   -0.8523    8.3570   29.5904 H   0  0  0  0  0  0
    1.4774    7.5804   29.4080 H   0  0  0  0  0  0
    2.0938    5.3013   30.0246 H   0  0  0  0  0  0
   -1.9960    3.1113   30.8896 H   0  0  0  0  0  0
   -2.4940    4.3121   32.0679 H   0  0  0  0  0  0
   -7.7199    1.3746   30.8071 H   0  0  0  0  0  0
   -3.5092    1.6916   29.9974 H   0  0  0  0  0  0
   -5.2936    6.0208   30.3734 H   0  0  0  0  0  0
   -7.0047    5.7589   30.6079 H   0  0  0  0  0  0
   -7.4994   -0.3373   29.3342 H   0  0  0  0  0  0
   -7.3682   -2.7453   28.9571 H   0  0  0  0  0  0
   -3.3918   -2.8104   30.5476 H   0  0  0  0  0  0
   -3.5227   -0.3968   30.9904 H   0  0  0  0  0  0
   -4.5747   -4.7150   29.8805 H   0  0  0  0  0  0
  1  6  1  0  0  0
  1  2  2  0  0  0
  1 25  1  0  0  0
  2  3  1  0  0  0
  2 26  1  0  0  0
  3  4  2  0  0  0
  3 27  1  0  0  0
  4  8  1  0  0  0
  4  5  1  0  0  0
  5  6  2  0  0  0
  5  9  1  0  0  0
  6  7  1  0  0  0
  9 10  1  0  0  0
  9 28  1  0  0  0
  9 29  1  0  0  0
 10 11  1  0  0  0
 11 16  2  0  0  0
 11 12  1  0  0  0
 12 13  2  0  0  0
 12 17  1  0  0  0
 13 14  1  0  0  0
 14 15  2  0  0  0
 14 30  1  0  0  0
 15 16  1  0  0  0
 15 18  1  0  0  0
 16 31  1  0  0  0
 17 32  1  0  0  0
 17 33  1  0  0  0
 18 19  2  0  0  0
 18 23  1  0  0  0
 19 20  1  0  0  0
 19 34  1  0  0  0
 20 21  2  0  0  0
 20 35  1  0  0  0
 21 22  1  0  0  0
 21 24  1  0  0  0
 22 23  2  0  0  0
 22 36  1  0  0  0
 23 37  1  0  0  0
 24 38  1  0  0  0
M  END
> <s_m_entry_id>
10589

> <s_m_entry_name>
dock_pv.658

> <s_m_Source_Path>
/home/csk/Desktop/cluster/DUD-E-result/met

> <s_m_Source_File>
dock_pv.maegz

> <i_m_Source_File_Index>
658

> <chembl_id>
CHEMBL1825139

> <chembl_pref_name>
None

> <i_lp_mmshare_version>
53161

> <i_f3d_flags>
0

> <r_lp_tautomer_probability>
0.999999404450526

> <s_lp_Force_Field>
OPLS_2005

> <r_lp_Energy>
19.863774

> <b_lp_Chiralities_Consistent>
1

> <s_lp_Variant>
CHEMBL3717_lig3420-1

> <s_i_glide_gridfile>
glide-grid_3lq8

> <i_i_glide_lignum>
4206

> <i_i_glide_rotatable_bonds>
5

> <r_i_docking_score>
-6.90322837182063

> <r_i_glide_ligand_efficiency>
-0.287634515492526

> <r_i_glide_ligand_efficiency_sa>
-0.829681511870426

> <r_i_glide_ligand_efficiency_ln>
-1.65225931788575

> <r_i_glide_gscore>
-6.90322837182063

> <r_i_glide_lipo>
-2.98558703426426

> <r_i_glide_hbond>
-0.16

> <r_i_glide_metal>
0

> <r_i_glide_rewards>
-1.61182189226324

> <r_i_glide_evdw>
-30.2572479248047

> <r_i_glide_ecoul>
-8.14121150970459

> <r_i_glide_erotb>
0.588224677402798

> <r_i_glide_esite>
0

> <r_i_glide_emodel>
-49.1967609931919

> <r_i_glide_energy>
-38.3984594345093

> <r_i_glide_einternal>
7.77661991119385

> <i_i_glide_confnum>
7

> <i_i_glide_posenum>
76

> <r_i_glide_eff_state_penalty>
0

> <s_user_duplicate_titles>
CHEMBL3717_lig3420

> <s_m_subgroup_title>
dock_pv

> <s_m_subgroupid>
dock_pv

> <b_m_subgroup_collapsed>
1

$$$$
CHEMBL3717_lig4013
                    3D
 Schrodinger Suite 2021-1.
 26 27  0  0  1  0            999 V2000
   -1.3556    3.9180   31.0080 S   0  0  0  0  0  0
    1.6300    4.1393   31.1774 S   0  0  0  0  0  0
   -1.6940    7.5570   29.8355 O   0  0  0  0  0  0
   -5.4298    0.8031   29.9801 O   0  0  0  0  0  0
   -7.9062    1.7826   30.5558 O   0  0  0  0  0  0
   -0.1256    6.0466   30.4332 N   0  0  0  0  0  0
   -2.2923    5.3185   30.4513 C   0  0  0  0  0  0
   -1.3913    6.4256   30.2080 C   0  0  0  0  0  0
   -4.7017    4.4501   30.3469 C   0  0  0  0  0  0
   -3.6236    5.4565   30.2339 C   0  0  0  0  0  0
    0.1431    4.7915   30.8504 C   0  0  0  0  0  0
   -5.5611    2.1622   30.2080 C   0  0  0  0  0  0
   -4.4943    3.0755   30.1599 C   0  0  0  0  0  0
   -6.8445    2.6455   30.4903 C   0  0  0  0  0  0
   -5.9990    4.9019   30.6093 C   0  0  0  0  0  0
   -7.0628    4.0068   30.6869 C   0  0  0  0  0  0
   -4.1879    0.2861   29.5094 C   0  0  0  0  0  0
   -7.6192    0.8771   30.4074 H   0  0  0  0  0  0
    0.6235    6.7064   30.2916 H   0  0  0  0  0  0
   -3.9847    6.4216   29.9014 H   0  0  0  0  0  0
   -3.5075    2.7173   29.9234 H   0  0  0  0  0  0
   -6.1963    5.9570   30.7392 H   0  0  0  0  0  0
   -8.0608    4.3702   30.8841 H   0  0  0  0  0  0
   -4.2905   -0.7831   29.3227 H   0  0  0  0  0  0
   -3.8884    0.7531   28.5693 H   0  0  0  0  0  0
   -3.3934    0.4168   30.2455 H   0  0  0  0  0  0
  1  7  1  0  0  0
  1 11  1  0  0  0
  2 11  2  0  0  0
  3  8  2  0  0  0
  4 12  1  0  0  0
  4 17  1  0  0  0
  5 14  1  0  0  0
  5 18  1  0  0  0
  6  8  1  0  0  0
  6 11  1  0  0  0
  6 19  1  0  0  0
  7  8  1  0  0  0
  7 10  2  3  0  0
  9 10  1  0  0  0
  9 13  1  0  0  0
  9 15  2  0  0  0
 10 20  1  0  0  0
 12 13  2  0  0  0
 12 14  1  0  0  0
 13 21  1  0  0  0
 14 16  2  0  0  0
 15 16  1  0  0  0
 15 22  1  0  0  0
 16 23  1  0  0  0
 17 24  1  0  0  0
 17 25  1  0  0  0
 17 26  1  0  0  0
M  END
> <s_m_entry_id>
10591

> <s_m_entry_name>
dock_pv.660

> <s_m_Source_Path>
/home/csk/Desktop/cluster/DUD-E-result/met

> <s_m_Source_File>
dock_pv.maegz

> <i_m_Source_File_Index>
660

> <chembl_id>
CHEMBL1973098

> <chembl_pref_name>
None

> <i_lp_mmshare_version>
53161

> <i_f3d_flags>
0

> <r_lp_tautomer_probability>
1

> <s_lp_Force_Field>
OPLS_2005

> <r_lp_Energy>
13.302511

> <b_lp_Chiralities_Consistent>
1

> <s_lp_Variant>
CHEMBL3717_lig4013-2

> <s_i_glide_gridfile>
glide-grid_3lq8

> <i_i_glide_lignum>
5109

> <i_i_glide_rotatable_bonds>
3

> <r_i_docking_score>
-6.90124344609075

> <r_i_glide_ligand_efficiency>
-0.405955496828868

> <r_i_glide_ligand_efficiency_sa>
-1.04382589463679

> <r_i_glide_ligand_efficiency_ln>
-1.80038073194956

> <r_i_glide_gscore>
-6.90124344609075

> <r_i_glide_lipo>
-2.10680929467161

> <r_i_glide_hbond>
-0.0471266817443816

> <r_i_glide_metal>
0

> <r_i_glide_rewards>
-3.14594964026354

> <r_i_glide_evdw>
-34.8624496459961

> <r_i_glide_ecoul>
-0.718245208263397

> <r_i_glide_erotb>
0.249501434128099

> <r_i_glide_esite>
0

> <r_i_glide_emodel>
-49.6610903454107

> <r_i_glide_energy>
-35.5806948542595

> <r_i_glide_einternal>
1.28677141666412

> <i_i_glide_confnum>
1

> <i_i_glide_posenum>
162

> <r_i_glide_eff_state_penalty>
0

> <s_user_duplicate_titles>
CHEMBL3717_lig4013

> <s_m_subgroup_title>
dock_pv

> <s_m_subgroupid>
dock_pv

> <b_m_subgroup_collapsed>
1

$$$$
CHEMBL3717_lig670
                    3D
 Schrodinger Suite 2021-1.
 53 56  0  0  1  0            999 V2000
   -2.2715    5.8699   30.7979 C   0  0  0  0  0  0
   -3.5474    6.3800   30.6059 C   0  0  0  0  0  0
   -4.6222    5.5370   30.3780 C   0  0  0  0  0  0
   -2.0160    4.4933   30.8246 C   0  0  0  0  0  0
   -3.1328    3.6058   30.6098 C   0  0  0  0  0  0
   -4.4359    4.1426   30.3763 C   0  0  0  0  0  0
   -5.5306    3.3555   30.2080 N   0  0  0  0  0  0
   -5.3838    2.0139   30.3011 C   0  0  0  0  0  0
   -4.1759    1.3614   30.5733 C   0  0  0  0  0  0
   -3.0483    2.1871   30.7046 C   0  0  0  0  0  0
   -4.1313   -0.0229   30.7927 N   0  0  0  0  0  0
   -5.2306   -0.9151   30.3638 C   0  0  0  0  0  0
   -5.1172   -2.4175   30.7312 C   0  0  0  0  0  0
   -4.3949   -2.5360   32.0034 N   0  0  0  0  0  0
   -3.0257   -2.0011   32.0150 C   0  0  0  0  0  0
   -2.8963   -0.7916   31.0452 C   0  0  0  0  0  0
   -0.7411    3.9714   31.1535 N   0  0  0  0  0  0
   -4.8079   -3.3529   33.0071 C   0  0  0  0  0  0
    0.8438    4.8227   31.2785 S   0  0  0  0  0  0
    1.8551    4.2217   29.9533 C   0  0  0  0  0  0
    3.2288    4.4535   30.0162 C   0  0  0  0  0  0
    4.0660    4.0275   28.9813 C   0  0  0  0  0  0
    3.5060    3.3196   27.9098 C   0  0  0  0  0  0
    2.1354    3.0944   27.8439 C   0  0  0  0  0  0
    1.3051    3.5569   28.8603 C   0  0  0  0  0  0
    5.5038    4.3587   29.0026 N   0  3  0  0  0  0
    6.0530    4.4824   30.0948 O   0  0  0  0  0  0
    6.0684    4.5238   27.9246 O   0  5  0  0  0  0
    0.6945    6.2536   31.0079 O   0  0  0  0  0  0
    1.5060    4.3574   32.5018 O   0  0  0  0  0  0
   -6.2617   -3.8270   33.0322 C   0  0  0  0  0  0
   -4.0974   -3.6427   33.9746 O   0  0  0  0  0  0
   -1.5107    6.5998   30.9946 H   0  0  0  0  0  0
   -3.7089    7.4459   30.6382 H   0  0  0  0  0  0
   -5.6111    5.9469   30.2213 H   0  0  0  0  0  0
   -6.3060    1.4644   30.1914 H   0  0  0  0  0  0
   -2.0940    1.7643   30.9324 H   0  0  0  0  0  0
   -6.1133   -0.5647   30.8990 H   0  0  0  0  0  0
   -5.3643   -0.8356   29.2838 H   0  0  0  0  0  0
   -4.4736   -2.9049   29.9956 H   0  0  0  0  0  0
   -6.0678   -2.9458   30.6647 H   0  0  0  0  0  0
   -2.8628   -1.5749   33.0064 H   0  0  0  0  0  0
   -2.2716   -2.7481   31.7606 H   0  0  0  0  0  0
   -2.0940   -0.1681   31.4149 H   0  0  0  0  0  0
   -2.5922   -1.1628   30.0649 H   0  0  0  0  0  0
   -0.6932    2.9776   31.3116 H   0  0  0  0  0  0
    3.6382    4.9961   30.8582 H   0  0  0  0  0  0
    4.1307    2.9533   27.1101 H   0  0  0  0  0  0
    1.7129    2.5593   27.0050 H   0  0  0  0  0  0
    0.2427    3.3777   28.7913 H   0  0  0  0  0  0
   -6.4065   -4.6333   32.3140 H   0  0  0  0  0  0
   -6.9454   -3.0105   32.7978 H   0  0  0  0  0  0
   -6.5218   -4.2032   34.0208 H   0  0  0  0  0  0
  1  4  1  0  0  0
  1  2  2  0  0  0
  1 33  1  0  0  0
  2  3  1  0  0  0
  2 34  1  0  0  0
  3  6  2  0  0  0
  3 35  1  0  0  0
  4 17  1  0  0  0
  4  5  2  0  0  0
  5 10  1  0  0  0
  5  6  1  0  0  0
  6  7  1  0  0  0
  7  8  2  0  0  0
  8  9  1  0  0  0
  8 36  1  0  0  0
  9 10  2  0  0  0
  9 11  1  0  0  0
 10 37  1  0  0  0
 11 12  1  0  0  0
 11 16  1  0  0  0
 12 13  1  0  0  0
 12 38  1  0  0  0
 12 39  1  0  0  0
 13 14  1  0  0  0
 13 40  1  0  0  0
 13 41  1  0  0  0
 14 15  1  0  0  0
 14 18  1  0  0  0
 15 16  1  0  0  0
 15 42  1  0  0  0
 15 43  1  0  0  0
 16 44  1  0  0  0
 16 45  1  0  0  0
 17 19  1  0  0  0
 17 46  1  0  0  0
 18 31  1  0  0  0
 18 32  2  0  0  0
 19 20  1  0  0  0
 19 29  2  0  0  0
 19 30  2  0  0  0
 20 21  2  0  0  0
 20 25  1  0  0  0
 21 22  1  0  0  0
 21 47  1  0  0  0
 22 23  2  0  0  0
 22 26  1  0  0  0
 23 24  1  0  0  0
 23 48  1  0  0  0
 24 25  2  0  0  0
 24 49  1  0  0  0
 25 50  1  0  0  0
 26 27  2  0  0  0
 26 28  1  0  0  0
 31 51  1  0  0  0
 31 52  1  0  0  0
 31 53  1  0  0  0
M  CHG  2  26   1  28  -1
M  END
> <s_m_entry_id>
10592

> <s_m_entry_name>
dock_pv.661

> <s_m_Source_Path>
/home/csk/Desktop/cluster/DUD-E-result/met

> <s_m_Source_File>
dock_pv.maegz

> <i_m_Source_File_Index>
661

> <chembl_id>
CHEMBL1766519

> <chembl_pref_name>
None

> <i_lp_mmshare_version>
53161

> <i_f3d_flags>
0

> <r_lp_tautomer_probability>
1

> <s_lp_Force_Field>
OPLS_2005

> <r_lp_Energy>
47.535397

> <b_lp_Chiralities_Consistent>
1

> <s_lp_Variant>
CHEMBL3717_lig670-1

> <s_i_glide_gridfile>
glide-grid_3lq8

> <i_i_glide_lignum>
728

> <i_i_glide_rotatable_bonds>
6

> <r_i_docking_score>
-6.89907698637473

> <r_i_glide_ligand_efficiency>
-0.21559615582421

> <r_i_glide_ligand_efficiency_sa>
-0.684475128320566

> <r_i_glide_ligand_efficiency_ln>
-1.54489139898521

> <r_i_glide_gscore>
-6.89907698637473

> <r_i_glide_lipo>
-3.84567432549275

> <r_i_glide_hbond>
0

> <r_i_glide_metal>
0

> <r_i_glide_rewards>
-0.277067964363056

> <r_i_glide_evdw>
-52.3713188171387

> <r_i_glide_ecoul>
-2.94748425483704

> <r_i_glide_erotb>
0.387324133992444

> <r_i_glide_esite>
-0.102970251428884

> <r_i_glide_emodel>
-67.4195053277999

> <r_i_glide_energy>
-55.3188030719757

> <r_i_glide_einternal>
9.61118412017822

> <i_i_glide_confnum>
23

> <i_i_glide_posenum>
204

> <r_i_glide_eff_state_penalty>
0

> <s_user_duplicate_titles>
CHEMBL3717_lig670

> <s_m_subgroup_title>
dock_pv

> <s_m_subgroupid>
dock_pv

> <b_m_subgroup_collapsed>
1

$$$$
CHEMBL3717_lig4041
                    3D
 Schrodinger Suite 2021-1.
 53 55  0  0  1  0            999 V2000
   -1.6922   -0.6337   33.0464 O   0  0  0  0  0  0
   -3.1150    1.3177   31.1419 N   0  0  0  0  0  0
   -5.0116    1.6358   30.0139 N   0  0  0  0  0  0
   -2.3194    4.0075   30.8250 N   0  0  0  0  0  0
   -0.6071    5.6525   31.0077 N   0  0  0  0  0  0
   -1.2916   -2.4430   31.8033 N   0  0  0  0  0  0
    3.5414    3.6220   29.5290 N   0  0  0  0  0  0
   -3.7213    0.1097   30.9412 C   0  0  0  0  0  0
   -4.9205    0.2750   30.2015 C   0  0  0  0  0  0
   -3.9031    2.2095   30.5950 C   0  0  0  0  0  0
   -3.2932   -1.1671   31.3484 C   0  0  0  0  0  0
   -3.6176    3.6734   30.6066 C   0  0  0  0  0  0
   -5.7205   -0.8034   29.8244 C   0  0  0  0  0  0
   -4.1082   -2.2412   30.9618 C   0  0  0  0  0  0
   -2.0427   -1.4012   32.1545 C   0  0  0  0  0  0
   -5.2780   -2.0655   30.2217 C   0  0  0  0  0  0
   -4.5999    4.6422   30.3911 C   0  0  0  0  0  0
   -1.9523    5.3124   30.8093 C   0  0  0  0  0  0
   -4.2188    5.9815   30.4008 C   0  0  0  0  0  0
   -2.8840    6.3295   30.6077 C   0  0  0  0  0  0
    0.4035    4.6534   31.3484 C   0  0  0  0  0  0
    1.1843    4.1151   30.1456 C   0  0  0  0  0  0
    2.6258    4.6522   30.0419 C   0  0  0  0  0  0
    3.4961    3.4210   28.0742 C   0  0  0  0  0  0
    4.9175    3.8176   30.0070 C   0  0  0  0  0  0
    2.2263    2.7592   27.5377 C   0  0  0  0  0  0
    5.6514    5.0339   29.4103 C   0  0  0  0  0  0
   -5.7300    2.1596   29.5408 H   0  0  0  0  0  0
   -0.3030    6.5846   30.7750 H   0  0  0  0  0  0
   -1.5844   -3.0502   31.0513 H   0  0  0  0  0  0
   -0.4042   -2.5833   32.2659 H   0  0  0  0  0  0
   -6.6246   -0.6803   29.2487 H   0  0  0  0  0  0
   -3.8410   -3.2437   31.2510 H   0  0  0  0  0  0
   -5.8593   -2.9357   29.9535 H   0  0  0  0  0  0
   -5.6313    4.3711   30.2230 H   0  0  0  0  0  0
   -4.9542    6.7531   30.2242 H   0  0  0  0  0  0
   -2.5815    7.3659   30.6079 H   0  0  0  0  0  0
   -0.0835    3.7991   31.8123 H   0  0  0  0  0  0
    1.0610    5.0370   32.1284 H   0  0  0  0  0  0
    0.6408    4.3824   29.2403 H   0  0  0  0  0  0
    1.1720    3.0246   30.1541 H   0  0  0  0  0  0
    2.9553    4.9844   31.0272 H   0  0  0  0  0  0
    2.6611    5.5444   29.4108 H   0  0  0  0  0  0
    4.3061    2.7573   27.7940 H   0  0  0  0  0  0
    3.6579    4.3650   27.5628 H   0  0  0  0  0  0
    4.8965    3.9129   31.0934 H   0  0  0  0  0  0
    5.4936    2.9105   29.8175 H   0  0  0  0  0  0
    2.4070    2.3258   26.5540 H   0  0  0  0  0  0
    1.4180    3.4754   27.4205 H   0  0  0  0  0  0
    1.8971    1.9597   28.1956 H   0  0  0  0  0  0
    6.6359    5.1458   29.8645 H   0  0  0  0  0  0
    5.8016    4.9348   28.3344 H   0  0  0  0  0  0
    5.1072    5.9580   29.5895 H   0  0  0  0  0  0
  1 15  2  0  0  0
  2  8  1  0  0  0
  2 10  2  0  0  0
  3  9  1  0  0  0
  3 10  1  0  0  0
  3 28  1  0  0  0
  4 12  2  0  0  0
  4 18  1  0  0  0
  5 18  1  0  0  0
  5 21  1  0  0  0
  5 29  1  0  0  0
  6 15  1  0  0  0
  6 30  1  0  0  0
  6 31  1  0  0  0
  7 23  1  0  0  0
  7 24  1  0  0  0
  7 25  1  0  0  0
  8  9  1  0  0  0
  8 11  2  0  0  0
  9 13  2  0  0  0
 10 12  1  0  0  0
 11 14  1  0  0  0
 11 15  1  0  0  0
 12 17  1  0  0  0
 13 16  1  0  0  0
 13 32  1  0  0  0
 14 16  2  0  0  0
 14 33  1  0  0  0
 16 34  1  0  0  0
 17 19  2  0  0  0
 17 35  1  0  0  0
 18 20  2  0  0  0
 19 20  1  0  0  0
 19 36  1  0  0  0
 20 37  1  0  0  0
 21 22  1  0  0  0
 21 38  1  0  0  0
 21 39  1  0  0  0
 22 23  1  0  0  0
 22 40  1  0  0  0
 22 41  1  0  0  0
 23 42  1  0  0  0
 23 43  1  0  0  0
 24 26  1  0  0  0
 24 44  1  0  0  0
 24 45  1  0  0  0
 25 27  1  0  0  0
 25 46  1  0  0  0
 25 47  1  0  0  0
 26 48  1  0  0  0
 26 49  1  0  0  0
 26 50  1  0  0  0
 27 51  1  0  0  0
 27 52  1  0  0  0
 27 53  1  0  0  0
M  END
> <s_m_entry_id>
10593

> <s_m_entry_name>
dock_pv.662

> <s_m_Source_Path>
/home/csk/Desktop/cluster/DUD-E-result/met

> <s_m_Source_File>
dock_pv.maegz

> <i_m_Source_File_Index>
662

> <chembl_id>
CHEMBL1972276

> <chembl_pref_name>
None

> <i_lp_mmshare_version>
53161

> <i_f3d_flags>
0

> <r_lp_tautomer_probability>
0.999999772200052

> <s_lp_Force_Field>
OPLS_2005

> <r_lp_Energy>
20.298365

> <b_lp_Chiralities_Consistent>
1

> <s_lp_Variant>
CHEMBL3717_lig4041-1

> <s_i_glide_gridfile>
glide-grid_3lq8

> <i_i_glide_lignum>
5153

> <i_i_glide_rotatable_bonds>
9

> <r_i_docking_score>
-6.8979557436345

> <r_i_glide_ligand_efficiency>
-0.255479842356833

> <r_i_glide_ligand_efficiency_sa>
-0.76643952622848

> <r_i_glide_ligand_efficiency_ln>
-1.60573037542985

> <r_i_glide_gscore>
-6.8979557436345

> <r_i_glide_lipo>
-3.44385842640713

> <r_i_glide_hbond>
-0.12693657481226

> <r_i_glide_metal>
0

> <r_i_glide_rewards>
-1.55883494210461

> <r_i_glide_evdw>
-45.5581932067871

> <r_i_glide_ecoul>
-2.33581471443176

> <r_i_glide_erotb>
0.859956067193614

> <r_i_glide_esite>
0

> <r_i_glide_emodel>
-63.0611647841684

> <r_i_glide_energy>
-47.8940079212189

> <r_i_glide_einternal>
11.2817478179932

> <i_i_glide_confnum>
3

> <i_i_glide_posenum>
59

> <r_i_glide_eff_state_penalty>
0

> <s_user_duplicate_titles>
CHEMBL3717_lig4041

> <s_m_subgroup_title>
dock_pv

> <s_m_subgroupid>
dock_pv

> <b_m_subgroup_collapsed>
1

$$$$
CHEMBL3717_lig3857
                    3D
 Schrodinger Suite 2021-1.
 43 46  0  0  1  0            999 V2000
   -1.6070    7.1497   30.2078 N   0  0  0  0  0  0
   -3.5466    2.9573   30.5883 N   0  0  0  0  0  0
    0.6736    6.3468   30.3591 N   0  0  0  0  0  0
   -4.0908    0.7362   30.2906 N   0  0  0  0  0  0
   -5.8475    2.3684   30.1799 N   0  0  0  0  0  0
   -6.4273    0.1150   32.1954 N   0  0  0  0  0  0
   -2.7523    5.2316   30.6072 C   0  0  0  0  0  0
   -1.3367    4.9692   30.7272 C   0  0  0  0  0  0
   -3.8922    4.2702   30.6079 C   0  0  0  0  0  0
   -0.6524    6.1837   30.4235 C   0  0  0  0  0  0
   -2.8515    6.5855   30.3695 C   0  0  0  0  0  0
   -4.5336    2.0597   30.3596 C   0  0  0  0  0  0
   -0.5391    3.8473   31.0091 C   0  0  0  0  0  0
   -5.2275    4.6793   30.4923 C   0  0  0  0  0  0
   -4.9746   -0.4269   30.1688 C   0  0  2  0  0  0
   -6.1795    3.6815   30.2737 C   0  0  0  0  0  0
    0.8489    3.9876   30.9531 C   0  0  0  0  0  0
    1.3981    5.2271   30.6247 C   0  0  0  0  0  0
   -5.5513   -0.8534   31.5551 C   0  0  1  0  0  0
   -4.1343   -1.5778   29.5624 C   0  0  0  0  0  0
   -4.4391   -1.3399   32.5054 C   0  0  0  0  0  0
   -3.0046   -2.0540   30.5002 C   0  0  0  0  0  0
   -3.5560   -2.4412   31.8853 C   0  0  0  0  0  0
   -1.4499    8.1193   29.9630 H   0  0  0  0  0  0
   -3.1563    0.5601   30.6192 H   0  0  0  0  0  0
   -7.3579    0.0782   31.8101 H   0  0  0  0  0  0
   -6.4971   -0.0454   33.1982 H   0  0  0  0  0  0
   -3.7499    7.1570   30.2141 H   0  0  0  0  0  0
   -0.9888    2.8980   31.2512 H   0  0  0  0  0  0
   -5.5156    5.7181   30.5165 H   0  0  0  0  0  0
   -5.8039   -0.1715   29.5076 H   0  0  0  0  0  0
   -7.2235    3.9274   30.1445 H   0  0  0  0  0  0
    1.4909    3.1429   31.1528 H   0  0  0  0  0  0
    2.4709    5.3345   30.5653 H   0  0  0  0  0  0
   -6.1768   -1.7237   31.3501 H   0  0  0  0  0  0
   -4.7880   -2.4185   29.3270 H   0  0  0  0  0  0
   -3.7006   -1.2733   28.6101 H   0  0  0  0  0  0
   -3.8089   -0.4976   32.7948 H   0  0  0  0  0  0
   -4.8960   -1.7296   33.4139 H   0  0  0  0  0  0
   -2.2490   -1.2749   30.6086 H   0  0  0  0  0  0
   -2.4904   -2.9074   30.0562 H   0  0  0  0  0  0
   -2.7308   -2.6857   32.5545 H   0  0  0  0  0  0
   -4.1435   -3.3553   31.7924 H   0  0  0  0  0  0
  1 10  1  0  0  0
  1 11  1  0  0  0
  1 24  1  0  0  0
  2  9  2  0  0  0
  2 12  1  0  0  0
  3 10  2  0  0  0
  3 18  1  0  0  0
  4 12  1  0  0  0
  4 15  1  0  0  0
  4 25  1  0  0  0
  5 12  2  0  0  0
  5 16  1  0  0  0
  6 19  1  0  0  0
  6 26  1  0  0  0
  6 27  1  0  0  0
  7  8  1  0  0  0
  7  9  1  0  0  0
  7 11  2  0  0  0
  8 10  1  0  0  0
  8 13  2  0  0  0
  9 14  1  0  0  0
 11 28  1  0  0  0
 13 17  1  0  0  0
 13 29  1  0  0  0
 14 16  2  0  0  0
 14 30  1  0  0  0
 15 19  1  0  0  0
 15 20  1  0  0  0
 15 31  1  0  0  0
 16 32  1  0  0  0
 17 18  2  0  0  0
 17 33  1  0  0  0
 18 34  1  0  0  0
 19 21  1  0  0  0
 19 35  1  0  0  0
 20 22  1  0  0  0
 20 36  1  0  0  0
 20 37  1  0  0  0
 21 23  1  0  0  0
 21 38  1  0  0  0
 21 39  1  0  0  0
 22 23  1  0  0  0
 22 40  1  0  0  0
 22 41  1  0  0  0
 23 42  1  0  0  0
 23 43  1  0  0  0
M  END
> <s_m_entry_id>
10594

> <s_m_entry_name>
dock_pv.663

> <s_m_Source_Path>
/home/csk/Desktop/cluster/DUD-E-result/met

> <s_m_Source_File>
dock_pv.maegz

> <i_m_Source_File_Index>
663

> <chembl_id>
CHEMBL1995813

> <chembl_pref_name>
None

> <i_lp_mmshare_version>
53161

> <i_f3d_flags>
0

> <r_lp_tautomer_probability>
0.999998420164496

> <s_lp_Force_Field>
OPLS_2005

> <r_lp_Energy>
14.973411

> <b_lp_Chiralities_Consistent>
1

> <s_lp_Variant>
CHEMBL3717_lig3857-3

> <s_i_glide_gridfile>
glide-grid_3lq8

> <i_i_glide_lignum>
4892

> <i_i_glide_rotatable_bonds>
3

> <r_i_docking_score>
-6.89621271033293

> <r_i_glide_ligand_efficiency>
-0.299835335231866

> <r_i_glide_ligand_efficiency_sa>
-0.852691808367426

> <r_i_glide_ligand_efficiency_ln>
-1.66756676475813

> <r_i_glide_gscore>
-6.89621271033293

> <r_i_glide_lipo>
-2.41834323580976

> <r_i_glide_hbond>
-0.32

> <r_i_glide_metal>
0

> <r_i_glide_rewards>
-2.46583484157044

> <r_i_glide_evdw>
-35.3655548095703

> <r_i_glide_ecoul>
-3.38255095481873

> <r_i_glide_erotb>
0.583625750748594

> <r_i_glide_esite>
0

> <r_i_glide_emodel>
-50.488354805865

> <r_i_glide_energy>
-38.748105764389

> <r_i_glide_einternal>
4.26994514465332

> <i_i_glide_confnum>
2

> <i_i_glide_posenum>
261

> <r_i_glide_eff_state_penalty>
0

> <s_user_duplicate_titles>
CHEMBL3717_lig3857

> <s_m_subgroup_title>
dock_pv

> <s_m_subgroupid>
dock_pv

> <b_m_subgroup_collapsed>
1

$$$$
CHEMBL3717_lig2556
                    3D
 Schrodinger Suite 2021-1.
 39 42  0  0  1  0            999 V2000
   -4.0940   -6.5592   26.0284 N   0  0  0  0  0  0
   -4.5526   -5.8409   27.0422 C   0  0  0  0  0  0
   -5.6950   -6.0475   27.4394 O   0  0  0  0  0  0
   -3.7143   -4.8433   27.4473 N   0  0  0  0  0  0
   -3.9966   -3.7153   28.2085 N   0  0  0  0  0  0
   -4.9364   -3.7466   29.0829 C   0  0  0  0  0  0
   -5.5538   -2.6023   29.7489 C   0  0  0  0  0  0
   -6.8726   -2.6983   30.2270 C   0  0  0  0  0  0
   -7.5250   -1.6582   30.8171 N   0  0  0  0  0  0
   -6.8137   -0.5323   30.9227 C   0  0  0  0  0  0
   -7.1642    0.6556   31.4867 N   0  0  0  0  0  0
   -6.0563    1.4749   31.4077 N   0  0  0  0  0  0
   -5.0649    0.8252   30.7569 N   0  0  0  0  0  0
   -3.7063    1.3464   30.6338 C   0  0  0  0  0  0
   -3.4368    2.8527   30.6078 C   0  0  0  0  0  0
   -4.4051    3.8076   30.2733 C   0  0  0  0  0  0
   -4.0831    5.1627   30.2103 C   0  0  0  0  0  0
   -2.7447    5.5833   30.3987 C   0  0  0  0  0  0
   -2.4280    6.8939   30.2080 N   0  0  0  0  0  0
   -1.1174    7.2447   30.2079 C   0  0  0  0  0  0
   -0.0806    6.3556   30.4814 C   0  0  0  0  0  0
   -0.3938    5.0301   30.7683 C   0  0  0  0  0  0
   -1.7460    4.6099   30.7024 C   0  0  0  0  0  0
   -2.1241    3.2606   30.8569 C   0  0  0  0  0  0
   -5.4859   -0.4509   30.4426 C   0  0  0  0  0  0
   -4.8235   -1.4536   29.8507 N   0  0  0  0  0  0
   -3.1101   -6.5261   25.7928 H   0  0  0  0  0  0
   -4.6709   -7.3172   25.7106 H   0  0  0  0  0  0
   -2.8389   -4.7644   26.9498 H   0  0  0  0  0  0
   -5.3725   -4.6880   29.4060 H   0  0  0  0  0  0
   -7.4409   -3.6117   30.1275 H   0  0  0  0  0  0
   -3.1426    0.9048   31.4569 H   0  0  0  0  0  0
   -3.2940    0.9233   29.7183 H   0  0  0  0  0  0
   -5.4191    3.5144   30.0468 H   0  0  0  0  0  0
   -4.8395    5.8907   29.9505 H   0  0  0  0  0  0
   -0.9023    8.2864   30.0127 H   0  0  0  0  0  0
    0.9453    6.6948   30.4900 H   0  0  0  0  0  0
    0.3852    4.3130   30.9851 H   0  0  0  0  0  0
   -1.3593    2.5357   31.0889 H   0  0  0  0  0  0
  1  2  1  0  0  0
  1 27  1  0  0  0
  1 28  1  0  0  0
  2  3  2  0  0  0
  2  4  1  0  0  0
  4  5  1  0  0  0
  4 29  1  0  0  0
  5  6  2  0  0  0
  6  7  1  0  0  0
  6 30  1  0  0  0
  7  8  2  0  0  0
  7 26  1  0  0  0
  8  9  1  0  0  0
  8 31  1  0  0  0
  9 10  2  0  0  0
 10 11  1  0  0  0
 10 25  1  0  0  0
 11 12  2  0  0  0
 12 13  1  0  0  0
 13 14  1  0  0  0
 13 25  1  0  0  0
 14 15  1  0  0  0
 14 32  1  0  0  0
 14 33  1  0  0  0
 15 16  2  0  0  0
 15 24  1  0  0  0
 16 17  1  0  0  0
 16 34  1  0  0  0
 17 18  2  0  0  0
 17 35  1  0  0  0
 18 19  1  0  0  0
 18 23  1  0  0  0
 19 20  2  0  0  0
 20 21  1  0  0  0
 20 36  1  0  0  0
 21 22  2  0  0  0
 21 37  1  0  0  0
 22 23  1  0  0  0
 22 38  1  0  0  0
 23 24  2  0  0  0
 24 39  1  0  0  0
 25 26  2  0  0  0
M  END
> <s_m_entry_id>
10595

> <s_m_entry_name>
dock_pv.664

> <s_m_Source_Path>
/home/csk/Desktop/cluster/DUD-E-result/met

> <s_m_Source_File>
dock_pv.maegz

> <i_m_Source_File_Index>
664

> <chembl_id>
CHEMBL3674541

> <chembl_pref_name>
None

> <i_lp_mmshare_version>
53161

> <i_f3d_flags>
0

> <r_lp_tautomer_probability>
1

> <s_lp_Force_Field>
OPLS_2005

> <r_lp_Energy>
25.496577

> <b_lp_Chiralities_Consistent>
1

> <s_lp_Variant>
CHEMBL3717_lig2556-1

> <s_i_glide_gridfile>
glide-grid_3lq8

> <i_i_glide_lignum>
2901

> <i_i_glide_rotatable_bonds>
5

> <r_i_docking_score>
-6.8899937515389

> <r_i_glide_ligand_efficiency>
-0.264999759674573

> <r_i_glide_ligand_efficiency_sa>
-0.78506074531222

> <r_i_glide_ligand_efficiency_ln>
-1.61809242463543

> <r_i_glide_gscore>
-6.8899937515389

> <r_i_glide_lipo>
-2.51786534909506

> <r_i_glide_hbond>
-0.493989031903368

> <r_i_glide_metal>
0

> <r_i_glide_rewards>
-2.1382017432477

> <r_i_glide_evdw>
-31.1205768585205

> <r_i_glide_ecoul>
-3.53661561012268

> <r_i_glide_erotb>
0.630734523580899

> <r_i_glide_esite>
-0.284150966429248

> <r_i_glide_emodel>
-45.3342713919928

> <r_i_glide_energy>
-34.6571924686432

> <r_i_glide_einternal>
8.67346858978271

> <i_i_glide_confnum>
7

> <i_i_glide_posenum>
19

> <r_i_glide_eff_state_penalty>
0

> <s_user_duplicate_titles>
CHEMBL3717_lig2556

> <s_m_subgroup_title>
dock_pv

> <s_m_subgroupid>
dock_pv

> <b_m_subgroup_collapsed>
1

$$$$
CHEMBL3717_lig852
                    3D
 Schrodinger Suite 2021-1.
 35 38  0  0  1  0            999 V2000
   -0.7223    4.6396   30.6116 C   0  0  0  0  0  0
   -1.0330    6.0033   30.6080 C   0  0  0  0  0  0
   -2.3110    6.4720   30.6073 N   0  0  0  0  0  0
   -3.2702    5.5433   30.6125 C   0  0  0  0  0  0
   -2.9445    4.1769   30.6079 N   0  0  0  0  0  0
   -1.6896    3.6764   30.6088 N   0  0  0  0  0  0
   -4.1576    3.5215   30.5412 C   0  0  0  0  0  0
   -5.1367    4.4107   30.5779 N   0  0  0  0  0  0
   -4.6096    5.6909   30.6152 N   0  0  0  0  0  0
   -4.2887    2.0013   30.4605 C   0  0  0  0  0  0
   -5.6425    1.4467   30.0100 C   0  0  0  0  0  0
   -6.8382    1.8573   30.6117 C   0  0  0  0  0  0
   -8.0557    1.3326   30.1842 C   0  0  0  0  0  0
   -8.0795    0.3820   29.1678 C   0  0  0  0  0  0
   -6.8956   -0.0532   28.5845 C   0  0  0  0  0  0
   -5.6791    0.4725   29.0092 C   0  0  0  0  0  0
   -9.2595   -0.1274   28.7515 F   0  0  0  0  0  0
    0.6830    4.1780   30.6119 C   0  0  0  0  0  0
    1.4926    4.3998   31.7311 C   0  0  0  0  0  0
    2.8183    3.9818   31.7288 C   0  0  0  0  0  0
    3.3479    3.3623   30.6001 C   0  0  0  0  0  0
    2.5584    3.1561   29.4719 C   0  0  0  0  0  0
    1.2251    3.5579   29.4808 C   0  0  0  0  0  0
    5.1615    2.7900   30.6078 Br  0  0  0  0  0  0
   -0.2512    6.7502   30.6010 H   0  0  0  0  0  0
   -4.0572    1.5489   31.4200 H   0  0  0  0  0  0
   -3.5197    1.6216   29.7876 H   0  0  0  0  0  0
   -6.8326    2.5832   31.4116 H   0  0  0  0  0  0
   -8.9784    1.6575   30.6390 H   0  0  0  0  0  0
   -6.9215   -0.8011   27.8062 H   0  0  0  0  0  0
   -4.7614    0.1095   28.5702 H   0  0  0  0  0  0
    1.0917    4.8876   32.6074 H   0  0  0  0  0  0
    3.4363    4.1515   32.5966 H   0  0  0  0  0  0
    2.9706    2.6724   28.5974 H   0  0  0  0  0  0
    0.6108    3.3841   28.6088 H   0  0  0  0  0  0
  1  2  1  0  0  0
  1  6  2  0  0  0
  1 18  1  0  0  0
  2  3  2  0  0  0
  2 25  1  0  0  0
  3  4  1  0  0  0
  4  5  1  0  0  0
  4  9  2  0  0  0
  5  6  1  0  0  0
  5  7  1  0  0  0
  7  8  2  0  0  0
  7 10  1  0  0  0
  8  9  1  0  0  0
 10 11  1  0  0  0
 10 26  1  0  0  0
 10 27  1  0  0  0
 11 12  2  0  0  0
 11 16  1  0  0  0
 12 13  1  0  0  0
 12 28  1  0  0  0
 13 14  2  0  0  0
 13 29  1  0  0  0
 14 15  1  0  0  0
 14 17  1  0  0  0
 15 16  2  0  0  0
 15 30  1  0  0  0
 16 31  1  0  0  0
 18 19  2  0  0  0
 18 23  1  0  0  0
 19 20  1  0  0  0
 19 32  1  0  0  0
 20 21  2  0  0  0
 20 33  1  0  0  0
 21 22  1  0  0  0
 21 24  1  0  0  0
 22 23  2  0  0  0
 22 34  1  0  0  0
 23 35  1  0  0  0
M  END
> <s_m_entry_id>
10596

> <s_m_entry_name>
dock_pv.665

> <s_m_Source_Path>
/home/csk/Desktop/cluster/DUD-E-result/met

> <s_m_Source_File>
dock_pv.maegz

> <i_m_Source_File_Index>
665

> <chembl_id>
CHEMBL1822001

> <chembl_pref_name>
None

> <i_lp_mmshare_version>
53161

> <i_f3d_flags>
0

> <r_lp_tautomer_probability>
1

> <s_lp_Force_Field>
OPLS_2005

> <r_lp_Energy>
22.451064

> <b_lp_Chiralities_Consistent>
1

> <s_lp_Variant>
CHEMBL3717_lig852-1

> <s_i_glide_gridfile>
glide-grid_3lq8

> <i_i_glide_lignum>
920

> <i_i_glide_rotatable_bonds>
3

> <r_i_docking_score>
-6.88997790832298

> <r_i_glide_ligand_efficiency>
-0.287082412846791

> <r_i_glide_ligand_efficiency_sa>
-0.828088972264959

> <r_i_glide_ligand_efficiency_ln>
-1.64908787394661

> <r_i_glide_gscore>
-6.88997790832298

> <r_i_glide_lipo>
-2.78397472448262

> <r_i_glide_hbond>
0

> <r_i_glide_metal>
0

> <r_i_glide_rewards>
-2.4382013709848

> <r_i_glide_evdw>
-40.8083267211914

> <r_i_glide_ecoul>
-0.149828806519508

> <r_i_glide_erotb>
0.395088844181935

> <r_i_glide_esite>
0

> <r_i_glide_emodel>
-56.4827160876038

> <r_i_glide_energy>
-40.9581555277109

> <r_i_glide_einternal>
3.24821138381958

> <i_i_glide_confnum>
4

> <i_i_glide_posenum>
214

> <r_i_glide_eff_state_penalty>
0

> <s_user_duplicate_titles>
CHEMBL3717_lig852

> <s_m_subgroup_title>
dock_pv

> <s_m_subgroupid>
dock_pv

> <b_m_subgroup_collapsed>
1

$$$$
CHEMBL3717_lig3376 
                    3D
 Schrodinger Suite 2021-1.
 44 48  0  0  1  0            999 V2000
   -5.0648    5.4489   30.9980 C   0  0  0  0  0  0
   -4.0798    4.5276   30.6071 C   0  0  0  0  0  0
   -4.4038    3.2569   30.2080 N   0  0  0  0  0  0
   -6.3932    5.1570   31.0079 N   0  0  0  0  0  0
   -6.7148    3.9225   30.6080 C   0  0  0  0  0  0
   -5.7184    2.9945   30.2080 C   0  0  0  0  0  0
   -6.4164    1.8620   29.8186 N   0  0  0  0  0  0
   -7.7457    2.1726   30.0624 C   0  0  0  0  0  0
   -7.9639    3.3807   30.5189 N   0  0  0  0  0  0
   -5.8658    0.6049   29.2719 C   0  0  2  0  0  0
   -6.9511   -0.2992   28.6467 C   0  0  0  0  0  0
   -4.9966   -0.1904   30.2546 C   0  0  0  0  0  0
   -5.4363   -0.4493   31.5552 C   0  0  0  0  0  0
   -4.6193   -1.1188   32.4595 C   0  0  0  0  0  0
   -3.7594   -0.6989   29.8406 C   0  0  0  0  0  0
   -2.9367   -1.4288   30.7206 C   0  0  0  0  0  0
   -3.3355   -1.5683   32.0761 C   0  0  0  0  0  0
   -2.4940   -2.0928   33.0080 N   0  0  0  0  0  0
   -1.2472   -2.4430   32.6323 C   0  0  0  0  0  0
   -0.8263   -2.4477   31.3106 C   0  0  0  0  0  0
   -1.6949   -1.9925   30.3303 C   0  0  0  0  0  0
   -3.2940   -0.4430   28.6080 F   0  0  0  0  0  0
   -6.6582   -0.0347   31.9606 F   0  0  0  0  0  0
   -2.6308    4.8843   30.6161 C   0  0  0  0  0  0
   -1.6613    3.9497   31.0080 C   0  0  0  0  0  0
   -0.3091    4.2836   31.0035 C   0  0  0  0  0  0
    0.0859    5.5570   30.6020 C   0  0  0  0  0  0
   -0.8607    6.4993   30.2080 C   0  0  0  0  0  0
   -2.2130    6.1656   30.2273 C   0  0  0  0  0  0
   -4.8032    6.4444   31.3198 H   0  0  0  0  0  0
   -8.5170    1.4444   29.8657 H   0  0  0  0  0  0
   -5.2314    0.9312   28.4463 H   0  0  0  0  0  0
   -6.4952   -1.1593   28.1562 H   0  0  0  0  0  0
   -7.6343   -0.6938   29.3996 H   0  0  0  0  0  0
   -7.5370    0.2296   27.8938 H   0  0  0  0  0  0
   -4.9654   -1.2672   33.4680 H   0  0  0  0  0  0
   -0.5902   -2.8021   33.4115 H   0  0  0  0  0  0
    0.1626   -2.7945   31.0481 H   0  0  0  0  0  0
   -1.3814   -1.9479   29.2974 H   0  0  0  0  0  0
   -1.9559    2.9572   31.3180 H   0  0  0  0  0  0
    0.4294    3.5552   31.3049 H   0  0  0  0  0  0
    1.1349    5.8156   30.5933 H   0  0  0  0  0  0
   -0.5487    7.4860   29.8956 H   0  0  0  0  0  0
   -2.9373    6.9017   29.9153 H   0  0  0  0  0  0
  1  2  2  0  0  0
  1  4  1  0  0  0
  1 30  1  0  0  0
  2  3  1  0  0  0
  2 24  1  0  0  0
  3  6  2  0  0  0
  4  5  2  0  0  0
  5  6  1  0  0  0
  5  9  1  0  0  0
  6  7  1  0  0  0
  7  8  1  0  0  0
  7 10  1  0  0  0
  8  9  2  0  0  0
  8 31  1  0  0  0
 10 11  1  0  0  0
 10 12  1  0  0  0
 10 32  1  0  0  0
 11 33  1  0  0  0
 11 34  1  0  0  0
 11 35  1  0  0  0
 12 13  2  0  0  0
 12 15  1  0  0  0
 13 14  1  0  0  0
 13 23  1  0  0  0
 14 17  2  0  0  0
 14 36  1  0  0  0
 15 16  2  0  0  0
 15 22  1  0  0  0
 16 17  1  0  0  0
 16 21  1  0  0  0
 17 18  1  0  0  0
 18 19  2  0  0  0
 19 20  1  0  0  0
 19 37  1  0  0  0
 20 21  2  0  0  0
 20 38  1  0  0  0
 21 39  1  0  0  0
 24 25  2  0  0  0
 24 29  1  0  0  0
 25 26  1  0  0  0
 25 40  1  0  0  0
 26 27  2  0  0  0
 26 41  1  0  0  0
 27 28  1  0  0  0
 27 42  1  0  0  0
 28 29  2  0  0  0
 28 43  1  0  0  0
 29 44  1  0  0  0
M  END
> <s_m_entry_id>
10597

> <s_m_entry_name>
dock_pv.666

> <s_m_Source_Path>
/home/csk/Desktop/cluster/DUD-E-result/met

> <s_m_Source_File>
dock_pv.maegz

> <i_m_Source_File_Index>
666

> <chembl_id>
CHEMBL4561132

> <chembl_pref_name>
None

> <i_lp_mmshare_version>
53161

> <i_f3d_flags>
0

> <r_lp_tautomer_probability>
1

> <s_lp_Force_Field>
OPLS_2005

> <r_lp_Energy>
33.934301

> <b_lp_Chiralities_Consistent>
1

> <s_lp_Variant>
CHEMBL3717_lig3376 -1

> <s_i_glide_gridfile>
glide-grid_3lq8

> <i_i_glide_lignum>
4140

> <i_i_glide_rotatable_bonds>
3

> <r_i_docking_score>
-6.88876416025238

> <r_i_glide_ligand_efficiency>
-0.237543591732841

> <r_i_glide_ligand_efficiency_sa>
-0.729809172895495

> <r_i_glide_ligand_efficiency_ln>
-1.57735230871084

> <r_i_glide_gscore>
-6.88876416025238

> <r_i_glide_lipo>
-3.03376665530481

> <r_i_glide_hbond>
0

> <r_i_glide_metal>
0

> <r_i_glide_rewards>
-2.15707434550547

> <r_i_glide_evdw>
-37.0198554992676

> <r_i_glide_ecoul>
-1.10442745685577

> <r_i_glide_erotb>
0.389289571834342

> <r_i_glide_esite>
-0.070555837784703

> <r_i_glide_emodel>
-53.0126508016627

> <r_i_glide_energy>
-38.1242829561234

> <r_i_glide_einternal>
1.3426593542099

> <i_i_glide_confnum>
9

> <i_i_glide_posenum>
50

> <r_i_glide_eff_state_penalty>
0

> <s_user_duplicate_titles>
CHEMBL3717_lig3376 

> <s_m_subgroup_title>
dock_pv

> <s_m_subgroupid>
dock_pv

> <b_m_subgroup_collapsed>
1

$$$$
CHEMBL3717_lig1225
                    3D
 Schrodinger Suite 2021-1.
 47 51  0  0  1  0            999 V2000
   -5.9113    5.1841   30.6114 N   0  0  0  0  0  0
   -4.6434    5.6630   30.6405 C   0  0  0  0  0  0
   -3.5184    4.8396   30.6082 C   0  0  0  0  0  0
   -3.7299    3.4602   30.5374 C   0  0  0  0  0  0
   -5.0256    2.9335   30.4589 C   0  0  0  0  0  0
   -6.0950    3.8472   30.5113 C   0  0  0  0  0  0
   -2.1351    5.3822   30.6098 C   0  0  0  0  0  0
   -0.9623    4.7237   30.9557 C   0  0  0  0  0  0
    0.0638    5.6033   30.7272 N   0  0  0  0  0  0
   -0.3812    6.7575   30.2071 N   0  0  0  0  0  0
   -1.6861    6.6501   30.2078 C   0  0  0  0  0  0
    1.5102    5.3749   30.7680 C   0  0  0  0  0  0
    2.0166    4.4042   31.8578 C   0  0  0  0  0  0
    2.0218    2.9274   31.4189 C   0  0  0  0  0  0
    2.6481    2.7569   30.1096 N   0  0  2  0  0  0
    1.9761    3.5198   29.0634 C   0  0  0  0  0  0
    2.0825    5.0123   29.3892 C   0  0  0  0  0  0
   -5.1650    1.4515   30.3069 C   0  0  0  0  0  0
   -4.0609    0.7589   29.8852 O   0  0  0  0  0  0
   -6.2438    0.7214   30.5117 N   0  0  0  0  0  0
   -7.4224    3.4411   30.4342 N   0  0  0  0  0  0
   -5.8410   -0.5458   30.2003 C   0  0  0  0  0  0
   -4.4926   -0.5262   29.8109 C   0  0  0  0  0  0
   -3.7937   -1.6703   29.4180 C   0  0  0  0  0  0
   -4.5192   -2.8597   29.4063 C   0  0  0  0  0  0
   -5.8594   -2.9122   29.8072 C   0  0  0  0  0  0
   -6.5407   -1.7601   30.2126 C   0  0  0  0  0  0
   -6.6980   -4.4193   29.7672 Cl  0  0  0  0  0  0
   -2.4951   -1.6428   29.0428 F   0  0  0  0  0  0
   -4.5466    6.7372   30.6874 H   0  0  0  0  0  0
   -2.8775    2.7974   30.5060 H   0  0  0  0  0  0
   -0.7750    3.7207   31.3036 H   0  0  0  0  0  0
   -2.2916    7.4712   29.8585 H   0  0  0  0  0  0
    1.8949    6.3657   31.0077 H   0  0  0  0  0  0
    1.4421    4.5327   32.7759 H   0  0  0  0  0  0
    3.0257    4.6860   32.1615 H   0  0  0  0  0  0
    1.0150    2.5137   31.4015 H   0  0  0  0  0  0
    2.5870    2.3344   32.1392 H   0  0  0  0  0  0
    2.6018    1.7778   29.8549 H   0  0  0  0  0  0
    0.9313    3.2087   28.9959 H   0  0  0  0  0  0
    2.4420    3.3015   28.1016 H   0  0  0  0  0  0
    3.1227    5.3332   29.3140 H   0  0  0  0  0  0
    1.5763    5.5866   28.6134 H   0  0  0  0  0  0
   -7.6232    2.4516   30.3732 H   0  0  0  0  0  0
   -8.1505    4.1399   30.4140 H   0  0  0  0  0  0
   -4.0285   -3.7565   29.0562 H   0  0  0  0  0  0
   -7.5780   -1.8031   30.5083 H   0  0  0  0  0  0
  1  6  1  0  0  0
  1  2  2  0  0  0
  2  3  1  0  0  0
  2 30  1  0  0  0
  3  4  2  0  0  0
  3  7  1  0  0  0
  4  5  1  0  0  0
  4 31  1  0  0  0
  5 18  1  0  0  0
  5  6  2  0  0  0
  6 21  1  0  0  0
  7 11  1  0  0  0
  7  8  2  0  0  0
  8  9  1  0  0  0
  8 32  1  0  0  0
  9 12  1  0  0  0
  9 10  1  0  0  0
 10 11  2  0  0  0
 11 33  1  0  0  0
 12 17  1  0  0  0
 12 13  1  0  0  0
 12 34  1  0  0  0
 13 14  1  0  0  0
 13 35  1  0  0  0
 13 36  1  0  0  0
 14 15  1  0  0  0
 14 37  1  0  0  0
 14 38  1  0  0  0
 15 16  1  0  0  0
 15 39  1  0  0  0
 16 17  1  0  0  0
 16 40  1  0  0  0
 16 41  1  0  0  0
 17 42  1  0  0  0
 17 43  1  0  0  0
 18 19  1  0  0  0
 18 20  2  0  0  0
 19 23  1  0  0  0
 20 22  1  0  0  0
 21 44  1  0  0  0
 21 45  1  0  0  0
 22 23  2  0  0  0
 22 27  1  0  0  0
 23 24  1  0  0  0
 24 25  2  0  0  0
 24 29  1  0  0  0
 25 26  1  0  0  0
 25 46  1  0  0  0
 26 27  2  0  0  0
 26 28  1  0  0  0
 27 47  1  0  0  0
M  END
> <s_m_entry_id>
10598

> <s_m_entry_name>
dock_pv.667

> <s_m_Source_Path>
/home/csk/Desktop/cluster/DUD-E-result/met

> <s_m_Source_File>
dock_pv.maegz

> <i_m_Source_File_Index>
667

> <chembl_id>
CHEMBL2032150

> <chembl_pref_name>
None

> <i_lp_mmshare_version>
53161

> <i_f3d_flags>
0

> <r_lp_tautomer_probability>
0.999999772200052

> <s_lp_Force_Field>
OPLS_2005

> <r_lp_Energy>
28.722062

> <b_lp_Chiralities_Consistent>
1

> <s_lp_Variant>
CHEMBL3717_lig1225-1

> <s_i_glide_gridfile>
glide-grid_3lq8

> <i_i_glide_lignum>
1403

> <i_i_glide_rotatable_bonds>
3

> <r_i_docking_score>
-6.88637228853074

> <r_i_glide_ligand_efficiency>
-0.237461113397612

> <r_i_glide_ligand_efficiency_sa>
-0.729555773318701

> <r_i_glide_ligand_efficiency_ln>
-1.57680463073922

> <r_i_glide_gscore>
-6.88637228853074

> <r_i_glide_lipo>
-3.47758353430592

> <r_i_glide_hbond>
0

> <r_i_glide_metal>
0

> <r_i_glide_rewards>
-1.56667186377309

> <r_i_glide_evdw>
-45.2821083068848

> <r_i_glide_ecoul>
0.498965948820114

> <r_i_glide_erotb>
0.347143632569496

> <r_i_glide_esite>
0

> <r_i_glide_emodel>
-56.5592295173762

> <r_i_glide_energy>
-44.7831423580647

> <r_i_glide_einternal>
6.37626171112061

> <i_i_glide_confnum>
1

> <i_i_glide_posenum>
11

> <r_i_glide_eff_state_penalty>
0

> <s_user_duplicate_titles>
CHEMBL3717_lig1225

> <s_m_subgroup_title>
dock_pv

> <s_m_subgroupid>
dock_pv

> <b_m_subgroup_collapsed>
1

$$$$
CHEMBL3717_lig84 
                    3D
 Schrodinger Suite 2021-1.
 35 36  0  0  1  0            999 V2000
    2.6409    3.6284   32.2076 C   0  0  0  0  0  0
    3.4175    4.2134   31.4049 N   0  0  0  0  0  0
    2.9027    4.1605   30.1448 N   0  0  0  0  0  0
    1.4741    3.7561   30.2020 C   0  0  1  0  0  0
    1.4724    3.0188   31.5264 C   0  0  0  0  0  0
    0.4463    4.9079   30.1751 C   0  0  0  0  0  0
    0.8108    6.1815   29.7395 C   0  0  0  0  0  0
   -0.1095    7.2231   29.7335 C   0  0  0  0  0  0
   -1.4102    6.9933   30.1704 C   0  0  0  0  0  0
   -1.7982    5.7302   30.6081 C   0  0  0  0  0  0
   -0.8718    4.6904   30.6080 C   0  0  0  0  0  0
    3.7135    4.0129   29.0499 C   0  0  0  0  0  0
    5.2521    4.3707   29.1273 C   0  0  0  0  0  0
    3.2570    3.5547   27.9989 O   0  0  0  0  0  0
    5.9469    4.3549   27.7270 C   0  0  0  0  0  0
    5.9692    3.3466   30.0647 C   0  0  0  0  0  0
    5.5061    5.7802   29.6554 C   0  0  0  0  0  0
    2.8331    3.5571   33.2730 H   0  0  0  0  0  0
    1.1985    3.0749   29.3927 H   0  0  0  0  0  0
    1.6476    1.9565   31.4060 H   0  0  0  0  0  0
    0.5633    3.1602   32.1031 H   0  0  0  0  0  0
    1.8195    6.3572   29.4141 H   0  0  0  0  0  0
    0.1868    8.2069   29.3981 H   0  0  0  0  0  0
   -2.1190    7.8068   30.1698 H   0  0  0  0  0  0
   -2.8115    5.5562   30.9400 H   0  0  0  0  0  0
   -1.1941    3.7106   30.9278 H   0  0  0  0  0  0
    7.0129    4.1357   27.8051 H   0  0  0  0  0  0
    5.9047    5.3044   27.1935 H   0  0  0  0  0  0
    5.5302    3.5985   27.0685 H   0  0  0  0  0  0
    5.9643    3.6751   31.1030 H   0  0  0  0  0  0
    5.5080    2.3577   30.0491 H   0  0  0  0  0  0
    7.0203    3.2089   29.8093 H   0  0  0  0  0  0
    5.0594    5.9450   30.6080 H   0  0  0  0  0  0
    6.5647    5.9554   29.8135 H   0  0  0  0  0  0
    5.1047    6.5501   29.0081 H   0  0  0  0  0  0
  1  2  2  0  0  0
  1  5  1  0  0  0
  1 18  1  0  0  0
  2  3  1  0  0  0
  3  4  1  0  0  0
  3 12  1  0  0  0
  4  5  1  0  0  0
  4  6  1  0  0  0
  4 19  1  0  0  0
  5 20  1  0  0  0
  5 21  1  0  0  0
  6  7  2  0  0  0
  6 11  1  0  0  0
  7  8  1  0  0  0
  7 22  1  0  0  0
  8  9  2  0  0  0
  8 23  1  0  0  0
  9 10  1  0  0  0
  9 24  1  0  0  0
 10 11  2  0  0  0
 10 25  1  0  0  0
 11 26  1  0  0  0
 12 13  1  0  0  0
 12 14  2  0  0  0
 13 15  1  0  0  0
 13 16  1  0  0  0
 13 17  1  0  0  0
 15 27  1  0  0  0
 15 28  1  0  0  0
 15 29  1  0  0  0
 16 30  1  0  0  0
 16 31  1  0  0  0
 16 32  1  0  0  0
 17 33  1  0  0  0
 17 34  1  0  0  0
 17 35  1  0  0  0
M  END
> <s_m_entry_id>
10599

> <s_m_entry_name>
dock_pv.668

> <s_m_Source_Path>
/home/csk/Desktop/cluster/DUD-E-result/met

> <s_m_Source_File>
dock_pv.maegz

> <i_m_Source_File_Index>
668

> <chembl_id>
CHEMBL4521353

> <chembl_pref_name>
None

> <i_lp_mmshare_version>
53161

> <i_f3d_flags>
0

> <r_lp_tautomer_probability>
1

> <s_lp_Force_Field>
OPLS_2005

> <r_lp_Energy>
24.973027

> <b_lp_Chiralities_Consistent>
1

> <s_lp_Variant>
CHEMBL3717_lig84 -1

> <s_i_glide_gridfile>
glide-grid_3lq8

> <i_i_glide_lignum>
89

> <i_i_glide_rotatable_bonds>
3

> <r_i_docking_score>
-6.88388508485163

> <r_i_glide_ligand_efficiency>
-0.404934416755978

> <r_i_glide_ligand_efficiency_sa>
-1.04120041024526

> <r_i_glide_ligand_efficiency_ln>
-1.79585232205397

> <r_i_glide_gscore>
-6.88388508485163

> <r_i_glide_lipo>
-2.38411928832871

> <r_i_glide_hbond>
0

> <r_i_glide_metal>
0

> <r_i_glide_rewards>
-4.0344749715476

> <r_i_glide_evdw>
-24.5961475372314

> <r_i_glide_ecoul>
0.802553534507751

> <r_i_glide_erotb>
0.644133521710095

> <r_i_glide_esite>
0

> <r_i_glide_emodel>
-27.7433632740317

> <r_i_glide_energy>
-23.7935940027237

> <r_i_glide_einternal>
4.62306022644043

> <i_i_glide_confnum>
7

> <i_i_glide_posenum>
165

> <r_i_glide_eff_state_penalty>
0

> <s_user_duplicate_titles>
CHEMBL3717_lig84 

> <s_m_subgroup_title>
dock_pv

> <s_m_subgroupid>
dock_pv

> <b_m_subgroup_collapsed>
1

$$$$
CHEMBL3717_lig1103
                    3D
 Schrodinger Suite 2021-1.
 43 47  0  0  1  0            999 V2000
    0.2418    5.0640   30.3981 C   0  0  0  0  0  0
    0.2109    6.4502   30.1829 C   0  0  0  0  0  0
   -1.0008    7.1446   30.2080 C   0  0  0  0  0  0
   -0.8891    4.3270   30.6081 N   0  0  0  0  0  0
   -2.0406    5.0248   30.6079 N   0  0  0  0  0  0
   -2.1695    6.4103   30.4567 C   0  0  0  0  0  0
   -3.4670    6.7568   30.5820 N   0  0  0  0  0  0
   -4.1705    5.5672   30.6653 N   0  0  0  0  0  0
   -3.3367    4.5452   30.6081 C   0  0  0  0  0  0
   -3.6458    3.0411   30.5687 C   0  0  0  0  0  0
   -5.0500    2.4807   30.2430 C   0  0  0  0  0  0
   -7.5968    1.3965   29.6565 C   0  0  0  0  0  0
   -7.4552    2.7531   29.9214 C   0  0  0  0  0  0
   -6.2014    3.2863   30.2103 C   0  0  0  0  0  0
   -6.4799    0.5596   29.6993 C   0  0  0  0  0  0
   -5.2044    1.0965   30.0005 C   0  0  0  0  0  0
   -4.0790    0.1345   30.0539 C   0  0  0  0  0  0
   -4.3241   -1.1632   29.8091 C   0  0  0  0  0  0
   -5.5500   -1.6752   29.5047 N   0  0  0  0  0  0
   -6.6802   -0.9295   29.4096 C   0  0  0  0  0  0
   -7.7468   -1.4631   29.1081 O   0  0  0  0  0  0
    1.5318    4.3106   30.4447 C   0  0  0  0  0  0
    2.6426    4.7149   29.6901 C   0  0  0  0  0  0
    3.8590    4.0294   29.7707 C   0  0  0  0  0  0
    3.9786    2.9288   30.6124 C   0  0  0  0  0  0
    2.8856    2.5018   31.3588 C   0  0  0  0  0  0
    1.6736    3.1783   31.2569 C   0  0  0  0  0  0
    4.9999    4.4360   28.9725 C   0  0  0  0  0  0
    5.9060    4.7571   28.3316 N   0  0  0  0  0  0
    1.1244    7.0047   30.0285 H   0  0  0  0  0  0
   -1.0339    8.2162   30.0669 H   0  0  0  0  0  0
   -2.9929    2.6151   29.8083 H   0  0  0  0  0  0
   -3.2940    2.5582   31.4772 H   0  0  0  0  0  0
   -8.5783    1.0042   29.4270 H   0  0  0  0  0  0
   -8.3212    3.3985   29.8964 H   0  0  0  0  0  0
   -6.1770    4.3411   30.4101 H   0  0  0  0  0  0
   -3.0715    0.4411   30.2883 H   0  0  0  0  0  0
   -3.5635   -1.9324   29.8189 H   0  0  0  0  0  0
   -5.6699   -2.6553   29.2997 H   0  0  0  0  0  0
    2.5483    5.5551   29.0195 H   0  0  0  0  0  0
    4.9082    2.3797   30.6778 H   0  0  0  0  0  0
    2.9661    1.6319   31.9927 H   0  0  0  0  0  0
    0.8241    2.8132   31.8078 H   0  0  0  0  0  0
  1  2  1  0  0  0
  1  4  2  0  0  0
  1 22  1  0  0  0
  2  3  2  0  0  0
  2 30  1  0  0  0
  3  6  1  0  0  0
  3 31  1  0  0  0
  4  5  1  0  0  0
  5  9  1  0  0  0
  5  6  1  0  0  0
  6  7  2  0  0  0
  7  8  1  0  0  0
  8  9  2  0  0  0
  9 10  1  0  0  0
 10 11  1  0  0  0
 10 32  1  0  0  0
 10 33  1  0  0  0
 11 14  1  0  0  0
 11 16  2  0  0  0
 12 15  2  0  0  0
 12 13  1  0  0  0
 12 34  1  0  0  0
 13 14  2  0  0  0
 13 35  1  0  0  0
 14 36  1  0  0  0
 15 16  1  0  0  0
 15 20  1  0  0  0
 16 17  1  0  0  0
 17 18  2  0  0  0
 17 37  1  0  0  0
 18 19  1  0  0  0
 18 38  1  0  0  0
 19 20  1  0  0  0
 19 39  1  0  0  0
 20 21  2  0  0  0
 22 23  2  0  0  0
 22 27  1  0  0  0
 23 24  1  0  0  0
 23 40  1  0  0  0
 24 25  2  0  0  0
 24 28  1  0  0  0
 25 26  1  0  0  0
 25 41  1  0  0  0
 26 27  2  0  0  0
 26 42  1  0  0  0
 27 43  1  0  0  0
 28 29  3  0  0  0
M  END
> <s_m_entry_id>
10600

> <s_m_entry_name>
dock_pv.669

> <s_m_Source_Path>
/home/csk/Desktop/cluster/DUD-E-result/met

> <s_m_Source_File>
dock_pv.maegz

> <i_m_Source_File_Index>
669

> <chembl_id>
CHEMBL1922418

> <chembl_pref_name>
None

> <i_lp_mmshare_version>
53161

> <i_f3d_flags>
0

> <r_lp_tautomer_probability>
1

> <s_lp_Force_Field>
OPLS_2005

> <r_lp_Energy>
28.664777

> <b_lp_Chiralities_Consistent>
1

> <s_lp_Variant>
CHEMBL3717_lig1103-1

> <s_i_glide_gridfile>
glide-grid_3lq8

> <i_i_glide_lignum>
1257

> <i_i_glide_rotatable_bonds>
3

> <r_i_docking_score>
-6.88342518072072

> <r_i_glide_ligand_efficiency>
-0.23735948899037

> <r_i_glide_ligand_efficiency_sa>
-0.729243550942781

> <r_i_glide_ligand_efficiency_ln>
-1.57612981778293

> <r_i_glide_gscore>
-6.88342518072072

> <r_i_glide_lipo>
-3.28039430403842

> <r_i_glide_hbond>
0

> <r_i_glide_metal>
0

> <r_i_glide_rewards>
-1.49451238324188

> <r_i_glide_evdw>
-46.5774993896484

> <r_i_glide_ecoul>
-1.02066922187805

> <r_i_glide_erotb>
0.406044366317278

> <r_i_glide_esite>
-0.0325875069935629

> <r_i_glide_emodel>
-63.7711628204066

> <r_i_glide_energy>
-47.5981686115265

> <r_i_glide_einternal>
1.95244419574738

> <i_i_glide_confnum>
2

> <i_i_glide_posenum>
8

> <r_i_glide_eff_state_penalty>
0

> <s_user_duplicate_titles>
CHEMBL3717_lig1103

> <s_m_subgroup_title>
dock_pv

> <s_m_subgroupid>
dock_pv

> <b_m_subgroup_collapsed>
1

$$$$
CHEMBL3717_lig531
                    3D
 Schrodinger Suite 2021-1.
 42 44  0  0  1  0            999 V2000
   -0.7419    6.3566   30.3473 C   0  0  0  0  0  0
   -0.0855    5.1326   30.4964 C   0  0  0  0  0  0
   -0.8702    3.9881   30.6520 C   0  0  0  0  0  0
   -2.0943    6.4976   30.3415 N   0  0  0  0  0  0
   -2.8629    5.3774   30.4586 C   0  0  0  0  0  0
   -2.2794    4.0852   30.6080 C   0  0  0  0  0  0
   -3.1062    2.9415   30.6085 C   0  0  0  0  0  0
   -4.4948    3.0562   30.4474 C   0  0  0  0  0  0
   -5.0578    4.3291   30.3498 C   0  0  0  0  0  0
   -4.2703    5.4809   30.3600 C   0  0  0  0  0  0
   -5.3621    1.9778   30.3783 O   0  0  0  0  0  0
   -4.8570    0.6343   30.3784 C   0  0  1  0  0  0
   -5.9965   -0.3655   30.6600 C   0  0  0  0  0  0
   -4.1319    0.2943   29.0599 C   0  0  0  0  0  0
   -5.8484   -1.3502   31.6616 C   0  0  0  0  0  0
   -6.8723   -2.2623   31.9145 C   0  0  0  0  0  0
   -8.0485   -2.2252   31.1751 C   0  0  0  0  0  0
   -8.2067   -1.2773   30.1706 C   0  0  0  0  0  0
   -7.1921   -0.3519   29.9051 C   0  0  0  0  0  0
   -7.4563    0.7715   28.6129 Cl  0  0  0  0  0  0
   -9.3529   -1.2686   29.4501 F   0  0  0  0  0  0
   -4.4078   -1.5126   32.6079 Cl  0  0  0  0  0  0
    1.3836    5.0368   30.4127 C   0  0  0  0  0  0
    2.0287    4.0045   29.8254 C   0  0  0  0  0  0
    3.4631    3.8875   29.7789 C   0  0  0  0  0  0
    3.9036    3.1575   28.7577 N   0  0  0  0  0  0
    4.2282    4.3729   30.6063 O   0  0  0  0  0  0
   -0.1791    7.2694   30.2086 H   0  0  0  0  0  0
   -0.4147    3.0140   30.7492 H   0  0  0  0  0  0
   -2.6209    1.9837   30.7063 H   0  0  0  0  0  0
   -6.1283    4.4221   30.2355 H   0  0  0  0  0  0
   -4.7302    6.4517   30.2398 H   0  0  0  0  0  0
   -4.1412    0.5702   31.1941 H   0  0  0  0  0  0
   -3.7384   -0.7221   29.0806 H   0  0  0  0  0  0
   -4.8031    0.3591   28.2083 H   0  0  0  0  0  0
   -3.2972    0.9549   28.8432 H   0  0  0  0  0  0
   -6.7490   -3.0120   32.6827 H   0  0  0  0  0  0
   -8.8353   -2.9382   31.3724 H   0  0  0  0  0  0
    1.9434    5.8407   30.8721 H   0  0  0  0  0  0
    1.4746    3.2094   29.3448 H   0  0  0  0  0  0
    4.8957    2.9845   28.6503 H   0  0  0  0  0  0
    3.2539    2.7652   28.0945 H   0  0  0  0  0  0
  1  4  2  0  0  0
  1  2  1  0  0  0
  1 28  1  0  0  0
  2  3  2  0  0  0
  2 23  1  0  0  0
  3  6  1  0  0  0
  3 29  1  0  0  0
  4  5  1  0  0  0
  5 10  2  0  0  0
  5  6  1  0  0  0
  6  7  2  0  0  0
  7  8  1  0  0  0
  7 30  1  0  0  0
  8  9  2  0  0  0
  8 11  1  0  0  0
  9 10  1  0  0  0
  9 31  1  0  0  0
 10 32  1  0  0  0
 11 12  1  0  0  0
 12 13  1  0  0  0
 12 14  1  0  0  0
 12 33  1  0  0  0
 13 15  2  0  0  0
 13 19  1  0  0  0
 14 34  1  0  0  0
 14 35  1  0  0  0
 14 36  1  0  0  0
 15 16  1  0  0  0
 15 22  1  0  0  0
 16 17  2  0  0  0
 16 37  1  0  0  0
 17 18  1  0  0  0
 17 38  1  0  0  0
 18 19  2  0  0  0
 18 21  1  0  0  0
 19 20  1  0  0  0
 23 24  2  0  0  0
 23 39  1  0  0  0
 24 25  1  0  0  0
 24 40  1  0  0  0
 25 26  1  0  0  0
 25 27  2  0  0  0
 26 41  1  0  0  0
 26 42  1  0  0  0
M  END
> <s_m_entry_id>
10601

> <s_m_entry_name>
dock_pv.670

> <s_m_Source_Path>
/home/csk/Desktop/cluster/DUD-E-result/met

> <s_m_Source_File>
dock_pv.maegz

> <i_m_Source_File_Index>
670

> <chembl_id>
CHEMBL602471

> <chembl_pref_name>
None

> <i_lp_mmshare_version>
53161

> <i_f3d_flags>
0

> <r_lp_tautomer_probability>
1

> <s_lp_Force_Field>
OPLS_2005

> <r_lp_Energy>
21.476103

> <b_lp_Chiralities_Consistent>
1

> <s_lp_Variant>
CHEMBL3717_lig531-1

> <s_i_glide_gridfile>
glide-grid_3lq8

> <i_i_glide_lignum>
573

> <i_i_glide_rotatable_bonds>
5

> <r_i_docking_score>
-6.88212353666962

> <r_i_glide_ligand_efficiency>
-0.254893464321097

> <r_i_glide_ligand_efficiency_sa>
-0.764680392123204

> <r_i_glide_ligand_efficiency_ln>
-1.60204489866275

> <r_i_glide_gscore>
-6.88212353666962

> <r_i_glide_lipo>
-2.90085088994264

> <r_i_glide_hbond>
-0.303844200870103

> <r_i_glide_metal>
0

> <r_i_glide_rewards>
-1.85947928277183

> <r_i_glide_evdw>
-35.4615898132324

> <r_i_glide_ecoul>
-4.28770112991333

> <r_i_glide_erotb>
0.59828549706357

> <r_i_glide_esite>
0

> <r_i_glide_emodel>
-53.9444619405768

> <r_i_glide_energy>
-39.7492909431458

> <r_i_glide_einternal>
5.03935050964355

> <i_i_glide_confnum>
7

> <i_i_glide_posenum>
326

> <r_i_glide_eff_state_penalty>
0

> <s_user_duplicate_titles>
CHEMBL3717_lig531,CHEMBL3717_lig539

> <s_m_subgroup_title>
dock_pv

> <s_m_subgroupid>
dock_pv

> <b_m_subgroup_collapsed>
1

$$$$
CHEMBL3717_lig896
                    3D
 Schrodinger Suite 2021-1.
 39 41  0  0  1  0            999 V2000
    0.8431    4.0949   30.7587 C   0  0  0  0  0  0
    1.2140    5.4148   30.4385 C   0  0  0  0  0  0
    0.2416    6.4008   30.2574 C   0  0  0  0  0  0
   -1.0990    6.0497   30.3994 C   0  0  0  0  0  0
   -1.4851    4.7543   30.6579 C   0  0  0  0  0  0
   -0.5135    3.7735   30.8392 C   0  0  0  0  0  0
   -2.9313    4.7141   30.6080 C   0  0  0  0  0  0
   -3.3427    6.1254   30.5359 C   0  0  0  0  0  0
   -2.2212    6.8315   30.3213 N   0  0  0  0  0  0
   -4.4836    6.5756   30.6081 O   0  0  0  0  0  0
   -3.6601    3.6566   30.6080 N   0  0  0  0  0  0
   -5.0030    3.7816   30.4601 N   0  0  0  0  0  0
   -5.7914    2.7161   30.2088 C   0  0  0  0  0  0
   -7.3028    2.9719   30.1362 C   0  0  0  0  0  0
   -7.9101    3.1038   31.5304 C   0  0  0  0  0  0
   -8.0161    1.9873   32.3681 C   0  0  0  0  0  0
   -8.4943    2.1346   33.6684 C   0  0  0  0  0  0
   -8.8764    3.3942   34.1250 C   0  0  0  0  0  0
   -8.8130    4.5006   33.2828 C   0  0  0  0  0  0
   -8.3264    4.3565   31.9854 C   0  0  0  0  0  0
   -9.2985    3.5566   35.4168 O   0  0  0  0  0  0
   -5.3730    1.5671   30.0508 O   0  0  0  0  0  0
    1.7205    3.0634   31.0171 O   0  0  0  0  0  0
    3.1252    3.2755   30.9806 C   0  0  0  0  0  0
    3.5055    4.2495   31.8080 F   0  0  0  0  0  0
    3.6877    2.1467   31.4080 F   0  0  0  0  0  0
    3.5521    3.5191   29.7406 F   0  0  0  0  0  0
    2.2504    5.6963   30.3410 H   0  0  0  0  0  0
    0.5368    7.4157   30.0329 H   0  0  0  0  0  0
   -0.8041    2.7572   31.0526 H   0  0  0  0  0  0
   -2.1978    7.8339   30.2252 H   0  0  0  0  0  0
   -5.3619    4.7272   30.5113 H   0  0  0  0  0  0
   -7.7809    2.1406   29.6150 H   0  0  0  0  0  0
   -7.4976    3.8615   29.5340 H   0  0  0  0  0  0
   -7.6935    1.0140   32.0262 H   0  0  0  0  0  0
   -8.5389    1.2733   34.3195 H   0  0  0  0  0  0
   -9.1336    5.4667   33.6423 H   0  0  0  0  0  0
   -8.2633    5.2136   31.3313 H   0  0  0  0  0  0
   -9.3021    2.7319   35.9101 H   0  0  0  0  0  0
  1  6  2  0  0  0
  1 23  1  0  0  0
  1  2  1  0  0  0
  2  3  2  0  0  0
  2 28  1  0  0  0
  3  4  1  0  0  0
  3 29  1  0  0  0
  4  5  2  0  0  0
  4  9  1  0  0  0
  5  6  1  0  0  0
  5  7  1  0  0  0
  6 30  1  0  0  0
  7  8  1  0  0  0
  7 11  2  0  0  0
  8  9  1  0  0  0
  8 10  2  0  0  0
  9 31  1  0  0  0
 11 12  1  0  0  0
 12 13  1  0  0  0
 12 32  1  0  0  0
 13 14  1  0  0  0
 13 22  2  0  0  0
 14 15  1  0  0  0
 14 33  1  0  0  0
 14 34  1  0  0  0
 15 16  1  0  0  0
 15 20  2  0  0  0
 16 17  2  0  0  0
 16 35  1  0  0  0
 17 18  1  0  0  0
 17 36  1  0  0  0
 18 19  2  0  0  0
 18 21  1  0  0  0
 19 20  1  0  0  0
 19 37  1  0  0  0
 20 38  1  0  0  0
 21 39  1  0  0  0
 23 24  1  0  0  0
 24 25  1  0  0  0
 24 26  1  0  0  0
 24 27  1  0  0  0
M  END
> <s_m_entry_id>
10603

> <s_m_entry_name>
dock_pv.672

> <s_m_Source_Path>
/home/csk/Desktop/cluster/DUD-E-result/met

> <s_m_Source_File>
dock_pv.maegz

> <i_m_Source_File_Index>
672

> <chembl_id>
CHEMBL1822546

> <chembl_pref_name>
None

> <i_lp_mmshare_version>
53161

> <i_f3d_flags>
0

> <r_lp_tautomer_probability>
0.999999999997365

> <s_lp_Force_Field>
OPLS_2005

> <r_lp_Energy>
34.132282

> <b_lp_Chiralities_Consistent>
1

> <s_lp_Variant>
CHEMBL3717_lig896-1

> <s_i_glide_gridfile>
glide-grid_3lq8

> <i_i_glide_lignum>
967

> <i_i_glide_rotatable_bonds>
7

> <r_i_docking_score>
-6.88130101138669

> <r_i_glide_ligand_efficiency>
-0.254863000421729

> <r_i_glide_ligand_efficiency_sa>
-0.764589000425201

> <r_i_glide_ligand_efficiency_ln>
-1.60185342833728

> <r_i_glide_gscore>
-6.88130101138669

> <r_i_glide_lipo>
-2.32650689818599

> <r_i_glide_hbond>
-0.368510042675661

> <r_i_glide_metal>
0

> <r_i_glide_rewards>
-2.72480206594785

> <r_i_glide_evdw>
-38.6762733459473

> <r_i_glide_ecoul>
-1.34348571300507

> <r_i_glide_erotb>
0.673854519670938

> <r_i_glide_esite>
0

> <r_i_glide_emodel>
-53.7501796619724

> <r_i_glide_energy>
-40.0197590589523

> <r_i_glide_einternal>
4.24127435684204

> <i_i_glide_confnum>
11

> <i_i_glide_posenum>
59

> <r_i_glide_eff_state_penalty>
0

> <s_user_duplicate_titles>
CHEMBL3717_lig896

> <s_m_subgroup_title>
dock_pv

> <s_m_subgroupid>
dock_pv

> <b_m_subgroup_collapsed>
1

$$$$
CHEMBL3717_lig1516
                    3D
 Schrodinger Suite 2021-1.
 41 45  0  0  1  0            999 V2000
   -3.9108    4.6272   30.5738 C   0  0  0  0  0  0
   -4.9716    5.5165   30.8092 C   0  0  0  0  0  0
   -6.2954    5.0756   30.7279 C   0  0  0  0  0  0
   -4.1080    3.3126   30.2704 N   0  0  0  0  0  0
   -5.3928    2.9244   30.2069 N   0  0  0  0  0  0
   -6.5199    3.7275   30.4172 C   0  0  0  0  0  0
   -7.6384    2.9898   30.2412 N   0  0  0  0  0  0
   -7.2161    1.7183   29.8832 N   0  0  0  0  0  0
   -5.8971    1.6901   29.8504 C   0  0  0  0  0  0
   -5.0381    0.4983   29.4466 C   0  0  0  0  0  0
   -4.8038   -0.5256   30.5542 C   0  0  0  0  0  0
   -3.5310   -1.0748   30.7245 C   0  0  0  0  0  0
   -3.2905   -2.0467   31.6913 C   0  0  0  0  0  0
   -5.8606   -0.9600   31.3612 C   0  0  0  0  0  0
   -2.4842    5.0658   30.6116 C   0  0  0  0  0  0
   -1.4610    4.1875   31.0076 C   0  0  0  0  0  0
   -0.1238    4.5802   30.9822 C   0  0  0  0  0  0
    0.2127    5.8631   30.5520 C   0  0  0  0  0  0
   -0.7844    6.7562   30.1667 C   0  0  0  0  0  0
   -2.1201    6.3587   30.2081 C   0  0  0  0  0  0
    1.5060    6.2413   30.5016 F   0  0  0  0  0  0
   -5.6515   -1.9571   32.3441 C   0  0  0  0  0  0
   -4.3477   -2.5152   32.5076 C   0  0  0  0  0  0
   -4.0937   -3.4897   33.4268 N   0  0  0  0  0  0
   -5.1182   -3.9372   34.1949 C   0  0  0  0  0  0
   -6.4174   -3.4421   34.1050 C   0  0  0  0  0  0
   -6.6938   -2.4409   33.1748 C   0  0  0  0  0  0
    0.8398    3.7143   31.3699 F   0  0  0  0  0  0
   -4.7799    6.5537   31.0362 H   0  0  0  0  0  0
   -7.1219    5.7551   30.8667 H   0  0  0  0  0  0
   -4.0814    0.8354   29.0449 H   0  0  0  0  0  0
   -5.5068   -0.0370   28.6178 H   0  0  0  0  0  0
   -2.7141   -0.7547   30.0925 H   0  0  0  0  0  0
   -2.3030   -2.4744   31.8010 H   0  0  0  0  0  0
   -6.8560   -0.5615   31.2317 H   0  0  0  0  0  0
   -1.7002    3.1853   31.3312 H   0  0  0  0  0  0
   -0.5191    7.7527   29.8401 H   0  0  0  0  0  0
   -2.8709    7.0613   29.8825 H   0  0  0  0  0  0
   -4.8777   -4.7198   34.9020 H   0  0  0  0  0  0
   -7.2011   -3.8285   34.7408 H   0  0  0  0  0  0
   -7.6923   -2.0364   33.0744 H   0  0  0  0  0  0
  1  2  1  0  0  0
  1  4  2  0  0  0
  1 15  1  0  0  0
  2  3  2  0  0  0
  2 29  1  0  0  0
  3  6  1  0  0  0
  3 30  1  0  0  0
  4  5  1  0  0  0
  5  6  1  0  0  0
  5  9  1  0  0  0
  6  7  2  0  0  0
  7  8  1  0  0  0
  8  9  2  0  0  0
  9 10  1  0  0  0
 10 11  1  0  0  0
 10 31  1  0  0  0
 10 32  1  0  0  0
 11 12  2  0  0  0
 11 14  1  0  0  0
 12 13  1  0  0  0
 12 33  1  0  0  0
 13 23  2  0  0  0
 13 34  1  0  0  0
 14 22  2  0  0  0
 14 35  1  0  0  0
 15 16  2  0  0  0
 15 20  1  0  0  0
 16 17  1  0  0  0
 16 36  1  0  0  0
 17 18  2  0  0  0
 17 28  1  0  0  0
 18 19  1  0  0  0
 18 21  1  0  0  0
 19 20  2  0  0  0
 19 37  1  0  0  0
 20 38  1  0  0  0
 22 23  1  0  0  0
 22 27  1  0  0  0
 23 24  1  0  0  0
 24 25  2  0  0  0
 25 26  1  0  0  0
 25 39  1  0  0  0
 26 27  2  0  0  0
 26 40  1  0  0  0
 27 41  1  0  0  0
M  END
> <s_m_entry_id>
10604

> <s_m_entry_name>
dock_pv.673

> <s_m_Source_Path>
/home/csk/Desktop/cluster/DUD-E-result/met

> <s_m_Source_File>
dock_pv.maegz

> <i_m_Source_File_Index>
673

> <chembl_id>
CHEMBL2431839

> <chembl_pref_name>
None

> <i_lp_mmshare_version>
53161

> <i_f3d_flags>
0

> <r_lp_tautomer_probability>
1

> <s_lp_Force_Field>
OPLS_2005

> <r_lp_Energy>
23.993548

> <b_lp_Chiralities_Consistent>
1

> <s_lp_Variant>
CHEMBL3717_lig1516-1

> <s_i_glide_gridfile>
glide-grid_3lq8

> <i_i_glide_lignum>
1742

> <i_i_glide_rotatable_bonds>
3

> <r_i_docking_score>
-6.88075593436024

> <r_i_glide_ligand_efficiency>
-0.245741283370009

> <r_i_glide_ligand_efficiency_sa>
-0.746215270187093

> <r_i_glide_ligand_efficiency_ln>
-1.58828049742323

> <r_i_glide_gscore>
-6.88075593436024

> <r_i_glide_lipo>
-2.75827685205062

> <r_i_glide_hbond>
0

> <r_i_glide_metal>
0

> <r_i_glide_rewards>
-2.67582442834359

> <r_i_glide_evdw>
-39.9720344543457

> <r_i_glide_ecoul>
0.907090485095978

> <r_i_glide_erotb>
0.415883495986863

> <r_i_glide_esite>
0

> <r_i_glide_emodel>
-54.0417946151466

> <r_i_glide_energy>
-39.0649439692497

> <r_i_glide_einternal>
1.51149499416351

> <i_i_glide_confnum>
4

> <i_i_glide_posenum>
71

> <r_i_glide_eff_state_penalty>
0

> <s_user_duplicate_titles>
CHEMBL3717_lig1516

> <s_m_subgroup_title>
dock_pv

> <s_m_subgroupid>
dock_pv

> <b_m_subgroup_collapsed>
1

$$$$
CHEMBL3717_lig2666
                    3D
 Schrodinger Suite 2021-1.
 44 48  0  0  1  0            999 V2000
   -7.2940   -0.0434   27.4061 O   0  0  0  0  0  0
   -7.9318   -0.7364   28.4626 C   0  0  0  0  0  0
   -7.1418   -0.5821   29.7781 C   0  0  0  0  0  0
   -6.8873    0.8100   30.1273 N   0  0  0  0  0  0
   -5.6702    1.4274   30.2070 C   0  0  0  0  0  0
   -5.9213    2.7685   30.4520 C   0  0  0  0  0  0
   -7.3257    2.8231   30.5144 C   0  0  0  0  0  0
   -7.9043    1.6591   30.3235 N   0  0  0  0  0  0
   -4.9290    3.8705   30.5817 C   0  0  0  0  0  0
   -5.4248    5.1388   30.6080 N   0  0  0  0  0  0
   -4.5205    6.1536   30.6080 C   0  0  0  0  0  0
   -3.1493    5.8848   30.5996 C   0  0  0  0  0  0
   -2.0359    6.6629   30.5539 N   0  0  0  0  0  0
   -0.9485    5.8129   30.6079 N   0  0  0  0  0  0
   -1.3944    4.5356   30.6506 N   0  0  0  0  0  0
   -0.5023    3.3830   30.6692 C   0  0  0  0  0  0
    0.9906    3.6744   30.6362 C   0  0  0  0  0  0
    1.6463    4.0442   31.8080 C   0  0  0  0  0  0
    2.9987    4.3564   31.7883 C   0  0  0  0  0  0
    3.7276    4.3304   30.5876 C   0  0  0  0  0  0
    5.0353    4.7139   30.6078 N   0  0  0  0  0  0
    5.7130    4.7428   29.4403 C   0  0  0  0  0  0
    5.1531    4.3565   28.2317 C   0  0  0  0  0  0
    3.8304    3.9076   28.2079 C   0  0  0  0  0  0
    3.0686    3.9270   29.3928 C   0  0  0  0  0  0
    1.6951    3.5882   29.4331 C   0  0  0  0  0  0
   -2.7740    4.5288   30.6206 C   0  0  0  0  0  0
   -3.6179    3.4913   30.6066 N   0  0  0  0  0  0
   -6.4289   -0.4426   27.2239 H   0  0  0  0  0  0
   -8.9166   -0.2758   28.5572 H   0  0  0  0  0  0
   -8.0652   -1.7856   28.2000 H   0  0  0  0  0  0
   -7.7054   -1.0335   30.5949 H   0  0  0  0  0  0
   -6.2106   -1.1493   29.7453 H   0  0  0  0  0  0
   -4.7532    0.8781   30.0527 H   0  0  0  0  0  0
   -7.9123    3.7144   30.6838 H   0  0  0  0  0  0
   -4.9109    7.1590   30.6028 H   0  0  0  0  0  0
   -0.7419    2.7943   31.5557 H   0  0  0  0  0  0
   -0.7734    2.7736   29.8093 H   0  0  0  0  0  0
    1.1059    4.1155   32.7390 H   0  0  0  0  0  0
    3.5050    4.6762   32.6744 H   0  0  0  0  0  0
    6.7386    5.0732   29.4899 H   0  0  0  0  0  0
    5.7584    4.3729   27.3402 H   0  0  0  0  0  0
    3.3682    3.5570   27.2980 H   0  0  0  0  0  0
    1.1946    3.2958   28.5203 H   0  0  0  0  0  0
  1  2  1  0  0  0
  1 29  1  0  0  0
  2  3  1  0  0  0
  2 30  1  0  0  0
  2 31  1  0  0  0
  3  4  1  0  0  0
  3 32  1  0  0  0
  3 33  1  0  0  0
  4  5  1  0  0  0
  4  8  1  0  0  0
  5  6  2  0  0  0
  5 34  1  0  0  0
  6  7  1  0  0  0
  6  9  1  0  0  0
  7  8  2  0  0  0
  7 35  1  0  0  0
  9 10  2  0  0  0
  9 28  1  0  0  0
 10 11  1  0  0  0
 11 12  2  0  0  0
 11 36  1  0  0  0
 12 13  1  0  0  0
 12 27  1  0  0  0
 13 14  2  0  0  0
 14 15  1  0  0  0
 15 16  1  0  0  0
 15 27  1  0  0  0
 16 17  1  0  0  0
 16 37  1  0  0  0
 16 38  1  0  0  0
 17 18  2  0  0  0
 17 26  1  0  0  0
 18 19  1  0  0  0
 18 39  1  0  0  0
 19 20  2  0  0  0
 19 40  1  0  0  0
 20 21  1  0  0  0
 20 25  1  0  0  0
 21 22  2  0  0  0
 22 23  1  0  0  0
 22 41  1  0  0  0
 23 24  2  0  0  0
 23 42  1  0  0  0
 24 25  1  0  0  0
 24 43  1  0  0  0
 25 26  2  0  0  0
 26 44  1  0  0  0
 27 28  2  0  0  0
M  END
> <s_m_entry_id>
10605

> <s_m_entry_name>
dock_pv.674

> <s_m_Source_Path>
/home/csk/Desktop/cluster/DUD-E-result/met

> <s_m_Source_File>
dock_pv.maegz

> <i_m_Source_File_Index>
674

> <chembl_id>
CHEMBL3660148

> <chembl_pref_name>
None

> <i_lp_mmshare_version>
53161

> <i_f3d_flags>
0

> <r_lp_tautomer_probability>
1

> <s_lp_Force_Field>
OPLS_2005

> <r_lp_Energy>
19.592265

> <b_lp_Chiralities_Consistent>
1

> <s_lp_Variant>
CHEMBL3717_lig2666-1

> <s_i_glide_gridfile>
glide-grid_3lq8

> <i_i_glide_lignum>
3085

> <i_i_glide_rotatable_bonds>
6

> <r_i_docking_score>
-6.87757852290965

> <r_i_glide_ligand_efficiency>
-0.24562780438963

> <r_i_glide_ligand_efficiency_sa>
-0.74587068116712

> <r_i_glide_ligand_efficiency_ln>
-1.58754705756758

> <r_i_glide_gscore>
-6.87757852290965

> <r_i_glide_lipo>
-3.21620974881879

> <r_i_glide_hbond>
-0.16

> <r_i_glide_metal>
0

> <r_i_glide_rewards>
-1.73948846841766

> <r_i_glide_evdw>
-40.7918548583984

> <r_i_glide_ecoul>
-2.79117035865784

> <r_i_glide_erotb>
0.696387991045396

> <r_i_glide_esite>
0

> <r_i_glide_emodel>
-60.5100609474548

> <r_i_glide_energy>
-43.5830252170563

> <r_i_glide_einternal>
2.83878803253174

> <i_i_glide_confnum>
18

> <i_i_glide_posenum>
56

> <r_i_glide_eff_state_penalty>
0

> <s_user_duplicate_titles>
CHEMBL3717_lig2666

> <s_m_subgroup_title>
dock_pv

> <s_m_subgroupid>
dock_pv

> <b_m_subgroup_collapsed>
1

$$$$
CHEMBL3717_lig4297
                    3D
 Schrodinger Suite 2021-1.
 47 51  0  0  1  0            999 V2000
   -4.9197   -4.8905   35.0740 C   0  0  0  0  0  0
   -4.0931   -4.1226   34.2070 O   0  0  0  0  0  0
   -4.6749   -3.1632   33.4030 C   0  0  0  0  0  0
   -3.8368   -2.4448   32.5513 C   0  0  0  0  0  0
   -4.2486   -1.4398   31.7401 N   0  0  0  0  0  0
   -5.5723   -1.0979   31.7387 C   0  0  0  0  0  0
   -6.0782   -0.0455   30.8986 C   0  0  0  0  0  0
   -5.3035    0.7333   30.0211 N   0  0  0  0  0  0
   -4.1188    1.4143   30.5313 C   0  0  0  0  0  0
   -4.2517    2.9301   30.5781 C   0  0  0  0  0  0
   -5.3643    3.6416   30.5927 N   0  0  0  0  0  0
   -5.0457    4.9916   30.6080 N   0  0  0  0  0  0
   -3.6961    5.0717   30.6080 C   0  0  0  0  0  0
   -2.8145    6.1653   30.6116 C   0  0  0  0  0  0
   -1.4347    5.9246   30.6080 C   0  0  0  0  0  0
   -0.9231    4.6237   30.6082 C   0  0  0  0  0  0
   -1.8101    3.5474   30.6135 C   0  0  0  0  0  0
   -3.1618    3.7745   30.6080 N   0  0  0  0  0  0
    0.5322    4.3599   30.5605 C   0  0  0  0  0  0
    1.3625    4.6693   31.6421 C   0  0  0  0  0  0
    2.7222    4.3570   31.5983 C   0  0  0  0  0  0
    3.2749    3.7659   30.4612 C   0  0  0  0  0  0
    4.5981    3.4822   30.4325 F   0  0  0  0  0  0
    2.4580    3.4729   29.3669 C   0  0  0  0  0  0
    3.1075    2.7569   27.9359 Cl  0  0  0  0  0  0
    1.0947    3.7564   29.4305 C   0  0  0  0  0  0
   -7.4513    0.2030   30.9058 C   0  0  0  0  0  0
   -8.2825   -0.5363   31.7407 C   0  0  0  0  0  0
   -7.8419   -1.5190   32.5585 N   0  0  0  0  0  0
   -6.5119   -1.8034   32.5573 C   0  0  0  0  0  0
   -6.0387   -2.8421   33.3967 C   0  0  0  0  0  0
   -4.3020   -5.6037   35.6194 H   0  0  0  0  0  0
   -5.4210   -4.2598   35.8097 H   0  0  0  0  0  0
   -5.6659   -5.4576   34.5142 H   0  0  0  0  0  0
   -2.7821   -2.6744   32.5142 H   0  0  0  0  0  0
   -5.8357    1.2891   29.3688 H   0  0  0  0  0  0
   -3.2985    1.1235   29.8741 H   0  0  0  0  0  0
   -3.8493    1.0509   31.5233 H   0  0  0  0  0  0
   -3.1990    7.1709   30.6201 H   0  0  0  0  0  0
   -0.7513    6.7647   30.5995 H   0  0  0  0  0  0
   -1.4909    2.5177   30.6076 H   0  0  0  0  0  0
    0.9493    5.1308   32.5283 H   0  0  0  0  0  0
    3.3530    4.5804   32.4453 H   0  0  0  0  0  0
    0.4573    3.4982   28.6007 H   0  0  0  0  0  0
   -7.8785    0.9722   30.2791 H   0  0  0  0  0  0
   -9.3457   -0.3451   31.7641 H   0  0  0  0  0  0
   -6.7489   -3.3577   34.0243 H   0  0  0  0  0  0
  1  2  1  0  0  0
  1 32  1  0  0  0
  1 33  1  0  0  0
  1 34  1  0  0  0
  2  3  1  0  0  0
  3  4  2  0  0  0
  3 31  1  0  0  0
  4  5  1  0  0  0
  4 35  1  0  0  0
  5  6  2  0  0  0
  6  7  1  0  0  0
  6 30  1  0  0  0
  7  8  1  0  0  0
  7 27  2  0  0  0
  8  9  1  0  0  0
  8 36  1  0  0  0
  9 10  1  0  0  0
  9 37  1  0  0  0
  9 38  1  0  0  0
 10 11  2  0  0  0
 10 18  1  0  0  0
 11 12  1  0  0  0
 12 13  2  0  0  0
 13 14  1  0  0  0
 13 18  1  0  0  0
 14 15  2  0  0  0
 14 39  1  0  0  0
 15 16  1  0  0  0
 15 40  1  0  0  0
 16 17  2  0  0  0
 16 19  1  0  0  0
 17 18  1  0  0  0
 17 41  1  0  0  0
 19 20  2  0  0  0
 19 26  1  0  0  0
 20 21  1  0  0  0
 20 42  1  0  0  0
 21 22  2  0  0  0
 21 43  1  0  0  0
 22 23  1  0  0  0
 22 24  1  0  0  0
 24 25  1  0  0  0
 24 26  2  0  0  0
 26 44  1  0  0  0
 27 28  1  0  0  0
 27 45  1  0  0  0
 28 29  2  0  0  0
 28 46  1  0  0  0
 29 30  1  0  0  0
 30 31  2  0  0  0
 31 47  1  0  0  0
M  END
> <s_m_entry_id>
10606

> <s_m_entry_name>
dock_pv.675

> <s_m_Source_Path>
/home/csk/Desktop/cluster/DUD-E-result/met

> <s_m_Source_File>
dock_pv.maegz

> <i_m_Source_File_Index>
675

> <chembl_id>
CHEMBL3663587

> <chembl_pref_name>
None

> <i_lp_mmshare_version>
53161

> <i_f3d_flags>
0

> <r_lp_tautomer_probability>
1

> <s_lp_Force_Field>
OPLS_2005

> <r_lp_Energy>
28.304248

> <b_lp_Chiralities_Consistent>
1

> <s_lp_Variant>
CHEMBL3717_lig4297-1

> <s_i_glide_gridfile>
glide-grid_3lq8

> <i_i_glide_lignum>
5519

> <i_i_glide_rotatable_bonds>
5

> <r_i_docking_score>
-6.87662568339778

> <r_i_glide_ligand_efficiency>
-0.221826634948315

> <r_i_glide_ligand_efficiency_sa>
-0.696841898414078

> <r_i_glide_ligand_efficiency_ln>
-1.55088983487409

> <r_i_glide_gscore>
-6.87662568339778

> <r_i_glide_lipo>
-3.42814098652706

> <r_i_glide_hbond>
0

> <r_i_glide_metal>
0

> <r_i_glide_rewards>
-1.95622376334949

> <r_i_glide_evdw>
-45.866813659668

> <r_i_glide_ecoul>
2.53149342536926

> <r_i_glide_erotb>
0.421355735656775

> <r_i_glide_esite>
0

> <r_i_glide_emodel>
-57.1393616837807

> <r_i_glide_energy>
-43.3353202342987

> <r_i_glide_einternal>
6.19747495651245

> <i_i_glide_confnum>
12

> <i_i_glide_posenum>
378

> <r_i_glide_eff_state_penalty>
0

> <s_user_duplicate_titles>
CHEMBL3717_lig4297

> <s_m_subgroup_title>
dock_pv

> <s_m_subgroupid>
dock_pv

> <b_m_subgroup_collapsed>
1

$$$$
CHEMBL3717_lig3094
                    3D
 Schrodinger Suite 2021-1.
 50 55  0  0  1  0            999 V2000
   -6.2890    4.7438   30.7629 S   0  0  0  0  0  0
   -7.0528    3.2246   30.3743 C   0  0  0  0  0  0
   -6.0847    2.2793   30.1562 N   0  0  0  0  0  0
   -4.7731    2.6451   30.2587 N   0  0  0  0  0  0
   -4.7277    3.9252   30.5475 C   0  0  0  0  0  0
   -8.0720    1.4002   29.8588 N   0  0  0  0  0  0
   -8.2571    2.7334   30.2173 N   0  0  0  0  0  0
   -6.7824    1.1319   29.8229 C   0  0  0  0  0  0
   -2.2110    4.1904   30.9142 N   0  0  0  0  0  0
   -3.4746    4.6880   30.6079 C   0  0  0  0  0  0
   -3.3431    6.0247   30.2851 C   0  0  0  0  0  0
   -1.9554    6.3253   30.2083 C   0  0  0  0  0  0
   -1.2264    7.4507   29.8106 C   0  0  0  0  0  0
    0.1594    7.3885   29.7999 C   0  0  0  0  0  0
    0.8287    6.2411   30.2080 C   0  0  0  0  0  0
    0.1472    5.1041   30.6364 C   0  0  0  0  0  0
   -1.2553    5.1525   30.6149 C   0  0  0  0  0  0
   -1.8954    2.8310   31.3442 C   0  0  0  0  0  0
   -6.1679   -0.2041   29.4660 C   0  0  0  0  0  0
   -6.1733   -1.0351   30.6268 O   0  0  0  0  0  0
   -2.7298   -2.4427   32.6078 N   0  0  0  0  0  0
   -2.6228   -1.5784   31.5737 C   0  0  0  0  0  0
   -3.7138   -1.0668   30.8802 C   0  0  0  0  0  0
   -5.0105   -1.4631   31.2437 C   0  0  0  0  0  0
   -5.1520   -2.3680   32.3390 C   0  0  0  0  0  0
   -6.4122   -2.8128   32.8153 C   0  0  0  0  0  0
   -6.4930   -3.6810   33.9015 C   0  0  0  0  0  0
   -5.3381   -4.1447   34.5451 C   0  0  0  0  0  0
   -4.0925   -3.7340   34.0822 C   0  0  0  0  0  0
   -3.9738   -2.8428   32.9904 C   0  0  0  0  0  0
   -5.3320   -4.9870   35.6393 O   0  0  0  0  0  0
   -6.5710   -5.4522   36.1623 C   0  0  0  0  0  0
   -4.1660    6.6730   30.0207 H   0  0  0  0  0  0
   -1.7174    8.3565   29.4977 H   0  0  0  0  0  0
    0.7068    8.2571   29.4687 H   0  0  0  0  0  0
    1.9062    6.2297   30.1906 H   0  0  0  0  0  0
    0.6926    4.2217   30.9359 H   0  0  0  0  0  0
   -0.8513    2.7571   31.6441 H   0  0  0  0  0  0
   -2.4941    2.5598   32.2075 H   0  0  0  0  0  0
   -2.0944    2.1340   30.5335 H   0  0  0  0  0  0
   -5.2067   -0.0782   28.9743 H   0  0  0  0  0  0
   -6.7769   -0.7233   28.7246 H   0  0  0  0  0  0
   -1.6180   -1.2933   31.2988 H   0  0  0  0  0  0
   -3.5166   -0.3758   30.0780 H   0  0  0  0  0  0
   -7.3149   -2.4634   32.3345 H   0  0  0  0  0  0
   -7.4732   -3.9836   34.2358 H   0  0  0  0  0  0
   -3.1973   -4.0891   34.5713 H   0  0  0  0  0  0
   -6.3781   -6.1051   37.0132 H   0  0  0  0  0  0
   -7.1265   -6.0305   35.4224 H   0  0  0  0  0  0
   -7.1920   -4.6263   36.5137 H   0  0  0  0  0  0
  1  2  1  0  0  0
  1  5  1  0  0  0
  2  3  1  0  0  0
  2  7  2  0  0  0
  3  4  1  0  0  0
  3  8  1  0  0  0
  4  5  2  0  0  0
  5 10  1  0  0  0
  6  7  1  0  0  0
  6  8  2  0  0  0
  8 19  1  0  0  0
  9 10  1  0  0  0
  9 17  1  0  0  0
  9 18  1  0  0  0
 10 11  2  0  0  0
 11 12  1  0  0  0
 11 33  1  0  0  0
 12 13  1  0  0  0
 12 17  2  0  0  0
 13 14  2  0  0  0
 13 34  1  0  0  0
 14 15  1  0  0  0
 14 35  1  0  0  0
 15 16  2  0  0  0
 15 36  1  0  0  0
 16 17  1  0  0  0
 16 37  1  0  0  0
 18 38  1  0  0  0
 18 39  1  0  0  0
 18 40  1  0  0  0
 19 20  1  0  0  0
 19 41  1  0  0  0
 19 42  1  0  0  0
 20 24  1  0  0  0
 21 22  2  0  0  0
 21 30  1  0  0  0
 22 23  1  0  0  0
 22 43  1  0  0  0
 23 24  2  0  0  0
 23 44  1  0  0  0
 24 25  1  0  0  0
 25 26  2  0  0  0
 25 30  1  0  0  0
 26 27  1  0  0  0
 26 45  1  0  0  0
 27 28  2  0  0  0
 27 46  1  0  0  0
 28 29  1  0  0  0
 28 31  1  0  0  0
 29 30  2  0  0  0
 29 47  1  0  0  0
 31 32  1  0  0  0
 32 48  1  0  0  0
 32 49  1  0  0  0
 32 50  1  0  0  0
M  END
> <s_m_entry_id>
10607

> <s_m_entry_name>
dock_pv.676

> <s_m_Source_Path>
/home/csk/Desktop/cluster/DUD-E-result/met

> <s_m_Source_File>
dock_pv.maegz

> <i_m_Source_File_Index>
676

> <chembl_id>
CHEMBL4245825

> <chembl_pref_name>
None

> <i_lp_mmshare_version>
53161

> <i_f3d_flags>
0

> <r_lp_tautomer_probability>
1

> <s_lp_Force_Field>
OPLS_2005

> <r_lp_Energy>
35.828977

> <b_lp_Chiralities_Consistent>
1

> <s_lp_Variant>
CHEMBL3717_lig3094-1

> <s_i_glide_gridfile>
glide-grid_3lq8

> <i_i_glide_lignum>
3808

> <i_i_glide_rotatable_bonds>
5

> <r_i_docking_score>
-6.87100617873267

> <r_i_glide_ligand_efficiency>
-0.214718943085396

> <r_i_glide_ligand_efficiency_sa>
-0.681690151474995

> <r_i_glide_ligand_efficiency_ln>
-1.53860557997283

> <r_i_glide_gscore>
-6.87100617873267

> <r_i_glide_lipo>
-3.10690820487909

> <r_i_glide_hbond>
0

> <r_i_glide_metal>
0

> <r_i_glide_rewards>
-1.92607229146126

> <r_i_glide_evdw>
-43.77099609375

> <r_i_glide_ecoul>
-0.384823650121689

> <r_i_glide_erotb>
0.408247669813431

> <r_i_glide_esite>
0

> <r_i_glide_emodel>
-56.1161303699947

> <r_i_glide_energy>
-44.1558197438717

> <r_i_glide_einternal>
8.18885040283203

> <i_i_glide_confnum>
3

> <i_i_glide_posenum>
39

> <r_i_glide_eff_state_penalty>
0

> <s_user_duplicate_titles>
CHEMBL3717_lig3094

> <s_m_subgroup_title>
dock_pv

> <s_m_subgroupid>
dock_pv

> <b_m_subgroup_collapsed>
1

$$$$
CHEMBL3717_lig2805
                    3D
 Schrodinger Suite 2021-1.
 53 57  0  0  1  0            999 V2000
   -4.3441    0.4294   29.0951 C   0  0  0  0  0  0
   -5.2315    0.4710   30.3566 C   0  0  1  0  0  0
   -6.2094    1.5180   30.3170 O   0  0  0  0  0  0
   -5.8487    2.8517   30.4326 C   0  0  0  0  0  0
   -4.5243    3.3031   30.5513 C   0  0  0  0  0  0
   -4.2343    4.6674   30.6066 C   0  0  0  0  0  0
   -5.3083    5.5570   30.6081 C   0  0  0  0  0  0
   -6.6019    5.1567   30.5387 N   0  0  0  0  0  0
   -6.8559    3.8296   30.4316 C   0  0  0  0  0  0
   -8.1951    3.4721   30.3007 N   0  0  0  0  0  0
   -2.8173    5.1145   30.6465 C   0  0  0  0  0  0
   -2.2562    6.3301   30.2272 C   0  0  0  0  0  0
   -0.9539    6.3862   30.3852 N   0  0  0  0  0  0
   -0.6309    5.2106   30.9372 N   0  0  0  0  0  0
   -1.7216    4.4033   31.1066 C   0  0  0  0  0  0
    0.7371    4.9627   31.3830 C   0  0  0  0  0  0
    1.9060    5.3778   30.4752 C   0  0  0  0  0  0
    1.9137    3.9634   29.9116 C   0  0  0  0  0  0
    1.2004    3.6512   28.6135 C   0  0  0  0  0  0
    2.4648    3.3037   27.9712 N   0  0  0  0  0  0
    3.1330    3.3349   29.2695 C   0  0  0  0  0  0
    1.3228    3.5412   31.2676 C   0  0  0  0  0  0
   -5.9554   -0.8752   30.5492 C   0  0  0  0  0  0
   -7.0273   -1.2528   29.7081 C   0  0  0  0  0  0
   -7.6167   -0.2475   28.4244 Cl  0  0  0  0  0  0
   -7.6591   -2.4836   29.8827 C   0  0  0  0  0  0
   -7.2470   -3.3531   30.8857 C   0  0  0  0  0  0
   -6.1935   -3.0004   31.7206 C   0  0  0  0  0  0
   -5.8111   -3.8581   32.6959 F   0  0  0  0  0  0
   -5.5392   -1.7754   31.5550 C   0  0  0  0  0  0
   -4.2060   -1.4256   32.6073 Cl  0  0  0  0  0  0
   -3.6898   -0.4425   29.1036 H   0  0  0  0  0  0
   -4.9641    0.3577   28.2081 H   0  0  0  0  0  0
   -3.7070    1.2977   28.9561 H   0  0  0  0  0  0
   -4.5984    0.6662   31.2197 H   0  0  0  0  0  0
   -3.7040    2.6084   30.5957 H   0  0  0  0  0  0
   -5.1513    6.6251   30.6422 H   0  0  0  0  0  0
   -8.4189    2.4974   30.1637 H   0  0  0  0  0  0
   -8.8895    4.1984   30.2128 H   0  0  0  0  0  0
   -2.8014    7.1583   29.8080 H   0  0  0  0  0  0
   -1.6285    3.4251   31.5522 H   0  0  0  0  0  0
    0.7663    5.3915   32.3855 H   0  0  0  0  0  0
    1.7540    6.2053   29.7830 H   0  0  0  0  0  0
    2.8362    5.5571   31.0101 H   0  0  0  0  0  0
    0.5127    2.8111   28.7156 H   0  0  0  0  0  0
    0.7052    4.5145   28.1719 H   0  0  0  0  0  0
    2.5040    2.4486   27.4312 H   0  0  0  0  0  0
    4.0294    3.9575   29.2877 H   0  0  0  0  0  0
    3.3301    2.3571   29.6992 H   0  0  0  0  0  0
    2.0866    3.3243   32.0188 H   0  0  0  0  0  0
    0.6225    2.7098   31.2677 H   0  0  0  0  0  0
   -8.4735   -2.7677   29.2316 H   0  0  0  0  0  0
   -7.7418   -4.3045   31.0164 H   0  0  0  0  0  0
  1  2  1  0  0  0
  1 32  1  0  0  0
  1 33  1  0  0  0
  1 34  1  0  0  0
  2  3  1  0  0  0
  2 23  1  0  0  0
  2 35  1  0  0  0
  3  4  1  0  0  0
  4  5  2  0  0  0
  4  9  1  0  0  0
  5  6  1  0  0  0
  5 36  1  0  0  0
  6  7  2  0  0  0
  6 11  1  0  0  0
  7  8  1  0  0  0
  7 37  1  0  0  0
  8  9  2  0  0  0
  9 10  1  0  0  0
 10 38  1  0  0  0
 10 39  1  0  0  0
 11 12  1  0  0  0
 11 15  2  0  0  0
 12 13  2  0  0  0
 12 40  1  0  0  0
 13 14  1  0  0  0
 14 15  1  0  0  0
 14 16  1  0  0  0
 15 41  1  0  0  0
 16 17  1  0  0  0
 16 22  1  0  0  0
 16 42  1  0  0  0
 17 18  1  0  0  0
 17 43  1  0  0  0
 17 44  1  0  0  0
 18 19  1  0  0  0
 18 21  1  0  0  0
 18 22  1  0  0  0
 19 20  1  0  0  0
 19 45  1  0  0  0
 19 46  1  0  0  0
 20 21  1  0  0  0
 20 47  1  0  0  0
 21 48  1  0  0  0
 21 49  1  0  0  0
 22 50  1  0  0  0
 22 51  1  0  0  0
 23 24  2  0  0  0
 23 30  1  0  0  0
 24 25  1  0  0  0
 24 26  1  0  0  0
 26 27  2  0  0  0
 26 52  1  0  0  0
 27 28  1  0  0  0
 27 53  1  0  0  0
 28 29  1  0  0  0
 28 30  2  0  0  0
 30 31  1  0  0  0
M  END
> <s_m_entry_id>
10608

> <s_m_entry_name>
dock_pv.677

> <s_m_Source_Path>
/home/csk/Desktop/cluster/DUD-E-result/met

> <s_m_Source_File>
dock_pv.maegz

> <i_m_Source_File_Index>
677

> <chembl_id>
CHEMBL4111854

> <chembl_pref_name>
None

> <i_lp_mmshare_version>
53161

> <i_f3d_flags>
0

> <r_lp_tautomer_probability>
0.999999404453161

> <s_lp_Force_Field>
OPLS_2005

> <r_lp_Energy>
38.565845

> <b_lp_Chiralities_Consistent>
1

> <s_lp_Variant>
CHEMBL3717_lig2805-1

> <s_i_glide_gridfile>
glide-grid_3lq8

> <i_i_glide_lignum>
3404

> <i_i_glide_rotatable_bonds>
5

> <r_i_docking_score>
-6.87072889154804

> <r_i_glide_ligand_efficiency>
-0.221636415856388

> <r_i_glide_ligand_efficiency_sa>
-0.696244347839666

> <r_i_glide_ligand_efficiency_ln>
-1.549559927597

> <r_i_glide_gscore>
-6.87072889154804

> <r_i_glide_lipo>
-3.74594009169575

> <r_i_glide_hbond>
0

> <r_i_glide_metal>
0

> <r_i_glide_rewards>
-1.24152311825431

> <r_i_glide_evdw>
-45.265998840332

> <r_i_glide_ecoul>
-0.414455056190491

> <r_i_glide_erotb>
0.471155248655358

> <r_i_glide_esite>
-0.0289527298081624

> <r_i_glide_emodel>
-62.5847576420905

> <r_i_glide_energy>
-45.6804538965225

> <r_i_glide_einternal>
2.98174595832825

> <i_i_glide_confnum>
47

> <i_i_glide_posenum>
243

> <r_i_glide_eff_state_penalty>
0

> <s_user_duplicate_titles>
CHEMBL3717_lig2805

> <s_m_subgroup_title>
dock_pv

> <s_m_subgroupid>
dock_pv

> <b_m_subgroup_collapsed>
1

$$$$
CHEMBL3717_lig3880
                    3D
 Schrodinger Suite 2021-1.
 46 49  0  0  1  0            999 V2000
   -3.8363    5.2005   30.4056 C   0  0  0  0  0  0
   -4.9712    4.4173   30.2078 C   0  0  0  0  0  0
   -4.9060    3.0196   30.2920 C   0  0  0  0  0  0
   -3.6801    2.4221   30.6049 C   0  0  0  0  0  0
   -2.5450    3.1945   30.8223 C   0  0  0  0  0  0
   -2.6167    4.5811   30.7009 C   0  0  0  0  0  0
   -6.0943    2.1601   30.0197 C   0  0  0  0  0  0
   -8.2913    0.4236   29.3695 C   0  0  0  0  0  0
   -7.0051    0.1825   28.8993 C   0  0  0  0  0  0
   -5.9429    1.0220   29.2131 C   0  0  0  0  0  0
   -1.4047    5.2552   30.8601 N   0  0  0  0  0  0
   -0.9706    6.3577   30.2136 C   0  0  0  0  0  0
   -1.6995    7.2607   29.8115 O   0  0  0  0  0  0
    0.3511    6.3709   29.9372 N   0  0  0  0  0  0
    1.2561    5.3097   30.1380 C   0  0  0  0  0  0
    1.6149    4.8464   31.4134 C   0  0  0  0  0  0
    2.5117    3.7879   31.5475 C   0  0  0  0  0  0
    3.0516    3.1834   30.4144 C   0  0  0  0  0  0
    2.6917    3.6333   29.1411 C   0  0  0  0  0  0
    1.8025    4.7015   29.0086 C   0  0  0  0  0  0
   -8.4607    1.5399   30.1901 C   0  0  0  0  0  0
   -7.3925    2.4178   30.5355 C   0  0  0  0  0  0
   -8.0328    3.3740   31.4050 C   0  0  0  0  0  0
   -9.3064    3.1276   31.5531 N   0  0  0  0  0  0
   -9.5807    2.0356   30.8241 N   0  0  0  0  0  0
   -7.4425    4.4138   32.0618 N   0  0  0  0  0  0
    1.1059    5.4142   32.5271 F   0  0  0  0  0  0
    3.2401    2.9510   27.9062 C   0  0  0  0  0  0
   -3.9167    6.2733   30.3105 H   0  0  0  0  0  0
   -5.8985    4.9056   29.9395 H   0  0  0  0  0  0
   -3.6021    1.3470   30.6830 H   0  0  0  0  0  0
   -1.6090    2.7066   31.0483 H   0  0  0  0  0  0
   -9.1101   -0.2334   29.1168 H   0  0  0  0  0  0
   -6.8209   -0.6748   28.2661 H   0  0  0  0  0  0
   -4.9751    0.7800   28.7961 H   0  0  0  0  0  0
   -0.6738    4.6926   31.2650 H   0  0  0  0  0  0
    0.6600    7.1142   29.3302 H   0  0  0  0  0  0
    2.7842    3.4365   32.5317 H   0  0  0  0  0  0
    3.7432    2.3640   30.5333 H   0  0  0  0  0  0
    1.5085    5.0374   28.0228 H   0  0  0  0  0  0
  -10.5183    1.6651   30.7978 H   0  0  0  0  0  0
   -6.4348    4.4942   32.1088 H   0  0  0  0  0  0
   -7.9700    4.9266   32.7485 H   0  0  0  0  0  0
    3.0976    1.8743   27.9765 H   0  0  0  0  0  0
    4.3060    3.1502   27.8022 H   0  0  0  0  0  0
    2.7199    3.2789   27.0091 H   0  0  0  0  0  0
  1  2  2  0  0  0
  1  6  1  0  0  0
  1 29  1  0  0  0
  2  3  1  0  0  0
  2 30  1  0  0  0
  3  4  2  0  0  0
  3  7  1  0  0  0
  4  5  1  0  0  0
  4 31  1  0  0  0
  5  6  2  0  0  0
  5 32  1  0  0  0
  6 11  1  0  0  0
  7 22  2  0  0  0
  7 10  1  0  0  0
  8 21  2  0  0  0
  8  9  1  0  0  0
  8 33  1  0  0  0
  9 10  2  0  0  0
  9 34  1  0  0  0
 10 35  1  0  0  0
 11 12  1  0  0  0
 11 36  1  0  0  0
 12 13  2  0  0  0
 12 14  1  0  0  0
 14 15  1  0  0  0
 14 37  1  0  0  0
 15 16  2  0  0  0
 15 20  1  0  0  0
 16 17  1  0  0  0
 16 27  1  0  0  0
 17 18  2  0  0  0
 17 38  1  0  0  0
 18 19  1  0  0  0
 18 39  1  0  0  0
 19 20  2  0  0  0
 19 28  1  0  0  0
 20 40  1  0  0  0
 21 22  1  0  0  0
 21 25  1  0  0  0
 22 23  1  0  0  0
 23 24  2  0  0  0
 23 26  1  0  0  0
 24 25  1  0  0  0
 25 41  1  0  0  0
 26 42  1  0  0  0
 26 43  1  0  0  0
 28 44  1  0  0  0
 28 45  1  0  0  0
 28 46  1  0  0  0
M  END
> <s_m_entry_id>
10609

> <s_m_entry_name>
dock_pv.678

> <s_m_Source_Path>
/home/csk/Desktop/cluster/DUD-E-result/met

> <s_m_Source_File>
dock_pv.maegz

> <i_m_Source_File_Index>
678

> <chembl_id>
CHEMBL223360

> <chembl_pref_name>
LINIFANIB

> <i_lp_mmshare_version>
53161

> <i_f3d_flags>
0

> <r_lp_tautomer_probability>
1

> <s_lp_Force_Field>
OPLS_2005

> <r_lp_Energy>
29.317468

> <b_lp_Chiralities_Consistent>
1

> <s_lp_Variant>
CHEMBL3717_lig3880-1

> <s_i_glide_gridfile>
glide-grid_3lq8

> <i_i_glide_lignum>
4926

> <i_i_glide_rotatable_bonds>
5

> <r_i_docking_score>
-6.87003830078983

> <r_i_glide_ligand_efficiency>
-0.245358510742494

> <r_i_glide_ligand_efficiency_sa>
-0.745052947048937

> <r_i_glide_ligand_efficiency_ln>
-1.58580655291178

> <r_i_glide_gscore>
-6.87003830078983

> <r_i_glide_lipo>
-4.2186507373197

> <r_i_glide_hbond>
0

> <r_i_glide_metal>
0

> <r_i_glide_rewards>
-1.05347284568038

> <r_i_glide_evdw>
-43.6949882507324

> <r_i_glide_ecoul>
-0.601644396781921

> <r_i_glide_erotb>
0.686412008744394

> <r_i_glide_esite>
-0.00933065448022858

> <r_i_glide_emodel>
-47.4077286598937

> <r_i_glide_energy>
-44.2966326475143

> <r_i_glide_einternal>
19.8684272766113

> <i_i_glide_confnum>
40

> <i_i_glide_posenum>
184

> <r_i_glide_eff_state_penalty>
0

> <s_user_duplicate_titles>
CHEMBL3717_lig3880

> <s_m_subgroup_title>
dock_pv

> <s_m_subgroupid>
dock_pv

> <b_m_subgroup_collapsed>
1

$$$$
CHEMBL3717_lig2082
                    3D
 Schrodinger Suite 2021-1.
 41 45  0  0  1  0            999 V2000
   -5.2196    0.4058   29.1112 C   0  0  0  0  0  0
   -3.9636    4.5609   30.6079 C   0  0  0  0  0  0
   -5.0492    5.3403   31.0080 C   0  0  0  0  0  0
   -6.3437    4.8139   31.0471 C   0  0  0  0  0  0
   -4.1882    3.2516   30.1892 C   0  0  0  0  0  0
   -5.4648    2.7477   30.1722 N   0  0  0  0  0  0
   -6.5640    3.4994   30.6085 C   0  0  0  0  0  0
   -7.6842    2.7465   30.5135 N   0  0  0  0  0  0
   -7.2997    1.5272   29.9830 N   0  0  0  0  0  0
   -5.9993    1.5360   29.7740 C   0  0  0  0  0  0
   -2.5758    5.0909   30.6082 C   0  0  0  0  0  0
   -4.2146   -0.3448   29.9833 C   0  0  0  0  0  0
   -3.7234   -1.5745   29.5379 C   0  0  0  0  0  0
   -2.7766   -2.2844   30.2736 C   0  0  0  0  0  0
   -3.7378    0.1896   31.1822 C   0  0  0  0  0  0
   -2.7358   -0.4685   31.9098 C   0  0  0  0  0  0
   -2.2712   -1.7458   31.4772 C   0  0  0  0  0  0
   -1.3483   -2.4299   32.2112 N   0  0  0  0  0  0
   -0.8941   -1.8334   33.3430 C   0  0  0  0  0  0
   -1.2939   -0.5539   33.7181 C   0  0  0  0  0  0
   -2.2149    0.1388   33.0095 N   0  0  0  0  0  0
   -7.3656    5.5489   31.5282 F   0  0  0  0  0  0
   -2.1293    6.3587   30.2083 C   0  0  0  0  0  0
   -0.8213    6.4811   30.2082 N   0  0  0  0  0  0
   -0.3833    5.3185   30.7050 N   0  0  0  0  0  0
   -1.4026    4.4381   30.9613 C   0  0  0  0  0  0
    1.0436    5.0986   30.8496 C   0  0  0  0  0  0
   -4.6728    0.7843   28.2465 H   0  0  0  0  0  0
   -5.9155   -0.3316   28.7044 H   0  0  0  0  0  0
   -4.8854    6.3558   31.3356 H   0  0  0  0  0  0
   -3.4026    2.5993   29.8370 H   0  0  0  0  0  0
   -4.0858   -1.9930   28.6088 H   0  0  0  0  0  0
   -2.4223   -3.2436   29.9272 H   0  0  0  0  0  0
   -4.1051    1.1161   31.5838 H   0  0  0  0  0  0
   -0.1657   -2.3804   33.9237 H   0  0  0  0  0  0
   -0.8976   -0.0722   34.6008 H   0  0  0  0  0  0
   -2.7590    7.1571   29.8516 H   0  0  0  0  0  0
   -1.2060    3.4417   31.3295 H   0  0  0  0  0  0
    1.2229    4.1981   31.4402 H   0  0  0  0  0  0
    1.4916    4.9786   29.8617 H   0  0  0  0  0  0
    1.4972    5.9535   31.3535 H   0  0  0  0  0  0
  1 10  1  0  0  0
  1 12  1  0  0  0
  1 28  1  0  0  0
  1 29  1  0  0  0
  2  3  1  0  0  0
  2  5  2  0  0  0
  2 11  1  0  0  0
  3  4  2  0  0  0
  3 30  1  0  0  0
  4  7  1  0  0  0
  4 22  1  0  0  0
  5  6  1  0  0  0
  5 31  1  0  0  0
  6  7  1  0  0  0
  6 10  1  0  0  0
  7  8  2  0  0  0
  8  9  1  0  0  0
  9 10  2  0  0  0
 11 23  1  0  0  0
 11 26  2  0  0  0
 12 13  2  0  0  0
 12 15  1  0  0  0
 13 14  1  0  0  0
 13 32  1  0  0  0
 14 17  2  0  0  0
 14 33  1  0  0  0
 15 16  2  0  0  0
 15 34  1  0  0  0
 16 17  1  0  0  0
 16 21  1  0  0  0
 17 18  1  0  0  0
 18 19  2  0  0  0
 19 20  1  0  0  0
 19 35  1  0  0  0
 20 21  2  0  0  0
 20 36  1  0  0  0
 23 24  2  0  0  0
 23 37  1  0  0  0
 24 25  1  0  0  0
 25 26  1  0  0  0
 25 27  1  0  0  0
 26 38  1  0  0  0
 27 39  1  0  0  0
 27 40  1  0  0  0
 27 41  1  0  0  0
M  END
> <s_m_entry_id>
10610

> <s_m_entry_name>
dock_pv.679

> <s_m_Source_Path>
/home/csk/Desktop/cluster/DUD-E-result/met

> <s_m_Source_File>
dock_pv.maegz

> <i_m_Source_File_Index>
679

> <chembl_id>
CHEMBL3414744

> <chembl_pref_name>
None

> <i_lp_mmshare_version>
53161

> <i_f3d_flags>
0

> <r_lp_tautomer_probability>
1

> <s_lp_Force_Field>
OPLS_2005

> <r_lp_Energy>
24.739179

> <b_lp_Chiralities_Consistent>
1

> <s_lp_Variant>
CHEMBL3717_lig2082-1

> <s_i_glide_gridfile>
glide-grid_3lq8

> <i_i_glide_lignum>
2378

> <i_i_glide_rotatable_bonds>
3

> <r_i_docking_score>
-6.86802540659905

> <r_i_glide_ligand_efficiency>
-0.25437131135552

> <r_i_glide_ligand_efficiency_sa>
-0.763113933228195

> <r_i_glide_ligand_efficiency_ln>
-1.59876308640816

> <r_i_glide_gscore>
-6.86802540659905

> <r_i_glide_lipo>
-2.96203820099554

> <r_i_glide_hbond>
0

> <r_i_glide_metal>
0

> <r_i_glide_rewards>
-2.19032114370702

> <r_i_glide_evdw>
-41.8542594909668

> <r_i_glide_ecoul>
-0.445980191230774

> <r_i_glide_erotb>
0.445251037225248

> <r_i_glide_esite>
-0.00130709588878045

> <r_i_glide_emodel>
-56.1231626939663

> <r_i_glide_energy>
-42.3002396821976

> <r_i_glide_einternal>
4.05672073364258

> <i_i_glide_confnum>
8

> <i_i_glide_posenum>
39

> <r_i_glide_eff_state_penalty>
0

> <s_user_duplicate_titles>
CHEMBL3717_lig2082

> <s_m_subgroup_title>
dock_pv

> <s_m_subgroupid>
dock_pv

> <b_m_subgroup_collapsed>
1

$$$$
CHEMBL3717_lig3919
                    3D
 Schrodinger Suite 2021-1.
 26 27  0  0  1  0            999 V2000
   -1.9716    3.4736   31.0080 S   0  0  0  0  0  0
   -2.8939    7.1568   30.4411 O   0  0  0  0  0  0
    0.5705    4.3213   31.2115 O   0  0  0  0  0  0
   -5.3724   -0.1209   29.5749 O   0  0  0  0  0  0
   -7.9901    0.3330   30.1719 O   0  0  0  0  0  0
   -1.0970    5.8310   30.7634 N   0  0  0  0  0  0
   -3.1135    4.7745   30.6085 C   0  0  0  0  0  0
   -2.4092    6.0370   30.5983 C   0  0  0  0  0  0
   -5.3309    3.5491   30.2746 C   0  0  0  0  0  0
   -4.4421    4.7290   30.3455 C   0  0  0  0  0  0
   -0.6028    4.6197   31.0078 C   0  0  0  0  0  0
   -5.7576    1.1693   29.8950 C   0  0  0  0  0  0
   -4.8812    2.2669   29.9296 C   0  0  0  0  0  0
   -7.1073    1.3801   30.2001 C   0  0  0  0  0  0
   -6.6870    3.7283   30.5656 C   0  0  0  0  0  0
   -7.5707    2.6524   30.5275 C   0  0  0  0  0  0
   -4.0111   -0.3841   29.2492 C   0  0  0  0  0  0
   -7.5393   -0.4843   29.9408 H   0  0  0  0  0  0
   -0.4730    6.6227   30.7366 H   0  0  0  0  0  0
   -4.9495    5.6626   30.1318 H   0  0  0  0  0  0
   -3.8468    2.1239   29.6693 H   0  0  0  0  0  0
   -7.0680    4.7060   30.8234 H   0  0  0  0  0  0
   -8.6148    2.8041   30.7579 H   0  0  0  0  0  0
   -3.8964   -1.4412   29.0085 H   0  0  0  0  0  0
   -3.6928    0.1862   28.3747 H   0  0  0  0  0  0
   -3.3478   -0.1619   30.0869 H   0  0  0  0  0  0
  1  7  1  0  0  0
  1 11  1  0  0  0
  2  8  2  0  0  0
  3 11  2  0  0  0
  4 12  1  0  0  0
  4 17  1  0  0  0
  5 14  1  0  0  0
  5 18  1  0  0  0
  6  8  1  0  0  0
  6 11  1  0  0  0
  6 19  1  0  0  0
  7  8  1  0  0  0
  7 10  2  3  0  0
  9 10  1  0  0  0
  9 13  1  0  0  0
  9 15  2  0  0  0
 10 20  1  0  0  0
 12 13  2  0  0  0
 12 14  1  0  0  0
 13 21  1  0  0  0
 14 16  2  0  0  0
 15 16  1  0  0  0
 15 22  1  0  0  0
 16 23  1  0  0  0
 17 24  1  0  0  0
 17 25  1  0  0  0
 17 26  1  0  0  0
M  END
> <s_m_entry_id>
10611

> <s_m_entry_name>
dock_pv.680

> <s_m_Source_Path>
/home/csk/Desktop/cluster/DUD-E-result/met

> <s_m_Source_File>
dock_pv.maegz

> <i_m_Source_File_Index>
680

> <chembl_id>
CHEMBL2003286

> <chembl_pref_name>
None

> <i_lp_mmshare_version>
53161

> <i_f3d_flags>
0

> <r_lp_tautomer_probability>
1

> <s_lp_Force_Field>
OPLS_2005

> <r_lp_Energy>
16.145588

> <b_lp_Chiralities_Consistent>
1

> <s_lp_Variant>
CHEMBL3717_lig3919-2

> <s_i_glide_gridfile>
glide-grid_3lq8

> <i_i_glide_lignum>
4976

> <i_i_glide_rotatable_bonds>
3

> <r_i_docking_score>
-6.86650532652032

> <r_i_glide_ligand_efficiency>
-0.403912078030607

> <r_i_glide_ligand_efficiency_sa>
-1.03857168950378

> <r_i_glide_ligand_efficiency_ln>
-1.79131833013352

> <r_i_glide_gscore>
-6.86650532652032

> <r_i_glide_lipo>
-1.73983762088749

> <r_i_glide_hbond>
-0.32

> <r_i_glide_metal>
0

> <r_i_glide_rewards>
-3.25429156060606

> <r_i_glide_evdw>
-27.3539638519287

> <r_i_glide_ecoul>
-3.08183670043945

> <r_i_glide_erotb>
0.277597552635586

> <r_i_glide_esite>
0

> <r_i_glide_emodel>
-43.7677961525112

> <r_i_glide_energy>
-30.4358005523682

> <r_i_glide_einternal>
0.663729786872864

> <i_i_glide_confnum>
1

> <i_i_glide_posenum>
265

> <r_i_glide_eff_state_penalty>
0

> <s_user_duplicate_titles>
CHEMBL3717_lig3919

> <s_m_subgroup_title>
dock_pv

> <s_m_subgroupid>
dock_pv

> <b_m_subgroup_collapsed>
1

$$$$
CHEMBL3717_lig2670
                    3D
 Schrodinger Suite 2021-1.
 47 51  0  0  1  0            999 V2000
  -10.3246   -0.9044   30.2657 C   0  0  0  0  0  0
   -9.9662    0.3555   30.5813 C   0  0  0  0  0  0
   -9.9758    0.6800   31.9084 N   0  0  0  0  0  0
   -9.6480    1.8353   32.3386 C   0  0  0  0  0  0
   -9.2642    3.0202   31.4920 C   0  0  2  0  0  0
   -8.6110    2.5131   30.1654 C   0  0  2  0  0  0
   -9.5407    1.4223   29.5280 C   0  0  1  0  0  0
   -8.9479    0.8438   28.3460 N   0  3  0  0  0  0
   -8.4945    0.3588   27.4093 C   0  5  0  0  0  0
   -7.1541    2.0848   30.3373 C   0  0  0  0  0  0
   -6.9564    0.7992   30.7453 O   0  0  0  0  0  0
   -5.6170    0.6484   30.9151 C   0  0  0  0  0  0
   -4.9849   -0.5140   31.3653 C   0  0  0  0  0  0
   -3.6051   -0.4187   31.5210 C   0  0  0  0  0  0
   -2.8953    0.7076   31.2639 N   0  0  0  0  0  0
   -3.5181    1.8271   30.8013 C   0  0  0  0  0  0
   -2.6291    2.8922   30.6090 N   0  0  0  0  0  0
   -2.8224    4.2186   30.7720 C   0  0  0  0  0  0
   -3.9048    4.7555   31.0079 O   0  0  0  0  0  0
   -1.5870    5.0679   30.6082 C   0  0  0  0  0  0
   -0.2954    4.5409   30.7863 C   0  0  0  0  0  0
    0.8218    5.3198   30.5038 C   0  0  0  0  0  0
    0.6503    6.6194   30.0387 C   0  0  0  0  0  0
   -0.6189    7.1628   29.8850 C   0  0  0  0  0  0
   -1.7347    6.4007   30.2055 C   0  0  0  0  0  0
   -4.9213    1.8422   30.6075 C   0  0  0  0  0  0
   -5.9483    2.7555   30.2042 C   0  0  0  0  0  0
   -8.4499    3.8343   32.5004 C   0  0  0  0  0  0
   -7.6951    4.7793   32.2826 O   0  0  0  0  0  0
   -8.6527    3.3739   33.7508 O   0  0  0  0  0  0
   -9.5495    2.2698   33.7732 C   0  0  0  0  0  0
  -10.3474   -1.2498   29.2431 H   0  0  0  0  0  0
  -10.1624    3.5869   31.2518 H   0  0  0  0  0  0
  -10.6014   -1.6186   31.0286 H   0  0  0  0  0  0
   -8.5931    3.3645   29.4815 H   0  0  0  0  0  0
  -10.4536    1.9120   29.1868 H   0  0  0  0  0  0
   -5.5365   -1.4145   31.5904 H   0  0  0  0  0  0
   -3.0339   -1.2670   31.8725 H   0  0  0  0  0  0
   -1.6962    2.6104   30.3546 H   0  0  0  0  0  0
   -0.1380    3.5261   31.1230 H   0  0  0  0  0  0
    1.8151    4.9136   30.6305 H   0  0  0  0  0  0
    1.5074    7.2254   29.8093 H   0  0  0  0  0  0
   -0.7346    8.1782   29.5359 H   0  0  0  0  0  0
   -2.7168    6.8322   30.0736 H   0  0  0  0  0  0
   -5.8541    3.7900   29.9111 H   0  0  0  0  0  0
  -10.5239    2.5654   34.1633 H   0  0  0  0  0  0
   -9.1487    1.4699   34.3990 H   0  0  0  0  0  0
  1  2  2  0  0  0
  1 32  1  0  0  0
  1 34  1  0  0  0
  2  3  1  0  0  0
  2  7  1  0  0  0
  3  4  2  0  0  0
  4  5  1  0  0  0
  4 31  1  0  0  0
  5  6  1  0  0  0
  5 28  1  0  0  0
  5 33  1  0  0  0
  6  7  1  0  0  0
  6 10  1  0  0  0
  6 35  1  0  0  0
  7  8  1  0  0  0
  7 36  1  0  0  0
  8  9  3  0  0  0
 10 11  1  0  0  0
 10 27  2  0  0  0
 11 12  1  0  0  0
 12 13  2  0  0  0
 12 26  1  0  0  0
 13 14  1  0  0  0
 13 37  1  0  0  0
 14 15  2  0  0  0
 14 38  1  0  0  0
 15 16  1  0  0  0
 16 17  1  0  0  0
 16 26  2  0  0  0
 17 18  1  0  0  0
 17 39  1  0  0  0
 18 19  2  0  0  0
 18 20  1  0  0  0
 20 21  2  0  0  0
 20 25  1  0  0  0
 21 22  1  0  0  0
 21 40  1  0  0  0
 22 23  2  0  0  0
 22 41  1  0  0  0
 23 24  1  0  0  0
 23 42  1  0  0  0
 24 25  2  0  0  0
 24 43  1  0  0  0
 25 44  1  0  0  0
 26 27  1  0  0  0
 27 45  1  0  0  0
 28 29  2  0  0  0
 28 30  1  0  0  0
 30 31  1  0  0  0
 31 46  1  0  0  0
 31 47  1  0  0  0
M  CHG  2   8   1   9  -1
M  END
> <s_m_entry_id>
10612

> <s_m_entry_name>
dock_pv.681

> <s_m_Source_Path>
/home/csk/Desktop/cluster/DUD-E-result/met

> <s_m_Source_File>
dock_pv.maegz

> <i_m_Source_File_Index>
681

> <chembl_id>
CHEMBL3680045

> <chembl_pref_name>
None

> <i_lp_mmshare_version>
53161

> <i_f3d_flags>
0

> <r_lp_tautomer_probability>
0.499993

> <s_lp_Force_Field>
OPLS_2005

> <r_lp_Energy>
30.548182

> <b_lp_Chiralities_Consistent>
1

> <s_lp_Variant>
CHEMBL3717_lig2670-5

> <s_i_glide_gridfile>
glide-grid_3lq8

> <i_i_glide_lignum>
3102

> <i_i_glide_rotatable_bonds>
5

> <r_i_docking_score>
-6.86145505513696

> <r_i_glide_ligand_efficiency>
-0.221337259843128

> <r_i_glide_ligand_efficiency_sa>
-0.695304584928639

> <r_i_glide_ligand_efficiency_ln>
-1.54746839327735

> <r_i_glide_gscore>
-6.86145505513696

> <r_i_glide_lipo>
-2.81775236534925

> <r_i_glide_hbond>
-0.280989880860413

> <r_i_glide_metal>
0

> <r_i_glide_rewards>
-1.80846062719703

> <r_i_glide_evdw>
-36.5650672912598

> <r_i_glide_ecoul>
-3.93179440498352

> <r_i_glide_erotb>
0.463770343580253

> <r_i_glide_esite>
0

> <r_i_glide_emodel>
-48.3006246093132

> <r_i_glide_energy>
-40.4968616962433

> <r_i_glide_einternal>
12.8905086517334

> <i_i_glide_confnum>
3

> <i_i_glide_posenum>
7

> <r_i_glide_eff_state_penalty>
0

> <s_user_duplicate_titles>
CHEMBL3717_lig2670

> <s_m_subgroup_title>
dock_pv

> <s_m_subgroupid>
dock_pv

> <b_m_subgroup_collapsed>
1

$$$$
CHEMBL3717_lig4333
                    3D
 Schrodinger Suite 2021-1.
 51 56  0  0  1  0            999 V2000
   -4.7402   -5.8543   35.6697 C   0  0  0  0  0  0
   -5.7810   -5.1135   35.0361 O   0  0  0  0  0  0
   -5.4480   -4.1351   34.1195 C   0  0  0  0  0  0
   -6.5001   -3.4799   33.4842 C   0  0  0  0  0  0
   -6.2735   -2.4756   32.5449 C   0  0  0  0  0  0
   -4.9485   -2.0959   32.2056 C   0  0  0  0  0  0
   -4.6480   -1.0741   31.2539 C   0  0  0  0  0  0
   -5.7166   -0.4402   30.6454 O   0  0  0  0  0  0
   -5.5512    0.4729   29.5599 C   0  0  0  0  0  0
   -6.3331    1.7347   29.8692 C   0  0  0  0  0  0
   -7.6501    1.8325   29.8319 N   0  0  0  0  0  0
   -8.0226    3.1370   30.1125 N   0  0  0  0  0  0
   -6.8746    3.8164   30.3286 C   0  0  0  0  0  0
   -6.6030    5.1583   30.6079 C   0  0  0  0  0  0
   -5.2685    5.5479   30.7381 C   0  0  0  0  0  0
   -4.2309    4.6157   30.5733 C   0  0  0  0  0  0
   -4.4726    3.2937   30.3161 N   0  0  0  0  0  0
   -5.7762    2.9525   30.2071 N   0  0  0  0  0  0
   -2.7880    5.0335   30.6090 C   0  0  0  0  0  0
   -2.4172    6.3567   30.2888 C   0  0  0  0  0  0
   -1.0817    6.7501   30.2052 C   0  0  0  0  0  0
   -0.1021    5.8013   30.4665 C   0  0  0  0  0  0
    1.2429    6.0280   30.3576 O   0  0  0  0  0  0
    1.9081    4.8519   30.8171 C   0  0  0  0  0  0
    0.8614    3.7325   30.8977 C   0  0  0  0  0  0
   -0.4179    4.5019   30.8069 C   0  0  0  0  0  0
   -1.7566    4.1110   30.8845 C   0  0  0  0  0  0
   -3.2978   -0.7702   31.0230 C   0  0  0  0  0  0
   -2.3102   -1.4698   31.7059 C   0  0  0  0  0  0
   -2.5685   -2.4423   32.6046 N   0  0  0  0  0  0
   -3.8656   -2.7665   32.8518 C   0  0  0  0  0  0
   -4.1319   -3.7738   33.8076 C   0  0  0  0  0  0
   -5.1817   -6.5947   36.3362 H   0  0  0  0  0  0
   -4.0953   -5.2116   36.2721 H   0  0  0  0  0  0
   -4.1279   -6.3890   34.9412 H   0  0  0  0  0  0
   -7.5164   -3.7576   33.7279 H   0  0  0  0  0  0
   -7.1090   -1.9846   32.0664 H   0  0  0  0  0  0
   -4.5325    0.7050   29.2618 H   0  0  0  0  0  0
   -5.9611   -0.0293   28.6820 H   0  0  0  0  0  0
   -7.4045    5.8834   30.6698 H   0  0  0  0  0  0
   -5.0548    6.5876   30.9408 H   0  0  0  0  0  0
   -3.1623    7.0967   30.0484 H   0  0  0  0  0  0
   -0.8204    7.7615   29.9281 H   0  0  0  0  0  0
    2.7695    4.5911   30.1998 H   0  0  0  0  0  0
    2.2772    5.0577   31.8241 H   0  0  0  0  0  0
    0.9750    3.1478   31.8080 H   0  0  0  0  0  0
    0.9796    3.0617   30.0458 H   0  0  0  0  0  0
   -1.9955    3.0820   31.1128 H   0  0  0  0  0  0
   -2.9779   -0.0024   30.3385 H   0  0  0  0  0  0
   -1.2668   -1.2445   31.5354 H   0  0  0  0  0  0
   -3.2921   -4.2608   34.2750 H   0  0  0  0  0  0
  1  2  1  0  0  0
  1 33  1  0  0  0
  1 34  1  0  0  0
  1 35  1  0  0  0
  2  3  1  0  0  0
  3  4  2  0  0  0
  3 32  1  0  0  0
  4  5  1  0  0  0
  4 36  1  0  0  0
  5  6  2  0  0  0
  5 37  1  0  0  0
  6  7  1  0  0  0
  6 31  1  0  0  0
  7  8  1  0  0  0
  7 28  2  0  0  0
  8  9  1  0  0  0
  9 10  1  0  0  0
  9 38  1  0  0  0
  9 39  1  0  0  0
 10 11  2  0  0  0
 10 18  1  0  0  0
 11 12  1  0  0  0
 12 13  2  0  0  0
 13 14  1  0  0  0
 13 18  1  0  0  0
 14 15  2  0  0  0
 14 40  1  0  0  0
 15 16  1  0  0  0
 15 41  1  0  0  0
 16 17  2  0  0  0
 16 19  1  0  0  0
 17 18  1  0  0  0
 19 20  2  0  0  0
 19 27  1  0  0  0
 20 21  1  0  0  0
 20 42  1  0  0  0
 21 22  2  0  0  0
 21 43  1  0  0  0
 22 23  1  0  0  0
 22 26  1  0  0  0
 23 24  1  0  0  0
 24 25  1  0  0  0
 24 44  1  0  0  0
 24 45  1  0  0  0
 25 26  1  0  0  0
 25 46  1  0  0  0
 25 47  1  0  0  0
 26 27  2  0  0  0
 27 48  1  0  0  0
 28 29  1  0  0  0
 28 49  1  0  0  0
 29 30  2  0  0  0
 29 50  1  0  0  0
 30 31  1  0  0  0
 31 32  2  0  0  0
 32 51  1  0  0  0
M  END
> <s_m_entry_id>
10613

> <s_m_entry_name>
dock_pv.682

> <s_m_Source_Path>
/home/csk/Desktop/cluster/DUD-E-result/met

> <s_m_Source_File>
dock_pv.maegz

> <i_m_Source_File_Index>
682

> <chembl_id>
CHEMBL3668158

> <chembl_pref_name>
None

> <i_lp_mmshare_version>
53161

> <i_f3d_flags>
0

> <r_lp_tautomer_probability>
1

> <s_lp_Force_Field>
OPLS_2005

> <r_lp_Energy>
38.114259

> <b_lp_Chiralities_Consistent>
1

> <s_lp_Variant>
CHEMBL3717_lig4333-1

> <s_i_glide_gridfile>
glide-grid_3lq8

> <i_i_glide_lignum>
5558

> <i_i_glide_rotatable_bonds>
5

> <r_i_docking_score>
-6.86016436982483

> <r_i_glide_ligand_efficiency>
-0.214380136557026

> <r_i_glide_ligand_efficiency_sa>
-0.680614507797142

> <r_i_glide_ligand_efficiency_ln>
-1.53617780342182

> <r_i_glide_gscore>
-6.86016436982483

> <r_i_glide_lipo>
-3.41343411233766

> <r_i_glide_hbond>
0

> <r_i_glide_metal>
0

> <r_i_glide_rewards>
-1.775634882859

> <r_i_glide_evdw>
-44.3941116333008

> <r_i_glide_ecoul>
0.734766602516174

> <r_i_glide_erotb>
0.438395216659445

> <r_i_glide_esite>
0

> <r_i_glide_emodel>
-60.2283672496815

> <r_i_glide_energy>
-43.6593450307846

> <r_i_glide_einternal>
0.959739923477173

> <i_i_glide_confnum>
6

> <i_i_glide_posenum>
10

> <r_i_glide_eff_state_penalty>
0

> <s_user_duplicate_titles>
CHEMBL3717_lig4333

> <s_m_subgroup_title>
dock_pv

> <s_m_subgroupid>
dock_pv

> <b_m_subgroup_collapsed>
1

$$$$
CHEMBL3717_lig1598
                    3D
 Schrodinger Suite 2021-1.
 59 63  0  0  1  0            999 V2000
    0.7874    4.0078   29.2003 C   0  0  0  0  0  0
    2.3177    4.1117   29.0585 C   0  0  0  0  0  0
    2.9926    3.7177   30.2996 N   0  0  2  0  0  0
    2.5596    4.5366   31.4376 C   0  0  0  0  0  0
    1.0287    4.4833   31.6599 C   0  0  0  0  0  0
    0.1830    4.8017   30.3988 C   0  0  0  0  0  0
   -5.7528    0.4300   29.9910 C   0  0  0  0  0  0
   -5.0969   -0.6924   30.5178 C   0  0  0  0  0  0
   -3.8933   -0.5736   31.1282 N   0  0  0  0  0  0
   -3.3421    0.6646   31.1810 C   0  0  0  0  0  0
   -3.9570    1.7914   30.6070 C   0  0  0  0  0  0
   -5.1833    1.6687   30.0185 N   0  0  0  0  0  0
   -3.3094    3.1432   30.6083 C   0  0  0  0  0  0
   -1.9127    3.2417   30.6944 C   0  0  0  0  0  0
   -3.4038    5.5878   30.5001 C   0  0  0  0  0  0
   -4.0464    4.3427   30.5439 C   0  0  0  0  0  0
   -2.0084    5.6279   30.4900 C   0  0  0  0  0  0
   -1.2673    4.4693   30.6080 C   0  0  0  0  0  0
    0.1422    6.3139   30.1011 C   0  0  0  0  0  0
   -1.1490    6.6878   30.2088 N   0  0  0  0  0  0
    1.0927    7.0298   29.8080 O   0  0  0  0  0  0
    4.4395    3.7949   30.1177 C   0  0  0  0  0  0
   -5.6559   -1.9680   30.4438 N   0  0  0  0  0  0
   -7.0195    0.3451   29.4597 O   0  0  0  0  0  0
   -8.0748    0.5261   30.4094 C   0  0  1  0  0  0
   -8.4642    2.0147   30.4790 C   0  0  0  0  0  0
   -8.8223    2.7184   29.3093 C   0  0  0  0  0  0
   -9.1281    4.0753   29.3732 C   0  0  0  0  0  0
   -9.0828    4.7570   30.5822 C   0  0  0  0  0  0
   -8.7397    4.0793   31.7468 C   0  0  0  0  0  0
   -8.4397    2.7143   31.7066 C   0  0  0  0  0  0
   -9.2474   -0.4106   30.0690 C   0  0  0  0  0  0
   -8.0491    1.9383   33.2064 Cl  0  0  0  0  0  0
   -8.6963    4.7568   32.9183 F   0  0  0  0  0  0
   -8.8941    1.9708   27.7483 Cl  0  0  0  0  0  0
    0.5810    2.9441   29.3207 H   0  0  0  0  0  0
    0.3064    4.2641   28.2602 H   0  0  0  0  0  0
    2.6484    3.4668   28.2422 H   0  0  0  0  0  0
    2.6143    5.1277   28.7891 H   0  0  0  0  0  0
    3.0763    4.2169   32.3439 H   0  0  0  0  0  0
    2.8717    5.5570   31.2377 H   0  0  0  0  0  0
    0.7118    5.0766   32.5189 H   0  0  0  0  0  0
    0.8236    3.4565   31.9573 H   0  0  0  0  0  0
   -2.4006    0.7248   31.7013 H   0  0  0  0  0  0
   -1.3059    2.3571   30.7219 H   0  0  0  0  0  0
   -3.9965    6.4841   30.3920 H   0  0  0  0  0  0
   -5.1259    4.3107   30.5019 H   0  0  0  0  0  0
   -1.4402    7.6386   30.0414 H   0  0  0  0  0  0
    4.9629    3.4486   31.0079 H   0  0  0  0  0  0
    4.7569    3.1583   29.2905 H   0  0  0  0  0  0
    4.7672    4.8146   29.9063 H   0  0  0  0  0  0
   -6.4860   -2.0917   29.8824 H   0  0  0  0  0  0
   -5.0976   -2.7624   30.7260 H   0  0  0  0  0  0
   -7.7291    0.1831   31.3856 H   0  0  0  0  0  0
   -9.3967    4.6109   28.4743 H   0  0  0  0  0  0
   -9.3179    5.8116   30.6081 H   0  0  0  0  0  0
  -10.0652   -0.2870   30.7790 H   0  0  0  0  0  0
   -9.6464   -0.2412   29.0710 H   0  0  0  0  0  0
   -8.9309   -1.4528   30.1137 H   0  0  0  0  0  0
  1  2  1  0  0  0
  1  6  1  0  0  0
  1 36  1  0  0  0
  1 37  1  0  0  0
  2  3  1  0  0  0
  2 38  1  0  0  0
  2 39  1  0  0  0
  3  4  1  0  0  0
  3 22  1  0  0  0
  4  5  1  0  0  0
  4 40  1  0  0  0
  4 41  1  0  0  0
  5  6  1  0  0  0
  5 42  1  0  0  0
  5 43  1  0  0  0
  6 18  1  0  0  0
  6 19  1  0  0  0
  7  8  2  0  0  0
  7 12  1  0  0  0
  7 24  1  0  0  0
  8  9  1  0  0  0
  8 23  1  0  0  0
  9 10  2  0  0  0
 10 11  1  0  0  0
 10 44  1  0  0  0
 11 12  2  0  0  0
 11 13  1  0  0  0
 13 14  2  0  0  0
 13 16  1  0  0  0
 14 18  1  0  0  0
 14 45  1  0  0  0
 15 17  1  0  0  0
 15 16  2  0  0  0
 15 46  1  0  0  0
 16 47  1  0  0  0
 17 18  2  0  0  0
 17 20  1  0  0  0
 19 20  1  0  0  0
 19 21  2  0  0  0
 20 48  1  0  0  0
 22 49  1  0  0  0
 22 50  1  0  0  0
 22 51  1  0  0  0
 23 52  1  0  0  0
 23 53  1  0  0  0
 24 25  1  0  0  0
 25 26  1  0  0  0
 25 32  1  0  0  0
 25 54  1  0  0  0
 26 27  2  0  0  0
 26 31  1  0  0  0
 27 28  1  0  0  0
 27 35  1  0  0  0
 28 29  2  0  0  0
 28 55  1  0  0  0
 29 30  1  0  0  0
 29 56  1  0  0  0
 30 31  2  0  0  0
 30 34  1  0  0  0
 31 33  1  0  0  0
 32 57  1  0  0  0
 32 58  1  0  0  0
 32 59  1  0  0  0
M  END
> <s_m_entry_id>
10614

> <s_m_entry_name>
dock_pv.683

> <s_m_Source_Path>
/home/csk/Desktop/cluster/DUD-E-result/met

> <s_m_Source_File>
dock_pv.maegz

> <i_m_Source_File_Index>
683

> <chembl_id>
CHEMBL3091722

> <chembl_pref_name>
None

> <i_lp_mmshare_version>
53161

> <i_f3d_flags>
0

> <r_lp_tautomer_probability>
1

> <s_lp_Force_Field>
OPLS_2005

> <r_lp_Energy>
48.72186

> <b_lp_Chiralities_Consistent>
1

> <s_lp_Variant>
CHEMBL3717_lig1598-1

> <s_i_glide_gridfile>
glide-grid_3lq8

> <i_i_glide_lignum>
1851

> <i_i_glide_rotatable_bonds>
4

> <r_i_docking_score>
-6.8546150913898

> <r_i_glide_ligand_efficiency>
-0.19584614546828

> <r_i_glide_ligand_efficiency_sa>
-0.640625727662368

> <r_i_glide_ligand_efficiency_ln>
-1.50474014254547

> <r_i_glide_gscore>
-6.8546150913898

> <r_i_glide_lipo>
-3.56666115020937

> <r_i_glide_hbond>
0

> <r_i_glide_metal>
0

> <r_i_glide_rewards>
-0.97389809382146

> <r_i_glide_evdw>
-43.4663619995117

> <r_i_glide_ecoul>
-2.63544797897339

> <r_i_glide_erotb>
0.307883371431496

> <r_i_glide_esite>
-0.0533039219688678

> <r_i_glide_emodel>
-52.1893132102047

> <r_i_glide_energy>
-46.1018099784851

> <r_i_glide_einternal>
10.2148637771606

> <i_i_glide_confnum>
6

> <i_i_glide_posenum>
75

> <r_i_glide_eff_state_penalty>
0

> <s_user_duplicate_titles>
CHEMBL3717_lig1598

> <s_m_subgroup_title>
dock_pv

> <s_m_subgroupid>
dock_pv

> <b_m_subgroup_collapsed>
1

$$$$
CHEMBL3717_lig3473
                    3D
 Schrodinger Suite 2021-1.
 37 39  0  0  1  0            999 V2000
   -5.5774    5.3147   30.6083 O   0  0  0  0  0  0
   -2.9189    7.3560   30.6080 O   0  0  0  0  0  0
   -3.4632    2.6606   30.5776 N   0  0  0  0  0  0
   -0.8977    4.7937   30.6082 N   0  0  0  0  0  0
   -6.6897    0.0922   29.6875 N   0  0  0  0  0  0
   -3.3369    4.0420   30.6081 C   0  0  0  0  0  0
   -2.2700    4.8921   30.6364 C   0  0  0  0  0  0
   -4.3563    5.1792   30.6079 C   0  0  0  0  0  0
   -3.1157    6.1436   30.6170 C   0  0  0  0  0  0
   -4.5726    1.8456   30.2949 C   0  0  0  0  0  0
   -0.1874    3.5558   30.3453 C   0  0  0  0  0  0
    1.2997    3.7843   30.1411 C   0  0  0  0  0  0
   -5.8964    2.1808   30.6078 C   0  0  0  0  0  0
   -4.3268    0.6053   29.6971 C   0  0  0  0  0  0
    1.8629    3.5567   28.8823 C   0  0  0  0  0  0
    2.1068    4.1821   31.2077 C   0  0  0  0  0  0
   -6.9183    1.2865   30.2856 C   0  0  0  0  0  0
   -5.4036   -0.2353   29.4097 C   0  0  0  0  0  0
    4.0350    4.1413   29.7502 C   0  0  0  0  0  0
    3.2296    3.7313   28.6871 C   0  0  0  0  0  0
    3.4737    4.3558   31.0091 C   0  0  0  0  0  0
    5.5238    4.3526   29.5455 C   0  0  0  0  0  0
   -2.6063    2.1279   30.5547 H   0  0  0  0  0  0
   -0.3174    5.6218   30.5949 H   0  0  0  0  0  0
   -0.6114    3.0965   29.4519 H   0  0  0  0  0  0
   -0.3375    2.8604   31.1726 H   0  0  0  0  0  0
   -6.1509    3.0891   31.1214 H   0  0  0  0  0  0
   -3.3251    0.2879   29.4477 H   0  0  0  0  0  0
    1.2461    3.2352   28.0547 H   0  0  0  0  0  0
    1.6767    4.3516   32.1846 H   0  0  0  0  0  0
   -7.9478    1.5159   30.5194 H   0  0  0  0  0  0
   -5.2432   -1.1947   28.9381 H   0  0  0  0  0  0
    3.6567    3.5478   27.7125 H   0  0  0  0  0  0
    4.0950    4.6670   31.8340 H   0  0  0  0  0  0
    5.8588    3.9953   28.5721 H   0  0  0  0  0  0
    5.7729    5.4087   29.6367 H   0  0  0  0  0  0
    6.0885    3.8117   30.3035 H   0  0  0  0  0  0
  1  8  2  0  0  0
  2  9  2  0  0  0
  3  6  1  0  0  0
  3 10  1  0  0  0
  3 23  1  0  0  0
  4  7  1  0  0  0
  4 11  1  0  0  0
  4 24  1  0  0  0
  5 17  2  0  0  0
  5 18  1  0  0  0
  6  7  2  0  0  0
  6  8  1  0  0  0
  7  9  1  0  0  0
  8  9  1  0  0  0
 10 13  2  0  0  0
 10 14  1  0  0  0
 11 12  1  0  0  0
 11 25  1  0  0  0
 11 26  1  0  0  0
 12 15  2  0  0  0
 12 16  1  0  0  0
 13 17  1  0  0  0
 13 27  1  0  0  0
 14 18  2  0  0  0
 14 28  1  0  0  0
 15 20  1  0  0  0
 15 29  1  0  0  0
 16 21  2  0  0  0
 16 30  1  0  0  0
 17 31  1  0  0  0
 18 32  1  0  0  0
 19 20  2  0  0  0
 19 21  1  0  0  0
 19 22  1  0  0  0
 20 33  1  0  0  0
 21 34  1  0  0  0
 22 35  1  0  0  0
 22 36  1  0  0  0
 22 37  1  0  0  0
M  END
> <s_m_entry_id>
10616

> <s_m_entry_name>
dock_pv.685

> <s_m_Source_Path>
/home/csk/Desktop/cluster/DUD-E-result/met

> <s_m_Source_File>
dock_pv.maegz

> <i_m_Source_File_Index>
685

> <chembl_id>
CHEMBL1994864

> <chembl_pref_name>
None

> <i_lp_mmshare_version>
53161

> <i_f3d_flags>
0

> <r_lp_tautomer_probability>
1

> <s_lp_Force_Field>
OPLS_2005

> <r_lp_Energy>
48.087956

> <b_lp_Chiralities_Consistent>
1

> <s_lp_Variant>
CHEMBL3717_lig3473-1

> <s_i_glide_gridfile>
glide-grid_3lq8

> <i_i_glide_lignum>
4289

> <i_i_glide_rotatable_bonds>
5

> <r_i_docking_score>
-6.85354808050272

> <r_i_glide_ligand_efficiency>
-0.311524912750124

> <r_i_glide_ligand_efficiency_sa>
-0.872905057105439

> <r_i_glide_ligand_efficiency_ln>
-1.67525714011515

> <r_i_glide_gscore>
-6.85354808050272

> <r_i_glide_lipo>
-3.42718742909217

> <r_i_glide_hbond>
-0.32

> <r_i_glide_metal>
0

> <r_i_glide_rewards>
-1.86153107735873

> <r_i_glide_evdw>
-38.9021453857422

> <r_i_glide_ecoul>
-2.41024518013

> <r_i_glide_erotb>
1.06181447225479

> <r_i_glide_esite>
0

> <r_i_glide_emodel>
-54.8989964729583

> <r_i_glide_energy>
-41.3123905658722

> <r_i_glide_einternal>
4.6386022567749

> <i_i_glide_confnum>
20

> <i_i_glide_posenum>
213

> <r_i_glide_eff_state_penalty>
0

> <s_user_duplicate_titles>
CHEMBL3717_lig3473

> <s_m_subgroup_title>
dock_pv

> <s_m_subgroupid>
dock_pv

> <b_m_subgroup_collapsed>
1

$$$$
CHEMBL3717_lig383
                    3D
 Schrodinger Suite 2021-1.
 47 50  0  0  1  0            999 V2000
   -6.2461    2.4808   30.2218 C   0  0  0  0  0  0
   -6.9619    3.6797   30.2087 C   0  0  0  0  0  0
   -6.2786    4.8907   30.3386 C   0  0  0  0  0  0
   -4.8512    2.4321   30.3632 C   0  0  0  0  0  0
   -4.1455    3.6747   30.4841 C   0  0  0  0  0  0
   -4.8707    4.9053   30.4778 C   0  0  0  0  0  0
   -4.2283    6.0993   30.6082 N   0  0  0  0  0  0
   -2.8804    6.0763   30.7562 C   0  0  0  0  0  0
   -2.1416    4.8899   30.7734 C   0  0  0  0  0  0
   -2.7827    3.6981   30.6185 N   0  0  0  0  0  0
   -8.4873    3.6446   30.0586 C   0  0  0  0  0  0
   -9.0425    4.8449   30.2303 F   0  0  0  0  0  0
   -8.8118    3.2045   28.8422 F   0  0  0  0  0  0
   -9.0166    2.8155   30.9598 F   0  0  0  0  0  0
   -4.1735    1.0952   30.4139 C   0  0  0  0  0  0
   -3.2265    0.7957   31.4076 C   0  0  0  0  0  0
   -2.6290   -0.4563   31.4683 C   0  0  0  0  0  0
   -2.9213   -1.4078   30.5018 C   0  0  0  0  0  0
   -3.8619   -1.1418   29.5103 C   0  0  0  0  0  0
   -4.4920    0.1027   29.4774 C   0  0  0  0  0  0
   -0.7594    4.8605   30.9651 N   0  0  0  0  0  0
    0.1501    6.0142   30.8333 C   0  0  0  0  0  0
    1.2705    5.7934   29.7951 C   0  0  0  0  0  0
    2.0594    4.6047   30.1320 N   0  0  0  0  0  0
    1.1577    3.4516   30.1219 C   0  0  0  0  0  0
    0.0472    3.6424   31.1817 C   0  0  0  0  0  0
    3.1451    4.4046   29.1736 C   0  0  0  0  0  0
   -2.2408   -2.5902   30.5316 O   0  0  0  0  0  0
   -6.7955    1.5508   30.1403 H   0  0  0  0  0  0
   -6.8088    5.8347   30.3169 H   0  0  0  0  0  0
   -2.4188    7.0411   30.8902 H   0  0  0  0  0  0
   -2.8969    1.5330   32.1264 H   0  0  0  0  0  0
   -1.9008   -0.6746   32.2358 H   0  0  0  0  0  0
   -4.0919   -1.8796   28.7550 H   0  0  0  0  0  0
   -5.2155    0.2941   28.6968 H   0  0  0  0  0  0
   -0.3811    6.9248   30.5631 H   0  0  0  0  0  0
    0.5967    6.2198   31.8055 H   0  0  0  0  0  0
    0.8512    5.7169   28.7901 H   0  0  0  0  0  0
    1.9050    6.6762   29.8117 H   0  0  0  0  0  0
    1.7244    2.5516   30.3595 H   0  0  0  0  0  0
    0.7231    3.2961   29.1314 H   0  0  0  0  0  0
    0.4829    3.6903   32.1800 H   0  0  0  0  0  0
   -0.5879    2.7576   31.1916 H   0  0  0  0  0  0
    3.7205    3.5108   29.4230 H   0  0  0  0  0  0
    2.7802    4.2919   28.1502 H   0  0  0  0  0  0
    3.8425    5.2434   29.1929 H   0  0  0  0  0  0
   -2.6128   -3.3037   30.0002 H   0  0  0  0  0  0
  1  2  2  0  0  0
  1  4  1  0  0  0
  1 29  1  0  0  0
  2 11  1  0  0  0
  2  3  1  0  0  0
  3  6  2  0  0  0
  3 30  1  0  0  0
  4  5  2  0  0  0
  4 15  1  0  0  0
  5 10  1  0  0  0
  5  6  1  0  0  0
  6  7  1  0  0  0
  7  8  2  0  0  0
  8  9  1  0  0  0
  8 31  1  0  0  0
  9 10  2  0  0  0
  9 21  1  0  0  0
 11 14  1  0  0  0
 11 12  1  0  0  0
 11 13  1  0  0  0
 15 16  2  0  0  0
 15 20  1  0  0  0
 16 17  1  0  0  0
 16 32  1  0  0  0
 17 18  2  0  0  0
 17 33  1  0  0  0
 18 19  1  0  0  0
 18 28  1  0  0  0
 19 20  2  0  0  0
 19 34  1  0  0  0
 20 35  1  0  0  0
 21 22  1  0  0  0
 21 26  1  0  0  0
 22 23  1  0  0  0
 22 36  1  0  0  0
 22 37  1  0  0  0
 23 24  1  0  0  0
 23 38  1  0  0  0
 23 39  1  0  0  0
 24 25  1  0  0  0
 24 27  1  0  0  0
 25 26  1  0  0  0
 25 40  1  0  0  0
 25 41  1  0  0  0
 26 42  1  0  0  0
 26 43  1  0  0  0
 27 44  1  0  0  0
 27 45  1  0  0  0
 27 46  1  0  0  0
 28 47  1  0  0  0
M  END
> <s_m_entry_id>
10617

> <s_m_entry_name>
dock_pv.686

> <s_m_Source_Path>
/home/csk/Desktop/cluster/DUD-E-result/met

> <s_m_Source_File>
dock_pv.maegz

> <i_m_Source_File_Index>
686

> <chembl_id>
CHEMBL462914

> <chembl_pref_name>
None

> <i_lp_mmshare_version>
53161

> <i_f3d_flags>
0

> <r_lp_tautomer_probability>
0.999999999997365

> <s_lp_Force_Field>
OPLS_2005

> <r_lp_Energy>
52.770722

> <b_lp_Chiralities_Consistent>
1

> <s_lp_Variant>
CHEMBL3717_lig383-1

> <s_i_glide_gridfile>
glide-grid_3lq8

> <i_i_glide_lignum>
403

> <i_i_glide_rotatable_bonds>
4

> <r_i_docking_score>
-6.85151220089666

> <r_i_glide_ligand_efficiency>
-0.244696864317738

> <r_i_glide_ligand_efficiency_sa>
-0.743043798814474

> <r_i_glide_ligand_efficiency_ln>
-1.58153018510651

> <r_i_glide_gscore>
-6.85151220089666

> <r_i_glide_lipo>
-3.57459173562225

> <r_i_glide_hbond>
0

> <r_i_glide_metal>
0

> <r_i_glide_rewards>
-1.48396040355785

> <r_i_glide_evdw>
-37.1928482055664

> <r_i_glide_ecoul>
-1.06298398971558

> <r_i_glide_erotb>
0.258326385483524

> <r_i_glide_esite>
-0.0321964384644333

> <r_i_glide_emodel>
-54.323904742652

> <r_i_glide_energy>
-38.255832195282

> <r_i_glide_einternal>
0.289458125829697

> <i_i_glide_confnum>
5

> <i_i_glide_posenum>
68

> <r_i_glide_eff_state_penalty>
0

> <s_user_duplicate_titles>
CHEMBL3717_lig383,495327

> <s_m_subgroup_title>
dock_pv

> <s_m_subgroupid>
dock_pv

> <b_m_subgroup_collapsed>
1

$$$$
CHEMBL3717_lig4175
                    3D
 Schrodinger Suite 2021-1.
 43 46  0  0  1  0            999 V2000
   -6.3060   -0.5865   30.6425 S   0  0  0  0  0  0
   -2.8468    6.7194   30.6074 F   0  0  0  0  0  0
   -7.3659    4.5717   30.6270 O   0  0  0  0  0  0
   -9.2141    2.1859   29.8994 O   0  0  0  0  0  0
   -8.6701    1.1575   31.8687 O   0  0  0  0  0  0
   -4.6713    1.4564   30.5511 N   0  0  0  0  0  0
   -0.9075    4.5652   30.6299 N   0  0  0  0  0  0
    1.8253    4.3568   28.7017 N   0  0  0  0  0  0
   -4.1698    2.7805   30.5795 C   0  0  0  0  0  0
   -6.0376    1.1934   30.6230 C   0  0  0  0  0  0
   -5.0932    3.8462   30.5837 C   0  0  0  0  0  0
   -6.9715    2.1880   30.6523 C   0  0  0  0  0  0
   -6.5825    3.6183   30.6078 C   0  0  0  0  0  0
   -3.8338    0.2544   30.6509 C   0  0  2  0  0  0
   -2.7981    3.0541   30.6081 C   0  0  0  0  0  0
   -2.3028    4.3644   30.6185 C   0  0  0  0  0  0
   -4.6003    5.1582   30.5904 C   0  0  0  0  0  0
   -3.2331    5.4212   30.6078 C   0  0  0  0  0  0
   -8.3749    1.8476   30.7304 C   0  0  0  0  0  0
   -4.6401   -0.8975   30.0699 C   0  0  0  0  0  0
   -3.3271   -0.0437   32.0789 C   0  0  0  0  0  0
    0.1047    3.5573   30.2899 C   0  0  0  0  0  0
   -0.1998    5.8373   30.5987 C   0  0  0  0  0  0
    1.4854    4.2084   30.1081 C   0  0  2  0  0  0
    1.2775    5.5419   30.8016 C   0  0  0  0  0  0
   -7.8784    0.9862   32.3817 H   0  0  0  0  0  0
    2.7579    4.7318   28.6056 H   0  0  0  0  0  0
    1.8180    3.4557   28.2440 H   0  0  0  0  0  0
   -2.9597    0.3618   30.0094 H   0  0  0  0  0  0
   -2.0974    2.2362   30.6192 H   0  0  0  0  0  0
   -5.2791    6.0023   30.5803 H   0  0  0  0  0  0
   -4.3124   -1.8798   30.4132 H   0  0  0  0  0  0
   -4.6341   -0.8888   28.9801 H   0  0  0  0  0  0
   -2.7382   -0.9612   32.1054 H   0  0  0  0  0  0
   -2.6891    0.7567   32.4525 H   0  0  0  0  0  0
   -4.1536   -0.1577   32.7818 H   0  0  0  0  0  0
    0.1470    2.7832   31.0569 H   0  0  0  0  0  0
   -0.2004    3.1164   29.3400 H   0  0  0  0  0  0
   -0.3997    6.3780   29.6718 H   0  0  0  0  0  0
   -0.5837    6.4464   31.4078 H   0  0  0  0  0  0
    2.2147    3.5989   30.6442 H   0  0  0  0  0  0
    1.8967    6.3339   30.3803 H   0  0  0  0  0  0
    1.5330    5.4939   31.8603 H   0  0  0  0  0  0
  1 10  1  0  0  0
  1 20  1  0  0  0
  2 18  1  0  0  0
  3 13  2  0  0  0
  4 19  2  0  0  0
  5 19  1  0  0  0
  5 26  1  0  0  0
  6  9  1  0  0  0
  6 10  1  0  0  0
  6 14  1  0  0  0
  7 16  1  0  0  0
  7 22  1  0  0  0
  7 23  1  0  0  0
  8 24  1  0  0  0
  8 27  1  0  0  0
  8 28  1  0  0  0
  9 11  1  0  0  0
  9 15  2  0  0  0
 10 12  2  0  0  0
 11 13  1  0  0  0
 11 17  2  0  0  0
 12 13  1  0  0  0
 12 19  1  0  0  0
 14 20  1  0  0  0
 14 21  1  0  0  0
 14 29  1  0  0  0
 15 16  1  0  0  0
 15 30  1  0  0  0
 16 18  2  0  0  0
 17 18  1  0  0  0
 17 31  1  0  0  0
 20 32  1  0  0  0
 20 33  1  0  0  0
 21 34  1  0  0  0
 21 35  1  0  0  0
 21 36  1  0  0  0
 22 24  1  0  0  0
 22 37  1  0  0  0
 22 38  1  0  0  0
 23 25  1  0  0  0
 23 39  1  0  0  0
 23 40  1  0  0  0
 24 25  1  0  0  0
 24 41  1  0  0  0
 25 42  1  0  0  0
 25 43  1  0  0  0
M  END
> <s_m_entry_id>
10618

> <s_m_entry_name>
dock_pv.687

> <s_m_Source_Path>
/home/csk/Desktop/cluster/DUD-E-result/met

> <s_m_Source_File>
dock_pv.maegz

> <i_m_Source_File_Index>
687

> <chembl_id>
CHEMBL1989265

> <chembl_pref_name>
None

> <i_lp_mmshare_version>
53161

> <i_f3d_flags>
0

> <r_lp_tautomer_probability>
1

> <s_lp_Force_Field>
OPLS_2005

> <r_lp_Energy>
53.063212

> <b_lp_Chiralities_Consistent>
1

> <s_lp_Variant>
CHEMBL3717_lig4175-1

> <s_i_glide_gridfile>
glide-grid_3lq8

> <i_i_glide_lignum>
5348

> <i_i_glide_rotatable_bonds>
3

> <r_i_docking_score>
-6.85021207705626

> <r_i_glide_ligand_efficiency>
-0.27400848308225

> <r_i_glide_ligand_efficiency_sa>
-0.801205664093639

> <r_i_glide_ligand_efficiency_ln>
-1.62370554655286

> <r_i_glide_gscore>
-6.85021207705626

> <r_i_glide_lipo>
-3.04756061253256

> <r_i_glide_hbond>
0

> <r_i_glide_metal>
0

> <r_i_glide_rewards>
-1.96627425773353

> <r_i_glide_evdw>
-36.7747688293457

> <r_i_glide_ecoul>
-1.92401766777039

> <r_i_glide_erotb>
0.290963884842675

> <r_i_glide_esite>
0

> <r_i_glide_emodel>
-53.6942009868237

> <r_i_glide_energy>
-38.6987864971161

> <r_i_glide_einternal>
0.888380289077759

> <i_i_glide_confnum>
15

> <i_i_glide_posenum>
348

> <r_i_glide_eff_state_penalty>
0

> <s_user_duplicate_titles>
CHEMBL3717_lig4175

> <s_m_subgroup_title>
dock_pv

> <s_m_subgroupid>
dock_pv

> <b_m_subgroup_collapsed>
1

$$$$
CHEMBL3717_lig2767
                    3D
 Schrodinger Suite 2021-1.
 50 54  0  0  1  0            999 V2000
   -2.4952   -2.4402   29.4166 C   0  0  0  0  0  0
   -2.7075   -2.1483   30.9162 C   0  0  0  0  0  0
   -1.7754   -2.1374   31.7981 N   0  0  0  0  0  0
   -0.4944   -2.4445   31.3023 O   0  0  0  0  0  0
   -4.1094   -1.9871   31.3530 C   0  0  0  0  0  0
   -4.5614   -2.5914   32.5375 C   0  0  0  0  0  0
   -5.8674   -2.4264   33.0056 C   0  0  0  0  0  0
   -6.7401   -1.6010   32.2799 C   0  0  0  0  0  0
   -8.0209   -1.2259   32.5014 N   0  0  0  0  0  0
   -8.3661   -0.3738   31.4637 N   0  0  0  0  0  0
   -7.3471   -0.2471   30.6394 C   0  0  0  0  0  0
   -7.3561    0.7549   29.1922 S   0  0  0  0  0  0
   -6.5574    2.2086   29.8114 C   0  0  0  0  0  0
   -7.3020    3.3662   30.0331 C   0  0  0  0  0  0
   -6.6787    4.5471   30.4416 C   0  0  0  0  0  0
   -5.2747    4.5834   30.6268 C   0  0  0  0  0  0
   -4.6739    5.7564   30.9571 N   0  0  0  0  0  0
   -3.3181    5.7920   31.0070 C   0  0  0  0  0  0
   -2.4803    4.6882   30.7951 C   0  0  0  0  0  0
   -3.1102    3.4526   30.6069 C   0  0  0  0  0  0
   -4.5175    3.3908   30.4344 C   0  0  0  0  0  0
   -5.1791    2.2133   30.0243 C   0  0  0  0  0  0
   -1.1024    4.8165   30.6114 N   0  0  0  0  0  0
   -0.1085    3.7713   30.9247 C   0  0  0  0  0  0
    1.0370    3.7470   29.8828 C   0  0  0  0  0  0
    1.6487    5.0273   29.7874 O   0  0  0  0  0  0
    0.7143    6.0410   29.4320 C   0  0  0  0  0  0
   -0.4087    6.1061   30.4761 C   0  0  0  0  0  0
   -6.2878   -1.0100   31.0908 N   0  0  0  0  0  0
   -5.0213   -1.2230   30.6111 C   0  0  0  0  0  0
   -3.2850   -2.0468   28.7790 H   0  0  0  0  0  0
   -1.5463   -2.0518   29.0472 H   0  0  0  0  0  0
   -2.4948   -3.5190   29.2519 H   0  0  0  0  0  0
    0.0605   -2.4308   32.0945 H   0  0  0  0  0  0
   -3.8875   -3.2158   33.1077 H   0  0  0  0  0  0
   -6.1954   -2.8975   33.9182 H   0  0  0  0  0  0
   -8.3697    3.3604   29.8632 H   0  0  0  0  0  0
   -7.2543    5.4530   30.5768 H   0  0  0  0  0  0
   -2.9161    6.7748   31.1882 H   0  0  0  0  0  0
   -2.5439    2.5587   30.3927 H   0  0  0  0  0  0
   -4.5883    1.3339   29.8345 H   0  0  0  0  0  0
    0.3042    3.9511   31.9201 H   0  0  0  0  0  0
   -0.5568    2.7810   30.9588 H   0  0  0  0  0  0
    0.6679    3.4287   28.9042 H   0  0  0  0  0  0
    1.7907    3.0200   30.1793 H   0  0  0  0  0  0
    0.3181    5.8712   28.4280 H   0  0  0  0  0  0
    1.2345    6.9973   29.4090 H   0  0  0  0  0  0
   -1.0820    6.9062   30.1782 H   0  0  0  0  0  0
    0.0192    6.3581   31.4410 H   0  0  0  0  0  0
   -4.7901   -0.7566   29.6660 H   0  0  0  0  0  0
  1  2  1  0  0  0
  1 31  1  0  0  0
  1 32  1  0  0  0
  1 33  1  0  0  0
  2  3  2  0  0  0
  2  5  1  0  0  0
  3  4  1  0  0  0
  4 34  1  0  0  0
  5  6  1  0  0  0
  5 30  2  0  0  0
  6  7  2  0  0  0
  6 35  1  0  0  0
  7  8  1  0  0  0
  7 36  1  0  0  0
  8  9  2  0  0  0
  8 29  1  0  0  0
  9 10  1  0  0  0
 10 11  2  0  0  0
 11 12  1  0  0  0
 11 29  1  0  0  0
 12 13  1  0  0  0
 13 14  2  0  0  0
 13 22  1  0  0  0
 14 15  1  0  0  0
 14 37  1  0  0  0
 15 16  2  0  0  0
 15 38  1  0  0  0
 16 17  1  0  0  0
 16 21  1  0  0  0
 17 18  2  0  0  0
 18 19  1  0  0  0
 18 39  1  0  0  0
 19 20  2  0  0  0
 19 23  1  0  0  0
 20 21  1  0  0  0
 20 40  1  0  0  0
 21 22  2  0  0  0
 22 41  1  0  0  0
 23 24  1  0  0  0
 23 28  1  0  0  0
 24 25  1  0  0  0
 24 42  1  0  0  0
 24 43  1  0  0  0
 25 26  1  0  0  0
 25 44  1  0  0  0
 25 45  1  0  0  0
 26 27  1  0  0  0
 27 28  1  0  0  0
 27 46  1  0  0  0
 27 47  1  0  0  0
 28 48  1  0  0  0
 28 49  1  0  0  0
 29 30  1  0  0  0
 30 50  1  0  0  0
M  END
> <s_m_entry_id>
10619

> <s_m_entry_name>
dock_pv.688

> <s_m_Source_Path>
/home/csk/Desktop/cluster/DUD-E-result/met

> <s_m_Source_File>
dock_pv.maegz

> <i_m_Source_File_Index>
688

> <chembl_id>
CHEMBL3704008

> <chembl_pref_name>
None

> <i_lp_mmshare_version>
53161

> <i_f3d_flags>
0

> <r_lp_tautomer_probability>
1

> <s_lp_Force_Field>
OPLS_2005

> <r_lp_Energy>
38.225658

> <b_lp_Chiralities_Consistent>
1

> <s_lp_Variant>
CHEMBL3717_lig2767-1

> <s_i_glide_gridfile>
glide-grid_3lq8

> <i_i_glide_lignum>
3349

> <i_i_glide_rotatable_bonds>
5

> <r_i_docking_score>
-6.84972317982338

> <r_i_glide_ligand_efficiency>
-0.228324105994113

> <r_i_glide_ligand_efficiency_sa>
-0.709456083233428

> <r_i_glide_ligand_efficiency_ln>
-1.55633174016761

> <r_i_glide_gscore>
-6.84972317982338

> <r_i_glide_lipo>
-3.11683075612833

> <r_i_glide_hbond>
-0.310796328053854

> <r_i_glide_metal>
0

> <r_i_glide_rewards>
-1.2975510055094

> <r_i_glide_evdw>
-44.6279602050781

> <r_i_glide_ecoul>
-2.92879486083984

> <r_i_glide_erotb>
0.559720002768704

> <r_i_glide_esite>
-0.0135478535206153

> <r_i_glide_emodel>
-62.560819684269

> <r_i_glide_energy>
-47.556755065918

> <r_i_glide_einternal>
4.48549365997314

> <i_i_glide_confnum>
27

> <i_i_glide_posenum>
227

> <r_i_glide_eff_state_penalty>
0

> <s_user_duplicate_titles>
CHEMBL3717_lig2767

> <s_m_subgroup_title>
dock_pv

> <s_m_subgroupid>
dock_pv

> <b_m_subgroup_collapsed>
1

$$$$
CHEMBL3717_lig53
                    3D
 Schrodinger Suite 2021-1.
 40 44  0  0  1  0            999 V2000
   -8.8538   -2.7878   30.5751 N   0  0  0  0  0  0
   -9.0835   -3.3121   31.8041 C   0  0  0  0  0  0
   -8.3857   -2.9270   32.9461 C   0  0  0  0  0  0
   -7.3962   -1.9535   32.8331 C   0  0  0  0  0  0
   -7.1262   -1.3760   31.5664 C   0  0  0  0  0  0
   -6.1344   -0.3835   31.3704 C   0  0  0  0  0  0
   -5.8924    0.1375   30.0915 C   0  0  0  0  0  0
   -6.6491   -0.3186   29.0078 C   0  0  0  0  0  0
   -7.6379   -1.2831   29.1719 C   0  0  0  0  0  0
   -7.8906   -1.8319   30.4499 C   0  0  0  0  0  0
   -4.7859    1.1808   29.8819 C   0  0  0  0  0  0
   -2.9927    3.5783   30.6077 N   0  0  0  0  0  0
   -4.3310    3.6178   30.5003 N   0  0  0  0  0  0
   -5.1137    4.7748   30.6092 C   0  0  0  0  0  0
   -4.5362    5.9610   30.8255 N   0  0  0  0  0  0
   -3.1756    5.9612   30.8822 C   0  0  0  0  0  0
   -2.4006    4.7973   30.7575 C   0  0  0  0  0  0
   -6.4481    3.0842   30.2078 N   0  0  0  0  0  0
   -6.4167    4.4485   30.4668 N   0  0  0  0  0  0
   -5.2188    2.5994   30.2295 C   0  0  0  0  0  0
   -0.9054    4.8077   30.7193 C   0  0  0  0  0  0
   -0.1687    3.6668   31.0738 C   0  0  0  0  0  0
    1.2191    3.6479   30.9824 C   0  0  0  0  0  0
    1.8920    4.7763   30.5334 C   0  0  0  0  0  0
    1.1812    5.9226   30.1790 C   0  0  0  0  0  0
   -0.2067    5.9399   30.2726 C   0  0  0  0  0  0
    3.2421    4.7567   30.4379 F   0  0  0  0  0  0
   -3.7387    0.8067   30.6235 F   0  0  0  0  0  0
   -4.3710    1.1541   28.6128 F   0  0  0  0  0  0
   -9.8546   -4.0657   31.8625 H   0  0  0  0  0  0
   -8.6051   -3.3770   33.9032 H   0  0  0  0  0  0
   -6.8366   -1.6389   33.7030 H   0  0  0  0  0  0
   -5.5589   -0.0423   32.2209 H   0  0  0  0  0  0
   -6.4650    0.0674   28.0150 H   0  0  0  0  0  0
   -8.2053   -1.6319   28.3215 H   0  0  0  0  0  0
   -2.7159    6.9274   31.0075 H   0  0  0  0  0  0
   -0.6743    2.7756   31.4193 H   0  0  0  0  0  0
    1.7718    2.7591   31.2497 H   0  0  0  0  0  0
    1.7040    6.7937   29.8149 H   0  0  0  0  0  0
   -0.7301    6.8346   29.9651 H   0  0  0  0  0  0
  1  2  2  0  0  0
  1 10  1  0  0  0
  2  3  1  0  0  0
  2 30  1  0  0  0
  3  4  2  0  0  0
  3 31  1  0  0  0
  4  5  1  0  0  0
  4 32  1  0  0  0
  5  6  2  0  0  0
  5 10  1  0  0  0
  6  7  1  0  0  0
  6 33  1  0  0  0
  7  8  2  0  0  0
  7 11  1  0  0  0
  8  9  1  0  0  0
  8 34  1  0  0  0
  9 10  2  0  0  0
  9 35  1  0  0  0
 11 20  1  0  0  0
 11 28  1  0  0  0
 11 29  1  0  0  0
 12 13  1  0  0  0
 12 17  2  0  0  0
 13 14  1  0  0  0
 13 20  1  0  0  0
 14 15  1  0  0  0
 14 19  2  0  0  0
 15 16  2  0  0  0
 16 17  1  0  0  0
 16 36  1  0  0  0
 17 21  1  0  0  0
 18 19  1  0  0  0
 18 20  2  0  0  0
 21 22  1  0  0  0
 21 26  2  0  0  0
 22 23  2  0  0  0
 22 37  1  0  0  0
 23 24  1  0  0  0
 23 38  1  0  0  0
 24 25  2  0  0  0
 24 27  1  0  0  0
 25 26  1  0  0  0
 25 39  1  0  0  0
 26 40  1  0  0  0
M  END
> <s_m_entry_id>
10620

> <s_m_entry_name>
dock_pv.689

> <s_m_Source_Path>
/home/csk/Desktop/cluster/DUD-E-result/met

> <s_m_Source_File>
dock_pv.maegz

> <i_m_Source_File_Index>
689

> <chembl_id>
CHEMBL3797579

> <chembl_pref_name>
None

> <i_lp_mmshare_version>
53161

> <i_f3d_flags>
0

> <r_lp_tautomer_probability>
1

> <s_lp_Force_Field>
OPLS_2005

> <r_lp_Energy>
28.517576

> <b_lp_Chiralities_Consistent>
1

> <s_lp_Variant>
CHEMBL3717_lig53-1

> <s_i_glide_gridfile>
glide-grid_3lq8

> <i_i_glide_lignum>
54

> <i_i_glide_rotatable_bonds>
3

> <r_i_docking_score>
-6.84815437542828

> <r_i_glide_ligand_efficiency>
-0.236143254325113

> <r_i_glide_ligand_efficiency_sa>
-0.725506892720925

> <r_i_glide_ligand_efficiency_ln>
-1.56805369776141

> <r_i_glide_gscore>
-6.84815437542828

> <r_i_glide_lipo>
-2.53300015247292

> <r_i_glide_hbond>
0

> <r_i_glide_metal>
0

> <r_i_glide_rewards>
-2.87145810682688

> <r_i_glide_evdw>
-38.692211151123

> <r_i_glide_ecoul>
0.750067889690399

> <r_i_glide_erotb>
0.38051001897999

> <r_i_glide_esite>
-0.00210576100588106

> <r_i_glide_emodel>
-51.5584794760703

> <r_i_glide_energy>
-37.9421432614326

> <r_i_glide_einternal>
1.53356659412384

> <i_i_glide_confnum>
8

> <i_i_glide_posenum>
61

> <r_i_glide_eff_state_penalty>
0

> <s_user_duplicate_titles>
CHEMBL3717_lig53

> <s_m_subgroup_title>
dock_pv

> <s_m_subgroupid>
dock_pv

> <b_m_subgroup_collapsed>
1

$$$$
CHEMBL3717_lig4329
                    3D
 Schrodinger Suite 2021-1.
 41 45  0  0  1  0            999 V2000
   -3.3871    0.9219   30.7822 F   0  0  0  0  0  0
   -4.5401    1.0688   30.1239 C   0  0  0  0  0  0
   -4.2686    0.8952   28.8271 F   0  0  0  0  0  0
   -5.4174   -0.0879   30.6299 C   0  0  0  0  0  0
   -6.2496    0.0652   31.7454 C   0  0  0  0  0  0
   -7.0423   -0.9824   32.2077 C   0  0  0  0  0  0
   -7.0025   -2.2399   31.5663 C   0  0  0  0  0  0
   -7.7827   -3.2491   32.0448 N   0  0  0  0  0  0
   -7.7167   -4.4564   31.4316 C   0  0  0  0  0  0
   -6.8941   -4.7212   30.3408 C   0  0  0  0  0  0
   -6.0952   -3.6966   29.8379 C   0  0  0  0  0  0
   -6.1391   -2.4188   30.4448 C   0  0  0  0  0  0
   -5.3599   -1.3308   29.9876 C   0  0  0  0  0  0
   -5.1133    2.4732   30.3150 C   0  0  0  0  0  0
   -6.3829    2.8240   30.2078 N   0  0  0  0  0  0
   -6.4985    4.1971   30.3592 N   0  0  0  0  0  0
   -5.2411    4.6692   30.5014 C   0  0  0  0  0  0
   -4.7028    5.9571   30.6186 C   0  0  0  0  0  0
   -3.3140    6.0873   30.7055 C   0  0  0  0  0  0
   -2.4938    4.9484   30.6725 C   0  0  0  0  0  0
   -3.0054    3.6876   30.6080 N   0  0  0  0  0  0
   -4.3396    3.6010   30.4985 N   0  0  0  0  0  0
   -0.9973    5.0301   30.6457 C   0  0  0  0  0  0
   -0.3489    6.1932   30.2081 C   0  0  0  0  0  0
    1.0370    6.2528   30.1459 C   0  0  0  0  0  0
    1.8006    5.1485   30.5108 C   0  0  0  0  0  0
    1.1843    3.9815   30.9438 C   0  0  0  0  0  0
   -0.2038    3.9276   31.0079 C   0  0  0  0  0  0
   -6.2843    1.0064   32.2750 H   0  0  0  0  0  0
   -7.6771   -0.8425   33.0711 H   0  0  0  0  0  0
   -8.3426   -5.2327   31.8465 H   0  0  0  0  0  0
   -6.8633   -5.7057   29.8987 H   0  0  0  0  0  0
   -5.4283   -3.8716   29.0076 H   0  0  0  0  0  0
   -4.7134   -1.4809   29.1340 H   0  0  0  0  0  0
   -5.3511    6.8208   30.6080 H   0  0  0  0  0  0
   -2.8854    7.0739   30.7855 H   0  0  0  0  0  0
   -0.9051    7.0632   29.8929 H   0  0  0  0  0  0
    1.5080    7.1599   29.8064 H   0  0  0  0  0  0
    2.8779    5.1919   30.4552 H   0  0  0  0  0  0
    1.7739    3.1201   31.2242 H   0  0  0  0  0  0
   -0.6612    3.0094   31.3475 H   0  0  0  0  0  0
  1  2  1  0  0  0
  2  3  1  0  0  0
  2  4  1  0  0  0
  2 14  1  0  0  0
  4  5  2  0  0  0
  4 13  1  0  0  0
  5  6  1  0  0  0
  5 29  1  0  0  0
  6  7  2  0  0  0
  6 30  1  0  0  0
  7  8  1  0  0  0
  7 12  1  0  0  0
  8  9  2  0  0  0
  9 10  1  0  0  0
  9 31  1  0  0  0
 10 11  2  0  0  0
 10 32  1  0  0  0
 11 12  1  0  0  0
 11 33  1  0  0  0
 12 13  2  0  0  0
 13 34  1  0  0  0
 14 15  2  0  0  0
 14 22  1  0  0  0
 15 16  1  0  0  0
 16 17  2  0  0  0
 17 18  1  0  0  0
 17 22  1  0  0  0
 18 19  2  0  0  0
 18 35  1  0  0  0
 19 20  1  0  0  0
 19 36  1  0  0  0
 20 21  2  0  0  0
 20 23  1  0  0  0
 21 22  1  0  0  0
 23 24  2  0  0  0
 23 28  1  0  0  0
 24 25  1  0  0  0
 24 37  1  0  0  0
 25 26  2  0  0  0
 25 38  1  0  0  0
 26 27  1  0  0  0
 26 39  1  0  0  0
 27 28  2  0  0  0
 27 40  1  0  0  0
 28 41  1  0  0  0
M  END
> <s_m_entry_id>
10622

> <s_m_entry_name>
dock_pv.691

> <s_m_Source_Path>
/home/csk/Desktop/cluster/DUD-E-result/met

> <s_m_Source_File>
dock_pv.maegz

> <i_m_Source_File_Index>
691

> <chembl_id>
CHEMBL3668154

> <chembl_pref_name>
None

> <i_lp_mmshare_version>
53161

> <i_f3d_flags>
0

> <r_lp_tautomer_probability>
1

> <s_lp_Force_Field>
OPLS_2005

> <r_lp_Energy>
27.390563

> <b_lp_Chiralities_Consistent>
1

> <s_lp_Variant>
CHEMBL3717_lig4329-1

> <s_i_glide_gridfile>
glide-grid_3lq8

> <i_i_glide_lignum>
5554

> <i_i_glide_rotatable_bonds>
3

> <r_i_docking_score>
-6.83394732492015

> <r_i_glide_ligand_efficiency>
-0.244069547318577

> <r_i_glide_ligand_efficiency_sa>
-0.741138894935066

> <r_i_glide_ligand_efficiency_ln>
-1.57747569600396

> <r_i_glide_gscore>
-6.83394732492015

> <r_i_glide_lipo>
-2.7313321625372

> <r_i_glide_hbond>
0

> <r_i_glide_metal>
0

> <r_i_glide_rewards>
-2.61166485546115

> <r_i_glide_evdw>
-37.5299987792969

> <r_i_glide_ecoul>
-0.202225759625435

> <r_i_glide_erotb>
0.415883495986863

> <r_i_glide_esite>
0

> <r_i_glide_emodel>
-52.5360374390383

> <r_i_glide_energy>
-37.7322245389223

> <r_i_glide_einternal>
0.462453603744507

> <i_i_glide_confnum>
10

> <i_i_glide_posenum>
115

> <r_i_glide_eff_state_penalty>
0

> <s_user_duplicate_titles>
CHEMBL3717_lig4329

> <s_m_subgroup_title>
dock_pv

> <s_m_subgroupid>
dock_pv

> <b_m_subgroup_collapsed>
1

$$$$
CHEMBL3717_lig775
                    3D
 Schrodinger Suite 2021-1.
 37 38  0  0  1  0            999 V2000
   -4.9434    3.5433   30.5886 N   0  0  0  0  0  0
   -5.6200    4.6306   30.5976 C   0  0  0  0  0  0
   -4.9870    5.8291   30.6081 N   0  0  0  0  0  0
   -3.6541    6.0102   30.6287 C   0  0  0  0  0  0
   -2.8741    4.7734   30.6517 C   0  0  0  0  0  0
   -3.5701    3.5954   30.6076 C   0  0  0  0  0  0
   -3.2169    7.1567   30.6079 O   0  0  0  0  0  0
   -2.8941    2.4005   30.6081 O   0  0  0  0  0  0
   -1.4145    4.9173   30.7125 C   0  0  0  0  0  0
   -0.5065    4.0521   30.2119 C   0  0  0  0  0  0
    0.9304    4.2713   30.3186 C   0  0  0  0  0  0
    1.8357    3.4140   29.4422 C   0  0  0  0  0  0
    1.4386    5.1100   31.0644 O   0  0  0  0  0  0
   -3.4922    1.1635   30.7825 C   0  0  0  0  0  0
   -4.5502    0.7138   29.9804 C   0  0  0  0  0  0
   -5.1349   -0.5466   30.1845 C   0  0  0  0  0  0
   -4.5746   -1.3922   31.1534 C   0  0  0  0  0  0
   -3.4857   -0.9750   31.9170 C   0  0  0  0  0  0
   -2.9554    0.3011   31.7401 C   0  0  0  0  0  0
   -6.3421   -0.9946   29.4148 C   0  0  0  0  0  0
   -6.8470   -2.1140   29.5397 O   0  0  0  0  0  0
   -6.8542   -0.0264   28.6094 O   0  0  0  0  0  0
   -8.0430   -0.2534   27.8676 C   0  0  0  0  0  0
   -6.7070    4.6288   30.5793 H   0  0  0  0  0  0
   -5.5204    6.6786   30.5157 H   0  0  0  0  0  0
   -1.0330    5.8042   31.2078 H   0  0  0  0  0  0
   -0.8070    3.1570   29.6918 H   0  0  0  0  0  0
    1.7011    2.3576   29.6714 H   0  0  0  0  0  0
    2.8828    3.6709   29.6026 H   0  0  0  0  0  0
    1.5989    3.5713   28.3896 H   0  0  0  0  0  0
   -4.9298    1.3733   29.2141 H   0  0  0  0  0  0
   -4.9784   -2.3814   31.3252 H   0  0  0  0  0  0
   -3.0580   -1.6418   32.6501 H   0  0  0  0  0  0
   -2.1187    0.6215   32.3427 H   0  0  0  0  0  0
   -8.1386    0.4908   27.0761 H   0  0  0  0  0  0
   -8.0411   -1.2417   27.4082 H   0  0  0  0  0  0
   -8.9169   -0.1810   28.5163 H   0  0  0  0  0  0
  1  6  1  0  0  0
  1  2  2  0  0  0
  2  3  1  0  0  0
  2 24  1  0  0  0
  3  4  1  0  0  0
  3 25  1  0  0  0
  4  7  2  0  0  0
  4  5  1  0  0  0
  5  6  2  0  0  0
  5  9  1  0  0  0
  6  8  1  0  0  0
  8 14  1  0  0  0
  9 10  2  0  0  0
  9 26  1  0  0  0
 10 11  1  0  0  0
 10 27  1  0  0  0
 11 12  1  0  0  0
 11 13  2  0  0  0
 12 28  1  0  0  0
 12 29  1  0  0  0
 12 30  1  0  0  0
 14 15  2  0  0  0
 14 19  1  0  0  0
 15 16  1  0  0  0
 15 31  1  0  0  0
 16 17  2  0  0  0
 16 20  1  0  0  0
 17 18  1  0  0  0
 17 32  1  0  0  0
 18 19  2  0  0  0
 18 33  1  0  0  0
 19 34  1  0  0  0
 20 21  2  0  0  0
 20 22  1  0  0  0
 22 23  1  0  0  0
 23 35  1  0  0  0
 23 36  1  0  0  0
 23 37  1  0  0  0
M  END
> <s_m_entry_id>
10623

> <s_m_entry_name>
dock_pv.692

> <s_m_Source_Path>
/home/csk/Desktop/cluster/DUD-E-result/met

> <s_m_Source_File>
dock_pv.maegz

> <i_m_Source_File_Index>
692

> <chembl_id>
CHEMBL1807757

> <chembl_pref_name>
None

> <i_lp_mmshare_version>
53161

> <i_f3d_flags>
0

> <r_lp_tautomer_probability>
1

> <s_lp_Force_Field>
OPLS_2005

> <r_lp_Energy>
26.132423

> <b_lp_Chiralities_Consistent>
1

> <s_lp_Variant>
CHEMBL3717_lig775-1

> <s_i_glide_gridfile>
glide-grid_3lq8

> <i_i_glide_lignum>
838

> <i_i_glide_rotatable_bonds>
6

> <r_i_docking_score>
-6.8334141918858

> <r_i_glide_ligand_efficiency>
-0.2971049648646

> <r_i_glide_ligand_efficiency_sa>
-0.844926998245308

> <r_i_glide_ligand_efficiency_ln>
-1.65238151357213

> <r_i_glide_gscore>
-6.8334141918858

> <r_i_glide_lipo>
-1.99840743088862

> <r_i_glide_hbond>
-0.356139194224828

> <r_i_glide_metal>
0

> <r_i_glide_rewards>
-2.74232042959127

> <r_i_glide_evdw>
-36.7458152770996

> <r_i_glide_ecoul>
-5.44702672958374

> <r_i_glide_erotb>
0.940793629781859

> <r_i_glide_esite>
-0.0229959936704016

> <r_i_glide_emodel>
-54.8384177566123

> <r_i_glide_energy>
-42.1928420066833

> <r_i_glide_einternal>
8.55230045318604

> <i_i_glide_confnum>
28

> <i_i_glide_posenum>
303

> <r_i_glide_eff_state_penalty>
0

> <s_user_duplicate_titles>
CHEMBL3717_lig775

> <s_m_subgroup_title>
dock_pv

> <s_m_subgroupid>
dock_pv

> <b_m_subgroup_collapsed>
1

$$$$
CHEMBL3717_lig2340
                    3D
 Schrodinger Suite 2021-1.
 45 48  0  0  1  0            999 V2000
   -5.0835    2.6229   30.4135 C   0  0  0  0  0  0
   -5.3739    1.2786   30.3938 C   0  0  0  0  0  0
   -6.1522    3.6090   30.2081 C   0  0  0  0  0  0
   -6.5980    0.7154   30.1063 N   0  0  0  0  0  0
   -4.4921    0.1408   30.7049 C   0  0  0  0  0  0
   -5.5990    4.8202   30.3232 N   0  0  0  0  0  0
   -5.3043   -1.0799   30.4131 C   0  0  0  0  0  0
   -3.8579    3.4468   30.6078 C   0  0  0  0  0  0
   -6.5729   -0.6546   30.0738 C   0  0  0  0  0  0
   -4.2556    4.7690   30.5662 C   0  0  0  0  0  0
   -7.3467    3.4228   29.9739 O   0  0  0  0  0  0
   -3.2943    0.2125   31.1487 N   0  0  0  0  0  0
   -5.0543   -2.4647   30.4300 C   0  0  0  0  0  0
   -2.4895    3.1834   30.7738 C   0  0  0  0  0  0
   -7.6058   -1.5412   29.7718 C   0  0  0  0  0  0
   -3.3677    5.8279   30.7249 C   0  0  0  0  0  0
   -6.0737   -3.3699   30.1327 C   0  0  0  0  0  0
   -1.5588    4.2236   30.9125 C   0  0  0  0  0  0
   -7.3507   -2.9120   29.8087 C   0  0  0  0  0  0
   -2.0132    5.5539   30.9026 C   0  0  0  0  0  0
   -2.6598   -1.0075   31.4295 O   0  0  0  0  0  0
   -0.2075    3.8358   31.0070 N   0  0  0  0  0  0
    0.9158    4.5856   31.0228 C   0  0  0  0  0  0
    0.9514    5.8170   30.9973 O   0  0  0  0  0  0
    2.2353    3.8044   31.0776 C   0  0  0  0  0  0
    3.1216    3.9784   29.8226 C   0  0  0  0  0  0
    2.5281    3.3778   28.5351 C   0  0  0  0  0  0
   -7.3587    1.3590   29.9232 H   0  0  0  0  0  0
   -6.1209    5.6683   30.1663 H   0  0  0  0  0  0
   -4.0906   -2.8985   30.6543 H   0  0  0  0  0  0
   -2.0961    2.1854   30.7481 H   0  0  0  0  0  0
   -8.5918   -1.1849   29.5134 H   0  0  0  0  0  0
   -3.7114    6.8505   30.6990 H   0  0  0  0  0  0
   -5.8626   -4.4314   30.1518 H   0  0  0  0  0  0
   -8.1368   -3.6157   29.5771 H   0  0  0  0  0  0
   -1.3385    6.3875   31.0057 H   0  0  0  0  0  0
   -3.3319   -1.6461   31.1854 H   0  0  0  0  0  0
   -0.0589    2.8396   31.0123 H   0  0  0  0  0  0
    2.0551    2.7441   31.2579 H   0  0  0  0  0  0
    2.7810    4.1634   31.9525 H   0  0  0  0  0  0
    4.0864    3.5020   30.0086 H   0  0  0  0  0  0
    3.3445    5.0358   29.6632 H   0  0  0  0  0  0
    3.2296    3.4656   27.7052 H   0  0  0  0  0  0
    1.6081    3.8839   28.2444 H   0  0  0  0  0  0
    2.3019    2.3189   28.6601 H   0  0  0  0  0  0
  1  2  2  0  0  0
  1  3  1  0  0  0
  1  8  1  0  0  0
  2  4  1  0  0  0
  2  5  1  0  0  0
  3  6  1  0  0  0
  3 11  2  0  0  0
  4  9  1  0  0  0
  4 28  1  0  0  0
  5  7  1  0  0  0
  5 12  2  0  0  0
  6 10  1  0  0  0
  6 29  1  0  0  0
  7 13  2  0  0  0
  7  9  1  0  0  0
  8 10  2  0  0  0
  8 14  1  0  0  0
  9 15  2  0  0  0
 10 16  1  0  0  0
 12 21  1  0  0  0
 13 17  1  0  0  0
 13 30  1  0  0  0
 14 18  2  0  0  0
 14 31  1  0  0  0
 15 19  1  0  0  0
 15 32  1  0  0  0
 16 20  2  0  0  0
 16 33  1  0  0  0
 17 19  2  0  0  0
 17 34  1  0  0  0
 18 20  1  0  0  0
 18 22  1  0  0  0
 19 35  1  0  0  0
 20 36  1  0  0  0
 21 37  1  0  0  0
 22 23  1  0  0  0
 22 38  1  0  0  0
 23 24  2  0  0  0
 23 25  1  0  0  0
 25 26  1  0  0  0
 25 39  1  0  0  0
 25 40  1  0  0  0
 26 27  1  0  0  0
 26 41  1  0  0  0
 26 42  1  0  0  0
 27 43  1  0  0  0
 27 44  1  0  0  0
 27 45  1  0  0  0
M  END
> <s_m_entry_id>
10624

> <s_m_entry_name>
dock_pv.693

> <s_m_Source_Path>
/home/csk/Desktop/cluster/DUD-E-result/met

> <s_m_Source_File>
dock_pv.maegz

> <i_m_Source_File_Index>
693

> <chembl_id>
CHEMBL3799585

> <chembl_pref_name>
None

> <i_lp_mmshare_version>
53161

> <i_f3d_flags>
0

> <r_lp_tautomer_probability>
1

> <s_lp_Force_Field>
OPLS_2005

> <r_lp_Energy>
80.798061

> <b_lp_Chiralities_Consistent>
1

> <s_lp_Variant>
CHEMBL3717_lig2340-1

> <s_i_glide_gridfile>
glide-grid_3lq8

> <i_i_glide_lignum>
2658

> <i_i_glide_rotatable_bonds>
5

> <r_i_docking_score>
-6.83274604519841

> <r_i_glide_ligand_efficiency>
-0.253064668340682

> <r_i_glide_ligand_efficiency_sa>
-0.759194004187985

> <r_i_glide_ligand_efficiency_ln>
-1.59055063269982

> <r_i_glide_gscore>
-6.83274604519841

> <r_i_glide_lipo>
-2.84838124049461

> <r_i_glide_hbond>
-0.0361046831582941

> <r_i_glide_metal>
0

> <r_i_glide_rewards>
-2.07281203552391

> <r_i_glide_evdw>
-41.6012191772461

> <r_i_glide_ecoul>
-2.53504180908203

> <r_i_glide_erotb>
0.58486914420302

> <r_i_glide_esite>
0

> <r_i_glide_emodel>
-62.1163643786679

> <r_i_glide_energy>
-44.1362609863281

> <r_i_glide_einternal>
1.15961802005768

> <i_i_glide_confnum>
2

> <i_i_glide_posenum>
16

> <r_i_glide_eff_state_penalty>
0

> <s_user_duplicate_titles>
CHEMBL3717_lig2340

> <s_m_subgroup_title>
dock_pv

> <s_m_subgroupid>
dock_pv

> <b_m_subgroup_collapsed>
1

$$$$
CHEMBL3717_lig3665
                    3D
 Schrodinger Suite 2021-1.
 52 55  0  0  1  0            999 V2000
   -5.8493   -1.7457   29.2939 O   0  0  0  0  0  0
   -4.6002   -2.8429   30.8608 N   0  0  0  0  0  0
   -2.0111   -1.3406   32.9674 N   0  0  0  0  0  0
   -6.0067   -4.9573   29.0144 N   0  0  0  0  0  0
   -2.1452    6.9101   30.2080 N   0  0  0  0  0  0
   -8.8874   -1.1434   29.7208 C   0  0  0  0  0  0
   -8.6732   -2.4268   30.3372 C   0  0  0  0  0  0
   -9.4508   -0.0879   30.5129 C   0  0  0  0  0  0
   -8.0686   -3.6172   29.5695 C   0  0  0  0  0  0
   -6.5865   -3.9507   29.9319 C   0  0  2  0  0  0
   -5.6225   -2.7322   29.9883 C   0  0  0  0  0  0
   -9.0154   -2.6123   31.6780 C   0  0  0  0  0  0
   -3.7308   -1.8447   31.3367 C   0  0  0  0  0  0
   -8.5582   -0.8447   28.3661 C   0  0  0  0  0  0
   -9.7795   -0.3325   31.8677 C   0  0  0  0  0  0
   -9.6627    1.1904   29.9334 C   0  0  0  0  0  0
   -2.8968    0.4302   31.5553 C   0  0  0  0  0  0
   -9.5584   -1.5819   32.4336 C   0  0  0  0  0  0
   -3.7294   -0.5002   30.9255 C   0  0  0  0  0  0
   -8.7753    0.4215   27.8292 C   0  0  0  0  0  0
   -2.8318   -2.2174   32.3375 C   0  0  0  0  0  0
   -9.3256    1.4316   28.6063 C   0  0  0  0  0  0
   -2.0939   -0.0348   32.6080 C   0  0  0  0  0  0
   -2.9100    1.8371   31.0905 C   0  0  0  0  0  0
   -2.0804    4.2106   30.9961 C   0  0  0  0  0  0
   -2.0186    2.7976   31.4080 C   0  0  0  0  0  0
   -0.8925    4.9321   30.8146 C   0  0  0  0  0  0
   -3.3000    4.8616   30.7611 C   0  0  0  0  0  0
   -0.9670    6.2667   30.4081 C   0  0  0  0  0  0
   -3.2904    6.2055   30.3918 C   0  0  0  0  0  0
   -4.4522   -3.7694   31.2452 H   0  0  0  0  0  0
   -5.0892   -5.2427   29.3531 H   0  0  0  0  0  0
   -6.5707   -5.7941   29.0088 H   0  0  0  0  0  0
   -8.1968   -3.5162   28.4946 H   0  0  0  0  0  0
   -8.6825   -4.4854   29.8158 H   0  0  0  0  0  0
   -6.6124   -4.3768   30.9372 H   0  0  0  0  0  0
   -8.8540   -3.5723   32.1461 H   0  0  0  0  0  0
   -8.0975   -1.5914   27.7408 H   0  0  0  0  0  0
  -10.2014    0.4638   32.4652 H   0  0  0  0  0  0
  -10.0881    1.9839   30.5332 H   0  0  0  0  0  0
   -9.8109   -1.7532   33.4703 H   0  0  0  0  0  0
   -4.3750   -0.1518   30.1343 H   0  0  0  0  0  0
   -8.5040    0.6216   26.8023 H   0  0  0  0  0  0
   -2.7867   -3.2403   32.6834 H   0  0  0  0  0  0
   -9.4844    2.4109   28.1756 H   0  0  0  0  0  0
   -1.4429    0.6322   33.1517 H   0  0  0  0  0  0
   -3.7395    2.1039   30.4497 H   0  0  0  0  0  0
   -1.1833    2.5446   32.0429 H   0  0  0  0  0  0
    0.0689    4.4654   30.9716 H   0  0  0  0  0  0
   -4.2413    4.3460   30.8861 H   0  0  0  0  0  0
   -0.0706    6.8488   30.2482 H   0  0  0  0  0  0
   -4.2201    6.7309   30.2181 H   0  0  0  0  0  0
  1 11  2  0  0  0
  2 11  1  0  0  0
  2 13  1  0  0  0
  2 31  1  0  0  0
  3 21  1  0  0  0
  3 23  2  0  0  0
  4 10  1  0  0  0
  4 32  1  0  0  0
  4 33  1  0  0  0
  5 29  2  0  0  0
  5 30  1  0  0  0
  6  7  1  0  0  0
  6  8  1  0  0  0
  6 14  2  0  0  0
  7  9  1  0  0  0
  7 12  2  0  0  0
  8 15  1  0  0  0
  8 16  2  0  0  0
  9 10  1  0  0  0
  9 34  1  0  0  0
  9 35  1  0  0  0
 10 11  1  0  0  0
 10 36  1  0  0  0
 12 18  1  0  0  0
 12 37  1  0  0  0
 13 19  1  0  0  0
 13 21  2  0  0  0
 14 20  1  0  0  0
 14 38  1  0  0  0
 15 18  2  0  0  0
 15 39  1  0  0  0
 16 22  1  0  0  0
 16 40  1  0  0  0
 17 19  2  0  0  0
 17 23  1  0  0  0
 17 24  1  0  0  0
 18 41  1  0  0  0
 19 42  1  0  0  0
 20 22  2  0  0  0
 20 43  1  0  0  0
 21 44  1  0  0  0
 22 45  1  0  0  0
 23 46  1  0  0  0
 24 26  2  3  0  0
 24 47  1  0  0  0
 25 26  1  0  0  0
 25 27  2  0  0  0
 25 28  1  0  0  0
 26 48  1  0  0  0
 27 29  1  0  0  0
 27 49  1  0  0  0
 28 30  2  0  0  0
 28 50  1  0  0  0
 29 51  1  0  0  0
 30 52  1  0  0  0
M  END
> <s_m_entry_id>
10625

> <s_m_entry_name>
dock_pv.694

> <s_m_Source_Path>
/home/csk/Desktop/cluster/DUD-E-result/met

> <s_m_Source_File>
dock_pv.maegz

> <i_m_Source_File_Index>
694

> <chembl_id>
CHEMBL1985580

> <chembl_pref_name>
None

> <i_lp_mmshare_version>
53161

> <i_f3d_flags>
0

> <r_lp_tautomer_probability>
1

> <s_lp_Force_Field>
OPLS_2005

> <r_lp_Energy>
29.433265

> <b_lp_Chiralities_Consistent>
1

> <s_lp_Variant>
CHEMBL3717_lig3665-1

> <s_i_glide_gridfile>
glide-grid_3lq8

> <i_i_glide_lignum>
4601

> <i_i_glide_rotatable_bonds>
7

> <r_i_docking_score>
-6.83269987028296

> <r_i_glide_ligand_efficiency>
-0.227756662342765

> <r_i_glide_ligand_efficiency_sa>
-0.707692903876663

> <r_i_glide_ligand_efficiency_ln>
-1.55246385875621

> <r_i_glide_gscore>
-6.83269987028296

> <r_i_glide_lipo>
-2.7300580783427

> <r_i_glide_hbond>
-0.444815132916442

> <r_i_glide_metal>
0

> <r_i_glide_rewards>
-1.89493559637737

> <r_i_glide_evdw>
-29.1279754638672

> <r_i_glide_ecoul>
-6.47046089172363

> <r_i_glide_erotb>
0.753644637696072

> <r_i_glide_esite>
-0.0895677933906194

> <r_i_glide_emodel>
-47.384695395562

> <r_i_glide_energy>
-35.5984363555908

> <r_i_glide_einternal>
8.74625492095947

> <i_i_glide_confnum>
4

> <i_i_glide_posenum>
155

> <r_i_glide_eff_state_penalty>
0

> <s_user_duplicate_titles>
CHEMBL3717_lig3665

> <s_m_subgroup_title>
dock_pv

> <s_m_subgroupid>
dock_pv

> <b_m_subgroup_collapsed>
1

$$$$
CHEMBL3717_lig1192
                    3D
 Schrodinger Suite 2021-1.
 50 54  0  0  1  0            999 V2000
   -4.6037    6.1152   30.6079 N   0  0  0  0  0  0
   -3.2644    6.2952   30.6434 C   0  0  0  0  0  0
   -2.3570    5.2387   30.6436 C   0  0  0  0  0  0
   -2.8747    3.9394   30.6080 C   0  0  0  0  0  0
   -4.2576    3.7189   30.5270 C   0  0  0  0  0  0
   -5.0890    4.8523   30.5429 C   0  0  0  0  0  0
   -0.8914    5.4836   30.6080 C   0  0  0  0  0  0
    0.1244    4.6138   30.9576 C   0  0  0  0  0  0
    1.3142    5.2198   30.6256 N   0  0  0  0  0  0
    1.1064    6.4713   30.2008 N   0  0  0  0  0  0
   -0.1961    6.6191   30.1671 C   0  0  0  0  0  0
   -4.7440    2.3064   30.4129 C   0  0  0  0  0  0
   -5.9677    1.9896   30.9413 O   0  0  0  0  0  0
   -4.0757    1.2943   29.8952 N   0  0  0  0  0  0
   -6.4737    4.7566   30.4520 N   0  0  0  0  0  0
   -4.8893    0.2196   30.1108 C   0  0  0  0  0  0
   -6.0595    0.6449   30.7585 C   0  0  0  0  0  0
   -7.0928   -0.2205   31.1286 C   0  0  0  0  0  0
   -6.9097   -1.5707   30.8209 C   0  0  0  0  0  0
   -5.7516   -2.0196   30.1751 C   0  0  0  0  0  0
   -4.7249   -1.1397   29.8076 C   0  0  0  0  0  0
    2.6951    4.7061   30.7928 C   0  0  0  0  0  0
   -7.8707   -2.4604   31.1544 F   0  0  0  0  0  0
    2.7209    3.1952   30.9830 C   0  0  0  0  0  0
    2.3480    2.4937   29.6662 C   0  0  0  0  0  0
    3.1053    2.9256   28.4901 N   0  0  2  0  0  0
    3.1122    4.3549   28.2998 C   0  0  0  0  0  0
    3.6423    4.9513   29.5943 C   0  0  0  0  0  0
    2.7683    2.2139   27.2685 C   0  0  0  0  0  0
   -2.9223    7.3175   30.6568 H   0  0  0  0  0  0
   -2.1972    3.0973   30.5984 H   0  0  0  0  0  0
    0.0863    3.6113   31.3522 H   0  0  0  0  0  0
   -0.6371    7.5380   29.8077 H   0  0  0  0  0  0
   -6.8970    3.8423   30.3783 H   0  0  0  0  0  0
   -6.9962    5.6043   30.2823 H   0  0  0  0  0  0
   -7.9789    0.1317   31.6329 H   0  0  0  0  0  0
   -5.6496   -3.0735   29.9559 H   0  0  0  0  0  0
   -3.8396   -1.4949   29.2986 H   0  0  0  0  0  0
    3.0889    5.1569   31.7001 H   0  0  0  0  0  0
    2.0776    2.8928   31.8089 H   0  0  0  0  0  0
    3.6899    2.8577   31.3532 H   0  0  0  0  0  0
    1.2745    2.4897   29.4765 H   0  0  0  0  0  0
    2.7060    1.5195   29.8271 H   0  0  0  0  0  0
    2.1074    4.7009   28.0499 H   0  0  0  0  0  0
    3.7623    4.6154   27.4746 H   0  0  0  0  0  0
    4.6436    4.5829   29.8302 H   0  0  0  0  0  0
    3.8743    5.9569   29.4077 H   0  0  0  0  0  0
    1.7298    2.3636   26.9680 H   0  0  0  0  0  0
    3.4275    2.5154   26.4590 H   0  0  0  0  0  0
    2.9565    1.1570   27.3986 H   0  0  0  0  0  0
  1  2  2  0  0  0
  1  6  1  0  0  0
  2  3  1  0  0  0
  2 30  1  0  0  0
  3  4  2  0  0  0
  3  7  1  0  0  0
  4  5  1  0  0  0
  4 31  1  0  0  0
  5 12  1  0  0  0
  5  6  2  0  0  0
  6 15  1  0  0  0
  7 11  1  0  0  0
  7  8  2  0  0  0
  8  9  1  0  0  0
  8 32  1  0  0  0
  9 10  1  0  0  0
  9 22  1  0  0  0
 10 11  2  0  0  0
 11 33  1  0  0  0
 12 14  2  0  0  0
 12 13  1  0  0  0
 13 17  1  0  0  0
 14 16  1  0  0  0
 15 34  1  0  0  0
 15 35  1  0  0  0
 16 17  2  0  0  0
 16 21  1  0  0  0
 17 18  1  0  0  0
 18 19  2  0  0  0
 18 36  1  0  0  0
 19 20  1  0  0  0
 19 23  1  0  0  0
 20 21  2  0  0  0
 20 37  1  0  0  0
 21 38  1  0  0  0
 22 24  1  0  0  0
 22 28  1  0  0  0
 22 39  1  0  0  0
 24 25  1  0  0  0
 24 40  1  0  0  0
 24 41  1  0  0  0
 25 26  1  0  0  0
 25 42  1  0  0  0
 25 43  1  0  0  0
 26 27  1  0  0  0
 26 29  1  0  0  0
 27 28  1  0  0  0
 27 44  1  0  0  0
 27 45  1  0  0  0
 28 46  1  0  0  0
 28 47  1  0  0  0
 29 48  1  0  0  0
 29 49  1  0  0  0
 29 50  1  0  0  0
M  END
> <s_m_entry_id>
10626

> <s_m_entry_name>
dock_pv.695

> <s_m_Source_Path>
/home/csk/Desktop/cluster/DUD-E-result/met

> <s_m_Source_File>
dock_pv.maegz

> <i_m_Source_File_Index>
695

> <chembl_id>
CHEMBL2032292

> <chembl_pref_name>
None

> <i_lp_mmshare_version>
53161

> <i_f3d_flags>
0

> <r_lp_tautomer_probability>
0.999999772200052

> <s_lp_Force_Field>
OPLS_2005

> <r_lp_Energy>
31.307257

> <b_lp_Chiralities_Consistent>
1

> <s_lp_Variant>
CHEMBL3717_lig1192-1

> <s_i_glide_gridfile>
glide-grid_3lq8

> <i_i_glide_lignum>
1368

> <i_i_glide_rotatable_bonds>
3

> <r_i_docking_score>
-6.8242844358342

> <r_i_glide_ligand_efficiency>
-0.2353201529598

> <r_i_glide_ligand_efficiency_sa>
-0.722978064549867

> <r_i_glide_ligand_efficiency_ln>
-1.56258808688381

> <r_i_glide_gscore>
-6.8242844358342

> <r_i_glide_lipo>
-3.82993976117002

> <r_i_glide_hbond>
0

> <r_i_glide_metal>
0

> <r_i_glide_rewards>
-1.52658327921677

> <r_i_glide_evdw>
-35.8739051818848

> <r_i_glide_ecoul>
-0.362764447927475

> <r_i_glide_erotb>
0.380348530835948

> <r_i_glide_esite>
0

> <r_i_glide_emodel>
-48.2438763474456

> <r_i_glide_energy>
-36.2366696298122

> <r_i_glide_einternal>
0.456842541694641

> <i_i_glide_confnum>
5

> <i_i_glide_posenum>
11

> <r_i_glide_eff_state_penalty>
0

> <s_user_duplicate_titles>
CHEMBL3717_lig1192

> <s_m_subgroup_title>
dock_pv

> <s_m_subgroupid>
dock_pv

> <b_m_subgroup_collapsed>
1

$$$$
CHEMBL3717_lig2975
                    3D
 Schrodinger Suite 2021-1.
 41 45  0  0  1  0            999 V2000
   -6.4429    4.7574   30.7388 S   0  0  0  0  0  0
   -5.0471    2.5919   30.2072 N   0  0  0  0  0  0
   -4.9326    3.8618   30.4993 C   0  0  0  0  0  0
   -6.3741    2.2913   30.1152 N   0  0  0  0  0  0
   -7.2905    3.2768   30.3617 C   0  0  0  0  0  0
   -8.5188    2.8388   30.2312 N   0  0  0  0  0  0
   -8.3991    1.5024   29.8512 N   0  0  0  0  0  0
   -7.1250    1.1799   29.7712 C   0  0  0  0  0  0
   -6.5701   -0.1573   29.3097 C   0  0  0  0  0  0
   -5.4412   -0.6930   30.1829 C   0  0  0  0  0  0
   -4.1665   -0.8821   29.6453 C   0  0  0  0  0  0
   -3.1420   -1.3878   30.4393 C   0  0  0  0  0  0
   -3.3819   -1.7083   31.7837 C   0  0  0  0  0  0
   -4.6606   -1.5174   32.3099 C   0  0  0  0  0  0
   -5.6864   -1.0140   31.5177 C   0  0  0  0  0  0
   -2.4230   -2.2027   32.6448 O   0  0  0  0  0  0
   -1.1075   -2.4431   32.1544 C   0  0  0  0  0  0
   -3.6243    4.4792   30.6070 C   0  0  0  0  0  0
   -3.3816    5.7706   30.2087 N   0  0  0  0  0  0
   -2.4249    3.9234   31.0077 C   0  0  0  0  0  0
   -1.3889    4.8769   30.7584 C   0  0  0  0  0  0
   -2.0246    6.0405   30.2313 C   0  0  0  0  0  0
   -1.2936    7.1567   29.8087 C   0  0  0  0  0  0
    0.0947    7.0790   29.9082 C   0  0  0  0  0  0
    0.7352    5.9660   30.4460 C   0  0  0  0  0  0
    0.0076    4.8624   30.8904 C   0  0  0  0  0  0
   -6.2022   -0.0549   28.2879 H   0  0  0  0  0  0
   -7.3579   -0.9077   29.2632 H   0  0  0  0  0  0
   -3.9661   -0.6495   28.6094 H   0  0  0  0  0  0
   -2.1709   -1.5287   29.9905 H   0  0  0  0  0  0
   -4.8711   -1.7664   33.3389 H   0  0  0  0  0  0
   -6.6691   -0.8737   31.9437 H   0  0  0  0  0  0
   -0.4969   -2.8574   32.9572 H   0  0  0  0  0  0
   -0.6301   -1.5244   31.8143 H   0  0  0  0  0  0
   -1.1043   -3.1693   31.3396 H   0  0  0  0  0  0
   -4.1260    6.3574   29.8593 H   0  0  0  0  0  0
   -2.3056    2.9154   31.3780 H   0  0  0  0  0  0
   -1.7651    8.0405   29.4084 H   0  0  0  0  0  0
    0.6899    7.9195   29.5748 H   0  0  0  0  0  0
    1.8132    5.9579   30.5196 H   0  0  0  0  0  0
    0.5151    3.9971   31.2899 H   0  0  0  0  0  0
  1  5  1  0  0  0
  1  3  1  0  0  0
  2  4  1  0  0  0
  2  3  2  0  0  0
  3 18  1  0  0  0
  4  5  1  0  0  0
  4  8  1  0  0  0
  5  6  2  0  0  0
  6  7  1  0  0  0
  7  8  2  0  0  0
  8  9  1  0  0  0
  9 10  1  0  0  0
  9 27  1  0  0  0
  9 28  1  0  0  0
 10 11  2  0  0  0
 10 15  1  0  0  0
 11 12  1  0  0  0
 11 29  1  0  0  0
 12 13  2  0  0  0
 12 30  1  0  0  0
 13 14  1  0  0  0
 13 16  1  0  0  0
 14 15  2  0  0  0
 14 31  1  0  0  0
 15 32  1  0  0  0
 16 17  1  0  0  0
 17 33  1  0  0  0
 17 34  1  0  0  0
 17 35  1  0  0  0
 18 19  1  0  0  0
 18 20  2  0  0  0
 19 22  1  0  0  0
 19 36  1  0  0  0
 20 21  1  0  0  0
 20 37  1  0  0  0
 21 22  2  0  0  0
 21 26  1  0  0  0
 22 23  1  0  0  0
 23 24  2  0  0  0
 23 38  1  0  0  0
 24 25  1  0  0  0
 24 39  1  0  0  0
 25 26  2  0  0  0
 25 40  1  0  0  0
 26 41  1  0  0  0
M  END
> <s_m_entry_id>
10627

> <s_m_entry_name>
dock_pv.696

> <s_m_Source_Path>
/home/csk/Desktop/cluster/DUD-E-result/met

> <s_m_Source_File>
dock_pv.maegz

> <i_m_Source_File_Index>
696

> <chembl_id>
CHEMBL4165354

> <chembl_pref_name>
None

> <i_lp_mmshare_version>
53161

> <i_f3d_flags>
0

> <r_lp_tautomer_probability>
1

> <s_lp_Force_Field>
OPLS_2005

> <r_lp_Energy>
26.021661

> <b_lp_Chiralities_Consistent>
1

> <s_lp_Variant>
CHEMBL3717_lig2975-1

> <s_i_glide_gridfile>
glide-grid_3lq8

> <i_i_glide_lignum>
3652

> <i_i_glide_rotatable_bonds>
4

> <r_i_docking_score>
-6.82414253186886

> <r_i_glide_ligand_efficiency>
-0.262467020456495

> <r_i_glide_ligand_efficiency_sa>
-0.777557515344509

> <r_i_glide_ligand_efficiency_ln>
-1.60262748177139

> <r_i_glide_gscore>
-6.82414253186886

> <r_i_glide_lipo>
-2.96054793336531

> <r_i_glide_hbond>
0

> <r_i_glide_metal>
0

> <r_i_glide_rewards>
-1.99877511557895

> <r_i_glide_evdw>
-41.0362243652344

> <r_i_glide_ecoul>
-1.69161105155945

> <r_i_glide_erotb>
0.440733393071043

> <r_i_glide_esite>
0

> <r_i_glide_emodel>
-57.3475671991555

> <r_i_glide_energy>
-42.7278354167938

> <r_i_glide_einternal>
3.18616843223572

> <i_i_glide_confnum>
2

> <i_i_glide_posenum>
86

> <r_i_glide_eff_state_penalty>
0

> <s_user_duplicate_titles>
CHEMBL3717_lig2975

> <s_m_subgroup_title>
dock_pv

> <s_m_subgroupid>
dock_pv

> <b_m_subgroup_collapsed>
1

$$$$
CHEMBL3717_lig3460
                    3D
 Schrodinger Suite 2021-1.
 46 48  0  0  1  0            999 V2000
    1.2678    4.9997   29.9112 S   0  0  0  0  0  0
    0.7059    6.0316   29.0317 O   0  0  0  0  0  0
    2.5892    5.1570   30.5217 O   0  0  0  0  0  0
   -6.1579    0.2403   28.6081 O   0  0  0  0  0  0
   -9.5599    3.4788   29.8360 N   0  0  0  0  0  0
   -9.5453    2.1403   29.7379 N   0  0  0  0  0  0
   -8.1133    0.1909   29.7802 N   0  0  0  0  0  0
    0.1533    4.7573   31.2490 N   0  0  0  0  0  0
   -7.4001    2.6352   30.0667 C   0  0  0  0  0  0
   -8.2439    3.7851   30.0492 C   0  0  0  0  0  0
   -8.3113    1.5565   29.8679 C   0  0  0  0  0  0
   -5.4556    4.0574   30.4422 C   0  0  0  0  0  0
   -6.0149    2.7840   30.2513 C   0  0  0  0  0  0
   -3.9684    4.2380   30.6074 C   0  0  0  0  0  0
   -7.6944    5.0538   30.2382 C   0  0  0  0  0  0
   -6.3243    5.1571   30.4650 C   0  0  0  0  0  0
   -1.2090    4.5941   31.0077 C   0  0  0  0  0  0
   -3.1373    3.1611   30.9680 C   0  0  0  0  0  0
   -3.3622    5.4907   30.4082 C   0  0  0  0  0  0
   -1.7794    3.3423   31.1923 C   0  0  0  0  0  0
   -1.9962    5.6707   30.6084 C   0  0  0  0  0  0
   -7.0437   -0.3783   29.1955 C   0  0  0  0  0  0
    1.2290    3.3352   29.0207 C   0  0  0  0  0  0
   -6.9694   -1.8970   29.2833 C   0  0  0  0  0  0
    2.1818    3.3005   27.8122 C   0  0  0  0  0  0
    3.6652    3.4214   28.1930 C   0  0  0  0  0  0
  -10.3945    1.6224   29.5681 H   0  0  0  0  0  0
   -8.8295   -0.4134   30.1521 H   0  0  0  0  0  0
    0.5470    4.1811   31.9765 H   0  0  0  0  0  0
   -5.3911    1.9067   30.2368 H   0  0  0  0  0  0
   -8.3159    5.9378   30.2084 H   0  0  0  0  0  0
   -5.9464    6.1548   30.6224 H   0  0  0  0  0  0
   -3.5383    2.1752   31.1427 H   0  0  0  0  0  0
   -3.9364    6.3470   30.0906 H   0  0  0  0  0  0
   -1.1821    2.5084   31.5227 H   0  0  0  0  0  0
   -1.5515    6.6440   30.4581 H   0  0  0  0  0  0
    1.5000    2.5756   29.7526 H   0  0  0  0  0  0
    0.1982    3.1573   28.7192 H   0  0  0  0  0  0
   -7.6928   -2.3536   28.6081 H   0  0  0  0  0  0
   -7.1730   -2.2386   30.2981 H   0  0  0  0  0  0
   -5.9732   -2.2437   29.0051 H   0  0  0  0  0  0
    2.0330    2.3581   27.2831 H   0  0  0  0  0  0
    1.9138    4.0826   27.1010 H   0  0  0  0  0  0
    4.3054    3.1570   27.3563 H   0  0  0  0  0  0
    3.9278    4.4377   28.4846 H   0  0  0  0  0  0
    3.9261    2.7586   29.0178 H   0  0  0  0  0  0
  1  2  2  0  0  0
  1  3  2  0  0  0
  1  8  1  0  0  0
  1 23  1  0  0  0
  4 22  2  0  0  0
  5  6  1  0  0  0
  5 10  2  0  0  0
  6 27  1  0  0  0
  6 11  1  0  0  0
  7 22  1  0  0  0
  7 28  1  0  0  0
  7 11  1  0  0  0
  8 17  1  0  0  0
  8 29  1  0  0  0
  9 13  1  0  0  0
  9 10  1  0  0  0
  9 11  2  0  0  0
 10 15  1  0  0  0
 12 16  1  0  0  0
 12 14  1  0  0  0
 12 13  2  0  0  0
 13 30  1  0  0  0
 14 18  2  0  0  0
 14 19  1  0  0  0
 15 31  1  0  0  0
 15 16  2  0  0  0
 16 32  1  0  0  0
 17 20  2  0  0  0
 17 21  1  0  0  0
 18 20  1  0  0  0
 18 33  1  0  0  0
 19 21  2  0  0  0
 19 34  1  0  0  0
 20 35  1  0  0  0
 21 36  1  0  0  0
 22 24  1  0  0  0
 23 25  1  0  0  0
 23 37  1  0  0  0
 23 38  1  0  0  0
 24 39  1  0  0  0
 24 40  1  0  0  0
 24 41  1  0  0  0
 25 26  1  0  0  0
 25 42  1  0  0  0
 25 43  1  0  0  0
 26 44  1  0  0  0
 26 45  1  0  0  0
 26 46  1  0  0  0
M  END
> <s_m_entry_id>
10628

> <s_m_entry_name>
dock_pv.697

> <s_m_Source_Path>
/home/csk/Desktop/cluster/DUD-E-result/met

> <s_m_Source_File>
dock_pv.maegz

> <i_m_Source_File_Index>
697

> <chembl_id>
CHEMBL1973893

> <chembl_pref_name>
None

> <i_lp_mmshare_version>
53161

> <i_f3d_flags>
0

> <r_lp_tautomer_probability>
0.0196078431372549

> <s_lp_Force_Field>
OPLS_2005

> <r_lp_Energy>
31.098383

> <b_lp_Chiralities_Consistent>
1

> <s_lp_Variant>
CHEMBL3717_lig3460-2

> <s_i_glide_gridfile>
glide-grid_3lq8

> <i_i_glide_lignum>
4269

> <i_i_glide_rotatable_bonds>
7

> <r_i_docking_score>
-6.82267232828151

> <r_i_glide_ligand_efficiency>
-0.262410474164674

> <r_i_glide_ligand_efficiency_sa>
-0.777389997177489

> <r_i_glide_ligand_efficiency_ln>
-1.60228220928304

> <r_i_glide_gscore>
-6.82267232828151

> <r_i_glide_lipo>
-3.37155794422396

> <r_i_glide_hbond>
0

> <r_i_glide_metal>
0

> <r_i_glide_rewards>
-1.77348701495265

> <r_i_glide_evdw>
-38.6307563781738

> <r_i_glide_ecoul>
-2.94314932823181

> <r_i_glide_erotb>
0.696190519797941

> <r_i_glide_esite>
-0.000807670759378962

> <r_i_glide_emodel>
-55.3771673851289

> <r_i_glide_energy>
-41.5739057064056

> <r_i_glide_einternal>
5.53522443771362

> <i_i_glide_confnum>
24

> <i_i_glide_posenum>
17

> <r_i_glide_eff_state_penalty>
0

> <s_user_duplicate_titles>
CHEMBL3717_lig3460

> <s_m_subgroup_title>
dock_pv

> <s_m_subgroupid>
dock_pv

> <b_m_subgroup_collapsed>
1

$$$$
CHEMBL3717_lig3561
                    3D
 Schrodinger Suite 2021-1.
 45 49  0  0  1  0            999 V2000
   -3.0989    4.9124   30.6087 C   0  0  0  0  0  0
   -1.6143    6.8297   30.2080 C   0  0  0  0  0  0
   -1.9999    4.0918   30.8883 C   0  0  0  0  0  0
   -0.7053    4.6241   30.8145 C   0  0  0  0  0  0
   -0.5342    5.9838   30.4694 C   0  0  0  0  0  0
    1.5110    5.0736   30.7859 N   0  0  0  0  0  0
    0.6229    4.1376   30.9982 C   0  0  0  0  0  0
   -4.4956    4.3550   30.6076 C   0  0  0  0  0  0
   -5.5083    5.1412   30.9433 N   0  0  0  0  0  0
   -4.9239    3.0476   30.2770 C   0  0  0  0  0  0
   -6.2980    3.0837   30.3724 N   0  0  0  0  0  0
   -6.6196    4.3829   30.7983 C   0  0  0  0  0  0
   -7.8882    4.7571   31.0163 N   0  0  0  0  0  0
   -8.8604    3.8352   30.7835 C   0  0  0  0  0  0
   -8.6111    2.5331   30.3521 C   0  0  0  0  0  0
   -7.2865    2.1555   30.1482 C   0  0  0  0  0  0
   -4.2403    0.6565   30.6387 C   0  0  0  0  0  0
   -4.3150   -0.5309   29.6560 C   0  0  0  0  0  0
   -4.1951   -1.8825   30.3905 C   0  0  0  0  0  0
   -2.9152   -1.9568   31.2493 C   0  0  0  0  0  0
   -2.7860   -0.7573   32.2082 C   0  0  0  0  0  0
   -2.9456    0.5876   31.4749 C   0  0  0  0  0  0
    0.8306    6.1882   30.4678 N   0  0  0  0  0  0
   -4.2774    1.9011   29.8724 N   0  0  0  0  0  0
   -2.8878    6.2621   30.2974 C   0  0  0  0  0  0
   -1.4753    7.8698   29.9440 H   0  0  0  0  0  0
   -2.1391    3.0585   31.1394 H   0  0  0  0  0  0
    0.9281    3.1369   31.2624 H   0  0  0  0  0  0
   -9.8757    4.1661   30.9516 H   0  0  0  0  0  0
   -9.4218    1.8382   30.1828 H   0  0  0  0  0  0
   -6.9837    1.1733   29.8157 H   0  0  0  0  0  0
   -5.1040    0.6327   31.3038 H   0  0  0  0  0  0
   -5.2544   -0.5058   29.0987 H   0  0  0  0  0  0
   -3.5202   -0.4549   28.9088 H   0  0  0  0  0  0
   -5.0695   -2.0328   31.0280 H   0  0  0  0  0  0
   -4.2001   -2.7021   29.6696 H   0  0  0  0  0  0
   -2.9014   -2.8903   31.8120 H   0  0  0  0  0  0
   -2.0430   -1.9905   30.5933 H   0  0  0  0  0  0
   -3.5285   -0.8277   33.0073 H   0  0  0  0  0  0
   -1.8152   -0.7903   32.7057 H   0  0  0  0  0  0
   -2.1026    0.7511   30.8120 H   0  0  0  0  0  0
   -2.8940    1.3862   32.2078 H   0  0  0  0  0  0
    1.3251    7.0422   30.2581 H   0  0  0  0  0  0
   -3.5013    1.9623   29.2252 H   0  0  0  0  0  0
   -3.7476    6.8831   30.0893 H   0  0  0  0  0  0
  1 25  2  0  0  0
  1  3  1  0  0  0
  1  8  1  0  0  0
  2 25  1  0  0  0
  2  5  2  0  0  0
  2 26  1  0  0  0
  3  4  2  0  0  0
  3 27  1  0  0  0
  4  5  1  0  0  0
  4  7  1  0  0  0
  5 23  1  0  0  0
  6  7  2  0  0  0
  6 23  1  0  0  0
  7 28  1  0  0  0
  8  9  1  0  0  0
  8 10  2  0  0  0
  9 12  2  0  0  0
 10 11  1  0  0  0
 10 24  1  0  0  0
 11 12  1  0  0  0
 11 16  1  0  0  0
 12 13  1  0  0  0
 13 14  2  0  0  0
 14 15  1  0  0  0
 14 29  1  0  0  0
 15 16  2  0  0  0
 15 30  1  0  0  0
 16 31  1  0  0  0
 17 18  1  0  0  0
 17 22  1  0  0  0
 17 24  1  0  0  0
 17 32  1  0  0  0
 18 19  1  0  0  0
 18 33  1  0  0  0
 18 34  1  0  0  0
 19 20  1  0  0  0
 19 35  1  0  0  0
 19 36  1  0  0  0
 20 21  1  0  0  0
 20 37  1  0  0  0
 20 38  1  0  0  0
 21 22  1  0  0  0
 21 39  1  0  0  0
 21 40  1  0  0  0
 22 41  1  0  0  0
 22 42  1  0  0  0
 23 43  1  0  0  0
 24 44  1  0  0  0
 25 45  1  0  0  0
M  END
> <s_m_entry_id>
10629

> <s_m_entry_name>
dock_pv.698

> <s_m_Source_Path>
/home/csk/Desktop/cluster/DUD-E-result/met

> <s_m_Source_File>
dock_pv.maegz

> <i_m_Source_File_Index>
698

> <chembl_id>
CHEMBL1682552

> <chembl_pref_name>
None

> <i_lp_mmshare_version>
53161

> <i_f3d_flags>
0

> <r_lp_tautomer_probability>
0.980392156862745

> <s_lp_Force_Field>
OPLS_2005

> <r_lp_Energy>
25.975939

> <b_lp_Chiralities_Consistent>
1

> <s_lp_Variant>
CHEMBL3717_lig3561-1

> <s_i_glide_gridfile>
glide-grid_3lq8

> <i_i_glide_lignum>
4409

> <i_i_glide_rotatable_bonds>
3

> <r_i_docking_score>
-6.82120916969684

> <r_i_glide_ligand_efficiency>
-0.272848366787873

> <r_i_glide_ligand_efficiency_sa>
-0.797813463474131

> <r_i_glide_ligand_efficiency_ln>
-1.61683098836168

> <r_i_glide_gscore>
-6.82120916969684

> <r_i_glide_lipo>
-3.1819141113815

> <r_i_glide_hbond>
0

> <r_i_glide_metal>
0

> <r_i_glide_rewards>
-2.21041596348874

> <r_i_glide_evdw>
-38.6095237731934

> <r_i_glide_ecoul>
-0.0651533156633377

> <r_i_glide_erotb>
0.511370091182575

> <r_i_glide_esite>
0

> <r_i_glide_emodel>
-53.7955924103492

> <r_i_glide_energy>
-38.6746770888567

> <r_i_glide_einternal>
0.926825761795044

> <i_i_glide_confnum>
7

> <i_i_glide_posenum>
197

> <r_i_glide_eff_state_penalty>
0

> <s_user_duplicate_titles>
CHEMBL3717_lig3561

> <s_m_subgroup_title>
dock_pv

> <s_m_subgroupid>
dock_pv

> <b_m_subgroup_collapsed>
1

$$$$
CHEMBL3717_lig313
                    3D
 Schrodinger Suite 2021-1.
 34 37  0  0  1  0            999 V2000
   -2.9937    5.1878   30.7251 C   0  0  0  0  0  0
   -4.0813    6.0601   30.8478 C   0  0  0  0  0  0
   -5.3856    5.5571   30.8024 C   0  0  0  0  0  0
   -4.3943    3.4056   30.5161 N   0  0  0  0  0  0
   -5.5555    4.1832   30.6053 C   0  0  0  0  0  0
   -6.6427    3.3970   30.4496 N   0  0  0  0  0  0
   -6.1649    2.1162   30.2239 N   0  0  0  0  0  0
   -4.8457    2.1268   30.2832 C   0  0  0  0  0  0
   -3.9196    0.9451   30.0567 C   0  0  0  0  0  0
   -4.4333   -0.3930   30.5683 C   0  0  0  0  0  0
   -5.0791   -0.4981   31.8064 C   0  0  0  0  0  0
   -5.5253   -1.7383   32.2547 C   0  0  0  0  0  0
   -5.3057   -2.8694   31.4742 C   0  0  0  0  0  0
   -4.6607   -2.7703   30.2450 C   0  0  0  0  0  0
   -4.2210   -1.5336   29.7938 C   0  0  0  0  0  0
   -5.6940   -4.1009   31.9218 O   0  0  0  0  0  0
   -1.5942    5.6810   30.6080 C   0  0  0  0  0  0
   -1.4238    6.9609   30.1766 O   0  0  0  0  0  0
   -0.0931    7.1566   29.9945 C   0  0  0  0  0  0
    0.6097    6.0199   30.3528 C   0  0  0  0  0  0
   -0.3460    5.0788   30.7389 C   0  0  0  0  0  0
   -3.1235    3.8399   30.6080 N   0  0  0  0  0  0
   -3.9201    7.1235   30.9450 H   0  0  0  0  0  0
   -6.2397    6.2172   30.8499 H   0  0  0  0  0  0
   -2.9612    1.1070   30.5522 H   0  0  0  0  0  0
   -3.6945    0.8705   28.9913 H   0  0  0  0  0  0
   -5.2435    0.3743   32.4223 H   0  0  0  0  0  0
   -6.0237   -1.8205   33.2099 H   0  0  0  0  0  0
   -4.4844   -3.6464   29.6405 H   0  0  0  0  0  0
   -3.7194   -1.4686   28.8377 H   0  0  0  0  0  0
   -5.1519   -4.7812   31.4930 H   0  0  0  0  0  0
    0.1986    8.1342   29.6362 H   0  0  0  0  0  0
    1.6812    5.8845   30.3242 H   0  0  0  0  0  0
   -0.1587    4.0604   31.0476 H   0  0  0  0  0  0
  1  2  1  0  0  0
  1 17  1  0  0  0
  1 22  2  0  0  0
  2  3  2  0  0  0
  2 23  1  0  0  0
  3  5  1  0  0  0
  3 24  1  0  0  0
  4  5  1  0  0  0
  4 22  1  0  0  0
  4  8  1  0  0  0
  5  6  2  0  0  0
  6  7  1  0  0  0
  7  8  2  0  0  0
  8  9  1  0  0  0
  9 10  1  0  0  0
  9 25  1  0  0  0
  9 26  1  0  0  0
 10 11  2  0  0  0
 10 15  1  0  0  0
 11 12  1  0  0  0
 11 27  1  0  0  0
 12 13  2  0  0  0
 12 28  1  0  0  0
 13 14  1  0  0  0
 13 16  1  0  0  0
 14 15  2  0  0  0
 14 29  1  0  0  0
 15 30  1  0  0  0
 16 31  1  0  0  0
 17 18  1  0  0  0
 17 21  2  0  0  0
 18 19  1  0  0  0
 19 20  2  0  0  0
 19 32  1  0  0  0
 20 21  1  0  0  0
 20 33  1  0  0  0
 21 34  1  0  0  0
M  END
> <s_m_entry_id>
10630

> <s_m_entry_name>
dock_pv.699

> <s_m_Source_Path>
/home/csk/Desktop/cluster/DUD-E-result/met

> <s_m_Source_File>
dock_pv.maegz

> <i_m_Source_File_Index>
699

> <chembl_id>
CHEMBL497119

> <chembl_pref_name>
None

> <i_lp_mmshare_version>
53161

> <i_f3d_flags>
0

> <r_lp_tautomer_probability>
0.999999999997365

> <s_lp_Force_Field>
OPLS_2005

> <r_lp_Energy>
13.108812

> <b_lp_Chiralities_Consistent>
1

> <s_lp_Variant>
CHEMBL3717_lig313-1

> <s_i_glide_gridfile>
glide-grid_3lq8

> <i_i_glide_lignum>
329

> <i_i_glide_rotatable_bonds>
4

> <r_i_docking_score>
-6.82006294016867

> <r_i_glide_ligand_efficiency>
-0.310002860916758

> <r_i_glide_ligand_efficiency_sa>
-0.868640208009446

> <r_i_glide_ligand_efficiency_ln>
-1.66707215041734

> <r_i_glide_gscore>
-6.82006294016867

> <r_i_glide_lipo>
-2.26166729702102

> <r_i_glide_hbond>
-0.16

> <r_i_glide_metal>
0

> <r_i_glide_rewards>
-2.67933872978697

> <r_i_glide_evdw>
-33.2428398132324

> <r_i_glide_ecoul>
-4.65279293060303

> <r_i_glide_erotb>
0.641004016891391

> <r_i_glide_esite>
0

> <r_i_glide_emodel>
-50.6762761984779

> <r_i_glide_energy>
-37.8956327438354

> <r_i_glide_einternal>
3.62348532676697

> <i_i_glide_confnum>
2

> <i_i_glide_posenum>
93

> <r_i_glide_eff_state_penalty>
0

> <s_user_duplicate_titles>
CHEMBL3717_lig313

> <s_m_subgroup_title>
dock_pv

> <s_m_subgroupid>
dock_pv

> <b_m_subgroup_collapsed>
1

$$$$
CHEMBL3717_lig1801
                    3D
 Schrodinger Suite 2021-1.
 51 54  0  0  1  0            999 V2000
   -1.5667    4.2632   31.0669 C   0  0  0  0  0  0
   -1.1542    3.1558   31.4073 O   0  0  0  0  0  0
   -0.7455    5.3271   30.9767 N   0  0  0  0  0  0
    0.6998    5.3041   31.2414 C   0  0  0  0  0  0
    1.5698    4.5838   30.2114 C   0  0  0  0  0  0
    1.0043    3.8885   29.1380 C   0  0  0  0  0  0
    1.8040    3.2625   28.2054 C   0  0  0  0  0  0
    3.1727    3.3423   28.3243 C   0  0  0  0  0  0
    3.7712    4.0128   29.3872 C   0  0  0  0  0  0
    2.9618    4.6314   30.3379 C   0  0  0  0  0  0
    3.9058    2.7570   27.3731 F   0  0  0  0  0  0
   -5.2191    3.5934   30.4942 N   0  0  0  0  0  0
   -5.8223    4.8380   30.6022 C   0  0  0  0  0  0
   -4.8955    5.9603   30.6512 C   0  0  0  0  0  0
   -3.5584    5.8333   30.7579 C   0  0  0  0  0  0
   -2.9660    4.5019   30.7745 C   0  0  0  0  0  0
   -3.8388    3.4739   30.6080 C   0  0  0  0  0  0
   -7.0294    5.0692   30.6746 O   0  0  0  0  0  0
   -5.9911    2.4042   30.3213 C   0  0  0  0  0  0
   -7.9315    1.0288   30.8537 C   0  0  0  0  0  0
   -7.5231    0.0682   29.9274 C   0  0  0  0  0  0
   -6.3447    0.2699   29.2024 C   0  0  0  0  0  0
   -5.5790    1.4183   29.4080 C   0  0  0  0  0  0
   -7.1749    2.1817   31.0480 C   0  0  0  0  0  0
   -8.3024   -1.0502   29.7445 O   0  0  0  0  0  0
   -7.8055   -2.3236   29.9392 C   0  0  0  0  0  0
   -8.4949   -3.3956   29.3570 C   0  0  0  0  0  0
   -8.0090   -4.6941   29.5583 C   0  0  0  0  0  0
   -6.9026   -4.9573   30.2909 N   0  0  0  0  0  0
   -6.2450   -3.9146   30.8523 C   0  0  0  0  0  0
   -6.6636   -2.5927   30.7096 C   0  0  0  0  0  0
   -8.6486   -5.7984   29.0079 N   0  0  0  0  0  0
  -10.2159   -3.0272   28.2084 I   0  0  0  0  0  0
   -9.0659    0.8487   31.5693 F   0  0  0  0  0  0
   -1.1282    6.2020   30.6576 H   0  0  0  0  0  0
    0.8846    4.8661   32.2248 H   0  0  0  0  0  0
    1.0386    6.3396   31.3047 H   0  0  0  0  0  0
   -0.0597    3.8024   29.0037 H   0  0  0  0  0  0
    1.3653    2.7200   27.3822 H   0  0  0  0  0  0
    4.8477    4.0546   29.4629 H   0  0  0  0  0  0
    3.4201    5.1557   31.1629 H   0  0  0  0  0  0
   -5.3331    6.9465   30.6078 H   0  0  0  0  0  0
   -2.9489    6.7247   30.7982 H   0  0  0  0  0  0
   -3.5157    2.4403   30.6456 H   0  0  0  0  0  0
   -6.0248   -0.4655   28.4797 H   0  0  0  0  0  0
   -4.6806    1.5446   28.8213 H   0  0  0  0  0  0
   -7.5224    2.8956   31.7807 H   0  0  0  0  0  0
   -5.3611   -4.1604   31.4226 H   0  0  0  0  0  0
   -6.1064   -1.8003   31.1870 H   0  0  0  0  0  0
   -9.3631   -5.6338   28.3137 H   0  0  0  0  0  0
   -8.1949   -6.6949   29.0901 H   0  0  0  0  0  0
  1  2  2  0  0  0
  1  3  1  0  0  0
  1 16  1  0  0  0
  3  4  1  0  0  0
  3 35  1  0  0  0
  4  5  1  0  0  0
  4 36  1  0  0  0
  4 37  1  0  0  0
  5  6  2  0  0  0
  5 10  1  0  0  0
  6  7  1  0  0  0
  6 38  1  0  0  0
  7  8  2  0  0  0
  7 39  1  0  0  0
  8  9  1  0  0  0
  8 11  1  0  0  0
  9 10  2  0  0  0
  9 40  1  0  0  0
 10 41  1  0  0  0
 12 13  1  0  0  0
 12 17  1  0  0  0
 12 19  1  0  0  0
 13 14  1  0  0  0
 13 18  2  0  0  0
 14 15  2  0  0  0
 14 42  1  0  0  0
 15 16  1  0  0  0
 15 43  1  0  0  0
 16 17  2  0  0  0
 17 44  1  0  0  0
 19 23  1  0  0  0
 19 24  2  0  0  0
 20 21  2  0  0  0
 20 24  1  0  0  0
 20 34  1  0  0  0
 21 22  1  0  0  0
 21 25  1  0  0  0
 22 23  2  0  0  0
 22 45  1  0  0  0
 23 46  1  0  0  0
 24 47  1  0  0  0
 25 26  1  0  0  0
 26 27  2  0  0  0
 26 31  1  0  0  0
 27 28  1  0  0  0
 27 33  1  0  0  0
 28 29  2  0  0  0
 28 32  1  0  0  0
 29 30  1  0  0  0
 30 31  2  0  0  0
 30 48  1  0  0  0
 31 49  1  0  0  0
 32 50  1  0  0  0
 32 51  1  0  0  0
M  END
> <s_m_entry_id>
10631

> <s_m_entry_name>
dock_pv.700

> <s_m_Source_Path>
/home/csk/Desktop/cluster/DUD-E-result/met

> <s_m_Source_File>
dock_pv.maegz

> <i_m_Source_File_Index>
700

> <chembl_id>
CHEMBL3309475

> <chembl_pref_name>
None

> <i_lp_mmshare_version>
53161

> <i_f3d_flags>
0

> <r_lp_tautomer_probability>
0.999999586418856

> <s_lp_Force_Field>
OPLS_2005

> <r_lp_Energy>
40.910747

> <b_lp_Chiralities_Consistent>
1

> <s_lp_Variant>
CHEMBL3717_lig1801-1

> <s_i_glide_gridfile>
glide-grid_3lq8

> <i_i_glide_lignum>
2087

> <i_i_glide_rotatable_bonds>
7

> <r_i_docking_score>
-6.82002580413765

> <r_i_glide_ligand_efficiency>
-0.200588994239343

> <r_i_glide_ligand_efficiency_sa>
-0.64983047218031

> <r_i_glide_ligand_efficiency_ln>
-1.50673499537821

> <r_i_glide_gscore>
-6.82002580413765

> <r_i_glide_lipo>
-3.55819880081986

> <r_i_glide_hbond>
0

> <r_i_glide_metal>
0

> <r_i_glide_rewards>
-1.34205695045014

> <r_i_glide_evdw>
-42.6141624450684

> <r_i_glide_ecoul>
-0.497384250164032

> <r_i_glide_erotb>
0.285545706910378

> <r_i_glide_esite>
0

> <r_i_glide_emodel>
-59.9283380495903

> <r_i_glide_energy>
-43.1115466952324

> <r_i_glide_einternal>
3.08560705184937

> <i_i_glide_confnum>
4

> <i_i_glide_posenum>
17

> <r_i_glide_eff_state_penalty>
0

> <s_user_duplicate_titles>
CHEMBL3717_lig1801

> <s_m_subgroup_title>
dock_pv

> <s_m_subgroupid>
dock_pv

> <b_m_subgroup_collapsed>
1

$$$$
CHEMBL3717_lig2863
                    3D
 Schrodinger Suite 2021-1.
 36 39  0  0  1  0            999 V2000
   -6.6821    4.3953   30.4649 N   0  0  0  0  0  0
   -5.3848    3.9980   30.4417 C   0  0  0  0  0  0
   -4.9381    2.7224   30.2828 N   0  0  0  0  0  0
   -5.8524    1.7238   30.1855 C   0  0  0  0  0  0
   -5.4424    0.3844   30.1017 N   0  0  0  0  0  0
   -4.0826    0.0381   29.6719 C   0  0  0  0  0  0
   -3.6857   -1.4303   29.9255 C   0  0  0  0  0  0
   -3.6055   -1.6828   31.2353 F   0  0  0  0  0  0
   -4.5713   -2.2836   29.4086 F   0  0  0  0  0  0
   -2.4940   -1.6993   29.3834 F   0  0  0  0  0  0
   -4.4668    5.0432   30.5567 N   0  0  0  0  0  0
   -3.0650    5.0725   30.6304 C   0  0  0  0  0  0
   -2.4505    6.2812   30.2946 C   0  0  0  0  0  0
   -0.9034    3.9954   31.0043 C   0  0  0  0  0  0
   -2.2955    3.9605   31.0071 C   0  0  0  0  0  0
   -7.5778    3.4151   30.3336 C   0  0  0  0  0  0
   -7.2083    2.0628   30.2025 C   0  0  0  0  0  0
   -8.3056    1.2560   30.1036 O   0  0  0  0  0  0
   -9.3811    2.0971   30.1553 C   0  0  0  0  0  0
   -9.0005    3.4274   30.2886 C   0  0  0  0  0  0
   -0.2745    5.1552   30.5533 C   0  0  0  0  0  0
   -1.0569    6.2855   30.2082 C   0  0  0  0  0  0
   -0.1498    7.2392   29.8006 N   0  0  0  0  0  0
    1.1056    6.7581   29.8098 N   0  0  0  0  0  0
    1.0635    5.5518   30.2974 C   0  0  0  0  0  0
   -6.1753   -0.2758   29.8838 H   0  0  0  0  0  0
   -3.9628    0.2840   28.6161 H   0  0  0  0  0  0
   -3.3715    0.6778   30.1954 H   0  0  0  0  0  0
   -4.9217    5.9421   30.5176 H   0  0  0  0  0  0
   -3.0258    7.1558   30.0457 H   0  0  0  0  0  0
   -0.3183    3.1388   31.2938 H   0  0  0  0  0  0
   -2.7613    3.0382   31.3185 H   0  0  0  0  0  0
  -10.3462    1.6158   30.0801 H   0  0  0  0  0  0
   -9.6575    4.2812   30.3425 H   0  0  0  0  0  0
   -0.3346    8.1790   29.4745 H   0  0  0  0  0  0
    1.9652    4.9744   30.4280 H   0  0  0  0  0  0
  1 16  1  0  0  0
  1  2  2  0  0  0
  2  3  1  0  0  0
  2 11  1  0  0  0
  3  4  2  0  0  0
  4 17  1  0  0  0
  4  5  1  0  0  0
  5  6  1  0  0  0
  5 26  1  0  0  0
  6  7  1  0  0  0
  6 27  1  0  0  0
  6 28  1  0  0  0
  7  8  1  0  0  0
  7  9  1  0  0  0
  7 10  1  0  0  0
 11 12  1  0  0  0
 11 29  1  0  0  0
 12 13  2  0  0  0
 12 15  1  0  0  0
 13 22  1  0  0  0
 13 30  1  0  0  0
 14 21  1  0  0  0
 14 15  2  0  0  0
 14 31  1  0  0  0
 15 32  1  0  0  0
 16 17  2  0  0  0
 16 20  1  0  0  0
 17 18  1  0  0  0
 18 19  1  0  0  0
 19 20  2  0  0  0
 19 33  1  0  0  0
 20 34  1  0  0  0
 21 22  2  0  0  0
 21 25  1  0  0  0
 22 23  1  0  0  0
 23 24  1  0  0  0
 23 35  1  0  0  0
 24 25  2  0  0  0
 25 36  1  0  0  0
M  END
> <s_m_entry_id>
10632

> <s_m_entry_name>
dock_pv.701

> <s_m_Source_Path>
/home/csk/Desktop/cluster/DUD-E-result/met

> <s_m_Source_File>
dock_pv.maegz

> <i_m_Source_File_Index>
701

> <chembl_id>
CHEMBL4066664

> <chembl_pref_name>
None

> <i_lp_mmshare_version>
53161

> <i_f3d_flags>
0

> <r_lp_tautomer_probability>
1

> <s_lp_Force_Field>
OPLS_2005

> <r_lp_Energy>
10.866239

> <b_lp_Chiralities_Consistent>
1

> <s_lp_Variant>
CHEMBL3717_lig2863-1

> <s_i_glide_gridfile>
glide-grid_3lq8

> <i_i_glide_lignum>
3502

> <i_i_glide_rotatable_bonds>
5

> <r_i_docking_score>
-6.81690541610404

> <r_i_glide_ligand_efficiency>
-0.272676216644162

> <r_i_glide_ligand_efficiency_sa>
-0.797310093400823

> <r_i_glide_ligand_efficiency_ln>
-1.6158108697871

> <r_i_glide_gscore>
-6.81690541610404

> <r_i_glide_lipo>
-2.64284391791578

> <r_i_glide_hbond>
-0.153490483947172

> <r_i_glide_metal>
0

> <r_i_glide_rewards>
-2.54884919556246

> <r_i_glide_evdw>
-36.6445732116699

> <r_i_glide_ecoul>
-1.47244119644165

> <r_i_glide_erotb>
0.627685804731994

> <r_i_glide_esite>
-0.0463127833608809

> <r_i_glide_emodel>
-53.3630735100572

> <r_i_glide_energy>
-38.1170144081116

> <r_i_glide_einternal>
1.90179324150085

> <i_i_glide_confnum>
17

> <i_i_glide_posenum>
20

> <r_i_glide_eff_state_penalty>
0

> <s_user_duplicate_titles>
CHEMBL3717_lig2863

> <s_m_subgroup_title>
dock_pv

> <s_m_subgroupid>
dock_pv

> <b_m_subgroup_collapsed>
1

$$$$
CHEMBL3717_lig2617
                    3D
 Schrodinger Suite 2021-1.
 44 47  0  0  1  0            999 V2000
   -4.0789   -1.9554   31.0463 C   0  0  0  0  0  0
   -4.9194   -1.5465   29.8239 C   0  0  0  0  0  0
   -5.7559   -0.4271   30.1007 O   0  0  0  0  0  0
   -4.9785    0.7475   30.1316 N   0  0  0  0  0  0
   -5.6282    1.7854   30.5121 C   0  0  0  0  0  0
   -7.1185    1.7662   30.8876 C   0  0  0  0  0  0
   -4.9645    3.1194   30.5698 C   0  0  0  0  0  0
   -5.6759    4.3344   30.5794 C   0  0  0  0  0  0
   -4.9968    5.5573   30.6080 C   0  0  0  0  0  0
   -3.5949    5.5364   30.6083 C   0  0  0  0  0  0
   -2.6405    6.4955   30.6071 N   0  0  0  0  0  0
   -1.4160    5.8359   30.6081 N   0  0  0  0  0  0
   -1.6304    4.5330   30.6203 C   0  0  0  0  0  0
   -0.6164    3.4008   30.6086 C   0  0  0  0  0  0
    0.8587    3.7713   30.5751 C   0  0  0  0  0  0
    1.5045    4.1044   31.7619 C   0  0  0  0  0  0
    2.8685    4.3570   31.7834 C   0  0  0  0  0  0
    3.6233    4.3306   30.5971 C   0  0  0  0  0  0
    4.9472    4.6495   30.6540 N   0  0  0  0  0  0
    5.6519    4.6823   29.5030 C   0  0  0  0  0  0
    5.1033    4.3570   28.2717 C   0  0  0  0  0  0
    3.7642    3.9568   28.2082 C   0  0  0  0  0  0
    2.9744    3.9843   29.3776 C   0  0  0  0  0  0
    1.5858    3.6943   29.3836 C   0  0  0  0  0  0
   -2.9839    4.2810   30.6084 N   0  0  0  0  0  0
   -3.5983    3.0877   30.6075 N   0  0  0  0  0  0
   -3.4856   -2.8439   30.8293 H   0  0  0  0  0  0
   -4.7160   -2.1800   31.9019 H   0  0  0  0  0  0
   -3.3903   -1.1626   31.3393 H   0  0  0  0  0  0
   -4.2766   -1.3595   28.9617 H   0  0  0  0  0  0
   -5.5658   -2.3771   29.5393 H   0  0  0  0  0  0
   -7.3212    2.3899   31.7583 H   0  0  0  0  0  0
   -7.7233    2.1292   30.0568 H   0  0  0  0  0  0
   -7.4924    0.7701   31.1232 H   0  0  0  0  0  0
   -6.7558    4.3502   30.5438 H   0  0  0  0  0  0
   -5.5370    6.4938   30.6073 H   0  0  0  0  0  0
   -0.7791    2.7684   31.4822 H   0  0  0  0  0  0
   -0.8252    2.7572   29.7579 H   0  0  0  0  0  0
    0.9482    4.1541   32.6822 H   0  0  0  0  0  0
    3.3590    4.6213   32.6991 H   0  0  0  0  0  0
    6.6921    4.9633   29.5833 H   0  0  0  0  0  0
    5.7289    4.3705   27.3947 H   0  0  0  0  0  0
    3.3028    3.6448   27.2844 H   0  0  0  0  0  0
    1.0996    3.4162   28.4589 H   0  0  0  0  0  0
  1  2  1  0  0  0
  1 27  1  0  0  0
  1 28  1  0  0  0
  1 29  1  0  0  0
  2  3  1  0  0  0
  2 30  1  0  0  0
  2 31  1  0  0  0
  3  4  1  0  0  0
  4  5  2  0  0  0
  5  6  1  0  0  0
  5  7  1  0  0  0
  6 32  1  0  0  0
  6 33  1  0  0  0
  6 34  1  0  0  0
  7  8  1  0  0  0
  7 26  2  0  0  0
  8  9  2  0  0  0
  8 35  1  0  0  0
  9 10  1  0  0  0
  9 36  1  0  0  0
 10 11  2  0  0  0
 10 25  1  0  0  0
 11 12  1  0  0  0
 12 13  2  0  0  0
 13 14  1  0  0  0
 13 25  1  0  0  0
 14 15  1  0  0  0
 14 37  1  0  0  0
 14 38  1  0  0  0
 15 16  2  0  0  0
 15 24  1  0  0  0
 16 17  1  0  0  0
 16 39  1  0  0  0
 17 18  2  0  0  0
 17 40  1  0  0  0
 18 19  1  0  0  0
 18 23  1  0  0  0
 19 20  2  0  0  0
 20 21  1  0  0  0
 20 41  1  0  0  0
 21 22  2  0  0  0
 21 42  1  0  0  0
 22 23  1  0  0  0
 22 43  1  0  0  0
 23 24  2  0  0  0
 24 44  1  0  0  0
 25 26  1  0  0  0
M  END
> <s_m_entry_id>
10633

> <s_m_entry_name>
dock_pv.702

> <s_m_Source_Path>
/home/csk/Desktop/cluster/DUD-E-result/met

> <s_m_Source_File>
dock_pv.maegz

> <i_m_Source_File_Index>
702

> <chembl_id>
CHEMBL3651387

> <chembl_pref_name>
None

> <i_lp_mmshare_version>
53161

> <i_f3d_flags>
0

> <r_lp_tautomer_probability>
1

> <s_lp_Force_Field>
OPLS_2005

> <r_lp_Energy>
22.483629

> <b_lp_Chiralities_Consistent>
1

> <s_lp_Variant>
CHEMBL3717_lig2617-1

> <s_i_glide_gridfile>
glide-grid_3lq8

> <i_i_glide_lignum>
2972

> <i_i_glide_rotatable_bonds>
5

> <r_i_docking_score>
-6.81377706706545

> <r_i_glide_ligand_efficiency>
-0.262068348733287

> <r_i_glide_ligand_efficiency_sa>
-0.776376451933204

> <r_i_glide_ligand_efficiency_ln>
-1.60019318637418

> <r_i_glide_gscore>
-6.81377706706545

> <r_i_glide_lipo>
-2.98280128248147

> <r_i_glide_hbond>
0

> <r_i_glide_metal>
0

> <r_i_glide_rewards>
-2.18798326740057

> <r_i_glide_evdw>
-39.1809730529785

> <r_i_glide_ecoul>
-2.09269070625305

> <r_i_glide_erotb>
0.633804882517952

> <r_i_glide_esite>
-0.00384514111447828

> <r_i_glide_emodel>
-55.0717967511803

> <r_i_glide_energy>
-41.2736637592316

> <r_i_glide_einternal>
3.36402988433838

> <i_i_glide_confnum>
7

> <i_i_glide_posenum>
1

> <r_i_glide_eff_state_penalty>
0

> <s_user_duplicate_titles>
CHEMBL3717_lig2617

> <s_m_subgroup_title>
dock_pv

> <s_m_subgroupid>
dock_pv

> <b_m_subgroup_collapsed>
1

$$$$
CHEMBL3717_lig2609
                    3D
 Schrodinger Suite 2021-1.
 49 53  0  0  1  0            999 V2000
   -5.5938    0.6377   29.4474 C   0  0  0  0  0  0
   -4.3136    0.9370   30.2456 C   0  0  0  0  0  0
   -3.5815    0.0248   30.7731 N   0  0  0  0  0  0
   -4.0420   -1.2843   30.4806 O   0  0  0  0  0  0
   -3.2330   -2.3067   31.0824 C   0  0  2  0  0  0
   -3.1484   -2.2333   32.6080 C   0  0  0  0  0  0
   -1.7032   -1.8109   32.8680 C   0  0  0  0  0  0
   -0.9412   -2.4431   31.8061 N   0  0  1  0  0  0
   -1.7664   -2.3108   30.6084 C   0  0  0  0  0  0
   -3.9895    2.3830   30.3960 C   0  0  0  0  0  0
   -4.9345    3.4147   30.2080 C   0  0  0  0  0  0
   -4.6100    4.7402   30.2081 N   0  0  0  0  0  0
   -3.3177    5.0113   30.4114 C   0  0  0  0  0  0
   -2.6734    6.2123   30.4048 N   0  0  0  0  0  0
   -1.3428    5.9570   30.6827 N   0  0  0  0  0  0
   -1.1897    4.6322   30.9038 N   0  0  0  0  0  0
    0.0525    4.0967   31.4433 C   0  0  0  0  0  0
    1.2787    4.0495   30.5572 C   0  0  0  0  0  0
    1.1977    3.7265   29.2035 C   0  0  0  0  0  0
    2.3472    3.6705   28.4207 C   0  0  0  0  0  0
    3.6066    3.9569   28.9982 C   0  0  0  0  0  0
    4.7060    3.9701   28.2079 N   0  0  0  0  0  0
    5.8930    4.3570   28.7392 C   0  0  0  0  0  0
    6.0781    4.6099   30.0903 C   0  0  0  0  0  0
    4.9746    4.5298   30.9283 C   0  0  0  0  0  0
    3.6964    4.2528   30.3867 C   0  0  0  0  0  0
    2.5183    4.2835   31.1550 C   0  0  0  0  0  0
   -2.3860    3.9825   30.6702 C   0  0  0  0  0  0
   -2.6840    2.6789   30.6927 N   0  0  0  0  0  0
   -5.7123    1.3200   28.6077 H   0  0  0  0  0  0
   -5.6246   -0.3701   29.0330 H   0  0  0  0  0  0
   -6.4698    0.7357   30.0886 H   0  0  0  0  0  0
   -3.6946   -3.2427   30.7620 H   0  0  0  0  0  0
   -3.3886   -3.1854   33.0826 H   0  0  0  0  0  0
   -3.8325   -1.4850   33.0080 H   0  0  0  0  0  0
   -1.3452   -2.1746   33.8323 H   0  0  0  0  0  0
   -1.5910   -0.7254   32.8437 H   0  0  0  0  0  0
   -0.0201   -2.0332   31.7024 H   0  0  0  0  0  0
   -1.5191   -1.3658   30.1287 H   0  0  0  0  0  0
   -1.5709   -3.1038   29.8854 H   0  0  0  0  0  0
   -5.9754    3.2064   30.0108 H   0  0  0  0  0  0
    0.3061    4.7159   32.3018 H   0  0  0  0  0  0
   -0.1422    3.0887   31.8079 H   0  0  0  0  0  0
    0.2414    3.5084   28.7516 H   0  0  0  0  0  0
    2.2809    3.4304   27.3690 H   0  0  0  0  0  0
    6.7316    4.3942   28.0589 H   0  0  0  0  0  0
    7.0532    4.8767   30.4713 H   0  0  0  0  0  0
    5.0768    4.7570   31.9769 H   0  0  0  0  0  0
    2.5918    4.5117   32.2087 H   0  0  0  0  0  0
  1  2  1  0  0  0
  1 30  1  0  0  0
  1 31  1  0  0  0
  1 32  1  0  0  0
  2  3  2  0  0  0
  2 10  1  0  0  0
  3  4  1  0  0  0
  4  5  1  0  0  0
  5  6  1  0  0  0
  5  9  1  0  0  0
  5 33  1  0  0  0
  6  7  1  0  0  0
  6 34  1  0  0  0
  6 35  1  0  0  0
  7  8  1  0  0  0
  7 36  1  0  0  0
  7 37  1  0  0  0
  8  9  1  0  0  0
  8 38  1  0  0  0
  9 39  1  0  0  0
  9 40  1  0  0  0
 10 11  2  0  0  0
 10 29  1  0  0  0
 11 12  1  0  0  0
 11 41  1  0  0  0
 12 13  2  0  0  0
 13 14  1  0  0  0
 13 28  1  0  0  0
 14 15  2  0  0  0
 15 16  1  0  0  0
 16 17  1  0  0  0
 16 28  1  0  0  0
 17 18  1  0  0  0
 17 42  1  0  0  0
 17 43  1  0  0  0
 18 19  2  0  0  0
 18 27  1  0  0  0
 19 20  1  0  0  0
 19 44  1  0  0  0
 20 21  2  0  0  0
 20 45  1  0  0  0
 21 22  1  0  0  0
 21 26  1  0  0  0
 22 23  2  0  0  0
 23 24  1  0  0  0
 23 46  1  0  0  0
 24 25  2  0  0  0
 24 47  1  0  0  0
 25 26  1  0  0  0
 25 48  1  0  0  0
 26 27  2  0  0  0
 27 49  1  0  0  0
 28 29  2  0  0  0
M  END
> <s_m_entry_id>
10634

> <s_m_entry_name>
dock_pv.703

> <s_m_Source_Path>
/home/csk/Desktop/cluster/DUD-E-result/met

> <s_m_Source_File>
dock_pv.maegz

> <i_m_Source_File_Index>
703

> <chembl_id>
CHEMBL3648255

> <chembl_pref_name>
None

> <i_lp_mmshare_version>
53161

> <i_f3d_flags>
0

> <r_lp_tautomer_probability>
1

> <s_lp_Force_Field>
OPLS_2005

> <r_lp_Energy>
47.183082

> <b_lp_Chiralities_Consistent>
1

> <s_lp_Variant>
CHEMBL3717_lig2609-1

> <s_i_glide_gridfile>
glide-grid_3lq8

> <i_i_glide_lignum>
2961

> <i_i_glide_rotatable_bonds>
5

> <r_i_docking_score>
-6.81287485755226

> <r_i_glide_ligand_efficiency>
-0.23492671922594

> <r_i_glide_ligand_efficiency_sa>
-0.721769311470894

> <r_i_glide_ligand_efficiency_ln>
-1.55997558277919

> <r_i_glide_gscore>
-6.81287485755226

> <r_i_glide_lipo>
-3.09797601508529

> <r_i_glide_hbond>
-0.0811915639599545

> <r_i_glide_metal>
0

> <r_i_glide_rewards>
-1.54548896312241

> <r_i_glide_evdw>
-44.8653373718262

> <r_i_glide_ecoul>
-2.40897917747498

> <r_i_glide_erotb>
0.516558378699883

> <r_i_glide_esite>
-0.000162948871935718

> <r_i_glide_emodel>
-59.4901978918002

> <r_i_glide_energy>
-47.2743165493011

> <r_i_glide_einternal>
8.93660259246826

> <i_i_glide_confnum>
8

> <i_i_glide_posenum>
222

> <r_i_glide_eff_state_penalty>
0

> <s_user_duplicate_titles>
CHEMBL3717_lig2609

> <s_m_subgroup_title>
dock_pv

> <s_m_subgroupid>
dock_pv

> <b_m_subgroup_collapsed>
1

$$$$
CHEMBL3717_lig1226
                    3D
 Schrodinger Suite 2021-1.
 47 51  0  0  1  0            999 V2000
   -5.9219    5.1576   30.6084 N   0  0  0  0  0  0
   -4.6572    5.6469   30.6294 C   0  0  0  0  0  0
   -3.5246    4.8322   30.6078 C   0  0  0  0  0  0
   -3.7267    3.4519   30.5565 C   0  0  0  0  0  0
   -5.0182    2.9149   30.4838 C   0  0  0  0  0  0
   -6.0952    3.8180   30.5257 C   0  0  0  0  0  0
   -2.1416    5.3767   30.6111 C   0  0  0  0  0  0
   -0.9674    4.7252   30.9647 C   0  0  0  0  0  0
    0.0568    5.6080   30.7379 N   0  0  0  0  0  0
   -0.3910    6.7564   30.2079 N   0  0  0  0  0  0
   -1.6956    6.6425   30.2079 C   0  0  0  0  0  0
    1.5038    5.3773   30.7658 C   0  0  0  0  0  0
    2.0189    4.4010   31.8476 C   0  0  0  0  0  0
    2.0155    2.9254   31.4082 C   0  0  0  0  0  0
    2.6211    2.7570   30.0887 N   0  0  2  0  0  0
    1.9338    3.5205   29.0526 C   0  0  0  0  0  0
    2.0460    5.0133   29.3754 C   0  0  0  0  0  0
   -5.1342    1.4319   30.3410 C   0  0  0  0  0  0
   -4.0233    0.7688   29.8940 O   0  0  0  0  0  0
   -6.1923    0.6761   30.5646 N   0  0  0  0  0  0
   -7.4180    3.3953   30.4554 N   0  0  0  0  0  0
   -5.7640   -0.5799   30.2364 C   0  0  0  0  0  0
   -4.4240   -0.5223   29.8237 C   0  0  0  0  0  0
   -3.6925   -1.6342   29.4080 C   0  0  0  0  0  0
   -4.3869   -2.8442   29.3876 C   0  0  0  0  0  0
   -5.7201   -2.9398   29.8074 C   0  0  0  0  0  0
   -6.4280   -1.8141   30.2446 C   0  0  0  0  0  0
   -6.5177   -4.4688   29.7489 Cl  0  0  0  0  0  0
   -4.5683    6.7221   30.6636 H   0  0  0  0  0  0
   -2.8691    2.7950   30.5355 H   0  0  0  0  0  0
   -0.7778    3.7239   31.3143 H   0  0  0  0  0  0
   -2.3097    7.4503   29.8480 H   0  0  0  0  0  0
    1.8917    6.3665   31.0063 H   0  0  0  0  0  0
    1.4577    4.5325   32.7731 H   0  0  0  0  0  0
    3.0337    4.6755   32.1418 H   0  0  0  0  0  0
    1.0084    2.5119   31.4066 H   0  0  0  0  0  0
    2.5925    2.3318   32.1186 H   0  0  0  0  0  0
    2.5713    1.7785   29.8352 H   0  0  0  0  0  0
    0.8885    3.2088   29.0007 H   0  0  0  0  0  0
    2.3878    3.3027   28.0846 H   0  0  0  0  0  0
    3.0835    5.3345   29.2776 H   0  0  0  0  0  0
    1.5214    5.5860   28.6096 H   0  0  0  0  0  0
   -7.6080    2.4028   30.4084 H   0  0  0  0  0  0
   -8.1532    4.0850   30.4373 H   0  0  0  0  0  0
   -2.6698   -1.5550   29.0719 H   0  0  0  0  0  0
   -3.8847   -3.7247   29.0104 H   0  0  0  0  0  0
   -7.4585   -1.8908   30.5556 H   0  0  0  0  0  0
  1  2  2  0  0  0
  1  6  1  0  0  0
  2  3  1  0  0  0
  2 29  1  0  0  0
  3  4  2  0  0  0
  3  7  1  0  0  0
  4  5  1  0  0  0
  4 30  1  0  0  0
  5 18  1  0  0  0
  5  6  2  0  0  0
  6 21  1  0  0  0
  7 11  1  0  0  0
  7  8  2  0  0  0
  8  9  1  0  0  0
  8 31  1  0  0  0
  9 12  1  0  0  0
  9 10  1  0  0  0
 10 11  2  0  0  0
 11 32  1  0  0  0
 12 17  1  0  0  0
 12 13  1  0  0  0
 12 33  1  0  0  0
 13 14  1  0  0  0
 13 34  1  0  0  0
 13 35  1  0  0  0
 14 15  1  0  0  0
 14 36  1  0  0  0
 14 37  1  0  0  0
 15 16  1  0  0  0
 15 38  1  0  0  0
 16 17  1  0  0  0
 16 39  1  0  0  0
 16 40  1  0  0  0
 17 41  1  0  0  0
 17 42  1  0  0  0
 18 19  1  0  0  0
 18 20  2  0  0  0
 19 23  1  0  0  0
 20 22  1  0  0  0
 21 43  1  0  0  0
 21 44  1  0  0  0
 22 23  2  0  0  0
 22 27  1  0  0  0
 23 24  1  0  0  0
 24 25  2  0  0  0
 24 45  1  0  0  0
 25 26  1  0  0  0
 25 46  1  0  0  0
 26 27  2  0  0  0
 26 28  1  0  0  0
 27 47  1  0  0  0
M  END
> <s_m_entry_id>
10635

> <s_m_entry_name>
dock_pv.704

> <s_m_Source_Path>
/home/csk/Desktop/cluster/DUD-E-result/met

> <s_m_Source_File>
dock_pv.maegz

> <i_m_Source_File_Index>
704

> <chembl_id>
CHEMBL2032149

> <chembl_pref_name>
None

> <i_lp_mmshare_version>
53161

> <i_f3d_flags>
0

> <r_lp_tautomer_probability>
0.999999772200052

> <s_lp_Force_Field>
OPLS_2005

> <r_lp_Energy>
29.014549

> <b_lp_Chiralities_Consistent>
1

> <s_lp_Variant>
CHEMBL3717_lig1226-1

> <s_i_glide_gridfile>
glide-grid_3lq8

> <i_i_glide_lignum>
1404

> <i_i_glide_rotatable_bonds>
3

> <r_i_docking_score>
-6.810131857918

> <r_i_glide_ligand_efficiency>
-0.243218994925643

> <r_i_glide_ligand_efficiency_sa>
-0.73855611692155

> <r_i_glide_ligand_efficiency_ln>
-1.57197838696737

> <r_i_glide_gscore>
-6.810131857918

> <r_i_glide_lipo>
-3.46026090978196

> <r_i_glide_hbond>
0

> <r_i_glide_metal>
0

> <r_i_glide_rewards>
-1.48775192861485

> <r_i_glide_evdw>
-45.276294708252

> <r_i_glide_ecoul>
0.170267835259438

> <r_i_glide_erotb>
0.376155540602491

> <r_i_glide_esite>
0

> <r_i_glide_emodel>
-56.4757566575816

> <r_i_glide_energy>
-45.1060268729925

> <r_i_glide_einternal>
6.16372680664062

> <i_i_glide_confnum>
1

> <i_i_glide_posenum>
7

> <r_i_glide_eff_state_penalty>
0

> <s_user_duplicate_titles>
CHEMBL3717_lig1226

> <s_m_subgroup_title>
dock_pv

> <s_m_subgroupid>
dock_pv

> <b_m_subgroup_collapsed>
1

$$$$
CHEMBL3717_lig4175
                    3D
 Schrodinger Suite 2021-1.
 43 46  0  0  1  0            999 V2000
   -6.2143   -0.7099   30.5367 S   0  0  0  0  0  0
   -3.1657    6.7804   30.6084 F   0  0  0  0  0  0
   -7.5659    4.3770   30.6446 O   0  0  0  0  0  0
   -9.2579    1.9073   29.8139 O   0  0  0  0  0  0
   -8.6950    0.8668   31.7722 O   0  0  0  0  0  0
   -4.6942    1.4229   30.5388 N   0  0  0  0  0  0
   -1.1247    4.7507   30.6081 N   0  0  0  0  0  0
    1.6040    4.7569   32.2082 N   0  0  0  0  0  0
   -4.2724    2.7737   30.5824 C   0  0  0  0  0  0
   -6.0437    1.0823   30.5780 C   0  0  0  0  0  0
   -5.2550    3.7871   30.5920 C   0  0  0  0  0  0
   -7.0335    2.0206   30.6141 C   0  0  0  0  0  0
   -6.7284    3.4721   30.6081 C   0  0  0  0  0  0
   -3.7943    0.2658   30.6470 C   0  0  2  0  0  0
   -2.9189    3.1251   30.6080 C   0  0  0  0  0  0
   -2.5026    4.4630   30.6082 C   0  0  0  0  0  0
   -4.8370    5.1269   30.6042 C   0  0  0  0  0  0
   -3.4878    5.4657   30.6084 C   0  0  0  0  0  0
   -8.4165    1.5958   30.6539 C   0  0  0  0  0  0
   -4.5159   -0.9111   30.0092 C   0  0  0  0  0  0
   -3.3314   -0.0431   32.0867 C   0  0  0  0  0  0
   -0.0347    3.7739   30.6674 C   0  0  0  0  0  0
   -0.5007    6.0240   30.2494 C   0  0  0  0  0  0
    1.2962    4.5082   30.8114 C   0  0  1  0  0  0
    0.9942    5.7834   30.0443 C   0  0  0  0  0  0
   -7.9048    0.7344   32.2993 H   0  0  0  0  0  0
    1.6724    3.8866   32.7155 H   0  0  0  0  0  0
    2.4972    5.2190   32.2833 H   0  0  0  0  0  0
   -2.8973    0.4302   30.0500 H   0  0  0  0  0  0
   -2.1750    2.3465   30.6094 H   0  0  0  0  0  0
   -5.5619    5.9314   30.6024 H   0  0  0  0  0  0
   -4.1458   -1.8848   30.3344 H   0  0  0  0  0  0
   -4.4794   -0.8694   28.9197 H   0  0  0  0  0  0
   -2.7278   -0.9499   32.1209 H   0  0  0  0  0  0
   -2.7186    0.7596   32.4899 H   0  0  0  0  0  0
   -4.1778   -0.1810   32.7605 H   0  0  0  0  0  0
   -0.2109    3.1142   31.5171 H   0  0  0  0  0  0
   -0.0520    3.1576   29.7671 H   0  0  0  0  0  0
   -0.9150    6.3687   29.3034 H   0  0  0  0  0  0
   -0.6689    6.7851   31.0080 H   0  0  0  0  0  0
    2.0658    3.9154   30.3130 H   0  0  0  0  0  0
    1.2484    5.6711   28.9896 H   0  0  0  0  0  0
    1.5703    6.6328   30.4088 H   0  0  0  0  0  0
  1 10  1  0  0  0
  1 20  1  0  0  0
  2 18  1  0  0  0
  3 13  2  0  0  0
  4 19  2  0  0  0
  5 19  1  0  0  0
  5 26  1  0  0  0
  6  9  1  0  0  0
  6 10  1  0  0  0
  6 14  1  0  0  0
  7 16  1  0  0  0
  7 22  1  0  0  0
  7 23  1  0  0  0
  8 24  1  0  0  0
  8 27  1  0  0  0
  8 28  1  0  0  0
  9 11  1  0  0  0
  9 15  2  0  0  0
 10 12  2  0  0  0
 11 13  1  0  0  0
 11 17  2  0  0  0
 12 13  1  0  0  0
 12 19  1  0  0  0
 14 20  1  0  0  0
 14 21  1  0  0  0
 14 29  1  0  0  0
 15 16  1  0  0  0
 15 30  1  0  0  0
 16 18  2  0  0  0
 17 18  1  0  0  0
 17 31  1  0  0  0
 20 32  1  0  0  0
 20 33  1  0  0  0
 21 34  1  0  0  0
 21 35  1  0  0  0
 21 36  1  0  0  0
 22 24  1  0  0  0
 22 37  1  0  0  0
 22 38  1  0  0  0
 23 25  1  0  0  0
 23 39  1  0  0  0
 23 40  1  0  0  0
 24 25  1  0  0  0
 24 41  1  0  0  0
 25 42  1  0  0  0
 25 43  1  0  0  0
M  END
> <s_m_entry_id>
10636

> <s_m_entry_name>
dock_pv.705

> <s_m_Source_Path>
/home/csk/Desktop/cluster/DUD-E-result/met

> <s_m_Source_File>
dock_pv.maegz

> <i_m_Source_File_Index>
705

> <chembl_id>
CHEMBL1989265

> <chembl_pref_name>
None

> <i_lp_mmshare_version>
53161

> <i_f3d_flags>
0

> <r_lp_tautomer_probability>
1

> <s_lp_Force_Field>
OPLS_2005

> <r_lp_Energy>
52.444186

> <b_lp_Chiralities_Consistent>
1

> <s_lp_Variant>
CHEMBL3717_lig4175-3

> <s_i_glide_gridfile>
glide-grid_3lq8

> <i_i_glide_lignum>
5350

> <i_i_glide_rotatable_bonds>
3

> <r_i_docking_score>
-6.80977681423163

> <r_i_glide_ligand_efficiency>
-0.272391072569265

> <r_i_glide_ligand_efficiency_sa>
-0.796476327068774

> <r_i_glide_ligand_efficiency_ln>
-1.61412117751638

> <r_i_glide_gscore>
-6.80977681423163

> <r_i_glide_lipo>
-3.08996270901971

> <r_i_glide_hbond>
0

> <r_i_glide_metal>
0

> <r_i_glide_rewards>
-1.87840781612348

> <r_i_glide_evdw>
-37.4487152099609

> <r_i_glide_ecoul>
-1.73289608955383

> <r_i_glide_erotb>
0.290963884842675

> <r_i_glide_esite>
0

> <r_i_glide_emodel>
-54.5931032109583

> <r_i_glide_energy>
-39.1816112995148

> <r_i_glide_einternal>
0.0266892127692699

> <i_i_glide_confnum>
22

> <i_i_glide_posenum>
326

> <r_i_glide_eff_state_penalty>
0

> <s_user_duplicate_titles>
CHEMBL3717_lig4175

> <s_m_subgroup_title>
dock_pv

> <s_m_subgroupid>
dock_pv

> <b_m_subgroup_collapsed>
1

$$$$
CHEMBL3717_lig2571
                    3D
 Schrodinger Suite 2021-1.
 43 46  0  0  1  0            999 V2000
   -5.9427    1.5693   30.4198 C   0  0  0  0  0  0
   -4.4116    1.6228   30.6083 C   0  0  0  0  0  0
   -3.6588    0.5889   30.7471 N   0  0  0  0  0  0
   -4.2152   -0.6290   30.5620 N   0  0  0  0  0  0
   -3.5442   -1.7769   30.7544 C   0  0  0  0  0  0
   -2.3881   -1.8770   31.1624 O   0  0  0  0  0  0
   -4.2830   -2.8430   30.4581 N   0  0  0  0  0  0
   -3.8244    2.9947   30.6080 C   0  0  0  0  0  0
   -4.5588    4.1505   30.2763 C   0  0  0  0  0  0
   -4.0125    5.3944   30.2082 N   0  0  0  0  0  0
   -2.6989    5.4741   30.4411 C   0  0  0  0  0  0
   -1.8879    6.5498   30.3000 N   0  0  0  0  0  0
   -0.6936    6.0827   30.6068 C   0  0  0  0  0  0
   -0.6725    4.7334   30.9740 C   0  0  0  0  0  0
    0.4484    3.8049   31.4200 C   0  0  0  0  0  0
    1.7062    3.9329   30.5805 C   0  0  0  0  0  0
    1.6357    3.7829   29.1951 C   0  0  0  0  0  0
    2.7730    3.9128   28.4069 C   0  0  0  0  0  0
    4.0205    4.1976   29.0076 C   0  0  0  0  0  0
    5.1082    4.3570   28.2086 N   0  0  0  0  0  0
    6.3057    4.5881   28.7935 C   0  0  0  0  0  0
    6.4863    4.7135   30.1661 C   0  0  0  0  0  0
    5.3786    4.5958   30.9924 C   0  0  0  0  0  0
    4.1067    4.3222   30.4262 C   0  0  0  0  0  0
    2.9324    4.1841   31.2004 C   0  0  0  0  0  0
   -1.9773    4.3269   30.8149 N   0  0  0  0  0  0
   -2.4947    3.0902   30.9269 N   0  0  0  0  0  0
   -6.4510    2.2266   31.1255 H   0  0  0  0  0  0
   -6.2175    1.8604   29.4062 H   0  0  0  0  0  0
   -6.3744    0.5821   30.5753 H   0  0  0  0  0  0
   -5.1737   -0.6303   30.2544 H   0  0  0  0  0  0
   -3.8972   -3.7776   30.6083 H   0  0  0  0  0  0
   -5.1870   -2.7534   30.0228 H   0  0  0  0  0  0
   -5.6106    4.1160   30.0340 H   0  0  0  0  0  0
    0.1726    6.7294   30.5846 H   0  0  0  0  0  0
    0.7060    4.0008   32.4611 H   0  0  0  0  0  0
    0.1472    2.7575   31.3894 H   0  0  0  0  0  0
    0.6874    3.5682   28.7222 H   0  0  0  0  0  0
    2.7059    3.8043   27.3344 H   0  0  0  0  0  0
    7.1461    4.6856   28.1223 H   0  0  0  0  0  0
    7.4640    4.9294   30.5722 H   0  0  0  0  0  0
    5.4806    4.7570   32.0549 H   0  0  0  0  0  0
    2.9967    4.2904   32.2735 H   0  0  0  0  0  0
  1  2  1  0  0  0
  1 28  1  0  0  0
  1 29  1  0  0  0
  1 30  1  0  0  0
  2  3  2  0  0  0
  2  8  1  0  0  0
  3  4  1  0  0  0
  4  5  1  0  0  0
  4 31  1  0  0  0
  5  6  2  0  0  0
  5  7  1  0  0  0
  7 32  1  0  0  0
  7 33  1  0  0  0
  8  9  1  0  0  0
  8 27  2  0  0  0
  9 10  2  0  0  0
  9 34  1  0  0  0
 10 11  1  0  0  0
 11 12  2  0  0  0
 11 26  1  0  0  0
 12 13  1  0  0  0
 13 14  2  0  0  0
 13 35  1  0  0  0
 14 15  1  0  0  0
 14 26  1  0  0  0
 15 16  1  0  0  0
 15 36  1  0  0  0
 15 37  1  0  0  0
 16 17  2  0  0  0
 16 25  1  0  0  0
 17 18  1  0  0  0
 17 38  1  0  0  0
 18 19  2  0  0  0
 18 39  1  0  0  0
 19 20  1  0  0  0
 19 24  1  0  0  0
 20 21  2  0  0  0
 21 22  1  0  0  0
 21 40  1  0  0  0
 22 23  2  0  0  0
 22 41  1  0  0  0
 23 24  1  0  0  0
 23 42  1  0  0  0
 24 25  2  0  0  0
 25 43  1  0  0  0
 26 27  1  0  0  0
M  END
> <s_m_entry_id>
10637

> <s_m_entry_name>
dock_pv.706

> <s_m_Source_Path>
/home/csk/Desktop/cluster/DUD-E-result/met

> <s_m_Source_File>
dock_pv.maegz

> <i_m_Source_File_Index>
706

> <chembl_id>
CHEMBL3674556

> <chembl_pref_name>
None

> <i_lp_mmshare_version>
53161

> <i_f3d_flags>
0

> <r_lp_tautomer_probability>
1

> <s_lp_Force_Field>
OPLS_2005

> <r_lp_Energy>
22.288206

> <b_lp_Chiralities_Consistent>
1

> <s_lp_Variant>
CHEMBL3717_lig2571-1

> <s_i_glide_gridfile>
glide-grid_3lq8

> <i_i_glide_lignum>
2919

> <i_i_glide_rotatable_bonds>
5

> <r_i_docking_score>
-6.80952210474151

> <r_i_glide_ligand_efficiency>
-0.252204522397834

> <r_i_glide_ligand_efficiency_sa>
-0.756613566362276

> <r_i_glide_ligand_efficiency_ln>
-1.58514448223804

> <r_i_glide_gscore>
-6.80952210474151

> <r_i_glide_lipo>
-3.23829446058204

> <r_i_glide_hbond>
-0.16

> <r_i_glide_metal>
0

> <r_i_glide_rewards>
-1.39621659920182

> <r_i_glide_evdw>
-40.2733459472656

> <r_i_glide_ecoul>
-3.35305190086365

> <r_i_glide_erotb>
0.590696991349378

> <r_i_glide_esite>
-0.0890829538142002

> <r_i_glide_emodel>
-56.6909322252511

> <r_i_glide_energy>
-43.6263978481293

> <r_i_glide_einternal>
8.8588285446167

> <i_i_glide_confnum>
31

> <i_i_glide_posenum>
372

> <r_i_glide_eff_state_penalty>
0

> <s_user_duplicate_titles>
CHEMBL3717_lig2571

> <s_m_subgroup_title>
dock_pv

> <s_m_subgroupid>
dock_pv

> <b_m_subgroup_collapsed>
1

$$$$
CHEMBL3717_lig1576
                    3D
 Schrodinger Suite 2021-1.
 40 42  0  0  1  0            999 V2000
   -1.6762    4.3050   30.8609 C   0  0  0  0  0  0
   -2.2754    5.5567   31.0078 C   0  0  0  0  0  0
   -3.6124    5.7650   30.8982 N   0  0  0  0  0  0
   -4.4029    4.7022   30.6042 C   0  0  0  0  0  0
   -3.8900    3.4052   30.4245 C   0  0  0  0  0  0
   -2.5145    3.2116   30.6080 C   0  0  0  0  0  0
   -0.1903    4.1816   30.8349 C   0  0  0  0  0  0
   -5.7594    4.9787   30.4606 N   0  0  0  0  0  0
    0.7833    4.6966   31.7109 C   0  0  0  0  0  0
    2.0158    4.3900   31.3694 N   0  0  0  0  0  0
    1.8816    3.6840   30.2431 N   0  0  0  0  0  0
    0.5737    3.5570   29.8627 C   0  0  0  0  0  0
    3.0632    3.2124   29.5440 C   0  0  0  0  0  0
   -4.9032    2.0503   29.8512 S   0  0  0  0  0  0
   -4.8214    0.7503   31.1183 C   0  0  2  0  0  0
   -4.1400   -0.5365   30.6201 C   0  0  0  0  0  0
   -6.1354    0.5096   31.8839 C   0  0  0  0  0  0
   -4.7405   -1.3370   29.6275 C   0  0  0  0  0  0
   -4.0667   -2.4427   29.1106 C   0  0  0  0  0  0
   -2.8017   -2.7740   29.5687 C   0  0  0  0  0  0
   -2.2285   -2.0507   30.6082 C   0  0  0  0  0  0
   -2.8938   -0.9458   31.1504 C   0  0  0  0  0  0
   -2.1410   -0.1358   32.4921 Cl  0  0  0  0  0  0
   -6.3215   -1.0111   29.0039 Cl  0  0  0  0  0  0
   -1.0261   -2.4417   31.0943 F   0  0  0  0  0  0
   -1.6619    6.4305   31.1531 H   0  0  0  0  0  0
   -2.0909    2.2307   30.4633 H   0  0  0  0  0  0
   -6.3636    4.2310   30.1526 H   0  0  0  0  0  0
   -6.0341    5.9451   30.3507 H   0  0  0  0  0  0
    0.5960    5.2717   32.6040 H   0  0  0  0  0  0
    0.3065    3.0389   28.9531 H   0  0  0  0  0  0
    2.7787    2.4687   28.7978 H   0  0  0  0  0  0
    3.5493    4.0533   29.0487 H   0  0  0  0  0  0
    3.7548    2.7568   30.2537 H   0  0  0  0  0  0
   -4.1435    1.2111   31.8080 H   0  0  0  0  0  0
   -6.0222   -0.2965   32.6080 H   0  0  0  0  0  0
   -6.4476    1.4001   32.4286 H   0  0  0  0  0  0
   -6.9639    0.2471   31.2304 H   0  0  0  0  0  0
   -4.5162   -3.0365   28.3293 H   0  0  0  0  0  0
   -2.2952   -3.6346   29.1546 H   0  0  0  0  0  0
  1  2  2  0  0  0
  1  6  1  0  0  0
  1  7  1  0  0  0
  2  3  1  0  0  0
  2 26  1  0  0  0
  3  4  2  0  0  0
  4  5  1  0  0  0
  4  8  1  0  0  0
  5  6  2  0  0  0
  5 14  1  0  0  0
  6 27  1  0  0  0
  7  9  1  0  0  0
  7 12  2  0  0  0
  8 28  1  0  0  0
  8 29  1  0  0  0
  9 10  2  0  0  0
  9 30  1  0  0  0
 10 11  1  0  0  0
 11 12  1  0  0  0
 11 13  1  0  0  0
 12 31  1  0  0  0
 13 32  1  0  0  0
 13 33  1  0  0  0
 13 34  1  0  0  0
 14 15  1  0  0  0
 15 16  1  0  0  0
 15 17  1  0  0  0
 15 35  1  0  0  0
 16 18  2  0  0  0
 16 22  1  0  0  0
 17 36  1  0  0  0
 17 37  1  0  0  0
 17 38  1  0  0  0
 18 19  1  0  0  0
 18 24  1  0  0  0
 19 20  2  0  0  0
 19 39  1  0  0  0
 20 21  1  0  0  0
 20 40  1  0  0  0
 21 22  2  0  0  0
 21 25  1  0  0  0
 22 23  1  0  0  0
M  END
> <s_m_entry_id>
10638

> <s_m_entry_name>
dock_pv.707

> <s_m_Source_Path>
/home/csk/Desktop/cluster/DUD-E-result/met

> <s_m_Source_File>
dock_pv.maegz

> <i_m_Source_File_Index>
707

> <chembl_id>
CHEMBL2442128

> <chembl_pref_name>
None

> <i_lp_mmshare_version>
53161

> <i_f3d_flags>
0

> <r_lp_tautomer_probability>
0.999999772200052

> <s_lp_Force_Field>
OPLS_2005

> <r_lp_Energy>
12.016245

> <b_lp_Chiralities_Consistent>
1

> <s_lp_Variant>
CHEMBL3717_lig1576-1

> <s_i_glide_gridfile>
glide-grid_3lq8

> <i_i_glide_lignum>
1826

> <i_i_glide_rotatable_bonds>
4

> <r_i_docking_score>
-6.80905691079835

> <r_i_glide_ligand_efficiency>
-0.272362276431934

> <r_i_glide_ligand_efficiency_sa>
-0.796392126652516

> <r_i_glide_ligand_efficiency_ln>
-1.61395053882892

> <r_i_glide_gscore>
-6.80905691079835

> <r_i_glide_lipo>
-3.15531392867011

> <r_i_glide_hbond>
-0.0384840586906365

> <r_i_glide_metal>
0

> <r_i_glide_rewards>
-1.66796559212728

> <r_i_glide_evdw>
-37.6886367797852

> <r_i_glide_ecoul>
-3.72583532333374

> <r_i_glide_erotb>
0.496013806178993

> <r_i_glide_esite>
0

> <r_i_glide_emodel>
-54.3567994160072

> <r_i_glide_energy>
-41.4144721031189

> <r_i_glide_einternal>
5.07381105422974

> <i_i_glide_confnum>
12

> <i_i_glide_posenum>
57

> <r_i_glide_eff_state_penalty>
0

> <s_user_duplicate_titles>
CHEMBL3717_lig1576

> <s_m_subgroup_title>
dock_pv

> <s_m_subgroupid>
dock_pv

> <b_m_subgroup_collapsed>
1

$$$$
CHEMBL3717_lig3541
                    3D
 Schrodinger Suite 2021-1.
 28 30  0  0  1  0            999 V2000
   -3.9067    0.5239   30.7891 O   0  0  0  0  0  0
   -3.2507    3.4878   30.6079 N   0  0  0  0  0  0
   -4.0786    5.5567   30.6755 N   0  0  0  0  0  0
   -5.5984    0.0656   29.4076 N   0  0  0  0  0  0
    1.1060    6.1552   30.3342 N   0  0  0  0  0  0
   -4.6178    3.4241   30.5119 C   0  0  0  0  0  0
   -5.1731    4.7283   30.5927 C   0  0  0  0  0  0
   -2.9535    4.7630   30.6499 C   0  0  0  0  0  0
   -5.4520    2.2970   30.3433 C   0  0  0  0  0  0
   -1.5501    5.2757   30.6204 C   0  0  0  0  0  0
   -6.5471    4.9609   30.5557 C   0  0  0  0  0  0
   -6.8352    2.5508   30.3008 C   0  0  0  0  0  0
   -4.9301    0.8867   30.2167 C   0  0  0  0  0  0
   -7.3617    3.8387   30.4066 C   0  0  0  0  0  0
   -0.4740    4.4271   30.9229 C   0  0  0  0  0  0
   -1.2703    6.5836   30.2051 C   0  0  0  0  0  0
    0.8289    4.9034   30.7744 C   0  0  0  0  0  0
    0.0603    6.9717   30.0531 C   0  0  0  0  0  0
   -4.0551    6.5625   30.7245 H   0  0  0  0  0  0
   -6.4071    0.3816   28.8978 H   0  0  0  0  0  0
   -5.2371   -0.8625   29.2438 H   0  0  0  0  0  0
   -6.9602    5.9570   30.6045 H   0  0  0  0  0  0
   -7.5349    1.7335   30.1931 H   0  0  0  0  0  0
   -8.4338    3.9710   30.3598 H   0  0  0  0  0  0
   -0.6442    3.4084   31.2409 H   0  0  0  0  0  0
   -2.0587    7.2725   29.9447 H   0  0  0  0  0  0
    1.6768    4.2688   30.9875 H   0  0  0  0  0  0
    0.3041    7.9585   29.6937 H   0  0  0  0  0  0
  1 13  2  0  0  0
  2  6  1  0  0  0
  2  8  2  0  0  0
  3  7  1  0  0  0
  3  8  1  0  0  0
  3 19  1  0  0  0
  4 13  1  0  0  0
  4 20  1  0  0  0
  4 21  1  0  0  0
  5 17  2  0  0  0
  5 18  1  0  0  0
  6  7  2  0  0  0
  6  9  1  0  0  0
  7 11  1  0  0  0
  8 10  1  0  0  0
  9 12  2  0  0  0
  9 13  1  0  0  0
 10 15  2  0  0  0
 10 16  1  0  0  0
 11 14  2  0  0  0
 11 22  1  0  0  0
 12 14  1  0  0  0
 12 23  1  0  0  0
 14 24  1  0  0  0
 15 17  1  0  0  0
 15 25  1  0  0  0
 16 18  2  0  0  0
 16 26  1  0  0  0
 17 27  1  0  0  0
 18 28  1  0  0  0
M  END
> <s_m_entry_id>
10639

> <s_m_entry_name>
dock_pv.708

> <s_m_Source_Path>
/home/csk/Desktop/cluster/DUD-E-result/met

> <s_m_Source_File>
dock_pv.maegz

> <i_m_Source_File_Index>
708

> <chembl_id>
CHEMBL1990482

> <chembl_pref_name>
None

> <i_lp_mmshare_version>
53161

> <i_f3d_flags>
0

> <r_lp_tautomer_probability>
1

> <s_lp_Force_Field>
OPLS_2005

> <r_lp_Energy>
9.294117

> <b_lp_Chiralities_Consistent>
1

> <s_lp_Variant>
CHEMBL3717_lig3541-1

> <s_i_glide_gridfile>
glide-grid_3lq8

> <i_i_glide_lignum>
4378

> <i_i_glide_rotatable_bonds>
2

> <r_i_docking_score>
-6.80430997672728

> <r_i_glide_ligand_efficiency>
-0.378017220929293

> <r_i_glide_ligand_efficiency_sa>
-0.990685377658726

> <r_i_glide_ligand_efficiency_ln>
-1.74901279367885

> <r_i_glide_gscore>
-6.80430997672728

> <r_i_glide_lipo>
-2.62623838225552

> <r_i_glide_hbond>
0

> <r_i_glide_metal>
0

> <r_i_glide_rewards>
-2.76801311666867

> <r_i_glide_evdw>
-32.5373649597168

> <r_i_glide_ecoul>
-0.39532807469368

> <r_i_glide_erotb>
0.304026777291942

> <r_i_glide_esite>
-0.0279177959051457

> <r_i_glide_emodel>
-46.34509929903

> <r_i_glide_energy>
-32.9326930344105

> <r_i_glide_einternal>
0.475898951292038

> <i_i_glide_confnum>
2

> <i_i_glide_posenum>
122

> <r_i_glide_eff_state_penalty>
0

> <s_user_duplicate_titles>
CHEMBL3717_lig3541

> <s_m_subgroup_title>
dock_pv

> <s_m_subgroupid>
dock_pv

> <b_m_subgroup_collapsed>
1

$$$$
CHEMBL3717_lig323
                    3D
 Schrodinger Suite 2021-1.
 46 50  0  0  1  0            999 V2000
   -6.4835   -0.4841   31.0530 C   0  0  0  0  0  0
   -7.8265   -0.1761   31.2547 C   0  0  0  0  0  0
   -8.5272   -0.8109   32.2722 C   0  0  0  0  0  0
   -7.9761   -1.7342   33.0952 N   0  0  0  0  0  0
   -5.8718   -1.4764   31.8794 C   0  0  0  0  0  0
   -6.6672   -2.0659   32.9112 C   0  0  0  0  0  0
   -6.0898   -3.0204   33.7820 C   0  0  0  0  0  0
   -4.7474   -3.3979   33.6369 C   0  0  0  0  0  0
   -3.9920   -2.8427   32.6077 C   0  0  0  0  0  0
   -4.5290   -1.9063   31.7299 C   0  0  0  0  0  0
   -4.0934   -4.2856   34.4709 O   0  0  0  0  0  0
   -4.8159   -4.9187   35.5214 C   0  0  0  0  0  0
   -2.4941    4.8216   30.6637 C   0  0  0  0  0  0
   -3.2517    6.0052   30.6877 C   0  0  0  0  0  0
   -4.6454    5.9575   30.6150 C   0  0  0  0  0  0
   -3.0736    3.5872   30.6081 N   0  0  0  0  0  0
   -4.4148    3.5820   30.5273 N   0  0  0  0  0  0
   -5.2554    4.7004   30.5306 C   0  0  0  0  0  0
   -6.5436    4.2979   30.4419 N   0  0  0  0  0  0
   -6.5152    2.9126   30.3784 N   0  0  0  0  0  0
   -5.2616    2.4999   30.4339 C   0  0  0  0  0  0
   -4.7753    1.0610   30.4396 C   0  0  0  0  0  0
   -5.8177    0.1698   30.0405 O   0  0  0  0  0  0
   -0.9939    4.8321   30.6563 C   0  0  0  0  0  0
   -0.2833    5.9583   30.2097 C   0  0  0  0  0  0
    1.1067    5.9573   30.1583 C   0  0  0  0  0  0
    1.8246    4.8289   30.5472 C   0  0  0  0  0  0
    1.1468    3.7074   31.0073 C   0  0  0  0  0  0
   -0.2471    3.7078   31.0510 C   0  0  0  0  0  0
    3.1761    4.8153   30.4768 F   0  0  0  0  0  0
    1.8461    2.6210   31.4080 F   0  0  0  0  0  0
   -8.3103    0.5622   30.6317 H   0  0  0  0  0  0
   -9.5673   -0.5753   32.4498 H   0  0  0  0  0  0
   -6.7101   -3.4362   34.5616 H   0  0  0  0  0  0
   -2.9670   -3.1540   32.4784 H   0  0  0  0  0  0
   -3.9216   -1.5050   30.9335 H   0  0  0  0  0  0
   -4.1483   -5.5930   36.0562 H   0  0  0  0  0  0
   -5.1978   -4.1919   36.2408 H   0  0  0  0  0  0
   -5.6455   -5.5109   35.1336 H   0  0  0  0  0  0
   -2.7717    6.9684   30.7529 H   0  0  0  0  0  0
   -5.2463    6.8548   30.6079 H   0  0  0  0  0  0
   -3.9471    0.9203   29.7447 H   0  0  0  0  0  0
   -4.3786    0.8303   31.4302 H   0  0  0  0  0  0
   -0.7955    6.8471   29.8743 H   0  0  0  0  0  0
    1.6258    6.8357   29.8081 H   0  0  0  0  0  0
   -0.7455    2.8170   31.4052 H   0  0  0  0  0  0
  1  5  1  0  0  0
  1 23  1  0  0  0
  1  2  2  0  0  0
  2  3  1  0  0  0
  2 32  1  0  0  0
  3  4  2  0  0  0
  3 33  1  0  0  0
  4  6  1  0  0  0
  5 10  1  0  0  0
  5  6  2  0  0  0
  6  7  1  0  0  0
  7  8  2  0  0  0
  7 34  1  0  0  0
  8  9  1  0  0  0
  8 11  1  0  0  0
  9 10  2  0  0  0
  9 35  1  0  0  0
 10 36  1  0  0  0
 11 12  1  0  0  0
 12 37  1  0  0  0
 12 38  1  0  0  0
 12 39  1  0  0  0
 13 16  2  0  0  0
 13 14  1  0  0  0
 13 24  1  0  0  0
 14 15  2  0  0  0
 14 40  1  0  0  0
 15 18  1  0  0  0
 15 41  1  0  0  0
 16 17  1  0  0  0
 17 18  1  0  0  0
 17 21  1  0  0  0
 18 19  2  0  0  0
 19 20  1  0  0  0
 20 21  2  0  0  0
 21 22  1  0  0  0
 22 23  1  0  0  0
 22 42  1  0  0  0
 22 43  1  0  0  0
 24 25  2  0  0  0
 24 29  1  0  0  0
 25 26  1  0  0  0
 25 44  1  0  0  0
 26 27  2  0  0  0
 26 45  1  0  0  0
 27 28  1  0  0  0
 27 30  1  0  0  0
 28 29  2  0  0  0
 28 31  1  0  0  0
 29 46  1  0  0  0
M  END
> <s_m_entry_id>
10641

> <s_m_entry_name>
dock_pv.710

> <s_m_Source_Path>
/home/csk/Desktop/cluster/DUD-E-result/met

> <s_m_Source_File>
dock_pv.maegz

> <i_m_Source_File_Index>
710

> <chembl_id>
CHEMBL522196

> <chembl_pref_name>
None

> <i_lp_mmshare_version>
53161

> <i_f3d_flags>
0

> <r_lp_tautomer_probability>
1

> <s_lp_Force_Field>
OPLS_2005

> <r_lp_Energy>
25.92802

> <b_lp_Chiralities_Consistent>
1

> <s_lp_Variant>
CHEMBL3717_lig323-1

> <s_i_glide_gridfile>
glide-grid_3lq8

> <i_i_glide_lignum>
339

> <i_i_glide_rotatable_bonds>
5

> <r_i_docking_score>
-6.80041907088465

> <r_i_glide_ligand_efficiency>
-0.219368357125311

> <r_i_glide_ligand_efficiency_sa>
-0.689119512031529

> <r_i_glide_ligand_efficiency_ln>
-1.53370290830018

> <r_i_glide_gscore>
-6.80041907088465

> <r_i_glide_lipo>
-2.66993797901072

> <r_i_glide_hbond>
0

> <r_i_glide_metal>
0

> <r_i_glide_rewards>
-2.7203227233893

> <r_i_glide_evdw>
-40.2339744567871

> <r_i_glide_ecoul>
1.01086390018463

> <r_i_glide_erotb>
0.449910769327026

> <r_i_glide_esite>
0

> <r_i_glide_emodel>
-50.0804483299485

> <r_i_glide_energy>
-39.2231105566025

> <r_i_glide_einternal>
8.81100273132324

> <i_i_glide_confnum>
4

> <i_i_glide_posenum>
22

> <r_i_glide_eff_state_penalty>
0

> <s_user_duplicate_titles>
CHEMBL3717_lig323

> <s_m_subgroup_title>
dock_pv

> <s_m_subgroupid>
dock_pv

> <b_m_subgroup_collapsed>
1

$$$$
560401
                    3D
 Schrodinger Suite 2021-1.
 30 32  0  0  1  0            999 V2000
    5.5718    4.3570   29.1458 C   0  0  0  0  0  0
    5.4968    4.5221   30.5167 C   0  0  0  0  0  0
    4.2724    4.3570   31.1521 C   0  0  0  0  0  0
    3.0959    4.0961   30.4534 C   0  0  0  0  0  0
    3.1850    3.8128   29.0686 C   0  0  0  0  0  0
    4.4372    3.9570   28.4493 C   0  0  0  0  0  0
    2.0515    3.3388   28.2394 N   0  3  0  0  0  0
    0.9110    3.5557   28.6080 O   0  5  0  0  0  0
    2.3060    2.7570   27.1881 O   0  0  0  0  0  0
    1.5877    4.0990   31.4568 S   0  0  0  0  0  0
    1.9060    4.6429   32.7807 O   0  0  0  0  0  0
    0.9912    2.7700   31.3531 O   0  0  0  0  0  0
    0.4187    5.2977   30.7623 C   0  0  0  0  0  0
    0.7075    6.5316   30.2080 C   0  0  0  0  0  0
   -0.4530    7.2107   29.9276 N   0  0  0  0  0  0
   -1.5235    6.4190   30.2708 C   0  0  0  0  0  0
   -1.0084    5.1663   30.7136 C   0  0  0  0  0  0
   -1.9438    4.1609   31.0080 C   0  0  0  0  0  0
   -3.2978    4.4570   30.8298 C   0  0  0  0  0  0
   -3.6823    5.7480   30.4712 C   0  0  0  0  0  0
   -2.8137    6.7570   30.2080 N   0  0  0  0  0  0
   -0.4743    8.1576   29.5699 H   0  0  0  0  0  0
    6.5178    4.4623   28.6334 H   0  0  0  0  0  0
    6.3778    4.7873   31.0826 H   0  0  0  0  0  0
    4.2329    4.5198   32.2150 H   0  0  0  0  0  0
    4.5552    3.7170   27.4080 H   0  0  0  0  0  0
    1.6567    7.0119   30.0358 H   0  0  0  0  0  0
   -1.6219    3.1810   31.3303 H   0  0  0  0  0  0
   -4.0481    3.6999   31.0080 H   0  0  0  0  0  0
   -4.7307    5.9936   30.3678 H   0  0  0  0  0  0
  1  6  1  0  0  0
  1  2  2  0  0  0
  1 23  1  0  0  0
  2  3  1  0  0  0
  2 24  1  0  0  0
  3  4  2  0  0  0
  3 25  1  0  0  0
  4  5  1  0  0  0
  4 10  1  0  0  0
  5  6  2  0  0  0
  5  7  1  0  0  0
  6 26  1  0  0  0
  7  8  1  0  0  0
  7  9  2  0  0  0
 10 11  2  0  0  0
 10 12  2  0  0  0
 10 13  1  0  0  0
 13 17  1  0  0  0
 13 14  2  0  0  0
 14 15  1  0  0  0
 14 27  1  0  0  0
 15 22  1  0  0  0
 15 16  1  0  0  0
 16 21  1  0  0  0
 16 17  2  0  0  0
 17 18  1  0  0  0
 18 19  2  0  0  0
 18 28  1  0  0  0
 19 20  1  0  0  0
 19 29  1  0  0  0
 20 21  2  0  0  0
 20 30  1  0  0  0
M  CHG  2   7   1   8  -1
M  END
> <s_m_entry_id>
12493

> <s_m_entry_name>
ligand_docking-pose.10

> <s_m_Source_Path>
/home/csk/Desktop/cluster/DUD-E-result/met

> <s_m_Source_File>
ligand_docking-pose.sdf

> <i_m_Source_File_Index>
10

> <i_lp_mmshare_version>
53161

> <r_lp_tautomer_probability>
0.999998432528457

> <s_lp_Force_Field>
OPLS_2005

> <r_lp_Energy>
9.295366

> <b_lp_Chiralities_Consistent>
1

> <s_lp_Variant>
560401-1

> <s_i_glide_gridfile>
glide-grid_3lq8

> <i_i_glide_lignum>
86

> <i_i_glide_rotatable_bonds>
3

> <r_i_docking_score>
-8.13616171513153

> <r_i_glide_ligand_efficiency>
-0.38743627214912

> <r_i_glide_ligand_efficiency_sa>
-1.06890729695441

> <r_i_glide_ligand_efficiency_ln>
-2.0116495434035

> <r_i_glide_gscore>
-8.13616171513153

> <r_i_glide_lipo>
-3.07068691990921

> <r_i_glide_hbond>
-0.357575580539015

> <r_i_glide_metal>
0

> <r_i_glide_rewards>
-3.04857371801562

> <r_i_glide_evdw>
-34.1506690979004

> <r_i_glide_ecoul>
-1.54807555675507

> <r_i_glide_erotb>
0.280419291740597

> <r_i_glide_esite>
0

> <r_i_glide_emodel>
-47.1461155943727

> <r_i_glide_energy>
-35.6987446546555

> <r_i_glide_einternal>
2.71880793571472

> <i_i_glide_confnum>
4

> <i_i_glide_posenum>
331

> <r_i_glide_eff_state_penalty>
0

> <i_f3d_flags>
0

> <s_user_duplicate_titles>
560401

> <s_m_subgroup_title>
dock_pv

> <s_m_subgroupid>
dock_pv1

> <b_m_subgroup_collapsed>
0

$$$$
582866
                    3D
 Schrodinger Suite 2021-1.
 46 50  0  0  1  0            999 V2000
   -7.2286   -5.5478   34.6535 C   0  0  0  0  0  0
   -7.7336   -4.3757   34.0224 O   0  0  0  0  0  0
   -6.8453   -3.4935   33.4403 C   0  0  0  0  0  0
   -5.4535   -3.6542   33.4231 C   0  0  0  0  0  0
   -4.6435   -2.6781   32.7970 C   0  0  0  0  0  0
   -5.2745   -1.5471   32.1908 C   0  0  0  0  0  0
   -4.4416   -0.5662   31.5607 C   0  0  0  0  0  0
   -3.0554   -0.7710   31.5923 C   0  0  0  0  0  0
   -2.5329   -1.9028   32.2076 C   0  0  0  0  0  0
   -3.2947   -2.8430   32.8090 N   0  0  0  0  0  0
   -5.0100    0.5728   30.9550 N   0  0  0  0  0  0
   -4.3240    1.4276   29.9914 C   0  0  0  0  0  0
   -4.4151    2.8969   30.3516 C   0  0  0  0  0  0
   -5.5251    3.6091   30.3983 N   0  0  0  0  0  0
   -5.2088    4.9329   30.6620 N   0  0  0  0  0  0
   -3.8625    4.9906   30.7568 C   0  0  0  0  0  0
   -3.3243    3.7040   30.6064 N   0  0  0  0  0  0
   -2.0168    3.3740   30.6080 N   0  0  0  0  0  0
   -1.1603    4.4247   30.7471 C   0  0  0  0  0  0
   -1.5928    5.7403   30.9371 C   0  0  0  0  0  0
   -2.9584    6.0413   30.9595 C   0  0  0  0  0  0
    0.2803    4.1201   30.5446 C   0  0  0  0  0  0
    1.2491    4.4218   31.5037 C   0  0  0  0  0  0
    2.5903    4.1224   31.2602 C   0  0  0  0  0  0
    2.9960    3.5716   30.0488 C   0  0  0  0  0  0
    2.0463    3.2926   29.0764 C   0  0  0  0  0  0
    0.7057    3.5570   29.3389 C   0  0  0  0  0  0
    2.4200    2.7567   27.8933 F   0  0  0  0  0  0
    3.5061    4.3570   32.2081 F   0  0  0  0  0  0
   -6.6349   -1.4083   32.2080 N   0  0  0  0  0  0
   -7.3761   -2.3621   32.8232 C   0  0  0  0  0  0
   -8.0606   -6.1277   35.0538 H   0  0  0  0  0  0
   -6.6918   -6.1837   33.9478 H   0  0  0  0  0  0
   -6.5675   -5.3011   35.4853 H   0  0  0  0  0  0
   -4.9696   -4.5083   33.8715 H   0  0  0  0  0  0
   -2.3663   -0.0648   31.1630 H   0  0  0  0  0  0
   -1.4651   -2.0703   32.2337 H   0  0  0  0  0  0
   -5.9863    0.7580   31.1391 H   0  0  0  0  0  0
   -4.8082    1.2549   29.0293 H   0  0  0  0  0  0
   -3.2945    1.1269   29.8136 H   0  0  0  0  0  0
   -0.8659    6.5371   31.0084 H   0  0  0  0  0  0
   -3.3128    7.0530   31.0859 H   0  0  0  0  0  0
    0.9663    4.8602   32.4492 H   0  0  0  0  0  0
    4.0383    3.3550   29.8675 H   0  0  0  0  0  0
   -0.0335    3.2891   28.6078 H   0  0  0  0  0  0
   -8.4440   -2.2044   32.8145 H   0  0  0  0  0  0
  1  2  1  0  0  0
  1 32  1  0  0  0
  1 33  1  0  0  0
  1 34  1  0  0  0
  2  3  1  0  0  0
  3 31  1  0  0  0
  3  4  2  0  0  0
  4  5  1  0  0  0
  4 35  1  0  0  0
  5 10  2  0  0  0
  5  6  1  0  0  0
  6  7  2  0  0  0
  6 30  1  0  0  0
  7  8  1  0  0  0
  7 11  1  0  0  0
  8  9  2  0  0  0
  8 36  1  0  0  0
  9 10  1  0  0  0
  9 37  1  0  0  0
 11 12  1  0  0  0
 11 38  1  0  0  0
 12 13  1  0  0  0
 12 39  1  0  0  0
 12 40  1  0  0  0
 13 17  1  0  0  0
 13 14  2  0  0  0
 14 15  1  0  0  0
 15 16  2  0  0  0
 16 21  1  0  0  0
 16 17  1  0  0  0
 17 18  1  0  0  0
 18 19  2  0  0  0
 19 20  1  0  0  0
 19 22  1  0  0  0
 20 21  2  0  0  0
 20 41  1  0  0  0
 21 42  1  0  0  0
 22 27  1  0  0  0
 22 23  2  0  0  0
 23 24  1  0  0  0
 23 43  1  0  0  0
 24 25  2  0  0  0
 24 29  1  0  0  0
 25 26  1  0  0  0
 25 44  1  0  0  0
 26 27  2  0  0  0
 26 28  1  0  0  0
 27 45  1  0  0  0
 30 31  2  0  0  0
 31 46  1  0  0  0
M  END
> <s_m_entry_id>
12509

> <s_m_entry_name>
ligand_docking-pose.26

> <s_m_Source_Path>
/home/csk/Desktop/cluster/DUD-E-result/met

> <s_m_Source_File>
ligand_docking-pose.sdf

> <i_m_Source_File_Index>
26

> <i_lp_mmshare_version>
53161

> <r_lp_tautomer_probability>
1

> <s_lp_Force_Field>
OPLS_2005

> <r_lp_Energy>
31.303325

> <b_lp_Chiralities_Consistent>
1

> <s_lp_Variant>
582866-1

> <s_i_glide_gridfile>
glide-grid_3lq8

> <i_i_glide_lignum>
326

> <i_i_glide_rotatable_bonds>
5

> <r_i_docking_score>
-7.22957738586064

> <r_i_glide_ligand_efficiency>
-0.23321217373744

> <r_i_glide_ligand_efficiency_sa>
-0.732608209642345

> <r_i_glide_ligand_efficiency_ln>
-1.63049126045011

> <r_i_glide_gscore>
-7.22957738586064

> <r_i_glide_lipo>
-3.22191544242682

> <r_i_glide_hbond>
0

> <r_i_glide_metal>
0

> <r_i_glide_rewards>
-2.61022869257866

> <r_i_glide_evdw>
-40.703067779541

> <r_i_glide_ecoul>
1.25210511684418

> <r_i_glide_erotb>
0.449904370595267

> <r_i_glide_esite>
0

> <r_i_glide_emodel>
-54.4890355396279

> <r_i_glide_energy>
-39.4509626626968

> <r_i_glide_einternal>
4.93600273132324

> <i_i_glide_confnum>
25

> <i_i_glide_posenum>
217

> <r_i_glide_eff_state_penalty>
0

> <i_f3d_flags>
0

> <s_user_duplicate_titles>
582866

> <s_m_subgroup_title>
dock_pv

> <s_m_subgroupid>
dock_pv1

> <b_m_subgroup_collapsed>
0

$$$$
582878
                    3D
 Schrodinger Suite 2021-1.
 46 50  0  0  1  0            999 V2000
   -6.3865   -5.5324   35.1960 C   0  0  0  0  0  0
   -5.2371   -4.9172   34.6245 O   0  0  0  0  0  0
   -5.4046   -3.8051   33.8230 C   0  0  0  0  0  0
   -6.6353   -3.1978   33.5368 C   0  0  0  0  0  0
   -6.6749   -2.0427   32.7181 C   0  0  0  0  0  0
   -5.4434   -1.5218   32.2084 C   0  0  0  0  0  0
   -5.4909   -0.3408   31.3997 C   0  0  0  0  0  0
   -6.7480    0.2151   31.1318 C   0  0  0  0  0  0
   -7.8931   -0.3656   31.6669 C   0  0  0  0  0  0
   -7.8785   -1.4700   32.4471 N   0  0  0  0  0  0
   -4.3014    0.2144   30.8846 N   0  0  0  0  0  0
   -4.2658    1.2021   29.8114 C   0  0  0  0  0  0
   -4.4500    2.6421   30.2649 C   0  0  0  0  0  0
   -5.5930    3.3006   30.3060 N   0  0  0  0  0  0
   -5.3503    4.6316   30.6067 N   0  0  0  0  0  0
   -4.0094    4.7571   30.7091 C   0  0  0  0  0  0
   -3.4074    3.4976   30.5659 N   0  0  0  0  0  0
   -2.0859    3.2318   30.6080 N   0  0  0  0  0  0
   -1.2858    4.3261   30.7469 C   0  0  0  0  0  0
   -1.7838    5.6206   30.9231 C   0  0  0  0  0  0
   -3.1627    5.8533   30.9263 C   0  0  0  0  0  0
    0.1726    4.0815   30.6121 C   0  0  0  0  0  0
    1.0529    4.3873   31.6527 C   0  0  0  0  0  0
    2.4091    4.1082   31.5378 C   0  0  0  0  0  0
    2.9283    3.5664   30.3629 C   0  0  0  0  0  0
    2.0715    3.3006   29.2971 C   0  0  0  0  0  0
    0.7061    3.5570   29.4276 C   0  0  0  0  0  0
    2.5532    2.7782   28.1457 F   0  0  0  0  0  0
    4.2511    3.2967   30.2629 F   0  0  0  0  0  0
    3.2091    4.3569   32.5878 F   0  0  0  0  0  0
   -4.2528   -2.1353   32.4858 N   0  0  0  0  0  0
   -4.2603   -3.2430   33.2659 C   0  0  0  0  0  0
   -6.0765   -6.3939   35.7876 H   0  0  0  0  0  0
   -6.9172   -4.8490   35.8610 H   0  0  0  0  0  0
   -7.0722   -5.8909   34.4255 H   0  0  0  0  0  0
   -7.5659   -3.5810   33.9263 H   0  0  0  0  0  0
   -6.8579    1.0886   30.5121 H   0  0  0  0  0  0
   -8.8660    0.0598   31.4649 H   0  0  0  0  0  0
   -3.5042   -0.4047   30.9408 H   0  0  0  0  0  0
   -4.9925    0.9264   29.0451 H   0  0  0  0  0  0
   -3.2941    1.1095   29.3308 H   0  0  0  0  0  0
   -1.0990    6.4520   31.0080 H   0  0  0  0  0  0
   -3.5692    6.8457   31.0507 H   0  0  0  0  0  0
    0.6992    4.8121   32.5791 H   0  0  0  0  0  0
    0.0512    3.3072   28.6083 H   0  0  0  0  0  0
   -3.2948   -3.6803   33.4622 H   0  0  0  0  0  0
  1  2  1  0  0  0
  1 33  1  0  0  0
  1 34  1  0  0  0
  1 35  1  0  0  0
  2  3  1  0  0  0
  3 32  1  0  0  0
  3  4  2  0  0  0
  4  5  1  0  0  0
  4 36  1  0  0  0
  5 10  2  0  0  0
  5  6  1  0  0  0
  6  7  2  0  0  0
  6 31  1  0  0  0
  7  8  1  0  0  0
  7 11  1  0  0  0
  8  9  2  0  0  0
  8 37  1  0  0  0
  9 10  1  0  0  0
  9 38  1  0  0  0
 11 12  1  0  0  0
 11 39  1  0  0  0
 12 13  1  0  0  0
 12 40  1  0  0  0
 12 41  1  0  0  0
 13 17  1  0  0  0
 13 14  2  0  0  0
 14 15  1  0  0  0
 15 16  2  0  0  0
 16 21  1  0  0  0
 16 17  1  0  0  0
 17 18  1  0  0  0
 18 19  2  0  0  0
 19 20  1  0  0  0
 19 22  1  0  0  0
 20 21  2  0  0  0
 20 42  1  0  0  0
 21 43  1  0  0  0
 22 27  1  0  0  0
 22 23  2  0  0  0
 23 24  1  0  0  0
 23 44  1  0  0  0
 24 25  2  0  0  0
 24 30  1  0  0  0
 25 26  1  0  0  0
 25 29  1  0  0  0
 26 27  2  0  0  0
 26 28  1  0  0  0
 27 45  1  0  0  0
 31 32  2  0  0  0
 32 46  1  0  0  0
M  END
> <s_m_entry_id>
12520

> <s_m_entry_name>
ligand_docking-pose.37

> <s_m_Source_Path>
/home/csk/Desktop/cluster/DUD-E-result/met

> <s_m_Source_File>
ligand_docking-pose.sdf

> <i_m_Source_File_Index>
37

> <i_lp_mmshare_version>
53161

> <r_lp_tautomer_probability>
1

> <s_lp_Force_Field>
OPLS_2005

> <r_lp_Energy>
32.599847

> <b_lp_Chiralities_Consistent>
1

> <s_lp_Variant>
582878-1

> <s_i_glide_gridfile>
glide-grid_3lq8

> <i_i_glide_lignum>
325

> <i_i_glide_rotatable_bonds>
5

> <r_i_docking_score>
-6.80471606577477

> <r_i_glide_ligand_efficiency>
-0.212647377055462

> <r_i_glide_ligand_efficiency_sa>
-0.675113339292315

> <r_i_glide_ligand_efficiency_ln>
-1.52376141668133

> <r_i_glide_gscore>
-6.80471606577477

> <r_i_glide_lipo>
-2.87060782448279

> <r_i_glide_hbond>
0

> <r_i_glide_metal>
0

> <r_i_glide_rewards>
-2.62428010128239

> <r_i_glide_evdw>
-38.6534233093262

> <r_i_glide_ecoul>
1.3725790977478

> <r_i_glide_erotb>
0.416956160794547

> <r_i_glide_esite>
0

> <r_i_glide_emodel>
-48.487184017077

> <r_i_glide_energy>
-37.2808442115784

> <r_i_glide_einternal>
4.10354471206665

> <i_i_glide_confnum>
23

> <i_i_glide_posenum>
31

> <r_i_glide_eff_state_penalty>
0

> <i_f3d_flags>
0

> <s_user_duplicate_titles>
582878

> <s_m_subgroup_title>
dock_pv

> <s_m_subgroupid>
dock_pv1

> <b_m_subgroup_collapsed>
0

$$$$
