CHEMBL286_lig1954
                    3D
 Schrodinger Suite 2021-1.
 84 89  0  0  1  0            999 V2000
   -1.7884  -18.4427  -11.8274 C   0  0  0  0  0  0
   -0.2631  -18.2375  -11.7518 C   0  0  0  0  0  0
    0.1319  -16.8546  -12.0208 N   0  0  1  0  0  0
   -0.5410  -15.8707  -11.1663 C   0  0  0  0  0  0
   -2.0898  -15.9949  -11.1923 C   0  0  1  0  0  0
   -2.5472  -17.4600  -10.9101 C   0  0  1  0  0  0
   -4.0747  -17.6308  -10.9567 C   0  0  0  0  0  0
   -2.6576  -15.0651  -10.0787 C   0  0  0  0  0  0
   -3.4095  -13.9695  -10.3853 N   0  0  0  0  0  0
   -2.4247  -15.3778   -8.9070 O   0  0  0  0  0  0
   -3.4472  -13.3688  -11.7393 C   0  0  0  0  0  0
   -4.1026  -13.2536   -9.2878 C   0  0  0  0  0  0
   -3.3179  -12.1560   -8.5580 C   0  0  0  0  0  0
   -2.0007  -11.8405   -8.9205 C   0  0  0  0  0  0
   -1.2703  -10.8633   -8.2392 C   0  0  0  0  0  0
   -1.8845  -10.1802   -7.1814 C   0  0  0  0  0  0
   -3.1997  -10.4733   -6.8213 C   0  0  0  0  0  0
   -3.9145  -11.4577   -7.4977 C   0  0  0  0  0  0
   -5.5381  -11.7884   -6.9966 Cl  0  0  0  0  0  0
   -4.7926  -17.6812   -9.7581 C   0  0  0  0  0  0
   -6.1801  -17.7873   -9.7690 C   0  0  0  0  0  0
   -6.8726  -17.8705  -10.9856 C   0  0  0  0  0  0
   -6.1536  -17.7940  -12.1812 C   0  0  0  0  0  0
   -4.7659  -17.6701  -12.1712 C   0  0  0  0  0  0
   -8.2435  -18.0076  -11.0965 O   0  0  0  0  0  0
   -9.0429  -18.3804   -9.9678 C   0  0  0  0  0  0
   -9.9278  -17.2230   -9.5577 C   0  0  0  0  0  0
   -9.7470  -16.0583   -8.8409 C   0  0  0  0  0  0
  -10.9893  -15.4044   -8.8372 C   0  0  0  0  0  0
  -11.8696  -16.1290   -9.4957 N   0  0  0  0  0  0
  -11.2236  -17.2785   -9.9446 O   0  0  0  0  0  0
  -11.3540  -14.0350   -8.3152 C   0  0  0  0  0  0
  -12.6370  -13.7087   -7.8101 C   0  0  0  0  0  0
  -12.9371  -12.3912   -7.4385 C   0  0  0  0  0  0
  -11.9685  -11.3976   -7.5250 C   0  0  0  0  0  0
  -10.6929  -11.7124   -7.9804 C   0  0  0  0  0  0
  -10.3869  -13.0140   -8.3773 C   0  0  0  0  0  0
  -13.8689  -14.9098   -7.5859 Cl  0  0  0  0  0  0
  -14.1685  -12.0630   -6.9810 F   0  0  0  0  0  0
   -9.1344  -13.2630   -8.8227 F   0  0  0  0  0  0
   -4.7733  -12.9270  -12.3286 C   0  0  0  0  0  0
   -3.7321  -11.8976  -11.9471 C   0  0  0  0  0  0
    0.1589  -10.5860   -8.7110 C   0  0  0  0  0  0
    1.1736  -10.0075   -7.6933 C   0  0  0  0  0  0
    0.9266   -8.6422   -7.2314 N   0  0  0  0  0  0
    0.9315   -7.5471   -8.0047 C   0  0  0  0  0  0
    1.1159   -7.5692   -9.2209 O   0  0  0  0  0  0
    0.6786   -6.2269   -7.2878 C   0  0  0  0  0  0
   -1.9800  -19.4633  -11.4919 H   0  0  0  0  0  0
   -2.1081  -18.3935  -12.8670 H   0  0  0  0  0  0
    0.1138  -18.5301  -10.7693 H   0  0  0  0  0  0
    0.2296  -18.8774  -12.4837 H   0  0  0  0  0  0
    1.1328  -16.7742  -11.9056 H   0  0  0  0  0  0
   -0.2256  -14.8674  -11.4553 H   0  0  0  0  0  0
   -0.1637  -16.0573  -10.1586 H   0  0  0  0  0  0
   -2.4867  -15.7116  -12.1636 H   0  0  0  0  0  0
   -2.2476  -17.7435   -9.8964 H   0  0  0  0  0  0
   -2.6810  -13.7386  -12.4201 H   0  0  0  0  0  0
   -4.4178  -13.9728   -8.5298 H   0  0  0  0  0  0
   -5.0328  -12.8226   -9.6587 H   0  0  0  0  0  0
   -1.5313  -12.3632   -9.7416 H   0  0  0  0  0  0
   -1.3710   -9.4122   -6.6275 H   0  0  0  0  0  0
   -3.6709   -9.9370   -6.0140 H   0  0  0  0  0  0
   -4.2758  -17.6116   -8.8103 H   0  0  0  0  0  0
   -6.6936  -17.7839   -8.8209 H   0  0  0  0  0  0
   -6.6766  -17.8328  -13.1275 H   0  0  0  0  0  0
   -4.2372  -17.5908  -13.1106 H   0  0  0  0  0  0
   -9.6495  -19.2281  -10.2881 H   0  0  0  0  0  0
   -8.4907  -18.7704   -9.1152 H   0  0  0  0  0  0
   -8.8175  -15.7083   -8.4216 H   0  0  0  0  0  0
  -12.2086  -10.3847   -7.2327 H   0  0  0  0  0  0
   -9.9380  -10.9411   -8.0207 H   0  0  0  0  0  0
   -4.9603  -13.1290  -13.3824 H   0  0  0  0  0  0
   -5.6812  -13.0247  -11.7349 H   0  0  0  0  0  0
   -3.8808  -11.2633  -11.0772 H   0  0  0  0  0  0
   -3.1898  -11.3808  -12.7414 H   0  0  0  0  0  0
    0.1195   -9.9634   -9.6028 H   0  0  0  0  0  0
    0.5814  -11.5285   -9.0621 H   0  0  0  0  0  0
    2.2002  -10.1348   -8.0435 H   0  0  0  0  0  0
    1.1153  -10.6175   -6.7909 H   0  0  0  0  0  0
    0.7903   -8.5181   -6.2395 H   0  0  0  0  0  0
   -0.3941   -6.0484   -7.2209 H   0  0  0  0  0  0
    1.1463   -5.4052   -7.8301 H   0  0  0  0  0  0
    1.0865   -6.2420   -6.2786 H   0  0  0  0  0  0
  1  2  1  0  0  0
  1  6  1  0  0  0
  1 49  1  0  0  0
  1 50  1  0  0  0
  2  3  1  0  0  0
  2 51  1  0  0  0
  2 52  1  0  0  0
  3  4  1  0  0  0
  3 53  1  0  0  0
  4  5  1  0  0  0
  4 54  1  0  0  0
  4 55  1  0  0  0
  5  6  1  0  0  0
  5  8  1  0  0  0
  5 56  1  0  0  0
  6  7  1  0  0  0
  6 57  1  0  0  0
  7 24  1  0  0  0
  7 20  2  0  0  0
  8  9  1  0  0  0
  8 10  2  0  0  0
  9 12  1  0  0  0
  9 11  1  0  0  0
 11 41  1  0  0  0
 11 42  1  0  0  0
 11 58  1  0  0  0
 12 13  1  0  0  0
 12 59  1  0  0  0
 12 60  1  0  0  0
 13 14  2  0  0  0
 13 18  1  0  0  0
 14 15  1  0  0  0
 14 61  1  0  0  0
 15 16  2  0  0  0
 15 43  1  0  0  0
 16 17  1  0  0  0
 16 62  1  0  0  0
 17 18  2  0  0  0
 17 63  1  0  0  0
 18 19  1  0  0  0
 20 21  1  0  0  0
 20 64  1  0  0  0
 21 22  2  0  0  0
 21 65  1  0  0  0
 22 25  1  0  0  0
 22 23  1  0  0  0
 23 24  2  0  0  0
 23 66  1  0  0  0
 24 67  1  0  0  0
 25 26  1  0  0  0
 26 27  1  0  0  0
 26 68  1  0  0  0
 26 69  1  0  0  0
 27 28  2  0  0  0
 27 31  1  0  0  0
 28 29  1  0  0  0
 28 70  1  0  0  0
 29 30  2  0  0  0
 29 32  1  0  0  0
 30 31  1  0  0  0
 32 33  2  0  0  0
 32 37  1  0  0  0
 33 34  1  0  0  0
 33 38  1  0  0  0
 34 35  2  0  0  0
 34 39  1  0  0  0
 35 36  1  0  0  0
 35 71  1  0  0  0
 36 37  2  0  0  0
 36 72  1  0  0  0
 37 40  1  0  0  0
 41 42  1  0  0  0
 41 73  1  0  0  0
 41 74  1  0  0  0
 42 75  1  0  0  0
 42 76  1  0  0  0
 43 44  1  0  0  0
 43 77  1  0  0  0
 43 78  1  0  0  0
 44 45  1  0  0  0
 44 79  1  0  0  0
 44 80  1  0  0  0
 45 46  1  0  0  0
 45 81  1  0  0  0
 46 47  2  0  0  0
 46 48  1  0  0  0
 48 82  1  0  0  0
 48 83  1  0  0  0
 48 84  1  0  0  0
M  END
> <s_m_entry_id>
26178

> <s_m_entry_name>
dock_pv.2

> <s_m_Source_Path>
/home/csk/Desktop/cluster/DUD-E-result/reni

> <s_m_Source_File>
dock_pv.maegz

> <i_m_Source_File_Index>
2

> <chembl_id>
CHEMBL1269749

> <chembl_pref_name>
None

> <i_lp_mmshare_version>
53161

> <r_lp_tautomer_probability>
1

> <s_lp_Force_Field>
OPLS_2005

> <r_lp_Energy>
63.846266

> <b_lp_Chiralities_Consistent>
1

> <s_lp_Variant>
CHEMBL286_lig1954-1

> <s_i_glide_gridfile>
glide-grid_3g6z

> <i_i_glide_lignum>
5743

> <i_i_glide_rotatable_bonds>
14

> <r_i_docking_score>
-11.5926351154865

> <r_i_glide_ligand_efficiency>
-0.241513231572635

> <r_i_glide_ligand_efficiency_sa>
-0.877717331931537

> <r_i_glide_ligand_efficiency_ln>
-2.37983098819522

> <r_i_glide_gscore>
-11.5926351154865

> <r_i_glide_lipo>
-4.75400433023313

> <r_i_glide_hbond>
-0.544740764080292

> <r_i_glide_metal>
0

> <r_i_glide_rewards>
-2.2776860262399

> <r_i_glide_evdw>
-61.4423828125

> <r_i_glide_ecoul>
-8.94997692108154

> <r_i_glide_erotb>
0.398411683854091

> <r_i_glide_esite>
0

> <r_i_glide_emodel>
-110.454499960314

> <r_i_glide_energy>
-70.3923597335815

> <r_i_glide_einternal>
11.8199129104614

> <i_i_glide_confnum>
28

> <i_i_glide_posenum>
378

> <r_i_glide_eff_state_penalty>
0

> <s_user_duplicate_titles>
CHEMBL286_lig1954

> <i_f3d_flags>
0

> <s_m_subgroup_title>
dock_pv

> <s_m_subgroupid>
dock_pv

> <b_m_subgroup_collapsed>
1

$$$$
CHEMBL286_lig1955
                    3D
 Schrodinger Suite 2021-1.
 84 89  0  0  1  0            999 V2000
   -1.4878  -18.3694  -11.8082 C   0  0  0  0  0  0
   -0.0235  -17.9099  -11.6623 C   0  0  0  0  0  0
    0.1373  -16.4780  -11.9153 N   0  0  1  0  0  0
   -0.6915  -15.6603  -11.0302 C   0  0  0  0  0  0
   -2.1997  -15.9921  -11.1685 C   0  0  1  0  0  0
   -2.4697  -17.5206  -10.9675 C   0  0  1  0  0  0
   -3.9249  -17.9309  -11.2292 C   0  0  0  0  0  0
   -2.9297  -15.1440  -10.0833 C   0  0  0  0  0  0
   -3.5815  -13.9850  -10.4014 N   0  0  0  0  0  0
   -2.8748  -15.5529   -8.9196 O   0  0  0  0  0  0
   -3.5798  -13.3898  -11.7598 C   0  0  0  0  0  0
   -4.1893  -13.1880   -9.3081 C   0  0  0  0  0  0
   -3.2964  -12.1477   -8.6183 C   0  0  0  0  0  0
   -2.0203  -11.8414   -9.1099 C   0  0  0  0  0  0
   -1.1916  -10.9159   -8.4685 C   0  0  0  0  0  0
   -1.6550  -10.2970   -7.3015 C   0  0  0  0  0  0
   -2.9347  -10.5664   -6.8212 C   0  0  0  0  0  0
   -3.7564  -11.4844   -7.4720 C   0  0  0  0  0  0
   -5.3331  -11.7825   -6.8224 Cl  0  0  0  0  0  0
   -4.5025  -17.7165  -12.4846 C   0  0  0  0  0  0
   -5.8258  -18.0763  -12.7183 C   0  0  0  0  0  0
   -6.5952  -18.6427  -11.7021 C   0  0  0  0  0  0
   -6.0084  -18.8790  -10.4504 C   0  0  0  0  0  0
   -4.6853  -18.5163  -10.2132 C   0  0  0  0  0  0
   -7.9075  -18.9421  -12.0205 O   0  0  0  0  0  0
   -8.8712  -19.2273  -11.0066 C   0  0  0  0  0  0
   -9.2725  -17.9817  -10.2355 C   0  0  0  0  0  0
  -10.4403  -17.2584  -10.0914 C   0  0  0  0  0  0
  -10.1402  -16.2272   -9.1934 C   0  0  0  0  0  0
   -8.8795  -16.2956   -8.8209 N   0  0  0  0  0  0
   -8.3261  -17.3997   -9.4615 O   0  0  0  0  0  0
  -11.0686  -15.1853   -8.6295 C   0  0  0  0  0  0
  -10.6908  -13.8410   -8.4209 C   0  0  0  0  0  0
  -11.5941  -12.9331   -7.8538 C   0  0  0  0  0  0
  -12.8685  -13.3507   -7.4793 C   0  0  0  0  0  0
  -13.2467  -14.6767   -7.6702 C   0  0  0  0  0  0
  -12.3618  -15.5820   -8.2530 C   0  0  0  0  0  0
   -9.1069  -13.2630   -8.8214 Cl  0  0  0  0  0  0
  -11.2414  -11.6415   -7.6536 F   0  0  0  0  0  0
  -12.7668  -16.8627   -8.4160 F   0  0  0  0  0  0
   -4.9023  -12.9795  -12.3795 C   0  0  0  0  0  0
   -3.8932  -11.9216  -11.9968 C   0  0  0  0  0  0
    0.1776  -10.6291   -9.0922 C   0  0  0  0  0  0
    1.2842  -10.0529   -8.1771 C   0  0  0  0  0  0
    1.2779   -8.5285   -7.9712 C   0  0  0  0  0  0
    1.3640   -7.8567   -9.2208 O   0  0  0  0  0  0
    1.6179   -6.4633   -9.0704 C   0  0  0  0  0  0
   -1.5182  -19.3989  -11.4466 H   0  0  0  0  0  0
   -1.7581  -18.4234  -12.8626 H   0  0  0  0  0  0
    0.3543  -18.1521  -10.6681 H   0  0  0  0  0  0
    0.6001  -18.4477  -12.3797 H   0  0  0  0  0  0
    1.1063  -16.2410  -11.7491 H   0  0  0  0  0  0
   -0.4958  -14.6044  -11.2220 H   0  0  0  0  0  0
   -0.3497  -15.8815  -10.0159 H   0  0  0  0  0  0
   -2.5623  -15.7180  -12.1545 H   0  0  0  0  0  0
   -2.2575  -17.7847   -9.9285 H   0  0  0  0  0  0
   -2.7930  -13.7511  -12.4198 H   0  0  0  0  0  0
   -4.5656  -13.8590   -8.5333 H   0  0  0  0  0  0
   -5.0692  -12.6755   -9.6817 H   0  0  0  0  0  0
   -1.6536  -12.3234  -10.0023 H   0  0  0  0  0  0
   -1.0449   -9.5964   -6.7546 H   0  0  0  0  0  0
   -3.2928  -10.0668   -5.9341 H   0  0  0  0  0  0
   -3.9323  -17.2618  -13.2815 H   0  0  0  0  0  0
   -6.2693  -17.8991  -13.6876 H   0  0  0  0  0  0
   -6.5695  -19.3280   -9.6462 H   0  0  0  0  0  0
   -4.2554  -18.6879   -9.2369 H   0  0  0  0  0  0
   -9.7476  -19.6107  -11.5247 H   0  0  0  0  0  0
   -8.5487  -20.0507  -10.3678 H   0  0  0  0  0  0
  -11.3898  -17.4569  -10.5639 H   0  0  0  0  0  0
  -13.5567  -12.6495   -7.0303 H   0  0  0  0  0  0
  -14.2311  -15.0068   -7.3756 H   0  0  0  0  0  0
   -5.0694  -13.2095  -13.4316 H   0  0  0  0  0  0
   -5.8165  -13.0892  -11.7950 H   0  0  0  0  0  0
   -4.0913  -11.2650  -11.1521 H   0  0  0  0  0  0
   -3.3413  -11.4081  -12.7862 H   0  0  0  0  0  0
    0.0380   -9.9948   -9.9695 H   0  0  0  0  0  0
    0.5520  -11.5801   -9.4800 H   0  0  0  0  0  0
    2.2460  -10.3066   -8.6214 H   0  0  0  0  0  0
    1.2735  -10.5614   -7.2128 H   0  0  0  0  0  0
    2.1319   -8.2674   -7.3413 H   0  0  0  0  0  0
    0.3863   -8.1931   -7.4441 H   0  0  0  0  0  0
    1.4943   -5.9551  -10.0225 H   0  0  0  0  0  0
    2.6390   -6.2880   -8.7258 H   0  0  0  0  0  0
    0.9311   -6.0015   -8.3620 H   0  0  0  0  0  0
  1  2  1  0  0  0
  1  6  1  0  0  0
  1 48  1  0  0  0
  1 49  1  0  0  0
  2  3  1  0  0  0
  2 50  1  0  0  0
  2 51  1  0  0  0
  3  4  1  0  0  0
  3 52  1  0  0  0
  4  5  1  0  0  0
  4 53  1  0  0  0
  4 54  1  0  0  0
  5  6  1  0  0  0
  5  8  1  0  0  0
  5 55  1  0  0  0
  6  7  1  0  0  0
  6 56  1  0  0  0
  7 24  1  0  0  0
  7 20  2  0  0  0
  8  9  1  0  0  0
  8 10  2  0  0  0
  9 12  1  0  0  0
  9 11  1  0  0  0
 11 41  1  0  0  0
 11 42  1  0  0  0
 11 57  1  0  0  0
 12 13  1  0  0  0
 12 58  1  0  0  0
 12 59  1  0  0  0
 13 14  2  0  0  0
 13 18  1  0  0  0
 14 15  1  0  0  0
 14 60  1  0  0  0
 15 16  2  0  0  0
 15 43  1  0  0  0
 16 17  1  0  0  0
 16 61  1  0  0  0
 17 18  2  0  0  0
 17 62  1  0  0  0
 18 19  1  0  0  0
 20 21  1  0  0  0
 20 63  1  0  0  0
 21 22  2  0  0  0
 21 64  1  0  0  0
 22 23  1  0  0  0
 22 25  1  0  0  0
 23 24  2  0  0  0
 23 65  1  0  0  0
 24 66  1  0  0  0
 25 26  1  0  0  0
 26 27  1  0  0  0
 26 67  1  0  0  0
 26 68  1  0  0  0
 27 28  2  0  0  0
 27 31  1  0  0  0
 28 29  1  0  0  0
 28 69  1  0  0  0
 29 30  2  0  0  0
 29 32  1  0  0  0
 30 31  1  0  0  0
 32 33  2  0  0  0
 32 37  1  0  0  0
 33 34  1  0  0  0
 33 38  1  0  0  0
 34 35  2  0  0  0
 34 39  1  0  0  0
 35 36  1  0  0  0
 35 70  1  0  0  0
 36 37  2  0  0  0
 36 71  1  0  0  0
 37 40  1  0  0  0
 41 42  1  0  0  0
 41 72  1  0  0  0
 41 73  1  0  0  0
 42 74  1  0  0  0
 42 75  1  0  0  0
 43 44  1  0  0  0
 43 76  1  0  0  0
 43 77  1  0  0  0
 44 45  1  0  0  0
 44 78  1  0  0  0
 44 79  1  0  0  0
 45 46  1  0  0  0
 45 80  1  0  0  0
 45 81  1  0  0  0
 46 47  1  0  0  0
 47 82  1  0  0  0
 47 83  1  0  0  0
 47 84  1  0  0  0
M  END
> <s_m_entry_id>
26179

> <s_m_entry_name>
dock_pv.3

> <s_m_Source_Path>
/home/csk/Desktop/cluster/DUD-E-result/reni

> <s_m_Source_File>
dock_pv.maegz

> <i_m_Source_File_Index>
3

> <chembl_id>
CHEMBL1269750

> <chembl_pref_name>
None

> <i_lp_mmshare_version>
53161

> <r_lp_tautomer_probability>
1

> <s_lp_Force_Field>
OPLS_2005

> <r_lp_Energy>
63.867946

> <b_lp_Chiralities_Consistent>
1

> <s_lp_Variant>
CHEMBL286_lig1955-1

> <s_i_glide_gridfile>
glide-grid_3g6z

> <i_i_glide_lignum>
5744

> <i_i_glide_rotatable_bonds>
14

> <r_i_docking_score>
-10.9873536615272

> <r_i_glide_ligand_efficiency>
-0.233773482160154

> <r_i_glide_ligand_efficiency_sa>
-0.843647838181677

> <r_i_glide_ligand_efficiency_ln>
-2.26536480202238

> <r_i_glide_gscore>
-10.9873536615272

> <r_i_glide_lipo>
-4.38281702981346

> <r_i_glide_hbond>
-0.608

> <r_i_glide_metal>
0

> <r_i_glide_rewards>
-2.33348987968423

> <r_i_glide_evdw>
-57.0770530700684

> <r_i_glide_ecoul>
-8.22503089904785

> <r_i_glide_erotb>
0.424560536331071

> <r_i_glide_esite>
0

> <r_i_glide_emodel>
-103.473997937906

> <r_i_glide_energy>
-65.3020839691162

> <r_i_glide_einternal>
8.20397758483887

> <i_i_glide_confnum>
58

> <i_i_glide_posenum>
199

> <r_i_glide_eff_state_penalty>
0

> <s_user_duplicate_titles>
CHEMBL286_lig1955

> <i_f3d_flags>
0

> <s_m_subgroup_title>
dock_pv

> <s_m_subgroupid>
dock_pv

> <b_m_subgroup_collapsed>
1

$$$$
CHEMBL286_lig667
                    3D
 Schrodinger Suite 2021-1.
101105  0  0  1  0            999 V2000
  -10.7421  -16.5353   -8.5200 C   0  0  0  0  0  0
  -11.8430  -15.6908   -8.2716 N   0  0  0  0  0  0
   -4.8772  -16.1148  -10.9906 C   0  0  0  0  0  0
   -8.0665  -15.9187  -10.4781 C   0  0  0  0  0  0
   -7.2634  -15.9376  -11.5682 N   0  0  0  0  0  0
   -3.7095  -16.3608  -11.6185 N   0  0  0  0  0  0
  -10.3376  -16.4772   -9.8240 O   0  0  0  0  0  0
   -5.9470  -15.2876  -11.7398 C   0  0  1  0  0  0
   -3.8138  -12.6569  -10.6319 N   0  0  0  0  0  0
   -9.1110  -17.0508  -10.3006 C   0  0  1  0  0  0
   -4.7252  -12.9865  -11.6341 C   0  0  0  0  0  0
   -2.6280  -17.1815  -11.0219 C   0  0  1  0  0  0
   -5.9735  -13.7805  -11.3455 C   0  0  0  0  0  0
   -3.0283  -11.9199  -12.5617 N   0  0  0  0  0  0
   -2.8107  -12.0626  -11.2559 C   0  0  0  0  0  0
  -10.1931  -17.2538   -7.6785 O   0  0  0  0  0  0
   -4.4411  -12.2098   -7.0795 N   0  0  0  0  0  0
  -12.3741  -15.6076   -6.8946 C   0  0  0  0  0  0
  -12.4499  -14.8538   -9.3337 C   0  0  0  0  0  0
   -4.2692  -12.4629  -12.8251 C   0  0  0  0  0  0
   -3.3835  -13.0206   -7.3489 C   0  0  0  0  0  0
   -5.1397  -16.5655   -9.8750 O   0  0  0  0  0  0
   -7.9566  -15.0785   -9.5824 O   0  0  0  0  0  0
   -9.4178  -17.8981  -11.5591 C   0  0  0  0  0  0
   -2.2073  -18.3560  -11.9573 C   0  0  0  0  0  0
  -12.5152  -13.3915   -8.8516 C   0  0  0  0  0  0
  -12.4824  -14.1217   -6.4816 C   0  0  0  0  0  0
   -1.4024  -16.3387  -10.5325 C   0  0  2  0  0  0
   -3.7679  -14.7268   -7.6208 S   0  0  0  0  0  0
  -13.2308  -13.2560   -7.5051 C   0  0  0  0  0  0
   -1.6988  -15.2342   -9.4926 C   0  0  0  0  0  0
  -10.0108  -19.2567  -11.2210 C   0  0  0  0  0  0
  -13.3561  -11.8744   -7.0853 N   0  0  0  0  0  0
   -2.2839  -15.6580   -8.1285 C   0  0  0  0  0  0
   -0.8011  -15.6634  -11.6211 O   0  0  0  0  0  0
   -2.9718  -19.6935  -11.7859 C   0  0  0  0  0  0
   -4.1967  -10.8950   -6.8480 C   0  0  0  0  0  0
   -2.0665  -12.5462   -7.3925 C   0  0  0  0  0  0
  -11.3953  -19.4328  -11.2211 C   0  0  0  0  0  0
   -9.1618  -20.3413  -10.9892 C   0  0  0  0  0  0
   -4.4598  -19.6112  -12.2091 C   0  0  0  0  0  0
   -2.2842  -20.8152  -12.6017 C   0  0  0  0  0  0
   -2.9152  -10.3439   -6.8857 C   0  0  0  0  0  0
   -1.8379  -11.1868   -7.1640 C   0  0  0  0  0  0
   -9.6958  -21.6095  -10.7920 C   0  0  0  0  0  0
  -11.9307  -20.7046  -11.0260 C   0  0  0  0  0  0
   -2.9639  -22.1814  -12.3890 C   0  0  0  0  0  0
   -5.1874  -20.9566  -11.9994 C   0  0  0  0  0  0
  -11.0772  -21.7856  -10.8214 C   0  0  0  0  0  0
   -4.4720  -22.1216  -12.7196 C   0  0  0  0  0  0
   -7.4729  -16.6232  -12.2807 H   0  0  0  0  0  0
   -3.5547  -15.9732  -12.5435 H   0  0  0  0  0  0
   -5.7289  -15.3458  -12.8060 H   0  0  0  0  0  0
   -8.6473  -17.7061   -9.5590 H   0  0  0  0  0  0
   -2.9997  -17.6721  -10.1209 H   0  0  0  0  0  0
   -6.8107  -13.2842  -11.8397 H   0  0  0  0  0  0
   -6.1397  -13.6661  -10.2736 H   0  0  0  0  0  0
   -2.3950  -11.4856  -13.2242 H   0  0  0  0  0  0
   -1.9200  -11.7129  -10.7556 H   0  0  0  0  0  0
  -13.3167  -16.1526   -6.8444 H   0  0  0  0  0  0
  -11.6943  -16.0761   -6.1814 H   0  0  0  0  0  0
  -11.8707  -14.8637  -10.2550 H   0  0  0  0  0  0
  -13.4301  -15.2632   -9.5637 H   0  0  0  0  0  0
   -4.6688  -12.4951  -13.8266 H   0  0  0  0  0  0
  -10.0786  -17.3605  -12.2401 H   0  0  0  0  0  0
   -8.5211  -18.0981  -12.1474 H   0  0  0  0  0  0
   -2.2692  -18.0636  -13.0021 H   0  0  0  0  0  0
   -1.1509  -18.5668  -11.7861 H   0  0  0  0  0  0
  -11.5040  -12.9857   -8.7862 H   0  0  0  0  0  0
  -13.0285  -12.7939   -9.6071 H   0  0  0  0  0  0
  -12.9871  -14.0632   -5.5194 H   0  0  0  0  0  0
  -11.4795  -13.7232   -6.3209 H   0  0  0  0  0  0
   -0.6504  -17.0099  -10.1151 H   0  0  0  0  0  0
  -14.2334  -13.6699   -7.6204 H   0  0  0  0  0  0
   -2.3673  -14.5168   -9.9508 H   0  0  0  0  0  0
   -0.7777  -14.6804   -9.3026 H   0  0  0  0  0  0
  -13.8788  -11.3380   -7.7619 H   0  0  0  0  0  0
  -13.8566  -11.8217   -6.2088 H   0  0  0  0  0  0
   -1.5298  -15.5852   -7.3437 H   0  0  0  0  0  0
   -2.5816  -16.7064   -8.1461 H   0  0  0  0  0  0
   -1.3852  -14.9427  -11.8753 H   0  0  0  0  0  0
   -2.9368  -19.9900  -10.7333 H   0  0  0  0  0  0
   -5.0555  -10.2850   -6.6180 H   0  0  0  0  0  0
   -1.2353  -13.2017   -7.5907 H   0  0  0  0  0  0
  -12.0462  -18.5900  -11.4040 H   0  0  0  0  0  0
   -8.0899  -20.2068  -10.9896 H   0  0  0  0  0  0
   -4.9731  -18.8349  -11.6452 H   0  0  0  0  0  0
   -4.5362  -19.2933  -13.2497 H   0  0  0  0  0  0
   -2.2671  -20.5519  -13.6619 H   0  0  0  0  0  0
   -1.2312  -20.8854  -12.3186 H   0  0  0  0  0  0
   -2.7613   -9.2915   -6.6948 H   0  0  0  0  0  0
   -0.8316  -10.7950   -7.1923 H   0  0  0  0  0  0
   -9.0418  -22.4525  -10.6239 H   0  0  0  0  0  0
  -12.9992  -20.8552  -11.0413 H   0  0  0  0  0  0
   -2.8268  -22.5010  -11.3541 H   0  0  0  0  0  0
   -2.4778  -22.9334  -13.0122 H   0  0  0  0  0  0
   -5.2459  -21.1717  -10.9293 H   0  0  0  0  0  0
   -6.2178  -20.8824  -12.3536 H   0  0  0  0  0  0
  -11.4905  -22.7725  -10.6786 H   0  0  0  0  0  0
   -4.9456  -23.0682  -12.4558 H   0  0  0  0  0  0
   -4.6009  -22.0135  -13.7983 H   0  0  0  0  0  0
  1  2  1  0  0  0
  1  7  1  0  0  0
  1 16  2  0  0  0
  2 18  1  0  0  0
  2 19  1  0  0  0
  3  8  1  0  0  0
  3  6  1  0  0  0
  3 22  2  0  0  0
  4 10  1  0  0  0
  4  5  1  0  0  0
  4 23  2  0  0  0
  5  8  1  0  0  0
  5 51  1  0  0  0
  6 12  1  0  0  0
  6 52  1  0  0  0
  7 10  1  0  0  0
  8 13  1  0  0  0
  8 53  1  0  0  0
  9 11  1  0  0  0
  9 15  2  0  0  0
 10 24  1  0  0  0
 10 54  1  0  0  0
 11 13  1  0  0  0
 11 20  2  0  0  0
 12 25  1  0  0  0
 12 28  1  0  0  0
 12 55  1  0  0  0
 13 56  1  0  0  0
 13 57  1  0  0  0
 14 20  1  0  0  0
 14 15  1  0  0  0
 14 58  1  0  0  0
 15 59  1  0  0  0
 17 21  2  0  0  0
 17 37  1  0  0  0
 18 27  1  0  0  0
 18 60  1  0  0  0
 18 61  1  0  0  0
 19 26  1  0  0  0
 19 62  1  0  0  0
 19 63  1  0  0  0
 20 64  1  0  0  0
 21 29  1  0  0  0
 21 38  1  0  0  0
 24 32  1  0  0  0
 24 65  1  0  0  0
 24 66  1  0  0  0
 25 36  1  0  0  0
 25 67  1  0  0  0
 25 68  1  0  0  0
 26 30  1  0  0  0
 26 69  1  0  0  0
 26 70  1  0  0  0
 27 30  1  0  0  0
 27 71  1  0  0  0
 27 72  1  0  0  0
 28 31  1  0  0  0
 28 35  1  0  0  0
 28 73  1  0  0  0
 29 34  1  0  0  0
 30 33  1  0  0  0
 30 74  1  0  0  0
 31 34  1  0  0  0
 31 75  1  0  0  0
 31 76  1  0  0  0
 32 39  1  0  0  0
 32 40  2  0  0  0
 33 77  1  0  0  0
 33 78  1  0  0  0
 34 79  1  0  0  0
 34 80  1  0  0  0
 35 81  1  0  0  0
 36 41  1  0  0  0
 36 42  1  0  0  0
 36 82  1  0  0  0
 37 43  2  0  0  0
 37 83  1  0  0  0
 38 44  2  0  0  0
 38 84  1  0  0  0
 39 46  2  0  0  0
 39 85  1  0  0  0
 40 45  1  0  0  0
 40 86  1  0  0  0
 41 48  1  0  0  0
 41 87  1  0  0  0
 41 88  1  0  0  0
 42 47  1  0  0  0
 42 89  1  0  0  0
 42 90  1  0  0  0
 43 44  1  0  0  0
 43 91  1  0  0  0
 44 92  1  0  0  0
 45 49  2  0  0  0
 45 93  1  0  0  0
 46 49  1  0  0  0
 46 94  1  0  0  0
 47 50  1  0  0  0
 47 95  1  0  0  0
 47 96  1  0  0  0
 48 50  1  0  0  0
 48 97  1  0  0  0
 48 98  1  0  0  0
 49 99  1  0  0  0
 50100  1  0  0  0
 50101  1  0  0  0
M  END
> <s_m_entry_id>
26180

> <s_m_entry_name>
dock_pv.4

> <s_m_Source_Path>
/home/csk/Desktop/cluster/DUD-E-result/reni

> <s_m_Source_File>
dock_pv.maegz

> <i_m_Source_File_Index>
4

> <chembl_id>
CHEMBL118421

> <chembl_pref_name>
None

> <i_lp_mmshare_version>
53161

> <r_lp_tautomer_probability>
0.499999999999999

> <s_lp_Force_Field>
OPLS_2005

> <r_lp_Energy>
35.206413

> <b_lp_Chiralities_Consistent>
1

> <s_lp_Variant>
CHEMBL286_lig667-1

> <s_i_glide_gridfile>
glide-grid_3g6z

> <i_i_glide_lignum>
1898

> <i_i_glide_rotatable_bonds>
21

> <r_i_docking_score>
-9.82804116362139

> <r_i_glide_ligand_efficiency>
-0.196560823272428

> <r_i_glide_ligand_efficiency_sa>
-0.724136263390031

> <r_i_glide_ligand_efficiency_ln>
-2.00081334162334

> <r_i_glide_gscore>
-9.82804116362139

> <r_i_glide_lipo>
-3.81379534928954

> <r_i_glide_hbond>
-0.822272862272221

> <r_i_glide_metal>
0

> <r_i_glide_rewards>
-1.42753161066579

> <r_i_glide_evdw>
-62.9101295471191

> <r_i_glide_ecoul>
-7.33633041381836

> <r_i_glide_erotb>
0.511694852757253

> <r_i_glide_esite>
-0.0301801547223783

> <r_i_glide_emodel>
-102.158002959232

> <r_i_glide_energy>
-70.2464599609375

> <r_i_glide_einternal>
21.8161849975586

> <i_i_glide_confnum>
9

> <i_i_glide_posenum>
127

> <r_i_glide_eff_state_penalty>
0

> <s_user_duplicate_titles>
CHEMBL286_lig667,CHEMBL286_lig667

> <i_f3d_flags>
0

> <s_m_subgroup_title>
dock_pv

> <s_m_subgroupid>
dock_pv

> <b_m_subgroup_collapsed>
1

$$$$
CHEMBL286_lig1523
                    3D
 Schrodinger Suite 2021-1.
102106  0  0  1  0            999 V2000
   -2.4852  -21.3695  -12.4109 C   0  0  0  0  0  0
   -8.5602  -20.1630  -10.8182 C   0  0  0  0  0  0
   -5.9656  -21.6845  -11.7969 C   0  0  0  0  0  0
   -8.5866  -19.0531  -11.5683 N   0  0  0  0  0  0
   -8.5602  -17.6834  -11.0494 C   0  0  2  0  0  0
   -7.1373  -22.0560  -11.2496 N   0  0  0  0  0  0
   -1.4711  -20.5028  -12.6877 N   0  0  0  0  0  0
   -8.4425  -21.4936  -11.5813 C   0  0  1  0  0  0
  -11.8859  -22.8714  -12.1170 N   0  0  0  0  0  0
   -4.6584  -22.0609  -11.0408 C   0  0  1  0  0  0
  -10.9796  -22.1081  -11.3952 C   0  0  0  0  0  0
   -9.9740  -17.1364  -10.6069 C   0  0  2  0  0  0
   -3.5061  -21.0140  -11.3015 C   0  0  0  0  0  0
   -9.5346  -22.5194  -11.1951 C   0  0  0  0  0  0
  -13.0440  -21.1512  -11.3194 N   0  0  0  0  0  0
  -13.0727  -22.2674  -12.0375 C   0  0  0  0  0  0
  -11.7147  -21.0488  -10.9063 C   0  0  0  0  0  0
   -7.9360  -16.7793  -12.1258 C   0  0  0  0  0  0
   -2.5524  -22.4788  -12.9426 O   0  0  0  0  0  0
   -8.5801  -20.1751   -9.5884 O   0  0  0  0  0  0
   -5.9159  -21.0277  -12.8412 O   0  0  0  0  0  0
  -13.4654  -13.6412   -7.7889 N   0  0  0  0  0  0
   -4.9062  -22.3182   -9.5159 C   0  0  0  0  0  0
  -10.4464  -17.3290   -9.1272 C   0  0  2  0  0  0
    0.8345  -18.9301  -12.8188 O   0  0  0  0  0  0
  -10.8595  -16.0127   -8.4189 C   0  0  0  0  0  0
  -12.2649  -13.8757   -8.3787 C   0  0  0  0  0  0
  -11.0001  -17.5818  -11.4813 O   0  0  0  0  0  0
  -12.0660  -15.2520   -9.0114 C   0  0  0  0  0  0
   -3.6744  -22.6532   -8.6759 C   0  0  0  0  0  0
   -1.5282  -19.0826  -12.2700 C   0  0  0  0  0  0
   -0.4223  -20.8922  -13.6574 C   0  0  0  0  0  0
   -9.4474  -17.8805   -8.2845 O   0  0  0  0  0  0
   -7.3233  -15.4496  -11.6477 C   0  0  0  0  0  0
  -13.6804  -12.4202   -7.2269 C   0  0  0  0  0  0
    0.9204  -20.3099  -13.1614 C   0  0  0  0  0  0
   -0.1143  -18.6890  -11.7900 C   0  0  0  0  0  0
  -11.2551  -12.8998   -8.4181 C   0  0  0  0  0  0
   -2.8727  -23.7499   -8.9961 C   0  0  0  0  0  0
   -3.3712  -21.8697   -7.5554 C   0  0  0  0  0  0
   -5.9440  -15.6493  -10.9836 C   0  0  0  0  0  0
   -7.1403  -14.4890  -12.8402 C   0  0  0  0  0  0
  -12.7235  -11.4068   -7.2262 C   0  0  0  0  0  0
   -1.7758  -24.0647   -8.1960 C   0  0  0  0  0  0
   -2.2775  -22.1907   -6.7580 C   0  0  0  0  0  0
  -11.4935  -11.6538   -7.8364 C   0  0  0  0  0  0
   -6.6168  -13.1255  -12.3695 C   0  0  0  0  0  0
   -5.3803  -14.3151  -10.4560 C   0  0  0  0  0  0
   -5.2950  -13.2590  -11.5779 C   0  0  0  0  0  0
   -1.4869  -23.2860   -7.0793 C   0  0  0  0  0  0
   -8.5061  -19.1335  -12.5782 H   0  0  0  0  0  0
   -7.8711  -17.6558  -10.2068 H   0  0  0  0  0  0
   -7.1131  -22.5886  -10.3945 H   0  0  0  0  0  0
   -8.4940  -21.3144  -12.6543 H   0  0  0  0  0  0
   -4.3850  -23.0311  -11.4582 H   0  0  0  0  0  0
   -9.9447  -16.0638  -10.7743 H   0  0  0  0  0  0
   -2.9108  -20.8763  -10.4015 H   0  0  0  0  0  0
   -3.9470  -20.0382  -11.5100 H   0  0  0  0  0  0
   -9.3642  -23.4387  -11.7556 H   0  0  0  0  0  0
   -9.4250  -22.7882  -10.1468 H   0  0  0  0  0  0
  -11.6850  -23.7227  -12.6254 H   0  0  0  0  0  0
  -13.9680  -22.6449  -12.5164 H   0  0  0  0  0  0
  -11.4014  -20.2242  -10.2820 H   0  0  0  0  0  0
   -7.1655  -17.3078  -12.7038 H   0  0  0  0  0  0
   -8.7341  -16.5570  -12.8210 H   0  0  0  0  0  0
   -5.4228  -21.4649   -9.0741 H   0  0  0  0  0  0
   -5.5814  -23.1618   -9.3873 H   0  0  0  0  0  0
  -11.2905  -18.0179   -9.1138 H   0  0  0  0  0  0
  -11.0863  -16.2147   -7.3712 H   0  0  0  0  0  0
   -9.9882  -15.3584   -8.4213 H   0  0  0  0  0  0
  -10.6308  -17.6592  -12.3709 H   0  0  0  0  0  0
  -11.9470  -15.1034  -10.0829 H   0  0  0  0  0  0
  -12.9711  -15.8563   -8.9015 H   0  0  0  0  0  0
   -2.2013  -18.8713  -11.4417 H   0  0  0  0  0  0
   -1.7887  -18.5040  -13.1542 H   0  0  0  0  0  0
   -0.6999  -20.4624  -14.6138 H   0  0  0  0  0  0
   -0.3107  -21.9803  -13.6947 H   0  0  0  0  0  0
   -8.9247  -18.5348   -8.7858 H   0  0  0  0  0  0
   -7.9904  -14.9702  -10.9313 H   0  0  0  0  0  0
  -14.6441  -12.2630   -6.7643 H   0  0  0  0  0  0
    1.6624  -20.4174  -13.9544 H   0  0  0  0  0  0
    1.3001  -20.8808  -12.3128 H   0  0  0  0  0  0
   -0.0978  -17.6331  -11.5293 H   0  0  0  0  0  0
    0.1512  -19.2320  -10.8805 H   0  0  0  0  0  0
  -10.3014  -13.1037   -8.8865 H   0  0  0  0  0  0
   -3.1029  -24.3616   -9.8540 H   0  0  0  0  0  0
   -3.9859  -21.0225   -7.2927 H   0  0  0  0  0  0
   -6.0145  -16.3675  -10.1706 H   0  0  0  0  0  0
   -5.2549  -16.1181  -11.6868 H   0  0  0  0  0  0
   -6.4656  -14.9228  -13.5833 H   0  0  0  0  0  0
   -8.0902  -14.3588  -13.3678 H   0  0  0  0  0  0
  -12.9332  -10.4481   -6.7729 H   0  0  0  0  0  0
   -1.1532  -24.9103   -8.4288 H   0  0  0  0  0  0
   -2.0488  -21.5920   -5.8903 H   0  0  0  0  0  0
  -10.7361  -10.8822   -7.8651 H   0  0  0  0  0  0
   -7.3717  -12.6455  -11.7498 H   0  0  0  0  0  0
   -6.4773  -12.4623  -13.2176 H   0  0  0  0  0  0
   -6.0242  -13.9403   -9.6564 H   0  0  0  0  0  0
   -4.3946  -14.4773  -10.0186 H   0  0  0  0  0  0
   -5.0152  -12.2914  -11.1605 H   0  0  0  0  0  0
   -4.4938  -13.5278  -12.2677 H   0  0  0  0  0  0
   -0.6406  -23.5415   -6.4580 H   0  0  0  0  0  0
  1  7  1  0  0  0
  1 13  1  0  0  0
  1 19  2  0  0  0
  2  8  1  0  0  0
  2  4  1  0  0  0
  2 20  2  0  0  0
  3 10  1  0  0  0
  3  6  1  0  0  0
  3 21  2  0  0  0
  4  5  1  0  0  0
  4 51  1  0  0  0
  5 12  1  0  0  0
  5 18  1  0  0  0
  5 52  1  0  0  0
  6  8  1  0  0  0
  6 53  1  0  0  0
  7 31  1  0  0  0
  7 32  1  0  0  0
  8 14  1  0  0  0
  8 54  1  0  0  0
  9 11  1  0  0  0
  9 61  1  0  0  0
  9 16  1  0  0  0
 10 13  1  0  0  0
 10 23  1  0  0  0
 10 55  1  0  0  0
 11 17  2  0  0  0
 11 14  1  0  0  0
 12 24  1  0  0  0
 12 28  1  0  0  0
 12 56  1  0  0  0
 13 57  1  0  0  0
 13 58  1  0  0  0
 14 59  1  0  0  0
 14 60  1  0  0  0
 15 16  2  0  0  0
 15 17  1  0  0  0
 16 62  1  0  0  0
 17 63  1  0  0  0
 18 34  1  0  0  0
 18 64  1  0  0  0
 18 65  1  0  0  0
 22 27  1  0  0  0
 22 35  2  0  0  0
 23 30  1  0  0  0
 23 66  1  0  0  0
 23 67  1  0  0  0
 24 26  1  0  0  0
 24 33  1  0  0  0
 24 68  1  0  0  0
 25 36  1  0  0  0
 25 37  1  0  0  0
 26 29  1  0  0  0
 26 69  1  0  0  0
 26 70  1  0  0  0
 27 29  1  0  0  0
 27 38  2  0  0  0
 28 71  1  0  0  0
 29 72  1  0  0  0
 29 73  1  0  0  0
 30 39  2  0  0  0
 30 40  1  0  0  0
 31 37  1  0  0  0
 31 74  1  0  0  0
 31 75  1  0  0  0
 32 36  1  0  0  0
 32 76  1  0  0  0
 32 77  1  0  0  0
 33 78  1  0  0  0
 34 41  1  0  0  0
 34 42  1  0  0  0
 34 79  1  0  0  0
 35 43  1  0  0  0
 35 80  1  0  0  0
 36 81  1  0  0  0
 36 82  1  0  0  0
 37 83  1  0  0  0
 37 84  1  0  0  0
 38 46  1  0  0  0
 38 85  1  0  0  0
 39 44  1  0  0  0
 39 86  1  0  0  0
 40 45  2  0  0  0
 40 87  1  0  0  0
 41 48  1  0  0  0
 41 88  1  0  0  0
 41 89  1  0  0  0
 42 47  1  0  0  0
 42 90  1  0  0  0
 42 91  1  0  0  0
 43 46  2  0  0  0
 43 92  1  0  0  0
 44 50  2  0  0  0
 44 93  1  0  0  0
 45 50  1  0  0  0
 45 94  1  0  0  0
 46 95  1  0  0  0
 47 49  1  0  0  0
 47 96  1  0  0  0
 47 97  1  0  0  0
 48 49  1  0  0  0
 48 98  1  0  0  0
 48 99  1  0  0  0
 49100  1  0  0  0
 49101  1  0  0  0
 50102  1  0  0  0
M  END
> <s_m_entry_id>
26181

> <s_m_entry_name>
dock_pv.5

> <s_m_Source_Path>
/home/csk/Desktop/cluster/DUD-E-result/reni

> <s_m_Source_File>
dock_pv.maegz

> <i_m_Source_File_Index>
5

> <chembl_id>
CHEMBL327190

> <chembl_pref_name>
None

> <i_lp_mmshare_version>
53161

> <r_lp_tautomer_probability>
0.499999999999999

> <s_lp_Force_Field>
OPLS_2005

> <r_lp_Energy>
41.683907

> <b_lp_Chiralities_Consistent>
1

> <s_lp_Variant>
CHEMBL286_lig1523-2

> <s_i_glide_gridfile>
glide-grid_3g6z

> <i_i_glide_lignum>
5163

> <i_i_glide_rotatable_bonds>
22

> <r_i_docking_score>
-9.81636969636115

> <r_i_glide_ligand_efficiency>
-0.196327393927223

> <r_i_glide_ligand_efficiency_sa>
-0.723276302330711

> <r_i_glide_ligand_efficiency_ln>
-1.99843723971027

> <r_i_glide_gscore>
-9.81636969636115

> <r_i_glide_lipo>
-4.57826031243553

> <r_i_glide_hbond>
0

> <r_i_glide_metal>
0

> <r_i_glide_rewards>
-1.33297137709726

> <r_i_glide_evdw>
-64.9226150512695

> <r_i_glide_ecoul>
-7.49229574203491

> <r_i_glide_erotb>
0.5059924871995

> <r_i_glide_esite>
-0.0411553801591447

> <r_i_glide_emodel>
-104.368446741058

> <r_i_glide_energy>
-72.4149107933044

> <r_i_glide_einternal>
23.0350513458252

> <i_i_glide_confnum>
57

> <i_i_glide_posenum>
72

> <r_i_glide_eff_state_penalty>
0

> <s_user_duplicate_titles>
CHEMBL286_lig1523

> <i_f3d_flags>
0

> <s_m_subgroup_title>
dock_pv

> <s_m_subgroupid>
dock_pv

> <b_m_subgroup_collapsed>
1

$$$$
CHEMBL286_lig1570
                    3D
 Schrodinger Suite 2021-1.
 73 76  0  0  1  0            999 V2000
   -3.8614  -12.6373   -8.6373 C   0  0  0  0  0  0
   -7.3457  -18.4578  -11.7590 N   0  0  0  0  0  0
   -4.1961  -11.5559   -7.6084 C   0  0  0  0  0  0
   -7.3266  -19.7987  -12.0479 C   0  0  0  0  0  0
   -8.3353  -17.9603  -10.8834 C   0  0  0  0  0  0
   -2.9712  -12.3571   -9.6825 C   0  0  0  0  0  0
   -6.4740  -17.4354  -12.4163 C   0  0  2  0  0  0
   -5.8691  -19.2629  -14.0209 N   0  0  2  0  0  0
   -4.4238  -13.9185   -8.5490 C   0  0  0  0  0  0
  -11.6524  -11.8853   -7.4679 C   0  0  0  0  0  0
   -8.0945  -20.6161  -11.5311 O   0  0  0  0  0  0
  -11.2170  -10.6398   -6.9853 C   0  0  0  0  0  0
   -5.1156  -11.9602   -6.7279 F   0  0  0  0  0  0
   -3.0944  -11.2195   -6.9340 F   0  0  0  0  0  0
   -4.6681  -10.4684   -8.2225 F   0  0  0  0  0  0
   -8.0655  -17.8519   -9.5175 C   0  0  0  0  0  0
   -9.5789  -17.5702  -11.3854 C   0  0  0  0  0  0
   -2.6615  -13.3372  -10.6270 C   0  0  0  0  0  0
   -6.2406  -20.2860  -13.0430 C   0  0  0  0  0  0
   -4.1142  -14.9070   -9.4901 C   0  0  0  0  0  0
   -2.3987  -11.1369   -9.7879 F   0  0  0  0  0  0
   -5.4186  -18.0388  -13.3817 C   0  0  0  0  0  0
  -10.2807  -16.9457   -9.1486 C   0  0  0  0  0  0
   -4.9199  -16.9921  -10.5717 O   0  0  0  0  0  0
   -3.2256  -14.6080  -10.5290 C   0  0  0  0  0  0
  -10.5491  -17.0675  -10.5211 C   0  0  0  0  0  0
   -9.0332  -17.3369   -8.6585 C   0  0  0  0  0  0
  -12.1640   -9.8052   -6.4209 O   0  0  0  0  0  0
   -5.8220  -16.3780  -11.4927 C   0  0  0  0  0  0
  -13.3996  -15.9694   -7.3668 C   0  0  0  0  0  0
  -11.1827  -16.4610   -8.2182 O   0  0  0  0  0  0
  -13.1413  -12.2430   -7.4036 C   0  0  0  0  0  0
  -13.4183  -13.5904   -7.7858 O   0  0  0  0  0  0
  -10.7203  -12.7816   -8.0116 C   0  0  0  0  0  0
   -4.7198  -16.3028   -9.3343 C   0  0  0  0  0  0
  -12.5509  -16.3194   -8.5982 C   0  0  0  0  0  0
  -13.1325  -14.5714   -6.7919 C   0  0  0  0  0  0
   -9.8567  -10.3011   -7.0925 C   0  0  0  0  0  0
  -11.7871   -8.4964   -6.0022 C   0  0  0  0  0  0
   -9.3671  -12.4632   -8.0319 C   0  0  0  0  0  0
   -8.9373  -11.2075   -7.6196 C   0  0  0  0  0  0
   -7.1711  -16.8776  -13.0420 H   0  0  0  0  0  0
   -6.6107  -19.0319  -14.6885 H   0  0  0  0  0  0
   -5.1026  -14.1567   -7.7429 H   0  0  0  0  0  0
   -7.1082  -18.1635   -9.1264 H   0  0  0  0  0  0
   -9.7927  -17.6591  -12.4405 H   0  0  0  0  0  0
   -1.9697  -13.1127  -11.4255 H   0  0  0  0  0  0
   -5.3692  -20.6004  -12.4651 H   0  0  0  0  0  0
   -6.6199  -21.1668  -13.5660 H   0  0  0  0  0  0
   -4.4975  -18.2538  -12.8371 H   0  0  0  0  0  0
   -5.1755  -17.3087  -14.1534 H   0  0  0  0  0  0
   -2.9735  -15.3597  -11.2646 H   0  0  0  0  0  0
  -11.4989  -16.7702  -10.9379 H   0  0  0  0  0  0
   -8.8201  -17.2480   -7.6034 H   0  0  0  0  0  0
   -5.2850  -15.6377  -12.0883 H   0  0  0  0  0  0
   -6.6068  -15.8305  -10.9658 H   0  0  0  0  0  0
  -13.2268  -16.7283   -6.6045 H   0  0  0  0  0  0
  -14.4557  -16.0413   -7.6198 H   0  0  0  0  0  0
  -13.5481  -12.0385   -6.4113 H   0  0  0  0  0  0
  -13.6640  -11.5864   -8.0983 H   0  0  0  0  0  0
  -11.0307  -13.7423   -8.3963 H   0  0  0  0  0  0
   -5.6666  -16.2510   -8.7933 H   0  0  0  0  0  0
   -4.0466  -16.9004   -8.7181 H   0  0  0  0  0  0
  -12.9100  -17.2631   -9.0089 H   0  0  0  0  0  0
  -12.6680  -15.5584   -9.3707 H   0  0  0  0  0  0
  -12.1036  -14.5060   -6.4352 H   0  0  0  0  0  0
  -13.7783  -14.4024   -5.9300 H   0  0  0  0  0  0
   -9.4876   -9.3462   -6.7505 H   0  0  0  0  0  0
  -12.6692   -7.9654   -5.6458 H   0  0  0  0  0  0
  -11.0693   -8.5326   -5.1822 H   0  0  0  0  0  0
  -11.3656   -7.9110   -6.8207 H   0  0  0  0  0  0
   -8.6550  -13.1703   -8.4305 H   0  0  0  0  0  0
   -7.8909  -10.9444   -7.6799 H   0  0  0  0  0  0
  1  3  1  0  0  0
  1  6  2  0  0  0
  1  9  1  0  0  0
  2  7  1  0  0  0
  2  4  1  0  0  0
  2  5  1  0  0  0
  3 13  1  0  0  0
  3 14  1  0  0  0
  3 15  1  0  0  0
  4 11  2  0  0  0
  4 19  1  0  0  0
  5 16  2  0  0  0
  5 17  1  0  0  0
  6 18  1  0  0  0
  6 21  1  0  0  0
  7 29  1  0  0  0
  7 22  1  0  0  0
  7 42  1  0  0  0
  8 22  1  0  0  0
  8 19  1  0  0  0
  8 43  1  0  0  0
  9 20  2  0  0  0
  9 44  1  0  0  0
 10 32  1  0  0  0
 10 12  2  0  0  0
 10 34  1  0  0  0
 12 28  1  0  0  0
 12 38  1  0  0  0
 16 27  1  0  0  0
 16 45  1  0  0  0
 17 26  2  0  0  0
 17 46  1  0  0  0
 18 25  2  0  0  0
 18 47  1  0  0  0
 19 48  1  0  0  0
 19 49  1  0  0  0
 20 25  1  0  0  0
 20 35  1  0  0  0
 22 50  1  0  0  0
 22 51  1  0  0  0
 23 26  1  0  0  0
 23 31  1  0  0  0
 23 27  2  0  0  0
 24 35  1  0  0  0
 24 29  1  0  0  0
 25 52  1  0  0  0
 26 53  1  0  0  0
 27 54  1  0  0  0
 28 39  1  0  0  0
 29 55  1  0  0  0
 29 56  1  0  0  0
 30 36  1  0  0  0
 30 37  1  0  0  0
 30 57  1  0  0  0
 30 58  1  0  0  0
 31 36  1  0  0  0
 32 33  1  0  0  0
 32 59  1  0  0  0
 32 60  1  0  0  0
 33 37  1  0  0  0
 34 40  2  0  0  0
 34 61  1  0  0  0
 35 62  1  0  0  0
 35 63  1  0  0  0
 36 64  1  0  0  0
 36 65  1  0  0  0
 37 66  1  0  0  0
 37 67  1  0  0  0
 38 41  2  0  0  0
 38 68  1  0  0  0
 39 69  1  0  0  0
 39 70  1  0  0  0
 39 71  1  0  0  0
 40 41  1  0  0  0
 40 72  1  0  0  0
 41 73  1  0  0  0
M  END
> <s_m_entry_id>
26182

> <s_m_entry_name>
dock_pv.6

> <s_m_Source_Path>
/home/csk/Desktop/cluster/DUD-E-result/reni

> <s_m_Source_File>
dock_pv.maegz

> <i_m_Source_File_Index>
6

> <chembl_id>
CHEMBL195574

> <chembl_pref_name>
None

> <i_lp_mmshare_version>
53161

> <r_lp_tautomer_probability>
1

> <s_lp_Force_Field>
OPLS_2005

> <r_lp_Energy>
59.403413

> <b_lp_Chiralities_Consistent>
1

> <s_lp_Variant>
CHEMBL286_lig1570-1

> <s_i_glide_gridfile>
glide-grid_3g6z

> <i_i_glide_lignum>
5274

> <i_i_glide_rotatable_bonds>
14

> <r_i_docking_score>
-9.47990828813121

> <r_i_glide_ligand_efficiency>
-0.231217275320273

> <r_i_glide_ligand_efficiency_sa>
-0.797287394046759

> <r_i_glide_ligand_efficiency_ln>
-2.01119409101545

> <r_i_glide_gscore>
-9.47990828813121

> <r_i_glide_lipo>
-4.09239158631781

> <r_i_glide_hbond>
-0.413449117408938

> <r_i_glide_metal>
0

> <r_i_glide_rewards>
-1.53334787058274

> <r_i_glide_evdw>
-49.6738319396973

> <r_i_glide_ecoul>
-10.2548151016235

> <r_i_glide_erotb>
0.657460527401012

> <r_i_glide_esite>
-0.0762663789943346

> <r_i_glide_emodel>
-91.6057872344967

> <r_i_glide_energy>
-59.9286470413208

> <r_i_glide_einternal>
8.46211051940918

> <i_i_glide_confnum>
71

> <i_i_glide_posenum>
321

> <r_i_glide_eff_state_penalty>
0

> <s_user_duplicate_titles>
CHEMBL286_lig1570,326756

> <i_f3d_flags>
0

> <s_m_subgroup_title>
dock_pv

> <s_m_subgroupid>
dock_pv

> <b_m_subgroup_collapsed>
1

$$$$
CHEMBL286_lig2046
                    3D
 Schrodinger Suite 2021-1.
 91 95  0  0  1  0            999 V2000
   -2.8320  -10.5320   -7.9699 C   0  0  0  0  0  0
   -3.8674  -10.5187   -6.8212 C   0  0  0  0  0  0
   -5.0104  -11.5438   -7.0492 C   0  0  0  0  0  0
   -2.2266  -11.8618   -8.2128 N   0  0  1  0  0  0
   -3.0044  -12.9744   -7.6264 C   0  0  1  0  0  0
   -4.5467  -12.7639   -7.8859 C   0  0  1  0  0  0
   -5.3258  -14.0546   -7.6497 C   0  0  0  0  0  0
   -4.7502  -15.2643   -7.7609 C   0  0  0  0  0  0
   -3.3255  -15.4356   -8.0211 C   0  0  0  0  0  0
   -2.5038  -14.3811   -7.9418 C   0  0  0  0  0  0
   -2.7524  -16.6172   -8.3631 O   0  0  0  0  0  0
   -3.4695  -17.4859   -9.2279 C   0  0  0  0  0  0
   -3.2656  -17.0082  -10.6863 C   0  0  2  0  0  0
   -3.9895  -17.8279  -11.6834 N   0  0  0  0  0  0
   -3.3864  -18.8119  -12.4257 C   0  0  0  0  0  0
   -1.8437  -18.9959  -12.2721 C   0  0  0  0  0  0
   -1.2020  -18.1954  -11.2202 N   0  0  1  0  0  0
   -1.7768  -16.8717  -11.0740 C   0  0  0  0  0  0
   -5.3921  -17.6893  -11.6601 C   0  0  0  0  0  0
   -5.9796  -16.4684  -12.0040 C   0  0  0  0  0  0
   -7.3629  -16.3163  -11.9113 C   0  0  0  0  0  0
   -8.1664  -17.3752  -11.4890 C   0  0  0  0  0  0
   -7.5704  -18.6024  -11.1629 C   0  0  0  0  0  0
   -6.1924  -18.7576  -11.2424 C   0  0  0  0  0  0
   -9.5248  -17.1380  -11.4076 O   0  0  0  0  0  0
  -10.3658  -18.1700  -10.9015 C   0  0  0  0  0  0
  -11.7945  -17.6585  -10.7042 C   0  0  0  0  0  0
  -11.8946  -16.4163   -9.8099 C   0  0  0  0  0  0
  -11.2185  -16.6237   -8.5768 O   0  0  0  0  0  0
  -11.7487  -15.9287   -7.4483 C   0  0  0  0  0  0
  -11.9539  -14.4229   -7.6539 C   0  0  0  0  0  0
  -13.1239  -13.8478   -7.1493 C   0  0  0  0  0  0
  -13.3380  -12.4750   -7.2317 C   0  0  0  0  0  0
  -12.3817  -11.6627   -7.8336 C   0  0  0  0  0  0
  -11.2208  -12.2271   -8.3543 C   0  0  0  0  0  0
  -10.9908  -13.6127   -8.2885 C   0  0  0  0  0  0
   -9.8680  -14.2227   -8.8205 O   0  0  0  0  0  0
   -8.7546  -13.4406   -9.2261 C   0  0  0  0  0  0
   -4.0142  -19.5189  -13.2189 O   0  0  0  0  0  0
   -1.8425  -12.0716   -9.6219 C   0  0  0  0  0  0
   -0.8647  -11.0188  -10.1685 C   0  0  0  0  0  0
    0.4016  -10.9671   -9.4328 N   0  0  0  0  0  0
    0.9883   -9.8462   -8.9894 C   0  0  0  0  0  0
    0.5319   -8.7204   -9.1818 O   0  0  0  0  0  0
    2.2975  -10.0136   -8.2326 C   0  0  0  0  0  0
   -2.0713   -9.7578   -7.8771 H   0  0  0  0  0  0
   -3.4221  -10.2819   -8.8543 H   0  0  0  0  0  0
   -3.3436  -10.7285   -5.8897 H   0  0  0  0  0  0
   -4.2721   -9.5189   -6.6990 H   0  0  0  0  0  0
   -5.3770  -11.8741   -6.0751 H   0  0  0  0  0  0
   -5.8683  -11.0832   -7.5395 H   0  0  0  0  0  0
   -2.8353  -12.9069   -6.5528 H   0  0  0  0  0  0
   -4.6312  -12.5006   -8.9413 H   0  0  0  0  0  0
   -6.3788  -14.0052   -7.4124 H   0  0  0  0  0  0
   -5.3567  -16.1340   -7.5592 H   0  0  0  0  0  0
   -1.4487  -14.5375   -8.1080 H   0  0  0  0  0  0
   -3.0650  -18.4902   -9.1014 H   0  0  0  0  0  0
   -4.5281  -17.5698   -8.9786 H   0  0  0  0  0  0
   -3.6639  -15.9946  -10.7403 H   0  0  0  0  0  0
   -1.3786  -18.7555  -13.2210 H   0  0  0  0  0  0
   -1.6457  -20.0549  -12.1007 H   0  0  0  0  0  0
   -1.1985  -18.6648  -10.3234 H   0  0  0  0  0  0
   -1.6926  -16.3410  -12.0209 H   0  0  0  0  0  0
   -1.2353  -16.2827  -10.3309 H   0  0  0  0  0  0
   -5.3712  -15.6392  -12.3391 H   0  0  0  0  0  0
   -7.8173  -15.3716  -12.1745 H   0  0  0  0  0  0
   -8.1545  -19.4495  -10.8433 H   0  0  0  0  0  0
   -5.7490  -19.7043  -10.9713 H   0  0  0  0  0  0
  -10.3731  -19.0154  -11.5939 H   0  0  0  0  0  0
   -9.9921  -18.5330   -9.9415 H   0  0  0  0  0  0
  -12.2406  -17.4451  -11.6751 H   0  0  0  0  0  0
  -12.3857  -18.4591  -10.2627 H   0  0  0  0  0  0
  -11.4720  -15.5581  -10.3257 H   0  0  0  0  0  0
  -12.9388  -16.1767   -9.6213 H   0  0  0  0  0  0
  -12.6859  -16.4114   -7.1624 H   0  0  0  0  0  0
  -11.0706  -16.0778   -6.6099 H   0  0  0  0  0  0
  -13.8679  -14.4625   -6.6640 H   0  0  0  0  0  0
  -14.2401  -12.0391   -6.8324 H   0  0  0  0  0  0
  -12.5385  -10.5979   -7.8968 H   0  0  0  0  0  0
  -10.5081  -11.5623   -8.8180 H   0  0  0  0  0  0
   -7.9224  -14.1037   -9.4692 H   0  0  0  0  0  0
   -8.9765  -12.8630  -10.1243 H   0  0  0  0  0  0
   -8.4201  -12.7670   -8.4363 H   0  0  0  0  0  0
   -2.7427  -12.0792  -10.2395 H   0  0  0  0  0  0
   -1.3764  -13.0471   -9.7627 H   0  0  0  0  0  0
   -1.3716  -10.0619  -10.1468 H   0  0  0  0  0  0
   -0.6655  -11.2120  -11.2211 H   0  0  0  0  0  0
    0.8656  -11.8502   -9.2841 H   0  0  0  0  0  0
    2.3817  -11.0077   -7.7878 H   0  0  0  0  0  0
    2.3640   -9.2749   -7.4314 H   0  0  0  0  0  0
    3.1390   -9.8573   -8.9096 H   0  0  0  0  0  0
  1  2  1  0  0  0
  1  4  1  0  0  0
  1 46  1  0  0  0
  1 47  1  0  0  0
  2  3  1  0  0  0
  2 48  1  0  0  0
  2 49  1  0  0  0
  3  6  1  0  0  0
  3 50  1  0  0  0
  3 51  1  0  0  0
  4  5  1  0  0  0
  4 40  1  0  0  0
  5  6  1  0  0  0
  5 10  1  0  0  0
  5 52  1  0  0  0
  6  7  1  0  0  0
  6 53  1  0  0  0
  7  8  2  0  0  0
  7 54  1  0  0  0
  8  9  1  0  0  0
  8 55  1  0  0  0
  9 11  1  0  0  0
  9 10  2  0  0  0
 10 56  1  0  0  0
 11 12  1  0  0  0
 12 13  1  0  0  0
 12 57  1  0  0  0
 12 58  1  0  0  0
 13 14  1  0  0  0
 13 18  1  0  0  0
 13 59  1  0  0  0
 14 19  1  0  0  0
 14 15  1  0  0  0
 15 16  1  0  0  0
 15 39  2  0  0  0
 16 17  1  0  0  0
 16 60  1  0  0  0
 16 61  1  0  0  0
 17 18  1  0  0  0
 17 62  1  0  0  0
 18 63  1  0  0  0
 18 64  1  0  0  0
 19 24  1  0  0  0
 19 20  2  0  0  0
 20 21  1  0  0  0
 20 65  1  0  0  0
 21 22  2  0  0  0
 21 66  1  0  0  0
 22 23  1  0  0  0
 22 25  1  0  0  0
 23 24  2  0  0  0
 23 67  1  0  0  0
 24 68  1  0  0  0
 25 26  1  0  0  0
 26 27  1  0  0  0
 26 69  1  0  0  0
 26 70  1  0  0  0
 27 28  1  0  0  0
 27 71  1  0  0  0
 27 72  1  0  0  0
 28 29  1  0  0  0
 28 73  1  0  0  0
 28 74  1  0  0  0
 29 30  1  0  0  0
 30 31  1  0  0  0
 30 75  1  0  0  0
 30 76  1  0  0  0
 31 32  2  0  0  0
 31 36  1  0  0  0
 32 33  1  0  0  0
 32 77  1  0  0  0
 33 34  2  0  0  0
 33 78  1  0  0  0
 34 35  1  0  0  0
 34 79  1  0  0  0
 35 36  2  0  0  0
 35 80  1  0  0  0
 36 37  1  0  0  0
 37 38  1  0  0  0
 38 81  1  0  0  0
 38 82  1  0  0  0
 38 83  1  0  0  0
 40 41  1  0  0  0
 40 84  1  0  0  0
 40 85  1  0  0  0
 41 42  1  0  0  0
 41 86  1  0  0  0
 41 87  1  0  0  0
 42 43  1  0  0  0
 42 88  1  0  0  0
 43 44  2  0  0  0
 43 45  1  0  0  0
 45 89  1  0  0  0
 45 90  1  0  0  0
 45 91  1  0  0  0
M  END
> <s_m_entry_id>
26183

> <s_m_entry_name>
dock_pv.7

> <s_m_Source_Path>
/home/csk/Desktop/cluster/DUD-E-result/reni

> <s_m_Source_File>
dock_pv.maegz

> <i_m_Source_File_Index>
7

> <chembl_id>
CHEMBL1276278

> <chembl_pref_name>
None

> <i_lp_mmshare_version>
53161

> <r_lp_tautomer_probability>
1

> <s_lp_Force_Field>
OPLS_2005

> <r_lp_Energy>
71.207675

> <b_lp_Chiralities_Consistent>
1

> <s_lp_Variant>
CHEMBL286_lig2046-1

> <s_i_glide_gridfile>
glide-grid_3g6z

> <i_i_glide_lignum>
5857

> <i_i_glide_rotatable_bonds>
16

> <r_i_docking_score>
-9.44506701657732

> <r_i_glide_ligand_efficiency>
-0.209890378146163

> <r_i_glide_ligand_efficiency_sa>
-0.746557679757675

> <r_i_glide_ligand_efficiency_ln>
-1.96499484552506

> <r_i_glide_gscore>
-9.44506701657732

> <r_i_glide_lipo>
-4.68868134671876

> <r_i_glide_hbond>
-0.688133390165666

> <r_i_glide_metal>
0

> <r_i_glide_rewards>
-0.731196782678262

> <r_i_glide_evdw>
-52.3677215576172

> <r_i_glide_ecoul>
-9.06034564971924

> <r_i_glide_erotb>
0.640382428324124

> <r_i_glide_esite>
0

> <r_i_glide_emodel>
-88.7157731710477

> <r_i_glide_energy>
-61.4280672073364

> <r_i_glide_einternal>
13.1455421447754

> <i_i_glide_confnum>
8

> <i_i_glide_posenum>
11

> <r_i_glide_eff_state_penalty>
0

> <s_user_duplicate_titles>
CHEMBL286_lig2046

> <i_f3d_flags>
0

> <s_m_subgroup_title>
dock_pv

> <s_m_subgroupid>
dock_pv

> <b_m_subgroup_collapsed>
1

$$$$
CHEMBL286_lig1964
                    3D
 Schrodinger Suite 2021-1.
 88 93  0  0  1  0            999 V2000
   -6.8389  -19.8376  -11.9935 C   0  0  0  0  0  0
   -5.4622  -20.2986  -12.5230 C   0  0  0  0  0  0
   -4.6268  -19.1842  -12.9826 N   0  0  1  0  0  0
   -4.4723  -18.1098  -11.9958 C   0  0  0  0  0  0
   -5.8334  -17.5913  -11.4591 C   0  0  1  0  0  0
   -6.6897  -18.7639  -10.8951 C   0  0  1  0  0  0
   -5.5734  -16.5514  -10.3281 C   0  0  0  0  0  0
   -8.0275  -18.2950  -10.3089 C   0  0  0  0  0  0
   -9.0421  -17.7875  -11.1256 C   0  0  0  0  0  0
  -10.1651  -17.2050  -10.5409 C   0  0  0  0  0  0
  -10.2532  -17.1315   -9.1419 C   0  0  0  0  0  0
   -9.3011  -17.6742   -8.3400 N   0  0  0  0  0  0
   -8.2178  -18.2417   -8.9228 C   0  0  0  0  0  0
  -11.3326  -16.4990   -8.5086 N   0  0  0  0  0  0
   -6.1947  -15.3367  -10.3364 N   0  0  0  0  0  0
   -4.8401  -16.8909   -9.3944 O   0  0  0  0  0  0
   -7.0468  -14.8269  -11.4230 C   0  0  0  0  0  0
   -6.2530  -14.5210   -9.1053 C   0  0  0  0  0  0
   -5.0695  -13.6067   -8.7769 C   0  0  0  0  0  0
   -3.8577  -13.6774   -9.4797 C   0  0  0  0  0  0
   -2.7935  -12.8551   -9.0991 C   0  0  0  0  0  0
   -2.8911  -11.9770   -8.0633 N   0  0  0  0  0  0
   -4.0738  -11.8891   -7.4081 C   0  0  0  0  0  0
   -5.1793  -12.6772   -7.7276 C   0  0  0  0  0  0
   -6.7913  -13.4440  -11.9873 C   0  0  0  0  0  0
   -6.5019  -14.6609  -12.8272 C   0  0  0  0  0  0
  -12.2709  -15.6182   -9.1924 C   0  0  0  0  0  0
  -12.8139  -14.6026   -8.1869 C   0  0  1  0  0  0
  -12.0363  -14.8740   -6.8982 C   0  0  0  0  0  0
  -11.5739  -16.3115   -7.0769 C   0  0  0  0  0  0
  -12.7229  -13.3154   -8.8051 O   0  0  0  0  0  0
  -12.0909  -12.3052   -8.1263 C   0  0  0  0  0  0
  -12.8333  -11.4453   -7.3111 C   0  0  0  0  0  0
  -12.1942  -10.4027   -6.6449 C   0  0  0  0  0  0
  -10.8279  -10.1834   -6.8186 C   0  0  0  0  0  0
  -10.0873  -11.0503   -7.6194 C   0  0  0  0  0  0
  -10.7041  -12.1282   -8.2431 C   0  0  0  0  0  0
  -14.5358  -11.6633   -7.1052 Cl  0  0  0  0  0  0
   -9.7122  -13.2630   -9.0904 Cl  0  0  0  0  0  0
   -6.6397  -12.4778   -6.8213 Cl  0  0  0  0  0  0
  -10.1367   -9.0374   -6.1142 C   0  0  0  0  0  0
   -1.4573  -12.9545   -9.8408 C   0  0  0  0  0  0
   -0.3935  -11.8769   -9.5220 C   0  0  0  0  0  0
   -0.7883  -10.4628   -9.9966 C   0  0  0  0  0  0
    0.1325   -9.4414   -9.6207 O   0  0  0  0  0  0
    0.2898   -9.2288   -8.2216 C   0  0  0  0  0  0
   -7.3379  -20.7162  -11.5818 H   0  0  0  0  0  0
   -7.4426  -19.4925  -12.8354 H   0  0  0  0  0  0
   -4.9256  -20.8422  -11.7438 H   0  0  0  0  0  0
   -5.6005  -20.9923  -13.3538 H   0  0  0  0  0  0
   -3.7022  -19.5173  -13.2188 H   0  0  0  0  0  0
   -3.8895  -17.2967  -12.4331 H   0  0  0  0  0  0
   -3.8835  -18.5399  -11.1814 H   0  0  0  0  0  0
   -6.3764  -17.1276  -12.2776 H   0  0  0  0  0  0
   -6.1491  -19.2391  -10.0720 H   0  0  0  0  0  0
   -8.9428  -17.7949  -12.2025 H   0  0  0  0  0  0
  -10.9352  -16.7971  -11.1781 H   0  0  0  0  0  0
   -7.4691  -18.6089   -8.2389 H   0  0  0  0  0  0
   -8.0879  -15.1393  -11.3244 H   0  0  0  0  0  0
   -6.3890  -15.1884   -8.2520 H   0  0  0  0  0  0
   -7.1466  -13.9007   -9.1396 H   0  0  0  0  0  0
   -3.7310  -14.3727  -10.2960 H   0  0  0  0  0  0
   -4.1212  -11.1759   -6.5980 H   0  0  0  0  0  0
   -7.6514  -12.8190  -12.2279 H   0  0  0  0  0  0
   -5.9463  -12.8631  -11.6188 H   0  0  0  0  0  0
   -5.4690  -14.9472  -13.0116 H   0  0  0  0  0  0
   -7.1565  -14.9109  -13.6625 H   0  0  0  0  0  0
  -11.7438  -15.0668   -9.9694 H   0  0  0  0  0  0
  -13.0689  -16.2046   -9.6207 H   0  0  0  0  0  0
  -13.8824  -14.7535   -8.0310 H   0  0  0  0  0  0
  -12.6713  -14.7626   -6.0217 H   0  0  0  0  0  0
  -11.1804  -14.2255   -6.7351 H   0  0  0  0  0  0
  -12.3557  -16.9842   -6.7295 H   0  0  0  0  0  0
  -10.6681  -16.4709   -6.4956 H   0  0  0  0  0  0
  -12.7732   -9.7356   -6.0234 H   0  0  0  0  0  0
   -9.0206  -10.9101   -7.7236 H   0  0  0  0  0  0
  -10.5303   -8.8991   -5.1073 H   0  0  0  0  0  0
   -9.0744   -9.2627   -6.0211 H   0  0  0  0  0  0
  -10.2615   -8.1093   -6.6715 H   0  0  0  0  0  0
   -1.6541  -12.9566  -10.9150 H   0  0  0  0  0  0
   -1.0374  -13.9359   -9.6122 H   0  0  0  0  0  0
    0.5468  -12.1517  -10.0021 H   0  0  0  0  0  0
   -0.1948  -11.8904   -8.4511 H   0  0  0  0  0  0
   -1.7796  -10.1872   -9.6414 H   0  0  0  0  0  0
   -0.8507  -10.4658  -11.0856 H   0  0  0  0  0  0
    0.8472   -8.3044   -8.0603 H   0  0  0  0  0  0
    0.8585  -10.0319   -7.7526 H   0  0  0  0  0  0
   -0.6691   -9.1317   -7.7102 H   0  0  0  0  0  0
  1  2  1  0  0  0
  1  6  1  0  0  0
  1 47  1  0  0  0
  1 48  1  0  0  0
  2  3  1  0  0  0
  2 49  1  0  0  0
  2 50  1  0  0  0
  3  4  1  0  0  0
  3 51  1  0  0  0
  4  5  1  0  0  0
  4 52  1  0  0  0
  4 53  1  0  0  0
  5  6  1  0  0  0
  5  7  1  0  0  0
  5 54  1  0  0  0
  6  8  1  0  0  0
  6 55  1  0  0  0
  7 15  1  0  0  0
  7 16  2  0  0  0
  8 13  1  0  0  0
  8  9  2  0  0  0
  9 10  1  0  0  0
  9 56  1  0  0  0
 10 11  2  0  0  0
 10 57  1  0  0  0
 11 12  1  0  0  0
 11 14  1  0  0  0
 12 13  2  0  0  0
 13 58  1  0  0  0
 14 27  1  0  0  0
 14 30  1  0  0  0
 15 17  1  0  0  0
 15 18  1  0  0  0
 17 25  1  0  0  0
 17 26  1  0  0  0
 17 59  1  0  0  0
 18 19  1  0  0  0
 18 60  1  0  0  0
 18 61  1  0  0  0
 19 24  1  0  0  0
 19 20  2  0  0  0
 20 21  1  0  0  0
 20 62  1  0  0  0
 21 42  1  0  0  0
 21 22  2  0  0  0
 22 23  1  0  0  0
 23 24  2  0  0  0
 23 63  1  0  0  0
 24 40  1  0  0  0
 25 26  1  0  0  0
 25 64  1  0  0  0
 25 65  1  0  0  0
 26 66  1  0  0  0
 26 67  1  0  0  0
 27 28  1  0  0  0
 27 68  1  0  0  0
 27 69  1  0  0  0
 28 29  1  0  0  0
 28 31  1  0  0  0
 28 70  1  0  0  0
 29 30  1  0  0  0
 29 71  1  0  0  0
 29 72  1  0  0  0
 30 73  1  0  0  0
 30 74  1  0  0  0
 31 32  1  0  0  0
 32 33  2  0  0  0
 32 37  1  0  0  0
 33 34  1  0  0  0
 33 38  1  0  0  0
 34 35  2  0  0  0
 34 75  1  0  0  0
 35 36  1  0  0  0
 35 41  1  0  0  0
 36 37  2  0  0  0
 36 76  1  0  0  0
 37 39  1  0  0  0
 41 77  1  0  0  0
 41 78  1  0  0  0
 41 79  1  0  0  0
 42 43  1  0  0  0
 42 80  1  0  0  0
 42 81  1  0  0  0
 43 44  1  0  0  0
 43 82  1  0  0  0
 43 83  1  0  0  0
 44 45  1  0  0  0
 44 84  1  0  0  0
 44 85  1  0  0  0
 45 46  1  0  0  0
 46 86  1  0  0  0
 46 87  1  0  0  0
 46 88  1  0  0  0
M  END
> <s_m_entry_id>
26185

> <s_m_entry_name>
dock_pv.9

> <s_m_Source_Path>
/home/csk/Desktop/cluster/DUD-E-result/reni

> <s_m_Source_File>
dock_pv.maegz

> <i_m_Source_File_Index>
9

> <chembl_id>
CHEMBL1269759

> <chembl_pref_name>
None

> <i_lp_mmshare_version>
53161

> <r_lp_tautomer_probability>
1

> <s_lp_Force_Field>
OPLS_2005

> <r_lp_Energy>
78.520756

> <b_lp_Chiralities_Consistent>
1

> <s_lp_Variant>
CHEMBL286_lig1964-1

> <s_i_glide_gridfile>
glide-grid_3g6z

> <i_i_glide_lignum>
5753

> <i_i_glide_rotatable_bonds>
13

> <r_i_docking_score>
-9.3353914881694

> <r_i_glide_ligand_efficiency>
-0.202943293221074

> <r_i_glide_ligand_efficiency_sa>
-0.727155533784728

> <r_i_glide_ligand_efficiency_ln>
-1.93333708627797

> <r_i_glide_gscore>
-9.3353914881694

> <r_i_glide_lipo>
-5.11070115562202

> <r_i_glide_hbond>
-0.54797206808692

> <r_i_glide_metal>
0

> <r_i_glide_rewards>
0.0999871150562276

> <r_i_glide_evdw>
-59.4032821655273

> <r_i_glide_ecoul>
-7.87098979949951

> <r_i_glide_erotb>
0.374107198684604

> <r_i_glide_esite>
0

> <r_i_glide_emodel>
-88.2712842905825

> <r_i_glide_energy>
-67.2742719650269

> <r_i_glide_einternal>
17.6177806854248

> <i_i_glide_confnum>
28

> <i_i_glide_posenum>
163

> <r_i_glide_eff_state_penalty>
0

> <s_user_duplicate_titles>
CHEMBL286_lig1964

> <i_f3d_flags>
0

> <s_m_subgroup_title>
dock_pv

> <s_m_subgroupid>
dock_pv

> <b_m_subgroup_collapsed>
1

$$$$
CHEMBL286_lig1952
                    3D
 Schrodinger Suite 2021-1.
 83 87  0  0  1  0            999 V2000
  -12.8545  -14.2174   -7.9848 C   0  0  0  0  0  0
  -12.0477  -15.2676   -8.4185 C   0  0  0  0  0  0
  -10.7256  -15.0234   -8.8211 C   0  0  0  0  0  0
  -10.2212  -13.7164   -8.7478 C   0  0  0  0  0  0
  -11.0376  -12.6694   -8.3151 C   0  0  0  0  0  0
  -12.3568  -12.9155   -7.9343 C   0  0  0  0  0  0
  -13.2497  -11.7757   -7.4792 C   0  0  0  0  0  0
   -8.5772  -13.3904   -9.1725 Cl  0  0  0  0  0  0
  -12.7033  -16.8623   -8.4210 Cl  0  0  0  0  0  0
   -9.8905  -16.0429   -9.2193 O   0  0  0  0  0  0
  -10.1860  -16.6626  -10.4738 C   0  0  0  0  0  0
   -8.8758  -16.9183  -11.2363 C   0  0  0  0  0  0
   -8.0179  -17.7118  -10.4185 O   0  0  0  0  0  0
   -6.6613  -17.7019  -10.6620 C   0  0  0  0  0  0
   -5.9332  -18.1793   -9.6219 N   0  0  0  0  0  0
   -4.5810  -18.1566   -9.7162 C   0  0  0  0  0  0
   -3.8991  -17.6880  -10.8443 C   0  0  0  0  0  0
   -4.6627  -17.2454  -11.9327 C   0  0  0  0  0  0
   -6.0567  -17.2479  -11.8474 C   0  0  0  0  0  0
   -2.3681  -17.5809  -10.8409 C   0  0  1  0  0  0
   -1.6984  -18.4634  -11.9151 C   0  0  0  0  0  0
   -0.1597  -18.2855  -11.9485 C   0  0  0  0  0  0
    0.2615  -16.8819  -12.0212 N   0  0  1  0  0  0
   -0.2994  -16.0781  -10.9337 C   0  0  0  0  0  0
   -1.8462  -16.1195  -10.9697 C   0  0  2  0  0  0
   -2.3935  -15.2197   -9.8264 C   0  0  0  0  0  0
   -2.9385  -14.0028  -10.1003 N   0  0  0  0  0  0
   -2.3478  -15.6699   -8.6771 O   0  0  0  0  0  0
   -2.6705  -13.2860  -11.3691 C   0  0  0  0  0  0
   -3.6910  -13.2937   -9.0420 C   0  0  0  0  0  0
   -2.9361  -12.2326   -8.2331 C   0  0  0  0  0  0
   -1.5399  -12.1032   -8.3000 C   0  0  0  0  0  0
   -0.9126  -11.0823   -7.5802 C   0  0  0  0  0  0
   -1.6059  -10.2058   -6.8068 N   0  0  0  0  0  0
   -2.9552  -10.3424   -6.7481 C   0  0  0  0  0  0
   -3.6554  -11.3324   -7.4338 C   0  0  0  0  0  0
   -5.3751  -11.4167   -7.2695 Cl  0  0  0  0  0  0
   -3.8006  -12.6460  -12.1478 C   0  0  0  0  0  0
   -2.7753  -11.7764  -11.4555 C   0  0  0  0  0  0
    0.6005  -10.8966   -7.6295 C   0  0  0  0  0  0
    1.0800   -9.8170   -8.6248 C   0  0  0  0  0  0
    0.7898   -8.3713   -8.1804 C   0  0  0  0  0  0
    1.0860   -7.4480   -9.2178 O   0  0  0  0  0  0
    2.4238   -6.9724   -9.2205 C   0  0  0  0  0  0
  -13.8702  -14.4209   -7.6789 H   0  0  0  0  0  0
  -10.6413  -11.6638   -8.2753 H   0  0  0  0  0  0
  -13.1234  -11.5883   -6.4119 H   0  0  0  0  0  0
  -13.0130  -10.8625   -8.0202 H   0  0  0  0  0  0
  -14.2992  -11.9902   -7.6793 H   0  0  0  0  0  0
  -10.8625  -16.0664  -11.0910 H   0  0  0  0  0  0
  -10.6911  -17.6115  -10.2882 H   0  0  0  0  0  0
   -8.4194  -15.9529  -11.4671 H   0  0  0  0  0  0
   -9.0738  -17.4290  -12.1815 H   0  0  0  0  0  0
   -4.0420  -18.4922   -8.8417 H   0  0  0  0  0  0
   -4.1845  -16.8641  -12.8243 H   0  0  0  0  0  0
   -6.6451  -16.8981  -12.6838 H   0  0  0  0  0  0
   -2.0397  -17.9796   -9.8767 H   0  0  0  0  0  0
   -1.8839  -19.5119  -11.6790 H   0  0  0  0  0  0
   -2.1149  -18.2965  -12.9057 H   0  0  0  0  0  0
    0.2933  -18.7566  -11.0740 H   0  0  0  0  0  0
    0.2441  -18.8013  -12.8215 H   0  0  0  0  0  0
    1.2740  -16.8514  -11.9676 H   0  0  0  0  0  0
    0.0759  -15.0536  -10.9922 H   0  0  0  0  0  0
    0.0656  -16.5090   -9.9982 H   0  0  0  0  0  0
   -2.2134  -15.7269  -11.9160 H   0  0  0  0  0  0
   -1.8472  -13.6972  -11.9492 H   0  0  0  0  0  0
   -4.0980  -14.0094   -8.3270 H   0  0  0  0  0  0
   -4.5600  -12.8236   -9.5004 H   0  0  0  0  0  0
   -0.9476  -12.7694   -8.9076 H   0  0  0  0  0  0
   -3.4827   -9.6453   -6.1128 H   0  0  0  0  0  0
   -3.7792  -12.7195  -13.2335 H   0  0  0  0  0  0
   -4.8148  -12.7052  -11.7539 H   0  0  0  0  0  0
   -3.1015  -11.1878  -10.6046 H   0  0  0  0  0  0
   -1.9931  -11.2708  -12.0216 H   0  0  0  0  0  0
    1.0502  -11.8532   -7.8988 H   0  0  0  0  0  0
    0.9736  -10.6858   -6.6246 H   0  0  0  0  0  0
    0.6295  -10.0016   -9.6005 H   0  0  0  0  0  0
    2.1551   -9.9242   -8.7679 H   0  0  0  0  0  0
    1.3012   -8.1252   -7.2467 H   0  0  0  0  0  0
   -0.2699   -8.2570   -7.9757 H   0  0  0  0  0  0
    2.5310   -6.2418  -10.0205 H   0  0  0  0  0  0
    3.1403   -7.7767   -9.3992 H   0  0  0  0  0  0
    2.6770   -6.4728   -8.2857 H   0  0  0  0  0  0
  1  6  1  0  0  0
  1  2  2  0  0  0
  1 45  1  0  0  0
  2  3  1  0  0  0
  2  9  1  0  0  0
  3  4  2  0  0  0
  3 10  1  0  0  0
  4  8  1  0  0  0
  4  5  1  0  0  0
  5  6  2  0  0  0
  5 46  1  0  0  0
  6  7  1  0  0  0
  7 47  1  0  0  0
  7 48  1  0  0  0
  7 49  1  0  0  0
 10 11  1  0  0  0
 11 12  1  0  0  0
 11 50  1  0  0  0
 11 51  1  0  0  0
 12 13  1  0  0  0
 12 52  1  0  0  0
 12 53  1  0  0  0
 13 14  1  0  0  0
 14 15  2  0  0  0
 14 19  1  0  0  0
 15 16  1  0  0  0
 16 17  2  0  0  0
 16 54  1  0  0  0
 17 18  1  0  0  0
 17 20  1  0  0  0
 18 19  2  0  0  0
 18 55  1  0  0  0
 19 56  1  0  0  0
 20 25  1  0  0  0
 20 21  1  0  0  0
 20 57  1  0  0  0
 21 22  1  0  0  0
 21 58  1  0  0  0
 21 59  1  0  0  0
 22 23  1  0  0  0
 22 60  1  0  0  0
 22 61  1  0  0  0
 23 24  1  0  0  0
 23 62  1  0  0  0
 24 25  1  0  0  0
 24 63  1  0  0  0
 24 64  1  0  0  0
 25 26  1  0  0  0
 25 65  1  0  0  0
 26 27  1  0  0  0
 26 28  2  0  0  0
 27 29  1  0  0  0
 27 30  1  0  0  0
 29 38  1  0  0  0
 29 39  1  0  0  0
 29 66  1  0  0  0
 30 31  1  0  0  0
 30 67  1  0  0  0
 30 68  1  0  0  0
 31 32  2  0  0  0
 31 36  1  0  0  0
 32 33  1  0  0  0
 32 69  1  0  0  0
 33 34  2  0  0  0
 33 40  1  0  0  0
 34 35  1  0  0  0
 35 36  2  0  0  0
 35 70  1  0  0  0
 36 37  1  0  0  0
 38 39  1  0  0  0
 38 71  1  0  0  0
 38 72  1  0  0  0
 39 73  1  0  0  0
 39 74  1  0  0  0
 40 41  1  0  0  0
 40 75  1  0  0  0
 40 76  1  0  0  0
 41 42  1  0  0  0
 41 77  1  0  0  0
 41 78  1  0  0  0
 42 43  1  0  0  0
 42 79  1  0  0  0
 42 80  1  0  0  0
 43 44  1  0  0  0
 44 81  1  0  0  0
 44 82  1  0  0  0
 44 83  1  0  0  0
M  END
> <s_m_entry_id>
26186

> <s_m_entry_name>
dock_pv.10

> <s_m_Source_Path>
/home/csk/Desktop/cluster/DUD-E-result/reni

> <s_m_Source_File>
dock_pv.maegz

> <i_m_Source_File_Index>
10

> <chembl_id>
CHEMBL1269747

> <chembl_pref_name>
None

> <i_lp_mmshare_version>
53161

> <r_lp_tautomer_probability>
1

> <s_lp_Force_Field>
OPLS_2005

> <r_lp_Energy>
58.514825

> <b_lp_Chiralities_Consistent>
1

> <s_lp_Variant>
CHEMBL286_lig1952-1

> <s_i_glide_gridfile>
glide-grid_3g6z

> <i_i_glide_lignum>
5741

> <i_i_glide_rotatable_bonds>
15

> <r_i_docking_score>
-9.28163463459926

> <r_i_glide_ligand_efficiency>
-0.210946241695438

> <r_i_glide_ligand_efficiency_sa>
-0.744713712273399

> <r_i_glide_ligand_efficiency_ln>
-1.94006411635435

> <r_i_glide_gscore>
-9.28163463459926

> <r_i_glide_lipo>
-4.21231568263189

> <r_i_glide_hbond>
-0.528827078618846

> <r_i_glide_metal>
0

> <r_i_glide_rewards>
-1.20054737483175

> <r_i_glide_evdw>
-52.9893646240234

> <r_i_glide_ecoul>
-8.08640480041504

> <r_i_glide_erotb>
0.522484452746653

> <r_i_glide_esite>
0

> <r_i_glide_emodel>
-90.8480066672882

> <r_i_glide_energy>
-61.0757694244385

> <r_i_glide_einternal>
7.8726372718811

> <i_i_glide_confnum>
10

> <i_i_glide_posenum>
86

> <r_i_glide_eff_state_penalty>
0

> <s_user_duplicate_titles>
CHEMBL286_lig1952

> <i_f3d_flags>
0

> <s_m_subgroup_title>
dock_pv

> <s_m_subgroupid>
dock_pv

> <b_m_subgroup_collapsed>
1

$$$$
CHEMBL286_lig2032
                    3D
 Schrodinger Suite 2021-1.
102104  0  0  1  0            999 V2000
   -1.5171  -18.1891   -9.9520 C   0  0  2  0  0  0
   -2.5418  -17.0466  -10.0568 C   0  0  0  0  0  0
   -0.1261  -17.7465  -10.4735 C   0  0  0  0  0  0
   -2.6034  -16.3839  -11.0950 O   0  0  0  0  0  0
   -3.2868  -16.7770   -8.9768 N   0  0  0  0  0  0
   -4.0976  -15.5705   -8.9615 C   0  0  0  0  0  0
   -4.9749  -15.3607   -7.7170 C   0  0  0  0  0  0
   -5.8698  -14.1026   -7.8489 C   0  0  0  0  0  0
   -5.0836  -12.7956   -7.9303 C   0  0  0  0  0  0
    0.4427  -16.4193   -9.9008 C   0  0  1  0  0  0
    0.6573  -16.4588   -8.3671 C   0  0  0  0  0  0
    1.7318  -16.0648  -10.6492 C   0  0  0  0  0  0
    1.0627  -15.1113   -7.7463 C   0  0  0  0  0  0
   -4.4268  -12.4302   -9.1117 C   0  0  0  0  0  0
   -3.6540  -11.2717   -9.1558 C   0  0  0  0  0  0
   -3.5733  -10.4631   -8.0242 C   0  0  0  0  0  0
   -4.2675  -10.7932   -6.8718 C   0  0  0  0  0  0
   -5.0121  -11.9639   -6.8131 C   0  0  0  0  0  0
   -1.9840  -19.4169  -10.6036 N   0  0  0  0  0  0
   -2.3254  -19.5846  -11.8963 C   0  0  0  0  0  0
   -2.8286  -20.9964  -12.2832 C   0  0  1  0  0  0
   -2.2834  -18.7030  -12.7530 O   0  0  0  0  0  0
   -4.2175  -20.9009  -12.8201 N   0  0  2  0  0  0
   -1.8224  -21.5532  -13.3481 C   0  0  0  0  0  0
   -2.2711  -22.9025  -13.9278 C   0  0  0  0  0  0
   -0.3606  -21.6654  -12.8506 C   0  0  0  0  0  0
   -5.3380  -20.6664  -11.9009 C   0  0  0  0  0  0
   -5.4544  -19.2392  -11.3082 C   0  0  2  0  0  0
   -6.6965  -19.0689  -10.3973 C   0  0  1  0  0  0
   -5.4464  -18.2610  -12.3374 O   0  0  0  0  0  0
   -6.5331  -17.8569   -9.6157 N   0  0  0  0  0  0
   -8.0631  -18.9823  -11.1089 C   0  0  0  0  0  0
   -9.2549  -19.2259  -10.1537 C   0  0  0  0  0  0
  -10.5290  -18.4444  -10.5311 C   0  0  0  0  0  0
  -10.7729  -17.1670   -9.7240 C   0  0  0  0  0  0
  -12.0443  -16.9282   -9.2204 C   0  0  0  0  0  0
  -12.3560  -15.7326   -8.5952 C   0  0  0  0  0  0
  -11.3906  -14.7350   -8.4200 C   0  0  0  0  0  0
  -10.0785  -15.0316   -8.8311 C   0  0  0  0  0  0
   -9.7756  -16.2161   -9.5055 C   0  0  0  0  0  0
  -11.7678  -13.3901   -7.8687 C   0  0  0  0  0  0
  -13.0236  -13.1715   -7.2733 C   0  0  0  0  0  0
  -13.3986  -11.9124   -6.8212 C   0  0  0  0  0  0
  -12.4974  -10.8625   -6.9102 C   0  0  0  0  0  0
  -11.2505  -11.0415   -7.4906 C   0  0  0  0  0  0
  -10.8961  -12.2943   -7.9762 C   0  0  0  0  0  0
   -1.4134  -18.4453   -8.8975 H   0  0  0  0  0  0
    0.5917  -18.5461  -10.3011 H   0  0  0  0  0  0
   -0.1791  -17.6548  -11.5573 H   0  0  0  0  0  0
   -3.2379  -17.3389   -8.1385 H   0  0  0  0  0  0
   -4.7380  -15.5405   -9.8478 H   0  0  0  0  0  0
   -3.4024  -14.7384   -9.0520 H   0  0  0  0  0  0
   -4.3502  -15.2716   -6.8239 H   0  0  0  0  0  0
   -5.6131  -16.2332   -7.5680 H   0  0  0  0  0  0
   -6.5601  -14.0585   -7.0032 H   0  0  0  0  0  0
   -6.5086  -14.1825   -8.7300 H   0  0  0  0  0  0
   -0.2581  -15.6118  -10.1168 H   0  0  0  0  0  0
   -0.2602  -16.7806   -7.8773 H   0  0  0  0  0  0
    1.4063  -17.2108   -8.1123 H   0  0  0  0  0  0
    2.5202  -16.7840  -10.4195 H   0  0  0  0  0  0
    1.5815  -16.0663  -11.7298 H   0  0  0  0  0  0
    2.0974  -15.0734  -10.3810 H   0  0  0  0  0  0
    1.1053  -15.1805   -6.6597 H   0  0  0  0  0  0
    2.0456  -14.7905   -8.0881 H   0  0  0  0  0  0
    0.3447  -14.3311   -8.0015 H   0  0  0  0  0  0
   -4.4958  -13.0418   -9.9992 H   0  0  0  0  0  0
   -3.1264  -11.0072  -10.0597 H   0  0  0  0  0  0
   -2.9803   -9.5673   -8.0227 H   0  0  0  0  0  0
   -4.2118  -10.1342   -6.0209 H   0  0  0  0  0  0
   -5.5189  -12.2256   -5.8951 H   0  0  0  0  0  0
   -2.0587  -20.2154   -9.9896 H   0  0  0  0  0  0
   -2.8030  -21.6575  -11.4134 H   0  0  0  0  0  0
   -4.4152  -21.7466  -13.3377 H   0  0  0  0  0  0
   -1.7990  -20.8661  -14.1975 H   0  0  0  0  0  0
   -2.3740  -23.6656  -13.1544 H   0  0  0  0  0  0
   -3.2390  -22.8193  -14.4220 H   0  0  0  0  0  0
   -1.5649  -23.2620  -14.6747 H   0  0  0  0  0  0
   -0.2933  -22.3348  -11.9947 H   0  0  0  0  0  0
    0.2975  -22.0616  -13.6230 H   0  0  0  0  0  0
    0.0585  -20.7064  -12.5506 H   0  0  0  0  0  0
   -6.2471  -20.8779  -12.4640 H   0  0  0  0  0  0
   -5.3097  -21.4110  -11.1041 H   0  0  0  0  0  0
   -4.5938  -19.0721  -10.6676 H   0  0  0  0  0  0
   -6.7183  -19.9084   -9.7006 H   0  0  0  0  0  0
   -4.5227  -18.0738  -12.5677 H   0  0  0  0  0  0
   -6.3727  -17.0990  -10.2661 H   0  0  0  0  0  0
   -7.3965  -17.6476   -9.1412 H   0  0  0  0  0  0
   -8.1557  -18.0173  -11.6125 H   0  0  0  0  0  0
   -8.1151  -19.7155  -11.9139 H   0  0  0  0  0  0
   -9.4810  -20.2931  -10.1689 H   0  0  0  0  0  0
   -8.9984  -19.0190   -9.1151 H   0  0  0  0  0  0
  -10.5449  -18.2031  -11.5950 H   0  0  0  0  0  0
  -11.3791  -19.1134  -10.3837 H   0  0  0  0  0  0
  -12.8223  -17.6603   -9.3467 H   0  0  0  0  0  0
  -13.3840  -15.6054   -8.2965 H   0  0  0  0  0  0
   -9.2760  -14.3236   -8.7037 H   0  0  0  0  0  0
   -8.7793  -16.3707   -9.8830 H   0  0  0  0  0  0
  -13.7388  -13.9675   -7.1481 H   0  0  0  0  0  0
  -14.3706  -11.7604   -6.3765 H   0  0  0  0  0  0
  -12.7796   -9.8846   -6.5456 H   0  0  0  0  0  0
  -10.5657  -10.2109   -7.5732 H   0  0  0  0  0  0
   -9.9268  -12.3852   -8.4399 H   0  0  0  0  0  0
  1 19  1  0  0  0
  1  2  1  0  0  0
  1  3  1  0  0  0
  1 47  1  0  0  0
  2  4  2  0  0  0
  2  5  1  0  0  0
  3 10  1  0  0  0
  3 48  1  0  0  0
  3 49  1  0  0  0
  5  6  1  0  0  0
  5 50  1  0  0  0
  6  7  1  0  0  0
  6 51  1  0  0  0
  6 52  1  0  0  0
  7  8  1  0  0  0
  7 53  1  0  0  0
  7 54  1  0  0  0
  8  9  1  0  0  0
  8 55  1  0  0  0
  8 56  1  0  0  0
  9 14  2  0  0  0
  9 18  1  0  0  0
 10 12  1  0  0  0
 10 11  1  0  0  0
 10 57  1  0  0  0
 11 13  1  0  0  0
 11 58  1  0  0  0
 11 59  1  0  0  0
 12 60  1  0  0  0
 12 61  1  0  0  0
 12 62  1  0  0  0
 13 63  1  0  0  0
 13 64  1  0  0  0
 13 65  1  0  0  0
 14 15  1  0  0  0
 14 66  1  0  0  0
 15 16  2  0  0  0
 15 67  1  0  0  0
 16 17  1  0  0  0
 16 68  1  0  0  0
 17 18  2  0  0  0
 17 69  1  0  0  0
 18 70  1  0  0  0
 19 20  1  0  0  0
 19 71  1  0  0  0
 20 21  1  0  0  0
 20 22  2  0  0  0
 21 23  1  0  0  0
 21 24  1  0  0  0
 21 72  1  0  0  0
 23 27  1  0  0  0
 23 73  1  0  0  0
 24 25  1  0  0  0
 24 26  1  0  0  0
 24 74  1  0  0  0
 25 75  1  0  0  0
 25 76  1  0  0  0
 25 77  1  0  0  0
 26 78  1  0  0  0
 26 79  1  0  0  0
 26 80  1  0  0  0
 27 28  1  0  0  0
 27 81  1  0  0  0
 27 82  1  0  0  0
 28 29  1  0  0  0
 28 30  1  0  0  0
 28 83  1  0  0  0
 29 31  1  0  0  0
 29 32  1  0  0  0
 29 84  1  0  0  0
 30 85  1  0  0  0
 31 86  1  0  0  0
 31 87  1  0  0  0
 32 33  1  0  0  0
 32 88  1  0  0  0
 32 89  1  0  0  0
 33 34  1  0  0  0
 33 90  1  0  0  0
 33 91  1  0  0  0
 34 35  1  0  0  0
 34 92  1  0  0  0
 34 93  1  0  0  0
 35 36  2  0  0  0
 35 40  1  0  0  0
 36 37  1  0  0  0
 36 94  1  0  0  0
 37 38  2  0  0  0
 37 95  1  0  0  0
 38 39  1  0  0  0
 38 41  1  0  0  0
 39 40  2  0  0  0
 39 96  1  0  0  0
 40 97  1  0  0  0
 41 42  2  0  0  0
 41 46  1  0  0  0
 42 43  1  0  0  0
 42 98  1  0  0  0
 43 44  2  0  0  0
 43 99  1  0  0  0
 44 45  1  0  0  0
 44100  1  0  0  0
 45 46  2  0  0  0
 45101  1  0  0  0
 46102  1  0  0  0
M  END
> <s_m_entry_id>
26187

> <s_m_entry_name>
dock_pv.11

> <s_m_Source_Path>
/home/csk/Desktop/cluster/DUD-E-result/reni

> <s_m_Source_File>
dock_pv.maegz

> <i_m_Source_File_Index>
11

> <chembl_id>
CHEMBL1276273

> <chembl_pref_name>
None

> <i_lp_mmshare_version>
53161

> <r_lp_tautomer_probability>
1

> <s_lp_Force_Field>
OPLS_2005

> <r_lp_Energy>
43.408562

> <b_lp_Chiralities_Consistent>
1

> <s_lp_Variant>
CHEMBL286_lig2032-2

> <s_i_glide_gridfile>
glide-grid_3g6z

> <i_i_glide_lignum>
5839

> <i_i_glide_rotatable_bonds>
23

> <r_i_docking_score>
-9.26840369406805

> <r_i_glide_ligand_efficiency>
-0.201487036827566

> <r_i_glide_ligand_efficiency_sa>
-0.721937697420976

> <r_i_glide_ligand_efficiency_ln>
-1.91946407550727

> <r_i_glide_gscore>
-9.26840369406805

> <r_i_glide_lipo>
-5.63890515247556

> <r_i_glide_hbond>
-0.0573789279171007

> <r_i_glide_metal>
0

> <r_i_glide_rewards>
-1.1088548784894

> <r_i_glide_evdw>
-54.6770629882812

> <r_i_glide_ecoul>
-4.03294515609741

> <r_i_glide_erotb>
0.877740818243228

> <r_i_glide_esite>
-0.00221063060054296

> <r_i_glide_emodel>
-82.8825219933128

> <r_i_glide_energy>
-58.7100081443787

> <r_i_glide_einternal>
15.1589374542236

> <i_i_glide_confnum>
9

> <i_i_glide_posenum>
156

> <r_i_glide_eff_state_penalty>
0

> <s_user_duplicate_titles>
CHEMBL286_lig2032

> <i_f3d_flags>
0

> <s_m_subgroup_title>
dock_pv

> <s_m_subgroupid>
dock_pv

> <b_m_subgroup_collapsed>
1

$$$$
CHEMBL286_lig1951
                    3D
 Schrodinger Suite 2021-1.
 82 86  0  0  1  0            999 V2000
  -10.4181  -11.1376   -7.4192 C   0  0  0  0  0  0
  -10.8452  -12.2907   -8.0788 C   0  0  0  0  0  0
  -12.2135  -12.6037   -8.1415 C   0  0  0  0  0  0
  -13.1372  -11.7588   -7.5191 C   0  0  0  0  0  0
  -12.6917  -10.6386   -6.8209 C   0  0  0  0  0  0
  -11.3357  -10.3131   -6.7750 C   0  0  0  0  0  0
  -10.8650   -9.0590   -6.0610 C   0  0  0  0  0  0
  -14.8349  -12.0630   -7.6229 Cl  0  0  0  0  0  0
   -9.6538  -13.2986   -8.8210 Cl  0  0  0  0  0  0
  -12.6681  -13.6933   -8.8461 O   0  0  0  0  0  0
  -12.4821  -14.9621   -8.2203 C   0  0  0  0  0  0
  -11.8911  -15.9272   -9.2600 C   0  0  0  0  0  0
  -11.0336  -16.8588   -8.6042 O   0  0  0  0  0  0
   -9.9445  -17.3774   -9.2759 C   0  0  0  0  0  0
   -9.8151  -17.1898  -10.6218 N   0  0  0  0  0  0
   -8.6773  -17.6241  -11.2237 C   0  0  0  0  0  0
   -7.6350  -18.2358  -10.5182 C   0  0  0  0  0  0
   -7.8277  -18.4855   -9.1550 C   0  0  0  0  0  0
   -8.9878  -18.0498   -8.5232 C   0  0  0  0  0  0
   -6.2804  -18.5483  -11.1692 C   0  0  1  0  0  0
   -6.3720  -19.5797  -12.3043 C   0  0  0  0  0  0
   -4.9616  -19.9524  -12.7983 C   0  0  0  0  0  0
   -4.1867  -18.7822  -13.2207 N   0  0  1  0  0  0
   -4.0993  -17.7178  -12.2126 C   0  0  0  0  0  0
   -5.4857  -17.2897  -11.6615 C   0  0  2  0  0  0
   -5.2808  -16.3196  -10.4573 C   0  0  0  0  0  0
   -5.6992  -15.0206  -10.5032 N   0  0  0  0  0  0
   -4.7790  -16.7942   -9.4335 O   0  0  0  0  0  0
   -5.9015  -14.2630  -11.7560 C   0  0  0  0  0  0
   -5.8327  -14.2573   -9.2377 C   0  0  0  0  0  0
   -4.7767  -13.2176   -8.8313 C   0  0  0  0  0  0
   -3.6709  -12.9037   -9.6365 C   0  0  0  0  0  0
   -2.7637  -11.9048   -9.2492 C   0  0  0  0  0  0
   -2.9575  -11.2297   -8.0412 C   0  0  0  0  0  0
   -4.0355  -11.5482   -7.2234 C   0  0  0  0  0  0
   -4.9412  -12.5320   -7.6133 C   0  0  0  0  0  0
   -6.2691  -12.8636   -6.5610 Cl  0  0  0  0  0  0
   -7.0931  -14.5452  -12.6583 C   0  0  0  0  0  0
   -7.0432  -13.2628  -11.8845 C   0  0  0  0  0  0
   -1.6163  -11.4930  -10.1600 C   0  0  0  0  0  0
   -0.2892  -11.5869   -9.5488 N   0  0  0  0  0  0
    0.4644  -10.4861   -9.1721 C   0  0  0  0  0  0
    0.1312   -9.2987   -9.2565 O   0  0  0  0  0  0
    1.6441  -10.9161   -8.6938 O   0  0  0  0  0  0
    2.6253   -9.9889   -8.2510 C   0  0  0  0  0  0
   -9.3653  -10.8942   -7.3921 H   0  0  0  0  0  0
  -13.4162   -9.9923   -6.3547 H   0  0  0  0  0  0
  -10.2703   -9.3215   -5.1855 H   0  0  0  0  0  0
  -10.2335   -8.4646   -6.7232 H   0  0  0  0  0  0
  -11.7004   -8.4304   -5.7474 H   0  0  0  0  0  0
  -13.4500  -15.3269   -7.8725 H   0  0  0  0  0  0
  -11.8393  -14.9118   -7.3367 H   0  0  0  0  0  0
  -11.3753  -15.3405  -10.0204 H   0  0  0  0  0  0
  -12.6686  -16.4855   -9.7730 H   0  0  0  0  0  0
   -8.5972  -17.4371  -12.2869 H   0  0  0  0  0  0
   -7.0673  -18.9724   -8.5677 H   0  0  0  0  0  0
   -9.1261  -18.1905   -7.4626 H   0  0  0  0  0  0
   -5.6932  -19.0328  -10.3839 H   0  0  0  0  0  0
   -6.8425  -20.4938  -11.9406 H   0  0  0  0  0  0
   -6.9721  -19.2235  -13.1445 H   0  0  0  0  0  0
   -4.4112  -20.4603  -12.0047 H   0  0  0  0  0  0
   -5.0392  -20.6622  -13.6213 H   0  0  0  0  0  0
   -3.2480  -19.0513  -13.4851 H   0  0  0  0  0  0
   -3.5727  -16.8628  -12.6402 H   0  0  0  0  0  0
   -3.4822  -18.1213  -11.4077 H   0  0  0  0  0  0
   -6.0447  -16.8032  -12.4537 H   0  0  0  0  0  0
   -4.9624  -14.0192  -12.2566 H   0  0  0  0  0  0
   -5.9226  -14.9486   -8.3969 H   0  0  0  0  0  0
   -6.7951  -13.7482   -9.2557 H   0  0  0  0  0  0
   -3.5216  -13.4174  -10.5750 H   0  0  0  0  0  0
   -2.2751  -10.4487   -7.7388 H   0  0  0  0  0  0
   -4.1749  -11.0206   -6.2903 H   0  0  0  0  0  0
   -6.9374  -14.5304  -13.7376 H   0  0  0  0  0  0
   -7.8355  -15.2851  -12.3632 H   0  0  0  0  0  0
   -7.7715  -13.1338  -11.0822 H   0  0  0  0  0  0
   -6.8545  -12.3317  -12.4204 H   0  0  0  0  0  0
   -1.8235  -10.4630  -10.4348 H   0  0  0  0  0  0
   -1.6220  -12.0682  -11.0865 H   0  0  0  0  0  0
    0.1038  -12.5029   -9.3966 H   0  0  0  0  0  0
    3.5029  -10.5216   -7.8857 H   0  0  0  0  0  0
    2.2435   -9.3710   -7.4361 H   0  0  0  0  0  0
    2.9379   -9.3327   -9.0641 H   0  0  0  0  0  0
  1  6  1  0  0  0
  1  2  2  0  0  0
  1 46  1  0  0  0
  2  9  1  0  0  0
  2  3  1  0  0  0
  3  4  2  0  0  0
  3 10  1  0  0  0
  4  8  1  0  0  0
  4  5  1  0  0  0
  5  6  2  0  0  0
  5 47  1  0  0  0
  6  7  1  0  0  0
  7 48  1  0  0  0
  7 49  1  0  0  0
  7 50  1  0  0  0
 10 11  1  0  0  0
 11 12  1  0  0  0
 11 51  1  0  0  0
 11 52  1  0  0  0
 12 13  1  0  0  0
 12 53  1  0  0  0
 12 54  1  0  0  0
 13 14  1  0  0  0
 14 15  2  0  0  0
 14 19  1  0  0  0
 15 16  1  0  0  0
 16 17  2  0  0  0
 16 55  1  0  0  0
 17 18  1  0  0  0
 17 20  1  0  0  0
 18 19  2  0  0  0
 18 56  1  0  0  0
 19 57  1  0  0  0
 20 25  1  0  0  0
 20 21  1  0  0  0
 20 58  1  0  0  0
 21 22  1  0  0  0
 21 59  1  0  0  0
 21 60  1  0  0  0
 22 23  1  0  0  0
 22 61  1  0  0  0
 22 62  1  0  0  0
 23 24  1  0  0  0
 23 63  1  0  0  0
 24 25  1  0  0  0
 24 64  1  0  0  0
 24 65  1  0  0  0
 25 26  1  0  0  0
 25 66  1  0  0  0
 26 27  1  0  0  0
 26 28  2  0  0  0
 27 29  1  0  0  0
 27 30  1  0  0  0
 29 38  1  0  0  0
 29 39  1  0  0  0
 29 67  1  0  0  0
 30 31  1  0  0  0
 30 68  1  0  0  0
 30 69  1  0  0  0
 31 32  2  0  0  0
 31 36  1  0  0  0
 32 33  1  0  0  0
 32 70  1  0  0  0
 33 34  2  0  0  0
 33 40  1  0  0  0
 34 35  1  0  0  0
 34 71  1  0  0  0
 35 36  2  0  0  0
 35 72  1  0  0  0
 36 37  1  0  0  0
 38 39  1  0  0  0
 38 73  1  0  0  0
 38 74  1  0  0  0
 39 75  1  0  0  0
 39 76  1  0  0  0
 40 41  1  0  0  0
 40 77  1  0  0  0
 40 78  1  0  0  0
 41 42  1  0  0  0
 41 79  1  0  0  0
 42 43  2  0  0  0
 42 44  1  0  0  0
 44 45  1  0  0  0
 45 80  1  0  0  0
 45 81  1  0  0  0
 45 82  1  0  0  0
M  END
> <s_m_entry_id>
26188

> <s_m_entry_name>
dock_pv.12

> <s_m_Source_Path>
/home/csk/Desktop/cluster/DUD-E-result/reni

> <s_m_Source_File>
dock_pv.maegz

> <i_m_Source_File_Index>
12

> <chembl_id>
CHEMBL1269746

> <chembl_pref_name>
None

> <i_lp_mmshare_version>
53161

> <r_lp_tautomer_probability>
1

> <s_lp_Force_Field>
OPLS_2005

> <r_lp_Energy>
56.978386

> <b_lp_Chiralities_Consistent>
1

> <s_lp_Variant>
CHEMBL286_lig1951-1

> <s_i_glide_gridfile>
glide-grid_3g6z

> <i_i_glide_lignum>
5740

> <i_i_glide_rotatable_bonds>
15

> <r_i_docking_score>
-9.26391545682988

> <r_i_glide_ligand_efficiency>
-0.205864787929553

> <r_i_glide_ligand_efficiency_sa>
-0.732239084887765

> <r_i_glide_ligand_efficiency_ln>
-1.92730724833408

> <r_i_glide_gscore>
-9.26391545682988

> <r_i_glide_lipo>
-5.2053682321129

> <r_i_glide_hbond>
-0.488397676116762

> <r_i_glide_metal>
0

> <r_i_glide_rewards>
0.564431969265902

> <r_i_glide_evdw>
-63.2955474853516

> <r_i_glide_ecoul>
-9.72800159454346

> <r_i_glide_erotb>
0.489396095582976

> <r_i_glide_esite>
0

> <r_i_glide_emodel>
-104.835714778503

> <r_i_glide_energy>
-73.023549079895

> <r_i_glide_einternal>
10.4848394393921

> <i_i_glide_confnum>
3

> <i_i_glide_posenum>
157

> <r_i_glide_eff_state_penalty>
0

> <s_user_duplicate_titles>
CHEMBL286_lig1951

> <i_f3d_flags>
0

> <s_m_subgroup_title>
dock_pv

> <s_m_subgroupid>
dock_pv

> <b_m_subgroup_collapsed>
1

$$$$
CHEMBL286_lig1354
                    3D
 Schrodinger Suite 2021-1.
114116  0  0  1  0            999 V2000
   -5.9566  -20.3008  -12.6971 C   0  0  0  0  0  0
   -6.7736  -19.4958  -11.6512 C   0  0  0  0  0  0
   -4.5603  -20.7849  -12.1716 C   0  0  1  0  0  0
   -7.2875  -18.3094  -12.0205 N   0  0  0  0  0  0
   -3.4947  -19.6487  -11.9207 C   0  0  1  0  0  0
   -3.0918  -19.1771   -9.5045 C   0  0  0  0  0  0
   -1.2475  -16.9480   -8.2907 C   0  0  0  0  0  0
   -0.5313  -15.8031   -5.2681 C   0  0  0  0  0  0
   -2.7266  -19.7354  -10.6693 N   0  0  0  0  0  0
   -1.8677  -17.9954   -7.7243 N   0  0  0  0  0  0
   -2.0885  -19.3002   -8.3427 C   0  0  1  0  0  0
   -7.7938  -17.3189  -11.0588 C   0  0  2  0  0  0
   -9.1979  -17.6796  -10.5195 C   0  0  0  0  0  0
   -0.4161  -15.3197   -6.5647 N   0  0  0  0  0  0
   -4.1664  -23.5703   -8.1426 N   0  0  0  0  0  0
   -1.4496  -15.5883   -7.5777 C   0  0  1  0  0  0
   -3.0521  -21.6371   -7.7086 C   0  0  0  0  0  0
   -2.6093  -20.2652   -7.2534 C   0  0  0  0  0  0
   -2.2422  -22.4942   -8.4345 N   0  0  0  0  0  0
  -10.0770  -18.1796  -11.3997 N   0  0  0  0  0  0
   -2.9412  -23.6113   -8.6557 C   0  0  0  0  0  0
    0.5779  -15.4448   -4.5749 O   0  0  0  0  0  0
   -4.2440  -22.3104   -7.5460 C   0  0  0  0  0  0
   -6.9119  -19.9435  -10.5095 O   0  0  0  0  0  0
   -5.7908  -19.5677  -13.8024 F   0  0  0  0  0  0
   -6.6920  -21.3531  -13.0525 F   0  0  0  0  0  0
   -1.4672  -16.4630   -4.8129 O   0  0  0  0  0  0
   -0.5845  -17.0169   -9.3254 O   0  0  0  0  0  0
   -4.1609  -18.5951   -9.3222 O   0  0  0  0  0  0
   -2.5126  -19.4257  -13.1037 C   0  0  0  0  0  0
  -13.0705  -20.3684  -11.4080 N   0  0  0  0  0  0
   -1.5597  -14.3887   -8.5586 C   0  0  0  0  0  0
   -9.4445  -17.5139   -9.3236 O   0  0  0  0  0  0
   -4.6972  -21.7189  -11.0518 N   0  0  0  0  0  0
    0.8625  -15.8201   -3.2135 C   0  0  0  0  0  0
   -7.8537  -15.8758  -11.6566 C   0  0  2  0  0  0
  -11.4541  -18.5698  -11.0816 C   0  0  0  0  0  0
  -11.7568  -20.0611  -11.2208 C   0  0  0  0  0  0
   -2.1803  -13.1187   -7.9882 C   0  0  0  0  0  0
   -1.3237  -20.4194  -13.3438 C   0  0  0  0  0  0
  -13.4065  -21.6640  -11.6207 C   0  0  0  0  0  0
   -0.1813  -15.2325   -2.2356 C   0  0  0  0  0  0
    2.2379  -15.1925   -2.9294 C   0  0  0  0  0  0
    0.9596  -17.3574   -3.0598 C   0  0  0  0  0  0
   -6.5558  -15.4894  -12.4140 C   0  0  0  0  0  0
   -8.1480  -14.8147  -10.5671 C   0  0  0  0  0  0
  -10.7551  -21.0436  -11.2205 C   0  0  0  0  0  0
   -1.3716  -12.1282   -7.3928 C   0  0  0  0  0  0
   -3.5852  -12.9883   -7.9211 C   0  0  0  0  0  0
   -1.5796  -21.8924  -12.9785 C   0  0  0  0  0  0
   -0.0095  -19.9243  -12.7054 C   0  0  0  0  0  0
   -6.6332  -14.1384  -13.1353 C   0  0  0  0  0  0
  -12.4637  -22.6940  -11.6443 C   0  0  0  0  0  0
   -4.1529  -11.8556   -7.3490 C   0  0  0  0  0  0
   -1.9588  -10.9996   -6.8285 C   0  0  0  0  0  0
  -11.1209  -22.3740  -11.4371 C   0  0  0  0  0  0
   -3.3418  -10.8583   -6.8197 C   0  0  0  0  0  0
   -4.1778  -21.4084  -12.9786 H   0  0  0  0  0  0
   -7.2760  -18.0432  -12.9993 H   0  0  0  0  0  0
   -4.0537  -18.7094  -11.8698 H   0  0  0  0  0  0
   -1.8123  -20.1551  -10.7426 H   0  0  0  0  0  0
   -2.4286  -17.8217   -6.8954 H   0  0  0  0  0  0
   -1.1363  -19.6638   -8.7305 H   0  0  0  0  0  0
   -7.1066  -17.3020  -10.2070 H   0  0  0  0  0  0
    0.4276  -14.8338   -6.8326 H   0  0  0  0  0  0
   -1.2903  -22.3178   -8.7294 H   0  0  0  0  0  0
   -2.4352  -15.6369   -7.1058 H   0  0  0  0  0  0
   -1.8503  -20.3931   -6.4816 H   0  0  0  0  0  0
   -3.4669  -19.8115   -6.7539 H   0  0  0  0  0  0
   -9.7859  -18.2751  -12.3656 H   0  0  0  0  0  0
   -2.5580  -24.4633   -9.1946 H   0  0  0  0  0  0
   -5.1404  -21.9831   -7.0379 H   0  0  0  0  0  0
   -3.0716  -19.2630  -14.0196 H   0  0  0  0  0  0
   -2.0771  -18.4392  -12.9442 H   0  0  0  0  0  0
   -2.1663  -14.6708   -9.4245 H   0  0  0  0  0  0
   -0.5788  -14.1432   -8.9646 H   0  0  0  0  0  0
   -3.8203  -21.7764  -10.5525 H   0  0  0  0  0  0
   -5.3549  -21.3204  -10.3880 H   0  0  0  0  0  0
   -8.6678  -15.8497  -12.3835 H   0  0  0  0  0  0
  -11.7434  -18.2714  -10.0727 H   0  0  0  0  0  0
  -12.1010  -18.0066  -11.7554 H   0  0  0  0  0  0
   -1.1490  -20.4646  -14.4213 H   0  0  0  0  0  0
  -14.4560  -21.8734  -11.7794 H   0  0  0  0  0  0
   -1.1738  -15.6583   -2.3827 H   0  0  0  0  0  0
    0.0990  -15.4199   -1.1996 H   0  0  0  0  0  0
   -0.2662  -14.1528   -2.3580 H   0  0  0  0  0  0
    2.9965  -15.5622   -3.6172 H   0  0  0  0  0  0
    2.2099  -14.1077   -3.0392 H   0  0  0  0  0  0
    2.5789  -15.4113   -1.9170 H   0  0  0  0  0  0
    1.6353  -17.7832   -3.8017 H   0  0  0  0  0  0
    1.3369  -17.6368   -2.0753 H   0  0  0  0  0  0
   -0.0073  -17.8448   -3.1840 H   0  0  0  0  0  0
   -5.7164  -15.4762  -11.7174 H   0  0  0  0  0  0
   -6.3049  -16.2420  -13.1612 H   0  0  0  0  0  0
   -7.3438  -14.7725   -9.8354 H   0  0  0  0  0  0
   -8.2615  -13.8175  -10.9927 H   0  0  0  0  0  0
   -9.0651  -15.0144  -10.0180 H   0  0  0  0  0  0
   -9.7173  -20.7893  -11.0703 H   0  0  0  0  0  0
   -0.2950  -12.2343   -7.3903 H   0  0  0  0  0  0
   -4.2225  -13.7618   -8.3251 H   0  0  0  0  0  0
   -1.8647  -22.0299  -11.9343 H   0  0  0  0  0  0
   -2.3431  -22.3403  -13.6168 H   0  0  0  0  0  0
   -0.6696  -22.4615  -13.1432 H   0  0  0  0  0  0
   -0.0503  -20.0083  -11.6208 H   0  0  0  0  0  0
    0.8423  -20.5116  -13.0482 H   0  0  0  0  0  0
    0.1979  -18.8791  -12.9485 H   0  0  0  0  0  0
   -5.8693  -14.0650  -13.9080 H   0  0  0  0  0  0
   -7.6027  -13.9955  -13.6090 H   0  0  0  0  0  0
   -6.4660  -13.3121  -12.4466 H   0  0  0  0  0  0
  -12.7665  -23.7144  -11.8245 H   0  0  0  0  0  0
   -5.2263  -11.7512   -7.3161 H   0  0  0  0  0  0
   -1.3349  -10.2317   -6.3922 H   0  0  0  0  0  0
  -10.3669  -23.1458  -11.4523 H   0  0  0  0  0  0
   -3.7908   -9.9826   -6.3735 H   0  0  0  0  0  0
  1  2  1  0  0  0
  1  3  1  0  0  0
  1 25  1  0  0  0
  1 26  1  0  0  0
  2  4  1  0  0  0
  2 24  2  0  0  0
  3  5  1  0  0  0
  3 34  1  0  0  0
  3 58  1  0  0  0
  4 12  1  0  0  0
  4 59  1  0  0  0
  5  9  1  0  0  0
  5 30  1  0  0  0
  5 60  1  0  0  0
  6  9  1  0  0  0
  6 11  1  0  0  0
  6 29  2  0  0  0
  7 10  1  0  0  0
  7 16  1  0  0  0
  7 28  2  0  0  0
  8 14  1  0  0  0
  8 22  1  0  0  0
  8 27  2  0  0  0
  9 61  1  0  0  0
 10 11  1  0  0  0
 10 62  1  0  0  0
 11 18  1  0  0  0
 11 63  1  0  0  0
 12 13  1  0  0  0
 12 36  1  0  0  0
 12 64  1  0  0  0
 13 20  1  0  0  0
 13 33  2  0  0  0
 14 16  1  0  0  0
 14 65  1  0  0  0
 15 21  2  0  0  0
 15 23  1  0  0  0
 16 32  1  0  0  0
 16 67  1  0  0  0
 17 23  2  0  0  0
 17 18  1  0  0  0
 17 19  1  0  0  0
 18 68  1  0  0  0
 18 69  1  0  0  0
 19 66  1  0  0  0
 19 21  1  0  0  0
 20 37  1  0  0  0
 20 70  1  0  0  0
 21 71  1  0  0  0
 22 35  1  0  0  0
 23 72  1  0  0  0
 30 40  1  0  0  0
 30 73  1  0  0  0
 30 74  1  0  0  0
 31 38  1  0  0  0
 31 41  2  0  0  0
 32 39  1  0  0  0
 32 75  1  0  0  0
 32 76  1  0  0  0
 34 77  1  0  0  0
 34 78  1  0  0  0
 35 42  1  0  0  0
 35 43  1  0  0  0
 35 44  1  0  0  0
 36 45  1  0  0  0
 36 46  1  0  0  0
 36 79  1  0  0  0
 37 38  1  0  0  0
 37 80  1  0  0  0
 37 81  1  0  0  0
 38 47  2  0  0  0
 39 48  2  0  0  0
 39 49  1  0  0  0
 40 50  1  0  0  0
 40 51  1  0  0  0
 40 82  1  0  0  0
 41 53  1  0  0  0
 41 83  1  0  0  0
 42 84  1  0  0  0
 42 85  1  0  0  0
 42 86  1  0  0  0
 43 87  1  0  0  0
 43 88  1  0  0  0
 43 89  1  0  0  0
 44 90  1  0  0  0
 44 91  1  0  0  0
 44 92  1  0  0  0
 45 52  1  0  0  0
 45 93  1  0  0  0
 45 94  1  0  0  0
 46 95  1  0  0  0
 46 96  1  0  0  0
 46 97  1  0  0  0
 47 56  1  0  0  0
 47 98  1  0  0  0
 48 55  1  0  0  0
 48 99  1  0  0  0
 49 54  2  0  0  0
 49100  1  0  0  0
 50101  1  0  0  0
 50102  1  0  0  0
 50103  1  0  0  0
 51104  1  0  0  0
 51105  1  0  0  0
 51106  1  0  0  0
 52107  1  0  0  0
 52108  1  0  0  0
 52109  1  0  0  0
 53 56  2  0  0  0
 53110  1  0  0  0
 54 57  1  0  0  0
 54111  1  0  0  0
 55 57  2  0  0  0
 55112  1  0  0  0
 56113  1  0  0  0
 57114  1  0  0  0
M  END
> <s_m_entry_id>
26189

> <s_m_entry_name>
dock_pv.13

> <s_m_Source_Path>
/home/csk/Desktop/cluster/DUD-E-result/reni

> <s_m_Source_File>
dock_pv.maegz

> <i_m_Source_File_Index>
13

> <chembl_id>
CHEMBL54766

> <chembl_pref_name>
None

> <i_lp_mmshare_version>
53161

> <r_lp_tautomer_probability>
0.499999999999999

> <s_lp_Force_Field>
OPLS_2005

> <r_lp_Energy>
23.611369

> <b_lp_Chiralities_Consistent>
1

> <s_lp_Variant>
CHEMBL286_lig1354-2

> <s_i_glide_gridfile>
glide-grid_3g6z

> <i_i_glide_lignum>
4390

> <i_i_glide_rotatable_bonds>
27

> <r_i_docking_score>
-9.22209887774782

> <r_i_glide_ligand_efficiency>
-0.161791208381541

> <r_i_glide_ligand_efficiency_sa>
-0.622653647647861

> <r_i_glide_ligand_efficiency_ln>
-1.82867442505849

> <r_i_glide_gscore>
-9.22209887774782

> <r_i_glide_lipo>
-3.55313183350692

> <r_i_glide_hbond>
-0.816070866391399

> <r_i_glide_metal>
0

> <r_i_glide_rewards>
-0.341843624282885

> <r_i_glide_evdw>
-56.782585144043

> <r_i_glide_ecoul>
-13.0336637496948

> <r_i_glide_erotb>
0.51432840518878

> <r_i_glide_esite>
-0.231202139099033

> <r_i_glide_emodel>
-95.4854158649082

> <r_i_glide_energy>
-69.8162488937378

> <r_i_glide_einternal>
27.2420711517334

> <i_i_glide_confnum>
1

> <i_i_glide_posenum>
57

> <r_i_glide_eff_state_penalty>
0

> <s_user_duplicate_titles>
CHEMBL286_lig1354

> <i_f3d_flags>
0

> <s_m_subgroup_title>
dock_pv

> <s_m_subgroupid>
dock_pv

> <b_m_subgroup_collapsed>
1

$$$$
CHEMBL286_lig1941
                    3D
 Schrodinger Suite 2021-1.
 83 87  0  0  1  0            999 V2000
  -12.3339  -10.0649   -6.4211 C   0  0  0  0  0  0
  -12.9797  -11.2419   -6.8030 C   0  0  0  0  0  0
  -12.2877  -12.2114   -7.5352 C   0  0  0  0  0  0
  -10.9603  -11.9733   -7.9165 C   0  0  0  0  0  0
  -10.3275  -10.7833   -7.5536 C   0  0  0  0  0  0
  -11.0141   -9.8242   -6.8034 C   0  0  0  0  0  0
  -10.3719   -8.5008   -6.4561 C   0  0  0  0  0  0
  -10.0826  -13.1598   -8.8189 Cl  0  0  0  0  0  0
  -14.6242  -11.4965   -6.3265 Cl  0  0  0  0  0  0
  -12.9136  -13.3834   -7.8707 O   0  0  0  0  0  0
  -12.7213  -14.4279   -6.9224 C   0  0  0  0  0  0
  -13.2454  -15.7341   -7.5251 C   0  0  0  0  0  0
  -12.6794  -15.9701   -8.8150 O   0  0  0  0  0  0
  -11.4453  -16.5657   -8.9440 C   0  0  0  0  0  0
  -11.0552  -16.8914  -10.2412 C   0  0  0  0  0  0
   -9.8424  -17.5305  -10.4716 C   0  0  0  0  0  0
   -8.9981  -17.8382   -9.4023 C   0  0  0  0  0  0
   -9.3796  -17.4992   -8.1004 C   0  0  0  0  0  0
  -10.5974  -16.8639   -7.8707 C   0  0  0  0  0  0
   -7.6301  -18.4791   -9.6582 C   0  0  1  0  0  0
   -7.7311  -19.8028  -10.4506 C   0  0  0  0  0  0
   -6.3437  -20.4073  -10.7541 C   0  0  0  0  0  0
   -5.4712  -19.4481  -11.4314 N   0  0  1  0  0  0
   -5.2871  -18.2099  -10.6741 C   0  0  0  0  0  0
   -6.6444  -17.5166  -10.3741 C   0  0  2  0  0  0
   -6.3781  -16.2824   -9.4662 C   0  0  0  0  0  0
   -6.8529  -15.0489   -9.7946 N   0  0  0  0  0  0
   -5.7383  -16.4601   -8.4268 O   0  0  0  0  0  0
   -7.6092  -14.7398  -11.0199 C   0  0  0  0  0  0
   -6.6588  -13.9267   -8.8516 C   0  0  0  0  0  0
   -5.2506  -13.3222   -8.8260 C   0  0  0  0  0  0
   -7.2323  -13.5420  -11.8767 C   0  0  0  0  0  0
   -6.9701  -14.9300  -12.3845 C   0  0  0  0  0  0
   -4.3648  -13.5707   -9.8813 C   0  0  0  0  0  0
   -3.0915  -13.0165   -9.9087 C   0  0  0  0  0  0
   -2.6778  -12.2064   -8.8509 C   0  0  0  0  0  0
   -3.5428  -11.9561   -7.7821 C   0  0  0  0  0  0
   -4.8272  -12.5089   -7.7656 C   0  0  0  0  0  0
   -5.8613  -12.1725   -6.4223 Cl  0  0  0  0  0  0
   -2.2026  -13.2976  -11.1156 C   0  0  0  0  0  0
   -2.4615  -12.3514  -12.3014 C   0  0  0  0  0  0
   -3.8173  -12.4594  -12.8159 N   0  0  1  0  0  0
   -4.0515  -11.3632  -13.7371 C   0  0  0  0  0  0
  -12.8751   -9.3067   -5.8821 H   0  0  0  0  0  0
   -9.3076  -10.6017   -7.8556 H   0  0  0  0  0  0
  -11.1145   -7.7009   -6.4262 H   0  0  0  0  0  0
   -9.8699   -8.5512   -5.4904 H   0  0  0  0  0  0
   -9.6574   -8.2208   -7.2220 H   0  0  0  0  0  0
  -13.2649  -14.1984   -6.0048 H   0  0  0  0  0  0
  -11.6687  -14.5307   -6.6519 H   0  0  0  0  0  0
  -14.3245  -15.6512   -7.6450 H   0  0  0  0  0  0
  -13.0957  -16.5789   -6.8527 H   0  0  0  0  0  0
  -11.7026  -16.6508  -11.0724 H   0  0  0  0  0  0
   -9.5560  -17.7597  -11.4885 H   0  0  0  0  0  0
   -8.7278  -17.7114   -7.2641 H   0  0  0  0  0  0
  -10.8679  -16.6170   -6.8576 H   0  0  0  0  0  0
   -7.2257  -18.7439   -8.6813 H   0  0  0  0  0  0
   -8.2775  -20.5391   -9.8583 H   0  0  0  0  0  0
   -8.2737  -19.6884  -11.3883 H   0  0  0  0  0  0
   -5.8627  -20.7364   -9.8301 H   0  0  0  0  0  0
   -6.4533  -21.2854  -11.3926 H   0  0  0  0  0  0
   -4.5723  -19.8724  -11.6189 H   0  0  0  0  0  0
   -4.6193  -17.5420  -11.2219 H   0  0  0  0  0  0
   -4.7884  -18.4919   -9.7431 H   0  0  0  0  0  0
   -7.0812  -17.2034  -11.3171 H   0  0  0  0  0  0
   -8.6656  -14.9879  -10.9266 H   0  0  0  0  0  0
   -6.8980  -14.2779   -7.8464 H   0  0  0  0  0  0
   -7.3711  -13.1310   -9.0624 H   0  0  0  0  0  0
   -8.0186  -12.9515  -12.3404 H   0  0  0  0  0  0
   -6.3821  -12.9163  -11.6025 H   0  0  0  0  0  0
   -5.9401  -15.2822  -12.4485 H   0  0  0  0  0  0
   -7.5920  -15.3271  -13.1921 H   0  0  0  0  0  0
   -4.6692  -14.1841  -10.7172 H   0  0  0  0  0  0
   -1.6939  -11.7647   -8.8565 H   0  0  0  0  0  0
   -3.2197  -11.3288   -6.9645 H   0  0  0  0  0  0
   -2.3370  -14.3360  -11.4292 H   0  0  0  0  0  0
   -1.1587  -13.2246  -10.8122 H   0  0  0  0  0  0
   -1.8118  -12.5885  -13.1393 H   0  0  0  0  0  0
   -2.2664  -11.3267  -11.9770 H   0  0  0  0  0  0
   -3.8709  -13.3432  -13.3263 H   0  0  0  0  0  0
   -5.0639  -11.4180  -14.1157 H   0  0  0  0  0  0
   -3.3644  -11.3957  -14.5863 H   0  0  0  0  0  0
   -3.9498  -10.4092  -13.2243 H   0  0  0  0  0  0
  1  6  1  0  0  0
  1  2  2  0  0  0
  1 44  1  0  0  0
  2  3  1  0  0  0
  2  9  1  0  0  0
  3 10  1  0  0  0
  3  4  2  0  0  0
  4  8  1  0  0  0
  4  5  1  0  0  0
  5  6  2  0  0  0
  5 45  1  0  0  0
  6  7  1  0  0  0
  7 46  1  0  0  0
  7 47  1  0  0  0
  7 48  1  0  0  0
 10 11  1  0  0  0
 11 12  1  0  0  0
 11 49  1  0  0  0
 11 50  1  0  0  0
 12 13  1  0  0  0
 12 51  1  0  0  0
 12 52  1  0  0  0
 13 14  1  0  0  0
 14 15  2  0  0  0
 14 19  1  0  0  0
 15 16  1  0  0  0
 15 53  1  0  0  0
 16 17  2  0  0  0
 16 54  1  0  0  0
 17 18  1  0  0  0
 17 20  1  0  0  0
 18 19  2  0  0  0
 18 55  1  0  0  0
 19 56  1  0  0  0
 20 25  1  0  0  0
 20 21  1  0  0  0
 20 57  1  0  0  0
 21 22  1  0  0  0
 21 58  1  0  0  0
 21 59  1  0  0  0
 22 23  1  0  0  0
 22 60  1  0  0  0
 22 61  1  0  0  0
 23 24  1  0  0  0
 23 62  1  0  0  0
 24 25  1  0  0  0
 24 63  1  0  0  0
 24 64  1  0  0  0
 25 26  1  0  0  0
 25 65  1  0  0  0
 26 27  1  0  0  0
 26 28  2  0  0  0
 27 29  1  0  0  0
 27 30  1  0  0  0
 29 32  1  0  0  0
 29 33  1  0  0  0
 29 66  1  0  0  0
 30 31  1  0  0  0
 30 67  1  0  0  0
 30 68  1  0  0  0
 31 34  2  0  0  0
 31 38  1  0  0  0
 32 33  1  0  0  0
 32 69  1  0  0  0
 32 70  1  0  0  0
 33 71  1  0  0  0
 33 72  1  0  0  0
 34 35  1  0  0  0
 34 73  1  0  0  0
 35 36  2  0  0  0
 35 40  1  0  0  0
 36 37  1  0  0  0
 36 74  1  0  0  0
 37 38  2  0  0  0
 37 75  1  0  0  0
 38 39  1  0  0  0
 40 41  1  0  0  0
 40 76  1  0  0  0
 40 77  1  0  0  0
 41 42  1  0  0  0
 41 78  1  0  0  0
 41 79  1  0  0  0
 42 43  1  0  0  0
 42 80  1  0  0  0
 43 81  1  0  0  0
 43 82  1  0  0  0
 43 83  1  0  0  0
M  END
> <s_m_entry_id>
26190

> <s_m_entry_name>
dock_pv.14

> <s_m_Source_Path>
/home/csk/Desktop/cluster/DUD-E-result/reni

> <s_m_Source_File>
dock_pv.maegz

> <i_m_Source_File_Index>
14

> <chembl_id>
CHEMBL1269673

> <chembl_pref_name>
None

> <i_lp_mmshare_version>
53161

> <r_lp_tautomer_probability>
1

> <s_lp_Force_Field>
OPLS_2005

> <r_lp_Energy>
73.978311

> <b_lp_Chiralities_Consistent>
1

> <s_lp_Variant>
CHEMBL286_lig1941-1

> <s_i_glide_gridfile>
glide-grid_3g6z

> <i_i_glide_lignum>
5730

> <i_i_glide_rotatable_bonds>
14

> <r_i_docking_score>
-9.21223750490324

> <r_i_glide_ligand_efficiency>
-0.214238081509378

> <r_i_glide_ligand_efficiency_sa>
-0.750561278279923

> <r_i_glide_ligand_efficiency_ln>
-1.93485618773688

> <r_i_glide_gscore>
-9.21223750490324

> <r_i_glide_lipo>
-6.02316730202106

> <r_i_glide_hbond>
-0.32

> <r_i_glide_metal>
0

> <r_i_glide_rewards>
0.239665581334119

> <r_i_glide_evdw>
-56.6720809936523

> <r_i_glide_ecoul>
-5.26629543304443

> <r_i_glide_erotb>
0.514812580422991

> <r_i_glide_esite>
0

> <r_i_glide_emodel>
-88.4123149240009

> <r_i_glide_energy>
-61.9383764266968

> <r_i_glide_einternal>
11.3075065612793

> <i_i_glide_confnum>
58

> <i_i_glide_posenum>
234

> <r_i_glide_eff_state_penalty>
0

> <s_user_duplicate_titles>
CHEMBL286_lig1941

> <i_f3d_flags>
0

> <s_m_subgroup_title>
dock_pv

> <s_m_subgroupid>
dock_pv

> <b_m_subgroup_collapsed>
1

$$$$
CHEMBL286_lig549
                    3D
 Schrodinger Suite 2021-1.
117121  0  0  1  0            999 V2000
   -7.6060  -21.0866  -10.6591 N   0  0  0  0  0  0
   -7.7586  -19.8420  -10.0263 C   0  0  0  0  0  0
   -6.2515  -21.3446  -10.6263 C   0  0  0  0  0  0
   -6.5507  -19.4006   -9.6153 N   0  0  0  0  0  0
   -5.6471  -20.3890   -9.9463 N   0  0  0  0  0  0
  -10.1194  -19.9971  -10.4229 N   0  0  0  0  0  0
   -5.5932  -22.6060  -11.2139 C   0  0  1  0  0  0
   -9.0528  -19.3086   -9.9327 C   0  0  0  0  0  0
   -8.6788  -21.7670  -11.1725 C   0  0  0  0  0  0
   -9.9509  -21.2021  -11.0431 C   0  0  0  0  0  0
   -4.0661  -22.4849  -11.4912 C   0  0  0  0  0  0
   -3.6444  -21.2963  -11.9829 N   0  0  0  0  0  0
   -1.1530  -15.4899  -10.6058 C   0  0  0  0  0  0
   -2.3734  -20.8833  -12.1860 C   0  0  0  0  0  0
   -1.9944  -16.4221  -10.1183 N   0  0  0  0  0  0
   -2.2128  -19.4422  -12.6904 C   0  0  0  0  0  0
   -2.4120  -17.7317  -10.6527 C   0  0  1  0  0  0
   -1.1072  -14.1638   -9.8087 C   0  0  2  0  0  0
   -1.5105  -18.4265  -11.7387 C   0  0  1  0  0  0
   -5.9883  -23.8954  -10.4308 C   0  0  0  0  0  0
   -1.8688  -13.1850  -10.6295 N   0  0  1  0  0  0
   -9.3541  -17.9499   -9.3018 C   0  0  0  0  0  0
   -3.3338  -23.4586  -11.3002 O   0  0  0  0  0  0
  -11.1776  -21.8493  -11.6104 C   0  0  0  0  0  0
   -0.4665  -15.6107  -11.6209 O   0  0  0  0  0  0
   -1.3643  -21.5697  -12.0209 O   0  0  0  0  0  0
   -4.3089  -24.0218   -7.0013 N   0  0  0  0  0  0
   -2.8786  -18.6416   -9.4849 C   0  0  0  0  0  0
    0.3365  -13.6663   -9.4877 C   0  0  0  0  0  0
   -2.3378  -11.9783   -9.9495 C   0  0  0  0  0  0
   -4.2235  -13.3243   -8.8242 C   0  0  0  0  0  0
   -5.7825  -23.8254   -8.9189 C   0  0  0  0  0  0
   -3.4262  -12.1709   -8.8886 C   0  0  0  0  0  0
   -0.2588  -18.8629  -11.2541 O   0  0  0  0  0  0
   -5.1972  -13.4755   -7.8257 C   0  0  0  0  0  0
   -6.3176  -15.4054   -8.9499 N   0  0  0  0  0  0
   -4.5296  -24.0632   -8.3406 C   0  0  0  0  0  0
   -9.8001  -16.8350  -10.2807 C   0  0  0  0  0  0
   -4.5976  -11.2915   -6.9559 C   0  0  0  0  0  0
   -1.8547  -19.1255   -8.4273 C   0  0  0  0  0  0
    1.3024  -14.5687   -8.6638 C   0  0  0  0  0  0
   -5.3639  -23.7379   -6.1967 C   0  0  0  0  0  0
   -6.0298  -14.7492   -7.6868 C   0  0  0  0  0  0
  -11.0838  -22.8630  -12.5787 C   0  0  0  0  0  0
  -12.4556  -21.4104  -11.2227 C   0  0  0  0  0  0
   -3.6305  -11.1543   -7.9501 C   0  0  0  0  0  0
   -5.3689  -12.4508   -6.8896 C   0  0  0  0  0  0
   -6.8532  -23.5296   -8.0667 C   0  0  0  0  0  0
   -2.5181  -20.1346   -7.4699 C   0  0  0  0  0  0
  -11.2565  -17.0010  -10.7608 C   0  0  0  0  0  0
    1.9353  -15.7107   -9.4829 C   0  0  0  0  0  0
    0.7384  -15.0617   -7.3165 C   0  0  0  0  0  0
   -1.1607  -18.0020   -7.6370 C   0  0  0  0  0  0
   -8.8239  -16.6586  -11.4622 C   0  0  0  0  0  0
   -6.6467  -23.4857   -6.6863 C   0  0  0  0  0  0
  -12.2250  -23.3752  -13.1885 C   0  0  0  0  0  0
  -13.5931  -21.9098  -11.8449 C   0  0  0  0  0  0
  -13.4700  -22.8802  -12.8294 C   0  0  0  0  0  0
   -5.9945  -22.7380  -12.2204 H   0  0  0  0  0  0
   -8.4719  -22.7054  -11.6604 H   0  0  0  0  0  0
   -4.3647  -20.6053  -12.1309 H   0  0  0  0  0  0
   -2.4698  -16.1626   -9.2678 H   0  0  0  0  0  0
   -3.1747  -19.0365  -13.0090 H   0  0  0  0  0  0
   -1.6327  -19.5353  -13.6085 H   0  0  0  0  0  0
   -3.3254  -17.4651  -11.1909 H   0  0  0  0  0  0
   -1.6243  -14.3070   -8.8606 H   0  0  0  0  0  0
   -1.2165  -17.6524  -12.4271 H   0  0  0  0  0  0
   -7.0335  -24.1402  -10.6226 H   0  0  0  0  0  0
   -5.4541  -24.7684  -10.8121 H   0  0  0  0  0  0
   -1.2986  -12.9319  -11.4382 H   0  0  0  0  0  0
  -10.0989  -18.0627   -8.5128 H   0  0  0  0  0  0
   -8.4581  -17.6125   -8.7764 H   0  0  0  0  0  0
   -3.7067  -18.1523   -8.9668 H   0  0  0  0  0  0
   -3.3112  -19.5275   -9.9305 H   0  0  0  0  0  0
    0.8375  -13.3592  -10.4050 H   0  0  0  0  0  0
    0.2334  -12.7414   -8.9166 H   0  0  0  0  0  0
   -2.8035  -11.3711  -10.7281 H   0  0  0  0  0  0
   -1.5168  -11.3659   -9.5737 H   0  0  0  0  0  0
   -4.0699  -14.1114   -9.5488 H   0  0  0  0  0  0
   -0.3326  -19.7827  -10.9711 H   0  0  0  0  0  0
   -6.8322  -14.7865   -9.5618 H   0  0  0  0  0  0
   -5.4656  -15.6706   -9.4249 H   0  0  0  0  0  0
   -3.6681  -24.3016   -8.9500 H   0  0  0  0  0  0
   -9.7742  -15.9053   -9.7071 H   0  0  0  0  0  0
   -4.7417  -10.5023   -6.2310 H   0  0  0  0  0  0
   -1.0714  -19.6643   -8.9538 H   0  0  0  0  0  0
    2.1381  -13.9168   -8.4119 H   0  0  0  0  0  0
   -5.1648  -23.7200   -5.1351 H   0  0  0  0  0  0
   -5.5035  -15.4447   -7.0298 H   0  0  0  0  0  0
   -6.9843  -14.5110   -7.2158 H   0  0  0  0  0  0
  -10.1287  -23.2236  -12.9232 H   0  0  0  0  0  0
  -12.5716  -20.6494  -10.4692 H   0  0  0  0  0  0
   -3.0334  -10.2541   -7.9843 H   0  0  0  0  0  0
   -6.1039  -12.5507   -6.1031 H   0  0  0  0  0  0
   -7.8383  -23.3352   -8.4695 H   0  0  0  0  0  0
   -3.3251  -19.6717   -6.9022 H   0  0  0  0  0  0
   -2.9411  -20.9794   -8.0134 H   0  0  0  0  0  0
   -1.7999  -20.5379   -6.7563 H   0  0  0  0  0  0
  -11.3562  -17.8008  -11.4959 H   0  0  0  0  0  0
  -11.9312  -17.2250   -9.9318 H   0  0  0  0  0  0
  -11.6175  -16.0819  -11.2209 H   0  0  0  0  0  0
    1.3165  -16.6093   -9.4801 H   0  0  0  0  0  0
    2.0853  -15.4253  -10.5236 H   0  0  0  0  0  0
    2.9127  -15.9830   -9.0799 H   0  0  0  0  0  0
   -0.3521  -15.0993   -7.2897 H   0  0  0  0  0  0
    1.0951  -16.0661   -7.0769 H   0  0  0  0  0  0
    1.0585  -14.4083   -6.5000 H   0  0  0  0  0  0
   -1.8709  -17.2901   -7.2198 H   0  0  0  0  0  0
   -0.5638  -18.3985   -6.8150 H   0  0  0  0  0  0
   -0.4785  -17.4501   -8.2788 H   0  0  0  0  0  0
   -8.8412  -17.5213  -12.1300 H   0  0  0  0  0  0
   -9.0691  -15.7812  -12.0614 H   0  0  0  0  0  0
   -7.7966  -16.5349  -11.1158 H   0  0  0  0  0  0
   -7.4687  -23.2645   -6.0210 H   0  0  0  0  0  0
  -12.1433  -24.1352  -13.9520 H   0  0  0  0  0  0
  -14.5729  -21.5431  -11.5724 H   0  0  0  0  0  0
  -14.3581  -23.2630  -13.3116 H   0  0  0  0  0  0
  1  2  1  0  0  0
  1  3  1  0  0  0
  1  9  1  0  0  0
  2  4  2  0  0  0
  2  8  1  0  0  0
  3  5  2  0  0  0
  3  7  1  0  0  0
  4  5  1  0  0  0
  6 10  1  0  0  0
  6  8  2  0  0  0
  7 11  1  0  0  0
  7 20  1  0  0  0
  7 59  1  0  0  0
  8 22  1  0  0  0
  9 10  2  0  0  0
  9 60  1  0  0  0
 10 24  1  0  0  0
 11 12  1  0  0  0
 11 23  2  0  0  0
 12 14  1  0  0  0
 12 61  1  0  0  0
 13 15  1  0  0  0
 13 18  1  0  0  0
 13 25  2  0  0  0
 14 16  1  0  0  0
 14 26  2  0  0  0
 15 17  1  0  0  0
 15 62  1  0  0  0
 16 19  1  0  0  0
 16 63  1  0  0  0
 16 64  1  0  0  0
 17 19  1  0  0  0
 17 28  1  0  0  0
 17 65  1  0  0  0
 18 21  1  0  0  0
 18 29  1  0  0  0
 18 66  1  0  0  0
 19 34  1  0  0  0
 19 67  1  0  0  0
 20 32  1  0  0  0
 20 68  1  0  0  0
 20 69  1  0  0  0
 21 30  1  0  0  0
 21 70  1  0  0  0
 22 38  1  0  0  0
 22 71  1  0  0  0
 22 72  1  0  0  0
 24 44  1  0  0  0
 24 45  2  0  0  0
 27 37  2  0  0  0
 27 42  1  0  0  0
 28 40  1  0  0  0
 28 73  1  0  0  0
 28 74  1  0  0  0
 29 41  1  0  0  0
 29 75  1  0  0  0
 29 76  1  0  0  0
 30 33  1  0  0  0
 30 77  1  0  0  0
 30 78  1  0  0  0
 31 33  2  0  0  0
 31 35  1  0  0  0
 31 79  1  0  0  0
 32 37  1  0  0  0
 32 48  2  0  0  0
 33 46  1  0  0  0
 34 80  1  0  0  0
 35 43  1  0  0  0
 35 47  2  0  0  0
 36 43  1  0  0  0
 36 81  1  0  0  0
 36 82  1  0  0  0
 37 83  1  0  0  0
 38 50  1  0  0  0
 38 54  1  0  0  0
 38 84  1  0  0  0
 39 46  2  0  0  0
 39 47  1  0  0  0
 39 85  1  0  0  0
 40 49  1  0  0  0
 40 53  1  0  0  0
 40 86  1  0  0  0
 41 51  1  0  0  0
 41 52  1  0  0  0
 41 87  1  0  0  0
 42 55  2  0  0  0
 42 88  1  0  0  0
 43 89  1  0  0  0
 43 90  1  0  0  0
 44 56  2  0  0  0
 44 91  1  0  0  0
 45 57  1  0  0  0
 45 92  1  0  0  0
 46 93  1  0  0  0
 47 94  1  0  0  0
 48 55  1  0  0  0
 48 95  1  0  0  0
 49 96  1  0  0  0
 49 97  1  0  0  0
 49 98  1  0  0  0
 50 99  1  0  0  0
 50100  1  0  0  0
 50101  1  0  0  0
 51102  1  0  0  0
 51103  1  0  0  0
 51104  1  0  0  0
 52105  1  0  0  0
 52106  1  0  0  0
 52107  1  0  0  0
 53108  1  0  0  0
 53109  1  0  0  0
 53110  1  0  0  0
 54111  1  0  0  0
 54112  1  0  0  0
 54113  1  0  0  0
 55114  1  0  0  0
 56 58  1  0  0  0
 56115  1  0  0  0
 57 58  2  0  0  0
 57116  1  0  0  0
 58117  1  0  0  0
M  END
> <s_m_entry_id>
26191

> <s_m_entry_name>
dock_pv.15

> <s_m_Source_Path>
/home/csk/Desktop/cluster/DUD-E-result/reni

> <s_m_Source_File>
dock_pv.maegz

> <i_m_Source_File_Index>
15

> <chembl_id>
CHEMBL307911

> <chembl_pref_name>
None

> <i_lp_mmshare_version>
53161

> <r_lp_tautomer_probability>
0.99990000499975

> <s_lp_Force_Field>
OPLS_2005

> <r_lp_Energy>
31.704848

> <b_lp_Chiralities_Consistent>
1

> <s_lp_Variant>
CHEMBL286_lig549-4

> <s_i_glide_gridfile>
glide-grid_3g6z

> <i_i_glide_lignum>
1536

> <i_i_glide_rotatable_bonds>
24

> <r_i_docking_score>
-9.16983327832203

> <r_i_glide_ligand_efficiency>
-0.158100573764173

> <r_i_glide_ligand_efficiency_sa>
-0.611987817025275

> <r_i_glide_ligand_efficiency_ln>
-1.81206136680351

> <r_i_glide_gscore>
-9.16983327832203

> <r_i_glide_lipo>
-4.36378939062313

> <r_i_glide_hbond>
-0.608

> <r_i_glide_metal>
0

> <r_i_glide_rewards>
-0.422010467908648

> <r_i_glide_evdw>
-63.4435539245605

> <r_i_glide_ecoul>
-7.09092950820923

> <r_i_glide_erotb>
0.459948904904403

> <r_i_glide_esite>
-0.000165202235242325

> <r_i_glide_emodel>
-102.046090501361

> <r_i_glide_energy>
-70.5344834327698

> <r_i_glide_einternal>
10.2523546218872

> <i_i_glide_confnum>
3

> <i_i_glide_posenum>
26

> <r_i_glide_eff_state_penalty>
0

> <s_user_duplicate_titles>
CHEMBL286_lig549

> <i_f3d_flags>
0

> <s_m_subgroup_title>
dock_pv

> <s_m_subgroupid>
dock_pv

> <b_m_subgroup_collapsed>
1

$$$$
CHEMBL286_lig1384
                    3D
 Schrodinger Suite 2021-1.
 89 91  0  0  1  0            999 V2000
   -4.9669  -18.9385  -12.2404 S   0  0  0  0  0  0
   -5.7575  -17.4914  -13.1897 C   0  0  0  0  0  0
   -9.1480  -16.4978   -8.8435 C   0  0  0  0  0  0
   -8.6933  -15.4227   -9.5184 N   0  0  0  0  0  0
   -7.3620  -15.3299  -10.1582 C   0  0  2  0  0  0
   -6.0691  -16.2153  -12.3611 C   0  0  1  0  0  0
  -10.6685  -16.6883   -8.7728 C   0  0  1  0  0  0
   -7.1926  -16.4090  -11.2892 C   0  0  2  0  0  0
  -10.6882  -20.8299  -11.1370 N   0  0  0  0  0  0
  -11.3603  -15.4576   -8.3734 N   0  0  0  0  0  0
  -10.8053  -18.6351  -10.5284 C   0  0  0  0  0  0
  -11.2399  -17.2404  -10.1096 C   0  0  0  0  0  0
   -9.4839  -19.0256  -10.6733 N   0  0  0  0  0  0
  -12.5728  -15.4406   -7.7904 C   0  0  0  0  0  0
   -9.4713  -20.3125  -11.0249 C   0  0  0  0  0  0
   -5.7790  -19.2600  -11.0644 O   0  0  0  0  0  0
   -4.6699  -19.9864  -13.2210 O   0  0  0  0  0  0
  -11.5374  -19.7643  -10.8272 C   0  0  0  0  0  0
   -3.4348  -18.3141  -11.6531 N   0  0  2  0  0  0
   -6.2045  -15.3273   -9.1047 C   0  0  0  0  0  0
   -8.4308  -17.3803   -8.3751 O   0  0  0  0  0  0
  -13.2179  -16.4622   -7.5828 O   0  0  0  0  0  0
   -4.8566  -15.6893  -11.8678 O   0  0  0  0  0  0
  -13.1632  -14.1038   -7.3304 C   0  0  0  0  0  0
   -8.4122  -16.5315  -12.0212 O   0  0  0  0  0  0
  -12.9395  -12.9059   -8.2802 C   0  0  0  0  0  0
   -5.7917  -13.9291   -8.5905 C   0  0  0  0  0  0
  -12.0240  -11.8412   -7.7005 C   0  0  0  0  0  0
   -2.1895  -18.5047  -12.4166 C   0  0  0  0  0  0
  -12.5567  -10.8629   -6.8616 C   0  0  0  0  0  0
  -10.6707  -11.8084   -8.0364 C   0  0  0  0  0  0
   -6.8652  -13.2981   -7.6744 C   0  0  0  0  0  0
   -4.4493  -13.9946   -7.8225 C   0  0  0  0  0  0
   -1.5083  -19.8349  -12.0521 C   0  0  0  0  0  0
   -0.2123  -20.1025  -12.8432 C   0  0  0  0  0  0
    0.9384  -19.1369  -12.5202 C   0  0  0  0  0  0
   -9.8708  -10.7586   -7.5948 C   0  0  0  0  0  0
  -11.7521   -9.8160   -6.4209 C   0  0  0  0  0  0
   -3.9871  -12.5929   -7.3797 C   0  0  0  0  0  0
   -6.4481  -11.9000   -7.1832 C   0  0  0  0  0  0
   -5.0632  -11.9120   -6.5124 C   0  0  0  0  0  0
  -10.4128   -9.7644   -6.7879 C   0  0  0  0  0  0
   -6.6683  -17.9005  -13.6211 H   0  0  0  0  0  0
   -5.0911  -17.2634  -14.0194 H   0  0  0  0  0  0
   -9.3808  -14.7866   -9.8933 H   0  0  0  0  0  0
   -7.3474  -14.3646  -10.6650 H   0  0  0  0  0  0
   -6.4243  -15.4567  -13.0636 H   0  0  0  0  0  0
  -10.8464  -17.4325   -7.9944 H   0  0  0  0  0  0
   -7.0649  -17.3549  -10.7771 H   0  0  0  0  0  0
   -8.6760  -18.4366  -10.5167 H   0  0  0  0  0  0
  -10.8445  -14.5979   -8.4721 H   0  0  0  0  0  0
  -12.3255  -17.2636  -10.0483 H   0  0  0  0  0  0
  -11.0087  -16.5581  -10.9295 H   0  0  0  0  0  0
   -8.5633  -20.8710  -11.2019 H   0  0  0  0  0  0
  -12.6087  -19.8991  -10.8269 H   0  0  0  0  0  0
   -3.3619  -18.1042  -10.6529 H   0  0  0  0  0  0
   -6.4373  -15.9587   -8.2485 H   0  0  0  0  0  0
   -5.3216  -15.8129   -9.5133 H   0  0  0  0  0  0
   -4.3111  -15.4097  -12.6171 H   0  0  0  0  0  0
  -12.8008  -13.8995   -6.3219 H   0  0  0  0  0  0
  -14.2387  -14.2560   -7.2230 H   0  0  0  0  0  0
   -8.2691  -16.9946  -12.8614 H   0  0  0  0  0  0
  -13.9001  -12.4386   -8.5052 H   0  0  0  0  0  0
  -12.5691  -13.2113   -9.2587 H   0  0  0  0  0  0
   -5.6381  -13.2650   -9.4442 H   0  0  0  0  0  0
   -2.4365  -18.4629  -13.4772 H   0  0  0  0  0  0
   -1.5360  -17.6653  -12.1783 H   0  0  0  0  0  0
  -13.6022  -10.8821   -6.5889 H   0  0  0  0  0  0
  -10.2494  -12.5601   -8.6865 H   0  0  0  0  0  0
   -7.8213  -13.2377   -8.1935 H   0  0  0  0  0  0
   -7.0576  -13.9521   -6.8227 H   0  0  0  0  0  0
   -4.5389  -14.6622   -6.9639 H   0  0  0  0  0  0
   -3.6836  -14.4502   -8.4524 H   0  0  0  0  0  0
   -1.2887  -19.8587  -10.9834 H   0  0  0  0  0  0
   -2.2016  -20.6561  -12.2426 H   0  0  0  0  0  0
    0.1221  -21.1197  -12.6375 H   0  0  0  0  0  0
   -0.4215  -20.0711  -13.9132 H   0  0  0  0  0  0
    1.8320  -19.4020  -13.0866 H   0  0  0  0  0  0
    0.6846  -18.1084  -12.7746 H   0  0  0  0  0  0
    1.1975  -19.1695  -11.4612 H   0  0  0  0  0  0
   -8.8355  -10.6956   -7.8914 H   0  0  0  0  0  0
  -12.1704   -9.0355   -5.8026 H   0  0  0  0  0  0
   -3.7751  -11.9755   -8.2545 H   0  0  0  0  0  0
   -3.0519  -12.6669   -6.8212 H   0  0  0  0  0  0
   -6.4323  -11.2032   -8.0164 H   0  0  0  0  0  0
   -7.1931  -11.5232   -6.4829 H   0  0  0  0  0  0
   -4.7567  -10.8974   -6.2552 H   0  0  0  0  0  0
   -5.1457  -12.4616   -5.5797 H   0  0  0  0  0  0
   -9.7955   -8.9432   -6.4548 H   0  0  0  0  0  0
  1  2  1  0  0  0
  1 16  2  0  0  0
  1 17  2  0  0  0
  1 19  1  0  0  0
  2  6  1  0  0  0
  2 43  1  0  0  0
  2 44  1  0  0  0
  3  4  1  0  0  0
  3  7  1  0  0  0
  3 21  2  0  0  0
  4  5  1  0  0  0
  4 45  1  0  0  0
  5  8  1  0  0  0
  5 20  1  0  0  0
  5 46  1  0  0  0
  6  8  1  0  0  0
  6 23  1  0  0  0
  6 47  1  0  0  0
  7 10  1  0  0  0
  7 12  1  0  0  0
  7 48  1  0  0  0
  8 25  1  0  0  0
  8 49  1  0  0  0
  9 15  2  0  0  0
  9 18  1  0  0  0
 10 14  1  0  0  0
 10 51  1  0  0  0
 11 18  2  0  0  0
 11 12  1  0  0  0
 11 13  1  0  0  0
 12 52  1  0  0  0
 12 53  1  0  0  0
 13 50  1  0  0  0
 13 15  1  0  0  0
 14 22  2  0  0  0
 14 24  1  0  0  0
 15 54  1  0  0  0
 18 55  1  0  0  0
 19 29  1  0  0  0
 19 56  1  0  0  0
 20 27  1  0  0  0
 20 57  1  0  0  0
 20 58  1  0  0  0
 23 59  1  0  0  0
 24 26  1  0  0  0
 24 60  1  0  0  0
 24 61  1  0  0  0
 25 62  1  0  0  0
 26 28  1  0  0  0
 26 63  1  0  0  0
 26 64  1  0  0  0
 27 32  1  0  0  0
 27 33  1  0  0  0
 27 65  1  0  0  0
 28 30  2  0  0  0
 28 31  1  0  0  0
 29 34  1  0  0  0
 29 66  1  0  0  0
 29 67  1  0  0  0
 30 38  1  0  0  0
 30 68  1  0  0  0
 31 37  2  0  0  0
 31 69  1  0  0  0
 32 40  1  0  0  0
 32 70  1  0  0  0
 32 71  1  0  0  0
 33 39  1  0  0  0
 33 72  1  0  0  0
 33 73  1  0  0  0
 34 35  1  0  0  0
 34 74  1  0  0  0
 34 75  1  0  0  0
 35 36  1  0  0  0
 35 76  1  0  0  0
 35 77  1  0  0  0
 36 78  1  0  0  0
 36 79  1  0  0  0
 36 80  1  0  0  0
 37 42  1  0  0  0
 37 81  1  0  0  0
 38 42  2  0  0  0
 38 82  1  0  0  0
 39 41  1  0  0  0
 39 83  1  0  0  0
 39 84  1  0  0  0
 40 41  1  0  0  0
 40 85  1  0  0  0
 40 86  1  0  0  0
 41 87  1  0  0  0
 41 88  1  0  0  0
 42 89  1  0  0  0
M  END
> <s_m_entry_id>
26192

> <s_m_entry_name>
dock_pv.16

> <s_m_Source_Path>
/home/csk/Desktop/cluster/DUD-E-result/reni

> <s_m_Source_File>
dock_pv.maegz

> <i_m_Source_File_Index>
16

> <chembl_id>
CHEMBL327595

> <chembl_pref_name>
None

> <i_lp_mmshare_version>
53161

> <r_lp_tautomer_probability>
0.499999999999999

> <s_lp_Force_Field>
OPLS_2005

> <r_lp_Energy>
15.870884

> <b_lp_Chiralities_Consistent>
1

> <s_lp_Variant>
CHEMBL286_lig1384-2

> <s_i_glide_gridfile>
glide-grid_3g6z

> <i_i_glide_lignum>
4442

> <i_i_glide_rotatable_bonds>
22

> <r_i_docking_score>
-9.09066564904477

> <r_i_glide_ligand_efficiency>
-0.216444420215352

> <r_i_glide_ligand_efficiency_sa>
-0.752366570868196

> <r_i_glide_ligand_efficiency_ln>
-1.91880531600653

> <r_i_glide_gscore>
-9.09066564904477

> <r_i_glide_lipo>
-4.9310592600889

> <r_i_glide_hbond>
-0.455932252679321

> <r_i_glide_metal>
0

> <r_i_glide_rewards>
-0.128891779441526

> <r_i_glide_evdw>
-57.3901481628418

> <r_i_glide_ecoul>
-9.25536155700684

> <r_i_glide_erotb>
0.79558976600484

> <r_i_glide_esite>
-0.11256048114675

> <r_i_glide_emodel>
-96.1855377669738

> <r_i_glide_energy>
-66.6455097198486

> <r_i_glide_einternal>
15.9804334640503

> <i_i_glide_confnum>
23

> <i_i_glide_posenum>
91

> <r_i_glide_eff_state_penalty>
0

> <s_user_duplicate_titles>
CHEMBL286_lig1384,CHEMBL286_lig1384

> <i_f3d_flags>
0

> <s_m_subgroup_title>
dock_pv

> <s_m_subgroupid>
dock_pv

> <b_m_subgroup_collapsed>
1

$$$$
CHEMBL286_lig994
                    3D
 Schrodinger Suite 2021-1.
 74 75  0  0  1  0            999 V2000
   -4.9127  -19.0298  -12.3017 C   0  0  0  0  0  0
  -11.0704  -14.0564   -8.3698 C   0  0  0  0  0  0
  -12.3404  -13.7001   -7.7968 C   0  0  0  0  0  0
   -4.3212  -16.6408  -11.7697 C   0  0  0  0  0  0
  -10.0307  -13.0665   -8.4207 C   0  0  0  0  0  0
   -5.4357  -17.7219  -11.6693 C   0  0  1  0  0  0
   -4.6691  -15.2187  -11.2632 C   0  0  1  0  0  0
   -4.9759  -15.0925   -9.7392 C   0  0  2  0  0  0
  -12.5713  -12.3436   -7.3958 C   0  0  0  0  0  0
   -5.4987  -13.6767   -9.3691 C   0  0  0  0  0  0
   -5.0678  -19.2640  -13.5041 O   0  0  0  0  0  0
   -6.0788  -13.4118   -7.9291 C   0  0  0  0  0  0
  -10.3133  -11.7595   -8.0177 C   0  0  0  0  0  0
  -11.5591  -11.4010   -7.5353 C   0  0  0  0  0  0
   -8.5925  -13.4550   -8.8067 C   0  0  0  0  0  0
   -4.2217  -19.8398  -11.4817 N   0  0  0  0  0  0
   -3.7877  -15.4178   -8.9574 N   0  0  0  0  0  0
   -7.4725  -12.7089   -8.0212 C   0  0  0  0  0  0
   -3.6048  -14.3529  -11.6210 O   0  0  0  0  0  0
  -15.0020  -12.0609   -7.6215 O   0  0  0  0  0  0
  -13.3135  -14.7246   -7.6215 C   0  0  0  0  0  0
  -10.8877  -15.3990   -8.8213 C   0  0  0  0  0  0
  -13.8926  -11.9080   -6.7653 C   0  0  0  0  0  0
   -6.7744  -17.2740  -12.3005 C   0  0  0  0  0  0
   -6.2100  -14.6903   -7.0527 C   0  0  0  0  0  0
   -5.1220  -12.4509   -7.1775 C   0  0  0  0  0  0
   -3.4332  -20.9893  -11.9157 C   0  0  0  0  0  0
   -2.0323  -20.5564  -12.3895 C   0  0  0  0  0  0
   -1.1140  -21.7224  -12.7834 C   0  0  0  0  0  0
  -13.0685  -16.0304   -8.0213 C   0  0  0  0  0  0
  -11.8727  -16.3602   -8.6386 C   0  0  0  0  0  0
    0.2744  -21.2305  -13.2122 C   0  0  0  0  0  0
   -4.0355  -16.5604  -12.8193 H   0  0  0  0  0  0
   -3.4226  -16.9866  -11.2543 H   0  0  0  0  0  0
   -5.6283  -17.9232  -10.6138 H   0  0  0  0  0  0
   -5.5331  -14.8622  -11.8245 H   0  0  0  0  0  0
   -5.7510  -15.8205   -9.4963 H   0  0  0  0  0  0
   -6.2461  -13.4176  -10.1168 H   0  0  0  0  0  0
   -4.6969  -12.9649   -9.5766 H   0  0  0  0  0  0
   -9.5470  -10.9993   -8.0208 H   0  0  0  0  0  0
  -11.7247  -10.3772   -7.2299 H   0  0  0  0  0  0
   -8.4443  -14.5104   -8.6115 H   0  0  0  0  0  0
   -8.4771  -13.3176   -9.8816 H   0  0  0  0  0  0
   -4.1808  -19.6082  -10.5000 H   0  0  0  0  0  0
   -3.4791  -16.3533   -9.1748 H   0  0  0  0  0  0
   -3.0498  -14.8042   -9.2811 H   0  0  0  0  0  0
   -7.3688  -11.7031   -8.4208 H   0  0  0  0  0  0
   -7.8122  -12.5438   -7.0026 H   0  0  0  0  0  0
   -3.4691  -14.4423  -12.5795 H   0  0  0  0  0  0
  -15.8018  -11.9190   -7.1098 H   0  0  0  0  0  0
  -14.2676  -14.4970   -7.1791 H   0  0  0  0  0  0
   -9.9759  -15.7016   -9.3099 H   0  0  0  0  0  0
  -14.0559  -12.4805   -5.8530 H   0  0  0  0  0  0
  -13.8455  -10.8602   -6.4629 H   0  0  0  0  0  0
   -7.5039  -18.0856  -12.3111 H   0  0  0  0  0  0
   -7.2301  -16.4553  -11.7448 H   0  0  0  0  0  0
   -6.6429  -16.9438  -13.3324 H   0  0  0  0  0  0
   -5.2401  -15.1278   -6.8197 H   0  0  0  0  0  0
   -6.6689  -14.4675   -6.0902 H   0  0  0  0  0  0
   -6.8057  -15.4716   -7.5238 H   0  0  0  0  0  0
   -4.1227  -12.8781   -7.0836 H   0  0  0  0  0  0
   -5.0204  -11.4951   -7.6936 H   0  0  0  0  0  0
   -5.4734  -12.2331   -6.1680 H   0  0  0  0  0  0
   -3.3367  -21.6857  -11.0817 H   0  0  0  0  0  0
   -3.9408  -21.5627  -12.6965 H   0  0  0  0  0  0
   -2.1357  -19.8840  -13.2425 H   0  0  0  0  0  0
   -1.5506  -19.9757  -11.6009 H   0  0  0  0  0  0
   -1.0060  -22.4121  -11.9453 H   0  0  0  0  0  0
   -1.5655  -22.2912  -13.5972 H   0  0  0  0  0  0
  -13.8271  -16.7866   -7.8847 H   0  0  0  0  0  0
  -11.7084  -17.3709   -8.9828 H   0  0  0  0  0  0
    0.9183  -22.0629  -13.4880 H   0  0  0  0  0  0
    0.2099  -20.5637  -14.0726 H   0  0  0  0  0  0
    0.7724  -20.6907  -12.4086 H   0  0  0  0  0  0
  1  6  1  0  0  0
  1 11  2  0  0  0
  1 16  1  0  0  0
  2  5  2  0  0  0
  2  3  1  0  0  0
  2 22  1  0  0  0
  3 21  1  0  0  0
  3  9  2  0  0  0
  4  6  1  0  0  0
  4  7  1  0  0  0
  4 33  1  0  0  0
  4 34  1  0  0  0
  5 15  1  0  0  0
  5 13  1  0  0  0
  6 24  1  0  0  0
  6 35  1  0  0  0
  7  8  1  0  0  0
  7 19  1  0  0  0
  7 36  1  0  0  0
  8 10  1  0  0  0
  8 17  1  0  0  0
  8 37  1  0  0  0
  9 14  1  0  0  0
  9 23  1  0  0  0
 10 12  1  0  0  0
 10 38  1  0  0  0
 10 39  1  0  0  0
 12 18  1  0  0  0
 12 25  1  0  0  0
 12 26  1  0  0  0
 13 14  2  0  0  0
 13 40  1  0  0  0
 14 41  1  0  0  0
 15 18  1  0  0  0
 15 42  1  0  0  0
 15 43  1  0  0  0
 16 27  1  0  0  0
 16 44  1  0  0  0
 17 45  1  0  0  0
 17 46  1  0  0  0
 18 47  1  0  0  0
 18 48  1  0  0  0
 19 49  1  0  0  0
 20 23  1  0  0  0
 20 50  1  0  0  0
 21 30  2  0  0  0
 21 51  1  0  0  0
 22 31  2  0  0  0
 22 52  1  0  0  0
 23 53  1  0  0  0
 23 54  1  0  0  0
 24 55  1  0  0  0
 24 56  1  0  0  0
 24 57  1  0  0  0
 25 58  1  0  0  0
 25 59  1  0  0  0
 25 60  1  0  0  0
 26 61  1  0  0  0
 26 62  1  0  0  0
 26 63  1  0  0  0
 27 28  1  0  0  0
 27 64  1  0  0  0
 27 65  1  0  0  0
 28 29  1  0  0  0
 28 66  1  0  0  0
 28 67  1  0  0  0
 29 32  1  0  0  0
 29 68  1  0  0  0
 29 69  1  0  0  0
 30 31  1  0  0  0
 30 70  1  0  0  0
 31 71  1  0  0  0
 32 72  1  0  0  0
 32 73  1  0  0  0
 32 74  1  0  0  0
M  END
> <s_m_entry_id>
26193

> <s_m_entry_name>
dock_pv.17

> <s_m_Source_Path>
/home/csk/Desktop/cluster/DUD-E-result/reni

> <s_m_Source_File>
dock_pv.maegz

> <i_m_Source_File_Index>
17

> <chembl_id>
CHEMBL40203

> <chembl_pref_name>
None

> <i_lp_mmshare_version>
53161

> <r_lp_tautomer_probability>
1

> <s_lp_Force_Field>
OPLS_2005

> <r_lp_Energy>
38.456476

> <b_lp_Chiralities_Consistent>
1

> <s_lp_Variant>
CHEMBL286_lig994-1

> <s_i_glide_gridfile>
glide-grid_3g6z

> <i_i_glide_lignum>
2631

> <i_i_glide_rotatable_bonds>
16

> <r_i_docking_score>
-8.98155410363897

> <r_i_glide_ligand_efficiency>
-0.280673565738718

> <r_i_glide_ligand_efficiency_sa>
-0.891083025997193

> <r_i_glide_ligand_efficiency_ln>
-2.01121479172293

> <r_i_glide_gscore>
-8.98155410363897

> <r_i_glide_lipo>
-4.77266798013057

> <r_i_glide_hbond>
-0.608

> <r_i_glide_metal>
0

> <r_i_glide_rewards>
-1.28920223803606

> <r_i_glide_evdw>
-40.1124458312988

> <r_i_glide_ecoul>
-10.8002452850342

> <r_i_glide_erotb>
1.32604328305052

> <r_i_glide_esite>
-0.0120680842027859

> <r_i_glide_emodel>
-70.1676834620971

> <r_i_glide_energy>
-50.912691116333

> <r_i_glide_einternal>
15.3689584732056

> <i_i_glide_confnum>
221

> <i_i_glide_posenum>
192

> <r_i_glide_eff_state_penalty>
0

> <s_user_duplicate_titles>
CHEMBL286_lig994

> <i_f3d_flags>
0

> <s_m_subgroup_title>
dock_pv

> <s_m_subgroupid>
dock_pv

> <b_m_subgroup_collapsed>
1

$$$$
CHEMBL286_lig576
                    3D
 Schrodinger Suite 2021-1.
 93 94  0  0  1  0            999 V2000
  -11.6099  -18.6433  -11.1708 P   0  0  2  0  0  0
   -7.9017  -19.4948  -10.3164 C   0  0  0  0  0  0
   -7.3102  -18.7909  -11.2959 N   0  0  0  0  0  0
   -9.3416  -19.9633  -10.5915 C   0  0  1  0  0  0
  -10.0021  -18.8927  -11.2689 O   0  0  0  0  0  0
   -5.4338  -14.0306  -11.2721 C   0  0  0  0  0  0
   -5.9725  -18.1922  -11.2651 C   0  0  2  0  0  0
   -6.9446  -15.9190  -12.1287 C   0  0  0  0  0  0
   -5.8651  -17.0259  -12.2890 C   0  0  2  0  0  0
   -6.4280  -14.4748  -12.3710 C   0  0  1  0  0  0
  -12.4570  -19.8658  -11.2209 O   0  0  0  0  0  0
   -7.3605  -19.7528   -9.2409 O   0  0  0  0  0  0
   -4.8531  -19.2673  -11.3971 C   0  0  0  0  0  0
   -5.8376  -13.7831  -10.1354 O   0  0  0  0  0  0
  -11.8691  -17.6630  -12.4210 O   0  0  0  0  0  0
   -4.1389  -13.9504  -11.6210 N   0  0  0  0  0  0
  -11.8698  -17.4369   -9.7948 C   0  0  0  0  0  0
   -5.8688  -17.5083  -13.6209 O   0  0  0  0  0  0
   -3.4024  -18.7398  -11.5702 C   0  0  0  0  0  0
   -9.4079  -21.2609  -11.4459 C   0  0  0  0  0  0
  -11.0689  -14.5503   -8.4467 C   0  0  0  0  0  0
  -10.6903  -17.1307   -8.8430 C   0  0  0  0  0  0
   -7.5989  -13.4761  -12.4963 C   0  0  0  0  0  0
  -10.1602  -15.6856   -8.9534 C   0  0  0  0  0  0
   -3.0487  -13.5195  -10.7511 C   0  0  0  0  0  0
  -12.3900  -14.7545   -8.0229 C   0  0  0  0  0  0
  -10.5382  -13.2559   -8.4210 C   0  0  0  0  0  0
   -2.9415  -17.8281  -10.4054 C   0  0  0  0  0  0
   -2.3878  -19.8979  -11.7049 C   0  0  0  0  0  0
   -8.8653  -22.5492  -10.7812 C   0  0  0  0  0  0
   -2.8391  -11.9934  -10.7778 C   0  0  0  0  0  0
   -1.6190  -11.5132   -9.9710 C   0  0  0  0  0  0
   -1.7701  -11.6718   -8.4508 C   0  0  0  0  0  0
   -7.3671  -22.8118  -11.0113 C   0  0  0  0  0  0
  -11.3193  -12.1766   -8.0160 C   0  0  0  0  0  0
  -13.1734  -13.6753   -7.6205 C   0  0  0  0  0  0
   -1.5497  -17.2306  -10.6932 C   0  0  0  0  0  0
   -0.9747  -19.3603  -12.0173 C   0  0  0  0  0  0
   -0.5066  -18.3381  -10.9567 C   0  0  0  0  0  0
  -12.6368  -12.3905   -7.6221 C   0  0  0  0  0  0
   -7.8668  -18.5985  -12.1181 H   0  0  0  0  0  0
   -9.8246  -20.1364   -9.6281 H   0  0  0  0  0  0
   -5.8694  -17.7356  -10.2774 H   0  0  0  0  0  0
   -7.3707  -15.9638  -11.1240 H   0  0  0  0  0  0
   -7.7897  -16.1334  -12.7881 H   0  0  0  0  0  0
   -4.8885  -16.5682  -12.1525 H   0  0  0  0  0  0
   -5.9098  -14.4664  -13.3322 H   0  0  0  0  0  0
   -4.8916  -19.9271  -10.5286 H   0  0  0  0  0  0
   -5.0905  -19.9046  -12.2510 H   0  0  0  0  0  0
  -11.6174  -18.0358  -13.3089 H   0  0  0  0  0  0
   -3.8816  -14.2200  -12.5680 H   0  0  0  0  0  0
  -12.2268  -16.5158  -10.2564 H   0  0  0  0  0  0
  -12.7188  -17.7920   -9.2205 H   0  0  0  0  0  0
   -6.7754  -17.6633  -13.9246 H   0  0  0  0  0  0
   -3.3507  -18.1669  -12.4978 H   0  0  0  0  0  0
  -10.4552  -21.4436  -11.6870 H   0  0  0  0  0  0
   -8.9213  -21.1137  -12.4133 H   0  0  0  0  0  0
  -10.9937  -17.3062   -7.8105 H   0  0  0  0  0  0
   -9.8654  -17.8185   -9.0075 H   0  0  0  0  0  0
   -7.2435  -12.4625  -12.6884 H   0  0  0  0  0  0
   -8.2624  -13.7434  -13.3197 H   0  0  0  0  0  0
   -8.2012  -13.4433  -11.5862 H   0  0  0  0  0  0
   -9.2115  -15.6283   -8.4210 H   0  0  0  0  0  0
   -9.8995  -15.4984   -9.9941 H   0  0  0  0  0  0
   -2.1344  -14.0128  -11.0822 H   0  0  0  0  0  0
   -3.1926  -13.8744   -9.7283 H   0  0  0  0  0  0
  -12.8317  -15.7384   -8.0075 H   0  0  0  0  0  0
   -9.5201  -13.0816   -8.7375 H   0  0  0  0  0  0
   -3.6471  -17.0123  -10.2502 H   0  0  0  0  0  0
   -2.9547  -18.3790   -9.4627 H   0  0  0  0  0  0
   -2.3878  -20.5145  -10.8042 H   0  0  0  0  0  0
   -2.7017  -20.5725  -12.5028 H   0  0  0  0  0  0
   -9.0823  -22.5416   -9.7115 H   0  0  0  0  0  0
   -9.4137  -23.4013  -11.1841 H   0  0  0  0  0  0
   -3.7377  -11.4932  -10.4135 H   0  0  0  0  0  0
   -2.7154  -11.6693  -11.8127 H   0  0  0  0  0  0
   -1.4431  -10.4630  -10.1948 H   0  0  0  0  0  0
   -0.7238  -12.0376  -10.3081 H   0  0  0  0  0  0
   -0.9002  -11.2699   -7.9315 H   0  0  0  0  0  0
   -1.8682  -12.7179   -8.1620 H   0  0  0  0  0  0
   -2.6480  -11.1401   -8.0823 H   0  0  0  0  0  0
   -7.0782  -23.7788  -10.5978 H   0  0  0  0  0  0
   -7.1264  -22.8255  -12.0754 H   0  0  0  0  0  0
   -6.7361  -22.0612  -10.5376 H   0  0  0  0  0  0
  -10.9080  -11.1778   -8.0122 H   0  0  0  0  0  0
  -14.1970  -13.8347   -7.3127 H   0  0  0  0  0  0
   -1.6096  -16.5699  -11.5592 H   0  0  0  0  0  0
   -1.2303  -16.6074   -9.8561 H   0  0  0  0  0  0
   -0.9729  -18.8906  -13.0013 H   0  0  0  0  0  0
   -0.2643  -20.1857  -12.0728 H   0  0  0  0  0  0
    0.4428  -17.8951  -11.2602 H   0  0  0  0  0  0
   -0.3094  -18.8625  -10.0211 H   0  0  0  0  0  0
  -13.2446  -11.5524   -7.3118 H   0  0  0  0  0  0
  1  5  1  0  0  0
  1 11  2  0  0  0
  1 15  1  0  0  0
  1 17  1  0  0  0
  2  4  1  0  0  0
  2  3  1  0  0  0
  2 12  2  0  0  0
  3  7  1  0  0  0
  3 41  1  0  0  0
  4  5  1  0  0  0
  4 20  1  0  0  0
  4 42  1  0  0  0
  6 10  1  0  0  0
  6 14  2  0  0  0
  6 16  1  0  0  0
  7  9  1  0  0  0
  7 13  1  0  0  0
  7 43  1  0  0  0
  8  9  1  0  0  0
  8 10  1  0  0  0
  8 44  1  0  0  0
  8 45  1  0  0  0
  9 18  1  0  0  0
  9 46  1  0  0  0
 10 23  1  0  0  0
 10 47  1  0  0  0
 13 19  1  0  0  0
 13 48  1  0  0  0
 13 49  1  0  0  0
 15 50  1  0  0  0
 16 25  1  0  0  0
 16 51  1  0  0  0
 17 22  1  0  0  0
 17 52  1  0  0  0
 17 53  1  0  0  0
 18 54  1  0  0  0
 19 28  1  0  0  0
 19 29  1  0  0  0
 19 55  1  0  0  0
 20 30  1  0  0  0
 20 56  1  0  0  0
 20 57  1  0  0  0
 21 24  1  0  0  0
 21 26  2  0  0  0
 21 27  1  0  0  0
 22 24  1  0  0  0
 22 58  1  0  0  0
 22 59  1  0  0  0
 23 60  1  0  0  0
 23 61  1  0  0  0
 23 62  1  0  0  0
 24 63  1  0  0  0
 24 64  1  0  0  0
 25 31  1  0  0  0
 25 65  1  0  0  0
 25 66  1  0  0  0
 26 36  1  0  0  0
 26 67  1  0  0  0
 27 35  2  0  0  0
 27 68  1  0  0  0
 28 37  1  0  0  0
 28 69  1  0  0  0
 28 70  1  0  0  0
 29 38  1  0  0  0
 29 71  1  0  0  0
 29 72  1  0  0  0
 30 34  1  0  0  0
 30 73  1  0  0  0
 30 74  1  0  0  0
 31 32  1  0  0  0
 31 75  1  0  0  0
 31 76  1  0  0  0
 32 33  1  0  0  0
 32 77  1  0  0  0
 32 78  1  0  0  0
 33 79  1  0  0  0
 33 80  1  0  0  0
 33 81  1  0  0  0
 34 82  1  0  0  0
 34 83  1  0  0  0
 34 84  1  0  0  0
 35 40  1  0  0  0
 35 85  1  0  0  0
 36 40  2  0  0  0
 36 86  1  0  0  0
 37 39  1  0  0  0
 37 87  1  0  0  0
 37 88  1  0  0  0
 38 39  1  0  0  0
 38 89  1  0  0  0
 38 90  1  0  0  0
 39 91  1  0  0  0
 39 92  1  0  0  0
 40 93  1  0  0  0
M  END
> <s_m_entry_id>
26194

> <s_m_entry_name>
dock_pv.18

> <s_m_Source_Path>
/home/csk/Desktop/cluster/DUD-E-result/reni

> <s_m_Source_File>
dock_pv.maegz

> <i_m_Source_File_Index>
18

> <chembl_id>
CHEMBL356144

> <chembl_pref_name>
None

> <i_lp_mmshare_version>
53161

> <r_lp_tautomer_probability>
1

> <s_lp_Force_Field>
OPLS_2005

> <r_lp_Energy>
-4.952868

> <b_lp_Chiralities_Consistent>
1

> <s_lp_Variant>
CHEMBL286_lig576-1

> <s_i_glide_gridfile>
glide-grid_3g6z

> <i_i_glide_lignum>
1620

> <i_i_glide_rotatable_bonds>
23

> <r_i_docking_score>
-8.96806771868816

> <r_i_glide_ligand_efficiency>
-0.224201692967204

> <r_i_glide_ligand_efficiency_sa>
-0.766759003413399

> <r_i_glide_ligand_efficiency_ln>
-1.91262492594467

> <r_i_glide_gscore>
-8.96806771868816

> <r_i_glide_lipo>
-3.66223950067605

> <r_i_glide_hbond>
-0.683425836568876

> <r_i_glide_metal>
0

> <r_i_glide_rewards>
-0.730068456586136

> <r_i_glide_evdw>
-44.9619331359863

> <r_i_glide_ecoul>
-16.9489765167236

> <r_i_glide_erotb>
0.953485000576266

> <r_i_glide_esite>
-0.0553757911255099

> <r_i_glide_emodel>
-86.363301620958

> <r_i_glide_energy>
-61.91090965271

> <r_i_glide_einternal>
17.6508674621582

> <i_i_glide_confnum>
20

> <i_i_glide_posenum>
262

> <r_i_glide_eff_state_penalty>
0

> <s_user_duplicate_titles>
CHEMBL286_lig576,242867

> <i_f3d_flags>
0

> <s_m_subgroup_title>
dock_pv

> <s_m_subgroupid>
dock_pv

> <b_m_subgroup_collapsed>
1

$$$$
CHEMBL286_lig551
                    3D
 Schrodinger Suite 2021-1.
 96 99  0  0  1  0            999 V2000
   -5.6237  -14.8457   -7.8607 S   0  0  0  0  0  0
   -6.8892  -14.6752   -9.0843 N   0  0  2  0  0  0
   -8.2783  -15.1411   -8.8014 C   0  0  2  0  0  0
   -4.8241  -13.2601   -7.9008 N   0  0  0  0  0  0
   -8.6256  -16.2531   -9.8179 C   0  0  0  0  0  0
   -7.9323  -19.2601  -10.1851 C   0  0  0  0  0  0
   -9.1665  -17.3696   -9.2955 N   0  0  0  0  0  0
   -7.3523  -19.0950  -11.3869 N   0  0  0  0  0  0
   -9.3292  -18.6639   -9.9608 C   0  0  1  0  0  0
  -12.1071  -21.8222  -11.2394 N   0  0  0  0  0  0
  -12.6168  -19.6655  -11.2212 N   0  0  0  0  0  0
   -5.9136  -19.2695  -11.6349 C   0  0  2  0  0  0
  -13.0792  -20.9102  -11.2305 C   0  0  0  0  0  0
   -6.2690  -14.9809   -6.5535 O   0  0  0  0  0  0
   -4.6724  -15.8573   -8.3277 O   0  0  0  0  0  0
  -10.2816  -18.6119  -11.1862 C   0  0  0  0  0  0
   -5.4653  -18.5329  -12.9366 C   0  0  2  0  0  0
   -5.9831  -17.1003  -13.2061 C   0  0  0  0  0  0
   -9.2172  -13.8995   -8.8271 C   0  0  0  0  0  0
   -8.3894  -16.1090  -11.0161 O   0  0  0  0  0  0
   -7.3774  -19.7851   -9.2217 O   0  0  0  0  0  0
   -5.4889  -20.7718  -11.5792 C   0  0  0  0  0  0
  -11.2209  -19.7952  -11.2205 C   0  0  0  0  0  0
   -3.3257  -10.9601   -7.2271 O   0  0  0  0  0  0
  -10.9045  -21.1390  -11.2211 C   0  0  0  0  0  0
   -3.3386  -13.2907   -7.8899 C   0  0  0  0  0  0
   -5.3974  -12.2281   -6.9999 C   0  0  0  0  0  0
  -10.6840  -14.0557   -8.4211 C   0  0  0  0  0  0
   -5.8709  -19.3030  -14.0445 O   0  0  0  0  0  0
   -5.3626  -15.9922  -12.3370 C   0  0  2  0  0  0
   -3.9685  -21.0279  -11.4324 C   0  0  0  0  0  0
   -5.6530  -16.2921  -11.0085 O   0  0  0  0  0  0
   -2.7887  -11.8808   -8.1749 C   0  0  0  0  0  0
   -4.7498  -10.8561   -7.2793 C   0  0  0  0  0  0
  -11.4973  -15.1133   -8.8849 C   0  0  0  0  0  0
  -11.2849  -13.0550   -7.6249 C   0  0  0  0  0  0
   -3.7059  -22.3867  -10.7410 C   0  0  0  0  0  0
   -3.1990  -21.0335  -12.7797 C   0  0  0  0  0  0
   -5.9192  -14.5871  -12.6724 C   0  0  0  0  0  0
   -5.1785  -13.4257  -11.9826 C   0  0  0  0  0  0
  -12.5985  -13.1912   -7.2027 C   0  0  0  0  0  0
  -12.7919  -15.2540   -8.4209 C   0  0  0  0  0  0
   -1.6857  -21.1574  -12.5534 C   0  0  0  0  0  0
   -2.2015  -22.5915  -10.4894 C   0  0  0  0  0  0
  -13.3349  -14.3056   -7.5718 C   0  0  0  0  0  0
   -1.3928  -22.4620  -11.8038 C   0  0  0  0  0  0
   -6.5445  -15.1182   -9.9411 H   0  0  0  0  0  0
   -8.2682  -15.6464   -7.8384 H   0  0  0  0  0  0
   -9.3345  -17.3946   -8.3006 H   0  0  0  0  0  0
   -7.8806  -18.6530  -12.1265 H   0  0  0  0  0  0
   -9.8244  -19.2880   -9.2210 H   0  0  0  0  0  0
  -12.2266  -22.8253  -11.2657 H   0  0  0  0  0  0
   -5.3987  -18.7732  -10.8101 H   0  0  0  0  0  0
  -14.1302  -21.1604  -11.2473 H   0  0  0  0  0  0
  -10.8992  -17.7156  -11.1397 H   0  0  0  0  0  0
   -9.7552  -18.5428  -12.1372 H   0  0  0  0  0  0
   -4.3816  -18.4473  -12.9450 H   0  0  0  0  0  0
   -5.7436  -16.8625  -14.2407 H   0  0  0  0  0  0
   -7.0694  -17.0633  -13.1457 H   0  0  0  0  0  0
   -8.7893  -13.1626   -8.1464 H   0  0  0  0  0  0
   -9.1752  -13.4197   -9.8043 H   0  0  0  0  0  0
   -5.8862  -21.3160  -12.4376 H   0  0  0  0  0  0
   -5.9847  -21.2359  -10.7265 H   0  0  0  0  0  0
   -9.9474  -21.6432  -11.2196 H   0  0  0  0  0  0
   -2.9995  -13.5379   -6.8826 H   0  0  0  0  0  0
   -2.9695  -13.9756   -8.6529 H   0  0  0  0  0  0
   -6.4763  -12.1627   -7.1459 H   0  0  0  0  0  0
   -5.1135  -12.4617   -5.9747 H   0  0  0  0  0  0
   -6.4641  -18.7677  -14.5943 H   0  0  0  0  0  0
   -4.2754  -16.0122  -12.4210 H   0  0  0  0  0  0
   -3.5436  -20.2490  -10.7970 H   0  0  0  0  0  0
   -6.5948  -16.5053  -10.9827 H   0  0  0  0  0  0
   -3.0420  -11.5594   -9.1867 H   0  0  0  0  0  0
   -1.7010  -11.8774   -8.1031 H   0  0  0  0  0  0
   -5.0639  -10.4646   -8.2491 H   0  0  0  0  0  0
   -5.0608  -10.1346   -6.5227 H   0  0  0  0  0  0
  -11.1515  -15.8405   -9.5940 H   0  0  0  0  0  0
  -10.7142  -12.1963   -7.3015 H   0  0  0  0  0  0
   -4.1206  -23.2048  -11.3334 H   0  0  0  0  0  0
   -4.2396  -22.4321   -9.7890 H   0  0  0  0  0  0
   -3.3593  -20.1328  -13.3506 H   0  0  0  0  0  0
   -3.5754  -21.8285  -13.4272 H   0  0  0  0  0  0
   -5.8691  -14.4240  -13.7478 H   0  0  0  0  0  0
   -6.9799  -14.5291  -12.4334 H   0  0  0  0  0  0
   -5.6313  -12.4702  -12.2428 H   0  0  0  0  0  0
   -5.2027  -13.5133  -10.8974 H   0  0  0  0  0  0
   -4.1343  -13.3865  -12.2896 H   0  0  0  0  0  0
  -13.0389  -12.4435   -6.5582 H   0  0  0  0  0  0
  -13.3888  -16.0971   -8.7399 H   0  0  0  0  0  0
   -1.1573  -21.1465  -13.5088 H   0  0  0  0  0  0
   -1.3149  -20.3035  -11.9819 H   0  0  0  0  0  0
   -2.0233  -23.5594  -10.0214 H   0  0  0  0  0  0
   -1.8668  -21.8452   -9.7669 H   0  0  0  0  0  0
  -14.3419  -14.4375   -7.2216 H   0  0  0  0  0  0
   -1.6785  -23.2629  -12.4799 H   0  0  0  0  0  0
   -0.3225  -22.5625  -11.6211 H   0  0  0  0  0  0
  1  2  1  0  0  0
  1  4  1  0  0  0
  1 14  2  0  0  0
  1 15  2  0  0  0
  2  3  1  0  0  0
  2 47  1  0  0  0
  3  5  1  0  0  0
  3 19  1  0  0  0
  3 48  1  0  0  0
  4 26  1  0  0  0
  4 27  1  0  0  0
  5  7  1  0  0  0
  5 20  2  0  0  0
  6  9  1  0  0  0
  6  8  1  0  0  0
  6 21  2  0  0  0
  7  9  1  0  0  0
  7 49  1  0  0  0
  8 12  1  0  0  0
  8 50  1  0  0  0
  9 16  1  0  0  0
  9 51  1  0  0  0
 10 25  1  0  0  0
 10 13  1  0  0  0
 10 52  1  0  0  0
 11 23  1  0  0  0
 11 13  2  0  0  0
 12 17  1  0  0  0
 12 22  1  0  0  0
 12 53  1  0  0  0
 13 54  1  0  0  0
 16 23  1  0  0  0
 16 55  1  0  0  0
 16 56  1  0  0  0
 17 18  1  0  0  0
 17 29  1  0  0  0
 17 57  1  0  0  0
 18 30  1  0  0  0
 18 58  1  0  0  0
 18 59  1  0  0  0
 19 28  1  0  0  0
 19 60  1  0  0  0
 19 61  1  0  0  0
 22 31  1  0  0  0
 22 62  1  0  0  0
 22 63  1  0  0  0
 23 25  2  0  0  0
 24 34  1  0  0  0
 24 33  1  0  0  0
 25 64  1  0  0  0
 26 33  1  0  0  0
 26 65  1  0  0  0
 26 66  1  0  0  0
 27 34  1  0  0  0
 27 67  1  0  0  0
 27 68  1  0  0  0
 28 35  2  0  0  0
 28 36  1  0  0  0
 29 69  1  0  0  0
 30 32  1  0  0  0
 30 39  1  0  0  0
 30 70  1  0  0  0
 31 37  1  0  0  0
 31 38  1  0  0  0
 31 71  1  0  0  0
 32 72  1  0  0  0
 33 73  1  0  0  0
 33 74  1  0  0  0
 34 75  1  0  0  0
 34 76  1  0  0  0
 35 42  1  0  0  0
 35 77  1  0  0  0
 36 41  2  0  0  0
 36 78  1  0  0  0
 37 44  1  0  0  0
 37 79  1  0  0  0
 37 80  1  0  0  0
 38 43  1  0  0  0
 38 81  1  0  0  0
 38 82  1  0  0  0
 39 40  1  0  0  0
 39 83  1  0  0  0
 39 84  1  0  0  0
 40 85  1  0  0  0
 40 86  1  0  0  0
 40 87  1  0  0  0
 41 45  1  0  0  0
 41 88  1  0  0  0
 42 45  2  0  0  0
 42 89  1  0  0  0
 43 46  1  0  0  0
 43 90  1  0  0  0
 43 91  1  0  0  0
 44 46  1  0  0  0
 44 92  1  0  0  0
 44 93  1  0  0  0
 45 94  1  0  0  0
 46 95  1  0  0  0
 46 96  1  0  0  0
M  END
> <s_m_entry_id>
26195

> <s_m_entry_name>
dock_pv.19

> <s_m_Source_Path>
/home/csk/Desktop/cluster/DUD-E-result/reni

> <s_m_Source_File>
dock_pv.maegz

> <i_m_Source_File_Index>
19

> <chembl_id>
CHEMBL3348525

> <chembl_pref_name>
None

> <i_lp_mmshare_version>
53161

> <r_lp_tautomer_probability>
0.499999999999999

> <s_lp_Force_Field>
OPLS_2005

> <r_lp_Energy>
28.382918

> <b_lp_Chiralities_Consistent>
1

> <s_lp_Variant>
CHEMBL286_lig551-1

> <s_i_glide_gridfile>
glide-grid_3g6z

> <i_i_glide_lignum>
1553

> <i_i_glide_rotatable_bonds>
21

> <r_i_docking_score>
-8.96477999640345

> <r_i_glide_ligand_efficiency>
-0.194886521660944

> <r_i_glide_ligand_efficiency_sa>
-0.698287735635786

> <r_i_glide_ligand_efficiency_ln>
-1.85658433921428

> <r_i_glide_gscore>
-8.96477999640345

> <r_i_glide_lipo>
-3.40839209562796

> <r_i_glide_hbond>
-0.710134659253628

> <r_i_glide_metal>
0

> <r_i_glide_rewards>
-1.57714448543114

> <r_i_glide_evdw>
-51.0090026855469

> <r_i_glide_ecoul>
-8.13603210449219

> <r_i_glide_erotb>
0.520540749237715

> <r_i_glide_esite>
-0.0187945553772641

> <r_i_glide_emodel>
-77.4953723810257

> <r_i_glide_energy>
-59.1450347900391

> <r_i_glide_einternal>
25.8185501098633

> <i_i_glide_confnum>
138

> <i_i_glide_posenum>
330

> <r_i_glide_eff_state_penalty>
0

> <s_user_duplicate_titles>
CHEMBL286_lig551

> <i_f3d_flags>
0

> <s_m_subgroup_title>
dock_pv

> <s_m_subgroupid>
dock_pv

> <b_m_subgroup_collapsed>
1

$$$$
CHEMBL286_lig658
                    3D
 Schrodinger Suite 2021-1.
 94 97  0  0  1  0            999 V2000
  -10.8019  -16.0812   -8.6818 C   0  0  0  0  0  0
  -11.3352  -14.9591   -8.0226 N   0  0  0  0  0  0
   -7.6676  -15.8428  -10.4788 C   0  0  0  0  0  0
   -4.4745  -16.2316  -10.8883 C   0  0  0  0  0  0
   -3.1980  -16.1295  -11.3011 N   0  0  0  0  0  0
   -6.9035  -16.1925  -11.5328 N   0  0  0  0  0  0
   -9.9024  -15.7274   -9.6209 O   0  0  0  0  0  0
   -8.9652  -16.6395  -10.2061 C   0  0  1  0  0  0
   -2.0349  -16.6425  -10.5529 C   0  0  1  0  0  0
   -5.5542  -15.7064  -11.8603 C   0  0  1  0  0  0
  -11.0687  -17.2563   -8.4310 O   0  0  0  0  0  0
   -4.2941  -13.2014   -8.5511 N   0  0  0  0  0  0
  -10.9486  -13.5741   -8.3706 C   0  0  0  0  0  0
  -12.1418  -15.1590   -6.8098 C   0  0  0  0  0  0
   -3.6899  -11.9839   -8.4914 C   0  0  0  0  0  0
   -7.3360  -14.9542   -9.6925 O   0  0  0  0  0  0
   -4.7974  -16.7458   -9.8162 O   0  0  0  0  0  0
   -9.5894  -17.3947  -11.4213 C   0  0  0  0  0  0
   -1.4957  -17.9614  -11.1819 C   0  0  0  0  0  0
  -13.4094  -14.2860   -6.9204 C   0  0  0  0  0  0
  -12.2527  -12.7976   -8.6079 C   0  0  0  0  0  0
   -0.8945  -15.5898  -10.3799 C   0  0  2  0  0  0
   -2.3404  -11.6638   -9.5802 S   0  0  0  0  0  0
  -13.1537  -12.8326   -7.3669 C   0  0  0  0  0  0
   -1.2722  -14.2824   -9.6374 C   0  0  0  0  0  0
   -9.2710  -18.8871  -11.4213 C   0  0  0  0  0  0
  -14.3663  -12.0628   -7.5371 N   0  0  0  0  0  0
   -2.0264  -13.2136  -10.4589 C   0  0  0  0  0  0
   -0.3038  -15.2630  -11.6209 O   0  0  0  0  0  0
   -2.4986  -19.1346  -11.3329 C   0  0  0  0  0  0
   -5.3286  -13.4462   -7.7116 C   0  0  0  0  0  0
   -5.5330  -14.1655  -11.9914 C   0  0  0  0  0  0
   -4.0894  -10.9895   -7.6002 C   0  0  0  0  0  0
   -8.1041  -19.3685  -12.0210 C   0  0  0  0  0  0
  -10.1627  -19.7804  -10.8210 C   0  0  0  0  0  0
   -1.8987  -20.2679  -12.2004 C   0  0  0  0  0  0
   -2.9242  -19.7328   -9.9713 C   0  0  0  0  0  0
   -5.7978  -12.5002   -6.8030 C   0  0  0  0  0  0
   -5.1523  -11.2630   -6.7438 C   0  0  0  0  0  0
   -9.8915  -21.1460  -10.8211 C   0  0  0  0  0  0
   -7.8319  -20.7339  -12.0205 C   0  0  0  0  0  0
   -3.9647  -20.8568  -10.1518 C   0  0  0  0  0  0
   -2.9165  -21.4054  -12.4285 C   0  0  0  0  0  0
   -3.4432  -21.9668  -11.0903 C   0  0  0  0  0  0
   -8.7257  -21.6166  -11.4198 C   0  0  0  0  0  0
   -3.0108  -15.6837  -12.1909 H   0  0  0  0  0  0
   -7.2523  -16.9128  -12.1480 H   0  0  0  0  0  0
   -8.6729  -17.3705   -9.4452 H   0  0  0  0  0  0
   -2.3407  -16.8789   -9.5310 H   0  0  0  0  0  0
   -5.3268  -16.1267  -12.8390 H   0  0  0  0  0  0
  -10.4089  -13.1600   -7.5185 H   0  0  0  0  0  0
  -10.2759  -13.4879   -9.2212 H   0  0  0  0  0  0
  -12.4532  -16.2016   -6.7035 H   0  0  0  0  0  0
  -11.5299  -14.9157   -5.9390 H   0  0  0  0  0  0
  -10.6757  -17.2859  -11.4162 H   0  0  0  0  0  0
   -9.3026  -16.9588  -12.3807 H   0  0  0  0  0  0
   -1.0990  -17.7245  -12.1692 H   0  0  0  0  0  0
   -0.6370  -18.3090  -10.6061 H   0  0  0  0  0  0
  -14.0834  -14.7792   -7.6222 H   0  0  0  0  0  0
  -13.8691  -14.2942   -5.9361 H   0  0  0  0  0  0
  -12.0088  -11.7634   -8.8545 H   0  0  0  0  0  0
  -12.7675  -13.2109   -9.4755 H   0  0  0  0  0  0
   -0.1047  -16.0685   -9.7975 H   0  0  0  0  0  0
  -12.5771  -12.3685   -6.5661 H   0  0  0  0  0  0
   -0.3572  -13.8261   -9.2571 H   0  0  0  0  0  0
   -1.8514  -14.5345   -8.7483 H   0  0  0  0  0  0
  -14.9401  -12.4752   -8.2567 H   0  0  0  0  0  0
  -14.9042  -12.0762   -6.6827 H   0  0  0  0  0  0
   -2.9778  -13.5938  -10.8132 H   0  0  0  0  0  0
   -1.4698  -12.9488  -11.3494 H   0  0  0  0  0  0
   -0.0853  -14.3181  -11.6224 H   0  0  0  0  0  0
   -3.3944  -18.7814  -11.8459 H   0  0  0  0  0  0
   -5.7783  -14.4261   -7.7790 H   0  0  0  0  0  0
   -4.5956  -13.8176  -12.4207 H   0  0  0  0  0  0
   -6.3356  -13.8155  -12.6406 H   0  0  0  0  0  0
   -5.6392  -13.6632  -11.0303 H   0  0  0  0  0  0
   -3.5862  -10.0346   -7.5616 H   0  0  0  0  0  0
   -7.4178  -18.7004  -12.5177 H   0  0  0  0  0  0
  -11.0668  -19.4145  -10.3581 H   0  0  0  0  0  0
   -1.5704  -19.8704  -13.1627 H   0  0  0  0  0  0
   -0.9897  -20.6542  -11.7360 H   0  0  0  0  0  0
   -2.0474  -20.1014   -9.4371 H   0  0  0  0  0  0
   -3.3312  -18.9564   -9.3233 H   0  0  0  0  0  0
   -6.6209  -12.7352   -6.1455 H   0  0  0  0  0  0
   -5.4700  -10.5211   -6.0281 H   0  0  0  0  0  0
  -10.5827  -21.8351  -10.3600 H   0  0  0  0  0  0
   -6.9385  -21.1089  -12.4979 H   0  0  0  0  0  0
   -4.8858  -20.4353  -10.5563 H   0  0  0  0  0  0
   -4.2244  -21.2795   -9.1812 H   0  0  0  0  0  0
   -3.7540  -21.0340  -13.0212 H   0  0  0  0  0  0
   -2.4588  -22.2035  -13.0143 H   0  0  0  0  0  0
   -4.2297  -22.6981  -11.2755 H   0  0  0  0  0  0
   -2.6386  -22.5088  -10.5898 H   0  0  0  0  0  0
   -8.5157  -22.6757  -11.4262 H   0  0  0  0  0  0
  1  2  1  0  0  0
  1  7  1  0  0  0
  1 11  2  0  0  0
  2 13  1  0  0  0
  2 14  1  0  0  0
  3  8  1  0  0  0
  3  6  1  0  0  0
  3 16  2  0  0  0
  4 10  1  0  0  0
  4  5  1  0  0  0
  4 17  2  0  0  0
  5  9  1  0  0  0
  5 46  1  0  0  0
  6 10  1  0  0  0
  6 47  1  0  0  0
  7  8  1  0  0  0
  8 18  1  0  0  0
  8 48  1  0  0  0
  9 19  1  0  0  0
  9 22  1  0  0  0
  9 49  1  0  0  0
 10 32  1  0  0  0
 10 50  1  0  0  0
 12 15  2  0  0  0
 12 31  1  0  0  0
 13 21  1  0  0  0
 13 51  1  0  0  0
 13 52  1  0  0  0
 14 20  1  0  0  0
 14 53  1  0  0  0
 14 54  1  0  0  0
 15 23  1  0  0  0
 15 33  1  0  0  0
 18 26  1  0  0  0
 18 55  1  0  0  0
 18 56  1  0  0  0
 19 30  1  0  0  0
 19 57  1  0  0  0
 19 58  1  0  0  0
 20 24  1  0  0  0
 20 59  1  0  0  0
 20 60  1  0  0  0
 21 24  1  0  0  0
 21 61  1  0  0  0
 21 62  1  0  0  0
 22 25  1  0  0  0
 22 29  1  0  0  0
 22 63  1  0  0  0
 23 28  1  0  0  0
 24 27  1  0  0  0
 24 64  1  0  0  0
 25 28  1  0  0  0
 25 65  1  0  0  0
 25 66  1  0  0  0
 26 34  1  0  0  0
 26 35  2  0  0  0
 27 67  1  0  0  0
 27 68  1  0  0  0
 28 69  1  0  0  0
 28 70  1  0  0  0
 29 71  1  0  0  0
 30 36  1  0  0  0
 30 37  1  0  0  0
 30 72  1  0  0  0
 31 38  2  0  0  0
 31 73  1  0  0  0
 32 74  1  0  0  0
 32 75  1  0  0  0
 32 76  1  0  0  0
 33 39  2  0  0  0
 33 77  1  0  0  0
 34 41  2  0  0  0
 34 78  1  0  0  0
 35 40  1  0  0  0
 35 79  1  0  0  0
 36 43  1  0  0  0
 36 80  1  0  0  0
 36 81  1  0  0  0
 37 42  1  0  0  0
 37 82  1  0  0  0
 37 83  1  0  0  0
 38 39  1  0  0  0
 38 84  1  0  0  0
 39 85  1  0  0  0
 40 45  2  0  0  0
 40 86  1  0  0  0
 41 45  1  0  0  0
 41 87  1  0  0  0
 42 44  1  0  0  0
 42 88  1  0  0  0
 42 89  1  0  0  0
 43 44  1  0  0  0
 43 90  1  0  0  0
 43 91  1  0  0  0
 44 92  1  0  0  0
 44 93  1  0  0  0
 45 94  1  0  0  0
M  END
> <s_m_entry_id>
26196

> <s_m_entry_name>
dock_pv.20

> <s_m_Source_Path>
/home/csk/Desktop/cluster/DUD-E-result/reni

> <s_m_Source_File>
dock_pv.maegz

> <i_m_Source_File_Index>
20

> <chembl_id>
CHEMBL119293

> <chembl_pref_name>
None

> <i_lp_mmshare_version>
53161

> <r_lp_tautomer_probability>
1

> <s_lp_Force_Field>
OPLS_2005

> <r_lp_Energy>
36.055085

> <b_lp_Chiralities_Consistent>
1

> <s_lp_Variant>
CHEMBL286_lig658-2

> <s_i_glide_gridfile>
glide-grid_3g6z

> <i_i_glide_lignum>
1872

> <i_i_glide_rotatable_bonds>
19

> <r_i_docking_score>
-8.95826132879172

> <r_i_glide_ligand_efficiency>
-0.199072473973149

> <r_i_glide_ligand_efficiency_sa>
-0.708079548884894

> <r_i_glide_ligand_efficiency_ln>
-1.86371756865745

> <r_i_glide_gscore>
-8.95826132879172

> <r_i_glide_lipo>
-3.71392596686361

> <r_i_glide_hbond>
-0.739657493060564

> <r_i_glide_metal>
0

> <r_i_glide_rewards>
-1.21240482713572

> <r_i_glide_evdw>
-52.1593246459961

> <r_i_glide_ecoul>
-8.61462593078613

> <r_i_glide_erotb>
0.631556353936448

> <r_i_glide_esite>
-0.0236692737505482

> <r_i_glide_emodel>
-87.9614815152752

> <r_i_glide_energy>
-60.7739505767822

> <r_i_glide_einternal>
12.4604301452637

> <i_i_glide_confnum>
6

> <i_i_glide_posenum>
239

> <r_i_glide_eff_state_penalty>
0

> <s_user_duplicate_titles>
CHEMBL286_lig658

> <i_f3d_flags>
0

> <s_m_subgroup_title>
dock_pv

> <s_m_subgroupid>
dock_pv

> <b_m_subgroup_collapsed>
1

$$$$
CHEMBL286_lig656
                    3D
 Schrodinger Suite 2021-1.
 98101  0  0  1  0            999 V2000
   -6.4619  -16.9530  -10.1827 C   0  0  0  0  0  0
   -4.1725  -14.2341  -10.9856 C   0  0  0  0  0  0
   -1.2586  -15.9360  -10.9526 C   0  0  0  0  0  0
   -4.5768  -15.5169  -10.9222 N   0  0  0  0  0  0
   -7.3496  -17.8620  -10.6175 N   0  0  0  0  0  0
   -5.9323  -15.9744  -11.2494 C   0  0  1  0  0  0
   -1.7066  -14.6828  -11.3334 N   0  0  0  0  0  0
   -4.5471  -19.9937  -12.8201 N   0  0  0  0  0  0
   -2.7079  -13.9310  -10.5596 C   0  0  1  0  0  0
   -5.5067  -17.9405  -12.9241 C   0  0  0  0  0  0
   -7.9854  -18.9360   -9.8485 C   0  0  2  0  0  0
   -5.9922  -16.5181  -12.7053 C   0  0  0  0  0  0
   -6.2689  -18.8602  -13.6200 N   0  0  0  0  0  0
   -5.6961  -20.0520  -13.4830 C   0  0  0  0  0  0
   -0.1812  -16.2469  -11.7164 O   0  0  0  0  0  0
   -4.4190  -18.6475  -12.4591 C   0  0  0  0  0  0
  -11.1942  -14.9767   -8.8212 N   0  0  0  0  0  0
   -1.7369  -16.6367  -10.0630 O   0  0  0  0  0  0
   -6.0814  -16.8616   -9.0166 O   0  0  0  0  0  0
   -4.9072  -13.3159  -11.3530 O   0  0  0  0  0  0
  -11.8604  -16.1653   -8.7202 C   0  0  0  0  0  0
   -2.2889  -12.4291  -10.6040 C   0  0  0  0  0  0
   -6.9302  -20.0508   -9.5453 C   0  0  0  0  0  0
    0.7001  -17.3625  -11.5102 C   0  0  0  0  0  0
   -9.2829  -19.4242  -10.5737 C   0  0  1  0  0  0
  -10.1589  -18.3365  -11.2636 C   0  0  0  0  0  0
  -11.4181  -17.2619   -9.4435 O   0  0  0  0  0  0
   -2.5341  -11.6420   -9.3301 C   0  0  0  0  0  0
  -10.4644  -17.0471  -10.4806 C   0  0  0  0  0  0
   -8.9442  -20.3194  -11.6197 O   0  0  0  0  0  0
   -7.3133  -21.2217   -8.5956 C   0  0  0  0  0  0
  -11.6635  -13.9126   -8.1212 C   0  0  0  0  0  0
  -12.9948  -16.3078   -7.9231 C   0  0  0  0  0  0
   -0.0477  -18.7131  -11.6201 C   0  0  0  0  0  0
    1.4287  -17.2292  -10.1528 C   0  0  0  0  0  0
    1.7372  -17.2627  -12.6508 C   0  0  0  0  0  0
   -1.4736  -11.3817   -8.4353 C   0  0  0  0  0  0
   -3.8414  -11.2624   -8.9713 C   0  0  0  0  0  0
   -7.9750  -22.4263   -9.3129 C   0  0  0  0  0  0
   -6.0470  -21.7405   -7.8621 C   0  0  0  0  0  0
  -12.7960  -13.9838   -7.3108 C   0  0  0  0  0  0
  -13.4696  -15.2008   -7.2211 C   0  0  0  0  0  0
   -4.0662  -10.5977   -7.7774 C   0  0  0  0  0  0
   -1.7178  -10.6962   -7.2516 C   0  0  0  0  0  0
   -8.3157  -23.5752   -8.3368 C   0  0  0  0  0  0
   -6.3518  -22.8787   -6.8692 C   0  0  0  0  0  0
   -7.0734  -24.0507   -7.5598 C   0  0  0  0  0  0
   -3.0097  -10.3004   -6.9300 C   0  0  0  0  0  0
   -3.9404  -16.2172  -10.5597 H   0  0  0  0  0  0
   -7.5922  -17.8235  -11.5958 H   0  0  0  0  0  0
   -6.6058  -15.1165  -11.1972 H   0  0  0  0  0  0
   -1.2272  -14.1955  -12.0777 H   0  0  0  0  0  0
   -7.1203  -18.6359  -14.1462 H   0  0  0  0  0  0
   -2.6004  -14.2266   -9.5117 H   0  0  0  0  0  0
   -8.3028  -18.4975   -8.8976 H   0  0  0  0  0  0
   -7.0286  -16.4648  -13.0449 H   0  0  0  0  0  0
   -5.4689  -15.8418  -13.3704 H   0  0  0  0  0  0
   -6.1014  -20.9606  -13.9084 H   0  0  0  0  0  0
   -3.5906  -18.3093  -11.8539 H   0  0  0  0  0  0
   -2.7767  -11.9152  -11.4350 H   0  0  0  0  0  0
   -1.2249  -12.3230  -10.8209 H   0  0  0  0  0  0
   -6.5470  -20.4592  -10.4828 H   0  0  0  0  0  0
   -6.0632  -19.5516   -9.1135 H   0  0  0  0  0  0
   -9.8942  -19.9726   -9.8596 H   0  0  0  0  0  0
   -9.6700  -18.0200  -12.1877 H   0  0  0  0  0  0
  -11.1009  -18.7800  -11.5875 H   0  0  0  0  0  0
   -9.5563  -16.5978  -10.0786 H   0  0  0  0  0  0
  -10.8845  -16.3266  -11.1853 H   0  0  0  0  0  0
   -8.2933  -19.8985  -12.1860 H   0  0  0  0  0  0
   -8.0248  -20.8635   -7.8523 H   0  0  0  0  0  0
  -11.1148  -12.9876   -8.2224 H   0  0  0  0  0  0
  -13.5172  -17.2515   -7.8794 H   0  0  0  0  0  0
   -0.6316  -18.7700  -12.5401 H   0  0  0  0  0  0
    0.6504  -19.5517  -11.6232 H   0  0  0  0  0  0
   -0.7396  -18.8742  -10.7931 H   0  0  0  0  0  0
    1.9593  -16.2805  -10.0853 H   0  0  0  0  0  0
    0.7330  -17.2624   -9.3147 H   0  0  0  0  0  0
    2.1567  -18.0275  -10.0116 H   0  0  0  0  0  0
    2.1460  -16.2588  -12.7432 H   0  0  0  0  0  0
    2.5710  -17.9476  -12.4923 H   0  0  0  0  0  0
    1.3095  -17.5072  -13.6209 H   0  0  0  0  0  0
   -0.4672  -11.6971   -8.6726 H   0  0  0  0  0  0
   -4.6690  -11.4866   -9.6232 H   0  0  0  0  0  0
   -8.8775  -22.1223   -9.8370 H   0  0  0  0  0  0
   -7.3113  -22.7951  -10.0962 H   0  0  0  0  0  0
   -5.3119  -22.0778   -8.5952 H   0  0  0  0  0  0
   -5.5520  -20.9229   -7.3363 H   0  0  0  0  0  0
  -13.1441  -13.1189   -6.7662 H   0  0  0  0  0  0
  -14.3510  -15.2925   -6.6058 H   0  0  0  0  0  0
   -5.0688  -10.3134   -7.5060 H   0  0  0  0  0  0
   -0.9027  -10.4726   -6.5785 H   0  0  0  0  0  0
   -9.0691  -23.2405   -7.6236 H   0  0  0  0  0  0
   -8.7567  -24.4096   -8.8828 H   0  0  0  0  0  0
   -6.9760  -22.4987   -6.0631 H   0  0  0  0  0  0
   -5.4288  -23.2285   -6.4030 H   0  0  0  0  0  0
   -7.3575  -24.7996   -6.8209 H   0  0  0  0  0  0
   -6.3842  -24.5468   -8.2460 H   0  0  0  0  0  0
   -3.2027   -9.7596   -6.0208 H   0  0  0  0  0  0
  1  5  1  0  0  0
  1  6  1  0  0  0
  1 19  2  0  0  0
  2  4  1  0  0  0
  2  9  1  0  0  0
  2 20  2  0  0  0
  3  7  1  0  0  0
  3 15  1  0  0  0
  3 18  2  0  0  0
  4  6  1  0  0  0
  4 49  1  0  0  0
  5 11  1  0  0  0
  5 50  1  0  0  0
  6 12  1  0  0  0
  6 51  1  0  0  0
  7  9  1  0  0  0
  7 52  1  0  0  0
  8 14  2  0  0  0
  8 16  1  0  0  0
  9 22  1  0  0  0
  9 54  1  0  0  0
 10 16  2  0  0  0
 10 12  1  0  0  0
 10 13  1  0  0  0
 11 23  1  0  0  0
 11 25  1  0  0  0
 11 55  1  0  0  0
 12 56  1  0  0  0
 12 57  1  0  0  0
 13 53  1  0  0  0
 13 14  1  0  0  0
 14 58  1  0  0  0
 15 24  1  0  0  0
 16 59  1  0  0  0
 17 21  2  0  0  0
 17 32  1  0  0  0
 21 27  1  0  0  0
 21 33  1  0  0  0
 22 28  1  0  0  0
 22 60  1  0  0  0
 22 61  1  0  0  0
 23 31  1  0  0  0
 23 62  1  0  0  0
 23 63  1  0  0  0
 24 34  1  0  0  0
 24 35  1  0  0  0
 24 36  1  0  0  0
 25 26  1  0  0  0
 25 30  1  0  0  0
 25 64  1  0  0  0
 26 29  1  0  0  0
 26 65  1  0  0  0
 26 66  1  0  0  0
 27 29  1  0  0  0
 28 37  2  0  0  0
 28 38  1  0  0  0
 29 67  1  0  0  0
 29 68  1  0  0  0
 30 69  1  0  0  0
 31 39  1  0  0  0
 31 40  1  0  0  0
 31 70  1  0  0  0
 32 41  2  0  0  0
 32 71  1  0  0  0
 33 42  2  0  0  0
 33 72  1  0  0  0
 34 73  1  0  0  0
 34 74  1  0  0  0
 34 75  1  0  0  0
 35 76  1  0  0  0
 35 77  1  0  0  0
 35 78  1  0  0  0
 36 79  1  0  0  0
 36 80  1  0  0  0
 36 81  1  0  0  0
 37 44  1  0  0  0
 37 82  1  0  0  0
 38 43  2  0  0  0
 38 83  1  0  0  0
 39 45  1  0  0  0
 39 84  1  0  0  0
 39 85  1  0  0  0
 40 46  1  0  0  0
 40 86  1  0  0  0
 40 87  1  0  0  0
 41 42  1  0  0  0
 41 88  1  0  0  0
 42 89  1  0  0  0
 43 48  1  0  0  0
 43 90  1  0  0  0
 44 48  2  0  0  0
 44 91  1  0  0  0
 45 47  1  0  0  0
 45 92  1  0  0  0
 45 93  1  0  0  0
 46 47  1  0  0  0
 46 94  1  0  0  0
 46 95  1  0  0  0
 47 96  1  0  0  0
 47 97  1  0  0  0
 48 98  1  0  0  0
M  END
> <s_m_entry_id>
26197

> <s_m_entry_name>
dock_pv.21

> <s_m_Source_Path>
/home/csk/Desktop/cluster/DUD-E-result/reni

> <s_m_Source_File>
dock_pv.maegz

> <i_m_Source_File_Index>
21

> <chembl_id>
CHEMBL333707

> <chembl_pref_name>
None

> <i_lp_mmshare_version>
53161

> <r_lp_tautomer_probability>
0.499999999999999

> <s_lp_Force_Field>
OPLS_2005

> <r_lp_Energy>
17.891947

> <b_lp_Chiralities_Consistent>
1

> <s_lp_Variant>
CHEMBL286_lig656-7

> <s_i_glide_gridfile>
glide-grid_3g6z

> <i_i_glide_lignum>
1865

> <i_i_glide_rotatable_bonds>
22

> <r_i_docking_score>
-8.93996669752562

> <r_i_glide_ligand_efficiency>
-0.18624930619845

> <r_i_glide_ligand_efficiency_sa>
-0.676874898514366

> <r_i_glide_ligand_efficiency_ln>
-1.83526951105214

> <r_i_glide_gscore>
-8.93996669752562

> <r_i_glide_lipo>
-3.75588191610707

> <r_i_glide_hbond>
-0.783757647822632

> <r_i_glide_metal>
0

> <r_i_glide_rewards>
-0.521140386349761

> <r_i_glide_evdw>
-58.1519737243652

> <r_i_glide_ecoul>
-9.11330890655518

> <r_i_glide_erotb>
0.617508339997232

> <r_i_glide_esite>
-0.222100065041848

> <r_i_glide_emodel>
-95.5845176516385

> <r_i_glide_energy>
-67.2652826309204

> <r_i_glide_einternal>
20.7617702484131

> <i_i_glide_confnum>
47

> <i_i_glide_posenum>
10

> <r_i_glide_eff_state_penalty>
0

> <s_user_duplicate_titles>
CHEMBL286_lig656

> <i_f3d_flags>
0

> <s_m_subgroup_title>
dock_pv

> <s_m_subgroupid>
dock_pv

> <b_m_subgroup_collapsed>
1

$$$$
CHEMBL286_lig1530
                    3D
 Schrodinger Suite 2021-1.
 91 94  0  0  1  0            999 V2000
   -7.1415  -22.4423  -12.2678 P   0  0  0  0  0  0
   -2.6902  -11.5317   -8.3958 N   0  0  0  0  0  0
   -2.8742  -13.9084   -9.3377 C   0  0  0  0  0  0
   -1.3369  -11.2632   -8.6538 C   0  0  0  0  0  0
   -5.7445  -21.4346  -12.9521 C   0  0  1  0  0  0
   -5.8288  -20.0807  -12.3705 N   0  0  0  0  0  0
   -4.9492  -19.0843  -12.5807 C   0  0  0  0  0  0
   -3.3487  -16.6112  -10.8900 C   0  0  0  0  0  0
   -3.5077  -12.5104   -9.1525 C   0  0  1  0  0  0
   -2.6358  -14.2772  -10.6094 N   0  0  0  0  0  0
   -4.0975  -16.8628  -11.9681 N   0  0  0  0  0  0
   -5.2902  -17.7068  -11.9890 C   0  0  1  0  0  0
   -2.2144  -15.5940  -11.1100 C   0  0  1  0  0  0
   -7.4690  -13.6918  -11.3494 N   0  0  0  0  0  0
   -6.6548  -15.5626  -12.3460 C   0  0  0  0  0  0
   -6.3610  -16.9693  -12.8227 C   0  0  0  0  0  0
   -5.8691  -14.4657  -12.6721 N   0  0  0  0  0  0
   -6.3928  -13.4008  -12.0653 C   0  0  0  0  0  0
   -0.7957  -10.5018   -7.6728 O   0  0  0  0  0  0
   -7.1817  -22.7266  -10.8087 O   0  0  0  0  0  0
   -7.6509  -15.0646  -11.5364 C   0  0  0  0  0  0
   -2.6256  -14.5940   -8.3456 O   0  0  0  0  0  0
   -0.7020  -11.6892   -9.6213 O   0  0  0  0  0  0
   -4.3963  -22.1931  -12.7554 C   0  0  0  0  0  0
   -3.9098  -19.2153  -13.2211 O   0  0  0  0  0  0
   -3.5223  -17.1343   -9.7908 O   0  0  0  0  0  0
   -0.8555  -16.0468  -10.5127 C   0  0  0  0  0  0
   -8.4456  -21.6634  -12.8210 O   0  0  0  0  0  0
   -7.1129  -23.7548  -13.2204 O   0  0  0  0  0  0
   -3.4932  -10.8709   -7.3575 C   0  0  0  0  0  0
    0.6044  -10.2373   -7.6184 C   0  0  0  0  0  0
   -0.0790  -17.0939  -11.3153 C   0  0  0  0  0  0
   -4.8077  -12.5931   -8.3317 C   0  0  0  0  0  0
    0.8653   -8.7410   -7.6432 C   0  0  0  0  0  0
   -4.9370  -11.2231   -7.6891 C   0  0  0  0  0  0
   -3.8954  -22.3480  -11.2902 C   0  0  0  0  0  0
   -0.6684  -18.3134  -11.7275 C   0  0  0  0  0  0
    1.2975  -16.8991  -11.5633 C   0  0  0  0  0  0
    0.1304   -7.8846   -6.8177 C   0  0  0  0  0  0
    1.8690   -8.2303   -8.4677 C   0  0  0  0  0  0
   -2.4706  -21.7923  -11.1083 C   0  0  0  0  0  0
   -3.9609  -23.8098  -10.8071 C   0  0  0  0  0  0
    2.0276  -17.8660  -12.2423 C   0  0  0  0  0  0
    0.3985   -6.5191   -6.8184 C   0  0  0  0  0  0
    2.1341   -6.8648   -8.4711 C   0  0  0  0  0  0
    0.0757  -19.2576  -12.4206 C   0  0  0  0  0  0
    1.4197  -19.0344  -12.6796 C   0  0  0  0  0  0
    1.4035   -6.0171   -7.6418 C   0  0  0  0  0  0
   -5.9439  -21.3442  -14.0211 H   0  0  0  0  0  0
   -6.6810  -19.8617  -11.8709 H   0  0  0  0  0  0
   -3.7259  -12.0652  -10.1256 H   0  0  0  0  0  0
   -2.8197  -13.5985  -11.3334 H   0  0  0  0  0  0
   -3.8620  -16.4200  -12.8458 H   0  0  0  0  0  0
   -5.6666  -17.8465  -10.9732 H   0  0  0  0  0  0
   -2.0693  -15.4529  -12.1802 H   0  0  0  0  0  0
   -5.0118  -14.4746  -13.2227 H   0  0  0  0  0  0
   -6.0639  -16.9253  -13.8724 H   0  0  0  0  0  0
   -7.2950  -17.5308  -12.8110 H   0  0  0  0  0  0
   -5.9768  -12.4074  -12.1336 H   0  0  0  0  0  0
   -8.4671  -15.5890  -11.0629 H   0  0  0  0  0  0
   -3.6295  -21.7029  -13.3556 H   0  0  0  0  0  0
   -4.4779  -23.1752  -13.2248 H   0  0  0  0  0  0
   -0.2224  -15.1624  -10.4236 H   0  0  0  0  0  0
   -0.9796  -16.4137   -9.4931 H   0  0  0  0  0  0
   -8.6031  -21.7705  -13.7884 H   0  0  0  0  0  0
   -7.3676  -23.5957  -14.1522 H   0  0  0  0  0  0
   -3.3478   -9.7905   -7.3289 H   0  0  0  0  0  0
   -3.2119  -11.2728   -6.3845 H   0  0  0  0  0  0
    0.9941  -10.6366   -6.6811 H   0  0  0  0  0  0
    1.1613  -10.7256   -8.4215 H   0  0  0  0  0  0
   -5.6729  -12.8636   -8.9378 H   0  0  0  0  0  0
   -4.7219  -13.3409   -7.5407 H   0  0  0  0  0  0
   -5.3243  -10.5122   -8.4204 H   0  0  0  0  0  0
   -5.5952  -11.2111   -6.8190 H   0  0  0  0  0  0
   -4.5416  -21.7650  -10.6305 H   0  0  0  0  0  0
   -1.7005  -18.5399  -11.5163 H   0  0  0  0  0  0
    1.7838  -15.9987  -11.2190 H   0  0  0  0  0  0
   -0.6457   -8.2763   -6.1751 H   0  0  0  0  0  0
    2.4511   -8.8867   -9.0987 H   0  0  0  0  0  0
   -1.7468  -22.3218  -11.7291 H   0  0  0  0  0  0
   -2.1395  -21.8746  -10.0731 H   0  0  0  0  0  0
   -2.4310  -20.7373  -11.3735 H   0  0  0  0  0  0
   -3.3017  -24.4491  -11.3926 H   0  0  0  0  0  0
   -3.6609  -23.8961   -9.7619 H   0  0  0  0  0  0
   -4.9677  -24.2174  -10.8893 H   0  0  0  0  0  0
    3.0788  -17.7165  -12.4206 H   0  0  0  0  0  0
   -0.1670   -5.8579   -6.1771 H   0  0  0  0  0  0
    2.9120   -6.4639   -9.1046 H   0  0  0  0  0  0
   -0.3875  -20.1774  -12.7441 H   0  0  0  0  0  0
    1.9981  -19.7797  -13.2062 H   0  0  0  0  0  0
    1.6171   -4.9570   -7.6443 H   0  0  0  0  0  0
  1  5  1  0  0  0
  1 20  2  0  0  0
  1 28  1  0  0  0
  1 29  1  0  0  0
  2  9  1  0  0  0
  2  4  1  0  0  0
  2 30  1  0  0  0
  3 10  1  0  0  0
  3  9  1  0  0  0
  3 22  2  0  0  0
  4 19  1  0  0  0
  4 23  2  0  0  0
  5  6  1  0  0  0
  5 24  1  0  0  0
  5 49  1  0  0  0
  6  7  1  0  0  0
  6 50  1  0  0  0
  7 12  1  0  0  0
  7 25  2  0  0  0
  8 11  1  0  0  0
  8 13  1  0  0  0
  8 26  2  0  0  0
  9 33  1  0  0  0
  9 51  1  0  0  0
 10 13  1  0  0  0
 10 52  1  0  0  0
 11 12  1  0  0  0
 11 53  1  0  0  0
 12 16  1  0  0  0
 12 54  1  0  0  0
 13 27  1  0  0  0
 13 55  1  0  0  0
 14 18  2  0  0  0
 14 21  1  0  0  0
 15 21  2  0  0  0
 15 16  1  0  0  0
 15 17  1  0  0  0
 16 57  1  0  0  0
 16 58  1  0  0  0
 17 56  1  0  0  0
 17 18  1  0  0  0
 18 59  1  0  0  0
 19 31  1  0  0  0
 21 60  1  0  0  0
 24 36  1  0  0  0
 24 61  1  0  0  0
 24 62  1  0  0  0
 27 32  1  0  0  0
 27 63  1  0  0  0
 27 64  1  0  0  0
 28 65  1  0  0  0
 29 66  1  0  0  0
 30 35  1  0  0  0
 30 67  1  0  0  0
 30 68  1  0  0  0
 31 34  1  0  0  0
 31 69  1  0  0  0
 31 70  1  0  0  0
 32 37  1  0  0  0
 32 38  2  0  0  0
 33 35  1  0  0  0
 33 71  1  0  0  0
 33 72  1  0  0  0
 34 39  2  0  0  0
 34 40  1  0  0  0
 35 73  1  0  0  0
 35 74  1  0  0  0
 36 41  1  0  0  0
 36 42  1  0  0  0
 36 75  1  0  0  0
 37 46  2  0  0  0
 37 76  1  0  0  0
 38 43  1  0  0  0
 38 77  1  0  0  0
 39 44  1  0  0  0
 39 78  1  0  0  0
 40 45  2  0  0  0
 40 79  1  0  0  0
 41 80  1  0  0  0
 41 81  1  0  0  0
 41 82  1  0  0  0
 42 83  1  0  0  0
 42 84  1  0  0  0
 42 85  1  0  0  0
 43 47  2  0  0  0
 43 86  1  0  0  0
 44 48  2  0  0  0
 44 87  1  0  0  0
 45 48  1  0  0  0
 45 88  1  0  0  0
 46 47  1  0  0  0
 46 89  1  0  0  0
 47 90  1  0  0  0
 48 91  1  0  0  0
M  END
> <s_m_entry_id>
26198

> <s_m_entry_name>
dock_pv.22

> <s_m_Source_Path>
/home/csk/Desktop/cluster/DUD-E-result/reni

> <s_m_Source_File>
dock_pv.maegz

> <i_m_Source_File_Index>
22

> <chembl_id>
CHEMBL295336

> <chembl_pref_name>
None

> <i_lp_mmshare_version>
53161

> <r_lp_tautomer_probability>
0.499999999999999

> <s_lp_Force_Field>
OPLS_2005

> <r_lp_Energy>
5.995185

> <b_lp_Chiralities_Consistent>
1

> <s_lp_Variant>
CHEMBL286_lig1530-4

> <s_i_glide_gridfile>
glide-grid_3g6z

> <i_i_glide_lignum>
5212

> <i_i_glide_rotatable_bonds>
22

> <r_i_docking_score>
-8.89472848923785

> <r_i_glide_ligand_efficiency>
-0.185306843525788

> <r_i_glide_ligand_efficiency_sa>
-0.673449761857847

> <r_i_glide_ligand_efficiency_ln>
-1.82598264151289

> <r_i_glide_gscore>
-8.89472848923785

> <r_i_glide_lipo>
-2.0277911435095

> <r_i_glide_hbond>
-0.829694518311691

> <r_i_glide_metal>
0

> <r_i_glide_rewards>
-0.589053431879356

> <r_i_glide_evdw>
-56.2990264892578

> <r_i_glide_ecoul>
-20.7046184539795

> <r_i_glide_erotb>
0.566056977885607

> <r_i_glide_esite>
-0.0936022808630917

> <r_i_glide_emodel>
-113.308237616728

> <r_i_glide_energy>
-77.0036449432373

> <r_i_glide_einternal>
11.2132425308228

> <i_i_glide_confnum>
10

> <i_i_glide_posenum>
359

> <r_i_glide_eff_state_penalty>
0

> <s_user_duplicate_titles>
CHEMBL286_lig1530

> <i_f3d_flags>
0

> <s_m_subgroup_title>
dock_pv

> <s_m_subgroupid>
dock_pv

> <b_m_subgroup_collapsed>
1

$$$$
CHEMBL286_lig1406
                    3D
 Schrodinger Suite 2021-1.
106109  0  0  1  0            999 V2000
   -0.0777  -14.7327   -9.2282 S   0  0  0  0  0  0
   -1.7150  -14.4270   -9.8013 N   0  0  2  0  0  0
   -2.9071  -14.9172   -9.0504 C   0  0  2  0  0  0
    0.3518  -13.1733   -8.4924 N   0  0  0  0  0  0
   -4.1877  -14.6776   -9.8916 C   0  0  0  0  0  0
   -5.2946  -15.2727   -9.4206 N   0  0  0  0  0  0
   -7.6399  -16.0276   -9.1941 C   0  0  0  0  0  0
   -8.8255  -16.2807   -9.7762 N   0  0  0  0  0  0
   -6.6438  -15.1233   -9.9669 C   0  0  2  0  0  0
   -9.9938  -18.4386  -11.5952 C   0  0  0  0  0  0
   -9.8223  -17.2319   -9.2759 C   0  0  2  0  0  0
   -9.0152  -19.5582  -11.2298 C   0  0  0  0  0  0
    0.7546  -14.9223  -10.4208 O   0  0  0  0  0  0
   -0.1203  -15.7536   -8.1747 O   0  0  0  0  0  0
  -10.7348  -17.7849  -10.4107 C   0  0  1  0  0  0
   -4.6006  -21.1828  -12.9043 N   0  0  0  0  0  0
   -3.0186  -14.3163   -7.6134 C   0  0  0  0  0  0
   -4.1784  -13.9424  -10.8831 O   0  0  0  0  0  0
   -7.3343  -16.4664   -8.0811 O   0  0  0  0  0  0
  -10.5904  -16.7479   -8.0180 C   0  0  0  0  0  0
   -9.2385  -20.3250  -10.2939 O   0  0  0  0  0  0
    2.9308  -12.0660   -8.6959 O   0  0  0  0  0  0
   -3.0692  -23.5278  -12.4033 O   0  0  0  0  0  0
   -7.9421  -19.6372  -12.0251 N   0  0  0  0  0  0
    1.2908  -13.1923   -7.3476 C   0  0  0  0  0  0
    0.6119  -12.0361   -9.4090 C   0  0  0  0  0  0
   -6.7255  -15.4500  -11.3829 O   0  0  0  0  0  0
   -3.0732  -12.7964   -7.4746 C   0  0  0  0  0  0
  -11.4795  -16.7461  -11.0045 O   0  0  0  0  0  0
   -6.8690  -20.6101  -11.9104 C   0  0  0  0  0  0
   -5.7012  -20.2202  -12.8358 C   0  0  0  0  0  0
  -11.6497  -15.6223   -8.1436 C   0  0  0  0  0  0
   -4.9497  -22.4660  -13.5326 C   0  0  0  0  0  0
   -3.8522  -21.3474  -11.6495 C   0  0  0  0  0  0
    2.0931  -12.0256   -9.8553 C   0  0  0  0  0  0
    2.7380  -13.2160   -7.8610 C   0  0  0  0  0  0
   -2.6414  -22.2835  -11.8542 C   0  0  0  0  0  0
   -3.7061  -23.3720  -13.6684 C   0  0  0  0  0  0
   -7.5251  -14.5721  -12.1684 C   0  0  0  0  0  0
   -2.0256  -12.1153   -6.8210 C   0  0  0  0  0  0
   -4.1543  -12.0436   -7.9822 C   0  0  0  0  0  0
  -12.3150  -15.3901   -6.7787 C   0  0  0  0  0  0
  -11.1013  -14.2695   -8.6575 C   0  0  0  0  0  0
   -7.0563  -14.6575  -13.6200 C   0  0  0  0  0  0
   -2.0507  -10.7347   -6.6986 C   0  0  0  0  0  0
   -4.1610  -10.6639   -7.8594 C   0  0  0  0  0  0
  -13.4619  -14.3680   -6.8593 C   0  0  0  0  0  0
  -12.2245  -13.2142   -8.7840 C   0  0  0  0  0  0
  -12.9873  -13.0290   -7.4561 C   0  0  0  0  0  0
   -3.1114  -10.0194   -7.2203 C   0  0  0  0  0  0
   -1.8311  -14.3971  -10.8185 H   0  0  0  0  0  0
   -2.8017  -15.9993   -8.9640 H   0  0  0  0  0  0
   -5.2441  -15.8622   -8.5999 H   0  0  0  0  0  0
   -9.0054  -15.8931  -10.6909 H   0  0  0  0  0  0
   -6.9410  -14.0883   -9.7830 H   0  0  0  0  0  0
  -10.7258  -18.8627  -12.2793 H   0  0  0  0  0  0
   -9.4541  -17.6756  -12.1613 H   0  0  0  0  0  0
   -9.2513  -18.0932   -8.9187 H   0  0  0  0  0  0
  -11.4502  -18.4929   -9.9939 H   0  0  0  0  0  0
   -3.9020  -14.7152   -7.1143 H   0  0  0  0  0  0
   -2.1905  -14.6854   -7.0112 H   0  0  0  0  0  0
  -11.0740  -17.6230   -7.5880 H   0  0  0  0  0  0
   -9.8673  -16.4641   -7.2594 H   0  0  0  0  0  0
   -7.8764  -18.9841  -12.7957 H   0  0  0  0  0  0
    1.0266  -13.9955   -6.6602 H   0  0  0  0  0  0
    1.1622  -12.2552   -6.8048 H   0  0  0  0  0  0
    0.4334  -11.1196   -8.8448 H   0  0  0  0  0  0
   -0.1076  -12.0505  -10.2272 H   0  0  0  0  0  0
  -11.8751  -17.0783  -11.8150 H   0  0  0  0  0  0
   -6.5290  -20.6852  -10.8776 H   0  0  0  0  0  0
   -7.2554  -21.5939  -12.1756 H   0  0  0  0  0  0
   -6.0765  -20.0815  -13.8517 H   0  0  0  0  0  0
   -5.2938  -19.2525  -12.5350 H   0  0  0  0  0  0
  -12.4414  -15.9449   -8.8209 H   0  0  0  0  0  0
   -5.7268  -22.9767  -12.9619 H   0  0  0  0  0  0
   -5.3747  -22.2824  -14.5196 H   0  0  0  0  0  0
   -3.5051  -20.3715  -11.3051 H   0  0  0  0  0  0
   -4.5025  -21.7345  -10.8644 H   0  0  0  0  0  0
    2.3123  -11.1183  -10.4140 H   0  0  0  0  0  0
    2.3362  -12.8610  -10.5080 H   0  0  0  0  0  0
    3.4428  -13.1833   -7.0297 H   0  0  0  0  0  0
    2.9284  -14.1344   -8.4209 H   0  0  0  0  0  0
   -1.8945  -21.8169  -12.4984 H   0  0  0  0  0  0
   -2.1477  -22.4700  -10.8995 H   0  0  0  0  0  0
   -3.0061  -22.9680  -14.4036 H   0  0  0  0  0  0
   -4.0034  -24.3577  -14.0249 H   0  0  0  0  0  0
   -8.5720  -14.8617  -12.0999 H   0  0  0  0  0  0
   -7.4397  -13.5347  -11.8428 H   0  0  0  0  0  0
   -1.2083  -12.6705   -6.3887 H   0  0  0  0  0  0
   -4.9859  -12.5241   -8.4705 H   0  0  0  0  0  0
  -12.6994  -16.3439   -6.4211 H   0  0  0  0  0  0
  -11.5754  -15.0859   -6.0357 H   0  0  0  0  0  0
  -10.2984  -13.8996   -8.0211 H   0  0  0  0  0  0
  -10.6242  -14.4179   -9.6170 H   0  0  0  0  0  0
   -7.6971  -14.0621  -14.2693 H   0  0  0  0  0  0
   -6.0348  -14.2912  -13.7160 H   0  0  0  0  0  0
   -7.0717  -15.6835  -13.9779 H   0  0  0  0  0  0
   -1.2455  -10.2200   -6.1925 H   0  0  0  0  0  0
   -4.9757  -10.0855   -8.2664 H   0  0  0  0  0  0
  -14.2694  -14.7805   -7.4649 H   0  0  0  0  0  0
  -13.8687  -14.1969   -5.8631 H   0  0  0  0  0  0
  -12.9199  -13.5145   -9.5688 H   0  0  0  0  0  0
  -11.8095  -12.2557   -9.0983 H   0  0  0  0  0  0
  -13.8393  -12.3629   -7.6047 H   0  0  0  0  0  0
  -12.3339  -12.5279   -6.7362 H   0  0  0  0  0  0
   -3.1225   -8.9431   -7.1323 H   0  0  0  0  0  0
  1  2  1  0  0  0
  1  4  1  0  0  0
  1 13  2  0  0  0
  1 14  2  0  0  0
  2  3  1  0  0  0
  2 51  1  0  0  0
  3  5  1  0  0  0
  3 17  1  0  0  0
  3 52  1  0  0  0
  4 25  1  0  0  0
  4 26  1  0  0  0
  5  6  1  0  0  0
  5 18  2  0  0  0
  6  9  1  0  0  0
  6 53  1  0  0  0
  7  9  1  0  0  0
  7  8  1  0  0  0
  7 19  2  0  0  0
  8 11  1  0  0  0
  8 54  1  0  0  0
  9 27  1  0  0  0
  9 55  1  0  0  0
 10 15  1  0  0  0
 10 12  1  0  0  0
 10 56  1  0  0  0
 10 57  1  0  0  0
 11 15  1  0  0  0
 11 20  1  0  0  0
 11 58  1  0  0  0
 12 21  2  0  0  0
 12 24  1  0  0  0
 15 29  1  0  0  0
 15 59  1  0  0  0
 16 31  1  0  0  0
 16 33  1  0  0  0
 16 34  1  0  0  0
 17 28  1  0  0  0
 17 60  1  0  0  0
 17 61  1  0  0  0
 20 32  1  0  0  0
 20 62  1  0  0  0
 20 63  1  0  0  0
 22 35  1  0  0  0
 22 36  1  0  0  0
 23 37  1  0  0  0
 23 38  1  0  0  0
 24 30  1  0  0  0
 24 64  1  0  0  0
 25 36  1  0  0  0
 25 65  1  0  0  0
 25 66  1  0  0  0
 26 35  1  0  0  0
 26 67  1  0  0  0
 26 68  1  0  0  0
 27 39  1  0  0  0
 28 40  1  0  0  0
 28 41  2  0  0  0
 29 69  1  0  0  0
 30 31  1  0  0  0
 30 70  1  0  0  0
 30 71  1  0  0  0
 31 72  1  0  0  0
 31 73  1  0  0  0
 32 42  1  0  0  0
 32 43  1  0  0  0
 32 74  1  0  0  0
 33 38  1  0  0  0
 33 75  1  0  0  0
 33 76  1  0  0  0
 34 37  1  0  0  0
 34 77  1  0  0  0
 34 78  1  0  0  0
 35 79  1  0  0  0
 35 80  1  0  0  0
 36 81  1  0  0  0
 36 82  1  0  0  0
 37 83  1  0  0  0
 37 84  1  0  0  0
 38 85  1  0  0  0
 38 86  1  0  0  0
 39 44  1  0  0  0
 39 87  1  0  0  0
 39 88  1  0  0  0
 40 45  2  0  0  0
 40 89  1  0  0  0
 41 46  1  0  0  0
 41 90  1  0  0  0
 42 47  1  0  0  0
 42 91  1  0  0  0
 42 92  1  0  0  0
 43 48  1  0  0  0
 43 93  1  0  0  0
 43 94  1  0  0  0
 44 95  1  0  0  0
 44 96  1  0  0  0
 44 97  1  0  0  0
 45 50  1  0  0  0
 45 98  1  0  0  0
 46 50  2  0  0  0
 46 99  1  0  0  0
 47 49  1  0  0  0
 47100  1  0  0  0
 47101  1  0  0  0
 48 49  1  0  0  0
 48102  1  0  0  0
 48103  1  0  0  0
 49104  1  0  0  0
 49105  1  0  0  0
 50106  1  0  0  0
M  END
> <s_m_entry_id>
26199

> <s_m_entry_name>
dock_pv.23

> <s_m_Source_Path>
/home/csk/Desktop/cluster/DUD-E-result/reni

> <s_m_Source_File>
dock_pv.maegz

> <i_m_Source_File_Index>
23

> <chembl_id>
CHEMBL267042

> <chembl_pref_name>
None

> <i_lp_mmshare_version>
53161

> <r_lp_tautomer_probability>
1

> <s_lp_Force_Field>
OPLS_2005

> <r_lp_Energy>
32.006047

> <b_lp_Chiralities_Consistent>
1

> <s_lp_Variant>
CHEMBL286_lig1406-2

> <s_i_glide_gridfile>
glide-grid_3g6z

> <i_i_glide_lignum>
4484

> <i_i_glide_rotatable_bonds>
23

> <r_i_docking_score>
-8.82159492848668

> <r_i_glide_ligand_efficiency>
-0.176431898569734

> <r_i_glide_ligand_efficiency_sa>
-0.649980670848245

> <r_i_glide_ligand_efficiency_ln>
-1.79591889507402

> <r_i_glide_gscore>
-8.82159492848668

> <r_i_glide_lipo>
-4.53676873076251

> <r_i_glide_hbond>
-0.358348705984301

> <r_i_glide_metal>
0

> <r_i_glide_rewards>
-0.931875262437097

> <r_i_glide_evdw>
-52.7509689331055

> <r_i_glide_ecoul>
-5.43567991256714

> <r_i_glide_erotb>
0.512211536175895

> <r_i_glide_esite>
-0.0539133319383227

> <r_i_glide_emodel>
-80.7092486758624

> <r_i_glide_energy>
-58.1866488456726

> <r_i_glide_einternal>
18.9576873779297

> <i_i_glide_confnum>
3

> <i_i_glide_posenum>
32

> <r_i_glide_eff_state_penalty>
0

> <s_user_duplicate_titles>
CHEMBL286_lig1406

> <i_f3d_flags>
0

> <s_m_subgroup_title>
dock_pv

> <s_m_subgroupid>
dock_pv

> <b_m_subgroup_collapsed>
1

$$$$
CHEMBL286_lig1224
                    3D
 Schrodinger Suite 2021-1.
 90 93  0  0  1  0            999 V2000
  -11.5018  -16.3123   -7.9230 C   0  0  0  0  0  0
   -5.9005  -15.8513  -10.3606 C   0  0  0  0  0  0
   -9.0538  -16.4669  -10.1961 C   0  0  0  0  0  0
   -4.2177  -14.3090   -9.3139 C   0  0  2  0  0  0
   -2.8250  -14.1881  -10.0067 C   0  0  1  0  0  0
   -5.2435  -14.6832  -10.2927 N   0  0  0  0  0  0
   -8.1109  -16.7702  -11.1127 N   0  0  0  0  0  0
  -12.2535  -15.2334   -7.5665 N   0  0  0  0  0  0
   -6.9644  -15.9241  -11.4680 C   0  0  2  0  0  0
  -10.1837  -17.4970   -9.8927 C   0  0  1  0  0  0
   -2.6686  -12.9490  -10.9319 C   0  0  0  0  0  0
   -4.6952  -19.7916  -12.8175 N   0  0  0  0  0  0
   -9.9320  -19.9210  -10.8648 C   0  0  0  0  0  0
  -11.5106  -16.8164   -9.3883 C   0  0  0  0  0  0
   -5.8472  -17.8346  -12.8197 C   0  0  0  0  0  0
   -6.3217  -16.3981  -12.7890 C   0  0  0  0  0  0
  -10.4755  -18.4947  -11.0624 C   0  0  0  0  0  0
   -6.6690  -18.8658  -13.2209 N   0  0  0  0  0  0
   -5.9509  -19.9877  -13.2022 C   0  0  0  0  0  0
  -10.7669  -21.0786  -11.0483 C   0  0  0  0  0  0
   -4.6246  -18.4174  -12.5648 C   0  0  0  0  0  0
  -10.7297  -16.8631   -7.1364 O   0  0  0  0  0  0
   -9.0422  -15.3937   -9.5959 O   0  0  0  0  0  0
   -5.6953  -16.8197   -9.6272 O   0  0  0  0  0  0
   -4.6208  -13.0131   -8.5583 C   0  0  0  0  0  0
   -1.9071  -12.0125  -10.6697 O   0  0  0  0  0  0
  -10.1459  -22.3711  -11.0797 C   0  0  0  0  0  0
   -1.7988  -14.1831   -9.0172 O   0  0  0  0  0  0
   -3.4548  -13.0297  -12.0209 O   0  0  0  0  0  0
  -13.3654  -14.6873   -8.3559 C   0  0  0  0  0  0
  -12.0217  -14.5026   -6.3142 C   0  0  0  0  0  0
   -8.5672  -20.0966  -10.6138 C   0  0  0  0  0  0
   -7.9911  -21.3562  -10.5853 C   0  0  0  0  0  0
   -5.7734  -13.0764   -7.5225 C   0  0  0  0  0  0
  -12.1845  -21.0274  -11.2211 C   0  0  0  0  0  0
   -8.7579  -22.4865  -10.8335 C   0  0  0  0  0  0
  -10.9224  -23.5197  -11.3748 C   0  0  0  0  0  0
   -3.3650  -12.0712  -13.0627 C   0  0  0  0  0  0
   -7.0441  -13.8061   -7.9748 C   0  0  0  0  0  0
   -6.1471  -11.6487   -7.1243 C   0  0  0  0  0  0
  -13.0147  -13.2338   -8.7568 C   0  0  0  0  0  0
  -11.4696  -13.1276   -6.7518 C   0  0  0  0  0  0
  -12.9123  -22.1714  -11.5347 C   0  0  0  0  0  0
  -12.2845  -23.4049  -11.6204 C   0  0  0  0  0  0
  -12.5052  -12.3630   -7.5932 C   0  0  0  0  0  0
   -4.1321  -15.0999   -8.5627 H   0  0  0  0  0  0
   -2.6623  -15.0732  -10.6239 H   0  0  0  0  0  0
   -5.4827  -13.9699  -10.9679 H   0  0  0  0  0  0
   -8.1457  -17.6609  -11.5847 H   0  0  0  0  0  0
   -7.3490  -14.9145  -11.6291 H   0  0  0  0  0  0
   -9.7907  -18.0892   -9.0643 H   0  0  0  0  0  0
   -7.5787  -18.7243  -13.6661 H   0  0  0  0  0  0
  -11.7867  -16.0228  -10.0831 H   0  0  0  0  0  0
  -12.3231  -17.5436   -9.4125 H   0  0  0  0  0  0
   -7.0285  -16.2472  -13.6042 H   0  0  0  0  0  0
   -5.4723  -15.7596  -13.0315 H   0  0  0  0  0  0
  -10.0708  -18.1367  -12.0107 H   0  0  0  0  0  0
  -11.5365  -18.4866  -11.2828 H   0  0  0  0  0  0
   -6.3416  -20.9480  -13.5085 H   0  0  0  0  0  0
   -3.7037  -17.9534  -12.2401 H   0  0  0  0  0  0
   -3.7446  -12.6392   -8.0261 H   0  0  0  0  0  0
   -4.8458  -12.2450   -9.2976 H   0  0  0  0  0  0
   -0.9664  -13.9540   -9.4418 H   0  0  0  0  0  0
  -13.5614  -15.2939   -9.2242 H   0  0  0  0  0  0
  -14.2560  -14.7030   -7.7260 H   0  0  0  0  0  0
  -12.9864  -14.3760   -5.8211 H   0  0  0  0  0  0
  -11.4443  -15.0560   -5.5769 H   0  0  0  0  0  0
   -7.9167  -19.2494  -10.4587 H   0  0  0  0  0  0
   -6.9316  -21.4521  -10.3980 H   0  0  0  0  0  0
   -5.4051  -13.5920   -6.6338 H   0  0  0  0  0  0
  -12.7254  -20.1006  -11.1585 H   0  0  0  0  0  0
   -8.2904  -23.4602  -10.8444 H   0  0  0  0  0  0
  -10.4431  -24.4856  -11.4300 H   0  0  0  0  0  0
   -4.0641  -12.3309  -13.8579 H   0  0  0  0  0  0
   -3.6155  -11.0733  -12.7091 H   0  0  0  0  0  0
   -2.3614  -12.0630  -13.4897 H   0  0  0  0  0  0
   -7.3799  -13.4575   -8.9502 H   0  0  0  0  0  0
   -6.8887  -14.8832   -8.0126 H   0  0  0  0  0  0
   -7.8669  -13.6510   -7.2808 H   0  0  0  0  0  0
   -6.4474  -11.0783   -8.0091 H   0  0  0  0  0  0
   -6.9812  -11.6322   -6.4250 H   0  0  0  0  0  0
   -5.3100  -11.1275   -6.6576 H   0  0  0  0  0  0
  -12.2690  -13.2844   -9.5416 H   0  0  0  0  0  0
  -13.8717  -12.7474   -9.2205 H   0  0  0  0  0  0
  -11.2030  -12.5261   -5.8864 H   0  0  0  0  0  0
  -10.5453  -13.2585   -7.3163 H   0  0  0  0  0  0
  -13.9780  -22.1004  -11.7040 H   0  0  0  0  0  0
  -12.8644  -24.2836  -11.8693 H   0  0  0  0  0  0
  -13.3460  -12.0765   -6.9598 H   0  0  0  0  0  0
  -12.0753  -11.4342   -7.9731 H   0  0  0  0  0  0
  1  8  1  0  0  0
  1 14  1  0  0  0
  1 22  2  0  0  0
  2  9  1  0  0  0
  2  6  1  0  0  0
  2 24  2  0  0  0
  3 10  1  0  0  0
  3  7  1  0  0  0
  3 23  2  0  0  0
  4  6  1  0  0  0
  4  5  1  0  0  0
  4 25  1  0  0  0
  4 46  1  0  0  0
  5 11  1  0  0  0
  5 28  1  0  0  0
  5 47  1  0  0  0
  6 48  1  0  0  0
  7  9  1  0  0  0
  7 49  1  0  0  0
  8 30  1  0  0  0
  8 31  1  0  0  0
  9 16  1  0  0  0
  9 50  1  0  0  0
 10 14  1  0  0  0
 10 17  1  0  0  0
 10 51  1  0  0  0
 11 26  2  0  0  0
 11 29  1  0  0  0
 12 19  2  0  0  0
 12 21  1  0  0  0
 13 17  1  0  0  0
 13 20  2  0  0  0
 13 32  1  0  0  0
 14 53  1  0  0  0
 14 54  1  0  0  0
 15 21  2  0  0  0
 15 16  1  0  0  0
 15 18  1  0  0  0
 16 55  1  0  0  0
 16 56  1  0  0  0
 17 57  1  0  0  0
 17 58  1  0  0  0
 18 52  1  0  0  0
 18 19  1  0  0  0
 19 59  1  0  0  0
 20 27  1  0  0  0
 20 35  1  0  0  0
 21 60  1  0  0  0
 25 34  1  0  0  0
 25 61  1  0  0  0
 25 62  1  0  0  0
 27 37  1  0  0  0
 27 36  2  0  0  0
 28 63  1  0  0  0
 29 38  1  0  0  0
 30 41  1  0  0  0
 30 64  1  0  0  0
 30 65  1  0  0  0
 31 42  1  0  0  0
 31 66  1  0  0  0
 31 67  1  0  0  0
 32 33  2  0  0  0
 32 68  1  0  0  0
 33 36  1  0  0  0
 33 69  1  0  0  0
 34 39  1  0  0  0
 34 40  1  0  0  0
 34 70  1  0  0  0
 35 43  2  0  0  0
 35 71  1  0  0  0
 36 72  1  0  0  0
 37 44  2  0  0  0
 37 73  1  0  0  0
 38 74  1  0  0  0
 38 75  1  0  0  0
 38 76  1  0  0  0
 39 77  1  0  0  0
 39 78  1  0  0  0
 39 79  1  0  0  0
 40 80  1  0  0  0
 40 81  1  0  0  0
 40 82  1  0  0  0
 41 45  1  0  0  0
 41 83  1  0  0  0
 41 84  1  0  0  0
 42 45  1  0  0  0
 42 85  1  0  0  0
 42 86  1  0  0  0
 43 44  1  0  0  0
 43 87  1  0  0  0
 44 88  1  0  0  0
 45 89  1  0  0  0
 45 90  1  0  0  0
M  END
> <s_m_entry_id>
26200

> <s_m_entry_name>
dock_pv.24

> <s_m_Source_Path>
/home/csk/Desktop/cluster/DUD-E-result/reni

> <s_m_Source_File>
dock_pv.maegz

> <i_m_Source_File_Index>
24

> <chembl_id>
CHEMBL159336

> <chembl_pref_name>
None

> <i_lp_mmshare_version>
53161

> <r_lp_tautomer_probability>
0.499999999999999

> <s_lp_Force_Field>
OPLS_2005

> <r_lp_Energy>
42.672465

> <b_lp_Chiralities_Consistent>
1

> <s_lp_Variant>
CHEMBL286_lig1224-28

> <s_i_glide_gridfile>
glide-grid_3g6z

> <i_i_glide_lignum>
3988

> <i_i_glide_rotatable_bonds>
19

> <r_i_docking_score>
-8.80151894894279

> <r_i_glide_ligand_efficiency>
-0.195589309976506

> <r_i_glide_ligand_efficiency_sa>
-0.695690306202514

> <r_i_glide_ligand_efficiency_ln>
-1.83110816864601

> <r_i_glide_gscore>
-8.80151894894279

> <r_i_glide_lipo>
-3.32369716559423

> <r_i_glide_hbond>
-0.355188992492194

> <r_i_glide_metal>
0

> <r_i_glide_rewards>
-1.66070231383009

> <r_i_glide_evdw>
-52.419548034668

> <r_i_glide_ecoul>
-8.25735759735107

> <r_i_glide_erotb>
0.582473839846423

> <r_i_glide_esite>
-0.184823275536645

> <r_i_glide_emodel>
-84.3391411492906

> <r_i_glide_energy>
-60.676905632019

> <r_i_glide_einternal>
14.2014265060425

> <i_i_glide_confnum>
10

> <i_i_glide_posenum>
1

> <r_i_glide_eff_state_penalty>
0

> <s_user_duplicate_titles>
CHEMBL286_lig1224

> <i_f3d_flags>
0

> <s_m_subgroup_title>
dock_pv

> <s_m_subgroupid>
dock_pv

> <b_m_subgroup_collapsed>
1

$$$$
CHEMBL286_lig661
                    3D
 Schrodinger Suite 2021-1.
 98101  0  0  1  0            999 V2000
   -7.1840  -17.8145  -11.2435 C   0  0  0  0  0  0
   -5.4466  -15.0845  -11.4609 C   0  0  0  0  0  0
   -1.9227  -15.5164  -10.7278 C   0  0  0  0  0  0
   -5.3322  -16.3199  -11.9689 N   0  0  0  0  0  0
   -8.4603  -18.1831  -11.4699 N   0  0  0  0  0  0
   -6.4371  -17.1643  -12.4270 C   0  0  1  0  0  0
   -2.8979  -14.9506  -11.5378 N   0  0  0  0  0  0
   -3.3887  -20.7148  -12.1229 N   0  0  0  0  0  0
   -4.1452  -14.3867  -10.9748 C   0  0  1  0  0  0
   -4.7356  -19.0631  -12.9010 C   0  0  0  0  0  0
   -9.3804  -18.6944  -10.4327 C   0  0  2  0  0  0
   -5.8694  -18.2101  -13.4112 C   0  0  0  0  0  0
   -3.4121  -18.6594  -12.9708 N   0  0  0  0  0  0
   -2.6696  -19.6670  -12.5036 C   0  0  0  0  0  0
   -0.8927  -15.9543  -11.5065 O   0  0  0  0  0  0
   -4.7088  -20.3339  -12.3720 C   0  0  0  0  0  0
  -13.4426  -13.5819   -7.3477 N   0  0  0  0  0  0
  -12.1973  -13.8862   -7.7976 C   0  0  0  0  0  0
   -1.9698  -15.6074   -9.5008 O   0  0  0  0  0  0
   -6.5276  -14.5015  -11.3590 O   0  0  0  0  0  0
   -6.6075  -17.9691  -10.1672 O   0  0  0  0  0  0
   -4.1414  -12.8452  -11.1612 C   0  0  0  0  0  0
   -9.4846  -20.2442  -10.4613 C   0  0  0  0  0  0
    0.2901  -16.5984  -10.9986 C   0  0  0  0  0  0
  -10.7828  -18.0094  -10.4792 C   0  0  1  0  0  0
  -11.8692  -15.6139   -8.0233 S   0  0  0  0  0  0
  -10.7412  -16.4629  -10.4575 C   0  0  0  0  0  0
   -3.3265  -12.0792  -10.1279 C   0  0  0  0  0  0
  -10.4066  -15.8621   -9.0809 C   0  0  0  0  0  0
  -11.5195  -18.4037  -11.6211 O   0  0  0  0  0  0
   -8.1816  -21.0227  -10.1528 C   0  0  0  0  0  0
  -13.7320  -12.2820   -7.0825 C   0  0  0  0  0  0
  -11.2136  -12.9030   -7.9998 C   0  0  0  0  0  0
    1.0904  -15.6570  -10.0674 C   0  0  0  0  0  0
    1.1434  -16.9482  -12.2328 C   0  0  0  0  0  0
   -0.0581  -17.9094  -10.2622 C   0  0  0  0  0  0
   -1.9441  -11.8788  -10.3141 C   0  0  0  0  0  0
   -3.9052  -11.7136   -8.8923 C   0  0  0  0  0  0
   -7.7201  -20.8637   -8.6836 C   0  0  0  0  0  0
   -8.3539  -22.5298  -10.4493 C   0  0  0  0  0  0
  -12.7997  -11.2592   -7.2288 C   0  0  0  0  0  0
  -11.5270  -11.5757   -7.7082 C   0  0  0  0  0  0
   -3.1341  -11.0919   -7.9173 C   0  0  0  0  0  0
   -1.1847  -11.2619   -9.3258 C   0  0  0  0  0  0
   -6.3783  -21.5837   -8.4438 C   0  0  0  0  0  0
   -7.0336  -23.2991  -10.2367 C   0  0  0  0  0  0
   -6.4681  -23.0798   -8.8165 C   0  0  0  0  0  0
   -1.7811  -10.8641   -8.1345 C   0  0  0  0  0  0
   -4.4271  -16.7598  -11.9588 H   0  0  0  0  0  0
   -8.8340  -18.0498  -12.4000 H   0  0  0  0  0  0
   -7.1504  -16.5381  -12.9671 H   0  0  0  0  0  0
   -2.7688  -14.9123  -12.5423 H   0  0  0  0  0  0
   -3.0692  -17.7903  -13.3499 H   0  0  0  0  0  0
   -4.2189  -14.5785   -9.9009 H   0  0  0  0  0  0
   -8.9838  -18.4211   -9.4540 H   0  0  0  0  0  0
   -6.6697  -18.8684  -13.7513 H   0  0  0  0  0  0
   -5.5231  -17.6970  -14.3108 H   0  0  0  0  0  0
   -1.5884  -19.6444  -12.4656 H   0  0  0  0  0  0
   -5.5287  -21.0074  -12.1753 H   0  0  0  0  0  0
   -5.1560  -12.4591  -11.1353 H   0  0  0  0  0  0
   -3.7711  -12.5926  -12.1562 H   0  0  0  0  0  0
  -10.2556  -20.5660   -9.7591 H   0  0  0  0  0  0
   -9.8497  -20.5441  -11.4453 H   0  0  0  0  0  0
  -11.3692  -18.3452   -9.6219 H   0  0  0  0  0  0
  -10.0388  -16.0735  -11.1982 H   0  0  0  0  0  0
  -11.7114  -16.0679  -10.7657 H   0  0  0  0  0  0
   -9.6717  -16.4659   -8.5488 H   0  0  0  0  0  0
   -9.9172  -14.9089   -9.2509 H   0  0  0  0  0  0
  -11.0918  -18.0658  -12.4114 H   0  0  0  0  0  0
   -7.3885  -20.6513  -10.8016 H   0  0  0  0  0  0
  -14.7282  -12.0631   -6.7237 H   0  0  0  0  0  0
  -10.2126  -13.1325   -8.3211 H   0  0  0  0  0  0
    0.5434  -15.4265   -9.1521 H   0  0  0  0  0  0
    2.0424  -16.0986   -9.7713 H   0  0  0  0  0  0
    1.3069  -14.7041  -10.5482 H   0  0  0  0  0  0
    0.5795  -17.5506  -12.9449 H   0  0  0  0  0  0
    1.4938  -16.0642  -12.7563 H   0  0  0  0  0  0
    2.0289  -17.5207  -11.9577 H   0  0  0  0  0  0
   -0.6882  -18.5574  -10.8693 H   0  0  0  0  0  0
    0.8458  -18.4642  -10.0238 H   0  0  0  0  0  0
   -0.5857  -17.7371   -9.3250 H   0  0  0  0  0  0
   -1.4711  -12.2089  -11.2247 H   0  0  0  0  0  0
   -4.9523  -11.9095   -8.7032 H   0  0  0  0  0  0
   -7.6085  -19.8111   -8.4229 H   0  0  0  0  0  0
   -8.4897  -21.2340   -8.0040 H   0  0  0  0  0  0
   -9.1501  -22.9460   -9.8313 H   0  0  0  0  0  0
   -8.6973  -22.6674  -11.4756 H   0  0  0  0  0  0
  -13.0557  -10.2362   -6.9893 H   0  0  0  0  0  0
  -10.7880  -10.7972   -7.8375 H   0  0  0  0  0  0
   -3.5880  -10.7996   -6.9798 H   0  0  0  0  0  0
   -0.1305  -11.1057   -9.4817 H   0  0  0  0  0  0
   -5.5992  -21.1038   -9.0399 H   0  0  0  0  0  0
   -6.0739  -21.4732   -7.4020 H   0  0  0  0  0  0
   -6.2978  -22.9749  -10.9740 H   0  0  0  0  0  0
   -7.1905  -24.3637  -10.4138 H   0  0  0  0  0  0
   -5.4835  -23.5416   -8.7325 H   0  0  0  0  0  0
   -7.1048  -23.5898   -8.0927 H   0  0  0  0  0  0
   -1.1887  -10.3890   -7.3672 H   0  0  0  0  0  0
  1  5  1  0  0  0
  1  6  1  0  0  0
  1 21  2  0  0  0
  2  4  1  0  0  0
  2  9  1  0  0  0
  2 20  2  0  0  0
  3  7  1  0  0  0
  3 15  1  0  0  0
  3 19  2  0  0  0
  4  6  1  0  0  0
  4 49  1  0  0  0
  5 11  1  0  0  0
  5 50  1  0  0  0
  6 12  1  0  0  0
  6 51  1  0  0  0
  7  9  1  0  0  0
  7 52  1  0  0  0
  8 14  2  0  0  0
  8 16  1  0  0  0
  9 22  1  0  0  0
  9 54  1  0  0  0
 10 16  2  0  0  0
 10 12  1  0  0  0
 10 13  1  0  0  0
 11 23  1  0  0  0
 11 25  1  0  0  0
 11 55  1  0  0  0
 12 56  1  0  0  0
 12 57  1  0  0  0
 13 53  1  0  0  0
 13 14  1  0  0  0
 14 58  1  0  0  0
 15 24  1  0  0  0
 16 59  1  0  0  0
 17 18  2  0  0  0
 17 32  1  0  0  0
 18 26  1  0  0  0
 18 33  1  0  0  0
 22 28  1  0  0  0
 22 60  1  0  0  0
 22 61  1  0  0  0
 23 31  1  0  0  0
 23 62  1  0  0  0
 23 63  1  0  0  0
 24 34  1  0  0  0
 24 35  1  0  0  0
 24 36  1  0  0  0
 25 27  1  0  0  0
 25 30  1  0  0  0
 25 64  1  0  0  0
 26 29  1  0  0  0
 27 29  1  0  0  0
 27 65  1  0  0  0
 27 66  1  0  0  0
 28 37  2  0  0  0
 28 38  1  0  0  0
 29 67  1  0  0  0
 29 68  1  0  0  0
 30 69  1  0  0  0
 31 39  1  0  0  0
 31 40  1  0  0  0
 31 70  1  0  0  0
 32 41  2  0  0  0
 32 71  1  0  0  0
 33 42  2  0  0  0
 33 72  1  0  0  0
 34 73  1  0  0  0
 34 74  1  0  0  0
 34 75  1  0  0  0
 35 76  1  0  0  0
 35 77  1  0  0  0
 35 78  1  0  0  0
 36 79  1  0  0  0
 36 80  1  0  0  0
 36 81  1  0  0  0
 37 44  1  0  0  0
 37 82  1  0  0  0
 38 43  2  0  0  0
 38 83  1  0  0  0
 39 45  1  0  0  0
 39 84  1  0  0  0
 39 85  1  0  0  0
 40 46  1  0  0  0
 40 86  1  0  0  0
 40 87  1  0  0  0
 41 42  1  0  0  0
 41 88  1  0  0  0
 42 89  1  0  0  0
 43 48  1  0  0  0
 43 90  1  0  0  0
 44 48  2  0  0  0
 44 91  1  0  0  0
 45 47  1  0  0  0
 45 92  1  0  0  0
 45 93  1  0  0  0
 46 47  1  0  0  0
 46 94  1  0  0  0
 46 95  1  0  0  0
 47 96  1  0  0  0
 47 97  1  0  0  0
 48 98  1  0  0  0
M  END
> <s_m_entry_id>
26201

> <s_m_entry_name>
dock_pv.25

> <s_m_Source_Path>
/home/csk/Desktop/cluster/DUD-E-result/reni

> <s_m_Source_File>
dock_pv.maegz

> <i_m_Source_File_Index>
25

> <chembl_id>
CHEMBL119893

> <chembl_pref_name>
None

> <i_lp_mmshare_version>
53161

> <r_lp_tautomer_probability>
0.499999999999999

> <s_lp_Force_Field>
OPLS_2005

> <r_lp_Energy>
20.336932

> <b_lp_Chiralities_Consistent>
1

> <s_lp_Variant>
CHEMBL286_lig661-7

> <s_i_glide_gridfile>
glide-grid_3g6z

> <i_i_glide_lignum>
1881

> <i_i_glide_rotatable_bonds>
22

> <r_i_docking_score>
-8.78382220714726

> <r_i_glide_ligand_efficiency>
-0.182996295982235

> <r_i_glide_ligand_efficiency_sa>
-0.665052674824463

> <r_i_glide_ligand_efficiency_ln>
-1.80321489248298

> <r_i_glide_gscore>
-8.78382220714726

> <r_i_glide_lipo>
-3.50674988077711

> <r_i_glide_hbond>
-0.493520344511188

> <r_i_glide_metal>
0

> <r_i_glide_rewards>
-0.906514867434349

> <r_i_glide_evdw>
-62.6108818054199

> <r_i_glide_ecoul>
-8.03769683837891

> <r_i_glide_erotb>
0.575569518169177

> <r_i_glide_esite>
-0.116408016565957

> <r_i_glide_emodel>
-104.625370765818

> <r_i_glide_energy>
-70.6485786437988

> <r_i_glide_einternal>
10.3781490325928

> <i_i_glide_confnum>
12

> <i_i_glide_posenum>
118

> <r_i_glide_eff_state_penalty>
0

> <s_user_duplicate_titles>
CHEMBL286_lig661

> <i_f3d_flags>
0

> <s_m_subgroup_title>
dock_pv

> <s_m_subgroupid>
dock_pv

> <b_m_subgroup_collapsed>
1

$$$$
CHEMBL286_lig1543
                    3D
 Schrodinger Suite 2021-1.
 86 90  0  0  1  0            999 V2000
   -4.1001  -18.9947  -11.3388 N   0  0  0  0  0  0
   -3.6061  -13.1084   -8.8852 C   0  0  0  0  0  0
   -3.4995  -18.9749  -12.5695 C   0  0  0  0  0  0
   -3.1335  -11.9147   -9.4457 N   0  0  0  0  0  0
   -3.3601  -19.0744  -10.0468 C   0  0  2  0  0  0
   -3.3163  -14.3371   -9.4950 C   0  0  0  0  0  0
   -5.5004  -18.8390  -11.2321 C   0  0  0  0  0  0
   -1.4723  -19.9046  -11.4662 N   0  0  1  0  0  0
   -4.3878  -13.0922   -7.7073 C   0  0  0  0  0  0
  -11.9424  -13.6259   -7.8025 C   0  0  0  0  0  0
   -4.1318  -18.8629  -13.6208 O   0  0  0  0  0  0
   -3.6836  -17.9499   -9.0445 C   0  0  0  0  0  0
  -10.7266  -12.9590   -8.0349 C   0  0  0  0  0  0
   -3.8052  -15.5368   -8.9927 C   0  0  0  0  0  0
   -6.1147  -17.6989  -11.7622 C   0  0  0  0  0  0
   -6.2631  -19.7885  -10.5447 C   0  0  0  0  0  0
   -4.9635  -14.2880   -7.2734 C   0  0  0  0  0  0
   -3.3828  -16.6862   -9.6280 O   0  0  0  0  0  0
   -1.9608  -19.1356  -12.6031 C   0  0  0  0  0  0
   -1.8336  -19.2898  -10.2001 C   0  0  0  0  0  0
   -8.2498  -18.4638  -10.9235 C   0  0  0  0  0  0
   -4.6736  -15.4954   -7.8974 C   0  0  0  0  0  0
   -2.6719  -11.7806  -10.8352 C   0  0  0  0  0  0
   -7.4813  -17.5200  -11.6209 C   0  0  0  0  0  0
   -7.6317  -19.5929  -10.3889 C   0  0  0  0  0  0
   -3.4662  -10.6082   -8.8527 C   0  0  0  0  0  0
   -9.6456  -13.7183   -8.4389 O   0  0  0  0  0  0
   -3.8741  -11.8435  -11.8167 C   0  0  0  0  0  0
  -11.7532  -17.2892  -10.9199 C   0  0  0  0  0  0
   -9.6070  -18.3476  -10.7157 O   0  0  0  0  0  0
  -12.0375  -15.1425   -7.9116 C   0  0  0  0  0  0
   -3.0690  -11.6630  -14.2048 O   0  0  0  0  0  0
   -4.6556  -10.6238   -7.8767 C   0  0  0  0  0  0
  -11.8439  -15.5482   -9.2582 O   0  0  0  0  0  0
   -4.5837  -11.8053   -6.9159 C   0  0  0  0  0  0
  -13.0724  -12.9026   -7.4065 C   0  0  0  0  0  0
   -3.5901  -12.4643  -13.1817 C   0  0  0  0  0  0
  -10.2871  -17.2631  -11.3336 C   0  0  0  0  0  0
  -11.9767  -16.9504   -9.4390 C   0  0  0  0  0  0
  -10.6668  -11.5699   -7.8460 C   0  0  0  0  0  0
   -8.3275  -13.1799   -8.4211 C   0  0  0  0  0  0
  -12.9972  -11.5257   -7.2210 C   0  0  0  0  0  0
  -11.7919  -10.8630   -7.4304 C   0  0  0  0  0  0
   -3.7288  -19.9999   -9.6041 H   0  0  0  0  0  0
   -2.6875  -14.3886  -10.3696 H   0  0  0  0  0  0
   -1.6992  -20.8901  -11.5086 H   0  0  0  0  0  0
   -3.1389  -18.0829   -8.1087 H   0  0  0  0  0  0
   -4.7458  -18.0142   -8.8209 H   0  0  0  0  0  0
   -5.5358  -16.9517  -12.2873 H   0  0  0  0  0  0
   -5.8040  -20.6728  -10.1295 H   0  0  0  0  0  0
   -5.6242  -14.2933   -6.4210 H   0  0  0  0  0  0
   -1.5134  -18.1416  -12.6134 H   0  0  0  0  0  0
   -1.6771  -19.6475  -13.5243 H   0  0  0  0  0  0
   -1.3236  -18.3263  -10.1389 H   0  0  0  0  0  0
   -1.4688  -19.8923   -9.3671 H   0  0  0  0  0  0
   -5.1084  -16.3916   -7.4850 H   0  0  0  0  0  0
   -1.9367  -12.5522  -11.0648 H   0  0  0  0  0  0
   -2.0992  -10.8630  -10.9429 H   0  0  0  0  0  0
   -7.9195  -16.6399  -12.0660 H   0  0  0  0  0  0
   -8.2218  -20.3208   -9.8536 H   0  0  0  0  0  0
   -2.6505  -10.4515   -8.1446 H   0  0  0  0  0  0
   -3.4690   -9.7736   -9.5459 H   0  0  0  0  0  0
   -4.2690  -10.8630  -12.0210 H   0  0  0  0  0  0
   -4.7163  -12.3586  -11.3514 H   0  0  0  0  0  0
  -12.2688  -16.5655  -11.5440 H   0  0  0  0  0  0
  -12.1758  -18.2666  -11.1511 H   0  0  0  0  0  0
  -13.0103  -15.4844   -7.5508 H   0  0  0  0  0  0
  -11.2809  -15.5916   -7.2660 H   0  0  0  0  0  0
   -2.1583  -11.3995  -14.0018 H   0  0  0  0  0  0
   -4.6690   -9.6851   -7.3227 H   0  0  0  0  0  0
   -5.5959  -10.6494   -8.4210 H   0  0  0  0  0  0
   -3.7341  -11.6630   -6.2505 H   0  0  0  0  0  0
   -5.4721  -11.8488   -6.2840 H   0  0  0  0  0  0
  -14.0084  -13.4077   -7.2237 H   0  0  0  0  0  0
   -4.5225  -12.8753  -13.5628 H   0  0  0  0  0  0
   -2.8755  -13.2630  -13.0289 H   0  0  0  0  0  0
   -9.8503  -16.3049  -11.0464 H   0  0  0  0  0  0
  -10.2083  -17.3609  -12.4180 H   0  0  0  0  0  0
  -12.9751  -17.2626   -9.1335 H   0  0  0  0  0  0
  -11.2673  -17.4942   -8.8129 H   0  0  0  0  0  0
   -9.7511  -11.0238   -8.0153 H   0  0  0  0  0  0
   -7.6171  -13.9923   -8.5718 H   0  0  0  0  0  0
   -8.1657  -12.4665   -9.2208 H   0  0  0  0  0  0
   -8.0782  -12.7042   -7.4732 H   0  0  0  0  0  0
  -13.8688  -10.9708   -6.9062 H   0  0  0  0  0  0
  -11.7331   -9.7947   -7.2808 H   0  0  0  0  0  0
  1  3  1  0  0  0
  1  5  1  0  0  0
  1  7  1  0  0  0
  2  6  2  0  0  0
  2  4  1  0  0  0
  2  9  1  0  0  0
  3 11  2  0  0  0
  3 19  1  0  0  0
  4 23  1  0  0  0
  4 26  1  0  0  0
  5 12  1  0  0  0
  5 20  1  0  0  0
  5 44  1  0  0  0
  6 14  1  0  0  0
  6 45  1  0  0  0
  7 15  2  0  0  0
  7 16  1  0  0  0
  8 20  1  0  0  0
  8 19  1  0  0  0
  8 46  1  0  0  0
  9 17  2  0  0  0
  9 35  1  0  0  0
 10 31  1  0  0  0
 10 13  2  0  0  0
 10 36  1  0  0  0
 12 18  1  0  0  0
 12 47  1  0  0  0
 12 48  1  0  0  0
 13 27  1  0  0  0
 13 40  1  0  0  0
 14 18  1  0  0  0
 14 22  2  0  0  0
 15 24  1  0  0  0
 15 49  1  0  0  0
 16 25  2  0  0  0
 16 50  1  0  0  0
 17 22  1  0  0  0
 17 51  1  0  0  0
 19 52  1  0  0  0
 19 53  1  0  0  0
 20 54  1  0  0  0
 20 55  1  0  0  0
 21 25  1  0  0  0
 21 30  1  0  0  0
 21 24  2  0  0  0
 22 56  1  0  0  0
 23 28  1  0  0  0
 23 57  1  0  0  0
 23 58  1  0  0  0
 24 59  1  0  0  0
 25 60  1  0  0  0
 26 33  1  0  0  0
 26 61  1  0  0  0
 26 62  1  0  0  0
 27 41  1  0  0  0
 28 37  1  0  0  0
 28 63  1  0  0  0
 28 64  1  0  0  0
 29 38  1  0  0  0
 29 39  1  0  0  0
 29 65  1  0  0  0
 29 66  1  0  0  0
 30 38  1  0  0  0
 31 34  1  0  0  0
 31 67  1  0  0  0
 31 68  1  0  0  0
 32 37  1  0  0  0
 32 69  1  0  0  0
 33 35  1  0  0  0
 33 70  1  0  0  0
 33 71  1  0  0  0
 34 39  1  0  0  0
 35 72  1  0  0  0
 35 73  1  0  0  0
 36 42  2  0  0  0
 36 74  1  0  0  0
 37 75  1  0  0  0
 37 76  1  0  0  0
 38 77  1  0  0  0
 38 78  1  0  0  0
 39 79  1  0  0  0
 39 80  1  0  0  0
 40 43  2  0  0  0
 40 81  1  0  0  0
 41 82  1  0  0  0
 41 83  1  0  0  0
 41 84  1  0  0  0
 42 43  1  0  0  0
 42 85  1  0  0  0
 43 86  1  0  0  0
M  END
> <s_m_entry_id>
26202

> <s_m_entry_name>
dock_pv.26

> <s_m_Source_Path>
/home/csk/Desktop/cluster/DUD-E-result/reni

> <s_m_Source_File>
dock_pv.maegz

> <i_m_Source_File_Index>
26

> <chembl_id>
CHEMBL445926

> <chembl_pref_name>
None

> <i_lp_mmshare_version>
53161

> <r_lp_tautomer_probability>
1

> <s_lp_Force_Field>
OPLS_2005

> <r_lp_Energy>
64.552985

> <b_lp_Chiralities_Consistent>
1

> <s_lp_Variant>
CHEMBL286_lig1543-1

> <s_i_glide_gridfile>
glide-grid_3g6z

> <i_i_glide_lignum>
5247

> <i_i_glide_rotatable_bonds>
16

> <r_i_docking_score>
-8.76493732588895

> <r_i_glide_ligand_efficiency>
-0.203835751764859

> <r_i_glide_ligand_efficiency_sa>
-0.714117776475165

> <r_i_glide_ligand_efficiency_ln>
-1.84090924827934

> <r_i_glide_gscore>
-8.76493732588895

> <r_i_glide_lipo>
-4.63843855982909

> <r_i_glide_hbond>
-0.516487984329783

> <r_i_glide_metal>
0

> <r_i_glide_rewards>
-0.772611330129345

> <r_i_glide_evdw>
-43.8471145629883

> <r_i_glide_ecoul>
-9.2015962600708

> <r_i_glide_erotb>
0.735195715559301

> <r_i_glide_esite>
0

> <r_i_glide_emodel>
-72.6741555229294

> <r_i_glide_energy>
-53.0487108230591

> <r_i_glide_einternal>
5.19355583190918

> <i_i_glide_confnum>
15

> <i_i_glide_posenum>
68

> <r_i_glide_eff_state_penalty>
0

> <s_user_duplicate_titles>
CHEMBL286_lig1543,325298

> <i_f3d_flags>
0

> <s_m_subgroup_title>
dock_pv

> <s_m_subgroupid>
dock_pv

> <b_m_subgroup_collapsed>
1

$$$$
CHEMBL286_lig2070
                    3D
 Schrodinger Suite 2021-1.
 82 87  0  0  1  0            999 V2000
  -12.3506  -10.4635   -6.8150 C   0  0  0  0  0  0
  -10.9863  -10.3339   -7.0615 C   0  0  0  0  0  0
  -10.3062  -11.3795   -7.6797 C   0  0  0  0  0  0
  -10.9810  -12.5433   -8.0454 C   0  0  0  0  0  0
  -12.3621  -12.6651   -7.8111 C   0  0  0  0  0  0
  -13.0436  -11.6067   -7.2004 C   0  0  0  0  0  0
  -10.2687   -9.0397   -6.7270 C   0  0  0  0  0  0
  -10.0767  -13.7943   -8.8205 Cl  0  0  0  0  0  0
  -14.7458  -11.6640   -6.9215 Cl  0  0  0  0  0  0
  -13.0642  -13.7746   -8.2235 O   0  0  0  0  0  0
  -12.9060  -14.9516   -7.4320 C   0  0  0  0  0  0
  -12.5944  -16.1400   -8.3639 C   0  0  0  0  0  0
  -11.3929  -16.7722   -7.9175 O   0  0  0  0  0  0
  -10.4529  -17.2267   -8.8224 C   0  0  0  0  0  0
   -9.2118  -17.5636   -8.2877 C   0  0  0  0  0  0
   -8.1667  -17.9564   -9.1151 C   0  0  0  0  0  0
   -8.3432  -18.0115  -10.5011 C   0  0  0  0  0  0
   -9.6082  -17.7397  -11.0332 C   0  0  0  0  0  0
  -10.6565  -17.3489  -10.2046 C   0  0  0  0  0  0
   -5.6638  -16.6184  -10.4939 C   0  0  0  0  0  0
   -6.0732  -15.3389  -10.7358 N   0  0  0  0  0  0
   -5.0393  -16.9219   -9.4737 O   0  0  0  0  0  0
   -5.9873  -14.3391   -9.6456 C   0  0  0  0  0  0
   -6.3399  -14.7789  -12.0755 C   0  0  0  0  0  0
   -4.7509  -13.4269   -9.5482 C   0  0  0  0  0  0
   -3.7108  -13.5200  -10.4832 C   0  0  0  0  0  0
   -2.6277  -12.6497  -10.4295 C   0  0  0  0  0  0
   -2.5622  -11.6805   -9.4351 C   0  0  0  0  0  0
   -3.5703  -11.5795   -8.4722 C   0  0  0  0  0  0
   -4.6694  -12.4625   -8.5177 C   0  0  0  0  0  0
   -5.7787  -12.3810   -7.4603 C   0  0  0  0  0  0
   -3.4502  -10.4905   -7.4114 C   0  0  0  0  0  0
   -7.4773  -15.2652  -12.9478 C   0  0  0  0  0  0
   -7.5624  -13.9100  -12.2932 C   0  0  0  0  0  0
   -7.4432  -19.5126  -12.3774 C   0  0  0  0  0  0
   -6.1968  -19.9226  -13.2102 C   0  0  2  0  0  0
   -5.2172  -20.9115  -12.5098 C   0  0  0  0  0  0
   -7.2108  -18.3380  -11.4120 C   0  0  0  0  0  0
   -6.0137  -17.6751  -11.4296 C   0  0  0  0  0  0
   -4.9164  -18.0683  -12.4298 C   0  0  1  0  0  0
   -3.8853  -19.0378  -11.7729 C   0  0  0  0  0  0
   -4.5035  -20.3111  -11.3778 N   0  0  2  0  0  0
   -5.4498  -18.7346  -13.6256 N   0  0  2  0  0  0
  -12.8912   -9.6462   -6.3640 H   0  0  0  0  0  0
   -9.2569  -11.2824   -7.9202 H   0  0  0  0  0  0
   -9.4700   -8.8532   -7.4440 H   0  0  0  0  0  0
  -10.9447   -8.1878   -6.7958 H   0  0  0  0  0  0
   -9.8507   -9.0780   -5.7219 H   0  0  0  0  0  0
  -13.8354  -15.1308   -6.8894 H   0  0  0  0  0  0
  -12.1312  -14.8447   -6.6671 H   0  0  0  0  0  0
  -12.5321  -15.7623   -9.3846 H   0  0  0  0  0  0
  -13.4068  -16.8667   -8.3453 H   0  0  0  0  0  0
   -9.0513  -17.4928   -7.2225 H   0  0  0  0  0  0
   -7.2082  -18.1920   -8.6765 H   0  0  0  0  0  0
   -9.7755  -17.7951  -12.0990 H   0  0  0  0  0  0
  -11.6103  -17.1385  -10.6623 H   0  0  0  0  0  0
   -6.0888  -14.8510   -8.6873 H   0  0  0  0  0  0
   -6.8664  -13.6978   -9.7031 H   0  0  0  0  0  0
   -5.4279  -14.4900  -12.5986 H   0  0  0  0  0  0
   -3.7271  -14.2634  -11.2654 H   0  0  0  0  0  0
   -1.8389  -12.7285  -11.1624 H   0  0  0  0  0  0
   -1.7149  -11.0126   -9.4112 H   0  0  0  0  0  0
   -6.0365  -13.3754   -7.0953 H   0  0  0  0  0  0
   -5.4978  -11.8171   -6.5716 H   0  0  0  0  0  0
   -6.6820  -11.9419   -7.8840 H   0  0  0  0  0  0
   -4.3707   -9.9130   -7.3391 H   0  0  0  0  0  0
   -2.6544   -9.7798   -7.6307 H   0  0  0  0  0  0
   -3.2579  -10.9294   -6.4309 H   0  0  0  0  0  0
   -7.3025  -15.3261  -14.0215 H   0  0  0  0  0  0
   -8.1486  -16.0460  -12.6011 H   0  0  0  0  0  0
   -8.2675  -13.7691  -11.4730 H   0  0  0  0  0  0
   -7.4537  -13.0125  -12.9013 H   0  0  0  0  0  0
   -7.8443  -20.3632  -11.8246 H   0  0  0  0  0  0
   -8.2661  -19.2629  -13.0435 H   0  0  0  0  0  0
   -6.5651  -20.4013  -14.1189 H   0  0  0  0  0  0
   -5.7307  -21.8237  -12.2042 H   0  0  0  0  0  0
   -4.4632  -21.2439  -13.2258 H   0  0  0  0  0  0
   -4.3965  -17.1726  -12.7745 H   0  0  0  0  0  0
   -3.0649  -19.2383  -12.4639 H   0  0  0  0  0  0
   -3.4239  -18.5796  -10.8963 H   0  0  0  0  0  0
   -3.8171  -20.9468  -10.9958 H   0  0  0  0  0  0
   -6.0657  -18.1130  -14.1471 H   0  0  0  0  0  0
  1  6  1  0  0  0
  1  2  2  0  0  0
  1 44  1  0  0  0
  2  3  1  0  0  0
  2  7  1  0  0  0
  3  4  2  0  0  0
  3 45  1  0  0  0
  4  8  1  0  0  0
  4  5  1  0  0  0
  5 10  1  0  0  0
  5  6  2  0  0  0
  6  9  1  0  0  0
  7 46  1  0  0  0
  7 47  1  0  0  0
  7 48  1  0  0  0
 10 11  1  0  0  0
 11 12  1  0  0  0
 11 49  1  0  0  0
 11 50  1  0  0  0
 12 13  1  0  0  0
 12 51  1  0  0  0
 12 52  1  0  0  0
 13 14  1  0  0  0
 14 15  2  0  0  0
 14 19  1  0  0  0
 15 16  1  0  0  0
 15 53  1  0  0  0
 16 17  2  0  0  0
 16 54  1  0  0  0
 17 18  1  0  0  0
 17 38  1  0  0  0
 18 19  2  0  0  0
 18 55  1  0  0  0
 19 56  1  0  0  0
 20 21  1  0  0  0
 20 22  2  0  0  0
 20 39  1  0  0  0
 21 23  1  0  0  0
 21 24  1  0  0  0
 23 25  1  0  0  0
 23 57  1  0  0  0
 23 58  1  0  0  0
 24 33  1  0  0  0
 24 34  1  0  0  0
 24 59  1  0  0  0
 25 26  2  0  0  0
 25 30  1  0  0  0
 26 27  1  0  0  0
 26 60  1  0  0  0
 27 28  2  0  0  0
 27 61  1  0  0  0
 28 29  1  0  0  0
 28 62  1  0  0  0
 29 30  2  0  0  0
 29 32  1  0  0  0
 30 31  1  0  0  0
 31 63  1  0  0  0
 31 64  1  0  0  0
 31 65  1  0  0  0
 32 66  1  0  0  0
 32 67  1  0  0  0
 32 68  1  0  0  0
 33 34  1  0  0  0
 33 69  1  0  0  0
 33 70  1  0  0  0
 34 71  1  0  0  0
 34 72  1  0  0  0
 35 36  1  0  0  0
 35 38  1  0  0  0
 35 73  1  0  0  0
 35 74  1  0  0  0
 36 37  1  0  0  0
 36 43  1  0  0  0
 36 75  1  0  0  0
 37 42  1  0  0  0
 37 76  1  0  0  0
 37 77  1  0  0  0
 38 39  2  0  0  0
 39 40  1  0  0  0
 40 41  1  0  0  0
 40 43  1  0  0  0
 40 78  1  0  0  0
 41 42  1  0  0  0
 41 79  1  0  0  0
 41 80  1  0  0  0
 42 81  1  0  0  0
 43 82  1  0  0  0
M  END
> <s_m_entry_id>
26203

> <s_m_entry_name>
dock_pv.27

> <s_m_Source_Path>
/home/csk/Desktop/cluster/DUD-E-result/reni

> <s_m_Source_File>
dock_pv.maegz

> <i_m_Source_File_Index>
27

> <chembl_id>
CHEMBL1783181

> <chembl_pref_name>
None

> <i_lp_mmshare_version>
53161

> <r_lp_tautomer_probability>
1

> <s_lp_Force_Field>
OPLS_2005

> <r_lp_Energy>
98.891246

> <b_lp_Chiralities_Consistent>
1

> <s_lp_Variant>
CHEMBL286_lig2070-2

> <s_i_glide_gridfile>
glide-grid_3g6z

> <i_i_glide_lignum>
5892

> <i_i_glide_rotatable_bonds>
11

> <r_i_docking_score>
-8.72171481704451

> <r_i_glide_ligand_efficiency>
-0.20283057714057

> <r_i_glide_ligand_efficiency_sa>
-0.710596249650494

> <r_i_glide_ligand_efficiency_ln>
-1.83183117808818

> <r_i_glide_gscore>
-8.72171481704451

> <r_i_glide_lipo>
-5.37628364591448

> <r_i_glide_hbond>
-0.251862207470353

> <r_i_glide_metal>
0

> <r_i_glide_rewards>
0.535350221162581

> <r_i_glide_evdw>
-61.5136566162109

> <r_i_glide_ecoul>
-6.82472324371338

> <r_i_glide_erotb>
0.470472132545293

> <r_i_glide_esite>
0

> <r_i_glide_emodel>
-97.0734543119804

> <r_i_glide_energy>
-68.3383798599243

> <r_i_glide_einternal>
10.3203639984131

> <i_i_glide_confnum>
42

> <i_i_glide_posenum>
9

> <r_i_glide_eff_state_penalty>
0

> <s_user_duplicate_titles>
CHEMBL286_lig2070,CHEMBL286_lig2049

> <i_f3d_flags>
0

> <s_m_subgroup_title>
dock_pv

> <s_m_subgroupid>
dock_pv

> <b_m_subgroup_collapsed>
1

$$$$
CHEMBL286_lig637
                    3D
 Schrodinger Suite 2021-1.
 86 90  0  0  1  0            999 V2000
   -9.0448  -14.7681   -9.2188 N   0  0  0  0  0  0
   -9.9915  -15.6935   -8.8862 C   0  0  0  0  0  0
   -7.6821  -15.0830   -9.7013 C   0  0  2  0  0  0
   -7.6197  -15.9915  -10.9522 C   0  0  0  0  0  0
   -9.4751  -13.3876   -9.0126 C   0  0  0  0  0  0
  -11.1607  -14.8945   -8.4165 C   0  0  0  0  0  0
   -6.6621  -18.8350  -11.6326 C   0  0  0  0  0  0
   -7.8861  -20.9849  -12.0901 C   0  0  1  0  0  0
   -9.0282  -20.9349  -11.0160 C   0  0  2  0  0  0
   -7.3501  -19.6583  -12.4379 N   0  0  0  0  0  0
   -6.4010  -16.4084  -11.3232 N   0  0  0  0  0  0
   -6.1888  -17.5091  -12.2607 C   0  0  1  0  0  0
  -10.8497  -13.5479   -8.4431 C   0  0  0  0  0  0
   -9.8402  -22.2509  -10.9636 C   0  0  0  0  0  0
   -2.1241  -17.2354   -9.9614 N   0  0  0  0  0  0
   -3.6578  -17.2443  -11.6385 C   0  0  0  0  0  0
   -4.7064  -17.5695  -12.6863 C   0  0  0  0  0  0
   -2.9826  -16.0336  -11.6193 N   0  0  0  0  0  0
   -2.0834  -16.0915  -10.6354 C   0  0  0  0  0  0
   -9.8962  -16.9206   -8.9291 O   0  0  0  0  0  0
   -3.1244  -17.9746  -10.5968 C   0  0  0  0  0  0
   -6.8029  -15.5754   -8.5098 C   0  0  0  0  0  0
   -8.6492  -16.2917  -11.5587 O   0  0  0  0  0  0
   -6.7872  -22.0313  -11.7171 C   0  0  0  0  0  0
   -6.4015  -19.0810  -10.4536 O   0  0  0  0  0  0
   -9.5226  -23.1581  -10.1895 O   0  0  0  0  0  0
   -9.9223  -19.8415  -11.2212 O   0  0  0  0  0  0
  -10.8595  -22.3095  -11.8586 O   0  0  0  0  0  0
   -5.8178  -14.5321   -8.0057 C   0  0  0  0  0  0
   -5.4579  -21.9772  -12.5246 C   0  0  0  0  0  0
  -12.3950  -15.3376   -7.9447 C   0  0  0  0  0  0
  -11.7811  -12.6001   -8.0141 C   0  0  0  0  0  0
  -11.6835  -23.4621  -11.9463 C   0  0  0  0  0  0
   -6.2676  -13.4120   -7.2735 C   0  0  0  0  0  0
   -4.4610  -14.5925   -8.3913 C   0  0  0  0  0  0
   -4.2786  -21.4894  -11.6473 C   0  0  0  0  0  0
   -5.0589  -23.3551  -13.0987 C   0  0  0  0  0  0
  -13.3206  -14.3944   -7.4988 C   0  0  0  0  0  0
  -13.0197  -13.0297   -7.5330 C   0  0  0  0  0  0
   -3.5840  -13.5805   -8.0189 C   0  0  0  0  0  0
   -5.3830  -12.3972   -6.9357 C   0  0  0  0  0  0
   -3.7932  -23.2267  -13.9711 C   0  0  0  0  0  0
   -3.0028  -21.2878  -12.4852 C   0  0  0  0  0  0
   -2.6121  -22.5982  -13.2000 C   0  0  0  0  0  0
   -4.0436  -12.4864   -7.2934 C   0  0  0  0  0  0
   -7.2529  -14.1422  -10.0518 H   0  0  0  0  0  0
   -8.8060  -12.8546   -8.3407 H   0  0  0  0  0  0
   -9.4668  -12.8689   -9.9707 H   0  0  0  0  0  0
   -8.3253  -21.3338  -13.0283 H   0  0  0  0  0  0
   -8.5751  -20.7904  -10.0333 H   0  0  0  0  0  0
   -7.5763  -19.3154  -13.3649 H   0  0  0  0  0  0
   -5.5871  -16.1097  -10.8063 H   0  0  0  0  0  0
   -6.7790  -17.3342  -13.1666 H   0  0  0  0  0  0
   -3.1104  -15.2737  -12.2835 H   0  0  0  0  0  0
   -4.4759  -18.5462  -13.1105 H   0  0  0  0  0  0
   -4.5824  -16.8697  -13.5109 H   0  0  0  0  0  0
   -1.4015  -15.2852  -10.4001 H   0  0  0  0  0  0
   -3.3645  -18.9695  -10.2545 H   0  0  0  0  0  0
   -7.4279  -15.8793   -7.6687 H   0  0  0  0  0  0
   -6.2402  -16.4774   -8.7539 H   0  0  0  0  0  0
   -7.2246  -23.0279  -11.8019 H   0  0  0  0  0  0
   -6.5646  -21.9312  -10.6523 H   0  0  0  0  0  0
   -9.4086  -19.0265  -11.2633 H   0  0  0  0  0  0
   -5.5704  -21.2958  -13.3692 H   0  0  0  0  0  0
  -12.6423  -16.3895   -7.9104 H   0  0  0  0  0  0
  -11.5575  -11.5428   -8.0426 H   0  0  0  0  0  0
  -12.4270  -23.3212  -12.7336 H   0  0  0  0  0  0
  -11.0935  -24.3488  -12.1920 H   0  0  0  0  0  0
  -12.2122  -23.6412  -11.0083 H   0  0  0  0  0  0
   -7.2999  -13.3335   -6.9768 H   0  0  0  0  0  0
   -4.0995  -15.4313   -8.9672 H   0  0  0  0  0  0
   -4.1043  -22.1766  -10.8142 H   0  0  0  0  0  0
   -4.5422  -20.5548  -11.1663 H   0  0  0  0  0  0
   -5.8801  -23.7573  -13.6942 H   0  0  0  0  0  0
   -4.9161  -24.0818  -12.2971 H   0  0  0  0  0  0
  -14.2694  -14.7357   -7.1205 H   0  0  0  0  0  0
  -13.7433  -12.3047   -7.1897 H   0  0  0  0  0  0
   -2.5459  -13.6388   -8.3079 H   0  0  0  0  0  0
   -5.7356  -11.5291   -6.3994 H   0  0  0  0  0  0
   -3.5046  -24.2030  -14.3625 H   0  0  0  0  0  0
   -4.0286  -22.5918  -14.8231 H   0  0  0  0  0  0
   -2.1856  -20.9483  -11.8478 H   0  0  0  0  0  0
   -3.1593  -20.5003  -13.2214 H   0  0  0  0  0  0
   -2.2600  -23.3054  -12.4529 H   0  0  0  0  0  0
   -1.7723  -22.4253  -13.8733 H   0  0  0  0  0  0
   -3.3622  -11.6895   -7.0238 H   0  0  0  0  0  0
  1  2  1  0  0  0
  1  3  1  0  0  0
  1  5  1  0  0  0
  2  6  1  0  0  0
  2 20  2  0  0  0
  3  4  1  0  0  0
  3 22  1  0  0  0
  3 46  1  0  0  0
  4 11  1  0  0  0
  4 23  2  0  0  0
  5 13  1  0  0  0
  5 47  1  0  0  0
  5 48  1  0  0  0
  6 31  2  0  0  0
  6 13  1  0  0  0
  7 12  1  0  0  0
  7 10  1  0  0  0
  7 25  2  0  0  0
  8 10  1  0  0  0
  8  9  1  0  0  0
  8 24  1  0  0  0
  8 49  1  0  0  0
  9 14  1  0  0  0
  9 27  1  0  0  0
  9 50  1  0  0  0
 10 51  1  0  0  0
 11 12  1  0  0  0
 11 52  1  0  0  0
 12 17  1  0  0  0
 12 53  1  0  0  0
 13 32  2  0  0  0
 14 26  2  0  0  0
 14 28  1  0  0  0
 15 19  2  0  0  0
 15 21  1  0  0  0
 16 21  2  0  0  0
 16 17  1  0  0  0
 16 18  1  0  0  0
 17 55  1  0  0  0
 17 56  1  0  0  0
 18 54  1  0  0  0
 18 19  1  0  0  0
 19 57  1  0  0  0
 21 58  1  0  0  0
 22 29  1  0  0  0
 22 59  1  0  0  0
 22 60  1  0  0  0
 24 30  1  0  0  0
 24 61  1  0  0  0
 24 62  1  0  0  0
 27 63  1  0  0  0
 28 33  1  0  0  0
 29 34  2  0  0  0
 29 35  1  0  0  0
 30 36  1  0  0  0
 30 37  1  0  0  0
 30 64  1  0  0  0
 31 38  1  0  0  0
 31 65  1  0  0  0
 32 39  1  0  0  0
 32 66  1  0  0  0
 33 67  1  0  0  0
 33 68  1  0  0  0
 33 69  1  0  0  0
 34 41  1  0  0  0
 34 70  1  0  0  0
 35 40  2  0  0  0
 35 71  1  0  0  0
 36 43  1  0  0  0
 36 72  1  0  0  0
 36 73  1  0  0  0
 37 42  1  0  0  0
 37 74  1  0  0  0
 37 75  1  0  0  0
 38 39  2  0  0  0
 38 76  1  0  0  0
 39 77  1  0  0  0
 40 45  1  0  0  0
 40 78  1  0  0  0
 41 45  2  0  0  0
 41 79  1  0  0  0
 42 44  1  0  0  0
 42 80  1  0  0  0
 42 81  1  0  0  0
 43 44  1  0  0  0
 43 82  1  0  0  0
 43 83  1  0  0  0
 44 84  1  0  0  0
 44 85  1  0  0  0
 45 86  1  0  0  0
M  END
> <s_m_entry_id>
26205

> <s_m_entry_name>
dock_pv.29

> <s_m_Source_Path>
/home/csk/Desktop/cluster/DUD-E-result/reni

> <s_m_Source_File>
dock_pv.maegz

> <i_m_Source_File_Index>
29

> <chembl_id>
CHEMBL353061

> <chembl_pref_name>
None

> <i_lp_mmshare_version>
53161

> <r_lp_tautomer_probability>
0.499999999999999

> <s_lp_Force_Field>
OPLS_2005

> <r_lp_Energy>
46.136191

> <b_lp_Chiralities_Consistent>
1

> <s_lp_Variant>
CHEMBL286_lig637-7

> <s_i_glide_gridfile>
glide-grid_3g6z

> <i_i_glide_lignum>
1805

> <i_i_glide_rotatable_bonds>
17

> <r_i_docking_score>
-8.68162281564599

> <r_i_glide_ligand_efficiency>
-0.1929249514588

> <r_i_glide_ligand_efficiency_sa>
-0.686213467242147

> <r_i_glide_ligand_efficiency_ln>
-1.80616442991836

> <r_i_glide_gscore>
-8.68162281564599

> <r_i_glide_lipo>
-4.34795195819886

> <r_i_glide_hbond>
-0.301099822559635

> <r_i_glide_metal>
0

> <r_i_glide_rewards>
-1.14090917312495

> <r_i_glide_evdw>
-51.2610511779785

> <r_i_glide_ecoul>
-5.52524089813232

> <r_i_glide_erotb>
0.594073524962445

> <r_i_glide_esite>
-0.0938966931062136

> <r_i_glide_emodel>
-79.3174225801952

> <r_i_glide_energy>
-56.7862920761108

> <r_i_glide_einternal>
17.0269393920898

> <i_i_glide_confnum>
31

> <i_i_glide_posenum>
383

> <r_i_glide_eff_state_penalty>
0

> <s_user_duplicate_titles>
CHEMBL286_lig637

> <i_f3d_flags>
0

> <s_m_subgroup_title>
dock_pv

> <s_m_subgroupid>
dock_pv

> <b_m_subgroup_collapsed>
1

$$$$
CHEMBL286_lig1961
                    3D
 Schrodinger Suite 2021-1.
 83 88  0  0  1  0            999 V2000
   -6.4641  -18.5045  -12.2362 C   0  0  0  0  0  0
   -5.1492  -18.8232  -12.9553 C   0  0  0  0  0  0
   -4.2680  -17.6632  -13.0113 N   0  0  1  0  0  0
   -4.0052  -16.9745  -11.7427 C   0  0  0  0  0  0
   -5.2999  -16.6400  -10.9528 C   0  0  1  0  0  0
   -6.2253  -17.8984  -10.8486 C   0  0  1  0  0  0
   -7.5521  -17.6473  -10.1305 C   0  0  0  0  0  0
   -4.9110  -16.2427   -9.4997 C   0  0  0  0  0  0
   -5.2908  -15.0453   -8.9713 N   0  0  0  0  0  0
   -4.3107  -17.0809   -8.8214 O   0  0  0  0  0  0
   -5.2856  -14.8731   -7.5106 C   0  0  0  0  0  0
   -5.4645  -13.7893   -9.7304 C   0  0  0  0  0  0
   -4.2579  -12.8380   -9.6936 C   0  0  0  0  0  0
   -3.7992  -12.3259   -8.4709 C   0  0  0  0  0  0
   -2.6465  -11.5368   -8.4138 C   0  0  0  0  0  0
   -1.9963  -11.2400   -9.5688 N   0  3  0  0  0  0
   -2.4368  -11.6632  -10.7695 C   0  0  0  0  0  0
   -3.5843  -12.4493  -10.8633 C   0  0  0  0  0  0
   -4.1649  -12.8631  -12.4324 Cl  0  0  0  0  0  0
   -7.8504  -18.3279   -8.9451 C   0  0  0  0  0  0
   -9.0689  -18.1052   -8.3097 C   0  0  0  0  0  0
   -9.9816  -17.2310   -8.8939 C   0  0  0  0  0  0
   -9.7072  -16.5444  -10.0403 N   0  0  0  0  0  0
   -8.5074  -16.7557  -10.6369 C   0  0  0  0  0  0
  -11.2162  -17.1103   -8.2941 O   0  0  0  0  0  0
  -12.2696  -16.3804   -8.9174 C   0  0  0  0  0  0
  -12.3380  -15.0212   -8.2803 C   0  0  0  0  0  0
  -11.6182  -13.8635   -8.4225 C   0  0  0  0  0  0
  -12.1111  -12.9717   -7.4705 C   0  0  0  0  0  0
  -13.1029  -13.5414   -6.8183 N   0  0  0  0  0  0
  -13.2574  -14.8371   -7.3083 O   0  0  0  0  0  0
  -11.6173  -11.5761   -7.1611 C   0  0  0  0  0  0
  -12.3878  -10.5822   -6.5104 C   0  0  0  0  0  0
  -11.8332   -9.3221   -6.2380 C   0  0  0  0  0  0
  -10.5316   -9.0293   -6.6121 C   0  0  0  0  0  0
   -9.7640   -9.9970   -7.2391 C   0  0  0  0  0  0
  -10.2901  -11.2557   -7.5046 C   0  0  0  0  0  0
  -14.0299  -10.8632   -6.0226 Cl  0  0  0  0  0  0
  -12.5509   -8.3554   -5.6211 F   0  0  0  0  0  0
   -9.4476  -12.1786   -8.0210 F   0  0  0  0  0  0
   -6.4599  -14.1819   -6.8443 C   0  0  0  0  0  0
   -6.2509  -15.6630   -6.6553 C   0  0  0  0  0  0
   -2.0972  -11.0796   -7.0608 C   0  0  0  0  0  0
   -0.8209  -11.8377   -6.6339 C   0  0  0  0  0  0
   -0.9719  -13.3766   -6.6046 C   0  0  0  0  0  0
    0.1458  -14.0139   -5.9967 O   0  0  0  0  0  0
    1.3304  -14.0357   -6.7845 C   0  0  0  0  0  0
   -0.9729  -10.5021   -9.5482 O   0  5  0  0  0  0
   -7.0162  -19.4395  -12.1400 H   0  0  0  0  0  0
   -7.0689  -17.8435  -12.8543 H   0  0  0  0  0  0
   -4.6292  -19.6436  -12.4593 H   0  0  0  0  0  0
   -5.3710  -19.1353  -13.9755 H   0  0  0  0  0  0
   -3.4036  -17.8711  -13.4921 H   0  0  0  0  0  0
   -3.4355  -16.0680  -11.9490 H   0  0  0  0  0  0
   -3.3641  -17.6527  -11.1736 H   0  0  0  0  0  0
   -5.8434  -15.8468  -11.4554 H   0  0  0  0  0  0
   -5.7099  -18.6764  -10.2765 H   0  0  0  0  0  0
   -4.2833  -14.7442   -7.0980 H   0  0  0  0  0  0
   -6.3275  -13.2623   -9.3273 H   0  0  0  0  0  0
   -5.7409  -13.9785  -10.7608 H   0  0  0  0  0  0
   -4.3135  -12.5481   -7.5505 H   0  0  0  0  0  0
   -1.8641  -11.3405  -11.6258 H   0  0  0  0  0  0
   -7.1455  -19.0243   -8.5159 H   0  0  0  0  0  0
   -9.3218  -18.6299   -7.4010 H   0  0  0  0  0  0
   -8.3275  -16.2100  -11.5523 H   0  0  0  0  0  0
  -12.1927  -16.3099  -10.0026 H   0  0  0  0  0  0
  -13.1874  -16.9357   -8.7345 H   0  0  0  0  0  0
  -10.8105  -13.7154   -9.1237 H   0  0  0  0  0  0
  -10.1138   -8.0522   -6.4185 H   0  0  0  0  0  0
   -8.7437   -9.7823   -7.5180 H   0  0  0  0  0  0
   -6.2691  -13.4986   -6.0207 H   0  0  0  0  0  0
   -7.3097  -13.8604   -7.4477 H   0  0  0  0  0  0
   -6.9317  -16.3611   -7.1393 H   0  0  0  0  0  0
   -5.8784  -16.0372   -5.7024 H   0  0  0  0  0  0
   -2.8632  -11.1985   -6.2941 H   0  0  0  0  0  0
   -1.8943  -10.0086   -7.1061 H   0  0  0  0  0  0
   -0.5216  -11.4932   -5.6430 H   0  0  0  0  0  0
   -0.0077  -11.5626   -7.3061 H   0  0  0  0  0  0
   -1.1401  -13.7810   -7.6049 H   0  0  0  0  0  0
   -1.8492  -13.6550   -6.0213 H   0  0  0  0  0  0
    2.1027  -14.5979   -6.2592 H   0  0  0  0  0  0
    1.7220  -13.0341   -6.9664 H   0  0  0  0  0  0
    1.1591  -14.5236   -7.7464 H   0  0  0  0  0  0
  1  2  1  0  0  0
  1  6  1  0  0  0
  1 49  1  0  0  0
  1 50  1  0  0  0
  2  3  1  0  0  0
  2 51  1  0  0  0
  2 52  1  0  0  0
  3  4  1  0  0  0
  3 53  1  0  0  0
  4  5  1  0  0  0
  4 54  1  0  0  0
  4 55  1  0  0  0
  5  6  1  0  0  0
  5  8  1  0  0  0
  5 56  1  0  0  0
  6  7  1  0  0  0
  6 57  1  0  0  0
  7 24  1  0  0  0
  7 20  2  0  0  0
  8  9  1  0  0  0
  8 10  2  0  0  0
  9 12  1  0  0  0
  9 11  1  0  0  0
 11 41  1  0  0  0
 11 42  1  0  0  0
 11 58  1  0  0  0
 12 13  1  0  0  0
 12 59  1  0  0  0
 12 60  1  0  0  0
 13 14  2  0  0  0
 13 18  1  0  0  0
 14 15  1  0  0  0
 14 61  1  0  0  0
 15 16  2  0  0  0
 15 43  1  0  0  0
 16 17  1  0  0  0
 16 48  1  0  0  0
 17 18  2  0  0  0
 17 62  1  0  0  0
 18 19  1  0  0  0
 20 21  1  0  0  0
 20 63  1  0  0  0
 21 22  2  0  0  0
 21 64  1  0  0  0
 22 25  1  0  0  0
 22 23  1  0  0  0
 23 24  2  0  0  0
 24 65  1  0  0  0
 25 26  1  0  0  0
 26 27  1  0  0  0
 26 66  1  0  0  0
 26 67  1  0  0  0
 27 28  2  0  0  0
 27 31  1  0  0  0
 28 29  1  0  0  0
 28 68  1  0  0  0
 29 30  2  0  0  0
 29 32  1  0  0  0
 30 31  1  0  0  0
 32 33  2  0  0  0
 32 37  1  0  0  0
 33 34  1  0  0  0
 33 38  1  0  0  0
 34 35  2  0  0  0
 34 39  1  0  0  0
 35 36  1  0  0  0
 35 69  1  0  0  0
 36 37  2  0  0  0
 36 70  1  0  0  0
 37 40  1  0  0  0
 41 42  1  0  0  0
 41 71  1  0  0  0
 41 72  1  0  0  0
 42 73  1  0  0  0
 42 74  1  0  0  0
 43 44  1  0  0  0
 43 75  1  0  0  0
 43 76  1  0  0  0
 44 45  1  0  0  0
 44 77  1  0  0  0
 44 78  1  0  0  0
 45 46  1  0  0  0
 45 79  1  0  0  0
 45 80  1  0  0  0
 46 47  1  0  0  0
 47 81  1  0  0  0
 47 82  1  0  0  0
 47 83  1  0  0  0
M  CHG  2  16   1  48  -1
M  END
> <s_m_entry_id>
26206

> <s_m_entry_name>
dock_pv.30

> <s_m_Source_Path>
/home/csk/Desktop/cluster/DUD-E-result/reni

> <s_m_Source_File>
dock_pv.maegz

> <i_m_Source_File_Index>
30

> <chembl_id>
CHEMBL1269756

> <chembl_pref_name>
None

> <i_lp_mmshare_version>
53161

> <r_lp_tautomer_probability>
1

> <s_lp_Force_Field>
OPLS_2005

> <r_lp_Energy>
68.446423

> <b_lp_Chiralities_Consistent>
1

> <s_lp_Variant>
CHEMBL286_lig1961-1

> <s_i_glide_gridfile>
glide-grid_3g6z

> <i_i_glide_lignum>
5750

> <i_i_glide_rotatable_bonds>
14

> <r_i_docking_score>
-8.64831638242695

> <r_i_glide_ligand_efficiency>
-0.180173257967228

> <r_i_glide_ligand_efficiency_sa>
-0.65479307381487

> <r_i_glide_ligand_efficiency_ln>
-1.775397148067

> <r_i_glide_gscore>
-8.64831638242695

> <r_i_glide_lipo>
-4.59402982873811

> <r_i_glide_hbond>
-0.0652321105263151

> <r_i_glide_metal>
0

> <r_i_glide_rewards>
-0.775703949463839

> <r_i_glide_evdw>
-51.9731483459473

> <r_i_glide_ecoul>
-6.6900315284729

> <r_i_glide_erotb>
0.388811652869616

> <r_i_glide_esite>
0

> <r_i_glide_emodel>
-78.9464784128428

> <r_i_glide_energy>
-58.6631798744202

> <r_i_glide_einternal>
10.6066665649414

> <i_i_glide_confnum>
11

> <i_i_glide_posenum>
3

> <r_i_glide_eff_state_penalty>
0

> <s_user_duplicate_titles>
CHEMBL286_lig1961

> <i_f3d_flags>
0

> <s_m_subgroup_title>
dock_pv

> <s_m_subgroupid>
dock_pv

> <b_m_subgroup_collapsed>
1

$$$$
CHEMBL286_lig577
                    3D
 Schrodinger Suite 2021-1.
 87 89  0  0  1  0            999 V2000
   -9.5305  -17.6559  -10.6699 P   0  0  2  0  0  0
   -6.6785  -14.9591  -10.7559 C   0  0  0  0  0  0
   -5.3545  -14.9253  -10.5357 N   0  0  0  0  0  0
   -7.2354  -16.3606  -11.0780 C   0  0  1  0  0  0
   -8.6634  -16.3255  -11.0641 O   0  0  0  0  0  0
   -4.4904  -13.7670  -10.2820 C   0  0  1  0  0  0
   -9.0761  -18.3585   -9.4392 O   0  0  0  0  0  0
    1.4746  -17.7184  -12.5933 N   0  0  0  0  0  0
    0.2541  -17.6860  -12.0017 C   0  0  0  0  0  0
   -7.4006  -13.9605  -10.7186 O   0  0  0  0  0  0
   -4.6604  -13.2343   -8.8259 C   0  0  0  0  0  0
   -9.4556  -18.5504  -12.0209 O   0  0  0  0  0  0
   -3.0527  -14.1526  -10.7396 C   0  0  2  0  0  0
   -0.1804  -16.1670  -11.2213 S   0  0  0  0  0  0
  -11.2735  -17.0642  -10.7339 C   0  0  0  0  0  0
   -2.3585  -15.1681   -9.7853 C   0  0  0  0  0  0
   -1.8075  -16.4124  -10.4717 C   0  0  0  0  0  0
   -2.2686  -13.0053  -11.0137 O   0  0  0  0  0  0
   -3.8433  -11.9921   -8.3715 C   0  0  0  0  0  0
   -6.7427  -16.8810  -12.4547 C   0  0  0  0  0  0
  -11.4270  -13.9673   -8.3501 C   0  0  0  0  0  0
  -11.7894  -16.2630   -9.5183 C   0  0  0  0  0  0
    1.8373  -18.8628  -13.2210 C   0  0  0  0  0  0
   -0.6293  -18.7739  -12.0210 C   0  0  0  0  0  0
  -10.8031  -15.2568   -8.8818 C   0  0  0  0  0  0
  -10.6782  -12.7892   -8.4164 C   0  0  0  0  0  0
  -12.7208  -13.9396   -7.8128 C   0  0  0  0  0  0
   -4.5696  -11.2928   -7.2001 C   0  0  0  0  0  0
   -2.4046  -12.3066   -7.8786 C   0  0  0  0  0  0
   -5.3603  -17.5776  -12.4449 C   0  0  0  0  0  0
   -5.1391  -18.5556  -13.6206 C   0  0  0  0  0  0
    1.0050  -19.9820  -13.2951 C   0  0  0  0  0  0
   -6.0330  -19.8134  -13.5694 C   0  0  0  0  0  0
   -0.2438  -19.9358  -12.6849 C   0  0  0  0  0  0
  -11.2236  -11.5841   -7.9833 C   0  0  0  0  0  0
  -13.2674  -12.7318   -7.3834 C   0  0  0  0  0  0
   -3.8357  -10.0240   -6.7383 C   0  0  0  0  0  0
   -1.6263  -11.0369   -7.4973 C   0  0  0  0  0  0
  -12.5193  -11.5609   -7.4756 C   0  0  0  0  0  0
   -2.3590  -10.2780   -6.3839 C   0  0  0  0  0  0
   -4.8691  -15.8033  -10.6339 H   0  0  0  0  0  0
   -6.9099  -17.0335  -10.2814 H   0  0  0  0  0  0
   -4.8288  -12.9801  -10.9617 H   0  0  0  0  0  0
   -5.7170  -12.9797   -8.7262 H   0  0  0  0  0  0
   -4.5133  -14.0425   -8.1099 H   0  0  0  0  0  0
   -9.3510  -18.0649  -12.8726 H   0  0  0  0  0  0
   -3.1503  -14.6247  -11.7215 H   0  0  0  0  0  0
  -11.3826  -16.4539  -11.6203 H   0  0  0  0  0  0
  -11.9188  -17.9251  -10.8920 H   0  0  0  0  0  0
   -3.0576  -15.5098   -9.0217 H   0  0  0  0  0  0
   -1.5415  -14.7222   -9.2283 H   0  0  0  0  0  0
   -2.5177  -16.7874  -11.2097 H   0  0  0  0  0  0
   -1.6825  -17.2013   -9.7271 H   0  0  0  0  0  0
   -1.4300  -13.2660  -11.4169 H   0  0  0  0  0  0
   -3.7776  -11.2814   -9.1994 H   0  0  0  0  0  0
   -7.4688  -17.5933  -12.8192 H   0  0  0  0  0  0
   -6.7610  -16.0897  -13.2081 H   0  0  0  0  0  0
  -12.6692  -15.7235   -9.8668 H   0  0  0  0  0  0
  -12.1472  -16.9468   -8.7475 H   0  0  0  0  0  0
    2.8066  -18.8626  -13.6974 H   0  0  0  0  0  0
   -1.5943  -18.7514  -11.5446 H   0  0  0  0  0  0
  -10.2618  -15.7534   -8.0793 H   0  0  0  0  0  0
  -10.0567  -14.9664   -9.6175 H   0  0  0  0  0  0
   -9.6755  -12.8081   -8.8203 H   0  0  0  0  0  0
  -13.3104  -14.8413   -7.7379 H   0  0  0  0  0  0
   -5.5900  -11.0410   -7.4936 H   0  0  0  0  0  0
   -4.6833  -11.9845   -6.3623 H   0  0  0  0  0  0
   -2.4339  -13.0123   -7.0442 H   0  0  0  0  0  0
   -1.8223  -12.8008   -8.6356 H   0  0  0  0  0  0
   -4.5812  -16.8147  -12.4773 H   0  0  0  0  0  0
   -5.2158  -18.1239  -11.5107 H   0  0  0  0  0  0
   -5.3041  -18.0301  -14.5610 H   0  0  0  0  0  0
   -4.0929  -18.8608  -13.6203 H   0  0  0  0  0  0
    1.3305  -20.8625  -13.8185 H   0  0  0  0  0  0
   -5.8687  -20.4762  -14.4185 H   0  0  0  0  0  0
   -5.8546  -20.3875  -12.6587 H   0  0  0  0  0  0
   -7.0935  -19.5677  -13.5972 H   0  0  0  0  0  0
   -0.9019  -20.7910  -12.7233 H   0  0  0  0  0  0
  -10.6500  -10.6725   -8.0506 H   0  0  0  0  0  0
  -14.2685  -12.7013   -6.9811 H   0  0  0  0  0  0
   -3.8748   -9.2644   -7.5192 H   0  0  0  0  0  0
   -4.3598   -9.6359   -5.8698 H   0  0  0  0  0  0
   -1.5100  -10.3969   -8.3709 H   0  0  0  0  0  0
   -0.6186  -11.2975   -7.1710 H   0  0  0  0  0  0
  -12.9472  -10.6247   -7.1502 H   0  0  0  0  0  0
   -1.8489   -9.3360   -6.1840 H   0  0  0  0  0  0
   -2.3025  -10.8612   -5.4600 H   0  0  0  0  0  0
  1  5  1  0  0  0
  1  7  2  0  0  0
  1 12  1  0  0  0
  1 15  1  0  0  0
  2  4  1  0  0  0
  2  3  1  0  0  0
  2 10  2  0  0  0
  3  6  1  0  0  0
  3 41  1  0  0  0
  4  5  1  0  0  0
  4 20  1  0  0  0
  4 42  1  0  0  0
  6 11  1  0  0  0
  6 13  1  0  0  0
  6 43  1  0  0  0
  8  9  2  0  0  0
  8 23  1  0  0  0
  9 14  1  0  0  0
  9 24  1  0  0  0
 11 19  1  0  0  0
 11 44  1  0  0  0
 11 45  1  0  0  0
 12 46  1  0  0  0
 13 16  1  0  0  0
 13 18  1  0  0  0
 13 47  1  0  0  0
 14 17  1  0  0  0
 15 22  1  0  0  0
 15 48  1  0  0  0
 15 49  1  0  0  0
 16 17  1  0  0  0
 16 50  1  0  0  0
 16 51  1  0  0  0
 17 52  1  0  0  0
 17 53  1  0  0  0
 18 54  1  0  0  0
 19 28  1  0  0  0
 19 29  1  0  0  0
 19 55  1  0  0  0
 20 30  1  0  0  0
 20 56  1  0  0  0
 20 57  1  0  0  0
 21 25  1  0  0  0
 21 26  2  0  0  0
 21 27  1  0  0  0
 22 25  1  0  0  0
 22 58  1  0  0  0
 22 59  1  0  0  0
 23 32  2  0  0  0
 23 60  1  0  0  0
 24 34  2  0  0  0
 24 61  1  0  0  0
 25 62  1  0  0  0
 25 63  1  0  0  0
 26 35  1  0  0  0
 26 64  1  0  0  0
 27 36  2  0  0  0
 27 65  1  0  0  0
 28 37  1  0  0  0
 28 66  1  0  0  0
 28 67  1  0  0  0
 29 38  1  0  0  0
 29 68  1  0  0  0
 29 69  1  0  0  0
 30 31  1  0  0  0
 30 70  1  0  0  0
 30 71  1  0  0  0
 31 33  1  0  0  0
 31 72  1  0  0  0
 31 73  1  0  0  0
 32 34  1  0  0  0
 32 74  1  0  0  0
 33 75  1  0  0  0
 33 76  1  0  0  0
 33 77  1  0  0  0
 34 78  1  0  0  0
 35 39  2  0  0  0
 35 79  1  0  0  0
 36 39  1  0  0  0
 36 80  1  0  0  0
 37 40  1  0  0  0
 37 81  1  0  0  0
 37 82  1  0  0  0
 38 40  1  0  0  0
 38 83  1  0  0  0
 38 84  1  0  0  0
 39 85  1  0  0  0
 40 86  1  0  0  0
 40 87  1  0  0  0
M  END
> <s_m_entry_id>
26207

> <s_m_entry_name>
dock_pv.31

> <s_m_Source_Path>
/home/csk/Desktop/cluster/DUD-E-result/reni

> <s_m_Source_File>
dock_pv.maegz

> <i_m_Source_File_Index>
31

> <chembl_id>
CHEMBL148073

> <chembl_pref_name>
None

> <i_lp_mmshare_version>
53161

> <r_lp_tautomer_probability>
1

> <s_lp_Force_Field>
OPLS_2005

> <r_lp_Energy>
11.770065

> <b_lp_Chiralities_Consistent>
1

> <s_lp_Variant>
CHEMBL286_lig577-1

> <s_i_glide_gridfile>
glide-grid_3g6z

> <i_i_glide_lignum>
1622

> <i_i_glide_rotatable_bonds>
21

> <r_i_docking_score>
-8.64728133133291

> <r_i_glide_ligand_efficiency>
-0.216182033283323

> <r_i_glide_ligand_efficiency_sa>
-0.739332153127184

> <r_i_glide_ligand_efficiency_ln>
-1.84421062984376

> <r_i_glide_gscore>
-8.64728133133291

> <r_i_glide_lipo>
-4.44894426054286

> <r_i_glide_hbond>
-0.22070382850736

> <r_i_glide_metal>
0

> <r_i_glide_rewards>
-0.620061664808257

> <r_i_glide_evdw>
-57.5019493103027

> <r_i_glide_ecoul>
-8.48733997344971

> <r_i_glide_erotb>
0.791610234471935

> <r_i_glide_esite>
-0.000983350413777161

> <r_i_glide_emodel>
-94.2280904368419

> <r_i_glide_energy>
-65.9892892837524

> <r_i_glide_einternal>
17.0894966125488

> <i_i_glide_confnum>
2

> <i_i_glide_posenum>
14

> <r_i_glide_eff_state_penalty>
0

> <s_user_duplicate_titles>
CHEMBL286_lig577,243286

> <i_f3d_flags>
0

> <s_m_subgroup_title>
dock_pv

> <s_m_subgroupid>
dock_pv

> <b_m_subgroup_collapsed>
1

$$$$
CHEMBL286_lig1541
                    3D
 Schrodinger Suite 2021-1.
 83 87  0  0  1  0            999 V2000
  -10.6430  -21.2181  -10.9628 N   0  0  0  0  0  0
   -4.3452  -21.2135  -12.3953 C   0  0  0  0  0  0
  -11.9954  -21.2781  -11.2210 C   0  0  0  0  0  0
   -3.7999  -19.9475  -12.1117 N   0  0  0  0  0  0
   -9.7222  -22.3826  -11.1926 C   0  0  2  0  0  0
   -5.6816  -21.5012  -12.0706 C   0  0  0  0  0  0
  -10.0094  -20.0087  -10.5538 C   0  0  0  0  0  0
  -11.8287  -23.7299  -10.9751 N   0  0  1  0  0  0
   -3.5317  -22.2467  -12.9233 C   0  0  0  0  0  0
  -10.5996  -12.8606   -8.3332 C   0  0  0  0  0  0
  -12.7800  -20.3336  -11.0974 O   0  0  0  0  0  0
   -8.5867  -22.1641  -12.2193 C   0  0  0  0  0  0
  -11.4623  -13.9773   -8.3125 C   0  0  0  0  0  0
   -6.2354  -22.7704  -12.2829 C   0  0  0  0  0  0
   -9.0687  -20.0302   -9.5155 C   0  0  0  0  0  0
  -10.2396  -18.8009  -11.2259 C   0  0  0  0  0  0
   -4.0837  -23.5206  -13.0934 C   0  0  0  0  0  0
   -7.5395  -23.1082  -11.9755 O   0  0  0  0  0  0
  -12.5295  -22.6590  -11.6815 C   0  0  0  0  0  0
  -10.4325  -23.7535  -11.3769 C   0  0  0  0  0  0
   -8.5513  -17.6969   -9.8994 C   0  0  0  0  0  0
   -5.4140  -23.7798  -12.7751 C   0  0  0  0  0  0
   -9.5093  -17.6614  -10.9084 C   0  0  0  0  0  0
   -8.3407  -18.8884   -9.1946 C   0  0  0  0  0  0
   -2.4346  -19.6194  -12.5583 C   0  0  0  0  0  0
   -4.5976  -18.7167  -11.9713 C   0  0  0  0  0  0
  -10.9708  -15.2057   -8.7182 O   0  0  0  0  0  0
   -6.2315  -15.0724   -8.6895 C   0  0  0  0  0  0
   -7.8646  -16.5244   -9.6683 O   0  0  0  0  0  0
   -9.1431  -12.9263   -8.8075 C   0  0  0  0  0  0
   -5.8691  -18.9684  -14.0210 O   0  0  0  0  0  0
   -1.5030  -20.8371  -12.5087 C   0  0  0  0  0  0
   -8.4676  -14.1110   -8.4213 O   0  0  0  0  0  0
   -2.0902  -21.9754  -13.3441 C   0  0  0  0  0  0
  -11.0830  -11.6075   -7.9308 C   0  0  0  0  0  0
   -6.8432  -16.4810   -8.6769 C   0  0  0  0  0  0
   -7.1001  -13.9803   -8.0406 C   0  0  0  0  0  0
  -12.7931  -13.7954   -7.8885 C   0  0  0  0  0  0
   -5.0371  -18.0814  -13.3070 C   0  0  0  0  0  0
  -11.7831  -16.3682   -8.5633 C   0  0  0  0  0  0
  -12.4012  -11.4486   -7.5164 C   0  0  0  0  0  0
  -13.2578  -12.5428   -7.4954 C   0  0  0  0  0  0
   -9.2415  -22.4937  -10.2230 H   0  0  0  0  0  0
   -6.2871  -20.7301  -11.6282 H   0  0  0  0  0  0
  -11.9454  -23.6626   -9.9746 H   0  0  0  0  0  0
   -8.9797  -22.3168  -13.2209 H   0  0  0  0  0  0
   -8.2522  -21.1295  -12.1959 H   0  0  0  0  0  0
   -8.8733  -20.9305   -8.9531 H   0  0  0  0  0  0
  -10.9518  -18.7446  -12.0347 H   0  0  0  0  0  0
   -3.4749  -24.3179  -13.4948 H   0  0  0  0  0  0
  -13.6005  -22.7160  -11.4854 H   0  0  0  0  0  0
  -12.3970  -22.7451  -12.7617 H   0  0  0  0  0  0
   -9.8802  -24.5265  -10.8413 H   0  0  0  0  0  0
  -10.3965  -24.0402  -12.4303 H   0  0  0  0  0  0
   -5.8186  -24.7702  -12.9257 H   0  0  0  0  0  0
   -9.6777  -16.7442  -11.4550 H   0  0  0  0  0  0
   -7.6074  -18.9492   -8.4073 H   0  0  0  0  0  0
   -2.5361  -19.3679  -13.6164 H   0  0  0  0  0  0
   -2.0254  -18.7111  -12.1139 H   0  0  0  0  0  0
   -5.4339  -18.7997  -11.2775 H   0  0  0  0  0  0
   -3.9743  -17.9792  -11.4623 H   0  0  0  0  0  0
   -6.0152  -14.7932   -9.7221 H   0  0  0  0  0  0
   -5.2667  -15.0964   -8.1822 H   0  0  0  0  0  0
   -9.1098  -12.8632   -9.8940 H   0  0  0  0  0  0
   -8.6141  -12.0567   -8.4170 H   0  0  0  0  0  0
   -6.3788  -18.4638  -14.6793 H   0  0  0  0  0  0
   -0.5077  -20.5691  -12.8648 H   0  0  0  0  0  0
   -1.3759  -21.1556  -11.4728 H   0  0  0  0  0  0
   -1.4697  -22.8632  -13.2409 H   0  0  0  0  0  0
   -2.0725  -21.7026  -14.4014 H   0  0  0  0  0  0
  -10.4402  -10.7385   -7.9501 H   0  0  0  0  0  0
   -6.0701  -17.2125   -8.9177 H   0  0  0  0  0  0
   -7.2407  -16.7190   -7.6883 H   0  0  0  0  0  0
   -6.6717  -13.0092   -8.2977 H   0  0  0  0  0  0
   -7.0557  -14.0544   -6.9541 H   0  0  0  0  0  0
  -13.4914  -14.6172   -7.8617 H   0  0  0  0  0  0
   -5.5955  -17.1652  -13.1103 H   0  0  0  0  0  0
   -4.1854  -17.7888  -13.9222 H   0  0  0  0  0  0
  -11.2092  -17.2582   -8.8112 H   0  0  0  0  0  0
  -12.1197  -16.4897   -7.5324 H   0  0  0  0  0  0
  -12.6531  -16.3419   -9.2206 H   0  0  0  0  0  0
  -12.7597  -10.4725   -7.2212 H   0  0  0  0  0  0
  -14.2825  -12.4200   -7.1766 H   0  0  0  0  0  0
  1  3  1  0  0  0
  1  5  1  0  0  0
  1  7  1  0  0  0
  2  6  2  0  0  0
  2  4  1  0  0  0
  2  9  1  0  0  0
  3 11  2  0  0  0
  3 19  1  0  0  0
  4 25  1  0  0  0
  4 26  1  0  0  0
  5 12  1  0  0  0
  5 20  1  0  0  0
  5 43  1  0  0  0
  6 14  1  0  0  0
  6 44  1  0  0  0
  7 15  2  0  0  0
  7 16  1  0  0  0
  8 20  1  0  0  0
  8 19  1  0  0  0
  8 45  1  0  0  0
  9 17  2  0  0  0
  9 34  1  0  0  0
 10 30  1  0  0  0
 10 13  2  0  0  0
 10 35  1  0  0  0
 12 18  1  0  0  0
 12 46  1  0  0  0
 12 47  1  0  0  0
 13 27  1  0  0  0
 13 38  1  0  0  0
 14 18  1  0  0  0
 14 22  2  0  0  0
 15 24  1  0  0  0
 15 48  1  0  0  0
 16 23  2  0  0  0
 16 49  1  0  0  0
 17 22  1  0  0  0
 17 50  1  0  0  0
 19 51  1  0  0  0
 19 52  1  0  0  0
 20 53  1  0  0  0
 20 54  1  0  0  0
 21 23  1  0  0  0
 21 29  1  0  0  0
 21 24  2  0  0  0
 22 55  1  0  0  0
 23 56  1  0  0  0
 24 57  1  0  0  0
 25 32  1  0  0  0
 25 58  1  0  0  0
 25 59  1  0  0  0
 26 39  1  0  0  0
 26 60  1  0  0  0
 26 61  1  0  0  0
 27 40  1  0  0  0
 28 36  1  0  0  0
 28 37  1  0  0  0
 28 62  1  0  0  0
 28 63  1  0  0  0
 29 36  1  0  0  0
 30 33  1  0  0  0
 30 64  1  0  0  0
 30 65  1  0  0  0
 31 39  1  0  0  0
 31 66  1  0  0  0
 32 34  1  0  0  0
 32 67  1  0  0  0
 32 68  1  0  0  0
 33 37  1  0  0  0
 34 69  1  0  0  0
 34 70  1  0  0  0
 35 41  2  0  0  0
 35 71  1  0  0  0
 36 72  1  0  0  0
 36 73  1  0  0  0
 37 74  1  0  0  0
 37 75  1  0  0  0
 38 42  2  0  0  0
 38 76  1  0  0  0
 39 77  1  0  0  0
 39 78  1  0  0  0
 40 79  1  0  0  0
 40 80  1  0  0  0
 40 81  1  0  0  0
 41 42  1  0  0  0
 41 82  1  0  0  0
 42 83  1  0  0  0
M  END
> <s_m_entry_id>
26208

> <s_m_entry_name>
dock_pv.32

> <s_m_Source_Path>
/home/csk/Desktop/cluster/DUD-E-result/reni

> <s_m_Source_File>
dock_pv.maegz

> <i_m_Source_File_Index>
32

> <chembl_id>
CHEMBL383181

> <chembl_pref_name>
None

> <i_lp_mmshare_version>
53161

> <r_lp_tautomer_probability>
1

> <s_lp_Force_Field>
OPLS_2005

> <r_lp_Energy>
68.326935

> <b_lp_Chiralities_Consistent>
1

> <s_lp_Variant>
CHEMBL286_lig1541-1

> <s_i_glide_gridfile>
glide-grid_3g6z

> <i_i_glide_lignum>
5245

> <i_i_glide_rotatable_bonds>
15

> <r_i_docking_score>
-8.62900936767199

> <r_i_glide_ligand_efficiency>
-0.20545260399219

> <r_i_glide_ligand_efficiency_sa>
-0.714158724848395

> <r_i_glide_ligand_efficiency_ln>
-1.82136156864366

> <r_i_glide_gscore>
-8.62900936767199

> <r_i_glide_lipo>
-4.22461963874158

> <r_i_glide_hbond>
-0.611594129903801

> <r_i_glide_metal>
0

> <r_i_glide_rewards>
-0.656481028000226

> <r_i_glide_evdw>
-49.693416595459

> <r_i_glide_ecoul>
-9.16714382171631

> <r_i_glide_erotb>
0.723427832004006

> <r_i_glide_esite>
0

> <r_i_glide_emodel>
-84.8119623679204

> <r_i_glide_energy>
-58.8605604171753

> <r_i_glide_einternal>
10.3804769515991

> <i_i_glide_confnum>
40

> <i_i_glide_posenum>
180

> <r_i_glide_eff_state_penalty>
0

> <s_user_duplicate_titles>
CHEMBL286_lig1541,325296

> <i_f3d_flags>
0

> <s_m_subgroup_title>
dock_pv

> <s_m_subgroupid>
dock_pv

> <b_m_subgroup_collapsed>
1

$$$$
CHEMBL286_lig666
                    3D
 Schrodinger Suite 2021-1.
 95 98  0  0  1  0            999 V2000
   -7.6646  -15.4130   -8.9807 C   0  0  0  0  0  0
   -5.3826  -12.8574   -8.0194 C   0  0  0  0  0  0
   -1.8403  -14.0827   -8.1921 C   0  0  0  0  0  0
   -5.7620  -13.8508   -8.8409 N   0  0  0  0  0  0
   -8.7880  -15.7752   -9.6144 N   0  0  0  0  0  0
   -7.1027  -14.0389   -9.3894 C   0  0  1  0  0  0
   -3.0373  -13.5357   -8.6246 N   0  0  0  0  0  0
   -6.2672  -16.6889  -13.1654 N   0  0  0  0  0  0
   -3.8658  -12.6829   -7.7420 C   0  0  1  0  0  0
   -9.5139  -17.0404   -9.4611 C   0  0  2  0  0  0
   -6.5051  -15.0352  -11.7228 C   0  0  0  0  0  0
   -7.0157  -13.8563  -10.9307 C   0  0  0  0  0  0
   -5.3402  -15.7379  -11.3911 N   0  0  0  0  0  0
   -5.2624  -16.7106  -12.2908 C   0  0  0  0  0  0
   -1.2587  -14.7017   -9.2474 O   0  0  0  0  0  0
   -7.0816  -15.6267  -12.8209 C   0  0  0  0  0  0
   -9.0774  -18.0628  -10.5648 C   0  0  2  0  0  0
  -12.9456  -20.6022  -11.2429 N   0  0  0  0  0  0
  -11.6091  -20.7275  -11.0383 C   0  0  0  0  0  0
   -1.3697  -14.0090   -7.0569 O   0  0  0  0  0  0
   -7.0875  -16.1091   -8.1471 O   0  0  0  0  0  0
   -6.1801  -12.0700   -7.5028 O   0  0  0  0  0  0
   -3.4814  -11.1814   -7.9426 C   0  0  0  0  0  0
  -11.0459  -16.7479   -9.4400 C   0  0  0  0  0  0
   -9.6126  -19.5006  -10.4166 C   0  0  0  0  0  0
  -11.0126  -19.5397  -10.6695 O   0  0  0  0  0  0
    0.0828  -15.2149   -9.2696 C   0  0  0  0  0  0
   -2.0230  -10.7987   -7.7371 C   0  0  0  0  0  0
   -7.6617  -18.1879  -10.5859 O   0  0  0  0  0  0
  -11.5055  -15.6331   -8.4538 C   0  0  0  0  0  0
  -13.6176  -21.6675  -11.7439 C   0  0  0  0  0  0
  -10.9349  -21.9470  -11.2410 C   0  0  0  0  0  0
    1.1120  -14.0816   -9.0413 C   0  0  0  0  0  0
    0.2506  -15.7671  -10.6982 C   0  0  0  0  0  0
    0.2763  -16.3574   -8.2453 C   0  0  0  0  0  0
   -1.5441  -10.5127   -6.4413 C   0  0  0  0  0  0
   -1.1059  -10.8633   -8.8095 C   0  0  0  0  0  0
  -11.5595  -14.2377   -9.1156 C   0  0  0  0  0  0
  -12.9020  -15.9031   -7.8607 C   0  0  0  0  0  0
  -13.0100  -22.8914  -12.0207 C   0  0  0  0  0  0
  -11.6509  -23.0351  -11.7446 C   0  0  0  0  0  0
    0.2351  -10.5739   -8.5937 C   0  0  0  0  0  0
   -0.2002  -10.2229   -6.2464 C   0  0  0  0  0  0
  -11.9166  -13.1166   -8.1218 C   0  0  0  0  0  0
  -13.2884  -14.8284   -6.8310 C   0  0  0  0  0  0
    0.6840  -10.2490   -7.3187 C   0  0  0  0  0  0
  -13.2549  -13.4036   -7.4144 C   0  0  0  0  0  0
   -5.0784  -14.5191   -9.1667 H   0  0  0  0  0  0
   -9.1851  -15.1238  -10.2743 H   0  0  0  0  0  0
   -7.7744  -13.2783   -8.9864 H   0  0  0  0  0  0
   -3.3017  -13.6538   -9.5910 H   0  0  0  0  0  0
   -6.4362  -17.3346  -13.9304 H   0  0  0  0  0  0
   -3.7157  -12.9762   -6.7016 H   0  0  0  0  0  0
   -9.2693  -17.4785   -8.4886 H   0  0  0  0  0  0
   -8.0058  -13.6065  -11.3126 H   0  0  0  0  0  0
   -6.3887  -13.0056  -11.2036 H   0  0  0  0  0  0
   -4.4664  -17.4429  -12.3169 H   0  0  0  0  0  0
   -7.9848  -15.3987  -13.3684 H   0  0  0  0  0  0
   -9.3816  -17.6780  -11.5418 H   0  0  0  0  0  0
   -4.0736  -10.5529   -7.2734 H   0  0  0  0  0  0
   -3.7549  -10.8629   -8.9507 H   0  0  0  0  0  0
  -11.3894  -16.5081  -10.4473 H   0  0  0  0  0  0
  -11.5694  -17.6649   -9.1785 H   0  0  0  0  0  0
   -9.0777  -20.1157  -11.1411 H   0  0  0  0  0  0
   -9.3998  -19.9045   -9.4265 H   0  0  0  0  0  0
   -7.2764  -17.3071  -10.6190 H   0  0  0  0  0  0
  -10.8091  -15.6005   -7.6217 H   0  0  0  0  0  0
  -14.6691  -21.5239  -11.9283 H   0  0  0  0  0  0
   -9.8806  -22.0605  -11.0534 H   0  0  0  0  0  0
    1.0087  -13.6267   -8.0546 H   0  0  0  0  0  0
    2.1312  -14.4591   -9.1200 H   0  0  0  0  0  0
    0.9877  -13.2864   -9.7782 H   0  0  0  0  0  0
   -0.4530  -16.5771  -10.8989 H   0  0  0  0  0  0
    0.0719  -14.9907  -11.4434 H   0  0  0  0  0  0
    1.2559  -16.1571  -10.8614 H   0  0  0  0  0  0
   -0.4962  -17.1196   -8.3505 H   0  0  0  0  0  0
    1.2429  -16.8473   -8.3751 H   0  0  0  0  0  0
    0.2346  -15.9984   -7.2176 H   0  0  0  0  0  0
   -2.2270  -10.5021   -5.6039 H   0  0  0  0  0  0
   -1.4427  -11.1327   -9.8009 H   0  0  0  0  0  0
  -10.5924  -14.0072   -9.5513 H   0  0  0  0  0  0
  -12.2673  -14.2554   -9.9478 H   0  0  0  0  0  0
  -13.6372  -15.9675   -8.6554 H   0  0  0  0  0  0
  -12.9216  -16.8774   -7.3774 H   0  0  0  0  0  0
  -13.5788  -23.7145  -12.4308 H   0  0  0  0  0  0
  -11.1493  -23.9736  -11.9331 H   0  0  0  0  0  0
    0.9321  -10.6142   -9.4185 H   0  0  0  0  0  0
    0.1590   -9.9814   -5.2564 H   0  0  0  0  0  0
  -11.1211  -13.0163   -7.3808 H   0  0  0  0  0  0
  -11.9714  -12.1579   -8.6427 H   0  0  0  0  0  0
  -12.5694  -14.8626   -6.0194 H   0  0  0  0  0  0
  -14.2684  -15.0564   -6.4184 H   0  0  0  0  0  0
    1.7291  -10.0304   -7.1573 H   0  0  0  0  0  0
  -13.4214  -12.6740   -6.6221 H   0  0  0  0  0  0
  -14.0732  -13.2658   -8.1180 H   0  0  0  0  0  0
  1  5  1  0  0  0
  1  6  1  0  0  0
  1 21  2  0  0  0
  2  4  1  0  0  0
  2  9  1  0  0  0
  2 22  2  0  0  0
  3  7  1  0  0  0
  3 15  1  0  0  0
  3 20  2  0  0  0
  4  6  1  0  0  0
  4 48  1  0  0  0
  5 10  1  0  0  0
  5 49  1  0  0  0
  6 12  1  0  0  0
  6 50  1  0  0  0
  7  9  1  0  0  0
  7 51  1  0  0  0
  8 16  1  0  0  0
  8 14  1  0  0  0
  8 52  1  0  0  0
  9 23  1  0  0  0
  9 53  1  0  0  0
 10 17  1  0  0  0
 10 24  1  0  0  0
 10 54  1  0  0  0
 11 12  1  0  0  0
 11 13  1  0  0  0
 11 16  2  0  0  0
 12 55  1  0  0  0
 12 56  1  0  0  0
 13 14  2  0  0  0
 14 57  1  0  0  0
 15 27  1  0  0  0
 16 58  1  0  0  0
 17 25  1  0  0  0
 17 29  1  0  0  0
 17 59  1  0  0  0
 18 19  1  0  0  0
 18 31  2  0  0  0
 19 26  1  0  0  0
 19 32  2  0  0  0
 23 28  1  0  0  0
 23 60  1  0  0  0
 23 61  1  0  0  0
 24 30  1  0  0  0
 24 62  1  0  0  0
 24 63  1  0  0  0
 25 26  1  0  0  0
 25 64  1  0  0  0
 25 65  1  0  0  0
 27 33  1  0  0  0
 27 34  1  0  0  0
 27 35  1  0  0  0
 28 36  1  0  0  0
 28 37  2  0  0  0
 29 66  1  0  0  0
 30 38  1  0  0  0
 30 39  1  0  0  0
 30 67  1  0  0  0
 31 40  1  0  0  0
 31 68  1  0  0  0
 32 41  1  0  0  0
 32 69  1  0  0  0
 33 70  1  0  0  0
 33 71  1  0  0  0
 33 72  1  0  0  0
 34 73  1  0  0  0
 34 74  1  0  0  0
 34 75  1  0  0  0
 35 76  1  0  0  0
 35 77  1  0  0  0
 35 78  1  0  0  0
 36 43  2  0  0  0
 36 79  1  0  0  0
 37 42  1  0  0  0
 37 80  1  0  0  0
 38 44  1  0  0  0
 38 81  1  0  0  0
 38 82  1  0  0  0
 39 45  1  0  0  0
 39 83  1  0  0  0
 39 84  1  0  0  0
 40 41  2  0  0  0
 40 85  1  0  0  0
 41 86  1  0  0  0
 42 46  2  0  0  0
 42 87  1  0  0  0
 43 46  1  0  0  0
 43 88  1  0  0  0
 44 47  1  0  0  0
 44 89  1  0  0  0
 44 90  1  0  0  0
 45 47  1  0  0  0
 45 91  1  0  0  0
 45 92  1  0  0  0
 46 93  1  0  0  0
 47 94  1  0  0  0
 47 95  1  0  0  0
M  END
> <s_m_entry_id>
26209

> <s_m_entry_name>
dock_pv.33

> <s_m_Source_Path>
/home/csk/Desktop/cluster/DUD-E-result/reni

> <s_m_Source_File>
dock_pv.maegz

> <i_m_Source_File_Index>
33

> <chembl_id>
CHEMBL327068

> <chembl_pref_name>
None

> <i_lp_mmshare_version>
53161

> <r_lp_tautomer_probability>
0.499999999999999

> <s_lp_Force_Field>
OPLS_2005

> <r_lp_Energy>
21.428098

> <b_lp_Chiralities_Consistent>
1

> <s_lp_Variant>
CHEMBL286_lig666-1

> <s_i_glide_gridfile>
glide-grid_3g6z

> <i_i_glide_lignum>
1890

> <i_i_glide_rotatable_bonds>
21

> <r_i_docking_score>
-8.5804412472528

> <r_i_glide_ligand_efficiency>
-0.182562579728783

> <r_i_glide_ligand_efficiency_sa>
-0.658836598137093

> <r_i_glide_ligand_efficiency_ln>
-1.76910930385449

> <r_i_glide_gscore>
-8.5804412472528

> <r_i_glide_lipo>
-4.61749083362936

> <r_i_glide_hbond>
-0.10421684347395

> <r_i_glide_metal>
0

> <r_i_glide_rewards>
-1.10073623270637

> <r_i_glide_evdw>
-55.5080299377441

> <r_i_glide_ecoul>
-3.57664489746094

> <r_i_glide_erotb>
0.606392352025957

> <r_i_glide_esite>
-0.052491457962732

> <r_i_glide_emodel>
-81.2392683983764

> <r_i_glide_energy>
-59.0846748352051

> <r_i_glide_einternal>
18.8162174224854

> <i_i_glide_confnum>
11

> <i_i_glide_posenum>
34

> <r_i_glide_eff_state_penalty>
0

> <s_user_duplicate_titles>
CHEMBL286_lig666

> <i_f3d_flags>
0

> <s_m_subgroup_title>
dock_pv

> <s_m_subgroupid>
dock_pv

> <b_m_subgroup_collapsed>
1

$$$$
CHEMBL286_lig643
                    3D
 Schrodinger Suite 2021-1.
 97 99  0  0  1  0            999 V2000
   -3.0294  -14.7687   -8.8604 C   0  0  0  0  0  0
   -4.7387  -16.6966  -10.5745 C   0  0  0  0  0  0
   -4.8084  -19.9752  -12.4354 C   0  0  0  0  0  0
   -3.5263  -16.9623  -10.0451 N   0  0  0  0  0  0
   -3.5777  -14.2535   -7.7376 N   0  0  0  0  0  0
   -2.8818  -16.3062   -8.8958 C   0  0  1  0  0  0
   -6.5123  -11.6652   -7.4907 C   0  0  0  0  0  0
   -8.0480  -11.7335   -7.6210 C   0  0  0  0  0  0
   -4.8254  -19.0268  -11.4293 N   0  0  0  0  0  0
    0.5310  -16.4630  -12.0206 N   0  0  0  0  0  0
   -5.2493  -17.6380  -11.7019 C   0  0  1  0  0  0
   -4.1957  -12.9184   -7.5415 C   0  0  2  0  0  0
   -0.6363  -16.8439  -10.1054 C   0  0  0  0  0  0
   -1.4033  -16.7587   -8.8003 C   0  0  0  0  0  0
   -0.2598  -18.0495  -10.6794 N   0  0  0  0  0  0
    0.4180  -17.7655  -11.7947 C   0  0  0  0  0  0
   -5.7297  -12.9654   -7.8409 C   0  0  2  0  0  0
   -4.4482  -21.1679  -11.8977 O   0  0  0  0  0  0
   -0.1414  -15.8695  -10.9467 C   0  0  0  0  0  0
   -5.0690  -19.7690  -13.6209 O   0  0  0  0  0  0
   -2.6912  -14.1200   -9.8480 O   0  0  0  0  0  0
   -5.4449  -15.7649  -10.1961 O   0  0  0  0  0  0
   -6.8055  -17.5874  -11.9024 C   0  0  0  0  0  0
   -3.4757  -11.7335   -8.2594 C   0  0  0  0  0  0
   -8.6242  -12.7465   -8.0211 O   0  0  0  0  0  0
   -8.6690  -10.5934   -7.2028 O   0  0  0  0  0  0
   -4.1182  -22.3594  -12.6346 C   0  0  0  0  0  0
   -7.6845  -17.7826  -10.6704 C   0  0  0  0  0  0
   -5.9365  -13.2927   -9.2005 O   0  0  0  0  0  0
   -1.9884  -11.5193   -7.8751 C   0  0  0  0  0  0
  -10.0851  -10.4642   -7.0245 C   0  0  0  0  0  0
   -5.1812  -22.7556  -13.6909 C   0  0  0  0  0  0
   -4.0707  -23.4576  -11.5555 C   0  0  0  0  0  0
   -2.7178  -22.2128  -13.2744 C   0  0  0  0  0  0
   -8.2971  -16.6664  -10.0618 C   0  0  0  0  0  0
   -7.7877  -19.0452  -10.0482 C   0  0  0  0  0  0
   -1.1650  -10.9995   -9.0771 C   0  0  0  0  0  0
   -1.8424  -10.5255   -6.6960 C   0  0  0  0  0  0
  -10.9002  -10.5114   -8.3294 C   0  0  0  0  0  0
  -10.3323   -9.1447   -6.2771 C   0  0  0  0  0  0
   -8.4817  -19.1729   -8.8526 C   0  0  0  0  0  0
   -8.9907  -16.8166   -8.8712 C   0  0  0  0  0  0
    0.3233  -10.8234   -8.7155 C   0  0  0  0  0  0
   -0.3663  -10.3487   -6.2876 C   0  0  0  0  0  0
    0.5050   -9.9073   -7.4848 C   0  0  0  0  0  0
   -9.0692  -18.0615   -8.2610 C   0  0  0  0  0  0
   -2.9821  -17.6964  -10.4709 H   0  0  0  0  0  0
   -3.7693  -14.9127   -6.9973 H   0  0  0  0  0  0
   -3.4009  -16.6932   -8.0199 H   0  0  0  0  0  0
   -6.2759  -11.3698   -6.4689 H   0  0  0  0  0  0
   -6.1648  -10.8610   -8.1310 H   0  0  0  0  0  0
   -4.7355  -19.3323  -10.4727 H   0  0  0  0  0  0
   -0.4320  -18.9772  -10.3173 H   0  0  0  0  0  0
   -4.7788  -17.2928  -12.6270 H   0  0  0  0  0  0
   -4.1044  -12.7122   -6.4743 H   0  0  0  0  0  0
   -0.8527  -16.0937   -8.1335 H   0  0  0  0  0  0
   -1.3665  -17.7379   -8.3223 H   0  0  0  0  0  0
    0.8411  -18.5189  -12.4435 H   0  0  0  0  0  0
   -6.1593  -13.7833   -7.2569 H   0  0  0  0  0  0
   -0.2159  -14.7936  -10.8617 H   0  0  0  0  0  0
   -7.1108  -18.3394  -12.6310 H   0  0  0  0  0  0
   -7.0751  -16.6404  -12.3735 H   0  0  0  0  0  0
   -3.5771  -11.8626   -9.3369 H   0  0  0  0  0  0
   -4.0089  -10.8033   -8.0669 H   0  0  0  0  0  0
   -5.5740  -14.1715   -9.3979 H   0  0  0  0  0  0
   -1.5425  -12.4685   -7.5734 H   0  0  0  0  0  0
  -10.4356  -11.2635   -6.3764 H   0  0  0  0  0  0
   -5.1832  -22.0894  -14.5528 H   0  0  0  0  0  0
   -5.0060  -23.7615  -14.0743 H   0  0  0  0  0  0
   -6.1862  -22.7385  -13.2676 H   0  0  0  0  0  0
   -3.3259  -23.2358  -10.7893 H   0  0  0  0  0  0
   -5.0316  -23.5597  -11.0491 H   0  0  0  0  0  0
   -3.8234  -24.4290  -11.9848 H   0  0  0  0  0  0
   -1.9609  -21.9934  -12.5200 H   0  0  0  0  0  0
   -2.4171  -23.1299  -13.7816 H   0  0  0  0  0  0
   -2.6693  -21.4100  -14.0085 H   0  0  0  0  0  0
   -8.2097  -15.6857  -10.5076 H   0  0  0  0  0  0
   -7.3192  -19.9115  -10.4929 H   0  0  0  0  0  0
   -1.2627  -11.6857   -9.9205 H   0  0  0  0  0  0
   -1.5847  -10.0631   -9.4407 H   0  0  0  0  0  0
   -2.2771   -9.5602   -6.9636 H   0  0  0  0  0  0
   -2.4320  -10.8630   -5.8432 H   0  0  0  0  0  0
  -11.9679  -10.4638   -8.1146 H   0  0  0  0  0  0
  -10.6690   -9.6646   -8.9729 H   0  0  0  0  0  0
  -10.7300  -11.4341   -8.8824 H   0  0  0  0  0  0
  -11.3976   -8.9691   -6.1281 H   0  0  0  0  0  0
   -9.8692   -9.1591   -5.2915 H   0  0  0  0  0  0
   -9.9329   -8.2925   -6.8287 H   0  0  0  0  0  0
   -8.5591  -20.1407   -8.3795 H   0  0  0  0  0  0
   -9.4561  -15.9538   -8.4210 H   0  0  0  0  0  0
    0.7645  -11.8002   -8.5111 H   0  0  0  0  0  0
    0.8669  -10.4179   -9.5697 H   0  0  0  0  0  0
    0.0141  -11.2890   -5.8854 H   0  0  0  0  0  0
   -0.2897   -9.6192   -5.4804 H   0  0  0  0  0  0
    1.5556   -9.8834   -7.1905 H   0  0  0  0  0  0
    0.2439   -8.8835   -7.7573 H   0  0  0  0  0  0
   -9.6015  -18.1661   -7.3274 H   0  0  0  0  0  0
  1  5  1  0  0  0
  1  6  1  0  0  0
  1 21  2  0  0  0
  2  4  1  0  0  0
  2 11  1  0  0  0
  2 22  2  0  0  0
  3  9  1  0  0  0
  3 18  1  0  0  0
  3 20  2  0  0  0
  4  6  1  0  0  0
  4 47  1  0  0  0
  5 12  1  0  0  0
  5 48  1  0  0  0
  6 14  1  0  0  0
  6 49  1  0  0  0
  7 17  1  0  0  0
  7  8  1  0  0  0
  7 50  1  0  0  0
  7 51  1  0  0  0
  8 25  2  0  0  0
  8 26  1  0  0  0
  9 11  1  0  0  0
  9 52  1  0  0  0
 10 16  2  0  0  0
 10 19  1  0  0  0
 11 23  1  0  0  0
 11 54  1  0  0  0
 12 17  1  0  0  0
 12 24  1  0  0  0
 12 55  1  0  0  0
 13 19  2  0  0  0
 13 14  1  0  0  0
 13 15  1  0  0  0
 14 56  1  0  0  0
 14 57  1  0  0  0
 15 53  1  0  0  0
 15 16  1  0  0  0
 16 58  1  0  0  0
 17 29  1  0  0  0
 17 59  1  0  0  0
 18 27  1  0  0  0
 19 60  1  0  0  0
 23 28  1  0  0  0
 23 61  1  0  0  0
 23 62  1  0  0  0
 24 30  1  0  0  0
 24 63  1  0  0  0
 24 64  1  0  0  0
 26 31  1  0  0  0
 27 32  1  0  0  0
 27 33  1  0  0  0
 27 34  1  0  0  0
 28 35  2  0  0  0
 28 36  1  0  0  0
 29 65  1  0  0  0
 30 37  1  0  0  0
 30 38  1  0  0  0
 30 66  1  0  0  0
 31 39  1  0  0  0
 31 40  1  0  0  0
 31 67  1  0  0  0
 32 68  1  0  0  0
 32 69  1  0  0  0
 32 70  1  0  0  0
 33 71  1  0  0  0
 33 72  1  0  0  0
 33 73  1  0  0  0
 34 74  1  0  0  0
 34 75  1  0  0  0
 34 76  1  0  0  0
 35 42  1  0  0  0
 35 77  1  0  0  0
 36 41  2  0  0  0
 36 78  1  0  0  0
 37 43  1  0  0  0
 37 79  1  0  0  0
 37 80  1  0  0  0
 38 44  1  0  0  0
 38 81  1  0  0  0
 38 82  1  0  0  0
 39 83  1  0  0  0
 39 84  1  0  0  0
 39 85  1  0  0  0
 40 86  1  0  0  0
 40 87  1  0  0  0
 40 88  1  0  0  0
 41 46  1  0  0  0
 41 89  1  0  0  0
 42 46  2  0  0  0
 42 90  1  0  0  0
 43 45  1  0  0  0
 43 91  1  0  0  0
 43 92  1  0  0  0
 44 45  1  0  0  0
 44 93  1  0  0  0
 44 94  1  0  0  0
 45 95  1  0  0  0
 45 96  1  0  0  0
 46 97  1  0  0  0
M  END
> <s_m_entry_id>
26210

> <s_m_entry_name>
dock_pv.34

> <s_m_Source_Path>
/home/csk/Desktop/cluster/DUD-E-result/reni

> <s_m_Source_File>
dock_pv.maegz

> <i_m_Source_File_Index>
34

> <chembl_id>
CHEMBL119383

> <chembl_pref_name>
None

> <i_lp_mmshare_version>
53161

> <r_lp_tautomer_probability>
0.499999999999999

> <s_lp_Force_Field>
OPLS_2005

> <r_lp_Energy>
12.790439

> <b_lp_Chiralities_Consistent>
1

> <s_lp_Variant>
CHEMBL286_lig643-5

> <s_i_glide_gridfile>
glide-grid_3g6z

> <i_i_glide_lignum>
1823

> <i_i_glide_rotatable_bonds>
22

> <r_i_docking_score>
-8.56769009355152

> <r_i_glide_ligand_efficiency>
-0.186254132468511

> <r_i_glide_ligand_efficiency_sa>
-0.667357471957531

> <r_i_glide_ligand_efficiency_ln>
-1.77434797700676

> <r_i_glide_gscore>
-8.56769009355152

> <r_i_glide_lipo>
-3.60161067269462

> <r_i_glide_hbond>
-0.599630697951227

> <r_i_glide_metal>
0

> <r_i_glide_rewards>
-1.07413584001676

> <r_i_glide_evdw>
-40.1005897521973

> <r_i_glide_ecoul>
-13.0263471603394

> <r_i_glide_erotb>
0.677440541188616

> <r_i_glide_esite>
-0.0107718624167586

> <r_i_glide_emodel>
-73.4471705177003

> <r_i_glide_energy>
-53.1269369125366

> <r_i_glide_einternal>
11.208381652832

> <i_i_glide_confnum>
18

> <i_i_glide_posenum>
27

> <r_i_glide_eff_state_penalty>
0

> <s_user_duplicate_titles>
CHEMBL286_lig643

> <i_f3d_flags>
0

> <s_m_subgroup_title>
dock_pv

> <s_m_subgroupid>
dock_pv

> <b_m_subgroup_collapsed>
1

$$$$
CHEMBL286_lig1967
                    3D
 Schrodinger Suite 2021-1.
 82 86  0  0  1  0            999 V2000
   -7.6410  -20.6042  -12.0805 C   0  0  0  0  0  0
   -6.5653  -21.4522  -12.7819 C   0  0  0  0  0  0
   -5.4525  -20.6317  -13.2629 N   0  0  1  0  0  0
   -4.8673  -19.7488  -12.2448 C   0  0  0  0  0  0
   -5.9317  -18.8652  -11.5275 C   0  0  1  0  0  0
   -7.0758  -19.7532  -10.9164 C   0  0  2  0  0  0
   -5.1921  -18.0182  -10.4396 C   0  0  0  0  0  0
   -5.0936  -16.6523  -10.4908 N   0  0  0  0  0  0
   -6.5214  -20.6904   -9.9931 O   0  0  0  0  0  0
   -8.1657  -18.9134  -10.2140 C   0  0  0  0  0  0
   -9.1893  -18.2717  -10.9275 C   0  0  0  0  0  0
  -10.1110  -17.4660  -10.3414 N   0  0  0  0  0  0
  -10.0328  -17.2736   -8.9936 C   0  0  0  0  0  0
   -9.0712  -17.8938   -8.2077 C   0  0  0  0  0  0
   -8.1398  -18.7182   -8.8253 C   0  0  0  0  0  0
  -10.9405  -16.4544   -8.3591 O   0  0  0  0  0  0
  -12.0116  -15.8975   -9.1107 C   0  0  0  0  0  0
  -12.7399  -14.8594   -8.2447 C   0  0  0  0  0  0
  -12.6699  -13.6097   -8.9201 O   0  0  0  0  0  0
  -12.2290  -12.5486   -8.1719 C   0  0  0  0  0  0
  -13.1584  -11.7269   -7.5306 C   0  0  0  0  0  0
  -12.7195  -10.6133   -6.8204 C   0  0  0  0  0  0
  -11.3625  -10.2866   -6.7624 C   0  0  0  0  0  0
  -10.4373  -11.1061   -7.4053 C   0  0  0  0  0  0
  -10.8609  -12.2464   -8.0871 C   0  0  0  0  0  0
   -9.6711  -13.2628   -8.8207 Cl  0  0  0  0  0  0
  -14.8516  -12.0627   -7.6216 Cl  0  0  0  0  0  0
  -10.8957   -9.0398   -6.0319 C   0  0  0  0  0  0
   -4.6714  -18.6655   -9.5255 O   0  0  0  0  0  0
   -4.1679  -15.9698   -9.5485 C   0  0  0  0  0  0
   -5.4586  -15.8485  -11.6742 C   0  0  0  0  0  0
   -4.6328  -14.6668   -8.8925 C   0  0  0  0  0  0
   -3.9464  -13.4838   -9.1874 C   0  0  0  0  0  0
   -4.2718  -12.2828   -8.5477 C   0  0  0  0  0  0
   -5.3003  -12.2611   -7.6051 C   0  0  0  0  0  0
   -5.9800  -13.4352   -7.2910 C   0  0  0  0  0  0
   -5.6419  -14.6364   -7.9158 C   0  0  0  0  0  0
   -6.8902  -15.7594  -12.1716 C   0  0  0  0  0  0
   -6.2461  -14.5539  -11.5492 C   0  0  0  0  0  0
   -6.4802  -16.0631   -7.4389 Cl  0  0  0  0  0  0
   -3.4929  -11.0197   -8.8685 C   0  0  0  0  0  0
   -2.0485  -11.0633   -8.3190 C   0  0  0  0  0  0
   -1.1304  -10.4625   -9.2215 O   0  0  0  0  0  0
   -0.7816  -11.2708  -10.3350 C   0  0  0  0  0  0
   -8.4214  -21.2623  -11.6972 H   0  0  0  0  0  0
   -8.1671  -20.0039  -12.8209 H   0  0  0  0  0  0
   -6.1788  -22.2115  -12.1010 H   0  0  0  0  0  0
   -7.0101  -21.9859  -13.6204 H   0  0  0  0  0  0
   -4.7471  -21.2632  -13.6190 H   0  0  0  0  0  0
   -4.0828  -19.1319  -12.6878 H   0  0  0  0  0  0
   -4.3862  -20.4136  -11.5239 H   0  0  0  0  0  0
   -6.3625  -18.2011  -12.2695 H   0  0  0  0  0  0
   -5.7680  -20.2540   -9.5778 H   0  0  0  0  0  0
   -9.2702  -18.3486  -12.0022 H   0  0  0  0  0  0
   -9.0425  -17.7264   -7.1416 H   0  0  0  0  0  0
   -7.3834  -19.1829   -8.2180 H   0  0  0  0  0  0
  -11.6387  -15.4262  -10.0226 H   0  0  0  0  0  0
  -12.6701  -16.7082   -9.4174 H   0  0  0  0  0  0
  -13.7896  -15.1339   -8.1236 H   0  0  0  0  0  0
  -12.3150  -14.8242   -7.2368 H   0  0  0  0  0  0
  -13.4488   -9.9760   -6.3450 H   0  0  0  0  0  0
   -9.3845  -10.8631   -7.3677 H   0  0  0  0  0  0
  -11.7268   -8.3690   -5.8058 H   0  0  0  0  0  0
  -10.3875   -9.3086   -5.1044 H   0  0  0  0  0  0
  -10.1908   -8.4798   -6.6500 H   0  0  0  0  0  0
   -3.2169  -15.8062  -10.0561 H   0  0  0  0  0  0
   -3.9123  -16.6163   -8.7083 H   0  0  0  0  0  0
   -4.6670  -15.8573  -12.4217 H   0  0  0  0  0  0
   -3.1459  -13.4983   -9.9135 H   0  0  0  0  0  0
   -5.5626  -11.3437   -7.0978 H   0  0  0  0  0  0
   -6.7570  -13.4187   -6.5419 H   0  0  0  0  0  0
   -7.0655  -15.7822  -13.2480 H   0  0  0  0  0  0
   -7.6866  -16.2424  -11.6129 H   0  0  0  0  0  0
   -6.6329  -14.2242  -10.5852 H   0  0  0  0  0  0
   -5.9557  -13.7162  -12.1854 H   0  0  0  0  0  0
   -4.0102  -10.1387   -8.4884 H   0  0  0  0  0  0
   -3.5068  -10.8982   -9.9505 H   0  0  0  0  0  0
   -1.7218  -12.0782   -8.0752 H   0  0  0  0  0  0
   -2.0109  -10.5148   -7.3776 H   0  0  0  0  0  0
   -0.2693  -10.6582  -11.0696 H   0  0  0  0  0  0
   -1.6419  -11.7097  -10.8397 H   0  0  0  0  0  0
   -0.1177  -12.0795  -10.0230 H   0  0  0  0  0  0
  1  2  1  0  0  0
  1  6  1  0  0  0
  1 45  1  0  0  0
  1 46  1  0  0  0
  2  3  1  0  0  0
  2 47  1  0  0  0
  2 48  1  0  0  0
  3  4  1  0  0  0
  3 49  1  0  0  0
  4  5  1  0  0  0
  4 50  1  0  0  0
  4 51  1  0  0  0
  5  6  1  0  0  0
  5  7  1  0  0  0
  5 52  1  0  0  0
  6  9  1  0  0  0
  6 10  1  0  0  0
  7  8  1  0  0  0
  7 29  2  0  0  0
  8 30  1  0  0  0
  8 31  1  0  0  0
  9 53  1  0  0  0
 10 11  2  0  0  0
 10 15  1  0  0  0
 11 12  1  0  0  0
 11 54  1  0  0  0
 12 13  2  0  0  0
 13 14  1  0  0  0
 13 16  1  0  0  0
 14 15  2  0  0  0
 14 55  1  0  0  0
 15 56  1  0  0  0
 16 17  1  0  0  0
 17 18  1  0  0  0
 17 57  1  0  0  0
 17 58  1  0  0  0
 18 19  1  0  0  0
 18 59  1  0  0  0
 18 60  1  0  0  0
 19 20  1  0  0  0
 20 21  2  0  0  0
 20 25  1  0  0  0
 21 22  1  0  0  0
 21 27  1  0  0  0
 22 23  2  0  0  0
 22 61  1  0  0  0
 23 24  1  0  0  0
 23 28  1  0  0  0
 24 25  2  0  0  0
 24 62  1  0  0  0
 25 26  1  0  0  0
 28 63  1  0  0  0
 28 64  1  0  0  0
 28 65  1  0  0  0
 30 32  1  0  0  0
 30 66  1  0  0  0
 30 67  1  0  0  0
 31 38  1  0  0  0
 31 39  1  0  0  0
 31 68  1  0  0  0
 32 33  2  0  0  0
 32 37  1  0  0  0
 33 34  1  0  0  0
 33 69  1  0  0  0
 34 35  2  0  0  0
 34 41  1  0  0  0
 35 36  1  0  0  0
 35 70  1  0  0  0
 36 37  2  0  0  0
 36 71  1  0  0  0
 37 40  1  0  0  0
 38 39  1  0  0  0
 38 72  1  0  0  0
 38 73  1  0  0  0
 39 74  1  0  0  0
 39 75  1  0  0  0
 41 42  1  0  0  0
 41 76  1  0  0  0
 41 77  1  0  0  0
 42 43  1  0  0  0
 42 78  1  0  0  0
 42 79  1  0  0  0
 43 44  1  0  0  0
 44 80  1  0  0  0
 44 81  1  0  0  0
 44 82  1  0  0  0
M  END
> <s_m_entry_id>
26211

> <s_m_entry_name>
dock_pv.35

> <s_m_Source_Path>
/home/csk/Desktop/cluster/DUD-E-result/reni

> <s_m_Source_File>
dock_pv.maegz

> <i_m_Source_File_Index>
35

> <chembl_id>
CHEMBL1234078

> <chembl_pref_name>
None

> <i_lp_mmshare_version>
53161

> <r_lp_tautomer_probability>
1

> <s_lp_Force_Field>
OPLS_2005

> <r_lp_Energy>
66.976338

> <b_lp_Chiralities_Consistent>
1

> <s_lp_Variant>
CHEMBL286_lig1967-1

> <s_i_glide_gridfile>
glide-grid_3g6z

> <i_i_glide_lignum>
5756

> <i_i_glide_rotatable_bonds>
15

> <r_i_docking_score>
-8.55348724761169

> <r_i_glide_ligand_efficiency>
-0.19439743744572

> <r_i_glide_ligand_efficiency_sa>
-0.686290668812466

> <r_i_glide_ligand_efficiency_ln>
-1.78786542802785

> <r_i_glide_gscore>
-8.55348724761169

> <r_i_glide_lipo>
-5.14166442014494

> <r_i_glide_hbond>
-0.401707869145382

> <r_i_glide_metal>
0

> <r_i_glide_rewards>
0.421570670382938

> <r_i_glide_evdw>
-57.7566909790039

> <r_i_glide_ecoul>
-6.77003335952759

> <r_i_glide_erotb>
0.471653924175033

> <r_i_glide_esite>
0

> <r_i_glide_emodel>
-89.2031881845144

> <r_i_glide_energy>
-64.5267243385315

> <r_i_glide_einternal>
8.96703624725342

> <i_i_glide_confnum>
30

> <i_i_glide_posenum>
265

> <r_i_glide_eff_state_penalty>
0

> <s_user_duplicate_titles>
CHEMBL286_lig1967

> <i_f3d_flags>
0

> <s_m_subgroup_title>
dock_pv

> <s_m_subgroupid>
dock_pv

> <b_m_subgroup_collapsed>
1

$$$$
CHEMBL286_lig670
                    3D
 Schrodinger Suite 2021-1.
101104  0  0  1  0            999 V2000
  -10.0746  -19.3129  -10.7932 C   0  0  0  0  0  0
   -9.2420  -20.4285  -11.0095 N   0  0  0  0  0  0
   -8.8711  -16.1310   -9.2484 C   0  0  0  0  0  0
   -5.2826  -16.7879   -9.2211 C   0  0  0  0  0  0
   -4.0397  -16.3319   -8.9901 N   0  0  0  0  0  0
   -7.6988  -16.6950   -8.8839 N   0  0  0  0  0  0
   -9.4601  -18.3730  -10.0152 O   0  0  0  0  0  0
  -10.0048  -17.0651   -9.7564 C   0  0  1  0  0  0
   -2.8233  -16.5664   -9.7852 C   0  0  1  0  0  0
   -6.4179  -16.1176   -8.4189 C   0  0  2  0  0  0
  -11.2215  -19.1797  -11.2215 O   0  0  0  0  0  0
   -2.3568  -10.4630   -7.8313 N   0  0  0  0  0  0
   -7.8976  -20.5527  -10.4142 C   0  0  0  0  0  0
   -9.7672  -21.6154  -11.7042 C   0  0  0  0  0  0
   -1.6810  -11.2921   -8.6644 C   0  0  0  0  0  0
   -9.0774  -14.9200   -9.2210 O   0  0  0  0  0  0
   -5.5479  -17.7043   -9.9993 O   0  0  0  0  0  0
  -11.2160  -17.1292   -8.7739 C   0  0  0  0  0  0
   -2.3837  -18.0514   -9.8007 C   0  0  0  0  0  0
   -9.8459  -22.7633  -10.6699 C   0  0  0  0  0  0
   -8.0165  -21.6167   -9.3005 C   0  0  0  0  0  0
   -2.8544  -15.8649  -11.1862 C   0  0  2  0  0  0
   -2.5302  -11.7951  -10.1235 S   0  0  0  0  0  0
   -8.5563  -22.9619   -9.8386 C   0  0  0  0  0  0
   -6.4011  -14.5555   -8.4144 C   0  0  0  0  0  0
   -3.1265  -14.3417  -11.1421 C   0  0  0  0  0  0
  -11.8023  -15.8004   -8.3068 C   0  0  0  0  0  0
   -8.6755  -23.9814   -8.8152 N   0  0  0  0  0  0
   -2.0805  -13.5317  -10.3600 C   0  0  0  0  0  0
   -5.3889  -12.0154   -7.6113 S   0  0  0  0  0  0
   -3.8234  -16.4627  -12.0210 O   0  0  0  0  0  0
   -1.0215  -18.3874  -10.4643 C   0  0  0  0  0  0
   -1.7371  -10.0640   -6.6948 C   0  0  0  0  0  0
   -5.2002  -13.8157   -7.7888 C   0  0  0  0  0  0
   -0.3771  -11.7248   -8.4066 C   0  0  0  0  0  0
   -7.0136  -11.8841   -6.8361 C   0  0  0  0  0  0
  -12.2475  -14.8598   -9.2343 C   0  0  0  0  0  0
  -11.8740  -15.5119   -6.9435 C   0  0  0  0  0  0
   -1.1429  -18.8460  -11.9401 C   0  0  0  0  0  0
    0.1382  -17.3780  -10.2289 C   0  0  0  0  0  0
   -0.4410  -10.4563   -6.3552 C   0  0  0  0  0  0
    0.2461  -11.2968   -7.2316 C   0  0  0  0  0  0
  -12.3507  -14.2756   -6.5192 C   0  0  0  0  0  0
  -12.6934  -13.6116   -8.8147 C   0  0  0  0  0  0
    1.4553  -17.7717  -10.9281 C   0  0  0  0  0  0
    0.2063  -19.2502  -12.5648 C   0  0  0  0  0  0
    1.2592  -18.1402  -12.4108 C   0  0  0  0  0  0
  -12.7474  -13.3240   -7.4548 C   0  0  0  0  0  0
   -3.9483  -15.6430   -8.2592 H   0  0  0  0  0  0
   -7.6302  -17.6885   -9.0473 H   0  0  0  0  0  0
  -10.3262  -16.6357  -10.7085 H   0  0  0  0  0  0
   -2.0526  -16.0737   -9.1949 H   0  0  0  0  0  0
   -6.2980  -16.4561   -7.3891 H   0  0  0  0  0  0
   -7.2419  -20.9502  -11.1894 H   0  0  0  0  0  0
   -7.4458  -19.6122  -10.0961 H   0  0  0  0  0  0
  -10.7415  -21.4364  -12.1633 H   0  0  0  0  0  0
   -9.0687  -21.8700  -12.5052 H   0  0  0  0  0  0
  -12.0308  -17.6962   -9.2215 H   0  0  0  0  0  0
  -10.8921  -17.6632   -7.8827 H   0  0  0  0  0  0
   -2.3459  -18.3953   -8.7643 H   0  0  0  0  0  0
   -3.1649  -18.6568  -10.2634 H   0  0  0  0  0  0
  -10.6829  -22.5224  -10.0211 H   0  0  0  0  0  0
  -10.1097  -23.6892  -11.1826 H   0  0  0  0  0  0
   -7.0339  -21.7608   -8.8461 H   0  0  0  0  0  0
   -8.6687  -21.2267   -8.5144 H   0  0  0  0  0  0
   -1.9082  -16.0042  -11.6997 H   0  0  0  0  0  0
   -7.8074  -23.3040  -10.5560 H   0  0  0  0  0  0
   -6.5556  -14.1833   -9.4283 H   0  0  0  0  0  0
   -7.2600  -14.2457   -7.8292 H   0  0  0  0  0  0
   -4.1215  -14.1569  -10.7363 H   0  0  0  0  0  0
   -3.1458  -13.9431  -12.1553 H   0  0  0  0  0  0
   -7.7614  -24.1646   -8.4254 H   0  0  0  0  0  0
   -9.2361  -23.6215   -8.0568 H   0  0  0  0  0  0
   -1.0943  -13.5990  -10.8214 H   0  0  0  0  0  0
   -1.9761  -13.9368   -9.3547 H   0  0  0  0  0  0
   -3.8684  -15.9576  -12.8458 H   0  0  0  0  0  0
   -0.6684  -19.2706   -9.9490 H   0  0  0  0  0  0
   -2.3116   -9.4184   -6.0505 H   0  0  0  0  0  0
   -4.9730  -14.2412   -6.8160 H   0  0  0  0  0  0
   -4.3058  -13.9340   -8.3960 H   0  0  0  0  0  0
    0.1447  -12.3713   -9.0970 H   0  0  0  0  0  0
   -7.1948  -10.8880   -6.4338 H   0  0  0  0  0  0
   -7.8054  -12.0971   -7.5552 H   0  0  0  0  0  0
   -7.0628  -12.6014   -6.0210 H   0  0  0  0  0  0
  -12.2141  -15.0899  -10.2897 H   0  0  0  0  0  0
  -11.5417  -16.2267   -6.2070 H   0  0  0  0  0  0
   -1.8337  -19.6880  -12.0041 H   0  0  0  0  0  0
   -1.6043  -18.0652  -12.5402 H   0  0  0  0  0  0
   -0.1304  -16.3847  -10.5783 H   0  0  0  0  0  0
    0.3046  -17.2508   -9.1588 H   0  0  0  0  0  0
    0.0180  -10.1136   -5.4370 H   0  0  0  0  0  0
    1.2520  -11.6165   -7.0034 H   0  0  0  0  0  0
  -12.4012  -14.0626   -5.4662 H   0  0  0  0  0  0
  -13.0094  -12.8754   -9.5395 H   0  0  0  0  0  0
    1.9041  -18.6193  -10.4126 H   0  0  0  0  0  0
    2.1641  -16.9496  -10.8418 H   0  0  0  0  0  0
    0.5686  -20.1602  -12.0836 H   0  0  0  0  0  0
    0.0730  -19.5065  -13.6170 H   0  0  0  0  0  0
    2.2068  -18.4677  -12.8428 H   0  0  0  0  0  0
    0.9518  -17.2585  -12.9735 H   0  0  0  0  0  0
  -13.1026  -12.3604   -7.1208 H   0  0  0  0  0  0
  1  2  1  0  0  0
  1  7  1  0  0  0
  1 11  2  0  0  0
  2 13  1  0  0  0
  2 14  1  0  0  0
  3  8  1  0  0  0
  3  6  1  0  0  0
  3 16  2  0  0  0
  4 10  1  0  0  0
  4  5  1  0  0  0
  4 17  2  0  0  0
  5  9  1  0  0  0
  5 49  1  0  0  0
  6 10  1  0  0  0
  6 50  1  0  0  0
  7  8  1  0  0  0
  8 18  1  0  0  0
  8 51  1  0  0  0
  9 19  1  0  0  0
  9 22  1  0  0  0
  9 52  1  0  0  0
 10 25  1  0  0  0
 10 53  1  0  0  0
 12 15  2  0  0  0
 12 33  1  0  0  0
 13 21  1  0  0  0
 13 54  1  0  0  0
 13 55  1  0  0  0
 14 20  1  0  0  0
 14 56  1  0  0  0
 14 57  1  0  0  0
 15 23  1  0  0  0
 15 35  1  0  0  0
 18 27  1  0  0  0
 18 58  1  0  0  0
 18 59  1  0  0  0
 19 32  1  0  0  0
 19 60  1  0  0  0
 19 61  1  0  0  0
 20 24  1  0  0  0
 20 62  1  0  0  0
 20 63  1  0  0  0
 21 24  1  0  0  0
 21 64  1  0  0  0
 21 65  1  0  0  0
 22 26  1  0  0  0
 22 31  1  0  0  0
 22 66  1  0  0  0
 23 29  1  0  0  0
 24 28  1  0  0  0
 24 67  1  0  0  0
 25 34  1  0  0  0
 25 68  1  0  0  0
 25 69  1  0  0  0
 26 29  1  0  0  0
 26 70  1  0  0  0
 26 71  1  0  0  0
 27 37  1  0  0  0
 27 38  2  0  0  0
 28 72  1  0  0  0
 28 73  1  0  0  0
 29 74  1  0  0  0
 29 75  1  0  0  0
 30 34  1  0  0  0
 30 36  1  0  0  0
 31 76  1  0  0  0
 32 39  1  0  0  0
 32 40  1  0  0  0
 32 77  1  0  0  0
 33 41  2  0  0  0
 33 78  1  0  0  0
 34 79  1  0  0  0
 34 80  1  0  0  0
 35 42  2  0  0  0
 35 81  1  0  0  0
 36 82  1  0  0  0
 36 83  1  0  0  0
 36 84  1  0  0  0
 37 44  2  0  0  0
 37 85  1  0  0  0
 38 43  1  0  0  0
 38 86  1  0  0  0
 39 46  1  0  0  0
 39 87  1  0  0  0
 39 88  1  0  0  0
 40 45  1  0  0  0
 40 89  1  0  0  0
 40 90  1  0  0  0
 41 42  1  0  0  0
 41 91  1  0  0  0
 42 92  1  0  0  0
 43 48  2  0  0  0
 43 93  1  0  0  0
 44 48  1  0  0  0
 44 94  1  0  0  0
 45 47  1  0  0  0
 45 95  1  0  0  0
 45 96  1  0  0  0
 46 47  1  0  0  0
 46 97  1  0  0  0
 46 98  1  0  0  0
 47 99  1  0  0  0
 47100  1  0  0  0
 48101  1  0  0  0
M  END
> <s_m_entry_id>
26212

> <s_m_entry_name>
dock_pv.36

> <s_m_Source_Path>
/home/csk/Desktop/cluster/DUD-E-result/reni

> <s_m_Source_File>
dock_pv.maegz

> <i_m_Source_File_Index>
36

> <chembl_id>
CHEMBL325822

> <chembl_pref_name>
None

> <i_lp_mmshare_version>
53161

> <r_lp_tautomer_probability>
1

> <s_lp_Force_Field>
OPLS_2005

> <r_lp_Energy>
36.729952

> <b_lp_Chiralities_Consistent>
1

> <s_lp_Variant>
CHEMBL286_lig670-1

> <s_i_glide_gridfile>
glide-grid_3g6z

> <i_i_glide_lignum>
1903

> <i_i_glide_rotatable_bonds>
22

> <r_i_docking_score>
-8.51689522597651

> <r_i_glide_ligand_efficiency>
-0.177435317207844

> <r_i_glide_ligand_efficiency_sa>
-0.644842736756047

> <r_i_glide_ligand_efficiency_ln>
-1.74841793777448

> <r_i_glide_gscore>
-8.51689522597651

> <r_i_glide_lipo>
-4.44321991639998

> <r_i_glide_hbond>
0

> <r_i_glide_metal>
0

> <r_i_glide_rewards>
-0.933087503883718

> <r_i_glide_evdw>
-55.1181106567383

> <r_i_glide_ecoul>
-6.35671854019165

> <r_i_glide_erotb>
0.568825508172851

> <r_i_glide_esite>
0

> <r_i_glide_emodel>
-84.2388709228494

> <r_i_glide_energy>
-61.4748291969299

> <r_i_glide_einternal>
15.5198373794556

> <i_i_glide_confnum>
4

> <i_i_glide_posenum>
133

> <r_i_glide_eff_state_penalty>
0

> <s_user_duplicate_titles>
CHEMBL286_lig670

> <i_f3d_flags>
0

> <s_m_subgroup_title>
dock_pv

> <s_m_subgroupid>
dock_pv

> <b_m_subgroup_collapsed>
1

$$$$
CHEMBL286_lig494
                    3D
 Schrodinger Suite 2021-1.
 91 93  0  0  1  0            999 V2000
   -3.3279  -23.6629  -13.2211 N   0  3  0  0  0  0
   -8.3104  -19.7366  -10.6198 C   0  0  0  0  0  0
   -8.5037  -16.9758   -9.0103 C   0  0  0  0  0  0
  -10.1832  -14.3608   -8.8210 C   0  0  0  0  0  0
   -8.3543  -21.0508  -10.3352 N   0  0  0  0  0  0
   -7.3597  -22.0394  -10.7856 C   0  0  1  0  0  0
   -9.1270  -17.4838  -10.0860 N   0  0  0  0  0  0
   -9.5290  -18.8929  -10.1999 C   0  0  1  0  0  0
   -2.5585  -22.8535  -12.9977 N   0  5  0  0  0  0
   -8.8069  -14.3535   -9.0542 N   0  0  0  0  0  0
  -12.5091  -22.2065  -11.4577 N   0  0  0  0  0  0
   -7.9085  -15.5380   -9.1348 C   0  0  1  0  0  0
   -7.2866  -22.1457  -12.3585 C   0  0  1  0  0  0
  -11.5993  -20.1928  -11.2210 C   0  0  0  0  0  0
  -10.6861  -18.9763  -11.2267 C   0  0  0  0  0  0
  -12.9955  -20.0630  -11.2210 N   0  0  0  0  0  0
   -4.2696  -24.4279  -13.4367 N   0  0  0  0  0  0
  -13.4690  -21.2891  -11.3737 C   0  0  0  0  0  0
  -10.5506  -13.1124   -8.4210 O   0  0  0  0  0  0
  -11.3024  -21.5386  -11.3491 C   0  0  0  0  0  0
   -5.9213  -22.5516  -12.9859 C   0  0  1  0  0  0
   -6.0161  -21.9213  -10.0008 C   0  0  0  0  0  0
  -10.9494  -15.3197   -8.9016 O   0  0  0  0  0  0
   -7.3741  -19.2012  -11.2152 O   0  0  0  0  0  0
   -8.3643  -17.6108   -7.9628 O   0  0  0  0  0  0
   -6.7336  -15.3585   -8.1205 C   0  0  0  0  0  0
  -11.8388  -12.7555   -7.8805 C   0  0  0  0  0  0
   -5.5541  -24.0648  -12.8549 C   0  0  0  0  0  0
   -8.3433  -22.9824  -12.8201 O   0  0  0  0  0  0
   -5.9201  -14.0731   -8.1853 C   0  0  0  0  0  0
   -5.8690  -22.1702  -14.3524 O   0  0  0  0  0  0
   -6.1073  -22.1353   -8.4630 C   0  0  0  0  0  0
  -11.6467  -11.3127   -7.3731 C   0  0  0  0  0  0
  -12.2570  -13.6514   -6.6886 C   0  0  0  0  0  0
  -12.9283  -12.7698   -8.9728 C   0  0  0  0  0  0
   -5.0098  -13.8565   -9.2413 C   0  0  0  0  0  0
   -6.1055  -13.0583   -7.2212 C   0  0  0  0  0  0
   -6.5405  -23.5774   -8.0827 C   0  0  0  0  0  0
   -4.7482  -21.8347   -7.7827 C   0  0  0  0  0  0
   -5.3463  -11.8967   -7.2778 C   0  0  0  0  0  0
   -4.2652  -12.6845   -9.2844 C   0  0  0  0  0  0
   -4.8079  -22.0136   -6.2500 C   0  0  0  0  0  0
   -6.6389  -23.7735   -6.5581 C   0  0  0  0  0  0
   -4.4245  -11.7141   -8.3015 C   0  0  0  0  0  0
   -5.3121  -23.4173   -5.8589 C   0  0  0  0  0  0
   -5.1575  -21.9428  -12.5030 H   0  0  0  0  0  0
   -9.1455  -21.4040   -9.8179 H   0  0  0  0  0  0
   -7.7778  -22.9961  -10.4769 H   0  0  0  0  0  0
   -9.2050  -16.9281  -10.9260 H   0  0  0  0  0  0
   -9.8690  -19.2297   -9.2232 H   0  0  0  0  0  0
   -8.3872  -13.4616   -9.2685 H   0  0  0  0  0  0
  -12.6383  -23.1956  -11.6180 H   0  0  0  0  0  0
   -7.4448  -15.4788  -10.1210 H   0  0  0  0  0  0
   -7.5017  -21.1598  -12.7716 H   0  0  0  0  0  0
  -11.3384  -18.1125  -11.0848 H   0  0  0  0  0  0
  -10.2841  -18.8598  -12.2329 H   0  0  0  0  0  0
  -14.5231  -21.5173  -11.4476 H   0  0  0  0  0  0
  -10.3683  -22.0666  -11.4458 H   0  0  0  0  0  0
   -5.2940  -22.6443  -10.3744 H   0  0  0  0  0  0
   -5.5781  -20.9425  -10.2034 H   0  0  0  0  0  0
   -6.0224  -16.1781   -8.2436 H   0  0  0  0  0  0
   -7.0923  -15.4616   -7.0964 H   0  0  0  0  0  0
   -5.5617  -24.3676  -11.8074 H   0  0  0  0  0  0
   -6.3214  -24.6699  -13.3385 H   0  0  0  0  0  0
   -8.4755  -22.8103  -13.7678 H   0  0  0  0  0  0
   -6.6257  -22.5437  -14.8171 H   0  0  0  0  0  0
   -6.8395  -21.4418   -8.0443 H   0  0  0  0  0  0
  -11.3418  -10.6418   -8.1775 H   0  0  0  0  0  0
  -12.5665  -10.9098   -6.9471 H   0  0  0  0  0  0
  -10.8780  -11.2592   -6.6014 H   0  0  0  0  0  0
  -12.4803  -14.6731   -6.9936 H   0  0  0  0  0  0
  -11.4690  -13.7040   -5.9385 H   0  0  0  0  0  0
  -13.1511  -13.2661   -6.1972 H   0  0  0  0  0  0
  -13.0655  -13.7602   -9.4072 H   0  0  0  0  0  0
  -13.8939  -12.4536   -8.5765 H   0  0  0  0  0  0
  -12.6690  -12.0827   -9.7767 H   0  0  0  0  0  0
   -4.8731  -14.6077  -10.0058 H   0  0  0  0  0  0
   -6.8168  -13.1927   -6.4208 H   0  0  0  0  0  0
   -7.4991  -23.8315   -8.5314 H   0  0  0  0  0  0
   -5.8368  -24.2964   -8.5054 H   0  0  0  0  0  0
   -3.9751  -22.4817   -8.2013 H   0  0  0  0  0  0
   -4.4243  -20.8222   -8.0295 H   0  0  0  0  0  0
   -5.4688  -11.1341   -6.5227 H   0  0  0  0  0  0
   -3.5564  -12.5288  -10.0851 H   0  0  0  0  0  0
   -5.4690  -21.2630   -5.8190 H   0  0  0  0  0  0
   -3.8241  -21.8347   -5.8140 H   0  0  0  0  0  0
   -7.4449  -23.1531   -6.1652 H   0  0  0  0  0  0
   -6.9123  -24.8045   -6.3307 H   0  0  0  0  0  0
   -3.8382  -10.8081   -8.3401 H   0  0  0  0  0  0
   -5.4331  -23.4876   -4.7785 H   0  0  0  0  0  0
   -4.5550  -24.1568   -6.1259 H   0  0  0  0  0  0
  1  9  2  0  0  0
  1 17  2  0  0  0
  2  5  1  0  0  0
  2  8  1  0  0  0
  2 24  2  0  0  0
  3  7  1  0  0  0
  3 12  1  0  0  0
  3 25  2  0  0  0
  4 10  1  0  0  0
  4 19  1  0  0  0
  4 23  2  0  0  0
  5  6  1  0  0  0
  5 47  1  0  0  0
  6 13  1  0  0  0
  6 22  1  0  0  0
  6 48  1  0  0  0
  7  8  1  0  0  0
  7 49  1  0  0  0
  8 15  1  0  0  0
  8 50  1  0  0  0
 10 12  1  0  0  0
 10 51  1  0  0  0
 11 20  1  0  0  0
 11 18  1  0  0  0
 11 52  1  0  0  0
 12 26  1  0  0  0
 12 53  1  0  0  0
 13 21  1  0  0  0
 13 29  1  0  0  0
 13 54  1  0  0  0
 14 15  1  0  0  0
 14 16  1  0  0  0
 14 20  2  0  0  0
 15 55  1  0  0  0
 15 56  1  0  0  0
 16 18  2  0  0  0
 17 28  1  0  0  0
 18 57  1  0  0  0
 19 27  1  0  0  0
 20 58  1  0  0  0
 21 28  1  0  0  0
 21 31  1  0  0  0
 21 46  1  0  0  0
 22 32  1  0  0  0
 22 59  1  0  0  0
 22 60  1  0  0  0
 26 30  1  0  0  0
 26 61  1  0  0  0
 26 62  1  0  0  0
 27 33  1  0  0  0
 27 34  1  0  0  0
 27 35  1  0  0  0
 28 63  1  0  0  0
 28 64  1  0  0  0
 29 65  1  0  0  0
 30 36  2  0  0  0
 30 37  1  0  0  0
 31 66  1  0  0  0
 32 38  1  0  0  0
 32 39  1  0  0  0
 32 67  1  0  0  0
 33 68  1  0  0  0
 33 69  1  0  0  0
 33 70  1  0  0  0
 34 71  1  0  0  0
 34 72  1  0  0  0
 34 73  1  0  0  0
 35 74  1  0  0  0
 35 75  1  0  0  0
 35 76  1  0  0  0
 36 41  1  0  0  0
 36 77  1  0  0  0
 37 40  2  0  0  0
 37 78  1  0  0  0
 38 43  1  0  0  0
 38 79  1  0  0  0
 38 80  1  0  0  0
 39 42  1  0  0  0
 39 81  1  0  0  0
 39 82  1  0  0  0
 40 44  1  0  0  0
 40 83  1  0  0  0
 41 44  2  0  0  0
 41 84  1  0  0  0
 42 45  1  0  0  0
 42 85  1  0  0  0
 42 86  1  0  0  0
 43 45  1  0  0  0
 43 87  1  0  0  0
 43 88  1  0  0  0
 44 89  1  0  0  0
 45 90  1  0  0  0
 45 91  1  0  0  0
M  CHG  2   1   1   9  -1
M  END
> <s_m_entry_id>
26213

> <s_m_entry_name>
dock_pv.37

> <s_m_Source_Path>
/home/csk/Desktop/cluster/DUD-E-result/reni

> <s_m_Source_File>
dock_pv.maegz

> <i_m_Source_File_Index>
37

> <chembl_id>
CHEMBL284451

> <chembl_pref_name>
None

> <i_lp_mmshare_version>
53161

> <r_lp_tautomer_probability>
0.499999999999999

> <s_lp_Force_Field>
OPLS_2005

> <r_lp_Energy>
24.58826

> <b_lp_Chiralities_Consistent>
1

> <s_lp_Variant>
CHEMBL286_lig494-1

> <s_i_glide_gridfile>
glide-grid_3g6z

> <i_i_glide_lignum>
1109

> <i_i_glide_rotatable_bonds>
22

> <r_i_docking_score>
-8.50509569305894

> <r_i_glide_ligand_efficiency>
-0.189002126512421

> <r_i_glide_ligand_efficiency_sa>
-0.672260397473391

> <r_i_glide_ligand_efficiency_ln>
-1.76943892173826

> <r_i_glide_gscore>
-8.50509569305894

> <r_i_glide_lipo>
-3.47872169528677

> <r_i_glide_hbond>
-0.289630445034605

> <r_i_glide_metal>
0

> <r_i_glide_rewards>
-0.757810025021297

> <r_i_glide_evdw>
-49.9326858520508

> <r_i_glide_ecoul>
-14.6961898803711

> <r_i_glide_erotb>
0.724267473926112

> <r_i_glide_esite>
-0.00213822698417996

> <r_i_glide_emodel>
-84.7586692190632

> <r_i_glide_energy>
-64.6288757324219

> <r_i_glide_einternal>
23.6651496887207

> <i_i_glide_confnum>
11

> <i_i_glide_posenum>
300

> <r_i_glide_eff_state_penalty>
0

> <s_user_duplicate_titles>
CHEMBL286_lig494,CHEMBL286_lig494

> <i_f3d_flags>
0

> <s_m_subgroup_title>
dock_pv

> <s_m_subgroupid>
dock_pv

> <b_m_subgroup_collapsed>
1

$$$$
CHEMBL286_lig645
                    3D
 Schrodinger Suite 2021-1.
 95 98  0  0  1  0            999 V2000
   -7.7347  -16.7168  -10.7314 C   0  0  0  0  0  0
   -5.8929  -14.1554   -9.6646 C   0  0  0  0  0  0
   -2.2696  -14.7303   -9.1595 C   0  0  0  0  0  0
   -5.8407  -15.0965  -10.6257 N   0  0  0  0  0  0
   -8.6156  -17.4115  -11.4852 N   0  0  0  0  0  0
   -6.9479  -15.5952  -11.4370 C   0  0  1  0  0  0
   -3.3837  -14.2139   -9.7971 N   0  0  0  0  0  0
   -4.6147  -19.2894  -13.2196 N   0  0  0  0  0  0
   -4.5423  -13.6835   -9.0489 C   0  0  1  0  0  0
   -9.6011  -18.3922  -10.9860 C   0  0  2  0  0  0
   -5.5070  -17.2382  -12.8524 C   0  0  0  0  0  0
   -6.3768  -15.9995  -12.8152 C   0  0  0  0  0  0
   -4.1899  -17.2631  -12.4217 N   0  0  0  0  0  0
   -3.7194  -18.4875  -12.6573 C   0  0  0  0  0  0
   -1.4235  -15.1803  -10.1170 O   0  0  0  0  0  0
   -5.7596  -18.5022  -13.3316 C   0  0  0  0  0  0
  -10.9453  -17.7495  -10.4982 C   0  0  1  0  0  0
  -12.2212  -14.3751   -8.1294 C   0  0  0  0  0  0
  -13.3681  -13.8509   -7.6240 N   0  0  0  0  0  0
   -2.0704  -14.7706   -7.9461 O   0  0  0  0  0  0
  -12.2673  -16.1041   -8.5276 S   0  0  0  0  0  0
   -6.9501  -13.6629   -9.2679 O   0  0  0  0  0  0
   -7.5609  -16.9135   -9.5303 O   0  0  0  0  0  0
   -4.4694  -12.1262   -9.0033 C   0  0  0  0  0  0
   -9.0737  -19.4631   -9.9827 C   0  0  0  0  0  0
  -10.7868  -16.5868   -9.4793 C   0  0  0  0  0  0
   -0.0788  -15.6282   -9.8976 C   0  0  0  0  0  0
   -3.1960  -11.4983   -8.4579 C   0  0  0  0  0  0
  -11.6642  -17.2632  -11.6207 O   0  0  0  0  0  0
   -7.7872  -20.2372  -10.3806 C   0  0  0  0  0  0
  -13.4009  -12.5220   -7.3432 C   0  0  0  0  0  0
  -11.0697  -13.6015   -8.3272 C   0  0  0  0  0  0
   -0.0135  -16.8436   -8.9445 C   0  0  0  0  0  0
    0.8031  -14.4683   -9.3776 C   0  0  0  0  0  0
    0.3919  -16.0601  -11.2990 C   0  0  0  0  0  0
   -2.0694  -11.3310   -9.2954 C   0  0  0  0  0  0
   -3.0721  -11.2083   -7.0830 C   0  0  0  0  0  0
   -7.2657  -21.0733   -9.1860 C   0  0  0  0  0  0
   -7.9862  -21.1575  -11.6100 C   0  0  0  0  0  0
  -12.3023  -11.6828   -7.5325 C   0  0  0  0  0  0
  -11.1193  -12.2385   -8.0217 C   0  0  0  0  0  0
   -1.8761  -10.7125   -6.5825 C   0  0  0  0  0  0
   -0.8754  -10.8564   -8.7703 C   0  0  0  0  0  0
   -5.9642  -21.8199   -9.5282 C   0  0  0  0  0  0
   -6.7183  -21.9599  -11.9615 C   0  0  0  0  0  0
   -0.7806  -10.5395   -7.4224 C   0  0  0  0  0  0
   -6.1520  -22.7329  -10.7553 C   0  0  0  0  0  0
   -4.9516  -15.5265  -10.8176 H   0  0  0  0  0  0
   -8.6599  -17.2176  -12.4789 H   0  0  0  0  0  0
   -7.6497  -14.7714  -11.5916 H   0  0  0  0  0  0
   -3.3704  -14.1279  -10.8001 H   0  0  0  0  0  0
   -3.6440  -16.4845  -12.0951 H   0  0  0  0  0  0
   -4.5378  -14.0803   -8.0310 H   0  0  0  0  0  0
   -9.8498  -18.9637  -11.8820 H   0  0  0  0  0  0
   -7.1914  -16.1299  -13.5262 H   0  0  0  0  0  0
   -5.8031  -15.1653  -13.2194 H   0  0  0  0  0  0
   -2.7024  -18.7901  -12.4483 H   0  0  0  0  0  0
   -6.6656  -18.8916  -13.7802 H   0  0  0  0  0  0
  -11.5679  -18.5259  -10.0481 H   0  0  0  0  0  0
   -5.3072  -11.7352   -8.4198 H   0  0  0  0  0  0
   -4.5990  -11.7331  -10.0137 H   0  0  0  0  0  0
   -8.9063  -18.9845   -9.0184 H   0  0  0  0  0  0
   -9.8641  -20.1912   -9.7955 H   0  0  0  0  0  0
  -10.0222  -16.8323   -8.7427 H   0  0  0  0  0  0
  -10.4215  -15.7138  -10.0195 H   0  0  0  0  0  0
  -11.5765  -17.8758  -12.3552 H   0  0  0  0  0  0
   -6.9966  -19.5283  -10.6366 H   0  0  0  0  0  0
  -14.3316  -12.1309   -6.9599 H   0  0  0  0  0  0
  -10.1523  -14.0268   -8.7019 H   0  0  0  0  0  0
   -0.6884  -17.6386   -9.2658 H   0  0  0  0  0  0
    0.9952  -17.2567   -8.9123 H   0  0  0  0  0  0
   -0.2845  -16.5848   -7.9202 H   0  0  0  0  0  0
    0.7501  -13.6047  -10.0371 H   0  0  0  0  0  0
    0.4877  -14.1316   -8.3888 H   0  0  0  0  0  0
    1.8484  -14.7647   -9.2992 H   0  0  0  0  0  0
    0.2306  -15.2631  -12.0200 H   0  0  0  0  0  0
    1.4532  -16.3169  -11.3096 H   0  0  0  0  0  0
   -0.1639  -16.9294  -11.6548 H   0  0  0  0  0  0
   -2.1288  -11.5860  -10.3436 H   0  0  0  0  0  0
   -3.9059  -11.3657   -6.4161 H   0  0  0  0  0  0
   -7.1008  -20.4239   -8.3271 H   0  0  0  0  0  0
   -8.0300  -21.7787   -8.8614 H   0  0  0  0  0  0
   -8.8098  -21.8476  -11.4206 H   0  0  0  0  0  0
   -8.2927  -20.5677  -12.4743 H   0  0  0  0  0  0
  -12.3642  -10.6286   -7.3014 H   0  0  0  0  0  0
  -10.2499  -11.6161   -8.1691 H   0  0  0  0  0  0
   -1.7916  -10.4744   -5.5326 H   0  0  0  0  0  0
   -0.0170  -10.7390   -9.4164 H   0  0  0  0  0  0
   -5.1679  -21.0998   -9.7300 H   0  0  0  0  0  0
   -5.6285  -22.4083   -8.6729 H   0  0  0  0  0  0
   -5.9562  -21.2772  -12.3273 H   0  0  0  0  0  0
   -6.9298  -22.6507  -12.7769 H   0  0  0  0  0  0
    0.1495  -10.1645   -7.0213 H   0  0  0  0  0  0
   -5.2015  -23.1963  -11.0242 H   0  0  0  0  0  0
   -6.8238  -23.5533  -10.4991 H   0  0  0  0  0  0
  1  5  1  0  0  0
  1  6  1  0  0  0
  1 23  2  0  0  0
  2  4  1  0  0  0
  2  9  1  0  0  0
  2 22  2  0  0  0
  3  7  1  0  0  0
  3 15  1  0  0  0
  3 20  2  0  0  0
  4  6  1  0  0  0
  4 48  1  0  0  0
  5 10  1  0  0  0
  5 49  1  0  0  0
  6 12  1  0  0  0
  6 50  1  0  0  0
  7  9  1  0  0  0
  7 51  1  0  0  0
  8 14  2  0  0  0
  8 16  1  0  0  0
  9 24  1  0  0  0
  9 53  1  0  0  0
 10 17  1  0  0  0
 10 25  1  0  0  0
 10 54  1  0  0  0
 11 16  2  0  0  0
 11 12  1  0  0  0
 11 13  1  0  0  0
 12 55  1  0  0  0
 12 56  1  0  0  0
 13 52  1  0  0  0
 13 14  1  0  0  0
 14 57  1  0  0  0
 15 27  1  0  0  0
 16 58  1  0  0  0
 17 26  1  0  0  0
 17 29  1  0  0  0
 17 59  1  0  0  0
 18 21  1  0  0  0
 18 19  1  0  0  0
 18 32  2  0  0  0
 19 31  2  0  0  0
 21 26  1  0  0  0
 24 28  1  0  0  0
 24 60  1  0  0  0
 24 61  1  0  0  0
 25 30  1  0  0  0
 25 62  1  0  0  0
 25 63  1  0  0  0
 26 64  1  0  0  0
 26 65  1  0  0  0
 27 33  1  0  0  0
 27 34  1  0  0  0
 27 35  1  0  0  0
 28 36  1  0  0  0
 28 37  2  0  0  0
 29 66  1  0  0  0
 30 38  1  0  0  0
 30 39  1  0  0  0
 30 67  1  0  0  0
 31 40  1  0  0  0
 31 68  1  0  0  0
 32 41  1  0  0  0
 32 69  1  0  0  0
 33 70  1  0  0  0
 33 71  1  0  0  0
 33 72  1  0  0  0
 34 73  1  0  0  0
 34 74  1  0  0  0
 34 75  1  0  0  0
 35 76  1  0  0  0
 35 77  1  0  0  0
 35 78  1  0  0  0
 36 43  2  0  0  0
 36 79  1  0  0  0
 37 42  1  0  0  0
 37 80  1  0  0  0
 38 44  1  0  0  0
 38 81  1  0  0  0
 38 82  1  0  0  0
 39 45  1  0  0  0
 39 83  1  0  0  0
 39 84  1  0  0  0
 40 41  2  0  0  0
 40 85  1  0  0  0
 41 86  1  0  0  0
 42 46  2  0  0  0
 42 87  1  0  0  0
 43 46  1  0  0  0
 43 88  1  0  0  0
 44 47  1  0  0  0
 44 89  1  0  0  0
 44 90  1  0  0  0
 45 47  1  0  0  0
 45 91  1  0  0  0
 45 92  1  0  0  0
 46 93  1  0  0  0
 47 94  1  0  0  0
 47 95  1  0  0  0
M  END
> <s_m_entry_id>
26214

> <s_m_entry_name>
dock_pv.38

> <s_m_Source_Path>
/home/csk/Desktop/cluster/DUD-E-result/reni

> <s_m_Source_File>
dock_pv.maegz

> <i_m_Source_File_Index>
38

> <chembl_id>
CHEMBL334319

> <chembl_pref_name>
None

> <i_lp_mmshare_version>
53161

> <r_lp_tautomer_probability>
0.499999999999999

> <s_lp_Force_Field>
OPLS_2005

> <r_lp_Energy>
18.914308

> <b_lp_Chiralities_Consistent>
1

> <s_lp_Variant>
CHEMBL286_lig645-7

> <s_i_glide_gridfile>
glide-grid_3g6z

> <i_i_glide_lignum>
1834

> <i_i_glide_rotatable_bonds>
21

> <r_i_docking_score>
-8.47925473217389

> <r_i_glide_ligand_efficiency>
-0.180409675152636

> <r_i_glide_ligand_efficiency_sa>
-0.651067139964614

> <r_i_glide_ligand_efficiency_ln>
-1.7482467397867

> <r_i_glide_gscore>
-8.47925473217389

> <r_i_glide_lipo>
-3.57880466936846

> <r_i_glide_hbond>
-0.389783941537528

> <r_i_glide_metal>
0

> <r_i_glide_rewards>
-0.7231901516186

> <r_i_glide_evdw>
-58.3349456787109

> <r_i_glide_ecoul>
-9.11578559875488

> <r_i_glide_erotb>
0.563827208356299

> <r_i_glide_esite>
-0.0671880542568232

> <r_i_glide_emodel>
-98.8457004407154

> <r_i_glide_energy>
-67.4507312774658

> <r_i_glide_einternal>
8.20299053192139

> <i_i_glide_confnum>
27

> <i_i_glide_posenum>
109

> <r_i_glide_eff_state_penalty>
0

> <s_user_duplicate_titles>
CHEMBL286_lig645

> <i_f3d_flags>
0

> <s_m_subgroup_title>
dock_pv

> <s_m_subgroupid>
dock_pv

> <b_m_subgroup_collapsed>
1

$$$$
CHEMBL286_lig1603
                    3D
 Schrodinger Suite 2021-1.
 86 87  0  0  1  0            999 V2000
   -3.8612  -13.4713  -10.1533 C   0  0  0  0  0  0
   -4.1361  -13.3838   -8.7812 C   0  0  0  0  0  0
   -3.8381  -14.4811   -7.9508 C   0  0  0  0  0  0
   -3.2753  -15.6404   -8.4826 C   0  0  0  0  0  0
   -2.9788  -15.7212   -9.8439 C   0  0  0  0  0  0
   -3.2482  -14.6260  -10.6651 C   0  0  0  0  0  0
   -2.3427  -16.9764  -10.4321 C   0  0  0  0  0  0
   -3.3303  -18.1073  -10.8596 C   0  0  1  0  0  0
   -4.3427  -17.6143  -11.9454 C   0  0  0  0  0  0
   -5.5212  -18.5662  -12.3089 C   0  0  1  0  0  0
   -6.9343  -18.0445  -11.8703 C   0  0  1  0  0  0
   -7.9443  -18.8803  -12.4210 O   0  0  0  0  0  0
   -7.0766  -18.0350  -10.3231 C   0  0  0  0  0  0
   -8.5164  -18.0545   -9.7125 C   0  0  2  0  0  0
   -9.2241  -16.6879   -9.6274 C   0  0  0  0  0  0
  -10.5579  -16.7145   -9.7930 N   0  0  0  0  0  0
   -8.6021  -15.6759   -9.3027 O   0  0  0  0  0  0
  -11.4799  -15.6539   -9.3919 C   0  0  0  0  0  0
  -11.9354  -15.8471   -7.9313 C   0  0  0  0  0  0
   -5.4691  -18.8683  -13.7334 N   0  0  0  0  0  0
   -2.5100  -19.3930  -11.2318 C   0  0  0  0  0  0
   -1.8726  -19.3522  -12.6362 C   0  0  0  0  0  0
   -3.2517  -20.7262  -11.0069 C   0  0  0  0  0  0
   -4.2177  -12.3899  -10.9418 O   0  0  0  0  0  0
   -4.3969  -12.5573  -12.3480 C   0  0  0  0  0  0
   -8.4779  -18.6662   -8.2994 C   0  0  0  0  0  0
   -4.7110  -12.2074   -8.3286 O   0  0  0  0  0  0
   -4.9014  -12.0121   -6.9350 C   0  0  0  0  0  0
   -5.4693  -13.6089  -12.7089 C   0  0  0  0  0  0
   -6.8489  -13.3549  -12.0730 C   0  0  0  0  0  0
   -7.7330  -14.4497  -12.2715 O   0  0  0  0  0  0
   -8.1420  -14.6682  -13.6098 C   0  0  0  0  0  0
  -13.0490  -14.8952   -7.4484 C   0  0  0  0  0  0
  -12.7046  -13.4205   -7.4851 C   0  0  0  0  0  0
  -13.5550  -12.3513   -7.7488 C   0  0  0  0  0  0
  -12.7827  -11.2337   -7.6208 N   0  0  0  0  0  0
  -11.5294  -11.6826   -7.3124 C   0  0  0  0  0  0
  -11.4761  -12.9878   -7.2203 N   0  0  0  0  0  0
   -4.0498  -14.4570   -6.8943 H   0  0  0  0  0  0
   -3.0669  -16.4776   -7.8307 H   0  0  0  0  0  0
   -2.9994  -14.6915  -11.7142 H   0  0  0  0  0  0
   -1.7133  -16.6875  -11.2778 H   0  0  0  0  0  0
   -1.6406  -17.3556   -9.6848 H   0  0  0  0  0  0
   -3.9138  -18.3450   -9.9674 H   0  0  0  0  0  0
   -4.7807  -16.6787  -11.6052 H   0  0  0  0  0  0
   -3.7831  -17.3178  -12.8343 H   0  0  0  0  0  0
   -5.3777  -19.5207  -11.8075 H   0  0  0  0  0  0
   -7.1070  -17.0380  -12.2555 H   0  0  0  0  0  0
   -8.2073  -18.5105  -13.2871 H   0  0  0  0  0  0
   -6.5694  -18.9334   -9.9642 H   0  0  0  0  0  0
   -6.4980  -17.2089   -9.9032 H   0  0  0  0  0  0
   -9.1408  -18.7274  -10.2996 H   0  0  0  0  0  0
  -10.9753  -17.5610  -10.1477 H   0  0  0  0  0  0
  -11.0513  -14.6597   -9.5226 H   0  0  0  0  0  0
  -12.3455  -15.6710  -10.0507 H   0  0  0  0  0  0
  -12.3017  -16.8639   -7.8088 H   0  0  0  0  0  0
  -11.0731  -15.7625   -7.2698 H   0  0  0  0  0  0
   -6.2767  -19.4471  -13.9233 H   0  0  0  0  0  0
   -5.6493  -18.0291  -14.2728 H   0  0  0  0  0  0
   -1.6740  -19.4442  -10.5295 H   0  0  0  0  0  0
   -2.6331  -19.3633  -13.4171 H   0  0  0  0  0  0
   -1.2601  -18.4634  -12.7777 H   0  0  0  0  0  0
   -1.2270  -20.2150  -12.7992 H   0  0  0  0  0  0
   -3.9266  -20.9666  -11.8263 H   0  0  0  0  0  0
   -2.5396  -21.5505  -10.9410 H   0  0  0  0  0  0
   -3.8256  -20.7225  -10.0787 H   0  0  0  0  0  0
   -3.4415  -12.7981  -12.8211 H   0  0  0  0  0  0
   -4.6882  -11.5892  -12.7559 H   0  0  0  0  0  0
   -9.4675  -18.7361   -7.8509 H   0  0  0  0  0  0
   -8.0702  -19.6781   -8.3328 H   0  0  0  0  0  0
   -7.8672  -18.0632   -7.6267 H   0  0  0  0  0  0
   -5.3372  -11.0281   -6.7635 H   0  0  0  0  0  0
   -5.5766  -12.7540   -6.5051 H   0  0  0  0  0  0
   -3.9423  -12.0425   -6.4212 H   0  0  0  0  0  0
   -5.1397  -14.6021  -12.4202 H   0  0  0  0  0  0
   -5.5467  -13.6630  -13.7906 H   0  0  0  0  0  0
   -7.2947  -12.4246  -12.4265 H   0  0  0  0  0  0
   -6.7373  -13.2625  -10.9932 H   0  0  0  0  0  0
   -8.8230  -15.5149  -13.6198 H   0  0  0  0  0  0
   -7.3029  -14.9245  -14.2537 H   0  0  0  0  0  0
   -8.6612  -13.8015  -14.0206 H   0  0  0  0  0  0
  -13.9532  -15.0875   -8.0267 H   0  0  0  0  0  0
  -13.3091  -15.1639   -6.4257 H   0  0  0  0  0  0
  -14.6040  -12.2904   -7.9972 H   0  0  0  0  0  0
  -13.0683  -10.2691   -7.7561 H   0  0  0  0  0  0
  -10.7188  -10.9843   -7.1680 H   0  0  0  0  0  0
  1  2  2  0  0  0
  1  6  1  0  0  0
  1 24  1  0  0  0
  2  3  1  0  0  0
  2 27  1  0  0  0
  3  4  2  0  0  0
  3 39  1  0  0  0
  4  5  1  0  0  0
  4 40  1  0  0  0
  5  6  2  0  0  0
  5  7  1  0  0  0
  6 41  1  0  0  0
  7  8  1  0  0  0
  7 42  1  0  0  0
  7 43  1  0  0  0
  8  9  1  0  0  0
  8 21  1  0  0  0
  8 44  1  0  0  0
  9 10  1  0  0  0
  9 45  1  0  0  0
  9 46  1  0  0  0
 10 11  1  0  0  0
 10 20  1  0  0  0
 10 47  1  0  0  0
 11 12  1  0  0  0
 11 13  1  0  0  0
 11 48  1  0  0  0
 12 49  1  0  0  0
 13 14  1  0  0  0
 13 50  1  0  0  0
 13 51  1  0  0  0
 14 15  1  0  0  0
 14 26  1  0  0  0
 14 52  1  0  0  0
 15 16  1  0  0  0
 15 17  2  0  0  0
 16 18  1  0  0  0
 16 53  1  0  0  0
 18 19  1  0  0  0
 18 54  1  0  0  0
 18 55  1  0  0  0
 19 33  1  0  0  0
 19 56  1  0  0  0
 19 57  1  0  0  0
 20 58  1  0  0  0
 20 59  1  0  0  0
 21 22  1  0  0  0
 21 23  1  0  0  0
 21 60  1  0  0  0
 22 61  1  0  0  0
 22 62  1  0  0  0
 22 63  1  0  0  0
 23 64  1  0  0  0
 23 65  1  0  0  0
 23 66  1  0  0  0
 24 25  1  0  0  0
 25 29  1  0  0  0
 25 67  1  0  0  0
 25 68  1  0  0  0
 26 69  1  0  0  0
 26 70  1  0  0  0
 26 71  1  0  0  0
 27 28  1  0  0  0
 28 72  1  0  0  0
 28 73  1  0  0  0
 28 74  1  0  0  0
 29 30  1  0  0  0
 29 75  1  0  0  0
 29 76  1  0  0  0
 30 31  1  0  0  0
 30 77  1  0  0  0
 30 78  1  0  0  0
 31 32  1  0  0  0
 32 79  1  0  0  0
 32 80  1  0  0  0
 32 81  1  0  0  0
 33 34  1  0  0  0
 33 82  1  0  0  0
 33 83  1  0  0  0
 34 35  2  0  0  0
 34 38  1  0  0  0
 35 36  1  0  0  0
 35 84  1  0  0  0
 36 37  1  0  0  0
 36 85  1  0  0  0
 37 38  2  0  0  0
 37 86  1  0  0  0
M  END
> <s_m_entry_id>
26215

> <s_m_entry_name>
dock_pv.39

> <s_m_Source_Path>
/home/csk/Desktop/cluster/DUD-E-result/reni

> <s_m_Source_File>
dock_pv.maegz

> <i_m_Source_File_Index>
39

> <chembl_id>
CHEMBL556348

> <chembl_pref_name>
None

> <i_lp_mmshare_version>
53161

> <r_lp_tautomer_probability>
0.499999999999999

> <s_lp_Force_Field>
OPLS_2005

> <r_lp_Energy>
37.755572

> <b_lp_Chiralities_Consistent>
1

> <s_lp_Variant>
CHEMBL286_lig1603-1

> <s_i_glide_gridfile>
glide-grid_3g6z

> <i_i_glide_lignum>
5308

> <i_i_glide_rotatable_bonds>
21

> <r_i_docking_score>
-8.47668139778866

> <r_i_glide_ligand_efficiency>
-0.223070563099702

> <r_i_glide_ligand_efficiency_sa>
-0.749957746212648

> <r_i_glide_ligand_efficiency_ln>
-1.82782186806612

> <r_i_glide_gscore>
-8.47668139778866

> <r_i_glide_lipo>
-3.11334833222838

> <r_i_glide_hbond>
-0.72

> <r_i_glide_metal>
0

> <r_i_glide_rewards>
-1.54057653260676

> <r_i_glide_evdw>
-47.4595527648926

> <r_i_glide_ecoul>
-12.6185789108276

> <r_i_glide_erotb>
1.16300794191525

> <r_i_glide_esite>
0

> <r_i_glide_emodel>
-84.7733183595775

> <r_i_glide_energy>
-60.0781316757202

> <r_i_glide_einternal>
15.7733268737793

> <i_i_glide_confnum>
130

> <i_i_glide_posenum>
377

> <r_i_glide_eff_state_penalty>
0

> <s_user_duplicate_titles>
CHEMBL286_lig1603,CHEMBL286_lig1603,549885

> <i_f3d_flags>
0

> <s_m_subgroup_title>
dock_pv

> <s_m_subgroupid>
dock_pv

> <b_m_subgroup_collapsed>
1

$$$$
CHEMBL286_lig1585
                    3D
 Schrodinger Suite 2021-1.
 94 98  0  0  1  0            999 V2000
   -2.2165  -19.6066  -12.3057 C   0  0  0  0  0  0
   -3.6918  -19.1429  -12.4069 C   0  0  0  0  0  0
   -4.0709  -18.1715  -11.5134 N   0  0  0  0  0  0
   -3.1234  -17.4214  -10.6265 C   0  0  2  0  0  0
   -1.6258  -17.7929  -10.8363 C   0  0  0  0  0  0
   -1.3397  -18.4633  -12.0917 N   0  0  2  0  0  0
   -4.4640  -19.6759  -13.2133 O   0  0  0  0  0  0
   -3.4332  -17.3841   -9.1110 C   0  0  0  0  0  0
   -4.6935  -16.7870   -8.8206 O   0  0  0  0  0  0
   -4.7568  -15.4630   -8.4439 C   0  0  0  0  0  0
   -5.8806  -15.0841   -7.7237 C   0  0  0  0  0  0
   -5.9877  -13.7952   -7.2193 C   0  0  0  0  0  0
   -3.7812  -14.4993   -8.7379 C   0  0  0  0  0  0
   -3.8740  -13.1840   -8.2434 C   0  0  0  0  0  0
   -4.9774  -12.8536   -7.4155 C   0  0  0  0  0  0
   -5.0356  -11.5289   -6.6767 C   0  0  0  0  0  0
   -4.3386  -10.4459   -7.4919 C   0  0  0  0  0  0
   -2.9361  -10.8993   -7.9074 C   0  0  0  0  0  0
   -2.9306  -12.2019   -8.6075 N   0  0  0  0  0  0
   -5.4386  -17.8449  -11.4119 C   0  0  0  0  0  0
   -5.9646  -16.7647  -12.1232 C   0  0  0  0  0  0
   -7.3270  -16.4838  -12.0212 C   0  0  0  0  0  0
   -8.1650  -17.2590  -11.2149 C   0  0  0  0  0  0
   -7.6113  -18.3161  -10.4748 C   0  0  0  0  0  0
   -6.2604  -18.6196  -10.5879 C   0  0  0  0  0  0
   -9.5064  -16.9249  -11.2219 O   0  0  0  0  0  0
  -10.4292  -17.5510  -10.3301 C   0  0  0  0  0  0
  -11.8462  -17.4178  -10.9166 C   0  0  0  0  0  0
  -12.2741  -18.6427  -11.7480 C   0  0  0  0  0  0
  -12.6255  -19.6709  -10.8234 O   0  0  0  0  0  0
  -13.3519  -20.8192  -11.2686 C   0  0  0  0  0  0
  -12.4759  -21.9185  -11.8760 C   0  0  0  0  0  0
  -13.0282  -22.7061  -12.8950 C   0  0  0  0  0  0
  -12.2540  -23.6627  -13.5458 C   0  0  0  0  0  0
  -10.9302  -23.8646  -13.1741 C   0  0  0  0  0  0
  -10.3812  -23.1090  -12.1419 C   0  0  0  0  0  0
  -11.1409  -22.1314  -11.4735 C   0  0  0  0  0  0
  -10.6328  -21.3669  -10.4369 O   0  0  0  0  0  0
   -9.2868  -21.5610  -10.0214 C   0  0  0  0  0  0
   -1.6569  -12.5298   -9.2928 C   0  0  0  0  0  0
   -0.6747  -11.3882   -9.6510 C   0  0  0  0  0  0
    0.0398  -10.9851   -8.4842 O   0  0  0  0  0  0
    0.5784   -9.7522   -8.3690 C   0  0  0  0  0  0
    0.5314   -8.8635   -9.2237 O   0  0  0  0  0  0
    1.2767   -9.5534   -7.0093 C   0  0  0  0  0  0
    0.2598   -9.5982   -5.8486 C   0  0  0  0  0  0
    2.1254   -8.2632   -6.9472 C   0  0  0  0  0  0
   -1.9350  -20.1238  -13.2243 H   0  0  0  0  0  0
   -2.1325  -20.3246  -11.4887 H   0  0  0  0  0  0
   -3.2285  -16.4030  -10.9973 H   0  0  0  0  0  0
   -1.0054  -16.8993  -10.7354 H   0  0  0  0  0  0
   -1.3092  -18.4712  -10.0400 H   0  0  0  0  0  0
   -1.3081  -17.8396  -12.8813 H   0  0  0  0  0  0
   -2.6294  -16.9100   -8.5430 H   0  0  0  0  0  0
   -3.4773  -18.4071   -8.7357 H   0  0  0  0  0  0
   -6.6527  -15.8098   -7.5131 H   0  0  0  0  0  0
   -6.8410  -13.5492   -6.6036 H   0  0  0  0  0  0
   -2.9447  -14.7797   -9.3568 H   0  0  0  0  0  0
   -4.5134  -11.6627   -5.7299 H   0  0  0  0  0  0
   -6.0565  -11.2436   -6.4234 H   0  0  0  0  0  0
   -4.2624   -9.5311   -6.9079 H   0  0  0  0  0  0
   -4.9221  -10.1864   -8.3762 H   0  0  0  0  0  0
   -2.4021  -11.0963   -6.9742 H   0  0  0  0  0  0
   -2.3647  -10.1059   -8.3827 H   0  0  0  0  0  0
   -5.3348  -16.1627  -12.7634 H   0  0  0  0  0  0
   -7.7473  -15.6688  -12.5937 H   0  0  0  0  0  0
   -8.2085  -18.9218   -9.8161 H   0  0  0  0  0  0
   -5.8473  -19.4481  -10.0329 H   0  0  0  0  0  0
  -10.2255  -18.6074  -10.1520 H   0  0  0  0  0  0
  -10.3732  -17.0406   -9.3685 H   0  0  0  0  0  0
  -12.5540  -17.2688  -10.1042 H   0  0  0  0  0  0
  -11.8986  -16.5196  -11.5303 H   0  0  0  0  0  0
  -13.1313  -18.3895  -12.3723 H   0  0  0  0  0  0
  -11.4631  -18.9332  -12.4079 H   0  0  0  0  0  0
  -13.8205  -21.2623  -10.3920 H   0  0  0  0  0  0
  -14.1610  -20.5278  -11.9402 H   0  0  0  0  0  0
  -14.0577  -22.5673  -13.2039 H   0  0  0  0  0  0
  -12.6666  -24.2536  -14.3469 H   0  0  0  0  0  0
  -10.3311  -24.6009  -13.6885 H   0  0  0  0  0  0
   -9.3494  -23.2938  -11.8879 H   0  0  0  0  0  0
   -9.0964  -20.9400   -9.1481 H   0  0  0  0  0  0
   -9.0935  -22.5933   -9.7237 H   0  0  0  0  0  0
   -8.5809  -21.2693  -10.8014 H   0  0  0  0  0  0
   -1.9207  -13.0161  -10.2310 H   0  0  0  0  0  0
   -1.1239  -13.2731   -8.6988 H   0  0  0  0  0  0
   -1.2043  -10.5579  -10.1259 H   0  0  0  0  0  0
    0.0519  -11.7442  -10.3823 H   0  0  0  0  0  0
    1.9561  -10.3976   -6.8950 H   0  0  0  0  0  0
   -0.2472  -10.5626   -5.7961 H   0  0  0  0  0  0
   -0.5068   -8.8283   -5.9509 H   0  0  0  0  0  0
    0.7513   -9.4447   -4.8878 H   0  0  0  0  0  0
    2.9005   -8.2563   -7.7162 H   0  0  0  0  0  0
    1.5135   -7.3693   -7.0852 H   0  0  0  0  0  0
    2.6294   -8.1682   -5.9846 H   0  0  0  0  0  0
  1  2  1  0  0  0
  1  6  1  0  0  0
  1 48  1  0  0  0
  1 49  1  0  0  0
  2  7  2  0  0  0
  2  3  1  0  0  0
  3 20  1  0  0  0
  3  4  1  0  0  0
  4  5  1  0  0  0
  4  8  1  0  0  0
  4 50  1  0  0  0
  5  6  1  0  0  0
  5 51  1  0  0  0
  5 52  1  0  0  0
  6 53  1  0  0  0
  8  9  1  0  0  0
  8 54  1  0  0  0
  8 55  1  0  0  0
  9 10  1  0  0  0
 10 13  1  0  0  0
 10 11  2  0  0  0
 11 12  1  0  0  0
 11 56  1  0  0  0
 12 15  2  0  0  0
 12 57  1  0  0  0
 13 14  2  0  0  0
 13 58  1  0  0  0
 14 15  1  0  0  0
 14 19  1  0  0  0
 15 16  1  0  0  0
 16 17  1  0  0  0
 16 59  1  0  0  0
 16 60  1  0  0  0
 17 18  1  0  0  0
 17 61  1  0  0  0
 17 62  1  0  0  0
 18 19  1  0  0  0
 18 63  1  0  0  0
 18 64  1  0  0  0
 19 40  1  0  0  0
 20 25  1  0  0  0
 20 21  2  0  0  0
 21 22  1  0  0  0
 21 65  1  0  0  0
 22 23  2  0  0  0
 22 66  1  0  0  0
 23 24  1  0  0  0
 23 26  1  0  0  0
 24 25  2  0  0  0
 24 67  1  0  0  0
 25 68  1  0  0  0
 26 27  1  0  0  0
 27 28  1  0  0  0
 27 69  1  0  0  0
 27 70  1  0  0  0
 28 29  1  0  0  0
 28 71  1  0  0  0
 28 72  1  0  0  0
 29 30  1  0  0  0
 29 73  1  0  0  0
 29 74  1  0  0  0
 30 31  1  0  0  0
 31 32  1  0  0  0
 31 75  1  0  0  0
 31 76  1  0  0  0
 32 33  2  0  0  0
 32 37  1  0  0  0
 33 34  1  0  0  0
 33 77  1  0  0  0
 34 35  2  0  0  0
 34 78  1  0  0  0
 35 36  1  0  0  0
 35 79  1  0  0  0
 36 37  2  0  0  0
 36 80  1  0  0  0
 37 38  1  0  0  0
 38 39  1  0  0  0
 39 81  1  0  0  0
 39 82  1  0  0  0
 39 83  1  0  0  0
 40 41  1  0  0  0
 40 84  1  0  0  0
 40 85  1  0  0  0
 41 42  1  0  0  0
 41 86  1  0  0  0
 41 87  1  0  0  0
 42 43  1  0  0  0
 43 44  2  0  0  0
 43 45  1  0  0  0
 45 46  1  0  0  0
 45 47  1  0  0  0
 45 88  1  0  0  0
 46 89  1  0  0  0
 46 90  1  0  0  0
 46 91  1  0  0  0
 47 92  1  0  0  0
 47 93  1  0  0  0
 47 94  1  0  0  0
M  END
> <s_m_entry_id>
26216

> <s_m_entry_name>
dock_pv.40

> <s_m_Source_Path>
/home/csk/Desktop/cluster/DUD-E-result/reni

> <s_m_Source_File>
dock_pv.maegz

> <i_m_Source_File_Index>
40

> <chembl_id>
CHEMBL208112

> <chembl_pref_name>
None

> <i_lp_mmshare_version>
53161

> <r_lp_tautomer_probability>
1

> <s_lp_Force_Field>
OPLS_2005

> <r_lp_Energy>
63.368096

> <b_lp_Chiralities_Consistent>
1

> <s_lp_Variant>
CHEMBL286_lig1585-1

> <s_i_glide_gridfile>
glide-grid_3g6z

> <i_i_glide_lignum>
5289

> <i_i_glide_rotatable_bonds>
17

> <r_i_docking_score>
-8.46857873684525

> <r_i_glide_ligand_efficiency>
-0.180182526315856

> <r_i_glide_ligand_efficiency_sa>
-0.650247399319423

> <r_i_glide_ligand_efficiency_ln>
-1.7460455706254

> <r_i_glide_gscore>
-8.46857873684525

> <r_i_glide_lipo>
-3.59857465453097

> <r_i_glide_hbond>
-0.956325002851987

> <r_i_glide_metal>
0

> <r_i_glide_rewards>
-0.356134346611091

> <r_i_glide_evdw>
-51.5842704772949

> <r_i_glide_ecoul>
-10.6204233169556

> <r_i_glide_erotb>
0.614732288556886

> <r_i_glide_esite>
0

> <r_i_glide_emodel>
-81.8509889782418

> <r_i_glide_energy>
-62.2046937942505

> <r_i_glide_einternal>
18.2474460601807

> <i_i_glide_confnum>
11

> <i_i_glide_posenum>
19

> <r_i_glide_eff_state_penalty>
0

> <s_user_duplicate_titles>
CHEMBL286_lig1585

> <i_f3d_flags>
0

> <s_m_subgroup_title>
dock_pv

> <s_m_subgroupid>
dock_pv

> <b_m_subgroup_collapsed>
1

$$$$
CHEMBL286_lig1947
                    3D
 Schrodinger Suite 2021-1.
 84 88  0  0  1  0            999 V2000
  -10.3016  -10.7492   -7.4671 C   0  0  0  0  0  0
  -10.8596  -11.9713   -7.8496 C   0  0  0  0  0  0
  -12.1942  -12.2630   -7.5298 C   0  0  0  0  0  0
  -12.9557  -11.3271   -6.8211 C   0  0  0  0  0  0
  -12.3813  -10.1199   -6.4217 C   0  0  0  0  0  0
  -11.0627   -9.8189   -6.7573 C   0  0  0  0  0  0
  -10.4847   -8.4639   -6.4007 C   0  0  0  0  0  0
  -14.6077  -11.6540   -6.4213 Cl  0  0  0  0  0  0
   -9.8816  -13.1196   -8.7004 Cl  0  0  0  0  0  0
  -12.7579  -13.4549   -7.9135 O   0  0  0  0  0  0
  -12.6029  -14.4973   -6.9615 C   0  0  0  0  0  0
  -13.2036  -15.7957   -7.5235 C   0  0  0  0  0  0
  -12.6686  -16.1513   -8.7988 O   0  0  0  0  0  0
  -11.4417  -16.7715   -8.8938 C   0  0  0  0  0  0
  -11.1511  -17.1970  -10.1494 N   0  0  0  0  0  0
   -9.9770  -17.8448  -10.3541 C   0  0  0  0  0  0
   -9.0406  -18.0750   -9.3388 C   0  0  0  0  0  0
   -9.3556  -17.6319   -8.0506 C   0  0  0  0  0  0
  -10.5650  -16.9783   -7.8163 C   0  0  0  0  0  0
   -7.6838  -18.7232   -9.6209 C   0  0  1  0  0  0
   -7.7923  -20.0819  -10.3494 C   0  0  0  0  0  0
   -6.4039  -20.6962  -10.6450 C   0  0  0  0  0  0
   -5.5141  -19.7573  -11.3361 N   0  0  1  0  0  0
   -5.3422  -18.5074  -10.5936 C   0  0  0  0  0  0
   -6.7061  -17.8035  -10.4049 C   0  0  2  0  0  0
   -6.4631  -16.4420   -9.6979 C   0  0  0  0  0  0
   -6.5339  -15.2705  -10.3855 N   0  0  0  0  0  0
   -6.2027  -16.4647   -8.4917 O   0  0  0  0  0  0
   -6.8457  -15.1727  -11.8250 C   0  0  0  0  0  0
   -6.1113  -14.0148   -9.7457 C   0  0  0  0  0  0
   -4.7654  -13.4749  -10.2249 C   0  0  0  0  0  0
   -4.7401  -12.7311  -11.4072 C   0  0  0  0  0  0
   -3.5715  -12.1333  -11.8599 C   0  0  0  0  0  0
   -2.3962  -12.2889  -11.1216 C   0  0  0  0  0  0
   -2.3989  -13.0454   -9.9492 C   0  0  0  0  0  0
   -3.5804  -13.6359   -9.4913 C   0  0  0  0  0  0
   -3.5373  -14.5262   -8.0106 Cl  0  0  0  0  0  0
   -8.2500  -15.4923  -12.2997 C   0  0  0  0  0  0
   -7.7632  -14.0791  -12.3517 C   0  0  0  0  0  0
   -3.6037  -11.3153  -13.1405 C   0  0  0  0  0  0
   -3.7893  -12.1818  -14.3883 C   0  0  0  0  0  0
   -3.8922  -11.4222  -15.7226 C   0  0  0  0  0  0
   -2.6623  -10.8630  -16.1414 O   0  0  0  0  0  0
   -1.6677  -11.7952  -16.5575 C   0  0  0  0  0  0
   -9.2787  -10.5214   -7.7251 H   0  0  0  0  0  0
  -12.9850   -9.3803   -5.9205 H   0  0  0  0  0  0
   -9.8692   -8.0869   -7.2165 H   0  0  0  0  0  0
  -11.2729   -7.7254   -6.2515 H   0  0  0  0  0  0
   -9.8738   -8.5254   -5.5024 H   0  0  0  0  0  0
  -13.1081  -14.2366   -6.0304 H   0  0  0  0  0  0
  -11.5498  -14.6289   -6.7177 H   0  0  0  0  0  0
  -14.2795  -15.6548   -7.6375 H   0  0  0  0  0  0
  -13.0999  -16.6234   -6.8207 H   0  0  0  0  0  0
   -9.7767  -18.1399  -11.3748 H   0  0  0  0  0  0
   -8.6606  -17.7722   -7.2344 H   0  0  0  0  0  0
  -10.7993  -16.6624   -6.8135 H   0  0  0  0  0  0
   -7.2476  -18.9365   -8.6427 H   0  0  0  0  0  0
   -8.3287  -20.7911   -9.7169 H   0  0  0  0  0  0
   -8.3485  -20.0095  -11.2849 H   0  0  0  0  0  0
   -5.9296  -21.0250   -9.7180 H   0  0  0  0  0  0
   -6.5188  -21.5812  -11.2729 H   0  0  0  0  0  0
   -4.6166  -20.1929  -11.4951 H   0  0  0  0  0  0
   -4.6231  -17.8624  -11.1040 H   0  0  0  0  0  0
   -4.9147  -18.7682   -9.6221 H   0  0  0  0  0  0
   -7.1319  -17.6132  -11.3868 H   0  0  0  0  0  0
   -6.0115  -15.4706  -12.4614 H   0  0  0  0  0  0
   -6.0955  -14.0904   -8.6558 H   0  0  0  0  0  0
   -6.8751  -13.2649   -9.9252 H   0  0  0  0  0  0
   -5.6475  -12.5844  -11.9696 H   0  0  0  0  0  0
   -1.4814  -11.8253  -11.4556 H   0  0  0  0  0  0
   -1.4830  -13.1635   -9.3902 H   0  0  0  0  0  0
   -8.3590  -16.0619  -13.2210 H   0  0  0  0  0  0
   -9.0136  -15.7373  -11.5657 H   0  0  0  0  0  0
   -8.1929  -13.3534  -11.6614 H   0  0  0  0  0  0
   -7.5367  -13.6376  -13.3226 H   0  0  0  0  0  0
   -2.6715  -10.7774  -13.2212 H   0  0  0  0  0  0
   -4.3907  -10.5660  -13.0682 H   0  0  0  0  0  0
   -4.6675  -12.8104  -14.2617 H   0  0  0  0  0  0
   -2.9477  -12.8630  -14.4290 H   0  0  0  0  0  0
   -4.6185  -10.6146  -15.6242 H   0  0  0  0  0  0
   -4.2692  -12.0632  -16.5180 H   0  0  0  0  0  0
   -0.7571  -11.2618  -16.8204 H   0  0  0  0  0  0
   -1.9913  -12.3623  -17.4287 H   0  0  0  0  0  0
   -1.3816  -12.4954  -15.7759 H   0  0  0  0  0  0
  1  6  1  0  0  0
  1  2  2  0  0  0
  1 45  1  0  0  0
  2  3  1  0  0  0
  2  9  1  0  0  0
  3  4  2  0  0  0
  3 10  1  0  0  0
  4  8  1  0  0  0
  4  5  1  0  0  0
  5  6  2  0  0  0
  5 46  1  0  0  0
  6  7  1  0  0  0
  7 47  1  0  0  0
  7 48  1  0  0  0
  7 49  1  0  0  0
 10 11  1  0  0  0
 11 12  1  0  0  0
 11 50  1  0  0  0
 11 51  1  0  0  0
 12 13  1  0  0  0
 12 52  1  0  0  0
 12 53  1  0  0  0
 13 14  1  0  0  0
 14 15  2  0  0  0
 14 19  1  0  0  0
 15 16  1  0  0  0
 16 17  2  0  0  0
 16 54  1  0  0  0
 17 18  1  0  0  0
 17 20  1  0  0  0
 18 19  2  0  0  0
 18 55  1  0  0  0
 19 56  1  0  0  0
 20 25  1  0  0  0
 20 21  1  0  0  0
 20 57  1  0  0  0
 21 22  1  0  0  0
 21 58  1  0  0  0
 21 59  1  0  0  0
 22 23  1  0  0  0
 22 60  1  0  0  0
 22 61  1  0  0  0
 23 24  1  0  0  0
 23 62  1  0  0  0
 24 25  1  0  0  0
 24 63  1  0  0  0
 24 64  1  0  0  0
 25 26  1  0  0  0
 25 65  1  0  0  0
 26 27  1  0  0  0
 26 28  2  0  0  0
 27 29  1  0  0  0
 27 30  1  0  0  0
 29 38  1  0  0  0
 29 39  1  0  0  0
 29 66  1  0  0  0
 30 31  1  0  0  0
 30 67  1  0  0  0
 30 68  1  0  0  0
 31 32  2  0  0  0
 31 36  1  0  0  0
 32 33  1  0  0  0
 32 69  1  0  0  0
 33 34  2  0  0  0
 33 40  1  0  0  0
 34 35  1  0  0  0
 34 70  1  0  0  0
 35 36  2  0  0  0
 35 71  1  0  0  0
 36 37  1  0  0  0
 38 39  1  0  0  0
 38 72  1  0  0  0
 38 73  1  0  0  0
 39 74  1  0  0  0
 39 75  1  0  0  0
 40 41  1  0  0  0
 40 76  1  0  0  0
 40 77  1  0  0  0
 41 42  1  0  0  0
 41 78  1  0  0  0
 41 79  1  0  0  0
 42 43  1  0  0  0
 42 80  1  0  0  0
 42 81  1  0  0  0
 43 44  1  0  0  0
 44 82  1  0  0  0
 44 83  1  0  0  0
 44 84  1  0  0  0
M  END
> <s_m_entry_id>
26217

> <s_m_entry_name>
dock_pv.41

> <s_m_Source_Path>
/home/csk/Desktop/cluster/DUD-E-result/reni

> <s_m_Source_File>
dock_pv.maegz

> <i_m_Source_File_Index>
41

> <chembl_id>
CHEMBL1269742

> <chembl_pref_name>
None

> <i_lp_mmshare_version>
53161

> <r_lp_tautomer_probability>
1

> <s_lp_Force_Field>
OPLS_2005

> <r_lp_Energy>
64.192772

> <b_lp_Chiralities_Consistent>
1

> <s_lp_Variant>
CHEMBL286_lig1947-1

> <s_i_glide_gridfile>
glide-grid_3g6z

> <i_i_glide_lignum>
5736

> <i_i_glide_rotatable_bonds>
15

> <r_i_docking_score>
-8.46478852281519

> <r_i_glide_ligand_efficiency>
-0.192381557336709

> <r_i_glide_ligand_efficiency_sa>
-0.679173909834378

> <r_i_glide_ligand_efficiency_ln>
-1.76932545959356

> <r_i_glide_gscore>
-8.46478852281519

> <r_i_glide_lipo>
-5.58275537907299

> <r_i_glide_hbond>
-0.263254148936979

> <r_i_glide_metal>
0

> <r_i_glide_rewards>
0.38711216393316

> <r_i_glide_evdw>
-58.0709609985352

> <r_i_glide_ecoul>
-4.18166780471802

> <r_i_glide_erotb>
0.524907061896075

> <r_i_glide_esite>
0

> <r_i_glide_emodel>
-87.5507640769907

> <r_i_glide_energy>
-62.2526288032532

> <r_i_glide_einternal>
7.50234699249268

> <i_i_glide_confnum>
10

> <i_i_glide_posenum>
33

> <r_i_glide_eff_state_penalty>
0

> <s_user_duplicate_titles>
CHEMBL286_lig1947

> <i_f3d_flags>
0

> <s_m_subgroup_title>
dock_pv

> <s_m_subgroupid>
dock_pv

> <b_m_subgroup_collapsed>
1

$$$$
CHEMBL286_lig1593
                    3D
 Schrodinger Suite 2021-1.
 52 54  0  0  1  0            999 V2000
   -5.3808  -13.8349   -9.7217 N   0  0  0  0  0  0
   -6.5614  -14.2156   -9.1649 C   0  0  0  0  0  0
   -7.5964  -14.8162   -9.9147 C   0  0  0  0  0  0
   -7.3042  -15.0311  -11.2787 C   0  0  0  0  0  0
   -6.1364  -14.6605  -11.8519 N   0  0  0  0  0  0
   -5.2315  -14.0726  -11.0425 C   0  0  0  0  0  0
   -8.9028  -15.2229   -9.3177 C   0  0  0  0  0  0
   -9.2865  -16.5602   -9.3164 C   0  0  0  0  0  0
  -10.5308  -16.9346   -8.8289 C   0  0  0  0  0  0
   -9.8009  -14.2723   -8.8211 C   0  0  0  0  0  0
   -4.0336  -13.6932  -11.6209 N   0  0  0  0  0  0
   -6.6221  -14.0261   -7.6524 C   0  0  0  0  0  0
   -6.2693  -15.3191   -6.8976 C   0  0  0  0  0  0
   -8.2020  -15.6634  -12.1330 N   0  0  0  0  0  0
  -11.0700  -14.6294   -8.3236 C   0  0  0  0  0  0
  -11.4292  -15.9968   -8.3151 C   0  0  0  0  0  0
  -12.7219  -16.4739   -7.6660 C   0  0  0  0  0  0
  -13.7233  -15.3494   -7.4742 C   0  0  0  0  0  0
  -13.0308  -14.1025   -6.9426 C   0  0  0  0  0  0
  -11.9857  -13.6552   -7.8834 N   0  0  0  0  0  0
  -11.4800  -12.3242   -7.5292 C   0  0  0  0  0  0
  -12.4655  -11.2789   -6.9703 C   0  0  0  0  0  0
  -11.8695   -9.9641   -6.8213 N   0  0  0  0  0  0
  -10.7207   -9.6602   -6.2231 C   0  0  0  0  0  0
  -10.2733   -8.2330   -6.3533 C   0  0  0  0  0  0
  -10.0266  -10.4626   -5.6210 O   0  0  0  0  0  0
   -8.6173  -17.3158   -9.7022 H   0  0  0  0  0  0
  -10.7855  -17.9807   -8.8303 H   0  0  0  0  0  0
   -9.4941  -13.2397   -8.8672 H   0  0  0  0  0  0
   -3.2939  -13.3438  -11.0342 H   0  0  0  0  0  0
   -3.8682  -13.9916  -12.5788 H   0  0  0  0  0  0
   -5.9288  -13.2378   -7.3523 H   0  0  0  0  0  0
   -7.6035  -13.6616   -7.3586 H   0  0  0  0  0  0
   -6.2700  -15.1676   -5.8192 H   0  0  0  0  0  0
   -6.9845  -16.1124   -7.1163 H   0  0  0  0  0  0
   -5.2780  -15.6811   -7.1750 H   0  0  0  0  0  0
   -9.0661  -16.0210  -11.7566 H   0  0  0  0  0  0
   -7.9002  -15.9123  -13.0659 H   0  0  0  0  0  0
  -12.4731  -16.8683   -6.6830 H   0  0  0  0  0  0
  -13.1822  -17.2637   -8.2546 H   0  0  0  0  0  0
  -14.5306  -15.6637   -6.8120 H   0  0  0  0  0  0
  -14.1873  -15.1133   -8.4210 H   0  0  0  0  0  0
  -12.5349  -14.3162   -5.9935 H   0  0  0  0  0  0
  -13.7723  -13.3463   -6.6951 H   0  0  0  0  0  0
  -11.0503  -11.8924   -8.4338 H   0  0  0  0  0  0
  -10.6692  -12.4746   -6.8210 H   0  0  0  0  0  0
  -12.8886  -11.5821   -6.0208 H   0  0  0  0  0  0
  -13.3162  -11.1853   -7.6471 H   0  0  0  0  0  0
  -12.3513   -9.2284   -7.3326 H   0  0  0  0  0  0
   -9.8697   -8.0647   -7.3439 H   0  0  0  0  0  0
   -9.4888   -8.0631   -5.6212 H   0  0  0  0  0  0
  -11.1091   -7.5571   -6.1886 H   0  0  0  0  0  0
  1  6  1  0  0  0
  1  2  2  0  0  0
  2 12  1  0  0  0
  2  3  1  0  0  0
  3  4  2  0  0  0
  3  7  1  0  0  0
  4 14  1  0  0  0
  4  5  1  0  0  0
  5  6  2  0  0  0
  6 11  1  0  0  0
  7  8  2  0  0  0
  7 10  1  0  0  0
  8  9  1  0  0  0
  8 27  1  0  0  0
  9 16  2  0  0  0
  9 28  1  0  0  0
 10 15  2  0  0  0
 10 29  1  0  0  0
 11 30  1  0  0  0
 11 31  1  0  0  0
 12 13  1  0  0  0
 12 32  1  0  0  0
 12 33  1  0  0  0
 13 34  1  0  0  0
 13 35  1  0  0  0
 13 36  1  0  0  0
 14 37  1  0  0  0
 14 38  1  0  0  0
 15 16  1  0  0  0
 15 20  1  0  0  0
 16 17  1  0  0  0
 17 18  1  0  0  0
 17 39  1  0  0  0
 17 40  1  0  0  0
 18 19  1  0  0  0
 18 41  1  0  0  0
 18 42  1  0  0  0
 19 20  1  0  0  0
 19 43  1  0  0  0
 19 44  1  0  0  0
 20 21  1  0  0  0
 21 22  1  0  0  0
 21 45  1  0  0  0
 21 46  1  0  0  0
 22 23  1  0  0  0
 22 47  1  0  0  0
 22 48  1  0  0  0
 23 24  1  0  0  0
 23 49  1  0  0  0
 24 25  1  0  0  0
 24 26  2  0  0  0
 25 50  1  0  0  0
 25 51  1  0  0  0
 25 52  1  0  0  0
M  END
> <s_m_entry_id>
26218

> <s_m_entry_name>
dock_pv.42

> <s_m_Source_Path>
/home/csk/Desktop/cluster/DUD-E-result/reni

> <s_m_Source_File>
dock_pv.maegz

> <i_m_Source_File_Index>
42

> <chembl_id>
CHEMBL230367

> <chembl_pref_name>
None

> <i_lp_mmshare_version>
53161

> <r_lp_tautomer_probability>
0.999999624730965

> <s_lp_Force_Field>
OPLS_2005

> <r_lp_Energy>
11.814478

> <b_lp_Chiralities_Consistent>
1

> <s_lp_Variant>
CHEMBL286_lig1593-1

> <s_i_glide_gridfile>
glide-grid_3g6z

> <i_i_glide_lignum>
5297

> <i_i_glide_rotatable_bonds>
6

> <r_i_docking_score>
-8.46225773530527

> <r_i_glide_ligand_efficiency>
-0.325471451357895

> <r_i_glide_ligand_efficiency_sa>
-0.964207893979444

> <r_i_glide_ligand_efficiency_ln>
-1.98733346220404

> <r_i_glide_gscore>
-8.46225773530527

> <r_i_glide_lipo>
-2.99864909954627

> <r_i_glide_hbond>
-0.608

> <r_i_glide_metal>
0

> <r_i_glide_rewards>
-2.60265092799047

> <r_i_glide_evdw>
-30.9397201538086

> <r_i_glide_ecoul>
-8.36258411407471

> <r_i_glide_erotb>
0.608396107305869

> <r_i_glide_esite>
-0.059980190272759

> <r_i_glide_emodel>
-57.9403352739637

> <r_i_glide_energy>
-39.3023042678833

> <r_i_glide_einternal>
4.13462734222412

> <i_i_glide_confnum>
11

> <i_i_glide_posenum>
102

> <r_i_glide_eff_state_penalty>
0

> <s_user_duplicate_titles>
CHEMBL286_lig1593,384155

> <i_f3d_flags>
0

> <s_m_subgroup_title>
dock_pv

> <s_m_subgroupid>
dock_pv

> <b_m_subgroup_collapsed>
1

$$$$
CHEMBL286_lig2070
                    3D
 Schrodinger Suite 2021-1.
 82 87  0  0  1  0            999 V2000
  -12.4272  -10.5797   -6.8209 C   0  0  0  0  0  0
  -11.0662  -10.3176   -6.9707 C   0  0  0  0  0  0
  -10.2589  -11.2501   -7.6197 C   0  0  0  0  0  0
  -10.7982  -12.4493   -8.0838 C   0  0  0  0  0  0
  -12.1680  -12.7069   -7.9502 C   0  0  0  0  0  0
  -12.9854  -11.7501   -7.3337 C   0  0  0  0  0  0
  -10.4687   -9.0314   -6.4281 C   0  0  0  0  0  0
   -9.7426  -13.5976   -8.8215 Cl  0  0  0  0  0  0
  -14.6903  -11.9835   -7.2249 Cl  0  0  0  0  0  0
  -12.7043  -13.8610   -8.4738 O   0  0  0  0  0  0
  -13.0589  -14.8794   -7.5364 C   0  0  0  0  0  0
  -11.9934  -15.9829   -7.5371 C   0  0  0  0  0  0
  -11.8667  -16.4835   -8.8661 O   0  0  0  0  0  0
  -10.6489  -16.9520   -9.3139 C   0  0  0  0  0  0
  -10.5296  -17.1299  -10.6922 C   0  0  0  0  0  0
   -9.3322  -17.5712  -11.2445 C   0  0  0  0  0  0
   -8.2354  -17.8388  -10.4229 C   0  0  0  0  0  0
   -8.3617  -17.7041   -9.0387 C   0  0  0  0  0  0
   -9.5593  -17.2608   -8.4850 C   0  0  0  0  0  0
   -5.9993  -16.1422  -11.4453 C   0  0  0  0  0  0
   -5.1820  -15.4820  -10.5629 N   0  0  0  0  0  0
   -6.7860  -15.5521  -12.1890 O   0  0  0  0  0  0
   -5.1300  -14.0013  -10.6223 C   0  0  0  0  0  0
   -4.0417  -16.0966   -9.8428 C   0  0  0  0  0  0
   -5.0690  -13.2643   -9.2805 C   0  0  0  0  0  0
   -6.1557  -13.3991   -8.4102 C   0  0  0  0  0  0
   -6.1750  -12.7297   -7.1924 C   0  0  0  0  0  0
   -5.1052  -11.9155   -6.8342 C   0  0  0  0  0  0
   -4.0052  -11.7657   -7.6848 C   0  0  0  0  0  0
   -3.9780  -12.4457   -8.9184 C   0  0  0  0  0  0
   -2.7806  -12.3118   -9.8624 C   0  0  0  0  0  0
   -2.8741  -10.8496   -7.2344 C   0  0  0  0  0  0
   -3.9116  -15.9950   -8.3335 C   0  0  0  0  0  0
   -4.2099  -17.3249   -8.9683 C   0  0  0  0  0  0
   -6.8353  -19.8961  -10.9598 C   0  0  0  0  0  0
   -5.6000  -20.4393  -11.7324 C   0  0  1  0  0  0
   -5.8172  -20.6233  -13.2613 C   0  0  0  0  0  0
   -6.9921  -18.3735  -11.0210 C   0  0  0  0  0  0
   -5.9654  -17.5986  -11.4757 C   0  0  0  0  0  0
   -4.7099  -18.2546  -12.0791 C   0  0  2  0  0  0
   -4.8367  -18.4010  -13.6202 C   0  0  0  0  0  0
   -5.8689  -19.3681  -14.0199 N   0  0  2  0  0  0
   -4.4395  -19.5744  -11.4994 N   0  0  2  0  0  0
  -13.0662   -9.8476   -6.3537 H   0  0  0  0  0  0
   -9.2001  -11.0594   -7.7339 H   0  0  0  0  0  0
   -9.4727   -9.2172   -6.0223 H   0  0  0  0  0  0
  -10.3876   -8.2803   -7.2158 H   0  0  0  0  0  0
  -11.0682   -8.6274   -5.6111 H   0  0  0  0  0  0
  -14.0150  -15.3024   -7.8460 H   0  0  0  0  0  0
  -13.2095  -14.4951   -6.5252 H   0  0  0  0  0  0
  -12.2666  -16.7902   -6.8588 H   0  0  0  0  0  0
  -11.0695  -15.5433   -7.1654 H   0  0  0  0  0  0
  -11.3700  -16.9081  -11.3368 H   0  0  0  0  0  0
   -9.2540  -17.6931  -12.3171 H   0  0  0  0  0  0
   -7.5335  -17.9450   -8.3896 H   0  0  0  0  0  0
   -9.6275  -17.1783   -7.4116 H   0  0  0  0  0  0
   -6.0322  -13.6132  -11.0984 H   0  0  0  0  0  0
   -4.3202  -13.7071  -11.2880 H   0  0  0  0  0  0
   -3.1123  -16.0113  -10.4107 H   0  0  0  0  0  0
   -6.9841  -14.0370   -8.6787 H   0  0  0  0  0  0
   -7.0160  -12.8425   -6.5250 H   0  0  0  0  0  0
   -5.1308  -11.3995   -5.8864 H   0  0  0  0  0  0
   -2.4375  -13.2948  -10.1807 H   0  0  0  0  0  0
   -3.0609  -11.7541  -10.7557 H   0  0  0  0  0  0
   -1.9160  -11.8265   -9.4130 H   0  0  0  0  0  0
   -2.6834  -10.0848   -7.9867 H   0  0  0  0  0  0
   -1.9551  -11.4194   -7.0955 H   0  0  0  0  0  0
   -3.1005  -10.3382   -6.2971 H   0  0  0  0  0  0
   -2.9205  -15.8106   -7.9164 H   0  0  0  0  0  0
   -4.7012  -15.5467   -7.7300 H   0  0  0  0  0  0
   -5.2028  -17.7477   -8.8412 H   0  0  0  0  0  0
   -3.4342  -18.0910   -8.9952 H   0  0  0  0  0  0
   -6.7452  -20.1637   -9.9069 H   0  0  0  0  0  0
   -7.7571  -20.3863  -11.2724 H   0  0  0  0  0  0
   -5.3512  -21.4206  -11.3281 H   0  0  0  0  0  0
   -4.9742  -21.2001  -13.6442 H   0  0  0  0  0  0
   -6.7162  -21.2117  -13.4479 H   0  0  0  0  0  0
   -3.8321  -17.6403  -11.8780 H   0  0  0  0  0  0
   -5.0773  -17.4321  -14.0657 H   0  0  0  0  0  0
   -3.8687  -18.7030  -14.0211 H   0  0  0  0  0  0
   -6.7908  -18.9321  -14.0130 H   0  0  0  0  0  0
   -3.5962  -19.9874  -11.8719 H   0  0  0  0  0  0
  1  6  1  0  0  0
  1  2  2  0  0  0
  1 44  1  0  0  0
  2  3  1  0  0  0
  2  7  1  0  0  0
  3  4  2  0  0  0
  3 45  1  0  0  0
  4  8  1  0  0  0
  4  5  1  0  0  0
  5 10  1  0  0  0
  5  6  2  0  0  0
  6  9  1  0  0  0
  7 46  1  0  0  0
  7 47  1  0  0  0
  7 48  1  0  0  0
 10 11  1  0  0  0
 11 12  1  0  0  0
 11 49  1  0  0  0
 11 50  1  0  0  0
 12 13  1  0  0  0
 12 51  1  0  0  0
 12 52  1  0  0  0
 13 14  1  0  0  0
 14 15  2  0  0  0
 14 19  1  0  0  0
 15 16  1  0  0  0
 15 53  1  0  0  0
 16 17  2  0  0  0
 16 54  1  0  0  0
 17 18  1  0  0  0
 17 38  1  0  0  0
 18 19  2  0  0  0
 18 55  1  0  0  0
 19 56  1  0  0  0
 20 21  1  0  0  0
 20 22  2  0  0  0
 20 39  1  0  0  0
 21 23  1  0  0  0
 21 24  1  0  0  0
 23 25  1  0  0  0
 23 57  1  0  0  0
 23 58  1  0  0  0
 24 33  1  0  0  0
 24 34  1  0  0  0
 24 59  1  0  0  0
 25 26  2  0  0  0
 25 30  1  0  0  0
 26 27  1  0  0  0
 26 60  1  0  0  0
 27 28  2  0  0  0
 27 61  1  0  0  0
 28 29  1  0  0  0
 28 62  1  0  0  0
 29 30  2  0  0  0
 29 32  1  0  0  0
 30 31  1  0  0  0
 31 63  1  0  0  0
 31 64  1  0  0  0
 31 65  1  0  0  0
 32 66  1  0  0  0
 32 67  1  0  0  0
 32 68  1  0  0  0
 33 34  1  0  0  0
 33 69  1  0  0  0
 33 70  1  0  0  0
 34 71  1  0  0  0
 34 72  1  0  0  0
 35 36  1  0  0  0
 35 38  1  0  0  0
 35 73  1  0  0  0
 35 74  1  0  0  0
 36 37  1  0  0  0
 36 43  1  0  0  0
 36 75  1  0  0  0
 37 42  1  0  0  0
 37 76  1  0  0  0
 37 77  1  0  0  0
 38 39  2  0  0  0
 39 40  1  0  0  0
 40 41  1  0  0  0
 40 43  1  0  0  0
 40 78  1  0  0  0
 41 42  1  0  0  0
 41 79  1  0  0  0
 41 80  1  0  0  0
 42 81  1  0  0  0
 43 82  1  0  0  0
M  END
> <s_m_entry_id>
26219

> <s_m_entry_name>
dock_pv.43

> <s_m_Source_Path>
/home/csk/Desktop/cluster/DUD-E-result/reni

> <s_m_Source_File>
dock_pv.maegz

> <i_m_Source_File_Index>
43

> <chembl_id>
CHEMBL1783181

> <chembl_pref_name>
None

> <i_lp_mmshare_version>
53161

> <r_lp_tautomer_probability>
1

> <s_lp_Force_Field>
OPLS_2005

> <r_lp_Energy>
101.197945

> <b_lp_Chiralities_Consistent>
1

> <s_lp_Variant>
CHEMBL286_lig2070-1

> <s_i_glide_gridfile>
glide-grid_3g6z

> <i_i_glide_lignum>
5891

> <i_i_glide_rotatable_bonds>
11

> <r_i_docking_score>
-8.46058334708996

> <r_i_glide_ligand_efficiency>
-0.196757752257906

> <r_i_glide_ligand_efficiency_sa>
-0.689320726762175

> <r_i_glide_ligand_efficiency_ln>
-1.77698545356301

> <r_i_glide_gscore>
-8.46058334708996

> <r_i_glide_lipo>
-5.15950464425197

> <r_i_glide_hbond>
-0.362534792572591

> <r_i_glide_metal>
0

> <r_i_glide_rewards>
0.432235656322804

> <r_i_glide_evdw>
-59.0891342163086

> <r_i_glide_ecoul>
-5.90694427490234

> <r_i_glide_erotb>
0.470472132545293

> <r_i_glide_esite>
-0.000753347082708919

> <r_i_glide_emodel>
-94.348295964831

> <r_i_glide_energy>
-64.9960784912109

> <r_i_glide_einternal>
5.70968914031982

> <i_i_glide_confnum>
10

> <i_i_glide_posenum>
227

> <r_i_glide_eff_state_penalty>
0

> <s_user_duplicate_titles>
CHEMBL286_lig2070

> <i_f3d_flags>
0

> <s_m_subgroup_title>
dock_pv

> <s_m_subgroupid>
dock_pv

> <b_m_subgroup_collapsed>
1

$$$$
CHEMBL286_lig1542
                    3D
 Schrodinger Suite 2021-1.
 83 87  0  0  1  0            999 V2000
   -7.0803  -18.6490  -11.5965 N   0  0  0  0  0  0
   -4.2707  -13.2941   -9.3805 C   0  0  0  0  0  0
   -6.7503  -19.9778  -11.5104 C   0  0  0  0  0  0
   -3.6497  -12.1652   -9.9302 N   0  0  0  0  0  0
   -6.3474  -17.6594  -12.4476 C   0  0  1  0  0  0
   -4.3989  -14.4546  -10.1460 C   0  0  0  0  0  0
   -8.1542  -18.1296  -10.8387 C   0  0  0  0  0  0
   -5.4692  -19.6639  -13.6209 N   0  0  2  0  0  0
   -4.8114  -13.2711   -8.0710 C   0  0  0  0  0  0
  -12.1666  -11.9850   -7.7963 C   0  0  0  0  0  0
   -7.3494  -20.7887  -10.7989 O   0  0  0  0  0  0
   -5.8861  -16.3708  -11.7483 C   0  0  0  0  0  0
  -10.8014  -12.1786   -8.0845 C   0  0  0  0  0  0
   -5.1025  -15.5614   -9.6825 C   0  0  0  0  0  0
   -8.0865  -18.0964   -9.4394 C   0  0  0  0  0  0
   -9.2615  -17.5882  -11.4943 C   0  0  0  0  0  0
   -5.5024  -14.3985   -7.6100 C   0  0  0  0  0  0
   -5.2851  -16.6616  -10.4833 O   0  0  0  0  0  0
   -5.5577  -20.4439  -12.3864 C   0  0  0  0  0  0
   -5.2273  -18.2654  -13.3294 C   0  0  0  0  0  0
  -10.2063  -16.9402   -9.3739 C   0  0  0  0  0  0
   -5.6450  -15.5359   -8.4023 C   0  0  0  0  0  0
  -10.2779  -16.9950  -10.7602 C   0  0  0  0  0  0
   -9.1093  -17.4991   -8.7055 C   0  0  0  0  0  0
   -3.4359  -10.9599   -9.1134 C   0  0  0  0  0  0
   -2.8929  -12.1397  -11.1984 C   0  0  0  0  0  0
  -10.4238  -13.2864   -8.8208 O   0  0  0  0  0  0
  -13.0672  -16.3474   -7.2959 C   0  0  0  0  0  0
  -11.2445  -16.2779   -8.7676 O   0  0  0  0  0  0
  -13.2641  -12.8073   -8.4809 C   0  0  0  0  0  0
   -4.6680  -12.7937  -12.8208 O   0  0  0  0  0  0
   -4.4814  -10.7874   -7.9956 C   0  0  0  0  0  0
  -13.0501  -14.2121   -8.4169 O   0  0  0  0  0  0
   -4.6096  -12.0635   -7.1593 C   0  0  0  0  0  0
  -12.5500  -10.9428   -6.9432 C   0  0  0  0  0  0
  -11.5450  -16.4934   -7.3978 C   0  0  0  0  0  0
  -13.5188  -14.8780   -7.2523 C   0  0  0  0  0  0
   -9.8733  -11.2314   -7.6209 C   0  0  0  0  0  0
   -3.7334  -11.7966  -12.4540 C   0  0  0  0  0  0
   -9.0376  -13.5948   -8.9794 C   0  0  0  0  0  0
  -11.6035  -10.0596   -6.4221 C   0  0  0  0  0  0
  -10.2694  -10.1848   -6.7896 C   0  0  0  0  0  0
   -7.0834  -17.3410  -13.1813 H   0  0  0  0  0  0
   -3.9653  -14.5021  -11.1304 H   0  0  0  0  0  0
   -6.2910  -19.7693  -14.2119 H   0  0  0  0  0  0
   -5.2078  -15.8178  -12.3994 H   0  0  0  0  0  0
   -6.7585  -15.7292  -11.5995 H   0  0  0  0  0  0
   -7.2276  -18.5076   -8.9279 H   0  0  0  0  0  0
   -9.3391  -17.6079  -12.5676 H   0  0  0  0  0  0
   -5.9264  -14.3999   -6.6165 H   0  0  0  0  0  0
   -4.6440  -20.3552  -11.7978 H   0  0  0  0  0  0
   -5.6907  -21.4997  -12.6279 H   0  0  0  0  0  0
   -4.2640  -18.1734  -12.8231 H   0  0  0  0  0  0
   -5.1501  -17.7013  -14.2615 H   0  0  0  0  0  0
   -6.1825  -16.3932   -8.0249 H   0  0  0  0  0  0
  -11.1301  -16.5580  -11.2587 H   0  0  0  0  0  0
   -9.0267  -17.4511   -7.6310 H   0  0  0  0  0  0
   -2.5150  -11.1823   -8.5720 H   0  0  0  0  0  0
   -3.2149  -10.0633   -9.6847 H   0  0  0  0  0  0
   -2.1448  -11.3483  -11.1240 H   0  0  0  0  0  0
   -2.2533  -13.0092  -11.3560 H   0  0  0  0  0  0
  -13.4344  -16.8736   -6.4210 H   0  0  0  0  0  0
  -13.5413  -16.8500   -8.1394 H   0  0  0  0  0  0
  -14.2653  -12.5407   -8.1341 H   0  0  0  0  0  0
  -13.2310  -12.5354   -9.5364 H   0  0  0  0  0  0
   -4.2081  -13.5030  -13.2938 H   0  0  0  0  0  0
   -4.2143   -9.9382   -7.3658 H   0  0  0  0  0  0
   -5.4497  -10.5246   -8.4223 H   0  0  0  0  0  0
   -5.4214  -11.9658   -6.4377 H   0  0  0  0  0  0
   -3.6966  -12.2091   -6.5789 H   0  0  0  0  0  0
  -13.5929  -10.7846   -6.7077 H   0  0  0  0  0  0
  -11.0690  -15.7449   -6.7684 H   0  0  0  0  0  0
  -11.2156  -17.4709   -7.0445 H   0  0  0  0  0  0
  -13.1484  -14.3924   -6.3479 H   0  0  0  0  0  0
  -14.6080  -14.8626   -7.2214 H   0  0  0  0  0  0
   -8.8224  -11.3114   -7.8552 H   0  0  0  0  0  0
   -4.2690  -10.8632  -12.3140 H   0  0  0  0  0  0
   -3.0669  -11.6292  -13.3002 H   0  0  0  0  0  0
   -8.9305  -14.5542   -9.4800 H   0  0  0  0  0  0
   -8.5191  -12.8643   -9.5956 H   0  0  0  0  0  0
   -8.5233  -13.6631   -8.0213 H   0  0  0  0  0  0
  -11.9139   -9.2493   -5.7795 H   0  0  0  0  0  0
   -9.5367   -9.4825   -6.4186 H   0  0  0  0  0  0
  1  3  1  0  0  0
  1  5  1  0  0  0
  1  7  1  0  0  0
  2  6  2  0  0  0
  2  4  1  0  0  0
  2  9  1  0  0  0
  3 11  2  0  0  0
  3 19  1  0  0  0
  4 25  1  0  0  0
  4 26  1  0  0  0
  5 12  1  0  0  0
  5 20  1  0  0  0
  5 43  1  0  0  0
  6 14  1  0  0  0
  6 44  1  0  0  0
  7 15  2  0  0  0
  7 16  1  0  0  0
  8 20  1  0  0  0
  8 19  1  0  0  0
  8 45  1  0  0  0
  9 17  2  0  0  0
  9 34  1  0  0  0
 10 30  1  0  0  0
 10 13  2  0  0  0
 10 35  1  0  0  0
 12 18  1  0  0  0
 12 46  1  0  0  0
 12 47  1  0  0  0
 13 27  1  0  0  0
 13 38  1  0  0  0
 14 18  1  0  0  0
 14 22  2  0  0  0
 15 24  1  0  0  0
 15 48  1  0  0  0
 16 23  2  0  0  0
 16 49  1  0  0  0
 17 22  1  0  0  0
 17 50  1  0  0  0
 19 51  1  0  0  0
 19 52  1  0  0  0
 20 53  1  0  0  0
 20 54  1  0  0  0
 21 23  1  0  0  0
 21 29  1  0  0  0
 21 24  2  0  0  0
 22 55  1  0  0  0
 23 56  1  0  0  0
 24 57  1  0  0  0
 25 32  1  0  0  0
 25 58  1  0  0  0
 25 59  1  0  0  0
 26 39  1  0  0  0
 26 60  1  0  0  0
 26 61  1  0  0  0
 27 40  1  0  0  0
 28 36  1  0  0  0
 28 37  1  0  0  0
 28 62  1  0  0  0
 28 63  1  0  0  0
 29 36  1  0  0  0
 30 33  1  0  0  0
 30 64  1  0  0  0
 30 65  1  0  0  0
 31 39  1  0  0  0
 31 66  1  0  0  0
 32 34  1  0  0  0
 32 67  1  0  0  0
 32 68  1  0  0  0
 33 37  1  0  0  0
 34 69  1  0  0  0
 34 70  1  0  0  0
 35 41  2  0  0  0
 35 71  1  0  0  0
 36 72  1  0  0  0
 36 73  1  0  0  0
 37 74  1  0  0  0
 37 75  1  0  0  0
 38 42  2  0  0  0
 38 76  1  0  0  0
 39 77  1  0  0  0
 39 78  1  0  0  0
 40 79  1  0  0  0
 40 80  1  0  0  0
 40 81  1  0  0  0
 41 42  1  0  0  0
 41 82  1  0  0  0
 42 83  1  0  0  0
M  END
> <s_m_entry_id>
26220

> <s_m_entry_name>
dock_pv.44

> <s_m_Source_Path>
/home/csk/Desktop/cluster/DUD-E-result/reni

> <s_m_Source_File>
dock_pv.maegz

> <i_m_Source_File_Index>
44

> <chembl_id>
CHEMBL196416

> <chembl_pref_name>
None

> <i_lp_mmshare_version>
53161

> <r_lp_tautomer_probability>
1

> <s_lp_Force_Field>
OPLS_2005

> <r_lp_Energy>
64.816171

> <b_lp_Chiralities_Consistent>
1

> <s_lp_Variant>
CHEMBL286_lig1542-1

> <s_i_glide_gridfile>
glide-grid_3g6z

> <i_i_glide_lignum>
5246

> <i_i_glide_rotatable_bonds>
15

> <r_i_docking_score>
-8.44811420193234

> <r_i_glide_ligand_efficiency>
-0.201145576236484

> <r_i_glide_ligand_efficiency_sa>
-0.699187381627948

> <r_i_glide_ligand_efficiency_ln>
-1.78317925955196

> <r_i_glide_gscore>
-8.44811420193234

> <r_i_glide_lipo>
-5.23862521430403

> <r_i_glide_hbond>
-0.608

> <r_i_glide_metal>
0

> <r_i_glide_rewards>
1.24481689297841

> <r_i_glide_evdw>
-54.4615898132324

> <r_i_glide_ecoul>
-12.0825462341309

> <r_i_glide_erotb>
0.723427832004006

> <r_i_glide_esite>
-0.0342722868294853

> <r_i_glide_emodel>
-89.111571624455

> <r_i_glide_energy>
-66.5441360473633

> <r_i_glide_einternal>
13.1185522079468

> <i_i_glide_confnum>
100

> <i_i_glide_posenum>
371

> <r_i_glide_eff_state_penalty>
0

> <s_user_duplicate_titles>
CHEMBL286_lig1542,325297

> <i_f3d_flags>
0

> <s_m_subgroup_title>
dock_pv

> <s_m_subgroupid>
dock_pv

> <b_m_subgroup_collapsed>
1

$$$$
CHEMBL286_lig649
                    3D
 Schrodinger Suite 2021-1.
 92 95  0  0  1  0            999 V2000
  -10.8486  -16.5931   -8.3927 C   0  0  0  0  0  0
    0.7268  -13.1217   -7.4446 N   0  0  0  0  0  0
    0.3223  -14.3022   -7.9040 C   0  0  0  0  0  0
  -11.9093  -15.6908   -8.1849 N   0  0  0  0  0  0
   -4.9561  -17.1216  -10.4906 C   0  0  0  0  0  0
   -8.1148  -16.4968  -10.2548 C   0  0  0  0  0  0
   -7.2678  -16.6677  -11.2928 N   0  0  0  0  0  0
   -5.8618  -16.2415  -11.3826 C   0  0  1  0  0  0
    0.3939  -14.4630   -9.2157 N   0  0  0  0  0  0
   -3.6413  -17.0075  -10.7254 N   0  0  0  0  0  0
  -10.4852  -16.6659   -9.7029 O   0  0  0  0  0  0
   -9.3540  -17.4252  -10.1570 C   0  0  1  0  0  0
    0.8224  -13.2691   -9.6210 N   0  0  0  0  0  0
   -2.5793  -17.5328   -9.8554 C   0  0  2  0  0  0
    1.0288  -12.4690   -8.5366 C   0  0  0  0  0  0
   -0.2875  -15.5385   -6.7907 S   0  0  0  0  0  0
   -2.1162  -16.4326   -8.8444 C   0  0  2  0  0  0
  -10.3016  -17.2619   -7.5108 O   0  0  0  0  0  0
  -12.4864  -15.5905   -6.8305 C   0  0  0  0  0  0
  -12.4782  -14.8674   -9.2772 C   0  0  0  0  0  0
   -5.4288  -17.8568   -9.6220 O   0  0  0  0  0  0
   -7.8956  -15.6949   -9.3425 O   0  0  0  0  0  0
   -9.7583  -18.1590  -11.4576 C   0  0  0  0  0  0
   -1.4318  -18.1240  -10.7239 C   0  0  0  0  0  0
   -0.9229  -16.8172   -7.9336 C   0  0  0  0  0  0
  -12.5366  -13.3968   -8.8196 C   0  0  0  0  0  0
  -12.5975  -14.1048   -6.4256 C   0  0  0  0  0  0
  -13.2834  -13.2354   -7.4873 C   0  0  0  0  0  0
  -10.5912  -19.4147  -11.2220 C   0  0  0  0  0  0
   -5.6055  -14.7307  -11.1101 C   0  0  0  0  0  0
  -13.4371  -11.8509   -7.0869 N   0  0  0  0  0  0
   -6.2707  -13.6597  -12.4193 S   0  0  0  0  0  0
   -3.1954  -16.0058   -8.0211 O   0  0  0  0  0  0
   -1.8251  -19.2254  -11.7475 C   0  0  0  0  0  0
   -4.8889  -12.4920  -12.5818 C   0  0  0  0  0  0
  -11.9862  -19.3350  -11.2211 C   0  0  0  0  0  0
   -9.9608  -20.6612  -11.1628 C   0  0  0  0  0  0
   -0.5804  -19.7019  -12.5401 C   0  0  0  0  0  0
   -2.5170  -20.4426  -11.0808 C   0  0  0  0  0  0
  -10.7231  -21.8270  -11.1675 C   0  0  0  0  0  0
  -12.7492  -20.5026  -11.2211 C   0  0  0  0  0  0
   -2.8586  -21.5560  -12.0908 C   0  0  0  0  0  0
   -0.8958  -20.8327  -13.5455 C   0  0  0  0  0  0
  -12.1134  -21.7426  -11.2207 C   0  0  0  0  0  0
   -1.6092  -22.0141  -12.8649 C   0  0  0  0  0  0
   -7.5554  -17.2851  -12.0419 H   0  0  0  0  0  0
   -5.5625  -16.4498  -12.4130 H   0  0  0  0  0  0
   -3.3417  -16.4135  -11.4851 H   0  0  0  0  0  0
   -9.0539  -18.1851   -9.4304 H   0  0  0  0  0  0
    0.9326  -13.0221  -10.5999 H   0  0  0  0  0  0
   -2.9634  -18.3581   -9.2510 H   0  0  0  0  0  0
    1.3732  -11.4499   -8.6387 H   0  0  0  0  0  0
   -1.8382  -15.5599   -9.4321 H   0  0  0  0  0  0
  -13.4371  -16.1286   -6.8215 H   0  0  0  0  0  0
  -11.8403  -16.0619   -6.0885 H   0  0  0  0  0  0
  -11.8831  -14.9028  -10.1866 H   0  0  0  0  0  0
  -13.4618  -15.2632   -9.5188 H   0  0  0  0  0  0
  -10.2990  -17.4874  -12.1272 H   0  0  0  0  0  0
   -8.8941  -18.4748  -12.0399 H   0  0  0  0  0  0
   -0.9397  -17.3081  -11.2512 H   0  0  0  0  0  0
   -0.6764  -18.5572  -10.0680 H   0  0  0  0  0  0
   -0.0679  -17.1174   -8.5384 H   0  0  0  0  0  0
   -1.1872  -17.6905   -7.3369 H   0  0  0  0  0  0
  -11.5260  -12.9946   -8.7427 H   0  0  0  0  0  0
  -13.0325  -12.8115   -9.5951 H   0  0  0  0  0  0
  -13.1567  -14.0631   -5.4932 H   0  0  0  0  0  0
  -11.5980  -13.7229   -6.2122 H   0  0  0  0  0  0
  -14.2810  -13.6479   -7.6230 H   0  0  0  0  0  0
   -6.0069  -14.4068  -10.1518 H   0  0  0  0  0  0
   -4.5349  -14.5366  -11.0490 H   0  0  0  0  0  0
  -12.5286  -11.4382   -6.9219 H   0  0  0  0  0  0
  -13.8616  -11.3150   -7.8289 H   0  0  0  0  0  0
   -3.4662  -16.7206   -7.4304 H   0  0  0  0  0  0
   -2.5239  -18.8171  -12.4792 H   0  0  0  0  0  0
   -5.0689  -11.7700  -13.3759 H   0  0  0  0  0  0
   -4.7370  -11.9489  -11.6499 H   0  0  0  0  0  0
   -3.9643  -13.0146  -12.8190 H   0  0  0  0  0  0
  -12.4681  -18.3707  -11.2823 H   0  0  0  0  0  0
   -8.8815  -20.7323  -11.1750 H   0  0  0  0  0  0
   -0.1087  -18.8600  -13.0455 H   0  0  0  0  0  0
    0.1786  -20.0610  -11.8443 H   0  0  0  0  0  0
   -1.8689  -20.8487  -10.3036 H   0  0  0  0  0  0
   -3.4212  -20.1297  -10.5562 H   0  0  0  0  0  0
  -10.2369  -22.7924  -11.1579 H   0  0  0  0  0  0
  -13.8280  -20.4627  -11.2599 H   0  0  0  0  0  0
   -3.6131  -21.1925  -12.7908 H   0  0  0  0  0  0
   -3.3055  -22.4051  -11.5732 H   0  0  0  0  0  0
   -1.5275  -20.4631  -14.3509 H   0  0  0  0  0  0
    0.0255  -21.1752  -14.0187 H   0  0  0  0  0  0
  -12.7040  -22.6453  -11.2423 H   0  0  0  0  0  0
   -1.8814  -22.7654  -13.6068 H   0  0  0  0  0  0
   -0.9158  -22.4970  -12.1747 H   0  0  0  0  0  0
  1  4  1  0  0  0
  1 11  1  0  0  0
  1 18  2  0  0  0
  2  3  1  0  0  0
  2 15  2  0  0  0
  3 16  1  0  0  0
  3  9  2  0  0  0
  4 19  1  0  0  0
  4 20  1  0  0  0
  5  8  1  0  0  0
  5 10  1  0  0  0
  5 21  2  0  0  0
  6 12  1  0  0  0
  6  7  1  0  0  0
  6 22  2  0  0  0
  7  8  1  0  0  0
  7 46  1  0  0  0
  8 30  1  0  0  0
  8 47  1  0  0  0
  9 13  1  0  0  0
 10 14  1  0  0  0
 10 48  1  0  0  0
 11 12  1  0  0  0
 12 23  1  0  0  0
 12 49  1  0  0  0
 13 15  1  0  0  0
 13 50  1  0  0  0
 14 17  1  0  0  0
 14 24  1  0  0  0
 14 51  1  0  0  0
 15 52  1  0  0  0
 16 25  1  0  0  0
 17 25  1  0  0  0
 17 33  1  0  0  0
 17 53  1  0  0  0
 19 27  1  0  0  0
 19 54  1  0  0  0
 19 55  1  0  0  0
 20 26  1  0  0  0
 20 56  1  0  0  0
 20 57  1  0  0  0
 23 29  1  0  0  0
 23 58  1  0  0  0
 23 59  1  0  0  0
 24 34  1  0  0  0
 24 60  1  0  0  0
 24 61  1  0  0  0
 25 62  1  0  0  0
 25 63  1  0  0  0
 26 28  1  0  0  0
 26 64  1  0  0  0
 26 65  1  0  0  0
 27 28  1  0  0  0
 27 66  1  0  0  0
 27 67  1  0  0  0
 28 31  1  0  0  0
 28 68  1  0  0  0
 29 36  2  0  0  0
 29 37  1  0  0  0
 30 32  1  0  0  0
 30 69  1  0  0  0
 30 70  1  0  0  0
 31 71  1  0  0  0
 31 72  1  0  0  0
 32 35  1  0  0  0
 33 73  1  0  0  0
 34 38  1  0  0  0
 34 39  1  0  0  0
 34 74  1  0  0  0
 35 75  1  0  0  0
 35 76  1  0  0  0
 35 77  1  0  0  0
 36 41  1  0  0  0
 36 78  1  0  0  0
 37 40  2  0  0  0
 37 79  1  0  0  0
 38 43  1  0  0  0
 38 80  1  0  0  0
 38 81  1  0  0  0
 39 42  1  0  0  0
 39 82  1  0  0  0
 39 83  1  0  0  0
 40 44  1  0  0  0
 40 84  1  0  0  0
 41 44  2  0  0  0
 41 85  1  0  0  0
 42 45  1  0  0  0
 42 86  1  0  0  0
 42 87  1  0  0  0
 43 45  1  0  0  0
 43 88  1  0  0  0
 43 89  1  0  0  0
 44 90  1  0  0  0
 45 91  1  0  0  0
 45 92  1  0  0  0
M  END
> <s_m_entry_id>
26221

> <s_m_entry_name>
dock_pv.45

> <s_m_Source_Path>
/home/csk/Desktop/cluster/DUD-E-result/reni

> <s_m_Source_File>
dock_pv.maegz

> <i_m_Source_File_Index>
45

> <chembl_id>
CHEMBL118178

> <chembl_pref_name>
None

> <i_lp_mmshare_version>
53161

> <r_lp_tautomer_probability>
0.426694473139324

> <s_lp_Force_Field>
OPLS_2005

> <r_lp_Energy>
38.508811

> <b_lp_Chiralities_Consistent>
1

> <s_lp_Variant>
CHEMBL286_lig649-2

> <s_i_glide_gridfile>
glide-grid_3g6z

> <i_i_glide_lignum>
1845

> <i_i_glide_rotatable_bonds>
20

> <r_i_docking_score>
-8.42869800719943

> <r_i_glide_ligand_efficiency>
-0.187304400159987

> <r_i_glide_ligand_efficiency_sa>
-0.666221765985226

> <r_i_glide_ligand_efficiency_ln>
-1.75354479852447

> <r_i_glide_gscore>
-8.42869800719943

> <r_i_glide_lipo>
-3.41837920541685

> <r_i_glide_hbond>
-0.304

> <r_i_glide_metal>
0

> <r_i_glide_rewards>
-1.24376975364303

> <r_i_glide_evdw>
-55.9555702209473

> <r_i_glide_ecoul>
-8.13129234313965

> <r_i_glide_erotb>
0.571471616279067

> <r_i_glide_esite>
-0.0165483019003019

> <r_i_glide_emodel>
-91.8435991476731

> <r_i_glide_energy>
-64.0868625640869

> <r_i_glide_einternal>
10.8879480361938

> <i_i_glide_confnum>
3

> <i_i_glide_posenum>
162

> <r_i_glide_eff_state_penalty>
0

> <s_user_duplicate_titles>
CHEMBL286_lig649

> <i_f3d_flags>
0

> <s_m_subgroup_title>
dock_pv

> <s_m_subgroupid>
dock_pv

> <b_m_subgroup_collapsed>
1

$$$$
CHEMBL286_lig1957
                    3D
 Schrodinger Suite 2021-1.
 83 88  0  0  1  0            999 V2000
   -6.6057  -12.8627   -7.8422 C   0  0  0  0  0  0
   -5.9490  -11.6641   -7.1327 C   0  0  0  0  0  0
   -4.7337  -12.0628   -6.4219 N   0  0  1  0  0  0
   -3.7348  -12.5488   -7.3777 C   0  0  0  0  0  0
   -4.2838  -13.8226   -8.0833 C   0  0  1  0  0  0
   -5.6503  -13.6239   -8.7945 C   0  0  1  0  0  0
   -6.2903  -14.9166   -9.3165 C   0  0  0  0  0  0
   -3.2261  -14.5807   -8.9352 C   0  0  0  0  0  0
   -2.4601  -13.9442   -9.8726 N   0  0  0  0  0  0
   -3.0900  -15.7852   -8.7063 O   0  0  0  0  0  0
   -2.7924  -12.5900  -10.3796 C   0  0  0  0  0  0
   -1.3725  -14.6849  -10.5670 C   0  0  0  0  0  0
   -0.1994  -15.2323   -9.7393 C   0  0  0  0  0  0
   -0.0715  -14.9611   -8.3704 C   0  0  0  0  0  0
    0.9166  -15.6147   -7.6342 C   0  0  0  0  0  0
    1.8348  -16.4386   -8.2005 N   0  0  0  0  0  0
    1.7524  -16.6394   -9.5404 C   0  0  0  0  0  0
    0.7501  -16.0790  -10.3370 C   0  0  0  0  0  0
    0.7076  -16.4633  -12.0213 Cl  0  0  0  0  0  0
   -6.5849  -15.0711  -10.6775 C   0  0  0  0  0  0
   -7.2174  -16.2280  -11.1296 C   0  0  0  0  0  0
   -7.5721  -17.2274  -10.2246 C   0  0  0  0  0  0
   -7.2199  -17.1014   -8.8783 C   0  0  0  0  0  0
   -6.5905  -15.9511   -8.4242 C   0  0  0  0  0  0
   -8.3156  -18.2977  -10.6855 O   0  0  0  0  0  0
   -9.4246  -18.7274   -9.8832 C   0  0  0  0  0  0
  -10.3394  -17.5650   -9.5302 C   0  0  0  0  0  0
  -10.3903  -16.6673   -8.4840 C   0  0  0  0  0  0
  -11.2935  -15.6877   -8.8845 C   0  0  0  0  0  0
  -11.8691  -16.0233  -10.0183 N   0  0  0  0  0  0
  -11.2617  -17.2008  -10.4508 O   0  0  0  0  0  0
  -11.5428  -14.3486   -8.2715 C   0  0  0  0  0  0
  -12.7378  -14.0055   -7.6174 C   0  0  0  0  0  0
  -12.9567  -12.6779   -7.2210 C   0  0  0  0  0  0
  -11.9668  -11.7157   -7.4066 C   0  0  0  0  0  0
  -10.7539  -12.0683   -7.9855 C   0  0  0  0  0  0
  -10.5461  -13.3752   -8.4212 C   0  0  0  0  0  0
  -13.9245  -15.2172   -7.2689 Cl  0  0  0  0  0  0
  -14.1237  -12.2962   -6.6577 F   0  0  0  0  0  0
   -9.3739  -13.6900   -9.0175 F   0  0  0  0  0  0
   -1.6996  -11.6013  -10.6998 C   0  0  0  0  0  0
   -2.5538  -12.1816  -11.8167 C   0  0  0  0  0  0
    0.8875  -15.5507   -6.1177 C   0  0  0  0  0  0
   -0.2299  -16.4548   -5.5585 C   0  0  0  0  0  0
   -0.4523  -16.3179   -4.0438 C   0  0  0  0  0  0
   -1.6189  -17.0182   -3.6215 O   0  0  0  0  0  0
   -1.4955  -18.4351   -3.6157 C   0  0  0  0  0  0
   -7.4234  -12.4422   -8.4213 H   0  0  0  0  0  0
   -7.0595  -13.5129   -7.0934 H   0  0  0  0  0  0
   -5.7148  -10.8775   -7.8529 H   0  0  0  0  0  0
   -6.6554  -11.2422   -6.4217 H   0  0  0  0  0  0
   -4.3694  -11.2812   -5.8886 H   0  0  0  0  0  0
   -2.7675  -12.7242   -6.9056 H   0  0  0  0  0  0
   -3.5982  -11.7161   -8.0630 H   0  0  0  0  0  0
   -4.4459  -14.5234   -7.2604 H   0  0  0  0  0  0
   -5.5057  -13.0000   -9.6727 H   0  0  0  0  0  0
   -3.7072  -12.1697   -9.9824 H   0  0  0  0  0  0
   -0.9169  -14.0686  -11.3316 H   0  0  0  0  0  0
   -1.8335  -15.5251  -11.0893 H   0  0  0  0  0  0
   -0.7762  -14.3270   -7.8572 H   0  0  0  0  0  0
    2.4915  -17.3005   -9.9676 H   0  0  0  0  0  0
   -6.3442  -14.2911  -11.3848 H   0  0  0  0  0  0
   -7.4779  -16.3305  -12.1734 H   0  0  0  0  0  0
   -7.4702  -17.8789   -8.1727 H   0  0  0  0  0  0
   -6.3551  -15.8563   -7.3739 H   0  0  0  0  0  0
   -9.9748  -19.4566  -10.4799 H   0  0  0  0  0  0
   -9.0831  -19.2887   -9.0126 H   0  0  0  0  0  0
   -9.7542  -16.6571   -7.6134 H   0  0  0  0  0  0
  -12.1412  -10.6973   -7.0918 H   0  0  0  0  0  0
   -9.9802  -11.3254   -8.1025 H   0  0  0  0  0  0
   -1.8406  -10.5640  -10.4027 H   0  0  0  0  0  0
   -0.6694  -11.9191  -10.5564 H   0  0  0  0  0  0
   -2.1439  -12.8970  -12.5288 H   0  0  0  0  0  0
   -3.3029  -11.5508  -12.2959 H   0  0  0  0  0  0
    0.7204  -14.5145   -5.8205 H   0  0  0  0  0  0
    1.8577  -15.8307   -5.7040 H   0  0  0  0  0  0
   -0.0025  -17.4915   -5.8122 H   0  0  0  0  0  0
   -1.1720  -16.2236   -6.0600 H   0  0  0  0  0  0
   -0.6098  -15.2654   -3.8004 H   0  0  0  0  0  0
    0.4236  -16.6362   -3.4773 H   0  0  0  0  0  0
   -2.4143  -18.8634   -3.2210 H   0  0  0  0  0  0
   -0.6768  -18.7649   -2.9752 H   0  0  0  0  0  0
   -1.3531  -18.8434   -4.6170 H   0  0  0  0  0  0
  1  2  1  0  0  0
  1  6  1  0  0  0
  1 48  1  0  0  0
  1 49  1  0  0  0
  2  3  1  0  0  0
  2 50  1  0  0  0
  2 51  1  0  0  0
  3  4  1  0  0  0
  3 52  1  0  0  0
  4  5  1  0  0  0
  4 53  1  0  0  0
  4 54  1  0  0  0
  5  6  1  0  0  0
  5  8  1  0  0  0
  5 55  1  0  0  0
  6  7  1  0  0  0
  6 56  1  0  0  0
  7 24  1  0  0  0
  7 20  2  0  0  0
  8  9  1  0  0  0
  8 10  2  0  0  0
  9 12  1  0  0  0
  9 11  1  0  0  0
 11 41  1  0  0  0
 11 42  1  0  0  0
 11 57  1  0  0  0
 12 13  1  0  0  0
 12 58  1  0  0  0
 12 59  1  0  0  0
 13 14  2  0  0  0
 13 18  1  0  0  0
 14 15  1  0  0  0
 14 60  1  0  0  0
 15 16  2  0  0  0
 15 43  1  0  0  0
 16 17  1  0  0  0
 17 18  2  0  0  0
 17 61  1  0  0  0
 18 19  1  0  0  0
 20 21  1  0  0  0
 20 62  1  0  0  0
 21 22  2  0  0  0
 21 63  1  0  0  0
 22 23  1  0  0  0
 22 25  1  0  0  0
 23 24  2  0  0  0
 23 64  1  0  0  0
 24 65  1  0  0  0
 25 26  1  0  0  0
 26 27  1  0  0  0
 26 66  1  0  0  0
 26 67  1  0  0  0
 27 28  2  0  0  0
 27 31  1  0  0  0
 28 29  1  0  0  0
 28 68  1  0  0  0
 29 30  2  0  0  0
 29 32  1  0  0  0
 30 31  1  0  0  0
 32 33  2  0  0  0
 32 37  1  0  0  0
 33 34  1  0  0  0
 33 38  1  0  0  0
 34 35  2  0  0  0
 34 39  1  0  0  0
 35 36  1  0  0  0
 35 69  1  0  0  0
 36 37  2  0  0  0
 36 70  1  0  0  0
 37 40  1  0  0  0
 41 42  1  0  0  0
 41 71  1  0  0  0
 41 72  1  0  0  0
 42 73  1  0  0  0
 42 74  1  0  0  0
 43 44  1  0  0  0
 43 75  1  0  0  0
 43 76  1  0  0  0
 44 45  1  0  0  0
 44 77  1  0  0  0
 44 78  1  0  0  0
 45 46  1  0  0  0
 45 79  1  0  0  0
 45 80  1  0  0  0
 46 47  1  0  0  0
 47 81  1  0  0  0
 47 82  1  0  0  0
 47 83  1  0  0  0
M  END
> <s_m_entry_id>
26222

> <s_m_entry_name>
dock_pv.46

> <s_m_Source_Path>
/home/csk/Desktop/cluster/DUD-E-result/reni

> <s_m_Source_File>
dock_pv.maegz

> <i_m_Source_File_Index>
46

> <chembl_id>
CHEMBL1269752

> <chembl_pref_name>
None

> <i_lp_mmshare_version>
53161

> <r_lp_tautomer_probability>
1

> <s_lp_Force_Field>
OPLS_2005

> <r_lp_Energy>
60.46602

> <b_lp_Chiralities_Consistent>
1

> <s_lp_Variant>
CHEMBL286_lig1957-1

> <s_i_glide_gridfile>
glide-grid_3g6z

> <i_i_glide_lignum>
5746

> <i_i_glide_rotatable_bonds>
14

> <r_i_docking_score>
-8.42017152191532

> <r_i_glide_ligand_efficiency>
-0.179152585572666

> <r_i_glide_ligand_efficiency_sa>
-0.646530522309172

> <r_i_glide_ligand_efficiency_ln>
-1.73606500530964

> <r_i_glide_gscore>
-8.42017152191532

> <r_i_glide_lipo>
-4.2987358322394

> <r_i_glide_hbond>
-0.456570555786041

> <r_i_glide_metal>
0

> <r_i_glide_rewards>
-0.631189953625306

> <r_i_glide_evdw>
-53.7690086364746

> <r_i_glide_ecoul>
-5.11827516555786

> <r_i_glide_erotb>
0.422516526392842

> <r_i_glide_esite>
0

> <r_i_glide_emodel>
-73.7020054711391

> <r_i_glide_energy>
-58.8872838020325

> <r_i_glide_einternal>
22.8668174743652

> <i_i_glide_confnum>
42

> <i_i_glide_posenum>
54

> <r_i_glide_eff_state_penalty>
0

> <s_user_duplicate_titles>
CHEMBL286_lig1957

> <i_f3d_flags>
0

> <s_m_subgroup_title>
dock_pv

> <s_m_subgroupid>
dock_pv

> <b_m_subgroup_collapsed>
1

$$$$
CHEMBL286_lig1159
                    3D
 Schrodinger Suite 2021-1.
 88 90  0  0  1  0            999 V2000
   -1.8678  -20.9841  -11.8114 C   0  0  0  0  0  0
   -7.4170  -20.6079  -12.1827 C   0  0  0  0  0  0
   -1.0520  -20.0628  -12.3834 N   0  0  0  0  0  0
   -7.0865  -19.3299  -11.9027 N   0  0  0  0  0  0
   -7.9623  -18.2755  -11.3621 C   0  0  2  0  0  0
   -6.2678  -21.4952  -12.7025 C   0  0  1  0  0  0
   -7.1403  -17.0156  -10.9196 C   0  0  2  0  0  0
   -5.0415  -21.3084  -11.9139 N   0  0  0  0  0  0
   -2.5850  -20.5401  -10.7639 N   0  0  0  0  0  0
   -6.3275  -16.2436  -12.0099 C   0  0  2  0  0  0
   -4.8868  -21.5609  -10.5980 C   0  0  0  0  0  0
   -8.8506  -18.7948  -10.1851 C   0  0  0  0  0  0
   -0.0125  -20.4592  -13.3564 C   0  0  0  0  0  0
   -1.2111  -18.6029  -12.2234 C   0  0  0  0  0  0
   -1.9459  -22.1448  -12.2077 O   0  0  0  0  0  0
    1.3078  -18.4095  -12.4558 C   0  0  0  0  0  0
   -8.5330  -21.0969  -12.0209 O   0  0  0  0  0  0
   -5.6608  -14.9132  -11.5385 C   0  0  0  0  0  0
    0.0891  -18.0357  -11.6132 C   0  0  0  0  0  0
    1.3542  -19.8861  -12.8773 C   0  0  0  0  0  0
   -5.8053  -21.9577   -9.8829 O   0  0  0  0  0  0
    2.1310  -17.5761  -12.8210 O   0  0  0  0  0  0
   -3.5068  -21.3387   -9.9514 C   0  0  0  0  0  0
  -12.5412  -15.1721   -7.8755 O   0  0  0  0  0  0
   -9.8076  -17.7858   -9.5770 C   0  0  0  0  0  0
  -11.6422  -16.0434   -8.4359 C   0  0  0  0  0  0
   -6.2621  -17.3573   -9.8545 O   0  0  0  0  0  0
   -7.0691  -15.9542  -13.1722 O   0  0  0  0  0  0
   -6.6516  -22.9951  -12.8373 C   0  0  0  0  0  0
   -5.5311  -23.8428  -13.9902 S   0  0  0  0  0  0
  -12.2615  -13.8217   -7.8178 C   0  0  0  0  0  0
  -10.6898  -17.0741  -10.3923 C   0  0  0  0  0  0
   -9.8400  -17.6257   -8.1897 C   0  0  0  0  0  0
  -10.7785  -16.7728   -7.6206 C   0  0  0  0  0  0
  -11.5964  -16.1919   -9.8192 C   0  0  0  0  0  0
   -6.5177  -13.6683  -11.1336 C   0  0  0  0  0  0
   -4.3237  -24.5245  -12.8295 C   0  0  0  0  0  0
  -11.0037  -13.2623   -8.0971 C   0  0  0  0  0  0
  -13.3057  -12.9889   -7.4273 C   0  0  0  0  0  0
   -7.3210  -13.8538   -9.8264 C   0  0  0  0  0  0
   -7.4012  -13.0929  -12.2641 C   0  0  0  0  0  0
  -13.1083  -11.6167   -7.2986 C   0  0  0  0  0  0
  -10.8014  -11.8924   -7.9715 C   0  0  0  0  0  0
  -11.8543  -11.0770   -7.5686 C   0  0  0  0  0  0
   -6.1478  -19.0461  -12.1359 H   0  0  0  0  0  0
   -8.6153  -17.9826  -12.1879 H   0  0  0  0  0  0
   -6.0579  -21.1153  -13.7041 H   0  0  0  0  0  0
   -7.8552  -16.3141  -10.5121 H   0  0  0  0  0  0
   -4.2168  -21.0487  -12.4371 H   0  0  0  0  0  0
   -2.4076  -19.6036  -10.4338 H   0  0  0  0  0  0
   -5.5184  -16.8966  -12.3411 H   0  0  0  0  0  0
   -8.2090  -19.2192   -9.4125 H   0  0  0  0  0  0
   -9.5063  -19.6025  -10.5049 H   0  0  0  0  0  0
    0.0728  -21.5420  -13.4676 H   0  0  0  0  0  0
   -0.2672  -20.0629  -14.3373 H   0  0  0  0  0  0
   -1.3565  -18.1956  -13.2198 H   0  0  0  0  0  0
   -2.0999  -18.3067  -11.6660 H   0  0  0  0  0  0
   -4.9839  -15.1422  -10.7149 H   0  0  0  0  0  0
   -4.9983  -14.5869  -12.3400 H   0  0  0  0  0  0
    0.0388  -16.9504  -11.5208 H   0  0  0  0  0  0
    0.2564  -18.4500  -10.6188 H   0  0  0  0  0  0
    1.6785  -20.4292  -11.9887 H   0  0  0  0  0  0
    2.1182  -20.0190  -13.6450 H   0  0  0  0  0  0
   -3.6462  -20.8363   -8.9921 H   0  0  0  0  0  0
   -3.0651  -22.3106   -9.7244 H   0  0  0  0  0  0
   -5.8039  -18.1713  -10.0841 H   0  0  0  0  0  0
   -7.4409  -16.7627  -13.5602 H   0  0  0  0  0  0
   -6.6528  -23.4974  -11.8698 H   0  0  0  0  0  0
   -7.6629  -23.1203  -13.2218 H   0  0  0  0  0  0
  -10.6805  -17.2021  -11.4664 H   0  0  0  0  0  0
   -9.1633  -18.1764   -7.5529 H   0  0  0  0  0  0
  -10.8255  -16.6577   -6.5484 H   0  0  0  0  0  0
  -12.2690  -15.6278  -10.4431 H   0  0  0  0  0  0
   -5.7818  -12.8808  -10.9321 H   0  0  0  0  0  0
   -3.5223  -25.0178  -13.3758 H   0  0  0  0  0  0
   -3.8853  -23.7445  -12.2146 H   0  0  0  0  0  0
   -4.8009  -25.2398  -12.1637 H   0  0  0  0  0  0
  -10.1759  -13.8855   -8.4013 H   0  0  0  0  0  0
  -14.2689  -13.4180   -7.2210 H   0  0  0  0  0  0
   -8.2886  -14.3189  -10.0069 H   0  0  0  0  0  0
   -6.7810  -14.4600   -9.1003 H   0  0  0  0  0  0
   -7.5414  -12.9082   -9.3435 H   0  0  0  0  0  0
   -8.2605  -13.7322  -12.4652 H   0  0  0  0  0  0
   -7.7787  -12.0937  -12.0233 H   0  0  0  0  0  0
   -6.8364  -13.0099  -13.1948 H   0  0  0  0  0  0
  -13.9162  -10.9710   -6.9880 H   0  0  0  0  0  0
   -9.8289  -11.4656   -8.1561 H   0  0  0  0  0  0
  -11.6954  -10.0130   -7.4609 H   0  0  0  0  0  0
  1  3  1  0  0  0
  1  9  1  0  0  0
  1 15  2  0  0  0
  2  6  1  0  0  0
  2  4  1  0  0  0
  2 17  2  0  0  0
  3 13  1  0  0  0
  3 14  1  0  0  0
  4  5  1  0  0  0
  4 45  1  0  0  0
  5  7  1  0  0  0
  5 12  1  0  0  0
  5 46  1  0  0  0
  6  8  1  0  0  0
  6 29  1  0  0  0
  6 47  1  0  0  0
  7 10  1  0  0  0
  7 27  1  0  0  0
  7 48  1  0  0  0
  8 11  1  0  0  0
  8 49  1  0  0  0
  9 23  1  0  0  0
  9 50  1  0  0  0
 10 18  1  0  0  0
 10 28  1  0  0  0
 10 51  1  0  0  0
 11 23  1  0  0  0
 11 21  2  0  0  0
 12 25  1  0  0  0
 12 52  1  0  0  0
 12 53  1  0  0  0
 13 20  1  0  0  0
 13 54  1  0  0  0
 13 55  1  0  0  0
 14 19  1  0  0  0
 14 56  1  0  0  0
 14 57  1  0  0  0
 16 19  1  0  0  0
 16 22  2  0  0  0
 16 20  1  0  0  0
 18 36  1  0  0  0
 18 58  1  0  0  0
 18 59  1  0  0  0
 19 60  1  0  0  0
 19 61  1  0  0  0
 20 62  1  0  0  0
 20 63  1  0  0  0
 23 64  1  0  0  0
 23 65  1  0  0  0
 24 26  1  0  0  0
 24 31  1  0  0  0
 25 32  2  0  0  0
 25 33  1  0  0  0
 26 34  1  0  0  0
 26 35  2  0  0  0
 27 66  1  0  0  0
 28 67  1  0  0  0
 29 30  1  0  0  0
 29 68  1  0  0  0
 29 69  1  0  0  0
 30 37  1  0  0  0
 31 38  2  0  0  0
 31 39  1  0  0  0
 32 35  1  0  0  0
 32 70  1  0  0  0
 33 34  2  0  0  0
 33 71  1  0  0  0
 34 72  1  0  0  0
 35 73  1  0  0  0
 36 40  1  0  0  0
 36 41  1  0  0  0
 36 74  1  0  0  0
 37 75  1  0  0  0
 37 76  1  0  0  0
 37 77  1  0  0  0
 38 43  1  0  0  0
 38 78  1  0  0  0
 39 42  2  0  0  0
 39 79  1  0  0  0
 40 80  1  0  0  0
 40 81  1  0  0  0
 40 82  1  0  0  0
 41 83  1  0  0  0
 41 84  1  0  0  0
 41 85  1  0  0  0
 42 44  1  0  0  0
 42 86  1  0  0  0
 43 44  2  0  0  0
 43 87  1  0  0  0
 44 88  1  0  0  0
M  END
> <s_m_entry_id>
26223

> <s_m_entry_name>
dock_pv.47

> <s_m_Source_Path>
/home/csk/Desktop/cluster/DUD-E-result/reni

> <s_m_Source_File>
dock_pv.maegz

> <i_m_Source_File_Index>
47

> <chembl_id>
CHEMBL80842

> <chembl_pref_name>
None

> <i_lp_mmshare_version>
53161

> <r_lp_tautomer_probability>
0.99999998

> <s_lp_Force_Field>
OPLS_2005

> <r_lp_Energy>
37.307828

> <b_lp_Chiralities_Consistent>
1

> <s_lp_Variant>
CHEMBL286_lig1159-1

> <s_i_glide_gridfile>
glide-grid_3g6z

> <i_i_glide_lignum>
3654

> <i_i_glide_rotatable_bonds>
21

> <r_i_docking_score>
-8.41870532711167

> <r_i_glide_ligand_efficiency>
-0.191334211979811

> <r_i_glide_ligand_efficiency_sa>
-0.675476415901805

> <r_i_glide_ligand_efficiency_ln>
-1.75969306639226

> <r_i_glide_gscore>
-8.41870532711167

> <r_i_glide_lipo>
-4.41478436359553

> <r_i_glide_hbond>
-0.335359628281892

> <r_i_glide_metal>
0

> <r_i_glide_rewards>
-1.04546294965814

> <r_i_glide_evdw>
-54.9070510864258

> <r_i_glide_ecoul>
-3.75263452529907

> <r_i_glide_erotb>
0.717736623511757

> <r_i_glide_esite>
-0.0325872759717196

> <r_i_glide_emodel>
-86.7618523861176

> <r_i_glide_energy>
-58.6596856117249

> <r_i_glide_einternal>
9.06828498840332

> <i_i_glide_confnum>
10

> <i_i_glide_posenum>
311

> <r_i_glide_eff_state_penalty>
0

> <s_user_duplicate_titles>
CHEMBL286_lig1159

> <i_f3d_flags>
0

> <s_m_subgroup_title>
dock_pv

> <s_m_subgroupid>
dock_pv

> <b_m_subgroup_collapsed>
1

$$$$
CHEMBL286_lig565
                    3D
 Schrodinger Suite 2021-1.
 84 88  0  0  1  0            999 V2000
   -6.6715  -14.1500   -9.7878 N   0  0  0  0  0  0
   -5.6970  -13.6635   -8.9101 C   0  0  0  0  0  0
   -5.9636  -14.7670  -10.7987 C   0  0  0  0  0  0
   -4.4749  -14.0679   -9.3323 N   0  0  0  0  0  0
   -7.4590  -12.6084   -7.6302 N   0  0  0  0  0  0
   -6.1286  -12.8451   -7.8490 C   0  0  0  0  0  0
   -8.0037  -13.9379   -9.5643 C   0  0  0  0  0  0
   -4.6715  -14.7294  -10.5282 N   0  0  0  0  0  0
   -8.3936  -13.1668   -8.4624 C   0  0  0  0  0  0
   -6.5831  -15.4495  -12.0105 C   0  0  0  0  0  0
   -6.2143  -16.9273  -12.0026 C   0  0  0  0  0  0
   -4.2753  -18.4724  -12.3901 C   0  0  2  0  0  0
   -5.0709  -17.2534  -12.6313 N   0  0  0  0  0  0
   -5.0716  -19.8243  -12.5061 C   0  0  2  0  0  0
   -5.1548  -12.1144   -6.9294 C   0  0  0  0  0  0
   -9.8442  -12.8631   -8.2098 C   0  0  0  0  0  0
   -3.4378  -18.2484  -11.0895 C   0  0  0  0  0  0
   -6.8901  -17.7157  -11.3434 O   0  0  0  0  0  0
   -4.2168  -21.1183  -12.7392 C   0  0  0  0  0  0
   -5.9328  -19.6834  -13.6268 O   0  0  0  0  0  0
   -1.9831  -17.7703  -11.3390 C   0  0  0  0  0  0
   -4.4669  -10.8707   -7.5688 C   0  0  0  0  0  0
  -10.8221  -13.8462   -8.4229 C   0  0  0  0  0  0
  -10.2667  -11.5958   -7.7707 C   0  0  0  0  0  0
   -3.6059  -21.7011  -11.4349 C   0  0  0  0  0  0
   -5.0158  -22.2857  -13.3994 C   0  0  0  0  0  0
   -1.2965  -17.3430  -10.0213 C   0  0  0  0  0  0
   -1.0911  -18.8407  -12.0166 C   0  0  0  0  0  0
   -3.5068  -11.1778   -8.7327 C   0  0  0  0  0  0
   -3.7243  -10.0621   -6.4963 C   0  0  0  0  0  0
  -12.1719  -13.5771   -8.2084 C   0  0  0  0  0  0
  -11.6162  -11.3174   -7.5640 C   0  0  0  0  0  0
   -2.6694  -22.8846  -11.7164 C   0  0  0  0  0  0
   -4.1015  -23.4721  -13.7329 C   0  0  0  0  0  0
    0.1055  -16.7510  -10.2831 C   0  0  0  0  0  0
    0.3133  -18.2844  -12.3326 C   0  0  0  0  0  0
    1.0038  -17.7349  -11.0662 C   0  0  0  0  0  0
   -3.3915  -24.0068  -12.4880 C   0  0  0  0  0  0
  -12.5644  -12.3110   -7.7838 C   0  0  0  0  0  0
   -8.6694  -14.3646  -10.2896 H   0  0  0  0  0  0
   -7.6679  -15.3720  -12.0488 H   0  0  0  0  0  0
   -6.2348  -14.9886  -12.9351 H   0  0  0  0  0  0
   -3.6123  -18.4617  -13.2557 H   0  0  0  0  0  0
   -4.6057  -16.5210  -13.1556 H   0  0  0  0  0  0
   -5.7006  -19.9743  -11.6284 H   0  0  0  0  0  0
   -5.6799  -11.8139   -6.0219 H   0  0  0  0  0  0
   -4.3969  -12.8265   -6.5994 H   0  0  0  0  0  0
   -3.9346  -17.5053  -10.4639 H   0  0  0  0  0  0
   -3.4553  -19.1013  -10.4249 H   0  0  0  0  0  0
   -3.3877  -20.8754  -13.4048 H   0  0  0  0  0  0
   -6.4709  -18.8898  -13.5036 H   0  0  0  0  0  0
   -2.0204  -16.8930  -11.9885 H   0  0  0  0  0  0
   -5.2367  -10.2281   -7.9933 H   0  0  0  0  0  0
  -10.5347  -14.8331   -8.7560 H   0  0  0  0  0  0
   -9.5410  -10.8118   -7.6048 H   0  0  0  0  0  0
   -2.9958  -20.9778  -10.9125 H   0  0  0  0  0  0
   -4.3952  -21.9724  -10.7313 H   0  0  0  0  0  0
   -5.8498  -22.5858  -12.7620 H   0  0  0  0  0  0
   -5.4866  -21.9717  -14.3314 H   0  0  0  0  0  0
   -1.9132  -16.6037   -9.5066 H   0  0  0  0  0  0
   -1.2436  -18.1850   -9.3286 H   0  0  0  0  0  0
   -1.0209  -19.7273  -11.3863 H   0  0  0  0  0  0
   -1.5465  -19.2001  -12.9372 H   0  0  0  0  0  0
   -2.7900  -11.9578   -8.4711 H   0  0  0  0  0  0
   -4.0485  -11.4891   -9.6268 H   0  0  0  0  0  0
   -2.9357  -10.2974   -9.0272 H   0  0  0  0  0  0
   -2.9813  -10.6660   -5.9737 H   0  0  0  0  0  0
   -3.2029   -9.2094   -6.9299 H   0  0  0  0  0  0
   -4.4208   -9.6632   -5.7576 H   0  0  0  0  0  0
  -12.9116  -14.3459   -8.3804 H   0  0  0  0  0  0
  -11.9263  -10.3338   -7.2348 H   0  0  0  0  0  0
   -1.8100  -22.5398  -12.2939 H   0  0  0  0  0  0
   -2.2694  -23.2605  -10.7748 H   0  0  0  0  0  0
   -3.3304  -23.1396  -14.4233 H   0  0  0  0  0  0
   -4.6640  -24.2639  -14.2303 H   0  0  0  0  0  0
    0.0046  -15.8213  -10.8463 H   0  0  0  0  0  0
    0.5790  -16.4870   -9.3379 H   0  0  0  0  0  0
    0.2374  -17.4870  -13.0708 H   0  0  0  0  0  0
    0.9322  -19.0623  -12.7812 H   0  0  0  0  0  0
    1.9441  -17.2504  -11.3328 H   0  0  0  0  0  0
    1.2706  -18.5737  -10.4208 H   0  0  0  0  0  0
   -2.6697  -24.7476  -12.8199 H   0  0  0  0  0  0
   -4.1172  -24.4920  -11.8334 H   0  0  0  0  0  0
  -13.6115  -12.0965   -7.6276 H   0  0  0  0  0  0
  1  2  1  0  0  0
  1  3  1  0  0  0
  1  7  1  0  0  0
  2  4  2  0  0  0
  2  6  1  0  0  0
  3  8  2  0  0  0
  3 10  1  0  0  0
  4  8  1  0  0  0
  5  9  1  0  0  0
  5  6  2  0  0  0
  6 15  1  0  0  0
  7  9  2  0  0  0
  7 40  1  0  0  0
  9 16  1  0  0  0
 10 11  1  0  0  0
 10 41  1  0  0  0
 10 42  1  0  0  0
 11 13  1  0  0  0
 11 18  2  0  0  0
 12 13  1  0  0  0
 12 14  1  0  0  0
 12 17  1  0  0  0
 12 43  1  0  0  0
 13 44  1  0  0  0
 14 19  1  0  0  0
 14 20  1  0  0  0
 14 45  1  0  0  0
 15 22  1  0  0  0
 15 46  1  0  0  0
 15 47  1  0  0  0
 16 23  2  0  0  0
 16 24  1  0  0  0
 17 21  1  0  0  0
 17 48  1  0  0  0
 17 49  1  0  0  0
 19 25  1  0  0  0
 19 26  1  0  0  0
 19 50  1  0  0  0
 20 51  1  0  0  0
 21 27  1  0  0  0
 21 28  1  0  0  0
 21 52  1  0  0  0
 22 29  1  0  0  0
 22 30  1  0  0  0
 22 53  1  0  0  0
 23 31  1  0  0  0
 23 54  1  0  0  0
 24 32  2  0  0  0
 24 55  1  0  0  0
 25 33  1  0  0  0
 25 56  1  0  0  0
 25 57  1  0  0  0
 26 34  1  0  0  0
 26 58  1  0  0  0
 26 59  1  0  0  0
 27 35  1  0  0  0
 27 60  1  0  0  0
 27 61  1  0  0  0
 28 36  1  0  0  0
 28 62  1  0  0  0
 28 63  1  0  0  0
 29 64  1  0  0  0
 29 65  1  0  0  0
 29 66  1  0  0  0
 30 67  1  0  0  0
 30 68  1  0  0  0
 30 69  1  0  0  0
 31 39  2  0  0  0
 31 70  1  0  0  0
 32 39  1  0  0  0
 32 71  1  0  0  0
 33 38  1  0  0  0
 33 72  1  0  0  0
 33 73  1  0  0  0
 34 38  1  0  0  0
 34 74  1  0  0  0
 34 75  1  0  0  0
 35 37  1  0  0  0
 35 76  1  0  0  0
 35 77  1  0  0  0
 36 37  1  0  0  0
 36 78  1  0  0  0
 36 79  1  0  0  0
 37 80  1  0  0  0
 37 81  1  0  0  0
 38 82  1  0  0  0
 38 83  1  0  0  0
 39 84  1  0  0  0
M  END
> <s_m_entry_id>
26224

> <s_m_entry_name>
dock_pv.48

> <s_m_Source_Path>
/home/csk/Desktop/cluster/DUD-E-result/reni

> <s_m_Source_File>
dock_pv.maegz

> <i_m_Source_File_Index>
48

> <chembl_id>
CHEMBL2114143

> <chembl_pref_name>
None

> <i_lp_mmshare_version>
53161

> <r_lp_tautomer_probability>
1

> <s_lp_Force_Field>
OPLS_2005

> <r_lp_Energy>
32.536321

> <b_lp_Chiralities_Consistent>
1

> <s_lp_Variant>
CHEMBL286_lig565-1

> <s_i_glide_gridfile>
glide-grid_3g6z

> <i_i_glide_lignum>
1601

> <i_i_glide_rotatable_bonds>
12

> <r_i_docking_score>
-8.41391567258939

> <r_i_glide_ligand_efficiency>
-0.215741427502292

> <r_i_glide_ligand_efficiency_sa>
-0.731624796784533

> <r_i_glide_ligand_efficiency_ln>
-1.80418236340292

> <r_i_glide_gscore>
-8.41391567258939

> <r_i_glide_lipo>
-5.01234359293584

> <r_i_glide_hbond>
-0.220947254538713

> <r_i_glide_metal>
0

> <r_i_glide_rewards>
-0.953652231881732

> <r_i_glide_evdw>
-43.9954681396484

> <r_i_glide_ecoul>
-3.96523809432983

> <r_i_glide_erotb>
0.583485942998108

> <r_i_glide_esite>
-0.0158994150993222

> <r_i_glide_emodel>
-66.658321409526

> <r_i_glide_energy>
-47.9607062339783

> <r_i_glide_einternal>
9.29612064361572

> <i_i_glide_confnum>
9

> <i_i_glide_posenum>
116

> <r_i_glide_eff_state_penalty>
0

> <s_user_duplicate_titles>
CHEMBL286_lig565

> <i_f3d_flags>
0

> <s_m_subgroup_title>
dock_pv

> <s_m_subgroupid>
dock_pv

> <b_m_subgroup_collapsed>
1

$$$$
CHEMBL286_lig1403
                    3D
 Schrodinger Suite 2021-1.
112114  0  0  1  0            999 V2000
   -8.9821  -20.0972  -10.6811 C   0  0  0  0  0  0
   -7.2556  -22.7363   -9.7807 C   0  0  0  0  0  0
   -8.8632  -19.0257  -11.4868 N   0  0  0  0  0  0
   -8.8597  -17.6250  -11.0251 C   0  0  2  0  0  0
   -4.5644  -20.4201   -9.7091 C   0  0  0  0  0  0
   -7.5461  -22.0312  -10.8981 N   0  0  0  0  0  0
   -8.8417  -21.4847  -11.3395 C   0  0  1  0  0  0
  -12.2363  -22.8627  -12.3216 N   0  0  0  0  0  0
  -10.2832  -17.0280  -10.7204 C   0  0  2  0  0  0
   -5.7760  -22.6955   -9.3378 C   0  0  1  0  0  0
  -11.4223  -22.0532  -11.5423 C   0  0  0  0  0  0
   -5.4202  -21.2807   -8.7596 C   0  0  0  0  0  0
  -10.0364  -22.4563  -11.0882 C   0  0  0  0  0  0
  -10.5398  -16.6943   -9.2273 C   0  0  2  0  0  0
  -13.4706  -21.0953  -11.7817 N   0  0  0  0  0  0
  -13.4243  -22.2573  -12.4218 C   0  0  0  0  0  0
   -3.5013  -19.7144   -9.2392 N   0  0  0  0  0  0
  -12.2027  -20.9662  -11.2141 C   0  0  0  0  0  0
   -8.0695  -16.7376  -12.0212 C   0  0  0  0  0  0
   -8.0838  -23.3608   -9.1182 O   0  0  0  0  0  0
   -9.1231  -20.0215   -9.4617 O   0  0  0  0  0  0
   -4.8838  -20.4085  -10.9023 O   0  0  0  0  0  0
   -5.4104  -23.8454   -8.3517 C   0  0  0  0  0  0
  -11.9351  -16.0555   -8.9825 C   0  0  0  0  0  0
  -11.3503  -17.7614  -11.3112 O   0  0  0  0  0  0
   -1.2617  -16.2480  -11.1124 C   0  0  0  0  0  0
   -9.5141  -15.8101   -8.8210 O   0  0  0  0  0  0
   -3.9482  -23.8393   -7.9142 C   0  0  0  0  0  0
   -7.4653  -15.4019  -11.5287 C   0  0  0  0  0  0
    0.0019  -16.6273  -11.5627 O   0  0  0  0  0  0
   -2.2664  -17.0710  -11.6216 O   0  0  0  0  0  0
    2.2118  -18.0787  -12.7518 O   0  0  0  0  0  0
  -12.1744  -15.3639   -7.6114 C   0  0  0  0  0  0
   -2.6017  -19.0023  -10.1525 C   0  0  0  0  0  0
   -3.0665  -19.6625   -7.8403 C   0  0  0  0  0  0
   -3.1561  -17.6679  -10.6861 C   0  0  0  0  0  0
    0.4752  -17.8496  -11.0077 C   0  0  0  0  0  0
    1.9525  -18.0678  -11.3541 C   0  0  0  0  0  0
   -2.9383  -24.0673   -8.8536 C   0  0  0  0  0  0
   -3.6182  -23.5883   -6.5775 C   0  0  0  0  0  0
    1.7500  -19.2437  -13.4173 C   0  0  0  0  0  0
   -6.3740  -15.5846  -10.4463 C   0  0  0  0  0  0
   -6.8502  -14.6449  -12.7349 C   0  0  0  0  0  0
  -13.6611  -15.4299   -7.2252 C   0  0  0  0  0  0
  -11.7139  -13.8874   -7.5898 C   0  0  0  0  0  0
   -1.6064  -24.0621   -8.4554 C   0  0  0  0  0  0
   -2.2832  -23.5687   -6.1867 C   0  0  0  0  0  0
   -6.2295  -13.2906  -12.3404 C   0  0  0  0  0  0
   -5.7655  -14.2388  -10.0056 C   0  0  0  0  0  0
   -5.1925  -13.4591  -11.2088 C   0  0  0  0  0  0
   -1.2819  -23.8131   -7.1240 C   0  0  0  0  0  0
   -8.6982  -19.1603  -12.4767 H   0  0  0  0  0  0
   -8.2764  -17.6253  -10.1041 H   0  0  0  0  0  0
   -6.7590  -21.5769  -11.3429 H   0  0  0  0  0  0
   -8.7547  -21.3464  -12.4155 H   0  0  0  0  0  0
  -10.3528  -16.0670  -11.2203 H   0  0  0  0  0  0
   -5.2030  -22.9032  -10.2450 H   0  0  0  0  0  0
   -4.9446  -21.3994   -7.7890 H   0  0  0  0  0  0
   -6.3167  -20.6972   -8.5327 H   0  0  0  0  0  0
   -9.7984  -23.4279  -11.5206 H   0  0  0  0  0  0
  -10.1616  -22.6170  -10.0214 H   0  0  0  0  0  0
  -10.4549  -17.6048   -8.6341 H   0  0  0  0  0  0
  -11.9942  -23.7621  -12.7149 H   0  0  0  0  0  0
  -14.2664  -22.6749  -12.9572 H   0  0  0  0  0  0
  -11.9594  -20.1252  -10.5821 H   0  0  0  0  0  0
   -7.2710  -17.3212  -12.4810 H   0  0  0  0  0  0
   -8.7576  -16.4730  -12.8220 H   0  0  0  0  0  0
   -6.0562  -23.8001   -7.4723 H   0  0  0  0  0  0
   -5.6118  -24.8123   -8.8158 H   0  0  0  0  0  0
  -12.1606  -15.3398   -9.7761 H   0  0  0  0  0  0
  -12.6682  -16.8542   -9.1083 H   0  0  0  0  0  0
  -11.1199  -17.9619  -12.2243 H   0  0  0  0  0  0
   -1.2682  -16.1594  -10.0232 H   0  0  0  0  0  0
   -1.4587  -15.2497  -11.5085 H   0  0  0  0  0  0
   -9.6435  -14.9644   -9.2577 H   0  0  0  0  0  0
   -8.2500  -14.7693  -11.1109 H   0  0  0  0  0  0
  -11.6140  -15.9040   -6.8451 H   0  0  0  0  0  0
   -2.3338  -19.6311  -11.0044 H   0  0  0  0  0  0
   -1.6379  -18.8164   -9.6768 H   0  0  0  0  0  0
   -2.2788  -20.3996   -7.6587 H   0  0  0  0  0  0
   -2.6583  -18.6743   -7.6176 H   0  0  0  0  0  0
   -3.8666  -19.8231   -7.1213 H   0  0  0  0  0  0
   -3.4189  -16.9884   -9.8719 H   0  0  0  0  0  0
   -4.0866  -17.8620  -11.2182 H   0  0  0  0  0  0
   -0.1178  -18.6849  -11.3800 H   0  0  0  0  0  0
    0.3757  -17.8387   -9.9231 H   0  0  0  0  0  0
    2.3306  -18.9780  -10.8877 H   0  0  0  0  0  0
    2.5313  -17.2596  -10.9105 H   0  0  0  0  0  0
   -3.1823  -24.2521   -9.8920 H   0  0  0  0  0  0
   -4.3921  -23.3997   -5.8462 H   0  0  0  0  0  0
    2.1578  -19.2810  -14.4254 H   0  0  0  0  0  0
    0.6625  -19.2654  -13.4926 H   0  0  0  0  0  0
    2.0839  -20.1349  -12.8915 H   0  0  0  0  0  0
   -6.7670  -16.1206   -9.5842 H   0  0  0  0  0  0
   -5.5905  -16.2298  -10.8377 H   0  0  0  0  0  0
   -6.0870  -15.2675  -13.2056 H   0  0  0  0  0  0
   -7.6005  -14.5012  -13.5135 H   0  0  0  0  0  0
  -14.2688  -15.0042   -8.0190 H   0  0  0  0  0  0
  -13.9897  -16.4569   -7.0620 H   0  0  0  0  0  0
  -13.8690  -14.8612   -6.3176 H   0  0  0  0  0  0
  -12.2759  -13.2835   -8.3039 H   0  0  0  0  0  0
  -11.8551  -13.4460   -6.6026 H   0  0  0  0  0  0
  -10.6607  -13.7636   -7.8327 H   0  0  0  0  0  0
   -0.8265  -24.2518   -9.1781 H   0  0  0  0  0  0
   -2.0204  -23.3661   -5.1591 H   0  0  0  0  0  0
   -7.0130  -12.5983  -12.0250 H   0  0  0  0  0  0
   -5.7566  -12.8434  -13.2166 H   0  0  0  0  0  0
   -6.5269  -13.6426   -9.5041 H   0  0  0  0  0  0
   -4.9825  -14.4107   -9.2705 H   0  0  0  0  0  0
   -4.8274  -12.4816  -10.8869 H   0  0  0  0  0  0
   -4.3230  -13.9930  -11.6029 H   0  0  0  0  0  0
   -0.2473  -23.8044   -6.8176 H   0  0  0  0  0  0
  1  3  1  0  0  0
  1  7  1  0  0  0
  1 21  2  0  0  0
  2  6  1  0  0  0
  2 10  1  0  0  0
  2 20  2  0  0  0
  3  4  1  0  0  0
  3 52  1  0  0  0
  4  9  1  0  0  0
  4 19  1  0  0  0
  4 53  1  0  0  0
  5 12  1  0  0  0
  5 17  1  0  0  0
  5 22  2  0  0  0
  6  7  1  0  0  0
  6 54  1  0  0  0
  7 13  1  0  0  0
  7 55  1  0  0  0
  8 11  1  0  0  0
  8 63  1  0  0  0
  8 16  1  0  0  0
  9 14  1  0  0  0
  9 25  1  0  0  0
  9 56  1  0  0  0
 10 12  1  0  0  0
 10 23  1  0  0  0
 10 57  1  0  0  0
 11 18  2  0  0  0
 11 13  1  0  0  0
 12 58  1  0  0  0
 12 59  1  0  0  0
 13 60  1  0  0  0
 13 61  1  0  0  0
 14 24  1  0  0  0
 14 27  1  0  0  0
 14 62  1  0  0  0
 15 16  2  0  0  0
 15 18  1  0  0  0
 16 64  1  0  0  0
 17 34  1  0  0  0
 17 35  1  0  0  0
 18 65  1  0  0  0
 19 29  1  0  0  0
 19 66  1  0  0  0
 19 67  1  0  0  0
 23 28  1  0  0  0
 23 68  1  0  0  0
 23 69  1  0  0  0
 24 33  1  0  0  0
 24 70  1  0  0  0
 24 71  1  0  0  0
 25 72  1  0  0  0
 26 31  1  0  0  0
 26 30  1  0  0  0
 26 73  1  0  0  0
 26 74  1  0  0  0
 27 75  1  0  0  0
 28 39  1  0  0  0
 28 40  2  0  0  0
 29 42  1  0  0  0
 29 43  1  0  0  0
 29 76  1  0  0  0
 30 37  1  0  0  0
 31 36  1  0  0  0
 32 38  1  0  0  0
 32 41  1  0  0  0
 33 44  1  0  0  0
 33 45  1  0  0  0
 33 77  1  0  0  0
 34 36  1  0  0  0
 34 78  1  0  0  0
 34 79  1  0  0  0
 35 80  1  0  0  0
 35 81  1  0  0  0
 35 82  1  0  0  0
 36 83  1  0  0  0
 36 84  1  0  0  0
 37 38  1  0  0  0
 37 85  1  0  0  0
 37 86  1  0  0  0
 38 87  1  0  0  0
 38 88  1  0  0  0
 39 46  2  0  0  0
 39 89  1  0  0  0
 40 47  1  0  0  0
 40 90  1  0  0  0
 41 91  1  0  0  0
 41 92  1  0  0  0
 41 93  1  0  0  0
 42 49  1  0  0  0
 42 94  1  0  0  0
 42 95  1  0  0  0
 43 48  1  0  0  0
 43 96  1  0  0  0
 43 97  1  0  0  0
 44 98  1  0  0  0
 44 99  1  0  0  0
 44100  1  0  0  0
 45101  1  0  0  0
 45102  1  0  0  0
 45103  1  0  0  0
 46 51  1  0  0  0
 46104  1  0  0  0
 47 51  2  0  0  0
 47105  1  0  0  0
 48 50  1  0  0  0
 48106  1  0  0  0
 48107  1  0  0  0
 49 50  1  0  0  0
 49108  1  0  0  0
 49109  1  0  0  0
 50110  1  0  0  0
 50111  1  0  0  0
 51112  1  0  0  0
M  END
> <s_m_entry_id>
26225

> <s_m_entry_name>
dock_pv.49

> <s_m_Source_Path>
/home/csk/Desktop/cluster/DUD-E-result/reni

> <s_m_Source_File>
dock_pv.maegz

> <i_m_Source_File_Index>
49

> <chembl_id>
CHEMBL143427

> <chembl_pref_name>
None

> <i_lp_mmshare_version>
53161

> <r_lp_tautomer_probability>
0.499999999999999

> <s_lp_Force_Field>
OPLS_2005

> <r_lp_Energy>
39.567098

> <b_lp_Chiralities_Consistent>
1

> <s_lp_Variant>
CHEMBL286_lig1403-2

> <s_i_glide_gridfile>
glide-grid_3g6z

> <i_i_glide_lignum>
4478

> <i_i_glide_rotatable_bonds>
29

> <r_i_docking_score>
-8.3995760428181

> <r_i_glide_ligand_efficiency>
-0.164697569467022

> <r_i_glide_ligand_efficiency_sa>
-0.610769368736809

> <r_i_glide_ligand_efficiency_ln>
-1.70313726971288

> <r_i_glide_gscore>
-8.3995760428181

> <r_i_glide_lipo>
-3.62976521187122

> <r_i_glide_hbond>
-0.0817411362985361

> <r_i_glide_metal>
0

> <r_i_glide_rewards>
-0.853902376511159

> <r_i_glide_evdw>
-62.2913665771484

> <r_i_glide_ecoul>
-9.5054988861084

> <r_i_glide_erotb>
0.741610993241841

> <r_i_glide_esite>
-0.0353851496053444

> <r_i_glide_emodel>
-94.9878834675241

> <r_i_glide_energy>
-71.7968654632568

> <r_i_glide_einternal>
25.7161750793457

> <i_i_glide_confnum>
3

> <i_i_glide_posenum>
59

> <r_i_glide_eff_state_penalty>
0

> <s_user_duplicate_titles>
CHEMBL286_lig1403

> <i_f3d_flags>
0

> <s_m_subgroup_title>
dock_pv

> <s_m_subgroupid>
dock_pv

> <b_m_subgroup_collapsed>
1

$$$$
CHEMBL286_lig488
                    3D
 Schrodinger Suite 2021-1.
119121  0  0  1  0            999 V2000
   -5.5157  -22.7684   -8.7269 C   0  0  0  0  0  0
   -6.8206  -17.0750  -11.0379 C   0  0  0  0  0  0
   -8.0327  -16.1438  -11.2219 C   0  0  0  0  0  0
   -3.6464  -16.6860  -10.3358 C   0  0  0  0  0  0
   -5.7577  -22.5280  -10.0699 N   0  0  0  0  0  0
   -5.7201  -16.7894  -11.7569 N   0  0  0  0  0  0
   -4.3565  -17.3138  -11.5593 C   0  0  2  0  0  0
   -9.7389  -18.3769  -10.1905 N   0  0  0  0  0  0
  -10.1906  -17.0002   -9.9666 C   0  0  2  0  0  0
   -7.0876  -22.5969  -10.6954 C   0  0  2  0  0  0
  -10.4203  -19.3791  -10.7647 C   0  0  0  0  0  0
   -4.3983  -16.4352   -9.2529 N   0  0  0  0  0  0
   -8.9860  -16.0059   -9.9884 C   0  0  1  0  0  0
   -4.1900  -22.5880   -8.4829 O   0  0  0  0  0  0
   -6.3600  -23.0846   -7.8859 O   0  0  0  0  0  0
   -7.3175  -23.9845  -11.3617 C   0  0  0  0  0  0
   -6.8564  -17.9666  -10.1871 O   0  0  0  0  0  0
   -2.4504  -16.4104  -10.4150 O   0  0  0  0  0  0
  -11.0949  -16.9057   -8.6988 C   0  0  0  0  0  0
   -4.3297  -18.8738  -11.5882 C   0  0  0  0  0  0
  -11.5582  -19.2675  -11.2209 O   0  0  0  0  0  0
   -3.5565  -22.7316   -7.1978 C   0  0  0  0  0  0
   -7.2857  -21.3505  -11.6125 C   0  0  2  0  0  0
   -8.7352  -20.9391  -11.9618 C   0  0  0  0  0  0
   -9.7006  -20.7322  -10.7643 C   0  0  0  0  0  0
   -3.9663  -15.7278   -8.0507 C   0  0  0  0  0  0
   -3.0756  -13.4548   -8.7469 C   0  0  0  0  0  0
   -4.0907  -14.2114   -8.1481 C   0  0  0  0  0  0
   -8.7379  -24.2447  -11.8568 C   0  0  0  0  0  0
   -8.2667  -16.0351   -8.7629 O   0  0  0  0  0  0
   -3.1584  -12.0544   -8.7843 C   0  0  0  0  0  0
   -0.8004  -11.8032   -9.6210 N   0  0  0  0  0  0
   -6.5594  -21.4895  -12.8209 O   0  0  0  0  0  0
  -11.4978  -15.4832   -8.2378 C   0  0  0  0  0  0
   -5.2833  -12.1722   -7.6204 C   0  0  0  0  0  0
   -2.9519  -19.5705  -11.6708 C   0  0  0  0  0  0
   -2.0982  -11.1753   -9.4461 C   0  0  0  0  0  0
   -3.7142  -24.1697   -6.6457 C   0  0  0  0  0  0
   -4.0861  -21.6879   -6.1842 C   0  0  0  0  0  0
   -2.0625  -22.4646   -7.4705 C   0  0  0  0  0  0
   -5.1930  -13.5620   -7.5846 C   0  0  0  0  0  0
   -4.2728  -11.4244   -8.2219 C   0  0  0  0  0  0
   -8.9739  -24.4636  -13.2186 C   0  0  0  0  0  0
   -9.8060  -24.2647  -10.9547 C   0  0  0  0  0  0
  -12.4537  -14.7922   -9.2236 C   0  0  0  0  0  0
  -12.1893  -15.4922   -6.8587 C   0  0  0  0  0  0
   -2.2158  -19.6576  -10.3205 C   0  0  0  0  0  0
   -2.0686  -19.0170  -12.7993 C   0  0  0  0  0  0
  -11.1035  -24.4790  -11.4146 C   0  0  0  0  0  0
  -10.2700  -24.6866  -13.6774 C   0  0  0  0  0  0
  -12.6641  -13.3159   -8.8307 C   0  0  0  0  0  0
  -12.4531  -14.0478   -6.3774 C   0  0  0  0  0  0
  -13.2447  -13.2164   -7.4085 C   0  0  0  0  0  0
  -11.3287  -24.6858  -12.7739 C   0  0  0  0  0  0
   -8.5940  -16.4860  -12.0933 H   0  0  0  0  0  0
   -7.6622  -15.1519  -11.4802 H   0  0  0  0  0  0
   -4.9727  -22.2873  -10.6544 H   0  0  0  0  0  0
   -5.7771  -16.0490  -12.4424 H   0  0  0  0  0  0
   -3.8100  -16.9538  -12.4315 H   0  0  0  0  0  0
   -8.7680  -18.5531   -9.9634 H   0  0  0  0  0  0
  -10.8055  -16.7389  -10.8321 H   0  0  0  0  0  0
   -7.8186  -22.5034   -9.8933 H   0  0  0  0  0  0
   -5.3740  -16.6945   -9.3026 H   0  0  0  0  0  0
   -9.3928  -15.0001  -10.0210 H   0  0  0  0  0  0
   -7.0833  -24.7717  -10.6435 H   0  0  0  0  0  0
   -6.6010  -24.1297  -12.1702 H   0  0  0  0  0  0
  -11.9964  -17.4967   -8.8611 H   0  0  0  0  0  0
  -10.5732  -17.3958   -7.8752 H   0  0  0  0  0  0
   -4.8574  -19.2871  -10.7288 H   0  0  0  0  0  0
   -4.9066  -19.1918  -12.4568 H   0  0  0  0  0  0
   -6.8518  -20.4911  -11.1004 H   0  0  0  0  0  0
   -8.6625  -20.0038  -12.5212 H   0  0  0  0  0  0
   -9.1727  -21.6637  -12.6512 H   0  0  0  0  0  0
  -10.4442  -21.5269  -10.7356 H   0  0  0  0  0  0
   -9.1707  -20.8092   -9.8157 H   0  0  0  0  0  0
   -4.5906  -16.0629   -7.2220 H   0  0  0  0  0  0
   -2.9396  -15.9919   -7.7840 H   0  0  0  0  0  0
   -2.2324  -13.9674   -9.1868 H   0  0  0  0  0  0
   -7.7787  -16.8650   -8.7388 H   0  0  0  0  0  0
   -0.4986  -12.2558   -8.7699 H   0  0  0  0  0  0
   -0.8137  -12.4936  -10.3620 H   0  0  0  0  0  0
   -7.0814  -22.0239  -13.4269 H   0  0  0  0  0  0
  -10.6032  -14.8708   -8.1456 H   0  0  0  0  0  0
   -6.1376  -11.6748   -7.1852 H   0  0  0  0  0  0
   -3.1817  -20.6017  -11.9456 H   0  0  0  0  0  0
   -2.4703  -10.8624  -10.4210 H   0  0  0  0  0  0
   -1.9546  -10.2840   -8.8345 H   0  0  0  0  0  0
   -3.3947  -24.9079   -7.3824 H   0  0  0  0  0  0
   -3.1134  -24.3211   -5.7482 H   0  0  0  0  0  0
   -4.7468  -24.4009   -6.3858 H   0  0  0  0  0  0
   -3.9319  -20.6724   -6.5512 H   0  0  0  0  0  0
   -5.1531  -21.8041   -5.9903 H   0  0  0  0  0  0
   -3.5756  -21.7659   -5.2229 H   0  0  0  0  0  0
   -1.8985  -21.4544   -7.8451 H   0  0  0  0  0  0
   -1.4609  -22.5780   -6.5677 H   0  0  0  0  0  0
   -1.6637  -23.1514   -8.2196 H   0  0  0  0  0  0
   -5.9808  -14.1314   -7.1131 H   0  0  0  0  0  0
   -4.3586  -10.3472   -8.2477 H   0  0  0  0  0  0
   -8.1605  -24.4540  -13.9297 H   0  0  0  0  0  0
   -9.6298  -24.1006   -9.9008 H   0  0  0  0  0  0
  -12.0555  -14.8611  -10.2336 H   0  0  0  0  0  0
  -13.3968  -15.3331   -9.2574 H   0  0  0  0  0  0
  -13.1099  -16.0781   -6.8936 H   0  0  0  0  0  0
  -11.5590  -16.0075   -6.1321 H   0  0  0  0  0  0
   -1.3367  -19.0116  -10.2867 H   0  0  0  0  0  0
   -2.8533  -19.3819   -9.4792 H   0  0  0  0  0  0
   -1.8756  -20.6777  -10.1390 H   0  0  0  0  0  0
   -1.4309  -18.2035  -12.4434 H   0  0  0  0  0  0
   -1.4215  -19.7958  -13.2060 H   0  0  0  0  0  0
   -2.6765  -18.6329  -13.6208 H   0  0  0  0  0  0
  -11.9335  -24.4741  -10.7249 H   0  0  0  0  0  0
  -10.4500  -24.8508  -14.7302 H   0  0  0  0  0  0
  -11.7151  -12.7780   -8.8705 H   0  0  0  0  0  0
  -13.3250  -12.8208   -9.5431 H   0  0  0  0  0  0
  -11.5012  -13.5568   -6.1678 H   0  0  0  0  0  0
  -13.0059  -14.0632   -5.4394 H   0  0  0  0  0  0
  -13.2984  -12.1724   -7.0945 H   0  0  0  0  0  0
  -14.2690  -13.5778   -7.4338 H   0  0  0  0  0  0
  -12.3371  -24.8484  -13.1331 H   0  0  0  0  0  0
  1  5  1  0  0  0
  1 14  1  0  0  0
  1 15  2  0  0  0
  2  3  1  0  0  0
  2  6  1  0  0  0
  2 17  2  0  0  0
  3 13  1  0  0  0
  3 55  1  0  0  0
  3 56  1  0  0  0
  4  7  1  0  0  0
  4 12  1  0  0  0
  4 18  2  0  0  0
  5 10  1  0  0  0
  5 57  1  0  0  0
  6  7  1  0  0  0
  6 58  1  0  0  0
  7 20  1  0  0  0
  7 59  1  0  0  0
  8 11  1  0  0  0
  8  9  1  0  0  0
  8 60  1  0  0  0
  9 13  1  0  0  0
  9 19  1  0  0  0
  9 61  1  0  0  0
 10 16  1  0  0  0
 10 23  1  0  0  0
 10 62  1  0  0  0
 11 25  1  0  0  0
 11 21  2  0  0  0
 12 26  1  0  0  0
 12 63  1  0  0  0
 13 30  1  0  0  0
 13 64  1  0  0  0
 14 22  1  0  0  0
 16 29  1  0  0  0
 16 65  1  0  0  0
 16 66  1  0  0  0
 19 34  1  0  0  0
 19 67  1  0  0  0
 19 68  1  0  0  0
 20 36  1  0  0  0
 20 69  1  0  0  0
 20 70  1  0  0  0
 22 38  1  0  0  0
 22 39  1  0  0  0
 22 40  1  0  0  0
 23 24  1  0  0  0
 23 33  1  0  0  0
 23 71  1  0  0  0
 24 25  1  0  0  0
 24 72  1  0  0  0
 24 73  1  0  0  0
 25 74  1  0  0  0
 25 75  1  0  0  0
 26 28  1  0  0  0
 26 76  1  0  0  0
 26 77  1  0  0  0
 27 28  1  0  0  0
 27 31  2  0  0  0
 27 78  1  0  0  0
 28 41  2  0  0  0
 29 43  1  0  0  0
 29 44  2  0  0  0
 30 79  1  0  0  0
 31 37  1  0  0  0
 31 42  1  0  0  0
 32 37  1  0  0  0
 32 80  1  0  0  0
 32 81  1  0  0  0
 33 82  1  0  0  0
 34 45  1  0  0  0
 34 46  1  0  0  0
 34 83  1  0  0  0
 35 41  1  0  0  0
 35 42  2  0  0  0
 35 84  1  0  0  0
 36 47  1  0  0  0
 36 48  1  0  0  0
 36 85  1  0  0  0
 37 86  1  0  0  0
 37 87  1  0  0  0
 38 88  1  0  0  0
 38 89  1  0  0  0
 38 90  1  0  0  0
 39 91  1  0  0  0
 39 92  1  0  0  0
 39 93  1  0  0  0
 40 94  1  0  0  0
 40 95  1  0  0  0
 40 96  1  0  0  0
 41 97  1  0  0  0
 42 98  1  0  0  0
 43 50  2  0  0  0
 43 99  1  0  0  0
 44 49  1  0  0  0
 44100  1  0  0  0
 45 51  1  0  0  0
 45101  1  0  0  0
 45102  1  0  0  0
 46 52  1  0  0  0
 46103  1  0  0  0
 46104  1  0  0  0
 47105  1  0  0  0
 47106  1  0  0  0
 47107  1  0  0  0
 48108  1  0  0  0
 48109  1  0  0  0
 48110  1  0  0  0
 49 54  2  0  0  0
 49111  1  0  0  0
 50 54  1  0  0  0
 50112  1  0  0  0
 51 53  1  0  0  0
 51113  1  0  0  0
 51114  1  0  0  0
 52 53  1  0  0  0
 52115  1  0  0  0
 52116  1  0  0  0
 53117  1  0  0  0
 53118  1  0  0  0
 54119  1  0  0  0
M  END
> <s_m_entry_id>
26226

> <s_m_entry_name>
dock_pv.50

> <s_m_Source_Path>
/home/csk/Desktop/cluster/DUD-E-result/reni

> <s_m_Source_File>
dock_pv.maegz

> <i_m_Source_File_Index>
50

> <chembl_id>
CHEMBL127931

> <chembl_pref_name>
None

> <i_lp_mmshare_version>
53161

> <r_lp_tautomer_probability>
1

> <s_lp_Force_Field>
OPLS_2005

> <r_lp_Energy>
24.939883

> <b_lp_Chiralities_Consistent>
1

> <s_lp_Variant>
CHEMBL286_lig488-9

> <s_i_glide_gridfile>
glide-grid_3g6z

> <i_i_glide_lignum>
1078

> <i_i_glide_rotatable_bonds>
28

> <r_i_docking_score>
-8.37540332608583

> <r_i_glide_ligand_efficiency>
-0.155100061594182

> <r_i_glide_ligand_efficiency_sa>
-0.586241496548001

> <r_i_glide_ligand_efficiency_ln>
-1.67877933621649

> <r_i_glide_gscore>
-8.37540332608583

> <r_i_glide_lipo>
-4.15903874688863

> <r_i_glide_hbond>
-0.106706230846278

> <r_i_glide_metal>
0

> <r_i_glide_rewards>
-0.836348462632636

> <r_i_glide_evdw>
-57.9872970581055

> <r_i_glide_ecoul>
-6.49651098251343

> <r_i_glide_erotb>
0.610309344801471

> <r_i_glide_esite>
-0.00977773023746813

> <r_i_glide_emodel>
-87.0934110936089

> <r_i_glide_energy>
-64.4838080406189

> <r_i_glide_einternal>
20.3313293457031

> <i_i_glide_confnum>
2

> <i_i_glide_posenum>
28

> <r_i_glide_eff_state_penalty>
0

> <s_user_duplicate_titles>
CHEMBL286_lig488

> <i_f3d_flags>
0

> <s_m_subgroup_title>
dock_pv

> <s_m_subgroupid>
dock_pv

> <b_m_subgroup_collapsed>
1

$$$$
CHEMBL286_lig1969
                    3D
 Schrodinger Suite 2021-1.
 87 92  0  0  1  0            999 V2000
   -6.9425  -19.9127  -10.9972 C   0  0  2  0  0  0
   -7.4162  -20.5866  -12.3211 C   0  0  0  0  0  0
   -6.3306  -21.4429  -13.0287 C   0  0  0  0  0  0
   -5.0689  -20.7235  -13.2209 N   0  0  1  0  0  0
   -4.5747  -20.1304  -11.9796 C   0  0  0  0  0  0
   -5.6316  -19.1602  -11.3898 C   0  0  2  0  0  0
   -6.6308  -20.9817  -10.1108 O   0  0  0  0  0  0
   -4.9618  -18.2796  -10.2975 C   0  0  0  0  0  0
   -5.1375  -16.9233  -10.2326 N   0  0  0  0  0  0
   -4.2535  -18.8744   -9.4795 O   0  0  0  0  0  0
   -6.0923  -16.1631  -11.0700 C   0  0  0  0  0  0
   -4.6362  -16.1948   -9.0410 C   0  0  0  0  0  0
   -5.7043  -14.8549  -11.7413 C   0  0  0  0  0  0
   -5.9405  -16.0768  -12.5813 C   0  0  0  0  0  0
   -3.7636  -14.9645   -9.2871 C   0  0  0  0  0  0
   -4.2145  -13.7372   -8.7954 C   0  0  0  0  0  0
   -3.4492  -12.5726   -8.9197 C   0  0  0  0  0  0
   -2.2096  -12.6495   -9.5588 C   0  0  0  0  0  0
   -1.7466  -13.8686  -10.0526 C   0  0  0  0  0  0
   -2.5101  -15.0299   -9.9143 C   0  0  0  0  0  0
   -1.8670  -16.5150  -10.5238 Cl  0  0  0  0  0  0
   -3.9696  -11.2281   -8.4051 C   0  0  0  0  0  0
   -4.2875  -11.1626   -6.8911 C   0  0  0  0  0  0
   -5.1856  -12.1685   -6.4259 O   0  0  0  0  0  0
   -6.5328  -12.0601   -6.8690 C   0  0  0  0  0  0
   -8.0066  -18.9945  -10.3473 C   0  0  0  0  0  0
   -8.1034  -18.8944   -8.9509 C   0  0  0  0  0  0
   -9.0691  -18.0858   -8.3528 C   0  0  0  0  0  0
   -9.9444  -17.3674   -9.1691 C   0  0  0  0  0  0
   -9.8467  -17.4173  -10.5283 N   0  0  0  0  0  0
   -8.9019  -18.2130  -11.0949 C   0  0  0  0  0  0
  -10.9519  -16.5507   -8.6262 N   0  0  0  0  0  0
  -11.8972  -15.7554   -9.3988 C   0  0  0  0  0  0
  -12.6986  -14.8464   -8.4745 C   0  0  1  0  0  0
  -12.1304  -15.1125   -7.0872 C   0  0  0  0  0  0
  -11.3893  -16.4363   -7.2363 C   0  0  0  0  0  0
  -12.6654  -13.5215   -9.0191 O   0  0  0  0  0  0
  -12.1332  -12.4923   -8.2734 C   0  0  0  0  0  0
  -10.7526  -12.2226   -8.2620 C   0  0  0  0  0  0
  -10.2670  -11.0975   -7.5967 C   0  0  0  0  0  0
  -11.1303  -10.2799   -6.8672 C   0  0  0  0  0  0
  -12.4894  -10.5914   -6.8210 C   0  0  0  0  0  0
  -12.9963  -11.6724   -7.5425 C   0  0  0  0  0  0
   -9.5993  -13.2631   -9.0244 Cl  0  0  0  0  0  0
  -14.6964  -11.9868   -7.5280 Cl  0  0  0  0  0  0
  -10.5914   -9.0695   -6.1270 C   0  0  0  0  0  0
   -8.2843  -21.2124  -12.1116 H   0  0  0  0  0  0
   -7.8239  -19.8672  -13.0312 H   0  0  0  0  0  0
   -6.1467  -22.3624  -12.4695 H   0  0  0  0  0  0
   -6.6690  -21.7408  -14.0209 H   0  0  0  0  0  0
   -4.3810  -21.3827  -13.5649 H   0  0  0  0  0  0
   -3.6086  -19.6435  -12.1367 H   0  0  0  0  0  0
   -4.3891  -20.9530  -11.2861 H   0  0  0  0  0  0
   -5.8772  -18.4813  -12.1945 H   0  0  0  0  0  0
   -7.2938  -21.6638  -10.2327 H   0  0  0  0  0  0
   -7.1092  -16.2124  -10.6756 H   0  0  0  0  0  0
   -4.0409  -16.8372   -8.3888 H   0  0  0  0  0  0
   -5.4973  -15.9202   -8.4292 H   0  0  0  0  0  0
   -6.4378  -14.0487  -11.7569 H   0  0  0  0  0  0
   -4.6842  -14.4754  -11.7048 H   0  0  0  0  0  0
   -5.0776  -16.5360  -13.0668 H   0  0  0  0  0  0
   -6.8398  -16.1413  -13.1969 H   0  0  0  0  0  0
   -5.1784  -13.7064   -8.3222 H   0  0  0  0  0  0
   -1.6010  -11.7659   -9.6855 H   0  0  0  0  0  0
   -0.7883  -13.9107  -10.5483 H   0  0  0  0  0  0
   -4.8531  -10.9632   -8.9792 H   0  0  0  0  0  0
   -3.2469  -10.4444   -8.6376 H   0  0  0  0  0  0
   -4.6716  -10.1754   -6.6289 H   0  0  0  0  0  0
   -3.3554  -11.2647   -6.3366 H   0  0  0  0  0  0
   -7.0687  -12.9554   -6.5645 H   0  0  0  0  0  0
   -6.6287  -11.9781   -7.9509 H   0  0  0  0  0  0
   -7.0322  -11.2082   -6.4233 H   0  0  0  0  0  0
   -7.4272  -19.4512   -8.3221 H   0  0  0  0  0  0
   -9.1348  -18.0381   -7.2761 H   0  0  0  0  0  0
   -8.8768  -18.1941  -12.1752 H   0  0  0  0  0  0
  -11.2758  -15.1333  -10.0214 H   0  0  0  0  0  0
  -12.5322  -16.3729  -10.0331 H   0  0  0  0  0  0
  -13.7524  -15.1229   -8.5141 H   0  0  0  0  0  0
  -12.9762  -15.2126   -6.4208 H   0  0  0  0  0  0
  -11.4691  -14.3459   -6.6878 H   0  0  0  0  0  0
  -12.0215  -17.2629   -6.9396 H   0  0  0  0  0  0
  -10.5291  -16.4630   -6.5736 H   0  0  0  0  0  0
   -9.2122  -10.8751   -7.6186 H   0  0  0  0  0  0
  -13.1666   -9.9621   -6.2651 H   0  0  0  0  0  0
   -9.5781   -9.2555   -5.7700 H   0  0  0  0  0  0
  -10.5769   -8.1964   -6.7819 H   0  0  0  0  0  0
  -11.1967   -8.8439   -5.2481 H   0  0  0  0  0  0
  1  2  1  0  0  0
  1  7  1  0  0  0
  1 26  1  0  0  0
  1  6  1  0  0  0
  2  3  1  0  0  0
  2 47  1  0  0  0
  2 48  1  0  0  0
  3  4  1  0  0  0
  3 49  1  0  0  0
  3 50  1  0  0  0
  4  5  1  0  0  0
  4 51  1  0  0  0
  5  6  1  0  0  0
  5 52  1  0  0  0
  5 53  1  0  0  0
  6  8  1  0  0  0
  6 54  1  0  0  0
  7 55  1  0  0  0
  8 10  2  0  0  0
  8  9  1  0  0  0
  9 11  1  0  0  0
  9 12  1  0  0  0
 11 13  1  0  0  0
 11 14  1  0  0  0
 11 56  1  0  0  0
 12 15  1  0  0  0
 12 57  1  0  0  0
 12 58  1  0  0  0
 13 14  1  0  0  0
 13 59  1  0  0  0
 13 60  1  0  0  0
 14 61  1  0  0  0
 14 62  1  0  0  0
 15 16  2  0  0  0
 15 20  1  0  0  0
 16 17  1  0  0  0
 16 63  1  0  0  0
 17 22  1  0  0  0
 17 18  2  0  0  0
 18 19  1  0  0  0
 18 64  1  0  0  0
 19 20  2  0  0  0
 19 65  1  0  0  0
 20 21  1  0  0  0
 22 23  1  0  0  0
 22 66  1  0  0  0
 22 67  1  0  0  0
 23 24  1  0  0  0
 23 68  1  0  0  0
 23 69  1  0  0  0
 24 25  1  0  0  0
 25 70  1  0  0  0
 25 71  1  0  0  0
 25 72  1  0  0  0
 26 27  2  0  0  0
 26 31  1  0  0  0
 27 28  1  0  0  0
 27 73  1  0  0  0
 28 29  2  0  0  0
 28 74  1  0  0  0
 29 30  1  0  0  0
 29 32  1  0  0  0
 30 31  2  0  0  0
 31 75  1  0  0  0
 32 33  1  0  0  0
 32 36  1  0  0  0
 33 34  1  0  0  0
 33 76  1  0  0  0
 33 77  1  0  0  0
 34 35  1  0  0  0
 34 37  1  0  0  0
 34 78  1  0  0  0
 35 36  1  0  0  0
 35 79  1  0  0  0
 35 80  1  0  0  0
 36 81  1  0  0  0
 36 82  1  0  0  0
 37 38  1  0  0  0
 38 39  2  0  0  0
 38 43  1  0  0  0
 39 40  1  0  0  0
 39 44  1  0  0  0
 40 41  2  0  0  0
 40 83  1  0  0  0
 41 42  1  0  0  0
 41 46  1  0  0  0
 42 43  2  0  0  0
 42 84  1  0  0  0
 43 45  1  0  0  0
 46 85  1  0  0  0
 46 86  1  0  0  0
 46 87  1  0  0  0
M  END
> <s_m_entry_id>
26227

> <s_m_entry_name>
dock_pv.51

> <s_m_Source_Path>
/home/csk/Desktop/cluster/DUD-E-result/reni

> <s_m_Source_File>
dock_pv.maegz

> <i_m_Source_File_Index>
51

> <chembl_id>
CHEMBL1269763

> <chembl_pref_name>
None

> <i_lp_mmshare_version>
53161

> <r_lp_tautomer_probability>
1

> <s_lp_Force_Field>
OPLS_2005

> <r_lp_Energy>
89.927283

> <b_lp_Chiralities_Consistent>
1

> <s_lp_Variant>
CHEMBL286_lig1969-1

> <s_i_glide_gridfile>
glide-grid_3g6z

> <i_i_glide_lignum>
5759

> <i_i_glide_rotatable_bonds>
13

> <r_i_docking_score>
-8.36654287596629

> <r_i_glide_ligand_efficiency>
-0.181881366868832

> <r_i_glide_ligand_efficiency_sa>
-0.651689643505145

> <r_i_glide_ligand_efficiency_ln>
-1.73269087285082

> <r_i_glide_gscore>
-8.36654287596629

> <r_i_glide_lipo>
-4.93218366339009

> <r_i_glide_hbond>
-0.246953616374735

> <r_i_glide_metal>
0

> <r_i_glide_rewards>
0.173549049853089

> <r_i_glide_evdw>
-55.6941909790039

> <r_i_glide_ecoul>
-6.02186298370361

> <r_i_glide_erotb>
0.327034350451175

> <r_i_glide_esite>
0

> <r_i_glide_emodel>
-82.8132521865318

> <r_i_glide_energy>
-61.7160539627075

> <r_i_glide_einternal>
8.75580024719238

> <i_i_glide_confnum>
33

> <i_i_glide_posenum>
24

> <r_i_glide_eff_state_penalty>
0

> <s_user_duplicate_titles>
CHEMBL286_lig1969

> <i_f3d_flags>
0

> <s_m_subgroup_title>
dock_pv

> <s_m_subgroupid>
dock_pv

> <b_m_subgroup_collapsed>
1

$$$$
CHEMBL286_lig1583
                    3D
 Schrodinger Suite 2021-1.
 79 83  0  0  1  0            999 V2000
   -6.0791  -20.3005  -12.9946 C   0  0  0  0  0  0
   -7.1631  -19.8636  -11.9817 C   0  0  0  0  0  0
   -7.2636  -18.5171  -11.7476 N   0  0  0  0  0  0
   -6.4371  -17.4662  -12.4145 C   0  0  2  0  0  0
   -5.4375  -18.0196  -13.4606 C   0  0  0  0  0  0
   -5.8685  -19.2819  -14.0209 N   0  0  2  0  0  0
   -7.8723  -20.7098  -11.4310 O   0  0  0  0  0  0
   -5.7593  -16.4163  -11.5082 C   0  0  0  0  0  0
   -4.5791  -17.0442  -10.2777 S   0  0  0  0  0  0
   -4.0649  -15.5838   -9.4424 C   0  0  0  0  0  0
   -4.4167  -15.3789   -8.1057 C   0  0  0  0  0  0
   -4.0502  -14.1967   -7.4634 C   0  0  0  0  0  0
   -3.3429  -14.6140  -10.1415 C   0  0  0  0  0  0
   -2.9781  -13.4138   -9.5113 C   0  0  0  0  0  0
   -3.3401  -13.2316   -8.1703 C   0  0  0  0  0  0
   -3.0308  -12.0453   -7.5458 O   0  0  0  0  0  0
   -1.7651  -11.4923   -7.9583 C   0  0  0  0  0  0
   -1.6325  -11.3620   -9.5034 C   0  0  0  0  0  0
   -2.3249  -12.3404  -10.1702 N   0  0  0  0  0  0
   -8.2596  -18.0513  -10.8755 C   0  0  0  0  0  0
   -7.9646  -17.8909   -9.5210 C   0  0  0  0  0  0
   -8.9499  -17.4345   -8.6557 C   0  0  0  0  0  0
  -10.2305  -17.1555   -9.1320 C   0  0  0  0  0  0
  -10.5214  -17.3193  -10.4958 C   0  0  0  0  0  0
   -9.5327  -17.7603  -11.3691 C   0  0  0  0  0  0
  -11.1398  -16.7325   -8.1897 O   0  0  0  0  0  0
  -12.5179  -16.6759   -8.5333 C   0  0  0  0  0  0
  -13.2753  -16.1853   -7.2999 C   0  0  0  0  0  0
  -12.9529  -14.7264   -6.9492 C   0  0  0  0  0  0
  -13.4668  -13.8915   -7.9836 O   0  0  0  0  0  0
  -12.5121  -13.1769   -8.7662 C   0  0  0  0  0  0
  -11.8356  -12.0614   -7.9699 C   0  0  0  0  0  0
  -10.4479  -11.9032   -8.0199 C   0  0  0  0  0  0
   -9.8303  -10.8629   -7.3177 C   0  0  0  0  0  0
  -10.5879   -9.9929   -6.5404 C   0  0  0  0  0  0
  -11.9691  -10.1492   -6.4836 C   0  0  0  0  0  0
  -12.5994  -11.1720   -7.2056 C   0  0  0  0  0  0
  -13.9656  -11.2644   -7.2572 O   0  0  0  0  0  0
  -14.6321  -11.5403   -6.0390 C   0  0  0  0  0  0
   -2.2639  -12.3204  -11.6637 C   0  0  0  0  0  0
   -0.9678  -10.4630  -10.0208 O   0  0  0  0  0  0
   -3.6007  -12.0628  -12.3856 C   0  0  0  0  0  0
   -4.6810  -12.3478  -11.6132 O   0  0  0  0  0  0
   -3.6532  -11.6628  -13.5281 O   0  0  0  0  0  0
   -6.3911  -21.2365  -13.4595 H   0  0  0  0  0  0
   -5.1586  -20.4967  -12.4430 H   0  0  0  0  0  0
   -7.1806  -16.9136  -12.9916 H   0  0  0  0  0  0
   -5.3137  -17.2892  -14.2617 H   0  0  0  0  0  0
   -4.4572  -18.1637  -13.0028 H   0  0  0  0  0  0
   -6.6696  -19.1177  -14.6339 H   0  0  0  0  0  0
   -6.5230  -15.8503  -10.9735 H   0  0  0  0  0  0
   -5.2472  -15.6830  -12.1316 H   0  0  0  0  0  0
   -4.9757  -16.1319   -7.5698 H   0  0  0  0  0  0
   -4.3139  -14.0229   -6.4290 H   0  0  0  0  0  0
   -3.0935  -14.8038  -11.1756 H   0  0  0  0  0  0
   -0.9627  -12.1635   -7.6455 H   0  0  0  0  0  0
   -1.5985  -10.5198   -7.4944 H   0  0  0  0  0  0
   -6.9792  -18.1192   -9.1442 H   0  0  0  0  0  0
   -8.7276  -17.3083   -7.6070 H   0  0  0  0  0  0
  -11.5020  -17.1101  -10.8950 H   0  0  0  0  0  0
   -9.7573  -17.8879  -12.4197 H   0  0  0  0  0  0
  -12.6929  -16.0059   -9.3762 H   0  0  0  0  0  0
  -12.8786  -17.6629   -8.8223 H   0  0  0  0  0  0
  -14.3476  -16.2845   -7.4655 H   0  0  0  0  0  0
  -13.0408  -16.8382   -6.4589 H   0  0  0  0  0  0
  -13.4577  -14.4630   -6.0215 H   0  0  0  0  0  0
  -11.8855  -14.5857   -6.7661 H   0  0  0  0  0  0
  -11.7813  -13.8577   -9.2061 H   0  0  0  0  0  0
  -13.0521  -12.7155   -9.5917 H   0  0  0  0  0  0
   -9.8453  -12.5798   -8.6092 H   0  0  0  0  0  0
   -8.7586  -10.7394   -7.3736 H   0  0  0  0  0  0
  -10.1077   -9.1877   -6.0043 H   0  0  0  0  0  0
  -12.5648   -9.4315   -5.9421 H   0  0  0  0  0  0
  -15.6923  -11.6629   -6.2520 H   0  0  0  0  0  0
  -14.2690  -12.4633   -5.5957 H   0  0  0  0  0  0
  -14.5367  -10.7463   -5.3051 H   0  0  0  0  0  0
   -1.8691  -13.2653  -12.0303 H   0  0  0  0  0  0
   -1.5553  -11.5749  -12.0207 H   0  0  0  0  0  0
   -4.4121  -12.6573  -10.7456 H   0  0  0  0  0  0
  1  2  1  0  0  0
  1  6  1  0  0  0
  1 45  1  0  0  0
  1 46  1  0  0  0
  2  7  2  0  0  0
  2  3  1  0  0  0
  3  4  1  0  0  0
  3 20  1  0  0  0
  4  5  1  0  0  0
  4  8  1  0  0  0
  4 47  1  0  0  0
  5  6  1  0  0  0
  5 48  1  0  0  0
  5 49  1  0  0  0
  6 50  1  0  0  0
  8  9  1  0  0  0
  8 51  1  0  0  0
  8 52  1  0  0  0
  9 10  1  0  0  0
 10 11  2  0  0  0
 10 13  1  0  0  0
 11 12  1  0  0  0
 11 53  1  0  0  0
 12 15  2  0  0  0
 12 54  1  0  0  0
 13 14  2  0  0  0
 13 55  1  0  0  0
 14 15  1  0  0  0
 14 19  1  0  0  0
 15 16  1  0  0  0
 16 17  1  0  0  0
 17 18  1  0  0  0
 17 56  1  0  0  0
 17 57  1  0  0  0
 18 19  1  0  0  0
 18 41  2  0  0  0
 19 40  1  0  0  0
 20 25  1  0  0  0
 20 21  2  0  0  0
 21 22  1  0  0  0
 21 58  1  0  0  0
 22 23  2  0  0  0
 22 59  1  0  0  0
 23 24  1  0  0  0
 23 26  1  0  0  0
 24 25  2  0  0  0
 24 60  1  0  0  0
 25 61  1  0  0  0
 26 27  1  0  0  0
 27 28  1  0  0  0
 27 62  1  0  0  0
 27 63  1  0  0  0
 28 29  1  0  0  0
 28 64  1  0  0  0
 28 65  1  0  0  0
 29 30  1  0  0  0
 29 66  1  0  0  0
 29 67  1  0  0  0
 30 31  1  0  0  0
 31 32  1  0  0  0
 31 68  1  0  0  0
 31 69  1  0  0  0
 32 33  2  0  0  0
 32 37  1  0  0  0
 33 34  1  0  0  0
 33 70  1  0  0  0
 34 35  2  0  0  0
 34 71  1  0  0  0
 35 36  1  0  0  0
 35 72  1  0  0  0
 36 37  2  0  0  0
 36 73  1  0  0  0
 37 38  1  0  0  0
 38 39  1  0  0  0
 39 74  1  0  0  0
 39 75  1  0  0  0
 39 76  1  0  0  0
 40 42  1  0  0  0
 40 77  1  0  0  0
 40 78  1  0  0  0
 42 43  1  0  0  0
 42 44  2  0  0  0
 43 79  1  0  0  0
M  END
> <s_m_entry_id>
26228

> <s_m_entry_name>
dock_pv.52

> <s_m_Source_Path>
/home/csk/Desktop/cluster/DUD-E-result/reni

> <s_m_Source_File>
dock_pv.maegz

> <i_m_Source_File_Index>
52

> <chembl_id>
CHEMBL380360

> <chembl_pref_name>
None

> <i_lp_mmshare_version>
53161

> <r_lp_tautomer_probability>
1

> <s_lp_Force_Field>
OPLS_2005

> <r_lp_Energy>
64.163978

> <b_lp_Chiralities_Consistent>
1

> <s_lp_Variant>
CHEMBL286_lig1583-1

> <s_i_glide_gridfile>
glide-grid_3g6z

> <i_i_glide_lignum>
5287

> <i_i_glide_rotatable_bonds>
15

> <r_i_docking_score>
-8.34351473217258

> <r_i_glide_ligand_efficiency>
-0.189625334822104

> <r_i_glide_ligand_efficiency_sa>
-0.669443484280429

> <r_i_glide_ligand_efficiency_ln>
-1.74397659177636

> <r_i_glide_gscore>
-8.34351473217258

> <r_i_glide_lipo>
-3.85110546424252

> <r_i_glide_hbond>
-0.474603668434392

> <r_i_glide_metal>
0

> <r_i_glide_rewards>
0.117630343952272

> <r_i_glide_evdw>
-61.442081451416

> <r_i_glide_ecoul>
-10.4918384552002

> <r_i_glide_erotb>
0.576946737994853

> <r_i_glide_esite>
-0.0665028405919659

> <r_i_glide_emodel>
-101.615344978932

> <r_i_glide_energy>
-71.9339199066162

> <r_i_glide_einternal>
15.5851678848267

> <i_i_glide_confnum>
2

> <i_i_glide_posenum>
36

> <r_i_glide_eff_state_penalty>
0

> <s_user_duplicate_titles>
CHEMBL286_lig1583

> <i_f3d_flags>
0

> <s_m_subgroup_title>
dock_pv

> <s_m_subgroupid>
dock_pv

> <b_m_subgroup_collapsed>
1

$$$$
CHEMBL286_lig1968
                    3D
 Schrodinger Suite 2021-1.
 83 88  0  0  1  0            999 V2000
   -4.9153  -22.3530  -11.6554 C   0  0  2  0  0  0
   -4.5396  -22.7363  -13.1184 C   0  0  0  0  0  0
   -3.0792  -23.2021  -13.3530 C   0  0  0  0  0  0
   -2.0918  -22.3393  -12.7008 N   0  0  1  0  0  0
   -2.3585  -22.3269  -11.2677 C   0  0  0  0  0  0
   -3.6920  -21.5723  -11.0521 C   0  0  2  0  0  0
   -5.0360  -23.5491  -10.8945 O   0  0  0  0  0  0
   -3.8117  -21.0433   -9.5975 C   0  0  0  0  0  0
   -2.9279  -20.1259   -9.1101 N   0  0  0  0  0  0
   -4.7195  -21.5029   -8.8964 O   0  0  0  0  0  0
   -3.0224  -19.6542   -7.7208 C   0  0  0  0  0  0
   -1.9657  -19.3586   -9.9297 C   0  0  0  0  0  0
   -3.0019  -20.6457   -6.5690 C   0  0  0  0  0  0
   -1.8112  -19.7503   -6.8150 C   0  0  0  0  0  0
   -2.3673  -17.9474  -10.3663 C   0  0  0  0  0  0
   -3.7131  -17.5987  -10.5443 C   0  0  0  0  0  0
   -4.0772  -16.3219  -10.9809 C   0  0  0  0  0  0
   -3.0760  -15.3725  -11.2182 C   0  0  0  0  0  0
   -1.7347  -15.7078  -11.0467 C   0  0  0  0  0  0
   -1.3758  -16.9884  -10.6372 C   0  0  0  0  0  0
    0.3112  -17.3543  -10.4893 Cl  0  0  0  0  0  0
   -5.5615  -16.0311  -11.2139 C   0  0  0  0  0  0
   -5.9268  -14.5831  -11.6128 C   0  0  0  0  0  0
   -7.3195  -14.4352  -11.8704 O   0  0  0  0  0  0
   -7.7435  -14.9285  -13.1359 C   0  0  0  0  0  0
   -6.1987  -21.4930  -11.6167 C   0  0  0  0  0  0
   -6.2597  -20.2413  -12.2485 C   0  0  0  0  0  0
   -7.4196  -19.4710  -12.1738 C   0  0  0  0  0  0
   -8.5151  -19.9674  -11.4521 C   0  0  0  0  0  0
   -8.4944  -21.1918  -10.8723 N   0  0  0  0  0  0
   -7.3608  -21.9279  -10.9588 C   0  0  0  0  0  0
   -9.7098  -19.3075  -11.2584 O   0  0  0  0  0  0
   -9.7742  -17.8890  -11.4159 C   0  0  0  0  0  0
  -10.4219  -17.2711  -10.1915 C   0  0  0  0  0  0
  -11.4692  -16.4629  -10.0319 C   0  0  0  0  0  0
  -11.6052  -16.2340   -8.5605 C   0  0  1  0  0  0
  -10.4169  -16.8351   -7.9780 N   0  0  1  0  0  0
   -9.8681  -17.6578   -9.0210 O   0  0  0  0  0  0
  -11.7535  -14.7425   -8.1888 C   0  0  0  0  0  0
  -12.9518  -14.2311   -7.6552 C   0  0  0  0  0  0
  -13.1002  -12.8524   -7.4428 C   0  0  0  0  0  0
  -12.0465  -11.9845   -7.7025 C   0  0  0  0  0  0
  -10.8375  -12.4844   -8.1687 C   0  0  0  0  0  0
  -10.6933  -13.8464   -8.4211 C   0  0  0  0  0  0
  -14.2674  -15.2773   -7.2300 Cl  0  0  0  0  0  0
  -14.2663  -12.3296   -7.0004 F   0  0  0  0  0  0
   -9.5048  -14.2910   -8.8897 F   0  0  0  0  0  0
   -5.2221  -23.5166  -13.4612 H   0  0  0  0  0  0
   -4.7738  -21.9303  -13.8127 H   0  0  0  0  0  0
   -2.9598  -24.2319  -13.0141 H   0  0  0  0  0  0
   -2.8662  -23.1959  -14.4208 H   0  0  0  0  0  0
   -1.1639  -22.6994  -12.8780 H   0  0  0  0  0  0
   -1.5152  -21.9253  -10.7054 H   0  0  0  0  0  0
   -2.4617  -23.3537  -10.9146 H   0  0  0  0  0  0
   -3.6358  -20.6291  -11.5961 H   0  0  0  0  0  0
   -4.9955  -23.2839   -9.9689 H   0  0  0  0  0  0
   -3.6474  -18.7657   -7.6226 H   0  0  0  0  0  0
   -1.6768  -19.8832  -10.8380 H   0  0  0  0  0  0
   -1.0549  -19.2833   -9.3393 H   0  0  0  0  0  0
   -3.6393  -20.4631   -5.7056 H   0  0  0  0  0  0
   -2.9118  -21.7098   -6.7912 H   0  0  0  0  0  0
   -0.8998  -20.1989   -7.2067 H   0  0  0  0  0  0
   -1.6107  -18.9278   -6.1299 H   0  0  0  0  0  0
   -4.4887  -18.3304  -10.3668 H   0  0  0  0  0  0
   -3.3099  -14.3748  -11.5566 H   0  0  0  0  0  0
   -0.9734  -14.9653  -11.2438 H   0  0  0  0  0  0
   -6.1151  -16.2933  -10.3108 H   0  0  0  0  0  0
   -5.8979  -16.7191  -11.9882 H   0  0  0  0  0  0
   -5.3555  -14.2413  -12.4767 H   0  0  0  0  0  0
   -5.6786  -13.9127  -10.7886 H   0  0  0  0  0  0
   -8.8030  -14.7174  -13.2645 H   0  0  0  0  0  0
   -7.6119  -16.0064  -13.2211 H   0  0  0  0  0  0
   -7.2100  -14.4470  -13.9577 H   0  0  0  0  0  0
   -5.4134  -19.8544  -12.7953 H   0  0  0  0  0  0
   -7.4556  -18.5250  -12.6924 H   0  0  0  0  0  0
   -7.4016  -22.8906  -10.4686 H   0  0  0  0  0  0
   -8.8070  -17.3962  -11.5204 H   0  0  0  0  0  0
  -10.3510  -17.6590  -12.3128 H   0  0  0  0  0  0
  -12.1289  -16.0513  -10.7827 H   0  0  0  0  0  0
  -12.4606  -16.8000   -8.1934 H   0  0  0  0  0  0
   -9.7336  -16.0958   -7.8874 H   0  0  0  0  0  0
  -12.1670  -10.9224   -7.5351 H   0  0  0  0  0  0
  -10.0109  -11.8144   -8.3504 H   0  0  0  0  0  0
  1  2  1  0  0  0
  1  7  1  0  0  0
  1 26  1  0  0  0
  1  6  1  0  0  0
  2  3  1  0  0  0
  2 48  1  0  0  0
  2 49  1  0  0  0
  3  4  1  0  0  0
  3 50  1  0  0  0
  3 51  1  0  0  0
  4  5  1  0  0  0
  4 52  1  0  0  0
  5  6  1  0  0  0
  5 53  1  0  0  0
  5 54  1  0  0  0
  6  8  1  0  0  0
  6 55  1  0  0  0
  7 56  1  0  0  0
  8  9  1  0  0  0
  8 10  2  0  0  0
  9 11  1  0  0  0
  9 12  1  0  0  0
 11 13  1  0  0  0
 11 14  1  0  0  0
 11 57  1  0  0  0
 12 15  1  0  0  0
 12 58  1  0  0  0
 12 59  1  0  0  0
 13 14  1  0  0  0
 13 60  1  0  0  0
 13 61  1  0  0  0
 14 62  1  0  0  0
 14 63  1  0  0  0
 15 16  2  0  0  0
 15 20  1  0  0  0
 16 17  1  0  0  0
 16 64  1  0  0  0
 17 22  1  0  0  0
 17 18  2  0  0  0
 18 19  1  0  0  0
 18 65  1  0  0  0
 19 20  2  0  0  0
 19 66  1  0  0  0
 20 21  1  0  0  0
 22 23  1  0  0  0
 22 67  1  0  0  0
 22 68  1  0  0  0
 23 24  1  0  0  0
 23 69  1  0  0  0
 23 70  1  0  0  0
 24 25  1  0  0  0
 25 71  1  0  0  0
 25 72  1  0  0  0
 25 73  1  0  0  0
 26 27  2  0  0  0
 26 31  1  0  0  0
 27 28  1  0  0  0
 27 74  1  0  0  0
 28 29  2  0  0  0
 28 75  1  0  0  0
 29 30  1  0  0  0
 29 32  1  0  0  0
 30 31  2  0  0  0
 31 76  1  0  0  0
 32 33  1  0  0  0
 33 34  1  0  0  0
 33 77  1  0  0  0
 33 78  1  0  0  0
 34 35  2  0  0  0
 34 38  1  0  0  0
 35 36  1  0  0  0
 35 79  1  0  0  0
 36 37  1  0  0  0
 36 39  1  0  0  0
 36 80  1  0  0  0
 37 38  1  0  0  0
 37 81  1  0  0  0
 39 40  2  0  0  0
 39 44  1  0  0  0
 40 41  1  0  0  0
 40 45  1  0  0  0
 41 42  2  0  0  0
 41 46  1  0  0  0
 42 43  1  0  0  0
 42 82  1  0  0  0
 43 44  2  0  0  0
 43 83  1  0  0  0
 44 47  1  0  0  0
M  END
> <s_m_entry_id>
26229

> <s_m_entry_name>
dock_pv.53

> <s_m_Source_Path>
/home/csk/Desktop/cluster/DUD-E-result/reni

> <s_m_Source_File>
dock_pv.maegz

> <i_m_Source_File_Index>
53

> <chembl_id>
CHEMBL1269762

> <chembl_pref_name>
None

> <i_lp_mmshare_version>
53161

> <r_lp_tautomer_probability>
1

> <s_lp_Force_Field>
OPLS_2005

> <r_lp_Energy>
74.277467

> <b_lp_Chiralities_Consistent>
1

> <s_lp_Variant>
CHEMBL286_lig1968-2

> <s_i_glide_gridfile>
glide-grid_3g6z

> <i_i_glide_lignum>
5758

> <i_i_glide_rotatable_bonds>
14

> <r_i_docking_score>
-8.34023201885416

> <r_i_glide_ligand_efficiency>
-0.177451745082003

> <r_i_glide_ligand_efficiency_sa>
-0.640392484796189

> <r_i_glide_ligand_efficiency_ln>
-1.71958313514285

> <r_i_glide_gscore>
-8.34023201885416

> <r_i_glide_lipo>
-4.23167888226702

> <r_i_glide_hbond>
0

> <r_i_glide_metal>
0

> <r_i_glide_rewards>
-1.48125007550998

> <r_i_glide_evdw>
-53.6443977355957

> <r_i_glide_ecoul>
-2.09630870819092

> <r_i_glide_erotb>
0.369363131931259

> <r_i_glide_esite>
0

> <r_i_glide_emodel>
-79.9845864475745

> <r_i_glide_energy>
-55.7407064437866

> <r_i_glide_einternal>
8.76934432983398

> <i_i_glide_confnum>
62

> <i_i_glide_posenum>
265

> <r_i_glide_eff_state_penalty>
0

> <s_user_duplicate_titles>
CHEMBL286_lig1968

> <i_f3d_flags>
0

> <s_m_subgroup_title>
dock_pv

> <s_m_subgroupid>
dock_pv

> <b_m_subgroup_collapsed>
1

$$$$
CHEMBL286_lig574
                    3D
 Schrodinger Suite 2021-1.
 93 94  0  0  1  0            999 V2000
  -10.4718  -18.4438  -10.9630 P   0  0  2  0  0  0
   -6.8347  -17.3211   -9.8708 C   0  0  0  0  0  0
   -5.6764  -17.0367  -10.4911 N   0  0  0  0  0  0
   -7.8301  -18.2048  -10.6520 C   0  0  2  0  0  0
   -9.1424  -17.9704  -10.1468 O   0  0  0  0  0  0
   -3.1757  -12.2914  -10.6288 C   0  0  0  0  0  0
   -4.5268  -16.3430   -9.8920 C   0  0  2  0  0  0
   -4.6051  -14.3121  -11.5194 C   0  0  0  0  0  0
   -3.7761  -15.4921  -10.9516 C   0  0  2  0  0  0
   -3.7557  -13.0441  -11.8472 C   0  0  1  0  0  0
  -10.6495  -19.9135  -11.1055 O   0  0  0  0  0  0
   -7.0912  -16.9285   -8.7309 O   0  0  0  0  0  0
   -3.6305  -17.3845   -9.1583 C   0  0  0  0  0  0
   -2.1242  -11.6644  -10.7407 O   0  0  0  0  0  0
  -10.3466  -17.6630  -12.3741 O   0  0  0  0  0  0
   -3.8876  -12.3166   -9.4923 N   0  0  0  0  0  0
  -11.8097  -17.5137  -10.1139 C   0  0  0  0  0  0
   -3.3271  -16.3117  -12.0209 O   0  0  0  0  0  0
   -2.3763  -16.8896   -8.3832 C   0  0  0  0  0  0
   -7.4695  -19.7124  -10.5425 C   0  0  0  0  0  0
  -12.2111  -14.1298   -8.1188 C   0  0  0  0  0  0
  -11.5157  -16.0442   -9.7397 C   0  0  0  0  0  0
   -4.5450  -12.0662  -12.7362 C   0  0  0  0  0  0
  -12.2177  -15.6274   -8.4248 C   0  0  0  0  0  0
   -3.6023  -11.5645   -8.2735 C   0  0  0  0  0  0
  -13.3728  -13.5275   -7.6237 C   0  0  0  0  0  0
  -11.0556  -13.3601   -8.2918 C   0  0  0  0  0  0
   -1.0701  -16.8423   -9.2191 C   0  0  0  0  0  0
   -2.5898  -15.5567   -7.6211 C   0  0  0  0  0  0
   -7.6637  -20.3321   -9.1412 C   0  0  0  0  0  0
   -4.8788  -10.8865   -7.7313 C   0  0  0  0  0  0
   -6.0775  -11.8350   -7.4945 C   0  0  0  0  0  0
   -5.7872  -12.9190   -6.4605 C   0  0  0  0  0  0
   -7.3554  -21.8349   -9.1096 C   0  0  0  0  0  0
  -11.0701  -11.9999   -7.9911 C   0  0  0  0  0  0
  -13.3902  -12.1675   -7.3263 C   0  0  0  0  0  0
    0.1504  -16.4625   -8.3544 C   0  0  0  0  0  0
   -1.3750  -15.1767   -6.7532 C   0  0  0  0  0  0
   -0.0770  -15.1445   -7.5855 C   0  0  0  0  0  0
  -12.2378  -11.4089   -7.5135 C   0  0  0  0  0  0
   -5.5439  -17.3434  -11.4440 H   0  0  0  0  0  0
   -7.7899  -17.9047  -11.7021 H   0  0  0  0  0  0
   -4.9046  -15.6483   -9.1382 H   0  0  0  0  0  0
   -5.4038  -14.0419  -10.8265 H   0  0  0  0  0  0
   -5.1461  -14.6470  -12.4073 H   0  0  0  0  0  0
   -2.8926  -15.0690  -10.4857 H   0  0  0  0  0  0
   -2.8911  -13.3753  -12.4250 H   0  0  0  0  0  0
   -4.2645  -17.8967   -8.4321 H   0  0  0  0  0  0
   -3.3345  -18.1646   -9.8609 H   0  0  0  0  0  0
  -10.7241  -18.1091  -13.1655 H   0  0  0  0  0  0
   -4.7064  -12.9021   -9.4637 H   0  0  0  0  0  0
  -12.6690  -17.5715  -10.7678 H   0  0  0  0  0  0
  -12.0751  -18.0622   -9.2209 H   0  0  0  0  0  0
   -3.4004  -15.8006  -12.8448 H   0  0  0  0  0  0
   -2.1798  -17.6451   -7.6206 H   0  0  0  0  0  0
   -8.0701  -20.2676  -11.2637 H   0  0  0  0  0  0
   -6.4405  -19.8668  -10.8706 H   0  0  0  0  0  0
  -10.4428  -15.8752   -9.6473 H   0  0  0  0  0  0
  -11.8675  -15.4053  -10.5481 H   0  0  0  0  0  0
   -3.9320  -11.2253  -13.0669 H   0  0  0  0  0  0
   -4.9034  -12.5790  -13.6227 H   0  0  0  0  0  0
   -5.4158  -11.6639  -12.2180 H   0  0  0  0  0  0
  -13.2547  -15.9678   -8.4648 H   0  0  0  0  0  0
  -11.7625  -16.1490   -7.5815 H   0  0  0  0  0  0
   -2.8267  -10.8116   -8.4234 H   0  0  0  0  0  0
   -3.2117  -12.2764   -7.5458 H   0  0  0  0  0  0
  -14.2682  -14.1138   -7.4776 H   0  0  0  0  0  0
  -10.1427  -13.8097   -8.6553 H   0  0  0  0  0  0
   -0.8987  -17.8186   -9.6758 H   0  0  0  0  0  0
   -1.1474  -16.1601  -10.0629 H   0  0  0  0  0  0
   -2.8206  -14.7445   -8.3069 H   0  0  0  0  0  0
   -3.4749  -15.6452   -6.9911 H   0  0  0  0  0  0
   -7.0260  -19.8189   -8.4218 H   0  0  0  0  0  0
   -8.6892  -20.1727   -8.8069 H   0  0  0  0  0  0
   -5.1775  -10.0981   -8.4218 H   0  0  0  0  0  0
   -4.6379  -10.3696   -6.8013 H   0  0  0  0  0  0
   -6.3890  -12.3166   -8.4209 H   0  0  0  0  0  0
   -6.9429  -11.2637   -7.1600 H   0  0  0  0  0  0
   -6.6692  -13.5231   -6.2550 H   0  0  0  0  0  0
   -5.4637  -12.4630   -5.5273 H   0  0  0  0  0  0
   -5.0084  -13.5994   -6.8076 H   0  0  0  0  0  0
   -7.4973  -22.2398   -8.1066 H   0  0  0  0  0  0
   -8.0099  -22.3883   -9.7858 H   0  0  0  0  0  0
   -6.3231  -22.0291   -9.4029 H   0  0  0  0  0  0
  -10.1790  -11.4038   -8.1190 H   0  0  0  0  0  0
  -14.2917  -11.7038   -6.9506 H   0  0  0  0  0  0
    0.3559  -17.2626   -7.6419 H   0  0  0  0  0  0
    1.0395  -16.3802   -8.9820 H   0  0  0  0  0  0
   -1.2686  -15.8939   -5.9384 H   0  0  0  0  0  0
   -1.5431  -14.2061   -6.2848 H   0  0  0  0  0  0
    0.7752  -14.9401   -6.9352 H   0  0  0  0  0  0
   -0.1240  -14.3179   -8.2967 H   0  0  0  0  0  0
  -12.2495  -10.3522   -7.2822 H   0  0  0  0  0  0
  1  5  1  0  0  0
  1 11  2  0  0  0
  1 15  1  0  0  0
  1 17  1  0  0  0
  2  4  1  0  0  0
  2  3  1  0  0  0
  2 12  2  0  0  0
  3  7  1  0  0  0
  3 41  1  0  0  0
  4  5  1  0  0  0
  4 20  1  0  0  0
  4 42  1  0  0  0
  6 10  1  0  0  0
  6 14  2  0  0  0
  6 16  1  0  0  0
  7  9  1  0  0  0
  7 13  1  0  0  0
  7 43  1  0  0  0
  8  9  1  0  0  0
  8 10  1  0  0  0
  8 44  1  0  0  0
  8 45  1  0  0  0
  9 18  1  0  0  0
  9 46  1  0  0  0
 10 23  1  0  0  0
 10 47  1  0  0  0
 13 19  1  0  0  0
 13 48  1  0  0  0
 13 49  1  0  0  0
 15 50  1  0  0  0
 16 25  1  0  0  0
 16 51  1  0  0  0
 17 22  1  0  0  0
 17 52  1  0  0  0
 17 53  1  0  0  0
 18 54  1  0  0  0
 19 28  1  0  0  0
 19 29  1  0  0  0
 19 55  1  0  0  0
 20 30  1  0  0  0
 20 56  1  0  0  0
 20 57  1  0  0  0
 21 24  1  0  0  0
 21 26  2  0  0  0
 21 27  1  0  0  0
 22 24  1  0  0  0
 22 58  1  0  0  0
 22 59  1  0  0  0
 23 60  1  0  0  0
 23 61  1  0  0  0
 23 62  1  0  0  0
 24 63  1  0  0  0
 24 64  1  0  0  0
 25 31  1  0  0  0
 25 65  1  0  0  0
 25 66  1  0  0  0
 26 36  1  0  0  0
 26 67  1  0  0  0
 27 35  2  0  0  0
 27 68  1  0  0  0
 28 37  1  0  0  0
 28 69  1  0  0  0
 28 70  1  0  0  0
 29 38  1  0  0  0
 29 71  1  0  0  0
 29 72  1  0  0  0
 30 34  1  0  0  0
 30 73  1  0  0  0
 30 74  1  0  0  0
 31 32  1  0  0  0
 31 75  1  0  0  0
 31 76  1  0  0  0
 32 33  1  0  0  0
 32 77  1  0  0  0
 32 78  1  0  0  0
 33 79  1  0  0  0
 33 80  1  0  0  0
 33 81  1  0  0  0
 34 82  1  0  0  0
 34 83  1  0  0  0
 34 84  1  0  0  0
 35 40  1  0  0  0
 35 85  1  0  0  0
 36 40  2  0  0  0
 36 86  1  0  0  0
 37 39  1  0  0  0
 37 87  1  0  0  0
 37 88  1  0  0  0
 38 39  1  0  0  0
 38 89  1  0  0  0
 38 90  1  0  0  0
 39 91  1  0  0  0
 39 92  1  0  0  0
 40 93  1  0  0  0
M  END
> <s_m_entry_id>
26230

> <s_m_entry_name>
dock_pv.54

> <s_m_Source_Path>
/home/csk/Desktop/cluster/DUD-E-result/reni

> <s_m_Source_File>
dock_pv.maegz

> <i_m_Source_File_Index>
54

> <chembl_id>
CHEMBL144073

> <chembl_pref_name>
None

> <i_lp_mmshare_version>
53161

> <r_lp_tautomer_probability>
1

> <s_lp_Force_Field>
OPLS_2005

> <r_lp_Energy>
2.364552

> <b_lp_Chiralities_Consistent>
1

> <s_lp_Variant>
CHEMBL286_lig574-1

> <s_i_glide_gridfile>
glide-grid_3g6z

> <i_i_glide_lignum>
1616

> <i_i_glide_rotatable_bonds>
23

> <r_i_docking_score>
-8.3385739631371

> <r_i_glide_ligand_efficiency>
-0.208464349078428

> <r_i_glide_ligand_efficiency_sa>
-0.712938044450804

> <r_i_glide_ligand_efficiency_ln>
-1.77837243305988

> <r_i_glide_gscore>
-8.3385739631371

> <r_i_glide_lipo>
-4.25819613740196

> <r_i_glide_hbond>
-0.304

> <r_i_glide_metal>
0

> <r_i_glide_rewards>
-0.998628085100476

> <r_i_glide_evdw>
-44.251033782959

> <r_i_glide_ecoul>
-10.1245536804199

> <r_i_glide_erotb>
0.953485000576266

> <r_i_glide_esite>
0

> <r_i_glide_emodel>
-70.5110493293479

> <r_i_glide_energy>
-54.3755874633789

> <r_i_glide_einternal>
21.3184871673584

> <i_i_glide_confnum>
3

> <i_i_glide_posenum>
240

> <r_i_glide_eff_state_penalty>
0

> <s_user_duplicate_titles>
CHEMBL286_lig574,242821

> <i_f3d_flags>
0

> <s_m_subgroup_title>
dock_pv

> <s_m_subgroupid>
dock_pv

> <b_m_subgroup_collapsed>
1

$$$$
CHEMBL286_lig2006
                    3D
 Schrodinger Suite 2021-1.
 63 67  0  0  1  0            999 V2000
  -10.3799  -20.2690  -11.1238 C   0  0  0  0  0  0
  -11.5599  -19.5406  -10.9530 C   0  0  0  0  0  0
  -11.5097  -18.2275  -10.4738 C   0  0  0  0  0  0
   -9.1393  -19.7142  -10.8391 C   0  0  0  0  0  0
   -9.9102  -16.4940   -9.4888 N   0  0  0  0  0  0
   -8.5212  -16.3769   -9.5237 C   0  0  0  0  0  0
   -7.9448  -17.5226  -10.1069 C   0  0  0  0  0  0
   -9.0536  -18.3880  -10.3897 C   0  0  0  0  0  0
  -10.2590  -17.6803  -10.1333 C   0  0  0  0  0  0
  -10.8162  -15.6105   -8.8208 C   0  0  0  0  0  0
  -10.6209  -14.2213   -8.8209 C   0  0  0  0  0  0
  -11.5229  -13.3778   -8.1756 C   0  0  0  0  0  0
  -12.6330  -13.9148   -7.5310 C   0  0  0  0  0  0
  -12.8450  -15.2897   -7.5217 C   0  0  0  0  0  0
  -11.9386  -16.1319   -8.1593 C   0  0  0  0  0  0
   -6.5337  -17.8197  -10.2495 C   0  0  0  0  0  0
   -6.0917  -18.3372  -11.4353 N   0  0  0  0  0  0
   -5.7999  -17.6631   -9.2737 O   0  0  0  0  0  0
   -4.7074  -18.8317  -11.5497 C   0  0  0  0  0  0
   -4.7644  -20.2524  -12.1614 C   0  0  0  0  0  0
   -5.4690  -20.2999  -13.4411 N   0  0  0  0  0  0
   -6.7984  -19.7042  -13.3936 C   0  0  0  0  0  0
   -6.8439  -18.3109  -12.7090 C   0  0  0  0  0  0
   -7.9458  -15.2290   -9.0162 O   0  0  0  0  0  0
   -6.6795  -14.8099   -9.3536 C   0  0  0  0  0  0
   -5.7423  -14.7024   -8.3239 C   0  0  0  0  0  0
   -4.4421  -14.2822   -8.5926 C   0  0  0  0  0  0
   -4.0727  -13.9520   -9.8949 C   0  0  0  0  0  0
   -5.0073  -14.0289  -10.9270 C   0  0  0  0  0  0
   -6.3177  -14.4438  -10.6653 C   0  0  0  0  0  0
  -12.8141  -20.0631  -11.2229 O   0  0  0  0  0  0
  -13.0320  -21.4789  -11.0939 C   0  0  0  0  0  0
   -7.3295  -14.4493  -11.8008 C   0  0  0  0  0  0
   -3.5399  -14.1931   -7.5895 F   0  0  0  0  0  0
  -13.4689  -22.1149  -12.4211 C   0  0  0  0  0  0
  -13.3876  -23.4747  -12.3854 O   0  0  0  0  0  0
  -13.8690  -21.4817  -13.3910 O   0  0  0  0  0  0
  -10.4016  -21.2758  -11.5117 H   0  0  0  0  0  0
  -12.4246  -17.6760  -10.3261 H   0  0  0  0  0  0
   -8.2440  -20.3005  -10.9696 H   0  0  0  0  0  0
   -9.7783  -13.7720   -9.3233 H   0  0  0  0  0  0
  -11.3642  -12.3092   -8.1805 H   0  0  0  0  0  0
  -13.3321  -13.2601   -7.0312 H   0  0  0  0  0  0
  -13.7060  -15.7028   -7.0163 H   0  0  0  0  0  0
  -12.1128  -17.1956   -8.1134 H   0  0  0  0  0  0
   -4.1303  -18.1720  -12.1989 H   0  0  0  0  0  0
   -4.1907  -18.8705  -10.5893 H   0  0  0  0  0  0
   -5.2924  -20.9222  -11.4802 H   0  0  0  0  0  0
   -3.7632  -20.6666  -12.2853 H   0  0  0  0  0  0
   -5.5532  -21.2612  -13.7503 H   0  0  0  0  0  0
   -7.4196  -20.4190  -12.8603 H   0  0  0  0  0  0
   -7.1925  -19.6629  -14.4096 H   0  0  0  0  0  0
   -7.8690  -17.9597  -12.6137 H   0  0  0  0  0  0
   -6.3449  -17.6032  -13.3727 H   0  0  0  0  0  0
   -6.0211  -14.9690   -7.3158 H   0  0  0  0  0  0
   -3.0629  -13.6304  -10.1026 H   0  0  0  0  0  0
   -4.7090  -13.7596  -11.9309 H   0  0  0  0  0  0
  -13.8689  -21.5865  -10.4140 H   0  0  0  0  0  0
  -12.2041  -22.0337  -10.6547 H   0  0  0  0  0  0
   -6.9970  -13.8453  -12.6461 H   0  0  0  0  0  0
   -7.5267  -15.4628  -12.1481 H   0  0  0  0  0  0
   -8.2687  -14.0188  -11.4593 H   0  0  0  0  0  0
  -13.7197  -23.8694  -13.1996 H   0  0  0  0  0  0
  1  4  1  0  0  0
  1  2  2  0  0  0
  1 38  1  0  0  0
  2  3  1  0  0  0
  2 31  1  0  0  0
  3  9  2  0  0  0
  3 39  1  0  0  0
  4  8  2  0  0  0
  4 40  1  0  0  0
  5  6  1  0  0  0
  5  9  1  0  0  0
  5 10  1  0  0  0
  6 24  1  0  0  0
  6  7  2  0  0  0
  7  8  1  0  0  0
  7 16  1  0  0  0
  8  9  1  0  0  0
 10 11  2  0  0  0
 10 15  1  0  0  0
 11 12  1  0  0  0
 11 41  1  0  0  0
 12 13  2  0  0  0
 12 42  1  0  0  0
 13 14  1  0  0  0
 13 43  1  0  0  0
 14 15  2  0  0  0
 14 44  1  0  0  0
 15 45  1  0  0  0
 16 18  2  0  0  0
 16 17  1  0  0  0
 17 19  1  0  0  0
 17 23  1  0  0  0
 19 20  1  0  0  0
 19 46  1  0  0  0
 19 47  1  0  0  0
 20 21  1  0  0  0
 20 48  1  0  0  0
 20 49  1  0  0  0
 21 22  1  0  0  0
 21 50  1  0  0  0
 22 23  1  0  0  0
 22 51  1  0  0  0
 22 52  1  0  0  0
 23 53  1  0  0  0
 23 54  1  0  0  0
 24 25  1  0  0  0
 25 26  2  0  0  0
 25 30  1  0  0  0
 26 27  1  0  0  0
 26 55  1  0  0  0
 27 28  2  0  0  0
 27 34  1  0  0  0
 28 29  1  0  0  0
 28 56  1  0  0  0
 29 30  2  0  0  0
 29 57  1  0  0  0
 30 33  1  0  0  0
 31 32  1  0  0  0
 32 35  1  0  0  0
 32 58  1  0  0  0
 32 59  1  0  0  0
 33 60  1  0  0  0
 33 61  1  0  0  0
 33 62  1  0  0  0
 35 36  1  0  0  0
 35 37  2  0  0  0
 36 63  1  0  0  0
M  END
> <s_m_entry_id>
26231

> <s_m_entry_name>
dock_pv.55

> <s_m_Source_Path>
/home/csk/Desktop/cluster/DUD-E-result/reni

> <s_m_Source_File>
dock_pv.maegz

> <i_m_Source_File_Index>
55

> <chembl_id>
CHEMBL1270180

> <chembl_pref_name>
None

> <i_lp_mmshare_version>
53161

> <r_lp_tautomer_probability>
1

> <s_lp_Force_Field>
OPLS_2005

> <r_lp_Energy>
57.494266

> <b_lp_Chiralities_Consistent>
1

> <s_lp_Variant>
CHEMBL286_lig2006-1

> <s_i_glide_gridfile>
glide-grid_3g6z

> <i_i_glide_lignum>
5799

> <i_i_glide_rotatable_bonds>
9

> <r_i_docking_score>
-8.33504910290689

> <r_i_glide_ligand_efficiency>
-0.225271597375862

> <r_i_glide_ligand_efficiency_sa>
-0.750654938427519

> <r_i_glide_ligand_efficiency_ln>
-1.80767674914581

> <r_i_glide_gscore>
-8.33504910290689

> <r_i_glide_lipo>
-2.80771784706564

> <r_i_glide_hbond>
-0.96

> <r_i_glide_metal>
0

> <r_i_glide_rewards>
-1.12711442334953

> <r_i_glide_evdw>
-40.1507606506348

> <r_i_glide_ecoul>
-13.801775932312

> <r_i_glide_erotb>
0.644978499923093

> <r_i_glide_esite>
-0.00739091003627825

> <r_i_glide_emodel>
-71.3176518813786

> <r_i_glide_energy>
-53.9525365829468

> <r_i_glide_einternal>
15.6997022628784

> <i_i_glide_confnum>
175

> <i_i_glide_posenum>
329

> <r_i_glide_eff_state_penalty>
0

> <s_user_duplicate_titles>
CHEMBL286_lig2006

> <i_f3d_flags>
0

> <s_m_subgroup_title>
dock_pv

> <s_m_subgroupid>
dock_pv

> <b_m_subgroup_collapsed>
1

$$$$
CHEMBL286_lig1953
                    3D
 Schrodinger Suite 2021-1.
 84 88  0  0  1  0            999 V2000
   -2.8390  -11.0676   -8.7299 C   0  0  0  0  0  0
   -3.2661  -11.9689   -9.7026 C   0  0  0  0  0  0
   -4.2957  -12.8734   -9.4143 C   0  0  0  0  0  0
   -4.9291  -12.8294   -8.1617 C   0  0  0  0  0  0
   -4.4992  -11.9187   -7.1980 C   0  0  0  0  0  0
   -3.4467  -11.0471   -7.4744 C   0  0  0  0  0  0
   -2.9936  -10.0603   -6.4211 C   0  0  0  0  0  0
   -6.2577  -13.8690   -7.7828 Cl  0  0  0  0  0  0
   -2.5117  -11.9411  -11.2577 Cl  0  0  0  0  0  0
   -4.7087  -13.7666  -10.3744 O   0  0  0  0  0  0
   -4.2448  -15.1058  -10.1992 C   0  0  0  0  0  0
   -2.7711  -15.2794  -10.6306 C   0  0  0  0  0  0
   -2.2613  -16.5735  -10.3143 O   0  0  0  0  0  0
   -2.7631  -17.6846  -10.9636 C   0  0  0  0  0  0
   -2.3942  -18.8503  -10.3787 N   0  0  0  0  0  0
   -2.8444  -20.0105  -10.9174 C   0  0  0  0  0  0
   -3.6550  -20.0610  -12.0574 C   0  0  0  0  0  0
   -4.0179  -18.8509  -12.6583 C   0  0  0  0  0  0
   -3.5672  -17.6511  -12.1135 C   0  0  0  0  0  0
   -4.1560  -21.3914  -12.6241 C   0  0  1  0  0  0
   -3.0146  -22.4087  -12.8236 C   0  0  0  0  0  0
   -3.5260  -23.7513  -13.3713 C   0  0  0  0  0  0
   -4.6333  -24.2931  -12.5803 N   0  0  1  0  0  0
   -5.7548  -23.3622  -12.4596 C   0  0  0  0  0  0
   -5.3059  -22.0381  -11.8005 C   0  0  2  0  0  0
   -6.5335  -21.0837  -11.7233 C   0  0  0  0  0  0
   -7.0440  -20.7167  -10.5136 N   0  0  0  0  0  0
   -6.9805  -20.6324  -12.7797 O   0  0  0  0  0  0
   -6.6682  -21.3426   -9.2379 C   0  0  0  0  0  0
   -7.8625  -19.4943  -10.4049 C   0  0  0  0  0  0
   -9.3594  -19.5859  -10.7249 C   0  0  0  0  0  0
  -10.0259  -20.8143  -10.8439 C   0  0  0  0  0  0
  -11.3984  -20.8484  -11.1293 C   0  0  0  0  0  0
  -12.0560  -19.6703  -11.3104 N   0  3  0  0  0  0
  -11.4443  -18.4735  -11.2208 C   0  0  0  0  0  0
  -10.0873  -18.4011  -10.9177 C   0  0  0  0  0  0
   -9.3553  -16.8400  -10.7943 Cl  0  0  0  0  0  0
   -7.7251  -21.7574   -8.2339 C   0  0  0  0  0  0
   -6.9844  -22.8100   -9.0171 C   0  0  0  0  0  0
  -12.1596  -22.1770  -11.1828 C   0  0  0  0  0  0
  -12.3505  -22.7850  -12.5844 C   0  0  0  0  0  0
  -11.0392  -23.2487  -13.2311 C   0  0  0  0  0  0
  -10.3691  -24.1751  -12.3915 O   0  0  0  0  0  0
   -9.0875  -24.5175  -12.9032 C   0  0  0  0  0  0
  -13.2784  -19.6650  -11.6210 O   0  5  0  0  0  0
   -2.0316  -10.3876   -8.9550 H   0  0  0  0  0  0
   -4.9863  -11.8876   -6.2329 H   0  0  0  0  0  0
   -2.4631   -9.2123   -6.8526 H   0  0  0  0  0  0
   -3.8680   -9.6613   -5.9100 H   0  0  0  0  0  0
   -2.3576  -10.5506   -5.6844 H   0  0  0  0  0  0
   -4.9015  -15.7437  -10.7893 H   0  0  0  0  0  0
   -4.3652  -15.4448   -9.1677 H   0  0  0  0  0  0
   -2.1431  -14.5709  -10.0903 H   0  0  0  0  0  0
   -2.6337  -15.0466  -11.6875 H   0  0  0  0  0  0
   -2.5412  -20.9086  -10.4034 H   0  0  0  0  0  0
   -4.6594  -18.8226  -13.5284 H   0  0  0  0  0  0
   -3.8528  -16.7228  -12.5830 H   0  0  0  0  0  0
   -4.5367  -21.1705  -13.6202 H   0  0  0  0  0  0
   -2.3073  -22.0173  -13.5585 H   0  0  0  0  0  0
   -2.4508  -22.6015  -11.9108 H   0  0  0  0  0  0
   -3.8285  -23.6528  -14.4148 H   0  0  0  0  0  0
   -2.7012  -24.4629  -13.3309 H   0  0  0  0  0  0
   -4.9623  -25.1479  -13.0061 H   0  0  0  0  0  0
   -6.5478  -23.8407  -11.8864 H   0  0  0  0  0  0
   -6.1244  -23.1795  -13.4717 H   0  0  0  0  0  0
   -4.9391  -22.2374  -10.7952 H   0  0  0  0  0  0
   -5.7299  -20.9586   -8.8361 H   0  0  0  0  0  0
   -7.4320  -18.7433  -11.0703 H   0  0  0  0  0  0
   -7.7552  -19.0797   -9.4007 H   0  0  0  0  0  0
   -9.4885  -21.7454  -10.7212 H   0  0  0  0  0  0
  -12.0637  -17.6070  -11.4035 H   0  0  0  0  0  0
   -7.5130  -21.6656   -7.1683 H   0  0  0  0  0  0
   -8.7707  -21.5564   -8.4576 H   0  0  0  0  0  0
   -7.5267  -23.3604   -9.7860 H   0  0  0  0  0  0
   -6.2422  -23.4304   -8.5123 H   0  0  0  0  0  0
  -13.1372  -22.0351  -10.7229 H   0  0  0  0  0  0
  -11.6472  -22.8999  -10.5470 H   0  0  0  0  0  0
  -12.8632  -22.0701  -13.2305 H   0  0  0  0  0  0
  -13.0184  -23.6465  -12.5074 H   0  0  0  0  0  0
  -10.3992  -22.3855  -13.4045 H   0  0  0  0  0  0
  -11.2455  -23.7077  -14.2034 H   0  0  0  0  0  0
   -8.5680  -25.1558  -12.1902 H   0  0  0  0  0  0
   -8.4723  -23.6268  -13.0516 H   0  0  0  0  0  0
   -9.1620  -25.0412  -13.8598 H   0  0  0  0  0  0
  1  6  1  0  0  0
  1  2  2  0  0  0
  1 46  1  0  0  0
  2  9  1  0  0  0
  2  3  1  0  0  0
  3  4  2  0  0  0
  3 10  1  0  0  0
  4  8  1  0  0  0
  4  5  1  0  0  0
  5  6  2  0  0  0
  5 47  1  0  0  0
  6  7  1  0  0  0
  7 48  1  0  0  0
  7 49  1  0  0  0
  7 50  1  0  0  0
 10 11  1  0  0  0
 11 12  1  0  0  0
 11 51  1  0  0  0
 11 52  1  0  0  0
 12 13  1  0  0  0
 12 53  1  0  0  0
 12 54  1  0  0  0
 13 14  1  0  0  0
 14 15  2  0  0  0
 14 19  1  0  0  0
 15 16  1  0  0  0
 16 17  2  0  0  0
 16 55  1  0  0  0
 17 18  1  0  0  0
 17 20  1  0  0  0
 18 19  2  0  0  0
 18 56  1  0  0  0
 19 57  1  0  0  0
 20 25  1  0  0  0
 20 21  1  0  0  0
 20 58  1  0  0  0
 21 22  1  0  0  0
 21 59  1  0  0  0
 21 60  1  0  0  0
 22 23  1  0  0  0
 22 61  1  0  0  0
 22 62  1  0  0  0
 23 24  1  0  0  0
 23 63  1  0  0  0
 24 25  1  0  0  0
 24 64  1  0  0  0
 24 65  1  0  0  0
 25 26  1  0  0  0
 25 66  1  0  0  0
 26 27  1  0  0  0
 26 28  2  0  0  0
 27 29  1  0  0  0
 27 30  1  0  0  0
 29 38  1  0  0  0
 29 39  1  0  0  0
 29 67  1  0  0  0
 30 31  1  0  0  0
 30 68  1  0  0  0
 30 69  1  0  0  0
 31 32  2  0  0  0
 31 36  1  0  0  0
 32 33  1  0  0  0
 32 70  1  0  0  0
 33 34  2  0  0  0
 33 40  1  0  0  0
 34 35  1  0  0  0
 34 45  1  0  0  0
 35 36  2  0  0  0
 35 71  1  0  0  0
 36 37  1  0  0  0
 38 39  1  0  0  0
 38 72  1  0  0  0
 38 73  1  0  0  0
 39 74  1  0  0  0
 39 75  1  0  0  0
 40 41  1  0  0  0
 40 76  1  0  0  0
 40 77  1  0  0  0
 41 42  1  0  0  0
 41 78  1  0  0  0
 41 79  1  0  0  0
 42 43  1  0  0  0
 42 80  1  0  0  0
 42 81  1  0  0  0
 43 44  1  0  0  0
 44 82  1  0  0  0
 44 83  1  0  0  0
 44 84  1  0  0  0
M  CHG  2  34   1  45  -1
M  END
> <s_m_entry_id>
26232

> <s_m_entry_name>
dock_pv.56

> <s_m_Source_Path>
/home/csk/Desktop/cluster/DUD-E-result/reni

> <s_m_Source_File>
dock_pv.maegz

> <i_m_Source_File_Index>
56

> <chembl_id>
CHEMBL1269748

> <chembl_pref_name>
None

> <i_lp_mmshare_version>
53161

> <r_lp_tautomer_probability>
1

> <s_lp_Force_Field>
OPLS_2005

> <r_lp_Energy>
59.140074

> <b_lp_Chiralities_Consistent>
1

> <s_lp_Variant>
CHEMBL286_lig1953-1

> <s_i_glide_gridfile>
glide-grid_3g6z

> <i_i_glide_lignum>
5742

> <i_i_glide_rotatable_bonds>
15

> <r_i_docking_score>
-8.2994980323101

> <r_i_glide_ligand_efficiency>
-0.184433289606891

> <r_i_glide_ligand_efficiency_sa>
-0.656009532095425

> <r_i_glide_ligand_efficiency_ln>
-1.72666544613302

> <r_i_glide_gscore>
-8.2994980323101

> <r_i_glide_lipo>
-3.68869285234446

> <r_i_glide_hbond>
-0.16

> <r_i_glide_metal>
0

> <r_i_glide_rewards>
-0.00703993087215544

> <r_i_glide_evdw>
-47.9931030273438

> <r_i_glide_ecoul>
-16.7916355133057

> <r_i_glide_erotb>
0.484804451401351

> <r_i_glide_esite>
-0.0101692221317958

> <r_i_glide_emodel>
-84.9792933142181

> <r_i_glide_energy>
-64.7847385406494

> <r_i_glide_einternal>
12.5028047561646

> <i_i_glide_confnum>
6

> <i_i_glide_posenum>
6

> <r_i_glide_eff_state_penalty>
0

> <s_user_duplicate_titles>
CHEMBL286_lig1953

> <i_f3d_flags>
0

> <s_m_subgroup_title>
dock_pv

> <s_m_subgroupid>
dock_pv

> <b_m_subgroup_collapsed>
1

$$$$
CHEMBL286_lig1571
                    3D
 Schrodinger Suite 2021-1.
 73 76  0  0  1  0            999 V2000
   -3.7504  -12.6207   -8.4830 C   0  0  0  0  0  0
   -6.9088  -18.5704  -11.6806 N   0  0  0  0  0  0
   -4.2573  -11.4694   -7.6053 C   0  0  0  0  0  0
   -6.8499  -19.8429  -12.1897 C   0  0  0  0  0  0
   -7.9133  -18.2603  -10.7681 C   0  0  0  0  0  0
   -2.7182  -12.4227   -9.4204 C   0  0  0  0  0  0
   -6.1435  -17.3954  -12.1894 C   0  0  2  0  0  0
   -5.4686  -18.8647  -14.0211 N   0  0  2  0  0  0
   -4.3203  -13.8987   -8.3654 C   0  0  0  0  0  0
  -11.8318  -11.6824   -6.9950 C   0  0  0  0  0  0
   -7.5493  -20.7772  -11.7871 O   0  0  0  0  0  0
  -10.5745  -11.7497   -7.6212 C   0  0  0  0  0  0
   -4.6636  -10.4608   -8.3770 F   0  0  0  0  0  0
   -5.2795  -11.8267   -6.8237 F   0  0  0  0  0  0
   -3.2723  -11.0323   -6.8213 F   0  0  0  0  0  0
   -9.0489  -17.5966  -11.2229 C   0  0  0  0  0  0
   -7.7472  -18.5851   -9.4221 C   0  0  0  0  0  0
   -2.2821  -13.4839  -10.2152 C   0  0  0  0  0  0
   -5.8013  -20.0895  -13.2970 C   0  0  0  0  0  0
   -3.8797  -14.9620   -9.1597 C   0  0  0  0  0  0
   -1.9477  -10.8843   -9.6219 Cl  0  0  0  0  0  0
   -5.0120  -17.8033  -13.1479 C   0  0  0  0  0  0
   -9.8722  -17.5587   -8.9570 C   0  0  0  0  0  0
   -4.7058  -17.0316  -10.2277 O   0  0  0  0  0  0
   -2.8552  -14.7471  -10.0845 C   0  0  0  0  0  0
   -8.7363  -18.2275   -8.5180 C   0  0  0  0  0  0
  -10.0332  -17.2466  -10.3159 C   0  0  0  0  0  0
  -10.1684  -12.9681   -8.1408 O   0  0  0  0  0  0
   -5.6152  -16.3989  -11.1287 C   0  0  0  0  0  0
  -12.5875  -16.0198   -7.0684 C   0  0  0  0  0  0
  -10.7990  -17.2595   -7.9910 O   0  0  0  0  0  0
  -12.6113  -12.9428   -6.6354 C   0  0  0  0  0  0
  -13.0704  -13.6950   -7.7440 O   0  0  0  0  0  0
  -12.2882  -10.4726   -6.4600 C   0  0  0  0  0  0
   -4.4946  -16.3511   -8.9886 C   0  0  0  0  0  0
  -11.8338  -16.3598   -8.3390 C   0  0  0  0  0  0
  -13.6364  -14.9407   -7.3292 C   0  0  0  0  0  0
   -9.7714  -10.5963   -7.6097 C   0  0  0  0  0  0
   -8.7869  -13.2143   -8.4191 C   0  0  0  0  0  0
  -11.4673   -9.3523   -6.4247 C   0  0  0  0  0  0
  -10.2150   -9.4121   -7.0204 C   0  0  0  0  0  0
   -6.8653  -16.8310  -12.7829 H   0  0  0  0  0  0
   -6.1905  -18.5342  -14.6722 H   0  0  0  0  0  0
   -5.1077  -14.0760   -7.6459 H   0  0  0  0  0  0
   -9.1694  -17.3567  -12.2707 H   0  0  0  0  0  0
   -6.8587  -19.0975   -9.0853 H   0  0  0  0  0  0
   -1.4932  -13.3282  -10.9370 H   0  0  0  0  0  0
   -4.9116  -20.5113  -12.8268 H   0  0  0  0  0  0
   -6.1930  -20.8377  -13.9876 H   0  0  0  0  0  0
   -4.1373  -18.1434  -12.5886 H   0  0  0  0  0  0
   -4.7182  -16.9441  -13.7439 H   0  0  0  0  0  0
   -2.5049  -15.5597  -10.7069 H   0  0  0  0  0  0
   -8.6383  -18.4622   -7.4704 H   0  0  0  0  0  0
  -10.9119  -16.7441  -10.6903 H   0  0  0  0  0  0
   -5.1251  -15.5565  -11.6212 H   0  0  0  0  0  0
   -6.4612  -15.9782  -10.5821 H   0  0  0  0  0  0
  -11.8870  -15.7136   -6.2910 H   0  0  0  0  0  0
  -13.0842  -16.9158   -6.6971 H   0  0  0  0  0  0
  -11.9403  -13.5399   -6.0194 H   0  0  0  0  0  0
  -13.4768  -12.6843   -6.0214 H   0  0  0  0  0  0
  -13.2713  -10.4169   -6.0204 H   0  0  0  0  0  0
   -5.4358  -16.3031   -8.4370 H   0  0  0  0  0  0
   -3.8154  -16.9518   -8.3839 H   0  0  0  0  0  0
  -12.5114  -16.8143   -9.0648 H   0  0  0  0  0  0
  -11.4168  -15.4487   -8.7774 H   0  0  0  0  0  0
  -14.2671  -14.8540   -6.4476 H   0  0  0  0  0  0
  -14.2860  -15.2858   -8.1201 H   0  0  0  0  0  0
   -8.7755  -10.6024   -8.0203 H   0  0  0  0  0  0
   -8.6938  -14.1964   -8.8835 H   0  0  0  0  0  0
   -8.3165  -12.4995   -9.0902 H   0  0  0  0  0  0
   -8.1943  -13.2378   -7.5071 H   0  0  0  0  0  0
  -11.8186   -8.4317   -5.9828 H   0  0  0  0  0  0
   -9.5861   -8.5355   -7.0324 H   0  0  0  0  0  0
  1  3  1  0  0  0
  1  6  2  0  0  0
  1  9  1  0  0  0
  2  7  1  0  0  0
  2  4  1  0  0  0
  2  5  1  0  0  0
  3 13  1  0  0  0
  3 14  1  0  0  0
  3 15  1  0  0  0
  4 11  2  0  0  0
  4 19  1  0  0  0
  5 16  2  0  0  0
  5 17  1  0  0  0
  6 18  1  0  0  0
  6 21  1  0  0  0
  7 29  1  0  0  0
  7 22  1  0  0  0
  7 42  1  0  0  0
  8 22  1  0  0  0
  8 19  1  0  0  0
  8 43  1  0  0  0
  9 20  2  0  0  0
  9 44  1  0  0  0
 10 32  1  0  0  0
 10 12  2  0  0  0
 10 34  1  0  0  0
 12 28  1  0  0  0
 12 38  1  0  0  0
 16 27  1  0  0  0
 16 45  1  0  0  0
 17 26  2  0  0  0
 17 46  1  0  0  0
 18 25  2  0  0  0
 18 47  1  0  0  0
 19 48  1  0  0  0
 19 49  1  0  0  0
 20 25  1  0  0  0
 20 35  1  0  0  0
 22 50  1  0  0  0
 22 51  1  0  0  0
 23 26  1  0  0  0
 23 31  1  0  0  0
 23 27  2  0  0  0
 24 35  1  0  0  0
 24 29  1  0  0  0
 25 52  1  0  0  0
 26 53  1  0  0  0
 27 54  1  0  0  0
 28 39  1  0  0  0
 29 55  1  0  0  0
 29 56  1  0  0  0
 30 36  1  0  0  0
 30 37  1  0  0  0
 30 57  1  0  0  0
 30 58  1  0  0  0
 31 36  1  0  0  0
 32 33  1  0  0  0
 32 59  1  0  0  0
 32 60  1  0  0  0
 33 37  1  0  0  0
 34 40  2  0  0  0
 34 61  1  0  0  0
 35 62  1  0  0  0
 35 63  1  0  0  0
 36 64  1  0  0  0
 36 65  1  0  0  0
 37 66  1  0  0  0
 37 67  1  0  0  0
 38 41  2  0  0  0
 38 68  1  0  0  0
 39 69  1  0  0  0
 39 70  1  0  0  0
 39 71  1  0  0  0
 40 41  1  0  0  0
 40 72  1  0  0  0
 41 73  1  0  0  0
M  END
> <s_m_entry_id>
26234

> <s_m_entry_name>
dock_pv.58

> <s_m_Source_Path>
/home/csk/Desktop/cluster/DUD-E-result/reni

> <s_m_Source_File>
dock_pv.maegz

> <i_m_Source_File_Index>
58

> <chembl_id>
CHEMBL365330

> <chembl_pref_name>
None

> <i_lp_mmshare_version>
53161

> <r_lp_tautomer_probability>
1

> <s_lp_Force_Field>
OPLS_2005

> <r_lp_Energy>
51.048102

> <b_lp_Chiralities_Consistent>
1

> <s_lp_Variant>
CHEMBL286_lig1571-1

> <s_i_glide_gridfile>
glide-grid_3g6z

> <i_i_glide_lignum>
5275

> <i_i_glide_rotatable_bonds>
14

> <r_i_docking_score>
-8.28073187768958

> <r_i_glide_ligand_efficiency>
-0.201969070187551

> <r_i_glide_ligand_efficiency_sa>
-0.696433228982698

> <r_i_glide_ligand_efficiency_ln>
-1.75678482486413

> <r_i_glide_gscore>
-8.28073187768958

> <r_i_glide_lipo>
-3.98501092773694

> <r_i_glide_hbond>
-0.456

> <r_i_glide_metal>
0

> <r_i_glide_rewards>
-0.587691648148217

> <r_i_glide_evdw>
-45.8410339355469

> <r_i_glide_ecoul>
-10.0607442855835

> <r_i_glide_erotb>
0.604424602028687

> <r_i_glide_esite>
-0.0552905642182487

> <r_i_glide_emodel>
-78.8147417863989

> <r_i_glide_energy>
-55.9017782211304

> <r_i_glide_einternal>
5.40671682357788

> <i_i_glide_confnum>
6

> <i_i_glide_posenum>
15

> <r_i_glide_eff_state_penalty>
0

> <s_user_duplicate_titles>
CHEMBL286_lig1571,326757

> <i_f3d_flags>
0

> <s_m_subgroup_title>
dock_pv

> <s_m_subgroupid>
dock_pv

> <b_m_subgroup_collapsed>
1

$$$$
CHEMBL286_lig2616
                    3D
 Schrodinger Suite 2021-1.
 92 93  0  0  1  0            999 V2000
   -3.6433  -15.5360  -11.2269 N   0  0  0  0  0  0
  -11.6258  -20.8611  -11.2197 C   0  0  0  0  0  0
  -12.1063  -22.1203  -11.6215 C   0  0  0  0  0  0
  -11.2853  -23.2535  -11.4601 C   0  0  0  0  0  0
  -10.0105  -23.1442  -10.9100 C   0  0  0  0  0  0
   -9.5267  -21.8989  -10.5202 C   0  0  0  0  0  0
  -10.3365  -20.7697  -10.6713 C   0  0  0  0  0  0
  -12.4460  -19.7545  -11.3926 O   0  0  0  0  0  0
  -11.8640  -18.4521  -11.5324 C   0  0  0  0  0  0
  -11.7524  -17.7274  -10.1808 C   0  0  0  0  0  0
  -11.4671  -16.2208  -10.2984 C   0  0  0  0  0  0
  -11.2314  -15.6324   -9.0231 O   0  0  0  0  0  0
  -12.3798  -15.4784   -8.1997 C   0  0  0  0  0  0
  -13.3646  -22.1670  -12.1929 O   0  0  0  0  0  0
  -13.7781  -23.3750  -12.8215 C   0  0  0  0  0  0
   -8.1215  -21.7455   -9.9460 C   0  0  0  0  0  0
   -7.0095  -21.4427  -10.9978 C   0  0  1  0  0  0
   -7.4753  -20.3707  -12.0363 C   0  0  0  0  0  0
   -5.6243  -21.1632  -10.3299 C   0  0  0  0  0  0
   -5.0169  -22.4282   -9.6938 C   0  0  0  0  0  0
   -5.6244  -19.9950   -9.3240 C   0  0  0  0  0  0
   -6.5219  -19.8502  -13.1474 C   0  0  1  0  0  0
   -5.6858  -18.5771  -12.8036 C   0  0  2  0  0  0
   -5.6946  -20.9501  -13.6214 N   0  0  0  0  0  0
   -6.5606  -17.4165  -12.2278 C   0  0  0  0  0  0
   -5.0697  -18.1457  -14.0159 O   0  0  0  0  0  0
   -5.8925  -16.0108  -12.1131 C   0  0  2  0  0  0
   -4.8793  -15.9785  -10.9431 C   0  0  0  0  0  0
   -6.9065  -14.8142  -12.0397 C   0  0  0  0  0  0
   -7.8758  -14.7748  -13.2407 C   0  0  0  0  0  0
   -6.2094  -13.4338  -11.9437 C   0  0  0  0  0  0
   -5.2287  -16.3121   -9.8081 O   0  0  0  0  0  0
   -2.5827  -15.2619  -10.2622 C   0  0  1  0  0  0
   -1.2125  -15.3264  -10.9657 C   0  0  0  0  0  0
   -2.8280  -13.9454   -9.5166 C   0  0  0  0  0  0
   -3.4239  -13.9714   -8.2488 C   0  0  0  0  0  0
   -3.6345  -12.7875   -7.5472 C   0  0  0  0  0  0
   -3.2383  -11.5715   -8.1028 C   0  0  0  0  0  0
   -2.6488  -11.5325   -9.3652 C   0  0  0  0  0  0
   -2.4428  -12.7152  -10.0712 C   0  0  0  0  0  0
   -3.4685  -10.1071   -7.2225 Cl  0  0  0  0  0  0
   -3.4638  -15.2625  -12.1843 H   0  0  0  0  0  0
  -11.6160  -24.2344  -11.7656 H   0  0  0  0  0  0
   -9.3954  -24.0248  -10.8026 H   0  0  0  0  0  0
   -9.9331  -19.8217  -10.3633 H   0  0  0  0  0  0
  -10.8928  -18.4867  -12.0287 H   0  0  0  0  0  0
  -12.5229  -17.8879  -12.1959 H   0  0  0  0  0  0
  -12.6689  -17.8869   -9.6192 H   0  0  0  0  0  0
  -10.9499  -18.1627   -9.5990 H   0  0  0  0  0  0
  -10.5627  -16.0681  -10.8857 H   0  0  0  0  0  0
  -12.2688  -15.7002  -10.8206 H   0  0  0  0  0  0
  -12.0948  -14.9883   -7.2657 H   0  0  0  0  0  0
  -13.1299  -14.8531   -8.6874 H   0  0  0  0  0  0
  -12.8319  -16.4387   -7.9434 H   0  0  0  0  0  0
  -14.7547  -23.2567  -13.2848 H   0  0  0  0  0  0
  -13.0778  -23.6594  -13.6108 H   0  0  0  0  0  0
  -13.8642  -24.1951  -12.1103 H   0  0  0  0  0  0
   -7.8770  -22.6494   -9.3862 H   0  0  0  0  0  0
   -8.1682  -20.9552   -9.1967 H   0  0  0  0  0  0
   -6.8929  -22.3619  -11.5741 H   0  0  0  0  0  0
   -7.9401  -19.5389  -11.5125 H   0  0  0  0  0  0
   -8.2997  -20.8217  -12.5891 H   0  0  0  0  0  0
   -4.9254  -20.8827  -11.1163 H   0  0  0  0  0  0
   -5.5946  -22.7696   -8.8338 H   0  0  0  0  0  0
   -4.9725  -23.2467  -10.4123 H   0  0  0  0  0  0
   -3.9983  -22.2457   -9.3506 H   0  0  0  0  0  0
   -6.1798  -20.2425   -8.4218 H   0  0  0  0  0  0
   -4.6100  -19.7370   -9.0186 H   0  0  0  0  0  0
   -6.0675  -19.0961   -9.7457 H   0  0  0  0  0  0
   -7.1650  -19.5703  -13.9840 H   0  0  0  0  0  0
   -4.9070  -18.8154  -12.0787 H   0  0  0  0  0  0
   -5.1240  -21.2911  -12.8641 H   0  0  0  0  0  0
   -6.3067  -21.7155  -13.8793 H   0  0  0  0  0  0
   -6.9385  -17.6820  -11.2407 H   0  0  0  0  0  0
   -7.4633  -17.3587  -12.8210 H   0  0  0  0  0  0
   -5.7564  -18.0622  -14.6897 H   0  0  0  0  0  0
   -5.3451  -15.8504  -13.0398 H   0  0  0  0  0  0
   -7.5141  -14.9375  -11.1400 H   0  0  0  0  0  0
   -7.3301  -14.8056  -14.1836 H   0  0  0  0  0  0
   -8.5865  -15.5995  -13.2309 H   0  0  0  0  0  0
   -8.4788  -13.8672  -13.2446 H   0  0  0  0  0  0
   -5.4816  -13.3014  -12.7458 H   0  0  0  0  0  0
   -6.9234  -12.6128  -12.0200 H   0  0  0  0  0  0
   -5.6829  -13.3062  -10.9969 H   0  0  0  0  0  0
   -2.5735  -16.0710   -9.5259 H   0  0  0  0  0  0
   -0.3996  -15.1212  -10.2674 H   0  0  0  0  0  0
   -1.0398  -16.3167  -11.3851 H   0  0  0  0  0  0
   -1.1356  -14.6133  -11.7866 H   0  0  0  0  0  0
   -3.7336  -14.9113   -7.8116 H   0  0  0  0  0  0
   -4.1005  -12.8121   -6.5731 H   0  0  0  0  0  0
   -2.3492  -10.5883   -9.7923 H   0  0  0  0  0  0
   -1.9861  -12.6662  -11.0482 H   0  0  0  0  0  0
  1 28  1  0  0  0
  1 33  1  0  0  0
  1 42  1  0  0  0
  2  3  2  0  0  0
  2  7  1  0  0  0
  2  8  1  0  0  0
  3  4  1  0  0  0
  3 14  1  0  0  0
  4  5  2  0  0  0
  4 43  1  0  0  0
  5  6  1  0  0  0
  5 44  1  0  0  0
  6  7  2  0  0  0
  6 16  1  0  0  0
  7 45  1  0  0  0
  8  9  1  0  0  0
  9 10  1  0  0  0
  9 46  1  0  0  0
  9 47  1  0  0  0
 10 11  1  0  0  0
 10 48  1  0  0  0
 10 49  1  0  0  0
 11 12  1  0  0  0
 11 50  1  0  0  0
 11 51  1  0  0  0
 12 13  1  0  0  0
 13 52  1  0  0  0
 13 53  1  0  0  0
 13 54  1  0  0  0
 14 15  1  0  0  0
 15 55  1  0  0  0
 15 56  1  0  0  0
 15 57  1  0  0  0
 16 17  1  0  0  0
 16 58  1  0  0  0
 16 59  1  0  0  0
 17 18  1  0  0  0
 17 19  1  0  0  0
 17 60  1  0  0  0
 18 22  1  0  0  0
 18 61  1  0  0  0
 18 62  1  0  0  0
 19 20  1  0  0  0
 19 21  1  0  0  0
 19 63  1  0  0  0
 20 64  1  0  0  0
 20 65  1  0  0  0
 20 66  1  0  0  0
 21 67  1  0  0  0
 21 68  1  0  0  0
 21 69  1  0  0  0
 22 23  1  0  0  0
 22 24  1  0  0  0
 22 70  1  0  0  0
 23 25  1  0  0  0
 23 26  1  0  0  0
 23 71  1  0  0  0
 24 72  1  0  0  0
 24 73  1  0  0  0
 25 27  1  0  0  0
 25 74  1  0  0  0
 25 75  1  0  0  0
 26 76  1  0  0  0
 27 28  1  0  0  0
 27 29  1  0  0  0
 27 77  1  0  0  0
 28 32  2  0  0  0
 29 30  1  0  0  0
 29 31  1  0  0  0
 29 78  1  0  0  0
 30 79  1  0  0  0
 30 80  1  0  0  0
 30 81  1  0  0  0
 31 82  1  0  0  0
 31 83  1  0  0  0
 31 84  1  0  0  0
 33 34  1  0  0  0
 33 35  1  0  0  0
 33 85  1  0  0  0
 34 86  1  0  0  0
 34 87  1  0  0  0
 34 88  1  0  0  0
 35 36  2  0  0  0
 35 40  1  0  0  0
 36 37  1  0  0  0
 36 89  1  0  0  0
 37 38  2  0  0  0
 37 90  1  0  0  0
 38 39  1  0  0  0
 38 41  1  0  0  0
 39 40  2  0  0  0
 39 91  1  0  0  0
 40 92  1  0  0  0
M  END
> <s_m_entry_id>
26235

> <s_m_entry_name>
dock_pv.59

> <s_m_Source_Path>
/home/csk/Desktop/cluster/DUD-E-result/reni

> <s_m_Source_File>
dock_pv.maegz

> <i_m_Source_File_Index>
59

> <chembl_id>
CHEMBL3633124

> <chembl_pref_name>
None

> <i_lp_mmshare_version>
53161

> <r_lp_tautomer_probability>
1

> <s_lp_Force_Field>
OPLS_2005

> <r_lp_Energy>
39.716928

> <b_lp_Chiralities_Consistent>
1

> <s_lp_Variant>
CHEMBL286_lig2616-1

> <s_i_glide_gridfile>
glide-grid_3g6z

> <i_i_glide_lignum>
6681

> <i_i_glide_rotatable_bonds>
20

> <r_i_docking_score>
-8.25303335074256

> <r_i_glide_ligand_efficiency>
-0.201293496359575

> <r_i_glide_ligand_efficiency_sa>
-0.694103703664803

> <r_i_glide_ligand_efficiency_ln>
-1.75090849019585

> <r_i_glide_gscore>
-8.25303335074256

> <r_i_glide_lipo>
-3.25627728160634

> <r_i_glide_hbond>
-1.00862718501851

> <r_i_glide_metal>
0

> <r_i_glide_rewards>
0.000622671656524446

> <r_i_glide_evdw>
-49.8970718383789

> <r_i_glide_ecoul>
-14.5896520614624

> <r_i_glide_erotb>
0.72994254363513

> <r_i_glide_esite>
-0.0353926982710576

> <r_i_glide_emodel>
-89.6322014002248

> <r_i_glide_energy>
-64.4867238998413

> <r_i_glide_einternal>
15.0714302062988

> <i_i_glide_confnum>
88

> <i_i_glide_posenum>
226

> <r_i_glide_eff_state_penalty>
0

> <s_user_duplicate_titles>
CHEMBL286_lig2616

> <i_f3d_flags>
0

> <s_m_subgroup_title>
dock_pv

> <s_m_subgroupid>
dock_pv

> <b_m_subgroup_collapsed>
1

$$$$
CHEMBL286_lig661
                    3D
 Schrodinger Suite 2021-1.
 98101  0  0  1  0            999 V2000
   -7.8968  -16.7740  -10.8974 C   0  0  0  0  0  0
   -5.8646  -14.4489   -9.8016 C   0  0  0  0  0  0
   -2.9834  -16.0011   -9.5968 C   0  0  0  0  0  0
   -5.8341  -15.4181  -10.7300 N   0  0  0  0  0  0
   -9.1887  -16.6133  -11.2092 N   0  0  0  0  0  0
   -6.9364  -15.7967  -11.5956 C   0  0  1  0  0  0
   -3.3045  -14.6580   -9.7218 N   0  0  0  0  0  0
   -4.5590  -19.6060  -13.2202 N   0  0  0  0  0  0
   -4.5235  -14.1012   -9.0875 C   0  0  1  0  0  0
   -5.8135  -17.7289  -12.9860 C   0  0  0  0  0  0
  -10.3092  -17.3565  -10.6312 C   0  0  1  0  0  0
   -6.3390  -16.3125  -12.9219 C   0  0  0  0  0  0
   -6.6329  -18.8418  -13.0841 N   0  0  0  0  0  0
   -5.8488  -19.9105  -13.2208 C   0  0  0  0  0  0
   -1.7230  -16.2056  -10.0454 O   0  0  0  0  0  0
   -4.5319  -18.2147  -13.0827 C   0  0  0  0  0  0
   -6.1432  -21.3756  -10.3105 N   0  0  0  0  0  0
   -7.4670  -21.6283  -10.1573 C   0  0  0  0  0  0
   -3.7354  -16.8742   -9.1665 O   0  0  0  0  0  0
   -6.8883  -13.8272   -9.5134 O   0  0  0  0  0  0
   -7.4740  -17.6260  -10.1143 O   0  0  0  0  0  0
   -4.3507  -12.5650   -8.8902 C   0  0  0  0  0  0
  -11.5536  -16.4142  -10.5780 C   0  0  0  0  0  0
   -1.0703  -17.4861  -10.0899 C   0  0  0  0  0  0
  -10.5248  -18.7293  -11.3646 C   0  0  1  0  0  0
   -8.4612  -21.5253  -11.6198 S   0  0  0  0  0  0
  -10.5237  -19.9741  -10.4501 C   0  0  0  0  0  0
   -3.2809  -12.0124   -7.9504 C   0  0  0  0  0  0
  -10.1971  -21.3122  -11.1386 C   0  0  0  0  0  0
  -11.7758  -18.7835  -12.0209 O   0  0  0  0  0  0
  -11.9543  -15.7609   -9.2531 C   0  0  0  0  0  0
   -5.3452  -21.4404   -9.2124 C   0  0  0  0  0  0
   -8.0217  -21.9830   -8.9224 C   0  0  0  0  0  0
   -1.7063  -18.3978  -11.1597 C   0  0  0  0  0  0
   -1.0694  -18.2032   -8.7210 C   0  0  0  0  0  0
    0.3825  -17.1688  -10.4968 C   0  0  0  0  0  0
   -2.1191  -12.7289   -7.5769 C   0  0  0  0  0  0
   -3.3821  -10.6566   -7.5725 C   0  0  0  0  0  0
  -12.3425  -16.8632   -8.2598 C   0  0  0  0  0  0
  -10.8931  -14.8473   -8.6145 C   0  0  0  0  0  0
   -5.8261  -21.7808   -7.9466 C   0  0  0  0  0  0
   -7.1862  -22.0637   -7.8061 C   0  0  0  0  0  0
   -2.3808  -10.0610   -6.8203 C   0  0  0  0  0  0
   -1.1283  -12.1140   -6.8211 C   0  0  0  0  0  0
  -12.9224  -16.3023   -6.9671 C   0  0  0  0  0  0
  -11.4689  -14.2201   -7.3319 C   0  0  0  0  0  0
  -11.9067  -15.3216   -6.3405 C   0  0  0  0  0  0
   -1.2613  -10.7857   -6.4409 C   0  0  0  0  0  0
   -4.9919  -15.9663  -10.8276 H   0  0  0  0  0  0
   -9.4322  -15.8940  -11.8742 H   0  0  0  0  0  0
   -7.4869  -14.8818  -11.8261 H   0  0  0  0  0  0
   -2.6696  -14.0435  -10.2095 H   0  0  0  0  0  0
   -7.6395  -18.8105  -13.1752 H   0  0  0  0  0  0
   -4.6220  -14.5334   -8.0893 H   0  0  0  0  0  0
  -10.0215  -17.5793   -9.6047 H   0  0  0  0  0  0
   -7.0725  -16.1951  -13.7091 H   0  0  0  0  0  0
   -5.5228  -15.6556  -13.2221 H   0  0  0  0  0  0
   -6.2252  -20.9150  -13.3472 H   0  0  0  0  0  0
   -3.6062  -17.6636  -13.1085 H   0  0  0  0  0  0
   -5.2897  -12.1335   -8.5433 H   0  0  0  0  0  0
   -4.1649  -12.1091   -9.8648 H   0  0  0  0  0  0
  -11.4889  -15.6645  -11.3454 H   0  0  0  0  0  0
  -12.4493  -16.9477  -10.8546 H   0  0  0  0  0  0
   -9.7425  -18.8628  -12.1130 H   0  0  0  0  0  0
   -9.8365  -19.8306   -9.6208 H   0  0  0  0  0  0
  -11.5127  -20.0798  -10.0210 H   0  0  0  0  0  0
  -10.4667  -22.1416  -10.4879 H   0  0  0  0  0  0
  -10.8207  -21.4347  -12.0212 H   0  0  0  0  0  0
  -11.6539  -18.4635  -12.9320 H   0  0  0  0  0  0
  -12.8413  -15.1515   -9.4403 H   0  0  0  0  0  0
   -4.3018  -21.2091   -9.3650 H   0  0  0  0  0  0
   -9.0688  -22.2056   -8.8192 H   0  0  0  0  0  0
   -1.6618  -17.9325  -12.1427 H   0  0  0  0  0  0
   -1.1833  -19.3506  -11.2289 H   0  0  0  0  0  0
   -2.7485  -18.6198  -10.9346 H   0  0  0  0  0  0
   -0.4785  -17.6684   -7.9771 H   0  0  0  0  0  0
   -2.0604  -18.3540   -8.2961 H   0  0  0  0  0  0
   -0.6690  -19.2021   -8.8472 H   0  0  0  0  0  0
    0.8647  -16.5088   -9.7746 H   0  0  0  0  0  0
    0.9850  -18.0760  -10.5684 H   0  0  0  0  0  0
    0.4253  -16.6696  -11.4653 H   0  0  0  0  0  0
   -1.9747  -13.7593   -7.8518 H   0  0  0  0  0  0
   -4.2347  -10.0658   -7.8742 H   0  0  0  0  0  0
  -13.0702  -17.5303   -8.7220 H   0  0  0  0  0  0
  -11.4745  -17.4838   -8.0400 H   0  0  0  0  0  0
   -9.9807  -15.4118   -8.4207 H   0  0  0  0  0  0
  -10.5809  -14.0570   -9.2883 H   0  0  0  0  0  0
   -5.1621  -21.8239   -7.0952 H   0  0  0  0  0  0
   -7.5956  -22.3350   -6.8427 H   0  0  0  0  0  0
   -2.4746   -9.0241   -6.5331 H   0  0  0  0  0  0
   -0.2515  -12.6733   -6.5338 H   0  0  0  0  0  0
  -13.8765  -15.8056   -7.1522 H   0  0  0  0  0  0
  -13.1211  -17.1699   -6.3344 H   0  0  0  0  0  0
  -12.3252  -13.5892   -7.5829 H   0  0  0  0  0  0
  -10.7401  -13.5512   -6.8789 H   0  0  0  0  0  0
  -12.2688  -14.8569   -5.4308 H   0  0  0  0  0  0
  -11.0686  -15.9267   -6.0162 H   0  0  0  0  0  0
   -0.4879  -10.3143   -5.8535 H   0  0  0  0  0  0
  1  5  1  0  0  0
  1  6  1  0  0  0
  1 21  2  0  0  0
  2  4  1  0  0  0
  2  9  1  0  0  0
  2 20  2  0  0  0
  3  7  1  0  0  0
  3 15  1  0  0  0
  3 19  2  0  0  0
  4  6  1  0  0  0
  4 49  1  0  0  0
  5 11  1  0  0  0
  5 50  1  0  0  0
  6 12  1  0  0  0
  6 51  1  0  0  0
  7  9  1  0  0  0
  7 52  1  0  0  0
  8 14  2  0  0  0
  8 16  1  0  0  0
  9 22  1  0  0  0
  9 54  1  0  0  0
 10 16  2  0  0  0
 10 12  1  0  0  0
 10 13  1  0  0  0
 11 23  1  0  0  0
 11 25  1  0  0  0
 11 55  1  0  0  0
 12 56  1  0  0  0
 12 57  1  0  0  0
 13 53  1  0  0  0
 13 14  1  0  0  0
 14 58  1  0  0  0
 15 24  1  0  0  0
 16 59  1  0  0  0
 17 18  2  0  0  0
 17 32  1  0  0  0
 18 26  1  0  0  0
 18 33  1  0  0  0
 22 28  1  0  0  0
 22 60  1  0  0  0
 22 61  1  0  0  0
 23 31  1  0  0  0
 23 62  1  0  0  0
 23 63  1  0  0  0
 24 34  1  0  0  0
 24 35  1  0  0  0
 24 36  1  0  0  0
 25 27  1  0  0  0
 25 30  1  0  0  0
 25 64  1  0  0  0
 26 29  1  0  0  0
 27 29  1  0  0  0
 27 65  1  0  0  0
 27 66  1  0  0  0
 28 37  2  0  0  0
 28 38  1  0  0  0
 29 67  1  0  0  0
 29 68  1  0  0  0
 30 69  1  0  0  0
 31 39  1  0  0  0
 31 40  1  0  0  0
 31 70  1  0  0  0
 32 41  2  0  0  0
 32 71  1  0  0  0
 33 42  2  0  0  0
 33 72  1  0  0  0
 34 73  1  0  0  0
 34 74  1  0  0  0
 34 75  1  0  0  0
 35 76  1  0  0  0
 35 77  1  0  0  0
 35 78  1  0  0  0
 36 79  1  0  0  0
 36 80  1  0  0  0
 36 81  1  0  0  0
 37 44  1  0  0  0
 37 82  1  0  0  0
 38 43  2  0  0  0
 38 83  1  0  0  0
 39 45  1  0  0  0
 39 84  1  0  0  0
 39 85  1  0  0  0
 40 46  1  0  0  0
 40 86  1  0  0  0
 40 87  1  0  0  0
 41 42  1  0  0  0
 41 88  1  0  0  0
 42 89  1  0  0  0
 43 48  1  0  0  0
 43 90  1  0  0  0
 44 48  2  0  0  0
 44 91  1  0  0  0
 45 47  1  0  0  0
 45 92  1  0  0  0
 45 93  1  0  0  0
 46 47  1  0  0  0
 46 94  1  0  0  0
 46 95  1  0  0  0
 47 96  1  0  0  0
 47 97  1  0  0  0
 48 98  1  0  0  0
M  END
> <s_m_entry_id>
26236

> <s_m_entry_name>
dock_pv.60

> <s_m_Source_Path>
/home/csk/Desktop/cluster/DUD-E-result/reni

> <s_m_Source_File>
dock_pv.maegz

> <i_m_Source_File_Index>
60

> <chembl_id>
CHEMBL119893

> <chembl_pref_name>
None

> <i_lp_mmshare_version>
53161

> <r_lp_tautomer_probability>
0.499999999999999

> <s_lp_Force_Field>
OPLS_2005

> <r_lp_Energy>
16.590536

> <b_lp_Chiralities_Consistent>
1

> <s_lp_Variant>
CHEMBL286_lig661-8

> <s_i_glide_gridfile>
glide-grid_3g6z

> <i_i_glide_lignum>
1882

> <i_i_glide_rotatable_bonds>
22

> <r_i_docking_score>
-8.24755016395267

> <r_i_glide_ligand_efficiency>
-0.171823961749014

> <r_i_glide_ligand_efficiency_sa>
-0.62444971766648

> <r_i_glide_ligand_efficiency_ln>
-1.69312457964355

> <r_i_glide_gscore>
-8.24755016395267

> <r_i_glide_lipo>
-3.6406165807749

> <r_i_glide_hbond>
-0.63695798559393

> <r_i_glide_metal>
0

> <r_i_glide_rewards>
-0.630026538596096

> <r_i_glide_evdw>
-36.7484855651855

> <r_i_glide_ecoul>
-12.5092716217041

> <r_i_glide_erotb>
0.575569518169177

> <r_i_glide_esite>
-0.201703555642028

> <r_i_glide_emodel>
-49.273040451192

> <r_i_glide_energy>
-49.2577571868896

> <r_i_glide_einternal>
35.6501960754395

> <i_i_glide_confnum>
23

> <i_i_glide_posenum>
246

> <r_i_glide_eff_state_penalty>
0

> <s_user_duplicate_titles>
CHEMBL286_lig661

> <i_f3d_flags>
0

> <s_m_subgroup_title>
dock_pv

> <s_m_subgroupid>
dock_pv

> <b_m_subgroup_collapsed>
1

$$$$
CHEMBL286_lig652
                    3D
 Schrodinger Suite 2021-1.
 99102  0  0  1  0            999 V2000
   -8.1937  -16.2255   -9.3868 C   0  0  0  0  0  0
   -5.9806  -13.6783   -8.4248 C   0  0  0  0  0  0
   -2.3093  -14.4606   -8.4401 C   0  0  0  0  0  0
   -6.1780  -14.7554   -9.2066 N   0  0  0  0  0  0
   -9.4081  -16.3830   -9.9376 N   0  0  0  0  0  0
   -7.3886  -15.0539   -9.9707 C   0  0  1  0  0  0
   -8.7079  -20.2949  -10.2441 C   0  0  0  0  0  0
   -9.0685  -19.1468  -11.1963 C   0  0  0  0  0  0
   -3.5463  -14.0533   -8.9078 N   0  0  0  0  0  0
   -4.8908  -18.4953  -11.6242 N   0  0  0  0  0  0
   -4.5103  -13.3140   -8.0585 C   0  0  1  0  0  0
  -10.3709  -17.4541   -9.6756 C   0  0  2  0  0  0
   -6.2064  -16.6366  -11.6927 C   0  0  0  0  0  0
   -6.9733  -15.3494  -11.4370 C   0  0  0  0  0  0
   -6.4196  -17.4115  -12.8208 N   0  0  0  0  0  0
   -5.6302  -18.4830  -12.7275 C   0  0  0  0  0  0
  -10.4133  -18.4203  -10.9020 C   0  0  2  0  0  0
   -7.4574  -20.2820   -9.7405 N   0  0  0  0  0  0
   -1.6355  -15.0098   -9.4844 O   0  0  0  0  0  0
   -5.2419  -17.3128  -10.9693 C   0  0  0  0  0  0
   -1.8832  -14.3399   -7.2917 O   0  0  0  0  0  0
   -6.8991  -12.9567   -8.0298 O   0  0  0  0  0  0
   -7.7091  -16.9722   -8.5344 O   0  0  0  0  0  0
   -4.3020  -11.7749   -8.2445 C   0  0  0  0  0  0
   -9.5491  -21.1658  -10.0238 O   0  0  0  0  0  0
  -11.7631  -16.8544   -9.3116 C   0  0  0  0  0  0
   -0.2544  -15.4019   -9.4731 C   0  0  0  0  0  0
   -6.8648  -21.1863   -8.8429 C   0  0  0  0  0  0
   -2.8940  -11.2213   -8.0820 C   0  0  0  0  0  0
  -11.4803  -19.3518  -10.8235 O   0  0  0  0  0  0
  -11.7605  -15.6691   -8.3021 C   0  0  0  0  0  0
    0.0100  -16.5298   -8.4499 C   0  0  0  0  0  0
    0.6656  -14.1862   -9.2157 C   0  0  0  0  0  0
    0.0009  -15.9338  -10.8976 C   0  0  0  0  0  0
   -5.4701  -21.1656   -8.7825 C   0  0  0  0  0  0
   -7.5843  -22.0604   -8.0110 C   0  0  0  0  0  0
   -1.9908  -11.2428   -9.1690 C   0  0  0  0  0  0
   -2.4197  -10.8307   -6.8122 C   0  0  0  0  0  0
  -11.6497  -14.2993   -9.0178 C   0  0  0  0  0  0
  -13.0137  -15.6486   -7.4048 C   0  0  0  0  0  0
   -1.1017  -10.4210   -6.6552 C   0  0  0  0  0  0
   -4.7918  -22.0195   -7.9157 C   0  0  0  0  0  0
   -0.6759  -10.8321   -8.9927 C   0  0  0  0  0  0
   -6.9044  -22.9098   -7.1420 C   0  0  0  0  0  0
  -11.6136  -13.1015   -8.0547 C   0  0  0  0  0  0
  -12.9790  -14.4636   -6.4178 C   0  0  0  0  0  0
  -12.8439  -13.1093   -7.1375 C   0  0  0  0  0  0
   -5.5132  -22.8896   -7.1016 C   0  0  0  0  0  0
   -0.2352  -10.4135   -7.7417 C   0  0  0  0  0  0
   -5.3952  -15.3590   -9.3919 H   0  0  0  0  0  0
   -9.6990  -15.7067  -10.6286 H   0  0  0  0  0  0
   -8.0344  -14.1753   -9.9677 H   0  0  0  0  0  0
   -9.0680  -19.5508  -12.2047 H   0  0  0  0  0  0
   -8.2624  -18.4182  -11.2041 H   0  0  0  0  0  0
   -3.7539  -14.1841   -9.8865 H   0  0  0  0  0  0
   -7.1175  -17.2648  -13.5529 H   0  0  0  0  0  0
   -4.3663  -13.5930   -7.0102 H   0  0  0  0  0  0
  -10.0402  -18.0269   -8.8063 H   0  0  0  0  0  0
   -7.8643  -15.3577  -12.0662 H   0  0  0  0  0  0
   -6.3651  -14.5257  -11.8131 H   0  0  0  0  0  0
   -5.6252  -19.2771  -13.4570 H   0  0  0  0  0  0
  -10.6472  -17.8178  -11.7826 H   0  0  0  0  0  0
   -6.8417  -19.5621  -10.0892 H   0  0  0  0  0  0
   -4.7909  -17.0603  -10.0238 H   0  0  0  0  0  0
   -4.9515  -11.2301   -7.5547 H   0  0  0  0  0  0
   -4.6298  -11.4789   -9.2433 H   0  0  0  0  0  0
  -12.2637  -16.5343  -10.2263 H   0  0  0  0  0  0
  -12.3897  -17.6614   -8.9272 H   0  0  0  0  0  0
  -11.1010  -20.1782  -10.4801 H   0  0  0  0  0  0
  -10.9064  -15.7710   -7.6326 H   0  0  0  0  0  0
   -0.6641  -17.3723   -8.6087 H   0  0  0  0  0  0
    1.0290  -16.9082   -8.5347 H   0  0  0  0  0  0
   -0.1213  -16.1944   -7.4204 H   0  0  0  0  0  0
    0.4755  -13.3908   -9.9396 H   0  0  0  0  0  0
    0.5202  -13.7631   -8.2208 H   0  0  0  0  0  0
    1.7184  -14.4540   -9.3019 H   0  0  0  0  0  0
   -0.2396  -15.1782  -11.6464 H   0  0  0  0  0  0
    1.0406  -16.2308  -11.0374 H   0  0  0  0  0  0
   -0.6188  -16.8045  -11.1123 H   0  0  0  0  0  0
   -4.9030  -20.4936   -9.4121 H   0  0  0  0  0  0
   -8.6630  -22.0842   -8.0018 H   0  0  0  0  0  0
   -2.3160  -11.5884  -10.1388 H   0  0  0  0  0  0
   -3.0760  -10.8480   -5.9552 H   0  0  0  0  0  0
  -10.7504  -14.2697   -9.6204 H   0  0  0  0  0  0
  -12.4792  -14.1840   -9.7196 H   0  0  0  0  0  0
  -13.9027  -15.5833   -8.0290 H   0  0  0  0  0  0
  -13.1146  -16.5914   -6.8659 H   0  0  0  0  0  0
   -0.7460  -10.1152   -5.6835 H   0  0  0  0  0  0
   -3.7124  -22.0028   -7.8729 H   0  0  0  0  0  0
    0.0094  -10.8521   -9.8291 H   0  0  0  0  0  0
   -7.4604  -23.5769   -6.5026 H   0  0  0  0  0  0
  -10.7029  -13.1370   -7.4536 H   0  0  0  0  0  0
  -11.5727  -12.1662   -8.6153 H   0  0  0  0  0  0
  -12.1408  -14.5879   -5.7290 H   0  0  0  0  0  0
  -13.8697  -14.4573   -5.7970 H   0  0  0  0  0  0
  -12.7730  -12.2941   -6.4174 H   0  0  0  0  0  0
  -13.7444  -12.9163   -7.7253 H   0  0  0  0  0  0
   -4.9889  -23.5539   -6.4302 H   0  0  0  0  0  0
    0.7900  -10.1014   -7.6104 H   0  0  0  0  0  0
  1  5  1  0  0  0
  1  6  1  0  0  0
  1 23  2  0  0  0
  2  4  1  0  0  0
  2 11  1  0  0  0
  2 22  2  0  0  0
  3  9  1  0  0  0
  3 19  1  0  0  0
  3 21  2  0  0  0
  4  6  1  0  0  0
  4 50  1  0  0  0
  5 12  1  0  0  0
  5 51  1  0  0  0
  6 14  1  0  0  0
  6 52  1  0  0  0
  7  8  1  0  0  0
  7 18  1  0  0  0
  7 25  2  0  0  0
  8 17  1  0  0  0
  8 53  1  0  0  0
  8 54  1  0  0  0
  9 11  1  0  0  0
  9 55  1  0  0  0
 10 16  2  0  0  0
 10 20  1  0  0  0
 11 24  1  0  0  0
 11 57  1  0  0  0
 12 17  1  0  0  0
 12 26  1  0  0  0
 12 58  1  0  0  0
 13 20  2  0  0  0
 13 14  1  0  0  0
 13 15  1  0  0  0
 14 59  1  0  0  0
 14 60  1  0  0  0
 15 56  1  0  0  0
 15 16  1  0  0  0
 16 61  1  0  0  0
 17 30  1  0  0  0
 17 62  1  0  0  0
 18 28  1  0  0  0
 18 63  1  0  0  0
 19 27  1  0  0  0
 20 64  1  0  0  0
 24 29  1  0  0  0
 24 65  1  0  0  0
 24 66  1  0  0  0
 26 31  1  0  0  0
 26 67  1  0  0  0
 26 68  1  0  0  0
 27 32  1  0  0  0
 27 33  1  0  0  0
 27 34  1  0  0  0
 28 35  2  0  0  0
 28 36  1  0  0  0
 29 37  2  0  0  0
 29 38  1  0  0  0
 30 69  1  0  0  0
 31 39  1  0  0  0
 31 40  1  0  0  0
 31 70  1  0  0  0
 32 71  1  0  0  0
 32 72  1  0  0  0
 32 73  1  0  0  0
 33 74  1  0  0  0
 33 75  1  0  0  0
 33 76  1  0  0  0
 34 77  1  0  0  0
 34 78  1  0  0  0
 34 79  1  0  0  0
 35 42  1  0  0  0
 35 80  1  0  0  0
 36 44  2  0  0  0
 36 81  1  0  0  0
 37 43  1  0  0  0
 37 82  1  0  0  0
 38 41  2  0  0  0
 38 83  1  0  0  0
 39 45  1  0  0  0
 39 84  1  0  0  0
 39 85  1  0  0  0
 40 46  1  0  0  0
 40 86  1  0  0  0
 40 87  1  0  0  0
 41 49  1  0  0  0
 41 88  1  0  0  0
 42 48  2  0  0  0
 42 89  1  0  0  0
 43 49  2  0  0  0
 43 90  1  0  0  0
 44 48  1  0  0  0
 44 91  1  0  0  0
 45 47  1  0  0  0
 45 92  1  0  0  0
 45 93  1  0  0  0
 46 47  1  0  0  0
 46 94  1  0  0  0
 46 95  1  0  0  0
 47 96  1  0  0  0
 47 97  1  0  0  0
 48 98  1  0  0  0
 49 99  1  0  0  0
M  END
> <s_m_entry_id>
26237

> <s_m_entry_name>
dock_pv.61

> <s_m_Source_Path>
/home/csk/Desktop/cluster/DUD-E-result/reni

> <s_m_Source_File>
dock_pv.maegz

> <i_m_Source_File_Index>
61

> <chembl_id>
CHEMBL115430

> <chembl_pref_name>
None

> <i_lp_mmshare_version>
53161

> <r_lp_tautomer_probability>
0.499999999999999

> <s_lp_Force_Field>
OPLS_2005

> <r_lp_Energy>
26.904598

> <b_lp_Chiralities_Consistent>
1

> <s_lp_Variant>
CHEMBL286_lig652-5

> <s_i_glide_gridfile>
glide-grid_3g6z

> <i_i_glide_lignum>
1852

> <i_i_glide_rotatable_bonds>
22

> <r_i_docking_score>
-8.23156934734047

> <r_i_glide_ligand_efficiency>
-0.167991211170214

> <r_i_glide_ligand_efficiency_sa>
-0.614731197471363

> <r_i_glide_ligand_efficiency_ln>
-1.68272112336583

> <r_i_glide_gscore>
-8.23156934734047

> <r_i_glide_lipo>
-4.04923757823655

> <r_i_glide_hbond>
-0.16

> <r_i_glide_metal>
0

> <r_i_glide_rewards>
-0.989673523270222

> <r_i_glide_evdw>
-56.764778137207

> <r_i_glide_ecoul>
-4.48447036743164

> <r_i_glide_erotb>
0.585860678375333

> <r_i_glide_esite>
-0.107609462233934

> <r_i_glide_emodel>
-88.523949622054

> <r_i_glide_energy>
-61.2492485046387

> <r_i_glide_einternal>
12.5137100219727

> <i_i_glide_confnum>
18

> <i_i_glide_posenum>
311

> <r_i_glide_eff_state_penalty>
0

> <s_user_duplicate_titles>
CHEMBL286_lig652

> <i_f3d_flags>
0

> <s_m_subgroup_title>
dock_pv

> <s_m_subgroupid>
dock_pv

> <b_m_subgroup_collapsed>
1

$$$$
CHEMBL286_lig2835
                    3D
 Schrodinger Suite 2021-1.
 66 68  0  0  1  0            999 V2000
   -4.8432  -15.7260  -11.1004 C   0  0  0  0  0  0
   -3.9700  -16.4633  -12.0209 N   0  0  1  0  0  0
   -4.6071  -17.4896  -12.8318 C   0  0  0  0  0  0
   -5.4550  -18.4224  -11.9602 C   0  0  1  0  0  0
   -6.6248  -17.5988  -11.3966 C   0  0  0  0  0  0
   -6.1127  -16.4279  -10.4849 C   0  0  2  0  0  0
   -7.1197  -15.5298   -9.8042 N   0  0  0  0  0  0
   -8.3289  -16.0177   -9.3589 C   0  0  0  0  0  0
   -6.5862  -14.2276   -9.3113 C   0  0  0  0  0  0
   -6.3767  -14.1155   -7.7691 C   0  0  0  0  0  0
   -5.6844  -12.7908   -7.4030 C   0  0  0  0  0  0
   -5.6510  -15.3217   -7.1349 C   0  0  0  0  0  0
   -8.4916  -17.2258   -9.2061 O   0  0  0  0  0  0
  -11.3670  -16.8831   -9.1439 C   0  0  0  0  0  0
  -11.6107  -17.0779  -10.6628 C   0  0  0  0  0  0
  -10.8752  -18.2500  -11.3454 C   0  0  0  0  0  0
  -11.5010  -19.6361  -11.1024 C   0  0  0  0  0  0
  -12.8423  -19.6630  -11.5878 O   0  0  0  0  0  0
  -13.4654  -20.9312  -11.4576 C   0  0  0  0  0  0
   -9.4645  -15.1137   -9.0559 C   0  0  0  0  0  0
  -10.7880  -15.5554   -8.8662 N   0  0  0  0  0  0
   -9.3854  -13.8161   -8.8217 N   0  0  0  0  0  0
  -10.6162  -13.3949   -8.4205 C   0  0  0  0  0  0
  -11.5310  -14.4673   -8.4243 C   0  0  0  0  0  0
  -12.8679  -14.2918   -8.0376 C   0  0  0  0  0  0
  -13.2496  -13.0021   -7.6537 C   0  0  0  0  0  0
  -12.3521  -11.9357   -7.6460 C   0  0  0  0  0  0
  -11.0226  -12.1133   -8.0240 C   0  0  0  0  0  0
   -5.8268  -19.7614  -12.6450 C   0  0  0  0  0  0
   -6.1274  -19.6402  -14.0212 O   0  0  0  0  0  0
   -5.1569  -14.8316  -11.6412 H   0  0  0  0  0  0
   -4.1891  -15.4038  -10.2896 H   0  0  0  0  0  0
   -3.4931  -15.8041  -12.6347 H   0  0  0  0  0  0
   -3.8076  -18.0659  -13.3014 H   0  0  0  0  0  0
   -5.1826  -17.0710  -13.6581 H   0  0  0  0  0  0
   -4.8561  -18.6924  -11.0867 H   0  0  0  0  0  0
   -7.2544  -17.2502  -12.2179 H   0  0  0  0  0  0
   -7.2148  -18.3119  -10.8260 H   0  0  0  0  0  0
   -5.6873  -16.9080   -9.6015 H   0  0  0  0  0  0
   -5.6364  -13.9742   -9.7676 H   0  0  0  0  0  0
   -7.2208  -13.4180   -9.6655 H   0  0  0  0  0  0
   -7.3543  -14.0736   -7.2933 H   0  0  0  0  0  0
   -4.6748  -12.7419   -7.8115 H   0  0  0  0  0  0
   -6.2426  -11.9359   -7.7893 H   0  0  0  0  0  0
   -5.6101  -12.6655   -6.3218 H   0  0  0  0  0  0
   -4.6137  -15.3919   -7.4638 H   0  0  0  0  0  0
   -5.6616  -15.2636   -6.0434 H   0  0  0  0  0  0
   -6.1391  -16.2641   -7.3822 H   0  0  0  0  0  0
  -10.7559  -17.6628   -8.6992 H   0  0  0  0  0  0
  -12.3205  -16.9518   -8.6176 H   0  0  0  0  0  0
  -12.6689  -17.2498  -10.8174 H   0  0  0  0  0  0
  -11.3972  -16.1611  -11.2131 H   0  0  0  0  0  0
  -10.8630  -18.0667  -12.4208 H   0  0  0  0  0  0
   -9.8263  -18.2698  -11.0561 H   0  0  0  0  0  0
  -10.9041  -20.3894  -11.6213 H   0  0  0  0  0  0
  -11.4689  -19.8829  -10.0435 H   0  0  0  0  0  0
  -14.4957  -20.8696  -11.8091 H   0  0  0  0  0  0
  -12.9532  -21.6884  -12.0531 H   0  0  0  0  0  0
  -13.4862  -21.2630  -10.4186 H   0  0  0  0  0  0
  -13.5743  -15.1078   -8.0266 H   0  0  0  0  0  0
  -14.2684  -12.8184   -7.3524 H   0  0  0  0  0  0
  -12.6950  -10.9567   -7.3419 H   0  0  0  0  0  0
  -10.3304  -11.2839   -8.0163 H   0  0  0  0  0  0
   -6.6567  -20.2467  -12.1308 H   0  0  0  0  0  0
   -4.9843  -20.4496  -12.5699 H   0  0  0  0  0  0
   -6.8737  -19.0358  -14.1453 H   0  0  0  0  0  0
  1  2  1  0  0  0
  1  6  1  0  0  0
  1 31  1  0  0  0
  1 32  1  0  0  0
  2  3  1  0  0  0
  2 33  1  0  0  0
  3  4  1  0  0  0
  3 34  1  0  0  0
  3 35  1  0  0  0
  4  5  1  0  0  0
  4 29  1  0  0  0
  4 36  1  0  0  0
  5  6  1  0  0  0
  5 37  1  0  0  0
  5 38  1  0  0  0
  6  7  1  0  0  0
  6 39  1  0  0  0
  7  8  1  0  0  0
  7  9  1  0  0  0
  8 13  2  0  0  0
  8 20  1  0  0  0
  9 10  1  0  0  0
  9 40  1  0  0  0
  9 41  1  0  0  0
 10 11  1  0  0  0
 10 12  1  0  0  0
 10 42  1  0  0  0
 11 43  1  0  0  0
 11 44  1  0  0  0
 11 45  1  0  0  0
 12 46  1  0  0  0
 12 47  1  0  0  0
 12 48  1  0  0  0
 14 21  1  0  0  0
 14 15  1  0  0  0
 14 49  1  0  0  0
 14 50  1  0  0  0
 15 16  1  0  0  0
 15 51  1  0  0  0
 15 52  1  0  0  0
 16 17  1  0  0  0
 16 53  1  0  0  0
 16 54  1  0  0  0
 17 18  1  0  0  0
 17 55  1  0  0  0
 17 56  1  0  0  0
 18 19  1  0  0  0
 19 57  1  0  0  0
 19 58  1  0  0  0
 19 59  1  0  0  0
 20 21  1  0  0  0
 20 22  2  0  0  0
 21 24  1  0  0  0
 22 23  1  0  0  0
 23 24  2  0  0  0
 23 28  1  0  0  0
 24 25  1  0  0  0
 25 26  2  0  0  0
 25 60  1  0  0  0
 26 27  1  0  0  0
 26 61  1  0  0  0
 27 28  2  0  0  0
 27 62  1  0  0  0
 28 63  1  0  0  0
 29 30  1  0  0  0
 29 64  1  0  0  0
 29 65  1  0  0  0
 30 66  1  0  0  0
M  END
> <s_m_entry_id>
26238

> <s_m_entry_name>
dock_pv.62

> <s_m_Source_Path>
/home/csk/Desktop/cluster/DUD-E-result/reni

> <s_m_Source_File>
dock_pv.maegz

> <i_m_Source_File_Index>
62

> <chembl_id>
CHEMBL4130200

> <chembl_pref_name>
None

> <i_lp_mmshare_version>
53161

> <r_lp_tautomer_probability>
1

> <s_lp_Force_Field>
OPLS_2005

> <r_lp_Energy>
47.260628

> <b_lp_Chiralities_Consistent>
1

> <s_lp_Variant>
CHEMBL286_lig2835-1

> <s_i_glide_gridfile>
glide-grid_3g6z

> <i_i_glide_lignum>
6933

> <i_i_glide_rotatable_bonds>
12

> <r_i_docking_score>
-8.22190189817389

> <r_i_glide_ligand_efficiency>
-0.274063396605796

> <r_i_glide_ligand_efficiency_sa>
-0.851578693660193

> <r_i_glide_ligand_efficiency_ln>
-1.86810569606147

> <r_i_glide_gscore>
-8.22190189817389

> <r_i_glide_lipo>
-3.7244213233673

> <r_i_glide_hbond>
-0.873678269953216

> <r_i_glide_metal>
0

> <r_i_glide_rewards>
-1.08938852326527

> <r_i_glide_evdw>
-37.0611839294434

> <r_i_glide_ecoul>
-11.3740005493164

> <r_i_glide_erotb>
1.02474549728152

> <r_i_glide_esite>
0

> <r_i_glide_emodel>
-59.5570562378515

> <r_i_glide_energy>
-48.4351844787598

> <r_i_glide_einternal>
22.185079574585

> <i_i_glide_confnum>
54

> <i_i_glide_posenum>
20

> <r_i_glide_eff_state_penalty>
0

> <s_user_duplicate_titles>
CHEMBL286_lig2835

> <i_f3d_flags>
0

> <s_m_subgroup_title>
dock_pv

> <s_m_subgroupid>
dock_pv

> <b_m_subgroup_collapsed>
1

$$$$
CHEMBL286_lig579
                    3D
 Schrodinger Suite 2021-1.
 87 88  0  0  1  0            999 V2000
  -11.1325  -18.2138  -10.8155 P   0  0  2  0  0  0
   -7.7824  -19.3104  -10.6188 C   0  0  0  0  0  0
   -7.0231  -18.9274  -11.6606 N   0  0  0  0  0  0
   -9.1274  -19.9788  -10.9602 C   0  0  2  0  0  0
  -10.1554  -19.3667  -10.1937 O   0  0  0  0  0  0
   -5.5378  -14.6952  -11.1401 C   0  0  0  0  0  0
   -5.7293  -18.2316  -11.5889 C   0  0  2  0  0  0
   -6.6025  -16.2144  -12.9766 C   0  0  0  0  0  0
   -5.5085  -17.3236  -12.8393 C   0  0  2  0  0  0
   -6.2692  -14.7791  -12.4922 C   0  0  1  0  0  0
  -12.2663  -18.7397  -11.6211 O   0  0  0  0  0  0
   -7.4532  -19.1351   -9.4437 O   0  0  0  0  0  0
   -4.5399  -19.1805  -11.2461 C   0  0  0  0  0  0
   -6.1500  -14.7910  -10.0775 O   0  0  0  0  0  0
  -10.0971  -17.2631  -11.6209 O   0  0  0  0  0  0
   -4.2193  -14.4740  -11.2213 N   0  0  0  0  0  0
  -11.5069  -17.2476   -9.2954 C   0  0  0  0  0  0
   -5.4690  -18.1182  -14.0193 O   0  0  0  0  0  0
   -4.1231  -20.3066  -12.2399 C   0  0  0  0  0  0
   -9.1255  -21.4831  -10.6319 C   0  0  0  0  0  0
  -11.7602  -13.5945   -8.0088 C   0  0  0  0  0  0
  -11.8050  -15.7461   -9.4593 C   0  0  0  0  0  0
   -7.5274  -13.8853  -12.5122 C   0  0  0  0  0  0
  -11.1427  -14.9472   -8.3175 C   0  0  0  0  0  0
   -3.3229  -14.1531  -10.1188 C   0  0  0  0  0  0
  -13.0996  -13.5133   -7.6133 C   0  0  0  0  0  0
  -10.9618  -12.4481   -8.0245 C   0  0  0  0  0  0
   -2.8047  -20.9739  -11.7803 C   0  0  0  0  0  0
   -5.1922  -21.4154  -12.4239 C   0  0  0  0  0  0
   -2.1460  -13.2725  -10.5863 C   0  0  0  0  0  0
   -2.5114  -11.9247  -11.2637 C   0  0  0  0  0  0
   -3.0267  -12.0312  -12.7142 C   0  0  0  0  0  0
  -11.4964  -11.2257   -7.6299 C   0  0  0  0  0  0
  -13.6348  -12.2893   -7.2236 C   0  0  0  0  0  0
   -2.3097  -22.0242  -12.7952 C   0  0  0  0  0  0
   -4.7466  -22.5022  -13.4217 C   0  0  0  0  0  0
   -3.3783  -23.1090  -13.0465 C   0  0  0  0  0  0
  -12.8255  -11.1604   -7.2201 C   0  0  0  0  0  0
   -7.3891  -19.0496  -12.5963 H   0  0  0  0  0  0
   -9.3378  -19.8639  -12.0210 H   0  0  0  0  0  0
   -5.7967  -17.5392  -10.7445 H   0  0  0  0  0  0
   -7.5350  -16.5463  -12.5205 H   0  0  0  0  0  0
   -6.8495  -16.0723  -14.0211 H   0  0  0  0  0  0
   -4.5252  -16.8575  -12.7815 H   0  0  0  0  0  0
   -5.5984  -14.3473  -13.2349 H   0  0  0  0  0  0
   -3.6706  -18.5470  -11.0627 H   0  0  0  0  0  0
   -4.7434  -19.6431  -10.2780 H   0  0  0  0  0  0
  -10.1330  -17.3533  -12.5938 H   0  0  0  0  0  0
   -3.8061  -14.4668  -12.1464 H   0  0  0  0  0  0
  -12.3849  -17.6689   -8.8199 H   0  0  0  0  0  0
  -10.6680  -17.4088   -8.6168 H   0  0  0  0  0  0
   -6.1784  -17.8557  -14.6309 H   0  0  0  0  0  0
   -3.9135  -19.8696  -13.2170 H   0  0  0  0  0  0
   -8.3649  -22.0153  -11.2068 H   0  0  0  0  0  0
   -8.9313  -21.6618   -9.5737 H   0  0  0  0  0  0
  -10.0928  -21.9305  -10.8686 H   0  0  0  0  0  0
  -11.4700  -15.3742  -10.4208 H   0  0  0  0  0  0
  -12.8844  -15.5992   -9.4544 H   0  0  0  0  0  0
   -7.2898  -12.8461  -12.2776 H   0  0  0  0  0  0
   -8.0047  -13.8924  -13.4943 H   0  0  0  0  0  0
   -8.2684  -14.2237  -11.7864 H   0  0  0  0  0  0
  -11.2059  -15.5125   -7.3869 H   0  0  0  0  0  0
  -10.0771  -14.8405   -8.5310 H   0  0  0  0  0  0
   -2.9618  -15.0783   -9.6652 H   0  0  0  0  0  0
   -3.8844  -13.6089   -9.3545 H   0  0  0  0  0  0
  -13.7191  -14.3981   -7.5798 H   0  0  0  0  0  0
   -9.9232  -12.5054   -8.3180 H   0  0  0  0  0  0
   -2.0335  -20.2144  -11.6409 H   0  0  0  0  0  0
   -2.9314  -21.4211  -10.7927 H   0  0  0  0  0  0
   -5.4257  -21.8649  -11.4574 H   0  0  0  0  0  0
   -6.1321  -20.9959  -12.7739 H   0  0  0  0  0  0
   -1.4979  -13.8487  -11.2480 H   0  0  0  0  0  0
   -1.5302  -13.0555   -9.7132 H   0  0  0  0  0  0
   -1.6155  -11.3028  -11.2766 H   0  0  0  0  0  0
   -3.2372  -11.3836  -10.6535 H   0  0  0  0  0  0
   -3.0687  -11.0572  -13.2016 H   0  0  0  0  0  0
   -4.0368  -12.4342  -12.7654 H   0  0  0  0  0  0
   -2.3787  -12.6646  -13.3199 H   0  0  0  0  0  0
  -10.8830  -10.3362   -7.6303 H   0  0  0  0  0  0
  -14.6645  -12.2135   -6.9101 H   0  0  0  0  0  0
   -2.0594  -21.5331  -13.7366 H   0  0  0  0  0  0
   -1.3867  -22.4826  -12.4386 H   0  0  0  0  0  0
   -4.6937  -22.0708  -14.4214 H   0  0  0  0  0  0
   -5.5002  -23.2882  -13.4755 H   0  0  0  0  0  0
   -3.0485  -23.7861  -13.8335 H   0  0  0  0  0  0
   -3.4895  -23.7180  -12.1497 H   0  0  0  0  0  0
  -13.2344  -10.2122   -6.9005 H   0  0  0  0  0  0
  1  5  1  0  0  0
  1 11  2  0  0  0
  1 15  1  0  0  0
  1 17  1  0  0  0
  2  4  1  0  0  0
  2  3  1  0  0  0
  2 12  2  0  0  0
  3  7  1  0  0  0
  3 39  1  0  0  0
  4  5  1  0  0  0
  4 20  1  0  0  0
  4 40  1  0  0  0
  6 10  1  0  0  0
  6 14  2  0  0  0
  6 16  1  0  0  0
  7  9  1  0  0  0
  7 13  1  0  0  0
  7 41  1  0  0  0
  8  9  1  0  0  0
  8 10  1  0  0  0
  8 42  1  0  0  0
  8 43  1  0  0  0
  9 18  1  0  0  0
  9 44  1  0  0  0
 10 23  1  0  0  0
 10 45  1  0  0  0
 13 19  1  0  0  0
 13 46  1  0  0  0
 13 47  1  0  0  0
 15 48  1  0  0  0
 16 25  1  0  0  0
 16 49  1  0  0  0
 17 22  1  0  0  0
 17 50  1  0  0  0
 17 51  1  0  0  0
 18 52  1  0  0  0
 19 28  1  0  0  0
 19 29  1  0  0  0
 19 53  1  0  0  0
 20 54  1  0  0  0
 20 55  1  0  0  0
 20 56  1  0  0  0
 21 24  1  0  0  0
 21 26  2  0  0  0
 21 27  1  0  0  0
 22 24  1  0  0  0
 22 57  1  0  0  0
 22 58  1  0  0  0
 23 59  1  0  0  0
 23 60  1  0  0  0
 23 61  1  0  0  0
 24 62  1  0  0  0
 24 63  1  0  0  0
 25 30  1  0  0  0
 25 64  1  0  0  0
 25 65  1  0  0  0
 26 34  1  0  0  0
 26 66  1  0  0  0
 27 33  2  0  0  0
 27 67  1  0  0  0
 28 35  1  0  0  0
 28 68  1  0  0  0
 28 69  1  0  0  0
 29 36  1  0  0  0
 29 70  1  0  0  0
 29 71  1  0  0  0
 30 31  1  0  0  0
 30 72  1  0  0  0
 30 73  1  0  0  0
 31 32  1  0  0  0
 31 74  1  0  0  0
 31 75  1  0  0  0
 32 76  1  0  0  0
 32 77  1  0  0  0
 32 78  1  0  0  0
 33 38  1  0  0  0
 33 79  1  0  0  0
 34 38  2  0  0  0
 34 80  1  0  0  0
 35 37  1  0  0  0
 35 81  1  0  0  0
 35 82  1  0  0  0
 36 37  1  0  0  0
 36 83  1  0  0  0
 36 84  1  0  0  0
 37 85  1  0  0  0
 37 86  1  0  0  0
 38 87  1  0  0  0
M  END
> <s_m_entry_id>
26239

> <s_m_entry_name>
dock_pv.63

> <s_m_Source_Path>
/home/csk/Desktop/cluster/DUD-E-result/reni

> <s_m_Source_File>
dock_pv.maegz

> <i_m_Source_File_Index>
63

> <chembl_id>
CHEMBL143837

> <chembl_pref_name>
None

> <i_lp_mmshare_version>
53161

> <r_lp_tautomer_probability>
1

> <s_lp_Force_Field>
OPLS_2005

> <r_lp_Energy>
8.273791

> <b_lp_Chiralities_Consistent>
1

> <s_lp_Variant>
CHEMBL286_lig579-1

> <s_i_glide_gridfile>
glide-grid_3g6z

> <i_i_glide_lignum>
1626

> <i_i_glide_rotatable_bonds>
21

> <r_i_docking_score>
-8.2071173413369

> <r_i_glide_ligand_efficiency>
-0.215976772140445

> <r_i_glide_ligand_efficiency_sa>
-0.726108595495571

> <r_i_glide_ligand_efficiency_ln>
-1.76969592772399

> <r_i_glide_gscore>
-8.2071173413369

> <r_i_glide_lipo>
-3.76820882980548

> <r_i_glide_hbond>
-0.550879627909606

> <r_i_glide_metal>
0

> <r_i_glide_rewards>
-0.717852872370197

> <r_i_glide_evdw>
-49.6900825500488

> <r_i_glide_ecoul>
-10.9061918258667

> <r_i_glide_erotb>
1.0151324177254

> <r_i_glide_esite>
-0.064875527594578

> <r_i_glide_emodel>
-83.3146601752886

> <r_i_glide_energy>
-60.5962743759155

> <r_i_glide_einternal>
19.3839225769043

> <i_i_glide_confnum>
17

> <i_i_glide_posenum>
240

> <r_i_glide_eff_state_penalty>
0

> <s_user_duplicate_titles>
CHEMBL286_lig579,242784

> <i_f3d_flags>
0

> <s_m_subgroup_title>
dock_pv

> <s_m_subgroupid>
dock_pv

> <b_m_subgroup_collapsed>
1

$$$$
CHEMBL286_lig656
                    3D
 Schrodinger Suite 2021-1.
 98101  0  0  1  0            999 V2000
   -7.2063  -18.4836  -11.4297 C   0  0  0  0  0  0
   -4.8666  -16.6476  -10.6535 C   0  0  0  0  0  0
   -1.0738  -16.1305  -11.0150 C   0  0  0  0  0  0
   -4.9480  -17.4098  -11.7688 N   0  0  0  0  0  0
   -8.5109  -18.2760  -11.6860 N   0  0  0  0  0  0
   -6.1892  -17.8803  -12.4190 C   0  0  1  0  0  0
   -2.4437  -16.2290  -11.2504 N   0  0  0  0  0  0
   -4.5617  -22.1830  -12.3177 N   0  0  0  0  0  0
   -3.4710  -16.1401  -10.1852 C   0  0  1  0  0  0
   -5.4829  -20.2788  -13.1456 C   0  0  0  0  0  0
   -9.6069  -18.4779  -10.7201 C   0  0  2  0  0  0
   -5.8288  -18.8644  -13.5572 C   0  0  0  0  0  0
   -6.2676  -21.3701  -13.4866 N   0  0  0  0  0  0
   -5.6856  -22.4539  -12.9691 C   0  0  0  0  0  0
   -0.7772  -16.1105   -9.6822 O   0  0  0  0  0  0
   -4.4309  -20.7946  -12.4201 C   0  0  0  0  0  0
  -12.5582  -14.2371   -8.0517 N   0  0  0  0  0  0
   -0.2391  -16.0616  -11.9140 O   0  0  0  0  0  0
   -6.7774  -19.0804  -10.4426 O   0  0  0  0  0  0
   -5.8500  -16.3134   -9.9891 O   0  0  0  0  0  0
  -11.2524  -14.0990   -8.4211 C   0  0  0  0  0  0
   -3.5829  -14.6655   -9.6696 C   0  0  0  0  0  0
  -10.1328  -19.9459  -10.6914 C   0  0  0  0  0  0
    0.4971  -15.7460   -9.1221 C   0  0  0  0  0  0
  -10.7458  -17.4246  -10.9480 C   0  0  2  0  0  0
  -11.6733  -17.1506   -9.7395 C   0  0  0  0  0  0
  -10.5280  -15.2100   -8.8185 O   0  0  0  0  0  0
   -3.8766  -13.6177  -10.7381 C   0  0  0  0  0  0
  -11.0029  -16.5239   -8.5077 C   0  0  0  0  0  0
  -11.5982  -17.7855  -12.0207 O   0  0  0  0  0  0
   -9.1355  -21.0535  -10.2717 C   0  0  0  0  0  0
  -13.2357  -13.1236   -7.6660 C   0  0  0  0  0  0
  -10.6079  -12.8614   -8.4205 C   0  0  0  0  0  0
    1.6695  -16.6003   -9.6583 C   0  0  0  0  0  0
    0.3290  -16.0117   -7.6146 C   0  0  0  0  0  0
    0.7652  -14.2428   -9.3593 C   0  0  0  0  0  0
   -2.8146  -12.9117  -11.3326 C   0  0  0  0  0  0
   -5.1768  -13.4769  -11.2756 C   0  0  0  0  0  0
   -8.6406  -20.9003   -8.8065 C   0  0  0  0  0  0
   -9.7070  -22.4675  -10.5337 C   0  0  0  0  0  0
  -12.6559  -11.8547   -7.6376 C   0  0  0  0  0  0
  -11.3193  -11.7258   -8.0212 C   0  0  0  0  0  0
   -5.3967  -12.6493  -12.3669 C   0  0  0  0  0  0
   -3.0706  -12.0632  -12.3959 C   0  0  0  0  0  0
   -7.6452  -22.0093   -8.4170 C   0  0  0  0  0  0
   -8.7121  -23.5767  -10.1338 C   0  0  0  0  0  0
   -8.2206  -23.4155   -8.6808 C   0  0  0  0  0  0
   -4.3458  -11.9345  -12.9186 C   0  0  0  0  0  0
   -4.0928  -17.6738  -12.2287 H   0  0  0  0  0  0
   -8.7436  -17.8315  -12.5673 H   0  0  0  0  0  0
   -6.6424  -16.9965  -12.8705 H   0  0  0  0  0  0
   -2.7546  -16.1071  -12.2039 H   0  0  0  0  0  0
   -7.1370  -21.3699  -14.0129 H   0  0  0  0  0  0
   -3.1966  -16.7930   -9.3548 H   0  0  0  0  0  0
   -9.1925  -18.2583   -9.7353 H   0  0  0  0  0  0
   -6.6687  -18.9220  -14.2472 H   0  0  0  0  0  0
   -5.0116  -18.4583  -14.1524 H   0  0  0  0  0  0
   -6.0872  -23.4528  -13.0723 H   0  0  0  0  0  0
   -3.5980  -20.2800  -11.9660 H   0  0  0  0  0  0
   -2.6654  -14.3810   -9.1526 H   0  0  0  0  0  0
   -4.3570  -14.5900   -8.9037 H   0  0  0  0  0  0
  -10.9913  -20.0060  -10.0222 H   0  0  0  0  0  0
  -10.5261  -20.1959  -11.6747 H   0  0  0  0  0  0
  -10.2892  -16.4701  -11.2218 H   0  0  0  0  0  0
  -12.4596  -16.4584  -10.0398 H   0  0  0  0  0  0
  -12.1901  -18.0631   -9.4559 H   0  0  0  0  0  0
  -11.6807  -16.5446   -7.6527 H   0  0  0  0  0  0
  -10.1531  -17.1230   -8.1812 H   0  0  0  0  0  0
  -11.0769  -18.0027  -12.8036 H   0  0  0  0  0  0
   -8.2558  -21.0073  -10.9117 H   0  0  0  0  0  0
  -14.2671  -13.2622   -7.3806 H   0  0  0  0  0  0
   -9.5721  -12.7919   -8.7179 H   0  0  0  0  0  0
    1.9142  -16.3623  -10.6935 H   0  0  0  0  0  0
    2.5766  -16.4450   -9.0751 H   0  0  0  0  0  0
    1.4310  -17.6626   -9.6218 H   0  0  0  0  0  0
   -0.4897  -15.4261   -7.1943 H   0  0  0  0  0  0
    0.1029  -17.0617   -7.4212 H   0  0  0  0  0  0
    1.2314  -15.7600   -7.0561 H   0  0  0  0  0  0
   -0.0557  -13.6312   -8.9850 H   0  0  0  0  0  0
    1.6770  -13.9129   -8.8620 H   0  0  0  0  0  0
    0.8703  -14.0139  -10.4206 H   0  0  0  0  0  0
   -1.8011  -13.0316  -10.9727 H   0  0  0  0  0  0
   -6.0118  -14.0195  -10.8643 H   0  0  0  0  0  0
   -8.1743  -19.9311   -8.6454 H   0  0  0  0  0  0
   -9.4687  -20.8630   -8.1105 H   0  0  0  0  0  0
  -10.6546  -22.6033  -10.0210 H   0  0  0  0  0  0
   -9.9612  -22.5689  -11.5915 H   0  0  0  0  0  0
  -13.2239  -10.9883   -7.3326 H   0  0  0  0  0  0
  -10.8410  -10.7569   -8.0135 H   0  0  0  0  0  0
   -6.3935  -12.5499  -12.7756 H   0  0  0  0  0  0
   -2.2692  -11.4965  -12.8214 H   0  0  0  0  0  0
   -6.7255  -21.8801   -8.9913 H   0  0  0  0  0  0
   -7.3651  -21.9107   -7.3664 H   0  0  0  0  0  0
   -7.8544  -23.5517  -10.8082 H   0  0  0  0  0  0
   -9.1725  -24.5570  -10.2644 H   0  0  0  0  0  0
   -7.4612  -24.1684   -8.4626 H   0  0  0  0  0  0
   -9.0455  -23.6082   -7.9932 H   0  0  0  0  0  0
   -4.5179  -11.2790  -13.7586 H   0  0  0  0  0  0
  1  5  1  0  0  0
  1  6  1  0  0  0
  1 19  2  0  0  0
  2  4  1  0  0  0
  2  9  1  0  0  0
  2 20  2  0  0  0
  3  7  1  0  0  0
  3 15  1  0  0  0
  3 18  2  0  0  0
  4  6  1  0  0  0
  4 49  1  0  0  0
  5 11  1  0  0  0
  5 50  1  0  0  0
  6 12  1  0  0  0
  6 51  1  0  0  0
  7  9  1  0  0  0
  7 52  1  0  0  0
  8 14  2  0  0  0
  8 16  1  0  0  0
  9 22  1  0  0  0
  9 54  1  0  0  0
 10 16  2  0  0  0
 10 12  1  0  0  0
 10 13  1  0  0  0
 11 23  1  0  0  0
 11 25  1  0  0  0
 11 55  1  0  0  0
 12 56  1  0  0  0
 12 57  1  0  0  0
 13 53  1  0  0  0
 13 14  1  0  0  0
 14 58  1  0  0  0
 15 24  1  0  0  0
 16 59  1  0  0  0
 17 21  2  0  0  0
 17 32  1  0  0  0
 21 27  1  0  0  0
 21 33  1  0  0  0
 22 28  1  0  0  0
 22 60  1  0  0  0
 22 61  1  0  0  0
 23 31  1  0  0  0
 23 62  1  0  0  0
 23 63  1  0  0  0
 24 34  1  0  0  0
 24 35  1  0  0  0
 24 36  1  0  0  0
 25 26  1  0  0  0
 25 30  1  0  0  0
 25 64  1  0  0  0
 26 29  1  0  0  0
 26 65  1  0  0  0
 26 66  1  0  0  0
 27 29  1  0  0  0
 28 37  2  0  0  0
 28 38  1  0  0  0
 29 67  1  0  0  0
 29 68  1  0  0  0
 30 69  1  0  0  0
 31 39  1  0  0  0
 31 40  1  0  0  0
 31 70  1  0  0  0
 32 41  2  0  0  0
 32 71  1  0  0  0
 33 42  2  0  0  0
 33 72  1  0  0  0
 34 73  1  0  0  0
 34 74  1  0  0  0
 34 75  1  0  0  0
 35 76  1  0  0  0
 35 77  1  0  0  0
 35 78  1  0  0  0
 36 79  1  0  0  0
 36 80  1  0  0  0
 36 81  1  0  0  0
 37 44  1  0  0  0
 37 82  1  0  0  0
 38 43  2  0  0  0
 38 83  1  0  0  0
 39 45  1  0  0  0
 39 84  1  0  0  0
 39 85  1  0  0  0
 40 46  1  0  0  0
 40 86  1  0  0  0
 40 87  1  0  0  0
 41 42  1  0  0  0
 41 88  1  0  0  0
 42 89  1  0  0  0
 43 48  1  0  0  0
 43 90  1  0  0  0
 44 48  2  0  0  0
 44 91  1  0  0  0
 45 47  1  0  0  0
 45 92  1  0  0  0
 45 93  1  0  0  0
 46 47  1  0  0  0
 46 94  1  0  0  0
 46 95  1  0  0  0
 47 96  1  0  0  0
 47 97  1  0  0  0
 48 98  1  0  0  0
M  END
> <s_m_entry_id>
26240

> <s_m_entry_name>
dock_pv.64

> <s_m_Source_Path>
/home/csk/Desktop/cluster/DUD-E-result/reni

> <s_m_Source_File>
dock_pv.maegz

> <i_m_Source_File_Index>
64

> <chembl_id>
CHEMBL333707

> <chembl_pref_name>
None

> <i_lp_mmshare_version>
53161

> <r_lp_tautomer_probability>
0.499999999999999

> <s_lp_Force_Field>
OPLS_2005

> <r_lp_Energy>
24.898528

> <b_lp_Chiralities_Consistent>
1

> <s_lp_Variant>
CHEMBL286_lig656-5

> <s_i_glide_gridfile>
glide-grid_3g6z

> <i_i_glide_lignum>
1863

> <i_i_glide_rotatable_bonds>
22

> <r_i_docking_score>
-8.18716111581962

> <r_i_glide_ligand_efficiency>
-0.170565856579575

> <r_i_glide_ligand_efficiency_sa>
-0.61987746004971

> <r_i_glide_ligand_efficiency_ln>
-1.68072742173571

> <r_i_glide_gscore>
-8.18716111581962

> <r_i_glide_lipo>
-3.53955063545905

> <r_i_glide_hbond>
-1.02825328889898

> <r_i_glide_metal>
0

> <r_i_glide_rewards>
0.741593273330062

> <r_i_glide_evdw>
-54.8285102844238

> <r_i_glide_ecoul>
-12.8668661117554

> <r_i_glide_erotb>
0.432255837998062

> <r_i_glide_esite>
-0.121750871805219

> <r_i_glide_emodel>
-94.3784290541175

> <r_i_glide_energy>
-67.6953763961792

> <r_i_glide_einternal>
11.2362241744995

> <i_i_glide_confnum>
6

> <i_i_glide_posenum>
156

> <r_i_glide_eff_state_penalty>
0

> <s_user_duplicate_titles>
CHEMBL286_lig656

> <i_f3d_flags>
0

> <s_m_subgroup_title>
dock_pv

> <s_m_subgroupid>
dock_pv

> <b_m_subgroup_collapsed>
1

$$$$
CHEMBL286_lig1524
                    3D
 Schrodinger Suite 2021-1.
103106  0  0  1  0            999 V2000
   -4.0929  -21.7341   -9.4826 C   0  0  2  0  0  0
   -4.3606  -17.8110   -9.9374 C   0  0  0  0  0  0
   -6.8792  -15.9956   -8.8412 C   0  0  0  0  0  0
   -3.0338  -20.6907   -9.0078 C   0  0  1  0  0  0
   -2.6268  -19.6204  -10.0764 C   0  0  1  0  0  0
   -3.7580  -18.8207  -10.5861 N   0  0  0  0  0  0
   -5.6724  -12.7568   -7.4086 C   0  0  0  0  0  0
   -4.5895  -22.7246   -8.3681 C   0  0  1  0  0  0
   -5.9930  -15.9876   -9.8427 N   0  0  0  0  0  0
   -5.8692  -13.9172   -8.0585 N   0  0  0  0  0  0
   -5.5368  -17.1200  -10.6434 C   0  0  1  0  0  0
   -7.3013  -15.6627  -13.0518 N   0  0  0  0  0  0
   -7.1457  -14.6219   -8.2164 C   0  0  1  0  0  0
   -6.0521  -15.4484  -12.4970 C   0  0  0  0  0  0
   -5.1479  -16.5670  -12.0356 C   0  0  0  0  0  0
   -7.0841  -13.4597  -12.8210 N   0  0  0  0  0  0
   -7.8576  -14.4619  -13.2171 C   0  0  0  0  0  0
   -4.2215  -12.3012   -7.1036 C   0  0  1  0  0  0
   -5.7177  -22.1927   -7.4177 C   0  0  2  0  0  0
   -5.9108  -14.0802  -12.4019 C   0  0  0  0  0  0
   -1.4264  -18.7597   -9.5820 C   0  0  0  0  0  0
   -4.0153  -17.4277   -8.8211 O   0  0  0  0  0  0
   -7.4604  -16.9945   -8.4213 O   0  0  0  0  0  0
   -6.6068  -12.0630   -7.0050 O   0  0  0  0  0  0
   -8.1991  -13.8106   -9.0323 C   0  0  0  0  0  0
   -3.1296  -13.3423   -7.5001 C   0  0  0  0  0  0
   -3.9463  -10.9412   -7.7914 C   0  0  0  0  0  0
   -3.5041  -22.4533  -10.5675 O   0  0  0  0  0  0
   -3.4629  -20.0492   -7.8239 O   0  0  0  0  0  0
   -5.0371  -23.9421   -8.9552 O   0  0  0  0  0  0
   -9.6658  -14.1806   -8.8211 C   0  0  0  0  0  0
   -5.8667  -23.1369   -6.3685 O   0  0  0  0  0  0
   -2.2694  -12.1215  -11.0551 N   0  0  0  0  0  0
   -2.5466  -12.0405   -9.6347 C   0  0  2  0  0  0
   -2.8217  -13.4282   -9.0153 C   0  0  0  0  0  0
   -3.6905  -11.0554   -9.3074 C   0  0  0  0  0  0
   -0.7340  -17.8540  -10.6218 C   0  0  0  0  0  0
   -7.1625  -20.7821   -8.8224 O   0  0  0  0  0  0
   -7.1123  -21.9730   -8.0595 C   0  0  0  0  0  0
  -10.1702  -15.4411   -9.2205 C   0  0  0  0  0  0
  -10.5498  -13.2599   -8.2111 C   0  0  0  0  0  0
    0.1490  -16.7958   -9.9106 C   0  0  0  0  0  0
    0.1263  -18.6753  -11.6159 C   0  0  0  0  0  0
  -11.5057  -15.7571   -9.0090 C   0  0  0  0  0  0
  -11.8822  -13.5976   -8.0093 C   0  0  0  0  0  0
    0.8943  -15.8899  -10.9046 C   0  0  0  0  0  0
    0.8615  -17.7753  -12.6169 C   0  0  0  0  0  0
  -12.3578  -14.8397   -8.4058 C   0  0  0  0  0  0
    1.7181  -16.7271  -11.9025 C   0  0  0  0  0  0
   -4.9454  -21.2030   -9.9028 H   0  0  0  0  0  0
   -2.1340  -21.2399   -8.7242 H   0  0  0  0  0  0
   -2.2722  -20.1762  -10.9437 H   0  0  0  0  0  0
   -4.1178  -19.0838  -11.4916 H   0  0  0  0  0  0
   -3.7210  -22.9677   -7.7535 H   0  0  0  0  0  0
   -5.6158  -15.0975  -10.1287 H   0  0  0  0  0  0
   -5.0544  -14.4588   -8.3092 H   0  0  0  0  0  0
   -6.3628  -17.8282  -10.7423 H   0  0  0  0  0  0
   -7.4690  -14.7913   -7.2038 H   0  0  0  0  0  0
   -4.1273  -16.1784  -12.0244 H   0  0  0  0  0  0
   -5.1647  -17.3636  -12.7805 H   0  0  0  0  0  0
   -7.7177  -16.5510  -13.3308 H   0  0  0  0  0  0
   -8.8448  -14.3135  -13.6216 H   0  0  0  0  0  0
   -4.2696  -12.1860   -6.0219 H   0  0  0  0  0  0
   -5.4137  -21.2642   -6.9387 H   0  0  0  0  0  0
   -5.0826  -13.5016  -12.0172 H   0  0  0  0  0  0
   -0.6702  -19.4210   -9.1820 H   0  0  0  0  0  0
   -1.7196  -18.1632   -8.7184 H   0  0  0  0  0  0
   -8.1076  -12.7471   -8.8226 H   0  0  0  0  0  0
   -7.9883  -13.8965  -10.0982 H   0  0  0  0  0  0
   -2.2260  -13.0920   -6.9413 H   0  0  0  0  0  0
   -3.3443  -14.3166   -7.0571 H   0  0  0  0  0  0
   -4.7223  -10.2108   -7.5497 H   0  0  0  0  0  0
   -3.1008  -10.4752   -7.2851 H   0  0  0  0  0  0
   -2.6595  -22.8132  -10.2781 H   0  0  0  0  0  0
   -3.7318  -19.1444   -8.0480 H   0  0  0  0  0  0
   -4.6903  -23.9524   -9.8558 H   0  0  0  0  0  0
   -5.7716  -24.0113   -6.7678 H   0  0  0  0  0  0
   -2.0956  -11.2035  -11.4383 H   0  0  0  0  0  0
   -1.4255  -12.6578  -11.2287 H   0  0  0  0  0  0
   -1.6566  -11.6442   -9.1421 H   0  0  0  0  0  0
   -1.9662  -14.0855   -9.1736 H   0  0  0  0  0  0
   -3.6643  -13.8878   -9.5311 H   0  0  0  0  0  0
   -3.4686  -10.0645   -9.6982 H   0  0  0  0  0  0
   -4.6035  -11.3860   -9.7995 H   0  0  0  0  0  0
   -1.4833  -17.3079  -11.1972 H   0  0  0  0  0  0
   -8.0641  -20.6331   -9.1177 H   0  0  0  0  0  0
   -7.4115  -22.8253   -8.6712 H   0  0  0  0  0  0
   -7.8737  -21.8934   -7.2805 H   0  0  0  0  0  0
   -9.5307  -16.1622   -9.7063 H   0  0  0  0  0  0
  -10.1954  -12.2893   -7.8947 H   0  0  0  0  0  0
    0.8776  -17.2909   -9.2674 H   0  0  0  0  0  0
   -0.4587  -16.1978   -9.2298 H   0  0  0  0  0  0
   -0.4812  -19.4130  -12.1402 H   0  0  0  0  0  0
    0.8649  -19.2620  -11.0680 H   0  0  0  0  0  0
  -11.8868  -16.7187   -9.3200 H   0  0  0  0  0  0
  -12.5515  -12.8903   -7.5419 H   0  0  0  0  0  0
    1.5456  -15.2008  -10.3646 H   0  0  0  0  0  0
    0.1740  -15.2695  -11.4416 H   0  0  0  0  0  0
    1.4751  -18.3741  -13.2907 H   0  0  0  0  0  0
    0.1310  -17.2560  -13.2211 H   0  0  0  0  0  0
  -13.3973  -15.0964   -8.2481 H   0  0  0  0  0  0
    2.5141  -17.2601  -11.3778 H   0  0  0  0  0  0
    2.1796  -16.0645  -12.6325 H   0  0  0  0  0  0
  1  4  1  0  0  0
  1  8  1  0  0  0
  1 28  1  0  0  0
  1 50  1  0  0  0
  2  6  1  0  0  0
  2 11  1  0  0  0
  2 22  2  0  0  0
  3  9  1  0  0  0
  3 13  1  0  0  0
  3 23  2  0  0  0
  4  5  1  0  0  0
  4 29  1  0  0  0
  4 51  1  0  0  0
  5  6  1  0  0  0
  5 21  1  0  0  0
  5 52  1  0  0  0
  6 53  1  0  0  0
  7 10  1  0  0  0
  7 18  1  0  0  0
  7 24  2  0  0  0
  8 19  1  0  0  0
  8 30  1  0  0  0
  8 54  1  0  0  0
  9 11  1  0  0  0
  9 55  1  0  0  0
 10 13  1  0  0  0
 10 56  1  0  0  0
 11 15  1  0  0  0
 11 57  1  0  0  0
 12 14  1  0  0  0
 12 61  1  0  0  0
 12 17  1  0  0  0
 13 25  1  0  0  0
 13 58  1  0  0  0
 14 20  2  0  0  0
 14 15  1  0  0  0
 15 59  1  0  0  0
 15 60  1  0  0  0
 16 17  2  0  0  0
 16 20  1  0  0  0
 17 62  1  0  0  0
 18 26  1  0  0  0
 18 27  1  0  0  0
 18 63  1  0  0  0
 19 32  1  0  0  0
 19 39  1  0  0  0
 19 64  1  0  0  0
 20 65  1  0  0  0
 21 37  1  0  0  0
 21 66  1  0  0  0
 21 67  1  0  0  0
 25 31  1  0  0  0
 25 68  1  0  0  0
 25 69  1  0  0  0
 26 35  1  0  0  0
 26 70  1  0  0  0
 26 71  1  0  0  0
 27 36  1  0  0  0
 27 72  1  0  0  0
 27 73  1  0  0  0
 28 74  1  0  0  0
 29 75  1  0  0  0
 30 76  1  0  0  0
 31 40  2  0  0  0
 31 41  1  0  0  0
 32 77  1  0  0  0
 33 34  1  0  0  0
 33 78  1  0  0  0
 33 79  1  0  0  0
 34 36  1  0  0  0
 34 35  1  0  0  0
 34 80  1  0  0  0
 35 81  1  0  0  0
 35 82  1  0  0  0
 36 83  1  0  0  0
 36 84  1  0  0  0
 37 42  1  0  0  0
 37 43  1  0  0  0
 37 85  1  0  0  0
 38 39  1  0  0  0
 38 86  1  0  0  0
 39 87  1  0  0  0
 39 88  1  0  0  0
 40 44  1  0  0  0
 40 89  1  0  0  0
 41 45  2  0  0  0
 41 90  1  0  0  0
 42 46  1  0  0  0
 42 91  1  0  0  0
 42 92  1  0  0  0
 43 47  1  0  0  0
 43 93  1  0  0  0
 43 94  1  0  0  0
 44 48  2  0  0  0
 44 95  1  0  0  0
 45 48  1  0  0  0
 45 96  1  0  0  0
 46 49  1  0  0  0
 46 97  1  0  0  0
 46 98  1  0  0  0
 47 49  1  0  0  0
 47 99  1  0  0  0
 47100  1  0  0  0
 48101  1  0  0  0
 49102  1  0  0  0
 49103  1  0  0  0
M  END
> <s_m_entry_id>
26241

> <s_m_entry_name>
dock_pv.65

> <s_m_Source_Path>
/home/csk/Desktop/cluster/DUD-E-result/reni

> <s_m_Source_File>
dock_pv.maegz

> <i_m_Source_File_Index>
65

> <chembl_id>
CHEMBL427931

> <chembl_pref_name>
None

> <i_lp_mmshare_version>
53161

> <r_lp_tautomer_probability>
0.499999999999999

> <s_lp_Force_Field>
OPLS_2005

> <r_lp_Energy>
47.96018

> <b_lp_Chiralities_Consistent>
1

> <s_lp_Variant>
CHEMBL286_lig1524-3

> <s_i_glide_gridfile>
glide-grid_3g6z

> <i_i_glide_lignum>
5166

> <i_i_glide_rotatable_bonds>
25

> <r_i_docking_score>
-8.16687567611029

> <r_i_glide_ligand_efficiency>
-0.166670932165516

> <r_i_glide_ligand_efficiency_sa>
-0.609899892976917

> <r_i_glide_ligand_efficiency_ln>
-1.66949625669295

> <r_i_glide_gscore>
-8.16687567611029

> <r_i_glide_lipo>
-3.65472352931225

> <r_i_glide_hbond>
-0.325187491516995

> <r_i_glide_metal>
0

> <r_i_glide_rewards>
-1.59740120468344

> <r_i_glide_evdw>
-51.1514167785645

> <r_i_glide_ecoul>
-4.0686182975769

> <r_i_glide_erotb>
0.601277369004154

> <r_i_glide_esite>
-0.0229772360370026

> <r_i_glide_emodel>
-76.2515730145578

> <r_i_glide_energy>
-55.2200350761414

> <r_i_glide_einternal>
13.3001613616943

> <i_i_glide_confnum>
15

> <i_i_glide_posenum>
213

> <r_i_glide_eff_state_penalty>
0

> <s_user_duplicate_titles>
CHEMBL286_lig1524

> <i_f3d_flags>
0

> <s_m_subgroup_title>
dock_pv

> <s_m_subgroupid>
dock_pv

> <b_m_subgroup_collapsed>
1

$$$$
CHEMBL286_lig2599
                    3D
 Schrodinger Suite 2021-1.
101102  0  0  1  0            999 V2000
   -4.8703  -16.5226   -9.0041 C   0  0  0  0  0  0
   -3.9976  -15.7164  -10.0050 C   0  0  0  0  0  0
   -2.5663  -15.5951   -9.4302 C   0  0  0  0  0  0
  -10.9058  -20.8001  -10.8208 C   0  0  0  0  0  0
  -11.5296  -21.8962  -11.4445 C   0  0  0  0  0  0
  -10.8819  -23.1468  -11.4532 C   0  0  0  0  0  0
   -9.6540  -23.3175  -10.8176 C   0  0  0  0  0  0
   -9.0641  -22.2517  -10.1373 C   0  0  0  0  0  0
   -9.6946  -21.0121  -10.1393 C   0  0  0  0  0  0
  -11.5387  -19.5653  -10.8776 O   0  0  0  0  0  0
  -10.8437  -18.3819  -10.4673 C   0  0  0  0  0  0
  -11.8521  -17.2680  -10.1873 C   0  0  0  0  0  0
  -11.2365  -16.0828   -9.4238 C   0  0  0  0  0  0
  -12.1952  -15.0549   -9.1939 O   0  0  0  0  0  0
  -13.0667  -15.2857   -8.0914 C   0  0  0  0  0  0
  -12.7693  -21.6798  -12.0206 O   0  0  0  0  0  0
  -13.3657  -22.7134  -12.7973 C   0  0  0  0  0  0
   -7.7831  -22.4427   -9.3373 C   0  0  0  0  0  0
   -6.4717  -22.0077  -10.0531 C   0  0  1  0  0  0
   -6.3323  -20.4540  -10.2495 C   0  0  0  0  0  0
   -5.2081  -22.5963   -9.3332 C   0  0  0  0  0  0
   -5.0423  -24.1208   -9.5246 C   0  0  0  0  0  0
   -5.0975  -22.2021   -7.8432 C   0  0  0  0  0  0
   -6.4695  -19.8499  -11.6811 C   0  0  1  0  0  0
   -5.8104  -20.6491  -12.8453 C   0  0  2  0  0  0
   -7.8627  -19.5737  -11.9985 N   0  0  0  0  0  0
   -4.3335  -21.1237  -12.6558 C   0  0  0  0  0  0
   -5.8685  -19.8720  -14.0214 O   0  0  0  0  0  0
   -3.2227  -20.1798  -12.0678 C   0  0  2  0  0  0
   -3.4452  -18.6819  -12.3620 C   0  0  0  0  0  0
   -1.7846  -20.6539  -12.4835 C   0  0  0  0  0  0
   -1.4825  -22.0917  -12.0107 C   0  0  0  0  0  0
   -0.6431  -19.7106  -12.0220 C   0  0  0  0  0  0
   -3.4727  -18.2882  -13.5226 O   0  0  0  0  0  0
   -3.5989  -17.8694  -11.3036 N   0  0  0  0  0  0
   -3.9304  -16.4448  -11.3842 C   0  0  0  0  0  0
   -4.6111  -14.3006  -10.2543 C   0  0  0  0  0  0
   -4.6998  -13.3612   -9.0476 C   0  0  0  0  0  0
   -3.6908  -12.4134   -8.8261 C   0  0  0  0  0  0
   -3.7634  -11.5379   -7.7433 C   0  0  0  0  0  0
   -4.8463  -11.6024   -6.8664 C   0  0  0  0  0  0
   -5.8617  -12.5340   -7.0852 C   0  0  0  0  0  0
   -5.7989  -13.4028   -8.1747 C   0  0  0  0  0  0
   -6.8143  -14.2739   -8.3823 F   0  0  0  0  0  0
   -2.7899  -10.6199   -7.5468 F   0  0  0  0  0  0
   -4.4771  -17.5240   -8.8311 H   0  0  0  0  0  0
   -4.9132  -16.0428   -8.0277 H   0  0  0  0  0  0
   -5.8944  -16.6335   -9.3657 H   0  0  0  0  0  0
   -2.0965  -16.5722   -9.3067 H   0  0  0  0  0  0
   -1.9218  -15.0069  -10.0847 H   0  0  0  0  0  0
   -2.5638  -15.1161   -8.4520 H   0  0  0  0  0  0
  -11.3185  -24.0009  -11.9494 H   0  0  0  0  0  0
   -9.1784  -24.2875  -10.8259 H   0  0  0  0  0  0
   -9.2063  -20.2257   -9.5935 H   0  0  0  0  0  0
  -10.2701  -18.5127   -9.5510 H   0  0  0  0  0  0
  -10.1463  -18.0749  -11.2478 H   0  0  0  0  0  0
  -12.2692  -16.9191  -11.1302 H   0  0  0  0  0  0
  -12.6689  -17.6834   -9.5999 H   0  0  0  0  0  0
  -10.7809  -16.4022   -8.4831 H   0  0  0  0  0  0
  -10.4284  -15.6632  -10.0185 H   0  0  0  0  0  0
  -13.7714  -14.4621   -8.0002 H   0  0  0  0  0  0
  -13.6447  -16.2042   -8.1993 H   0  0  0  0  0  0
  -12.5100  -15.3429   -7.1555 H   0  0  0  0  0  0
  -14.2697  -22.3262  -13.2609 H   0  0  0  0  0  0
  -12.7092  -23.0406  -13.6050 H   0  0  0  0  0  0
  -13.6392  -23.5733  -12.1834 H   0  0  0  0  0  0
   -7.7346  -23.4924   -9.0548 H   0  0  0  0  0  0
   -7.8874  -21.9138   -8.3880 H   0  0  0  0  0  0
   -6.4964  -22.4807  -11.0351 H   0  0  0  0  0  0
   -5.3419  -20.1472   -9.9049 H   0  0  0  0  0  0
   -6.9825  -19.9281   -9.5482 H   0  0  0  0  0  0
   -4.3327  -22.1620   -9.8143 H   0  0  0  0  0  0
   -5.8090  -24.6917   -9.0033 H   0  0  0  0  0  0
   -5.0846  -24.3928  -10.5811 H   0  0  0  0  0  0
   -4.0755  -24.4559   -9.1452 H   0  0  0  0  0  0
   -5.8767  -22.6662   -7.2341 H   0  0  0  0  0  0
   -4.1362  -22.5127   -7.4311 H   0  0  0  0  0  0
   -5.1716  -21.1209   -7.7051 H   0  0  0  0  0  0
   -6.0126  -18.8656  -11.6306 H   0  0  0  0  0  0
   -6.4158  -21.5350  -13.0468 H   0  0  0  0  0  0
   -8.2802  -19.0319  -11.2588 H   0  0  0  0  0  0
   -7.9559  -19.0098  -12.8379 H   0  0  0  0  0  0
   -3.9968  -21.5045  -13.6209 H   0  0  0  0  0  0
   -4.3662  -22.0237  -12.0411 H   0  0  0  0  0  0
   -6.7534  -19.5044  -14.1249 H   0  0  0  0  0  0
   -3.2700  -20.2895  -10.9821 H   0  0  0  0  0  0
   -1.7449  -20.6624  -13.5742 H   0  0  0  0  0  0
   -1.5614  -22.1816  -10.9251 H   0  0  0  0  0  0
   -2.1653  -22.8166  -12.4526 H   0  0  0  0  0  0
   -0.4762  -22.3985  -12.2921 H   0  0  0  0  0  0
   -0.6818  -19.5295  -10.9469 H   0  0  0  0  0  0
    0.3385  -20.1268  -12.2526 H   0  0  0  0  0  0
   -0.6905  -18.7448  -12.5239 H   0  0  0  0  0  0
   -3.5277  -18.2571  -10.3744 H   0  0  0  0  0  0
   -4.8933  -16.3603  -11.8947 H   0  0  0  0  0  0
   -3.2038  -15.9402  -12.0243 H   0  0  0  0  0  0
   -5.6097  -14.3930  -10.6839 H   0  0  0  0  0  0
   -4.0367  -13.7928  -11.0340 H   0  0  0  0  0  0
   -2.8455  -12.3543   -9.4970 H   0  0  0  0  0  0
   -4.8974  -10.9301   -6.0225 H   0  0  0  0  0  0
   -6.7065  -12.5833   -6.4154 H   0  0  0  0  0  0
  1  2  1  0  0  0
  1 46  1  0  0  0
  1 47  1  0  0  0
  1 48  1  0  0  0
  2  3  1  0  0  0
  2 36  1  0  0  0
  2 37  1  0  0  0
  3 49  1  0  0  0
  3 50  1  0  0  0
  3 51  1  0  0  0
  4  5  2  0  0  0
  4  9  1  0  0  0
  4 10  1  0  0  0
  5  6  1  0  0  0
  5 16  1  0  0  0
  6  7  2  0  0  0
  6 52  1  0  0  0
  7  8  1  0  0  0
  7 53  1  0  0  0
  8  9  2  0  0  0
  8 18  1  0  0  0
  9 54  1  0  0  0
 10 11  1  0  0  0
 11 12  1  0  0  0
 11 55  1  0  0  0
 11 56  1  0  0  0
 12 13  1  0  0  0
 12 57  1  0  0  0
 12 58  1  0  0  0
 13 14  1  0  0  0
 13 59  1  0  0  0
 13 60  1  0  0  0
 14 15  1  0  0  0
 15 61  1  0  0  0
 15 62  1  0  0  0
 15 63  1  0  0  0
 16 17  1  0  0  0
 17 64  1  0  0  0
 17 65  1  0  0  0
 17 66  1  0  0  0
 18 19  1  0  0  0
 18 67  1  0  0  0
 18 68  1  0  0  0
 19 20  1  0  0  0
 19 21  1  0  0  0
 19 69  1  0  0  0
 20 24  1  0  0  0
 20 70  1  0  0  0
 20 71  1  0  0  0
 21 22  1  0  0  0
 21 23  1  0  0  0
 21 72  1  0  0  0
 22 73  1  0  0  0
 22 74  1  0  0  0
 22 75  1  0  0  0
 23 76  1  0  0  0
 23 77  1  0  0  0
 23 78  1  0  0  0
 24 25  1  0  0  0
 24 26  1  0  0  0
 24 79  1  0  0  0
 25 27  1  0  0  0
 25 28  1  0  0  0
 25 80  1  0  0  0
 26 81  1  0  0  0
 26 82  1  0  0  0
 27 29  1  0  0  0
 27 83  1  0  0  0
 27 84  1  0  0  0
 28 85  1  0  0  0
 29 30  1  0  0  0
 29 31  1  0  0  0
 29 86  1  0  0  0
 30 34  2  0  0  0
 30 35  1  0  0  0
 31 32  1  0  0  0
 31 33  1  0  0  0
 31 87  1  0  0  0
 32 88  1  0  0  0
 32 89  1  0  0  0
 32 90  1  0  0  0
 33 91  1  0  0  0
 33 92  1  0  0  0
 33 93  1  0  0  0
 35 36  1  0  0  0
 35 94  1  0  0  0
 36 95  1  0  0  0
 36 96  1  0  0  0
 37 38  1  0  0  0
 37 97  1  0  0  0
 37 98  1  0  0  0
 38 39  2  0  0  0
 38 43  1  0  0  0
 39 40  1  0  0  0
 39 99  1  0  0  0
 40 41  2  0  0  0
 40 45  1  0  0  0
 41 42  1  0  0  0
 41100  1  0  0  0
 42 43  2  0  0  0
 42101  1  0  0  0
 43 44  1  0  0  0
M  END
> <s_m_entry_id>
26242

> <s_m_entry_name>
dock_pv.66

> <s_m_Source_Path>
/home/csk/Desktop/cluster/DUD-E-result/reni

> <s_m_Source_File>
dock_pv.maegz

> <i_m_Source_File_Index>
66

> <chembl_id>
CHEMBL3633107

> <chembl_pref_name>
None

> <i_lp_mmshare_version>
53161

> <r_lp_tautomer_probability>
1

> <s_lp_Force_Field>
OPLS_2005

> <r_lp_Energy>
42.995385

> <b_lp_Chiralities_Consistent>
1

> <s_lp_Variant>
CHEMBL286_lig2599-1

> <s_i_glide_gridfile>
glide-grid_3g6z

> <i_i_glide_lignum>
6664

> <i_i_glide_rotatable_bonds>
22

> <r_i_docking_score>
-8.1448871568745

> <r_i_glide_ligand_efficiency>
-0.180997492374989

> <r_i_glide_ligand_efficiency_sa>
-0.643788767941194

> <r_i_glide_ligand_efficiency_ln>
-1.69449949402703

> <r_i_glide_gscore>
-8.1448871568745

> <r_i_glide_lipo>
-3.76583205261877

> <r_i_glide_hbond>
-0.0104942452824787

> <r_i_glide_metal>
0

> <r_i_glide_rewards>
-0.854728725296404

> <r_i_glide_evdw>
-48.9225082397461

> <r_i_glide_ecoul>
-11.7758312225342

> <r_i_glide_erotb>
0.698667961690583

> <r_i_glide_esite>
0

> <r_i_glide_emodel>
-85.0044517503245

> <r_i_glide_energy>
-60.6983394622803

> <r_i_glide_einternal>
15.4844379425049

> <i_i_glide_confnum>
24

> <i_i_glide_posenum>
336

> <r_i_glide_eff_state_penalty>
0

> <s_user_duplicate_titles>
CHEMBL286_lig2599

> <i_f3d_flags>
0

> <s_m_subgroup_title>
dock_pv

> <s_m_subgroupid>
dock_pv

> <b_m_subgroup_collapsed>
1

$$$$
CHEMBL286_lig1581
                    3D
 Schrodinger Suite 2021-1.
 86 90  0  0  1  0            999 V2000
   -2.4009  -17.0054  -11.3368 C   0  0  0  0  0  0
   -3.7639  -17.7340  -11.3891 C   0  0  0  0  0  0
   -4.8070  -17.0447  -10.8298 N   0  0  0  0  0  0
   -4.6811  -15.7041  -10.1778 C   0  0  2  0  0  0
   -3.3535  -14.9687  -10.5427 C   0  0  0  0  0  0
   -2.5991  -15.5837  -11.6208 N   0  0  2  0  0  0
   -3.8695  -18.8381  -11.9294 O   0  0  0  0  0  0
   -5.0306  -15.6481   -8.6625 C   0  0  0  0  0  0
   -5.3862  -14.0149   -7.9306 S   0  0  0  0  0  0
   -3.8659  -13.1313   -7.9838 C   0  0  0  0  0  0
   -3.7871  -11.9455   -8.7149 C   0  0  0  0  0  0
   -2.5554  -11.3168   -8.8854 C   0  0  0  0  0  0
   -2.7293  -13.6657   -7.3720 C   0  0  0  0  0  0
   -1.4762  -13.0637   -7.5656 C   0  0  0  0  0  0
   -1.4163  -11.8891   -8.3262 C   0  0  0  0  0  0
   -0.2020  -11.2705   -8.5167 O   0  0  0  0  0  0
    0.8913  -12.1989   -8.6722 C   0  0  0  0  0  0
    0.9730  -13.2434   -7.5209 C   0  0  0  0  0  0
   -0.2615  -13.5464   -7.0158 N   0  0  0  0  0  0
   -6.0921  -17.6072  -10.8099 C   0  0  0  0  0  0
   -6.4093  -18.5924   -9.8745 C   0  0  0  0  0  0
   -7.7192  -19.0505   -9.7726 C   0  0  0  0  0  0
   -8.7063  -18.5630  -10.6262 C   0  0  0  0  0  0
   -8.3558  -17.6343  -11.6207 C   0  0  0  0  0  0
   -7.0584  -17.1414  -11.6988 C   0  0  0  0  0  0
   -9.9801  -19.0591  -10.4254 O   0  0  0  0  0  0
  -11.0583  -18.6239  -11.2492 C   0  0  0  0  0  0
  -11.5178  -17.1722  -11.0092 C   0  0  0  0  0  0
  -12.1117  -16.8836   -9.6266 C   0  0  0  0  0  0
  -11.1027  -16.7550   -8.6422 O   0  0  0  0  0  0
  -11.5510  -16.1368   -7.4382 C   0  0  0  0  0  0
  -11.8756  -14.6472   -7.6272 C   0  0  0  0  0  0
  -13.0685  -14.1399   -7.0982 C   0  0  0  0  0  0
  -13.3787  -12.7868   -7.2210 C   0  0  0  0  0  0
  -12.5022  -11.9273   -7.8759 C   0  0  0  0  0  0
  -11.3176  -12.4234   -8.4153 C   0  0  0  0  0  0
  -10.9911  -13.7867   -8.3033 C   0  0  0  0  0  0
   -9.8340  -14.3407   -8.8211 O   0  0  0  0  0  0
   -8.7765  -13.5045   -9.2645 C   0  0  0  0  0  0
   -0.3251  -14.5713   -5.9494 C   0  0  0  0  0  0
    2.0473  -13.7096   -7.1354 O   0  0  0  0  0  0
   -0.3944  -16.0329   -6.4489 C   0  0  0  0  0  0
   -0.3768  -17.0540   -5.2979 C   0  0  0  0  0  0
   -1.4690  -16.8047   -4.4203 O   0  0  0  0  0  0
   -1.4604  -17.6020   -3.2471 C   0  0  0  0  0  0
   -1.7116  -17.4536  -12.0492 H   0  0  0  0  0  0
   -1.9676  -17.1537  -10.3457 H   0  0  0  0  0  0
   -5.4522  -15.1381  -10.7025 H   0  0  0  0  0  0
   -3.5527  -13.9207  -10.7644 H   0  0  0  0  0  0
   -2.6944  -14.9779   -9.6737 H   0  0  0  0  0  0
   -2.9807  -15.3828  -12.5488 H   0  0  0  0  0  0
   -4.2414  -16.1314   -8.0843 H   0  0  0  0  0  0
   -5.9295  -16.2347   -8.4728 H   0  0  0  0  0  0
   -4.6686  -11.5300   -9.1824 H   0  0  0  0  0  0
   -2.4800  -10.4149   -9.4720 H   0  0  0  0  0  0
   -2.8267  -14.5806   -6.8090 H   0  0  0  0  0  0
    1.8398  -11.6721   -8.7562 H   0  0  0  0  0  0
    0.7404  -12.7764   -9.5861 H   0  0  0  0  0  0
   -5.6464  -18.9828   -9.2193 H   0  0  0  0  0  0
   -7.9757  -19.7890   -9.0273 H   0  0  0  0  0  0
   -9.0674  -17.2752  -12.3457 H   0  0  0  0  0  0
   -6.8104  -16.4082  -12.4518 H   0  0  0  0  0  0
  -10.7933  -18.7605  -12.2967 H   0  0  0  0  0  0
  -11.8964  -19.2977  -11.0710 H   0  0  0  0  0  0
  -10.7140  -16.4623  -11.1881 H   0  0  0  0  0  0
  -12.2688  -16.9407  -11.7646 H   0  0  0  0  0  0
  -12.6691  -15.9499   -9.7123 H   0  0  0  0  0  0
  -12.7994  -17.6640   -9.3074 H   0  0  0  0  0  0
  -12.4027  -16.6824   -7.0265 H   0  0  0  0  0  0
  -10.7521  -16.2383   -6.7068 H   0  0  0  0  0  0
  -13.7562  -14.7912   -6.5795 H   0  0  0  0  0  0
  -14.2924  -12.3981   -6.7975 H   0  0  0  0  0  0
  -12.7376  -10.8753   -7.9680 H   0  0  0  0  0  0
  -10.6692  -11.7296   -8.9242 H   0  0  0  0  0  0
   -7.9309  -14.1311   -9.5469 H   0  0  0  0  0  0
   -9.0534  -12.9288  -10.1441 H   0  0  0  0  0  0
   -8.4421  -12.8286   -8.4767 H   0  0  0  0  0  0
   -1.1672  -14.3674   -5.2898 H   0  0  0  0  0  0
    0.5397  -14.4727   -5.2904 H   0  0  0  0  0  0
    0.4558  -16.2337   -7.1006 H   0  0  0  0  0  0
   -1.2882  -16.1941   -7.0497 H   0  0  0  0  0  0
    0.5720  -16.9757   -4.7633 H   0  0  0  0  0  0
   -0.4448  -18.0685   -5.6970 H   0  0  0  0  0  0
   -2.2655  -17.2725   -2.5918 H   0  0  0  0  0  0
   -0.5264  -17.4944   -2.6941 H   0  0  0  0  0  0
   -1.6157  -18.6570   -3.4793 H   0  0  0  0  0  0
  1  2  1  0  0  0
  1  6  1  0  0  0
  1 46  1  0  0  0
  1 47  1  0  0  0
  2  7  2  0  0  0
  2  3  1  0  0  0
  3 20  1  0  0  0
  3  4  1  0  0  0
  4  5  1  0  0  0
  4  8  1  0  0  0
  4 48  1  0  0  0
  5  6  1  0  0  0
  5 49  1  0  0  0
  5 50  1  0  0  0
  6 51  1  0  0  0
  8  9  1  0  0  0
  8 52  1  0  0  0
  8 53  1  0  0  0
  9 10  1  0  0  0
 10 11  2  0  0  0
 10 13  1  0  0  0
 11 12  1  0  0  0
 11 54  1  0  0  0
 12 15  2  0  0  0
 12 55  1  0  0  0
 13 14  2  0  0  0
 13 56  1  0  0  0
 14 15  1  0  0  0
 14 19  1  0  0  0
 15 16  1  0  0  0
 16 17  1  0  0  0
 17 18  1  0  0  0
 17 57  1  0  0  0
 17 58  1  0  0  0
 18 19  1  0  0  0
 18 41  2  0  0  0
 19 40  1  0  0  0
 20 25  1  0  0  0
 20 21  2  0  0  0
 21 22  1  0  0  0
 21 59  1  0  0  0
 22 23  2  0  0  0
 22 60  1  0  0  0
 23 24  1  0  0  0
 23 26  1  0  0  0
 24 25  2  0  0  0
 24 61  1  0  0  0
 25 62  1  0  0  0
 26 27  1  0  0  0
 27 28  1  0  0  0
 27 63  1  0  0  0
 27 64  1  0  0  0
 28 29  1  0  0  0
 28 65  1  0  0  0
 28 66  1  0  0  0
 29 30  1  0  0  0
 29 67  1  0  0  0
 29 68  1  0  0  0
 30 31  1  0  0  0
 31 32  1  0  0  0
 31 69  1  0  0  0
 31 70  1  0  0  0
 32 33  2  0  0  0
 32 37  1  0  0  0
 33 34  1  0  0  0
 33 71  1  0  0  0
 34 35  2  0  0  0
 34 72  1  0  0  0
 35 36  1  0  0  0
 35 73  1  0  0  0
 36 37  2  0  0  0
 36 74  1  0  0  0
 37 38  1  0  0  0
 38 39  1  0  0  0
 39 75  1  0  0  0
 39 76  1  0  0  0
 39 77  1  0  0  0
 40 42  1  0  0  0
 40 78  1  0  0  0
 40 79  1  0  0  0
 42 43  1  0  0  0
 42 80  1  0  0  0
 42 81  1  0  0  0
 43 44  1  0  0  0
 43 82  1  0  0  0
 43 83  1  0  0  0
 44 45  1  0  0  0
 45 84  1  0  0  0
 45 85  1  0  0  0
 45 86  1  0  0  0
M  END
> <s_m_entry_id>
26243

> <s_m_entry_name>
dock_pv.67

> <s_m_Source_Path>
/home/csk/Desktop/cluster/DUD-E-result/reni

> <s_m_Source_File>
dock_pv.maegz

> <i_m_Source_File_Index>
67

> <chembl_id>
CHEMBL205345

> <chembl_pref_name>
None

> <i_lp_mmshare_version>
53161

> <r_lp_tautomer_probability>
1

> <s_lp_Force_Field>
OPLS_2005

> <r_lp_Energy>
64.038944

> <b_lp_Chiralities_Consistent>
1

> <s_lp_Variant>
CHEMBL286_lig1581-1

> <s_i_glide_gridfile>
glide-grid_3g6z

> <i_i_glide_lignum>
5285

> <i_i_glide_rotatable_bonds>
16

> <r_i_docking_score>
-8.14087160487455

> <r_i_glide_ligand_efficiency>
-0.180908257886101

> <r_i_glide_ligand_efficiency_sa>
-0.643471370385542

> <r_i_glide_ligand_efficiency_ln>
-1.69366408026363

> <r_i_glide_gscore>
-8.14087160487455

> <r_i_glide_lipo>
-3.87438083586691

> <r_i_glide_hbond>
-0.608

> <r_i_glide_metal>
0

> <r_i_glide_rewards>
-0.58374552928735

> <r_i_glide_evdw>
-48.7024307250977

> <r_i_glide_ecoul>
-8.20406055450439

> <r_i_glide_erotb>
0.591027397314377

> <r_i_glide_esite>
-4.2017604122185e-05

> <r_i_glide_emodel>
-79.7329384502699

> <r_i_glide_energy>
-56.9064912796021

> <r_i_glide_einternal>
6.42293930053711

> <i_i_glide_confnum>
6

> <i_i_glide_posenum>
10

> <r_i_glide_eff_state_penalty>
0

> <s_user_duplicate_titles>
CHEMBL286_lig1581

> <i_f3d_flags>
0

> <s_m_subgroup_title>
dock_pv

> <s_m_subgroupid>
dock_pv

> <b_m_subgroup_collapsed>
1

$$$$
CHEMBL286_lig1965
                    3D
 Schrodinger Suite 2021-1.
 89 94  0  0  1  0            999 V2000
   -7.7175  -20.7878  -12.2479 C   0  0  0  0  0  0
   -6.7036  -21.8371  -12.7651 C   0  0  0  0  0  0
   -5.4220  -21.2275  -13.1245 N   0  0  1  0  0  0
   -4.8329  -20.5633  -11.9638 C   0  0  0  0  0  0
   -5.7588  -19.4235  -11.4673 C   0  0  1  0  0  0
   -7.1397  -20.0065  -11.0468 C   0  0  1  0  0  0
   -5.0368  -18.6709  -10.3180 C   0  0  0  0  0  0
   -8.1221  -19.0109  -10.3992 C   0  0  0  0  0  0
   -8.1941  -18.9275   -9.0022 C   0  0  0  0  0  0
   -9.1023  -18.0629   -8.3923 C   0  0  0  0  0  0
   -9.9521  -17.2901   -9.1914 C   0  0  0  0  0  0
   -9.8622  -17.3284  -10.5532 N   0  0  0  0  0  0
   -8.9688  -18.1717  -11.1356 C   0  0  0  0  0  0
  -10.9196  -16.4367   -8.6311 N   0  0  0  0  0  0
   -4.5048  -17.4388  -10.5370 N   0  0  0  0  0  0
   -4.9732  -19.2288   -9.2212 O   0  0  0  0  0  0
   -3.9509  -17.1307  -11.8652 C   0  0  0  0  0  0
   -4.1298  -16.5868   -9.3818 C   0  0  0  0  0  0
   -4.0246  -15.0581   -9.5448 C   0  0  0  0  0  0
   -4.5182  -14.3837  -10.6744 C   0  0  0  0  0  0
   -4.2300  -13.0284  -10.8772 C   0  0  0  0  0  0
   -3.5690  -12.3537   -9.9024 N   0  3  0  0  0  0
   -3.1411  -12.9446   -8.7709 C   0  0  0  0  0  0
   -3.3372  -14.3084   -8.5763 C   0  0  0  0  0  0
   -2.6245  -16.4155  -12.0074 C   0  0  0  0  0  0
   -2.7178  -17.8803  -12.3380 C   0  0  0  0  0  0
  -11.8611  -15.6082   -9.3828 C   0  0  0  0  0  0
  -12.6604  -14.7205   -8.4331 C   0  0  1  0  0  0
  -12.1518  -15.0831   -7.0463 C   0  0  0  0  0  0
  -11.4066  -16.3984   -7.2543 C   0  0  0  0  0  0
  -12.5660  -13.3656   -8.8957 O   0  0  0  0  0  0
  -12.0971  -12.3665   -8.0709 C   0  0  0  0  0  0
  -10.7294  -12.0606   -8.0220 C   0  0  0  0  0  0
  -10.2851  -10.9377   -7.3191 C   0  0  0  0  0  0
  -11.1882  -10.1446   -6.6148 C   0  0  0  0  0  0
  -12.5403  -10.4933   -6.6044 C   0  0  0  0  0  0
  -12.9987  -11.5862   -7.3407 C   0  0  0  0  0  0
   -9.5687  -13.0616   -8.8203 Cl  0  0  0  0  0  0
  -14.6876  -11.9409   -7.3740 Cl  0  0  0  0  0  0
   -2.6858  -15.0344   -7.1518 Cl  0  0  0  0  0  0
  -10.7018   -8.9178   -5.8676 C   0  0  0  0  0  0
   -4.5967  -12.3536  -12.2027 C   0  0  0  0  0  0
   -3.4020  -12.1181  -13.1546 C   0  0  0  0  0  0
   -3.8681  -11.9180  -14.6170 C   0  0  0  0  0  0
   -2.8701  -11.4875  -15.5360 O   0  0  0  0  0  0
   -1.8831  -12.4602  -15.8421 C   0  0  0  0  0  0
   -3.3448  -11.1205  -10.0211 O   0  5  0  0  0  0
   -8.6170  -21.3241  -11.9475 H   0  0  0  0  0  0
   -7.9883  -20.1286  -13.0751 H   0  0  0  0  0  0
   -6.5301  -22.5899  -11.9932 H   0  0  0  0  0  0
   -7.0949  -22.3737  -13.6212 H   0  0  0  0  0  0
   -4.8027  -21.9631  -13.4414 H   0  0  0  0  0  0
   -3.8277  -20.2187  -12.2062 H   0  0  0  0  0  0
   -4.7220  -21.3216  -11.1818 H   0  0  0  0  0  0
   -5.9334  -18.7001  -12.2671 H   0  0  0  0  0  0
   -6.9701  -20.7591  -10.2728 H   0  0  0  0  0  0
   -7.5451  -19.5389   -8.3936 H   0  0  0  0  0  0
   -9.1511  -18.0151   -7.3174 H   0  0  0  0  0  0
   -8.9547  -18.1643  -12.2187 H   0  0  0  0  0  0
   -4.7143  -16.8903  -12.6066 H   0  0  0  0  0  0
   -3.1725  -16.9591   -9.0149 H   0  0  0  0  0  0
   -4.8295  -16.7629   -8.5619 H   0  0  0  0  0  0
   -5.0653  -14.9173  -11.4368 H   0  0  0  0  0  0
   -2.6218  -12.3039   -8.0728 H   0  0  0  0  0  0
   -2.6110  -15.6742  -12.8127 H   0  0  0  0  0  0
   -2.0385  -16.1210  -11.1401 H   0  0  0  0  0  0
   -2.2383  -18.5951  -11.6686 H   0  0  0  0  0  0
   -2.6921  -18.2113  -13.3746 H   0  0  0  0  0  0
  -11.2591  -14.9774  -10.0209 H   0  0  0  0  0  0
  -12.5049  -16.2152  -10.0194 H   0  0  0  0  0  0
  -13.7207  -14.9562   -8.5183 H   0  0  0  0  0  0
  -13.0218  -15.2273   -6.4188 H   0  0  0  0  0  0
  -11.5002  -14.3442   -6.5827 H   0  0  0  0  0  0
  -12.0215  -17.2628   -7.0290 H   0  0  0  0  0  0
  -10.5727  -16.4643   -6.5634 H   0  0  0  0  0  0
   -9.2334  -10.6911   -7.3137 H   0  0  0  0  0  0
  -13.2465   -9.8939   -6.0501 H   0  0  0  0  0  0
  -11.4784   -8.4736   -5.2429 H   0  0  0  0  0  0
   -9.8698   -9.1886   -5.2210 H   0  0  0  0  0  0
  -10.3378   -8.1639   -6.5702 H   0  0  0  0  0  0
   -5.0740  -11.3950  -12.0167 H   0  0  0  0  0  0
   -5.3446  -12.9737  -12.7027 H   0  0  0  0  0  0
   -2.7260  -12.9701  -13.1044 H   0  0  0  0  0  0
   -2.8179  -11.2630  -12.8175 H   0  0  0  0  0  0
   -4.6678  -11.1765  -14.6479 H   0  0  0  0  0  0
   -4.2822  -12.8549  -14.9802 H   0  0  0  0  0  0
   -1.0861  -11.9991  -16.4289 H   0  0  0  0  0  0
   -2.3062  -13.2790  -16.4228 H   0  0  0  0  0  0
   -1.4291  -12.8630  -14.9408 H   0  0  0  0  0  0
  1  2  1  0  0  0
  1  6  1  0  0  0
  1 48  1  0  0  0
  1 49  1  0  0  0
  2  3  1  0  0  0
  2 50  1  0  0  0
  2 51  1  0  0  0
  3  4  1  0  0  0
  3 52  1  0  0  0
  4  5  1  0  0  0
  4 53  1  0  0  0
  4 54  1  0  0  0
  5  6  1  0  0  0
  5  7  1  0  0  0
  5 55  1  0  0  0
  6  8  1  0  0  0
  6 56  1  0  0  0
  7 15  1  0  0  0
  7 16  2  0  0  0
  8 13  1  0  0  0
  8  9  2  0  0  0
  9 10  1  0  0  0
  9 57  1  0  0  0
 10 11  2  0  0  0
 10 58  1  0  0  0
 11 12  1  0  0  0
 11 14  1  0  0  0
 12 13  2  0  0  0
 13 59  1  0  0  0
 14 27  1  0  0  0
 14 30  1  0  0  0
 15 17  1  0  0  0
 15 18  1  0  0  0
 17 25  1  0  0  0
 17 26  1  0  0  0
 17 60  1  0  0  0
 18 19  1  0  0  0
 18 61  1  0  0  0
 18 62  1  0  0  0
 19 24  1  0  0  0
 19 20  2  0  0  0
 20 21  1  0  0  0
 20 63  1  0  0  0
 21 42  1  0  0  0
 21 22  2  0  0  0
 22 23  1  0  0  0
 22 47  1  0  0  0
 23 24  2  0  0  0
 23 64  1  0  0  0
 24 40  1  0  0  0
 25 26  1  0  0  0
 25 65  1  0  0  0
 25 66  1  0  0  0
 26 67  1  0  0  0
 26 68  1  0  0  0
 27 28  1  0  0  0
 27 69  1  0  0  0
 27 70  1  0  0  0
 28 29  1  0  0  0
 28 31  1  0  0  0
 28 71  1  0  0  0
 29 30  1  0  0  0
 29 72  1  0  0  0
 29 73  1  0  0  0
 30 74  1  0  0  0
 30 75  1  0  0  0
 31 32  1  0  0  0
 32 33  2  0  0  0
 32 37  1  0  0  0
 33 34  1  0  0  0
 33 38  1  0  0  0
 34 35  2  0  0  0
 34 76  1  0  0  0
 35 36  1  0  0  0
 35 41  1  0  0  0
 36 37  2  0  0  0
 36 77  1  0  0  0
 37 39  1  0  0  0
 41 78  1  0  0  0
 41 79  1  0  0  0
 41 80  1  0  0  0
 42 43  1  0  0  0
 42 81  1  0  0  0
 42 82  1  0  0  0
 43 44  1  0  0  0
 43 83  1  0  0  0
 43 84  1  0  0  0
 44 45  1  0  0  0
 44 85  1  0  0  0
 44 86  1  0  0  0
 45 46  1  0  0  0
 46 87  1  0  0  0
 46 88  1  0  0  0
 46 89  1  0  0  0
M  CHG  2  22   1  47  -1
M  END
> <s_m_entry_id>
26244

> <s_m_entry_name>
dock_pv.68

> <s_m_Source_Path>
/home/csk/Desktop/cluster/DUD-E-result/reni

> <s_m_Source_File>
dock_pv.maegz

> <i_m_Source_File_Index>
68

> <chembl_id>
CHEMBL1269760

> <chembl_pref_name>
None

> <i_lp_mmshare_version>
53161

> <r_lp_tautomer_probability>
1

> <s_lp_Force_Field>
OPLS_2005

> <r_lp_Energy>
94.138205

> <b_lp_Chiralities_Consistent>
1

> <s_lp_Variant>
CHEMBL286_lig1965-1

> <s_i_glide_gridfile>
glide-grid_3g6z

> <i_i_glide_lignum>
5754

> <i_i_glide_rotatable_bonds>
13

> <r_i_docking_score>
-8.14014605318766

> <r_i_glide_ligand_efficiency>
-0.173194596876333

> <r_i_glide_ligand_efficiency_sa>
-0.625029177344268

> <r_i_glide_ligand_efficiency_ln>
-1.6783295523455

> <r_i_glide_gscore>
-8.14014605318766

> <r_i_glide_lipo>
-4.83753115747046

> <r_i_glide_hbond>
-0.0189194154907734

> <r_i_glide_metal>
0

> <r_i_glide_rewards>
0.312069329506419

> <r_i_glide_evdw>
-50.7188873291016

> <r_i_glide_ecoul>
-9.361647605896

> <r_i_glide_erotb>
0.344426697606632

> <r_i_glide_esite>
0

> <r_i_glide_emodel>
-62.0890758926695

> <r_i_glide_energy>
-60.0805349349976

> <r_i_glide_einternal>
14.819634437561

> <i_i_glide_confnum>
39

> <i_i_glide_posenum>
3

> <r_i_glide_eff_state_penalty>
0

> <s_user_duplicate_titles>
CHEMBL286_lig1965

> <i_f3d_flags>
0

> <s_m_subgroup_title>
dock_pv

> <s_m_subgroupid>
dock_pv

> <b_m_subgroup_collapsed>
1

$$$$
CHEMBL286_lig1561
                    3D
 Schrodinger Suite 2021-1.
 73 76  0  0  1  0            999 V2000
   -7.3442  -18.4035  -11.7096 N   0  0  0  0  0  0
   -7.3126  -19.7493  -11.9729 C   0  0  0  0  0  0
   -8.3308  -17.8950  -10.8386 C   0  0  0  0  0  0
   -6.4919  -17.3850  -12.3932 C   0  0  2  0  0  0
   -5.8689  -19.2429  -13.9631 N   0  0  2  0  0  0
   -4.2582  -12.4991   -8.5427 C   0  0  0  0  0  0
  -11.6705  -11.8558   -7.4640 C   0  0  0  0  0  0
   -3.3550  -12.1339   -9.5485 C   0  0  0  0  0  0
   -8.0732  -20.5640  -11.4408 O   0  0  0  0  0  0
   -4.7281  -13.8152   -8.4825 C   0  0  0  0  0  0
  -11.2191  -10.6120   -6.9871 C   0  0  0  0  0  0
   -8.0958  -17.8655   -9.4617 C   0  0  0  0  0  0
   -9.5328  -17.4071  -11.3552 C   0  0  0  0  0  0
   -2.9217  -13.0798  -10.4780 C   0  0  0  0  0  0
   -6.2196  -20.2455  -12.9576 C   0  0  0  0  0  0
   -4.2982  -14.7693   -9.4141 C   0  0  0  0  0  0
   -2.8906  -10.8653   -9.6198 F   0  0  0  0  0  0
   -5.4349  -17.9949  -13.3562 C   0  0  0  0  0  0
  -10.2757  -16.8684   -9.1089 C   0  0  0  0  0  0
   -4.9398  -16.8770  -10.5606 O   0  0  0  0  0  0
   -3.3849  -14.3939  -10.4080 C   0  0  0  0  0  0
   -9.0619  -17.3414   -8.6060 C   0  0  0  0  0  0
  -10.5035  -16.8999  -10.4945 C   0  0  0  0  0  0
  -12.1539   -9.7663   -6.4210 O   0  0  0  0  0  0
   -5.8568  -16.2995  -11.4897 C   0  0  0  0  0  0
  -13.4180  -15.9248   -7.3531 C   0  0  0  0  0  0
  -11.1885  -16.3948   -8.1848 O   0  0  0  0  0  0
  -13.1634  -12.1976   -7.3840 C   0  0  0  0  0  0
  -13.4598  -13.5446   -7.7579 O   0  0  0  0  0  0
   -4.7253  -11.4699   -7.5258 C   0  0  0  0  0  0
  -10.7531  -12.7607   -8.0144 C   0  0  0  0  0  0
   -4.8052  -16.2079   -9.3042 C   0  0  0  0  0  0
  -12.5528  -16.2590   -8.5778 C   0  0  0  0  0  0
  -13.1697  -14.5263   -6.7667 C   0  0  0  0  0  0
   -9.8548  -10.2918   -7.0955 C   0  0  0  0  0  0
  -11.7611   -8.4638   -5.9999 C   0  0  0  0  0  0
   -9.3945  -12.4630   -8.0312 C   0  0  0  0  0  0
   -8.9495  -11.2120   -7.6210 C   0  0  0  0  0  0
   -7.1999  -16.8538  -13.0301 H   0  0  0  0  0  0
   -6.6159  -19.0428  -14.6338 H   0  0  0  0  0  0
   -5.4237  -14.1005   -7.7048 H   0  0  0  0  0  0
   -7.1652  -18.2420   -9.0613 H   0  0  0  0  0  0
   -9.7158  -17.4279  -12.4205 H   0  0  0  0  0  0
   -2.2196  -12.7936  -11.2490 H   0  0  0  0  0  0
   -5.3427  -20.5268  -12.3735 H   0  0  0  0  0  0
   -6.5835  -21.1456  -13.4547 H   0  0  0  0  0  0
   -4.5065  -18.1825  -12.8137 H   0  0  0  0  0  0
   -5.2140  -17.2728  -14.1440 H   0  0  0  0  0  0
   -3.0346  -15.1195  -11.1292 H   0  0  0  0  0  0
   -8.8775  -17.3166   -7.5426 H   0  0  0  0  0  0
  -11.4234  -16.5325  -10.9210 H   0  0  0  0  0  0
   -5.3383  -15.5600  -12.1014 H   0  0  0  0  0  0
   -6.6508  -15.7584  -10.9716 H   0  0  0  0  0  0
  -13.2518  -16.6895   -6.5949 H   0  0  0  0  0  0
  -14.4702  -16.0021   -7.6208 H   0  0  0  0  0  0
  -13.5575  -11.9841   -6.3877 H   0  0  0  0  0  0
  -13.6852  -11.5366   -8.0765 H   0  0  0  0  0  0
   -3.8981  -11.1785   -6.8762 H   0  0  0  0  0  0
   -5.0707  -10.5678   -8.0351 H   0  0  0  0  0  0
   -5.5455  -11.8401   -6.9073 H   0  0  0  0  0  0
  -11.0781  -13.7147   -8.4019 H   0  0  0  0  0  0
   -5.7603  -16.2370   -8.7784 H   0  0  0  0  0  0
   -4.1018  -16.7733   -8.6930 H   0  0  0  0  0  0
  -12.8978  -17.2041   -9.0002 H   0  0  0  0  0  0
  -12.6685  -15.4894   -9.3432 H   0  0  0  0  0  0
  -12.1442  -14.4530   -6.4024 H   0  0  0  0  0  0
  -13.8237  -14.3684   -5.9083 H   0  0  0  0  0  0
   -9.4702   -9.3420   -6.7571 H   0  0  0  0  0  0
  -12.6361   -7.9291   -5.6328 H   0  0  0  0  0  0
  -11.0359   -8.5093   -5.1871 H   0  0  0  0  0  0
  -11.3425   -7.8804   -6.8210 H   0  0  0  0  0  0
   -8.6936  -13.1805   -8.4318 H   0  0  0  0  0  0
   -7.9002  -10.9620   -7.6864 H   0  0  0  0  0  0
  1  2  1  0  0  0
  1  3  1  0  0  0
  1  4  1  0  0  0
  2  9  2  0  0  0
  2 15  1  0  0  0
  3 12  1  0  0  0
  3 13  2  0  0  0
  4 18  1  0  0  0
  4 25  1  0  0  0
  4 39  1  0  0  0
  5 18  1  0  0  0
  5 15  1  0  0  0
  5 40  1  0  0  0
  6 10  1  0  0  0
  6 30  1  0  0  0
  6  8  2  0  0  0
  7 28  1  0  0  0
  7 11  2  0  0  0
  7 31  1  0  0  0
  8 14  1  0  0  0
  8 17  1  0  0  0
 10 16  2  0  0  0
 10 41  1  0  0  0
 11 24  1  0  0  0
 11 35  1  0  0  0
 12 22  2  0  0  0
 12 42  1  0  0  0
 13 23  1  0  0  0
 13 43  1  0  0  0
 14 21  2  0  0  0
 14 44  1  0  0  0
 15 45  1  0  0  0
 15 46  1  0  0  0
 16 32  1  0  0  0
 16 21  1  0  0  0
 18 47  1  0  0  0
 18 48  1  0  0  0
 19 23  2  0  0  0
 19 27  1  0  0  0
 19 22  1  0  0  0
 20 25  1  0  0  0
 20 32  1  0  0  0
 21 49  1  0  0  0
 22 50  1  0  0  0
 23 51  1  0  0  0
 24 36  1  0  0  0
 25 52  1  0  0  0
 25 53  1  0  0  0
 26 33  1  0  0  0
 26 34  1  0  0  0
 26 54  1  0  0  0
 26 55  1  0  0  0
 27 33  1  0  0  0
 28 29  1  0  0  0
 28 56  1  0  0  0
 28 57  1  0  0  0
 29 34  1  0  0  0
 30 58  1  0  0  0
 30 59  1  0  0  0
 30 60  1  0  0  0
 31 37  2  0  0  0
 31 61  1  0  0  0
 32 62  1  0  0  0
 32 63  1  0  0  0
 33 64  1  0  0  0
 33 65  1  0  0  0
 34 66  1  0  0  0
 34 67  1  0  0  0
 35 38  2  0  0  0
 35 68  1  0  0  0
 36 69  1  0  0  0
 36 70  1  0  0  0
 36 71  1  0  0  0
 37 38  1  0  0  0
 37 72  1  0  0  0
 38 73  1  0  0  0
M  END
> <s_m_entry_id>
26245

> <s_m_entry_name>
dock_pv.69

> <s_m_Source_Path>
/home/csk/Desktop/cluster/DUD-E-result/reni

> <s_m_Source_File>
dock_pv.maegz

> <i_m_Source_File_Index>
69

> <chembl_id>
CHEMBL196119

> <chembl_pref_name>
None

> <i_lp_mmshare_version>
53161

> <r_lp_tautomer_probability>
1

> <s_lp_Force_Field>
OPLS_2005

> <r_lp_Energy>
56.967246

> <b_lp_Chiralities_Consistent>
1

> <s_lp_Variant>
CHEMBL286_lig1561-1

> <s_i_glide_gridfile>
glide-grid_3g6z

> <i_i_glide_lignum>
5265

> <i_i_glide_rotatable_bonds>
13

> <r_i_docking_score>
-8.10498451058271

> <r_i_glide_ligand_efficiency>
-0.213289066067966

> <r_i_glide_ligand_efficiency_sa>
-0.71707259379015

> <r_i_glide_ligand_efficiency_ln>
-1.7476730849699

> <r_i_glide_gscore>
-8.10498451058271

> <r_i_glide_lipo>
-4.26448797185903

> <r_i_glide_hbond>
-0.396867253104375

> <r_i_glide_metal>
0

> <r_i_glide_rewards>
-0.473905886664414

> <r_i_glide_evdw>
-47.919002532959

> <r_i_glide_ecoul>
-9.36493110656738

> <r_i_glide_erotb>
0.903560077780827

> <r_i_glide_esite>
-0.0725936841026551

> <r_i_glide_emodel>
-82.6669302367113

> <r_i_glide_energy>
-57.2839336395264

> <r_i_glide_einternal>
7.28375291824341

> <i_i_glide_confnum>
118

> <i_i_glide_posenum>
24

> <r_i_glide_eff_state_penalty>
0

> <s_user_duplicate_titles>
CHEMBL286_lig1561,326747

> <i_f3d_flags>
0

> <s_m_subgroup_title>
dock_pv

> <s_m_subgroupid>
dock_pv

> <b_m_subgroup_collapsed>
1

$$$$
CHEMBL286_lig1577
                    3D
 Schrodinger Suite 2021-1.
 69 72  0  0  1  0            999 V2000
   -7.3734  -18.2159  -11.6357 N   0  0  0  0  0  0
   -6.2637  -17.4685  -11.9432 C   0  0  0  0  0  0
   -8.3656  -17.7008  -10.7667 C   0  0  0  0  0  0
   -7.6717  -19.5498  -12.2387 C   0  0  1  0  0  0
   -5.8670  -18.9852  -13.8912 N   0  0  1  0  0  0
  -11.7972  -11.8563   -7.4276 C   0  0  0  0  0  0
   -6.0504  -16.3459  -11.4779 O   0  0  0  0  0  0
  -12.8623  -20.8142  -11.2210 N   0  0  0  0  0  0
  -11.3399  -10.6079   -6.9717 C   0  0  0  0  0  0
   -8.0697  -17.4661   -9.4186 C   0  0  0  0  0  0
   -9.6671  -17.4900  -11.2360 C   0  0  0  0  0  0
  -10.9668  -22.2977  -11.5256 C   0  0  0  0  0  0
   -5.2281  -18.1234  -12.8957 C   0  0  0  0  0  0
   -6.6205  -20.0527  -13.2623 C   0  0  0  0  0  0
   -8.6878  -21.7156  -12.0117 O   0  0  0  0  0  0
  -10.3709  -16.8258   -9.0115 C   0  0  0  0  0  0
   -9.0698  -17.0318   -8.5531 C   0  0  0  0  0  0
  -10.6634  -17.0554  -10.3647 C   0  0  0  0  0  0
  -12.2693   -9.7488   -6.4209 O   0  0  0  0  0  0
  -11.5581  -21.1338  -11.0185 C   0  0  0  0  0  0
   -8.0681  -20.6762  -11.2622 C   0  0  0  0  0  0
  -13.5144  -15.9311   -7.2210 C   0  0  0  0  0  0
  -11.2954  -16.4024   -8.0739 O   0  0  0  0  0  0
  -13.2834  -12.2045   -7.3198 C   0  0  0  0  0  0
   -9.5013  -22.6106  -11.2641 C   0  0  0  0  0  0
  -13.5620  -13.5625   -7.6621 O   0  0  0  0  0  0
  -10.8888  -12.7659   -7.9827 C   0  0  0  0  0  0
  -13.6161  -21.6749  -11.9467 C   0  0  0  0  0  0
  -12.6677  -16.3007   -8.4463 C   0  0  0  0  0  0
  -13.2428  -14.5242   -6.6614 C   0  0  0  0  0  0
   -9.9758  -10.2923   -7.0902 C   0  0  0  0  0  0
  -11.7646  -23.1615  -12.2858 C   0  0  0  0  0  0
  -11.8604   -8.4532   -5.9963 C   0  0  0  0  0  0
  -13.1091  -22.8519  -12.4994 C   0  0  0  0  0  0
   -9.5346  -12.4630   -8.0330 C   0  0  0  0  0  0
   -9.0812  -11.2149   -7.6210 C   0  0  0  0  0  0
   -8.5638  -19.3331  -12.8220 H   0  0  0  0  0  0
   -6.4242  -18.4640  -14.5810 H   0  0  0  0  0  0
   -7.0712  -17.6312   -9.0407 H   0  0  0  0  0  0
   -9.9095  -17.6635  -12.2756 H   0  0  0  0  0  0
   -4.6663  -17.3351  -13.4009 H   0  0  0  0  0  0
   -4.5185  -18.6897  -12.2900 H   0  0  0  0  0  0
   -7.1176  -20.6532  -14.0217 H   0  0  0  0  0  0
   -5.9087  -20.7094  -12.7601 H   0  0  0  0  0  0
   -8.8347  -16.8627   -7.5132 H   0  0  0  0  0  0
  -11.6552  -16.9010  -10.7607 H   0  0  0  0  0  0
  -10.9916  -20.4285  -10.4288 H   0  0  0  0  0  0
   -7.2000  -21.0599  -10.7259 H   0  0  0  0  0  0
   -8.7566  -20.2913  -10.5111 H   0  0  0  0  0  0
  -13.3444  -16.6872   -6.4552 H   0  0  0  0  0  0
  -14.5707  -16.0014   -7.4779 H   0  0  0  0  0  0
  -13.6667  -11.9765   -6.3228 H   0  0  0  0  0  0
  -13.8228  -11.5614   -8.0168 H   0  0  0  0  0  0
   -9.2770  -23.6270  -11.5926 H   0  0  0  0  0  0
   -9.2960  -22.5839  -10.1908 H   0  0  0  0  0  0
  -11.2161  -13.7238   -8.3573 H   0  0  0  0  0  0
  -14.6573  -21.4117  -12.0623 H   0  0  0  0  0  0
  -13.0132  -17.2634   -8.8224 H   0  0  0  0  0  0
  -12.8011  -15.5618   -9.2379 H   0  0  0  0  0  0
  -12.2057  -14.4479   -6.3310 H   0  0  0  0  0  0
  -13.8687  -14.3485   -5.7861 H   0  0  0  0  0  0
   -9.5850   -9.3404   -6.7631 H   0  0  0  0  0  0
  -11.3507  -24.0662  -12.7093 H   0  0  0  0  0  0
  -12.7215   -7.9057   -5.6150 H   0  0  0  0  0  0
  -11.1266   -8.5088   -5.1909 H   0  0  0  0  0  0
  -11.4427   -7.8721   -6.8204 H   0  0  0  0  0  0
  -13.7446  -23.5141  -13.0714 H   0  0  0  0  0  0
   -8.8395  -13.1836   -8.4385 H   0  0  0  0  0  0
   -8.0316  -10.9695   -7.6936 H   0  0  0  0  0  0
  1  2  1  0  0  0
  1  3  1  0  0  0
  1  4  1  0  0  0
  2  7  2  0  0  0
  2 13  1  0  0  0
  3 10  1  0  0  0
  3 11  2  0  0  0
  4 14  1  0  0  0
  4 21  1  0  0  0
  4 37  1  0  0  0
  5 14  1  0  0  0
  5 13  1  0  0  0
  5 38  1  0  0  0
  6 24  1  0  0  0
  6  9  2  0  0  0
  6 27  1  0  0  0
  8 20  1  0  0  0
  8 28  2  0  0  0
  9 19  1  0  0  0
  9 31  1  0  0  0
 10 17  2  0  0  0
 10 39  1  0  0  0
 11 18  1  0  0  0
 11 40  1  0  0  0
 12 25  1  0  0  0
 12 20  2  0  0  0
 12 32  1  0  0  0
 13 41  1  0  0  0
 13 42  1  0  0  0
 14 43  1  0  0  0
 14 44  1  0  0  0
 15 21  1  0  0  0
 15 25  1  0  0  0
 16 18  2  0  0  0
 16 23  1  0  0  0
 16 17  1  0  0  0
 17 45  1  0  0  0
 18 46  1  0  0  0
 19 33  1  0  0  0
 20 47  1  0  0  0
 21 48  1  0  0  0
 21 49  1  0  0  0
 22 29  1  0  0  0
 22 30  1  0  0  0
 22 50  1  0  0  0
 22 51  1  0  0  0
 23 29  1  0  0  0
 24 26  1  0  0  0
 24 52  1  0  0  0
 24 53  1  0  0  0
 25 54  1  0  0  0
 25 55  1  0  0  0
 26 30  1  0  0  0
 27 35  2  0  0  0
 27 56  1  0  0  0
 28 34  1  0  0  0
 28 57  1  0  0  0
 29 58  1  0  0  0
 29 59  1  0  0  0
 30 60  1  0  0  0
 30 61  1  0  0  0
 31 36  2  0  0  0
 31 62  1  0  0  0
 32 34  2  0  0  0
 32 63  1  0  0  0
 33 64  1  0  0  0
 33 65  1  0  0  0
 33 66  1  0  0  0
 34 67  1  0  0  0
 35 36  1  0  0  0
 35 68  1  0  0  0
 36 69  1  0  0  0
M  END
> <s_m_entry_id>
26246

> <s_m_entry_name>
dock_pv.70

> <s_m_Source_Path>
/home/csk/Desktop/cluster/DUD-E-result/reni

> <s_m_Source_File>
dock_pv.maegz

> <i_m_Source_File_Index>
70

> <chembl_id>
CHEMBL196654

> <chembl_pref_name>
None

> <i_lp_mmshare_version>
53161

> <r_lp_tautomer_probability>
1

> <s_lp_Force_Field>
OPLS_2005

> <r_lp_Energy>
54.283185

> <b_lp_Chiralities_Consistent>
1

> <s_lp_Variant>
CHEMBL286_lig1577-1

> <s_i_glide_gridfile>
glide-grid_3g6z

> <i_i_glide_lignum>
5281

> <i_i_glide_rotatable_bonds>
13

> <r_i_docking_score>
-8.09850127287605

> <r_i_glide_ligand_efficiency>
-0.224958368691001

> <r_i_glide_ligand_efficiency_sa>
-0.742796166560426

> <r_i_glide_ligand_efficiency_ln>
-1.76687418152218

> <r_i_glide_gscore>
-8.09850127287605

> <r_i_glide_lipo>
-4.46571669187994

> <r_i_glide_hbond>
-0.429348624745749

> <r_i_glide_metal>
0

> <r_i_glide_rewards>
-0.198851686670997

> <r_i_glide_evdw>
-49.2878456115723

> <r_i_glide_ecoul>
-9.33782768249512

> <r_i_glide_erotb>
0.926729849720865

> <r_i_glide_esite>
-0.0662476863473492

> <r_i_glide_emodel>
-85.3236901811686

> <r_i_glide_energy>
-58.6256732940674

> <r_i_glide_einternal>
5.20628976821899

> <i_i_glide_confnum>
27

> <i_i_glide_posenum>
177

> <r_i_glide_eff_state_penalty>
0

> <s_user_duplicate_titles>
CHEMBL286_lig1577

> <i_f3d_flags>
0

> <s_m_subgroup_title>
dock_pv

> <s_m_subgroupid>
dock_pv

> <b_m_subgroup_collapsed>
1

$$$$
CHEMBL286_lig1367
                    3D
 Schrodinger Suite 2021-1.
107109  0  0  1  0            999 V2000
   -7.8136  -21.8746   -9.5035 S   0  0  0  0  0  0
  -10.4045  -16.8013   -8.9421 S   0  0  0  0  0  0
   -5.0839  -21.4928   -8.5815 C   0  0  1  0  0  0
   -3.8270  -20.5801   -8.6235 C   0  0  0  0  0  0
   -8.9279  -15.7681   -9.5296 C   0  0  0  0  0  0
   -3.1301  -17.5331   -9.3048 C   0  0  0  0  0  0
   -4.3197  -17.0354   -9.7091 N   0  0  0  0  0  0
   -4.9231  -15.7784   -9.2285 C   0  0  2  0  0  0
   -3.5919  -19.9158   -9.7656 N   0  0  0  0  0  0
   -6.0780  -21.1780   -9.7441 C   0  0  0  0  0  0
   -7.5431  -16.3890   -9.1983 C   0  0  1  0  0  0
   -2.6483  -18.8295   -9.9820 C   0  0  1  0  0  0
   -6.3735  -15.5390   -9.7835 C   0  0  2  0  0  0
   -5.4695  -19.4678  -13.5430 N   0  0  0  0  0  0
   -8.7700  -21.2902  -11.0614 C   0  0  0  0  0  0
   -3.6689  -18.7533  -12.3565 C   0  0  0  0  0  0
   -2.4224  -18.6437  -11.5048 C   0  0  0  0  0  0
   -4.3770  -17.6630  -12.8319 N   0  0  0  0  0  0
   -5.4211  -18.1402  -13.5186 C   0  0  0  0  0  0
   -7.7368  -23.3396   -9.5309 O   0  0  0  0  0  0
   -8.3838  -21.1991   -8.3326 O   0  0  0  0  0  0
  -10.7369  -17.7470  -10.0128 O   0  0  0  0  0  0
  -10.1708  -17.2630   -7.5706 O   0  0  0  0  0  0
   -4.3480  -19.8616  -12.8156 C   0  0  0  0  0  0
   -4.8145  -23.0285   -8.4423 C   0  0  0  0  0  0
  -11.7275  -15.6405   -8.8900 N   0  0  3  0  0  0
   -4.0011  -14.5503   -9.5142 C   0  0  0  0  0  0
   -3.1215  -20.4387   -7.6257 O   0  0  0  0  0  0
   -2.4212  -17.0221   -8.4404 O   0  0  0  0  0  0
   -7.4198  -16.4636   -7.7963 O   0  0  0  0  0  0
   -6.4044  -15.6086  -11.2044 O   0  0  0  0  0  0
   -3.4966  -23.4703   -7.8027 C   0  0  0  0  0  0
   -4.3795  -13.2016   -8.8420 C   0  0  0  0  0  0
   -8.5836  -19.7692  -11.2453 C   0  0  0  0  0  0
  -10.2606  -21.6223  -10.8460 C   0  0  0  0  0  0
   -8.2253  -22.0324  -12.2970 C   0  0  0  0  0  0
  -12.0299  -14.8606   -7.6662 C   0  0  0  0  0  0
   -2.5065  -24.0612   -8.5946 C   0  0  0  0  0  0
   -3.2769  -23.2789   -6.4348 C   0  0  0  0  0  0
   -4.5790  -13.3080   -7.3118 C   0  0  0  0  0  0
   -3.2932  -12.1367   -9.1252 C   0  0  0  0  0  0
  -11.6759  -13.3701   -7.8212 C   0  0  0  0  0  0
  -12.6496  -12.5748   -8.7174 C   0  0  0  0  0  0
  -13.9682  -12.2033   -8.0200 C   0  0  0  0  0  0
   -2.0606  -23.6571   -5.8692 C   0  0  0  0  0  0
   -1.2988  -24.4512   -8.0204 C   0  0  0  0  0  0
   -3.6597  -10.7594   -8.5295 C   0  0  0  0  0  0
   -4.9914  -11.9565   -6.6992 C   0  0  0  0  0  0
   -1.0775  -24.2461   -6.6596 C   0  0  0  0  0  0
   -3.9650  -10.8517   -7.0194 C   0  0  0  0  0  0
   -5.5908  -21.1778   -7.6658 H   0  0  0  0  0  0
   -9.0335  -14.7797   -9.0852 H   0  0  0  0  0  0
   -9.0663  -15.6627  -10.6040 H   0  0  0  0  0  0
   -4.8182  -17.5403  -10.4231 H   0  0  0  0  0  0
   -4.9819  -15.9045   -8.1479 H   0  0  0  0  0  0
   -4.2082  -20.0881  -10.5451 H   0  0  0  0  0  0
   -6.2299  -20.1017   -9.8303 H   0  0  0  0  0  0
   -5.7099  -21.5377  -10.7033 H   0  0  0  0  0  0
   -7.4840  -17.4030   -9.5946 H   0  0  0  0  0  0
   -1.6921  -19.0941   -9.5209 H   0  0  0  0  0  0
   -6.6388  -14.5072   -9.5588 H   0  0  0  0  0  0
   -4.1297  -16.6836  -12.7353 H   0  0  0  0  0  0
   -1.9371  -17.6841  -11.7014 H   0  0  0  0  0  0
   -1.7196  -19.4024  -11.8523 H   0  0  0  0  0  0
   -6.1474  -17.5182  -14.0202 H   0  0  0  0  0  0
   -4.1210  -20.9103  -12.6707 H   0  0  0  0  0  0
   -4.8845  -23.4992   -9.4246 H   0  0  0  0  0  0
   -5.6195  -23.4838   -7.8634 H   0  0  0  0  0  0
  -12.4286  -15.6776   -9.6324 H   0  0  0  0  0  0
   -2.9793  -14.7738   -9.2113 H   0  0  0  0  0  0
   -3.9444  -14.4037  -10.5935 H   0  0  0  0  0  0
   -7.5774  -15.5989   -7.4118 H   0  0  0  0  0  0
   -6.4310  -16.5298  -11.4748 H   0  0  0  0  0  0
   -5.3085  -12.8351   -9.2741 H   0  0  0  0  0  0
   -7.5704  -19.5140  -11.5522 H   0  0  0  0  0  0
   -9.2494  -19.3608  -12.0100 H   0  0  0  0  0  0
   -8.7813  -19.2392  -10.3187 H   0  0  0  0  0  0
  -10.4025  -22.6755  -10.6056 H   0  0  0  0  0  0
  -10.6833  -21.0467  -10.0204 H   0  0  0  0  0  0
  -10.8563  -21.4064  -11.7355 H   0  0  0  0  0  0
   -8.3600  -23.1118  -12.2127 H   0  0  0  0  0  0
   -8.7273  -21.6972  -13.2004 H   0  0  0  0  0  0
   -7.1616  -21.8555  -12.4429 H   0  0  0  0  0  0
  -13.0804  -14.9992   -7.4067 H   0  0  0  0  0  0
  -11.4687  -15.2910   -6.8379 H   0  0  0  0  0  0
   -2.6650  -24.2141   -9.6538 H   0  0  0  0  0  0
   -4.0328  -22.8130   -5.8170 H   0  0  0  0  0  0
   -5.3392  -14.0479   -7.0662 H   0  0  0  0  0  0
   -3.6665  -13.6805   -6.8444 H   0  0  0  0  0  0
   -2.3343  -12.4688   -8.7323 H   0  0  0  0  0  0
   -3.1358  -12.0424  -10.2013 H   0  0  0  0  0  0
  -11.6474  -12.9078   -6.8318 H   0  0  0  0  0  0
  -10.6595  -13.2763   -8.2052 H   0  0  0  0  0  0
  -12.1606  -11.6591   -9.0482 H   0  0  0  0  0  0
  -12.8663  -13.1413   -9.6228 H   0  0  0  0  0  0
  -14.6578  -11.7101   -8.7097 H   0  0  0  0  0  0
  -14.4727  -13.0830   -7.6210 H   0  0  0  0  0  0
  -13.7945  -11.5185   -7.1878 H   0  0  0  0  0  0
   -1.8695  -23.4855   -4.8205 H   0  0  0  0  0  0
   -0.5282  -24.9058   -8.6219 H   0  0  0  0  0  0
   -4.5241  -10.3498   -9.0514 H   0  0  0  0  0  0
   -2.8401  -10.0631   -8.6974 H   0  0  0  0  0  0
   -5.9732  -11.6644   -7.0715 H   0  0  0  0  0  0
   -5.0922  -12.0617   -5.6218 H   0  0  0  0  0  0
   -0.1387  -24.5437   -6.2206 H   0  0  0  0  0  0
   -4.3237   -9.8892   -6.6524 H   0  0  0  0  0  0
   -3.0407  -11.0519   -6.4759 H   0  0  0  0  0  0
  1 10  1  0  0  0
  1 15  1  0  0  0
  1 20  2  0  0  0
  1 21  2  0  0  0
  2  5  1  0  0  0
  2 22  2  0  0  0
  2 23  2  0  0  0
  2 26  1  0  0  0
  3 10  1  0  0  0
  3  4  1  0  0  0
  3 25  1  0  0  0
  3 51  1  0  0  0
  4  9  1  0  0  0
  4 28  2  0  0  0
  5 11  1  0  0  0
  5 52  1  0  0  0
  5 53  1  0  0  0
  6 12  1  0  0  0
  6  7  1  0  0  0
  6 29  2  0  0  0
  7  8  1  0  0  0
  7 54  1  0  0  0
  8 13  1  0  0  0
  8 27  1  0  0  0
  8 55  1  0  0  0
  9 12  1  0  0  0
  9 56  1  0  0  0
 10 57  1  0  0  0
 10 58  1  0  0  0
 11 13  1  0  0  0
 11 30  1  0  0  0
 11 59  1  0  0  0
 12 17  1  0  0  0
 12 60  1  0  0  0
 13 31  1  0  0  0
 13 61  1  0  0  0
 14 19  2  0  0  0
 14 24  1  0  0  0
 15 34  1  0  0  0
 15 35  1  0  0  0
 15 36  1  0  0  0
 16 24  2  0  0  0
 16 17  1  0  0  0
 16 18  1  0  0  0
 17 63  1  0  0  0
 17 64  1  0  0  0
 18 62  1  0  0  0
 18 19  1  0  0  0
 19 65  1  0  0  0
 24 66  1  0  0  0
 25 32  1  0  0  0
 25 67  1  0  0  0
 25 68  1  0  0  0
 26 37  1  0  0  0
 26 69  1  0  0  0
 27 33  1  0  0  0
 27 70  1  0  0  0
 27 71  1  0  0  0
 30 72  1  0  0  0
 31 73  1  0  0  0
 32 38  1  0  0  0
 32 39  2  0  0  0
 33 40  1  0  0  0
 33 41  1  0  0  0
 33 74  1  0  0  0
 34 75  1  0  0  0
 34 76  1  0  0  0
 34 77  1  0  0  0
 35 78  1  0  0  0
 35 79  1  0  0  0
 35 80  1  0  0  0
 36 81  1  0  0  0
 36 82  1  0  0  0
 36 83  1  0  0  0
 37 42  1  0  0  0
 37 84  1  0  0  0
 37 85  1  0  0  0
 38 46  2  0  0  0
 38 86  1  0  0  0
 39 45  1  0  0  0
 39 87  1  0  0  0
 40 48  1  0  0  0
 40 88  1  0  0  0
 40 89  1  0  0  0
 41 47  1  0  0  0
 41 90  1  0  0  0
 41 91  1  0  0  0
 42 43  1  0  0  0
 42 92  1  0  0  0
 42 93  1  0  0  0
 43 44  1  0  0  0
 43 94  1  0  0  0
 43 95  1  0  0  0
 44 96  1  0  0  0
 44 97  1  0  0  0
 44 98  1  0  0  0
 45 49  2  0  0  0
 45 99  1  0  0  0
 46 49  1  0  0  0
 46100  1  0  0  0
 47 50  1  0  0  0
 47101  1  0  0  0
 47102  1  0  0  0
 48 50  1  0  0  0
 48103  1  0  0  0
 48104  1  0  0  0
 49105  1  0  0  0
 50106  1  0  0  0
 50107  1  0  0  0
M  END
> <s_m_entry_id>
26248

> <s_m_entry_name>
dock_pv.72

> <s_m_Source_Path>
/home/csk/Desktop/cluster/DUD-E-result/reni

> <s_m_Source_File>
dock_pv.maegz

> <i_m_Source_File_Index>
72

> <chembl_id>
CHEMBL328736

> <chembl_pref_name>
None

> <i_lp_mmshare_version>
53161

> <r_lp_tautomer_probability>
0.499999999999999

> <s_lp_Force_Field>
OPLS_2005

> <r_lp_Energy>
17.911039

> <b_lp_Chiralities_Consistent>
1

> <s_lp_Variant>
CHEMBL286_lig1367-2

> <s_i_glide_gridfile>
glide-grid_3g6z

> <i_i_glide_lignum>
4413

> <i_i_glide_rotatable_bonds>
25

> <r_i_docking_score>
-8.08750278125402

> <r_i_glide_ligand_efficiency>
-0.16175005562508

> <r_i_glide_ligand_efficiency_sa>
-0.595892299052583

> <r_i_glide_ligand_efficiency_ln>
-1.64647086797369

> <r_i_glide_gscore>
-8.08750278125402

> <r_i_glide_lipo>
-4.09729031046126

> <r_i_glide_hbond>
-0.365975644790968

> <r_i_glide_metal>
0

> <r_i_glide_rewards>
-0.53650135055179

> <r_i_glide_evdw>
-58.6729431152344

> <r_i_glide_ecoul>
-4.07634782791138

> <r_i_glide_erotb>
0.520296064013178

> <r_i_glide_esite>
-0.0629322095147493

> <r_i_glide_emodel>
-86.0913379873197

> <r_i_glide_energy>
-62.7492909431458

> <r_i_glide_einternal>
16.7392177581787

> <i_i_glide_confnum>
1

> <i_i_glide_posenum>
93

> <r_i_glide_eff_state_penalty>
0

> <s_user_duplicate_titles>
CHEMBL286_lig1367

> <i_f3d_flags>
0

> <s_m_subgroup_title>
dock_pv

> <s_m_subgroupid>
dock_pv

> <b_m_subgroup_collapsed>
1

$$$$
CHEMBL286_lig2608
                    3D
 Schrodinger Suite 2021-1.
 95 96  0  0  1  0            999 V2000
   -4.1424  -13.8434   -9.6700 C   0  0  0  0  0  0
   -5.0628  -13.6998   -8.6131 C   0  0  0  0  0  0
   -5.3858  -14.8036   -7.8121 C   0  0  0  0  0  0
   -4.7769  -16.0263   -8.0268 C   0  0  0  0  0  0
   -3.8149  -16.1689   -9.0270 C   0  0  0  0  0  0
   -3.5101  -15.0859   -9.8526 C   0  0  0  0  0  0
   -3.9043  -12.7534  -10.4924 O   0  0  0  0  0  0
   -3.4305  -13.0124  -11.8218 C   0  0  0  0  0  0
   -3.4793  -11.7472  -12.7031 C   0  0  0  0  0  0
   -3.7222  -12.0633  -14.1953 C   0  0  0  0  0  0
   -4.2695  -10.9693  -14.9283 O   0  0  0  0  0  0
   -4.0384  -11.1009  -16.3256 C   0  0  0  0  0  0
   -5.6281  -12.4614   -8.4191 O   0  0  0  0  0  0
   -6.6235  -12.2854   -7.4135 C   0  0  0  0  0  0
   -3.0802  -17.4944   -9.1891 C   0  0  0  0  0  0
   -3.9627  -18.6575   -9.7054 C   0  0  1  0  0  0
   -4.1790  -18.5119  -11.2407 C   0  0  0  0  0  0
   -3.4058  -20.0394   -9.2199 C   0  0  0  0  0  0
   -2.2736  -20.6187  -10.0975 C   0  0  0  0  0  0
   -4.4912  -21.0994   -8.9328 C   0  0  0  0  0  0
   -5.2805  -19.4182  -11.8275 C   0  0  1  0  0  0
   -6.7281  -18.9103  -11.5756 C   0  0  2  0  0  0
   -5.0696  -19.6314  -13.2440 N   0  0  0  0  0  0
   -7.7676  -20.0467  -11.7109 C   0  0  0  0  0  0
   -7.0681  -17.7852  -12.3872 O   0  0  0  0  0  0
   -9.2532  -19.7218  -11.3813 C   0  0  2  0  0  0
   -9.4194  -18.8073  -10.1473 C   0  0  0  0  0  0
  -10.1496  -21.0124  -11.3476 C   0  0  0  0  0  0
  -11.6396  -20.7268  -11.0748 C   0  0  0  0  0  0
   -9.6450  -22.1307  -10.4101 C   0  0  0  0  0  0
   -9.0686  -19.1984   -9.0343 O   0  0  0  0  0  0
   -9.9439  -17.5893  -10.3736 N   0  0  0  0  0  0
  -10.2277  -16.5921   -9.3492 C   0  0  0  0  0  0
  -11.7070  -16.6182   -8.9276 C   0  0  0  0  0  0
  -12.0080  -15.8674   -7.6164 C   0  0  0  0  0  0
  -12.1685  -14.3566   -7.7552 C   0  0  0  0  0  0
  -13.4283  -13.7890   -7.5459 C   0  0  0  0  0  0
  -13.5911  -12.4073   -7.5708 C   0  0  0  0  0  0
  -12.4883  -11.5936   -7.7961 C   0  0  0  0  0  0
  -11.2307  -12.1455   -8.0242 C   0  0  0  0  0  0
  -11.0733  -13.5299   -8.0168 C   0  0  0  0  0  0
   -6.0992  -14.7407   -7.0079 H   0  0  0  0  0  0
   -5.0681  -16.8603   -7.4117 H   0  0  0  0  0  0
   -2.7745  -15.2254  -10.6294 H   0  0  0  0  0  0
   -2.4036  -13.3895  -11.7995 H   0  0  0  0  0  0
   -4.0569  -13.7998  -12.2484 H   0  0  0  0  0  0
   -4.2603  -11.0767  -12.3528 H   0  0  0  0  0  0
   -2.5010  -11.2546  -12.5986 H   0  0  0  0  0  0
   -2.7964  -12.4420  -14.6285 H   0  0  0  0  0  0
   -4.4557  -12.8615  -14.2887 H   0  0  0  0  0  0
   -4.6715  -10.4122  -16.8774 H   0  0  0  0  0  0
   -2.9986  -10.8806  -16.5718 H   0  0  0  0  0  0
   -4.2653  -12.0974  -16.6984 H   0  0  0  0  0  0
   -6.9965  -11.2634   -7.4352 H   0  0  0  0  0  0
   -7.4760  -12.9462   -7.5668 H   0  0  0  0  0  0
   -6.2192  -12.4626   -6.4166 H   0  0  0  0  0  0
   -2.6806  -17.7224   -8.2051 H   0  0  0  0  0  0
   -2.1990  -17.3637   -9.8209 H   0  0  0  0  0  0
   -4.9302  -18.5343   -9.2198 H   0  0  0  0  0  0
   -3.2306  -18.6915  -11.7476 H   0  0  0  0  0  0
   -4.4165  -17.4805  -11.4893 H   0  0  0  0  0  0
   -2.9517  -19.8675   -8.2393 H   0  0  0  0  0  0
   -2.6316  -20.8928  -11.0915 H   0  0  0  0  0  0
   -1.4677  -19.8991  -10.2271 H   0  0  0  0  0  0
   -1.8686  -21.5228   -9.6480 H   0  0  0  0  0  0
   -4.7812  -21.6693   -9.8167 H   0  0  0  0  0  0
   -4.1252  -21.8310   -8.2175 H   0  0  0  0  0  0
   -5.3949  -20.6634   -8.5075 H   0  0  0  0  0  0
   -5.1788  -20.4055  -11.3872 H   0  0  0  0  0  0
   -6.7579  -18.5592  -10.5438 H   0  0  0  0  0  0
   -5.8417  -20.2059  -13.5533 H   0  0  0  0  0  0
   -5.2321  -18.7202  -13.6623 H   0  0  0  0  0  0
   -7.4232  -20.8326  -11.0418 H   0  0  0  0  0  0
   -7.7207  -20.4735  -12.7137 H   0  0  0  0  0  0
   -7.5145  -18.0624  -13.2062 H   0  0  0  0  0  0
   -9.5932  -19.1244  -12.2250 H   0  0  0  0  0  0
  -10.1161  -21.4509  -12.3443 H   0  0  0  0  0  0
  -11.7936  -20.5094  -10.0222 H   0  0  0  0  0  0
  -12.0022  -19.8634  -11.6290 H   0  0  0  0  0  0
  -12.2614  -21.5867  -11.3314 H   0  0  0  0  0  0
   -9.4596  -21.7521   -9.4055 H   0  0  0  0  0  0
  -10.3692  -22.9391  -10.3309 H   0  0  0  0  0  0
   -8.7266  -22.5857  -10.7723 H   0  0  0  0  0  0
  -10.1109  -17.3104  -11.3290 H   0  0  0  0  0  0
   -9.9462  -15.6057   -9.7129 H   0  0  0  0  0  0
   -9.5879  -16.7476   -8.4753 H   0  0  0  0  0  0
  -12.0112  -17.6606   -8.8147 H   0  0  0  0  0  0
  -12.3311  -16.2285   -9.7320 H   0  0  0  0  0  0
  -11.2438  -16.0810   -6.8636 H   0  0  0  0  0  0
  -12.9245  -16.2813   -7.1909 H   0  0  0  0  0  0
  -14.2672  -14.4299   -7.3380 H   0  0  0  0  0  0
  -14.5601  -11.9661   -7.3920 H   0  0  0  0  0  0
  -12.6044  -10.5202   -7.7936 H   0  0  0  0  0  0
  -10.3799  -11.5043   -8.1879 H   0  0  0  0  0  0
  -10.0851  -13.9372   -8.1764 H   0  0  0  0  0  0
  1  2  2  0  0  0
  1  6  1  0  0  0
  1  7  1  0  0  0
  2  3  1  0  0  0
  2 13  1  0  0  0
  3  4  2  0  0  0
  3 42  1  0  0  0
  4  5  1  0  0  0
  4 43  1  0  0  0
  5  6  2  0  0  0
  5 15  1  0  0  0
  6 44  1  0  0  0
  7  8  1  0  0  0
  8  9  1  0  0  0
  8 45  1  0  0  0
  8 46  1  0  0  0
  9 10  1  0  0  0
  9 47  1  0  0  0
  9 48  1  0  0  0
 10 11  1  0  0  0
 10 49  1  0  0  0
 10 50  1  0  0  0
 11 12  1  0  0  0
 12 51  1  0  0  0
 12 52  1  0  0  0
 12 53  1  0  0  0
 13 14  1  0  0  0
 14 54  1  0  0  0
 14 55  1  0  0  0
 14 56  1  0  0  0
 15 16  1  0  0  0
 15 57  1  0  0  0
 15 58  1  0  0  0
 16 17  1  0  0  0
 16 18  1  0  0  0
 16 59  1  0  0  0
 17 21  1  0  0  0
 17 60  1  0  0  0
 17 61  1  0  0  0
 18 19  1  0  0  0
 18 20  1  0  0  0
 18 62  1  0  0  0
 19 63  1  0  0  0
 19 64  1  0  0  0
 19 65  1  0  0  0
 20 66  1  0  0  0
 20 67  1  0  0  0
 20 68  1  0  0  0
 21 22  1  0  0  0
 21 23  1  0  0  0
 21 69  1  0  0  0
 22 24  1  0  0  0
 22 25  1  0  0  0
 22 70  1  0  0  0
 23 71  1  0  0  0
 23 72  1  0  0  0
 24 26  1  0  0  0
 24 73  1  0  0  0
 24 74  1  0  0  0
 25 75  1  0  0  0
 26 27  1  0  0  0
 26 28  1  0  0  0
 26 76  1  0  0  0
 27 31  2  0  0  0
 27 32  1  0  0  0
 28 29  1  0  0  0
 28 30  1  0  0  0
 28 77  1  0  0  0
 29 78  1  0  0  0
 29 79  1  0  0  0
 29 80  1  0  0  0
 30 81  1  0  0  0
 30 82  1  0  0  0
 30 83  1  0  0  0
 32 33  1  0  0  0
 32 84  1  0  0  0
 33 34  1  0  0  0
 33 85  1  0  0  0
 33 86  1  0  0  0
 34 35  1  0  0  0
 34 87  1  0  0  0
 34 88  1  0  0  0
 35 36  1  0  0  0
 35 89  1  0  0  0
 35 90  1  0  0  0
 36 37  2  0  0  0
 36 41  1  0  0  0
 37 38  1  0  0  0
 37 91  1  0  0  0
 38 39  2  0  0  0
 38 92  1  0  0  0
 39 40  1  0  0  0
 39 93  1  0  0  0
 40 41  2  0  0  0
 40 94  1  0  0  0
 41 95  1  0  0  0
M  END
> <s_m_entry_id>
26249

> <s_m_entry_name>
dock_pv.73

> <s_m_Source_Path>
/home/csk/Desktop/cluster/DUD-E-result/reni

> <s_m_Source_File>
dock_pv.maegz

> <i_m_Source_File_Index>
73

> <chembl_id>
CHEMBL3633116

> <chembl_pref_name>
None

> <i_lp_mmshare_version>
53161

> <r_lp_tautomer_probability>
1

> <s_lp_Force_Field>
OPLS_2005

> <r_lp_Energy>
38.582189

> <b_lp_Chiralities_Consistent>
1

> <s_lp_Variant>
CHEMBL286_lig2608-1

> <s_i_glide_gridfile>
glide-grid_3g6z

> <i_i_glide_lignum>
6673

> <i_i_glide_rotatable_bonds>
22

> <r_i_docking_score>
-8.07432026206822

> <r_i_glide_ligand_efficiency>
-0.196934640538249

> <r_i_glide_ligand_efficiency_sa>
-0.679073421891971

> <r_i_glide_ligand_efficiency_ln>
-1.71299391370369

> <r_i_glide_gscore>
-8.07432026206822

> <r_i_glide_lipo>
-4.24922863774756

> <r_i_glide_hbond>
-0.456

> <r_i_glide_metal>
0

> <r_i_glide_rewards>
-0.716384631155531

> <r_i_glide_evdw>
-43.3734550476074

> <r_i_glide_ecoul>
-9.44801425933838

> <r_i_glide_erotb>
0.933167898116006

> <r_i_glide_esite>
0

> <r_i_glide_emodel>
-60.4250757057402

> <r_i_glide_energy>
-52.8214693069458

> <r_i_glide_einternal>
23.829029083252

> <i_i_glide_confnum>
49

> <i_i_glide_posenum>
257

> <r_i_glide_eff_state_penalty>
0

> <s_user_duplicate_titles>
CHEMBL286_lig2608

> <i_f3d_flags>
0

> <s_m_subgroup_title>
dock_pv

> <s_m_subgroupid>
dock_pv

> <b_m_subgroup_collapsed>
1

$$$$
CHEMBL286_lig507
                    3D
 Schrodinger Suite 2021-1.
 72 76  0  0  1  0            999 V2000
   -6.6723  -18.3484  -11.2608 C   0  0  2  0  0  0
   -4.6967  -19.3130  -13.2175 N   0  0  2  0  0  0
   -7.8972  -17.8571  -10.4713 C   0  0  0  0  0  0
   -6.1369  -17.3352  -12.3079 C   0  0  1  0  0  0
   -4.5521  -12.9713   -8.6315 C   0  0  0  0  0  0
   -5.7355  -16.0798  -11.7436 O   0  0  0  0  0  0
   -4.8841  -14.2489   -9.1407 C   0  0  0  0  0  0
   -6.8365  -19.7501  -11.8667 C   0  0  2  0  0  0
   -3.6607  -12.1370   -9.3746 C   0  0  0  0  0  0
   -9.0256  -17.3485  -11.1245 C   0  0  0  0  0  0
   -7.8863  -17.9058   -9.0760 C   0  0  0  0  0  0
   -3.1514  -12.6018  -10.6131 C   0  0  0  0  0  0
   -4.3402  -14.6949  -10.3468 C   0  0  0  0  0  0
   -4.6375  -16.1018  -10.8309 C   0  0  0  0  0  0
  -10.0493  -16.8495   -8.9836 C   0  0  0  0  0  0
   -3.4940  -13.8662  -11.0833 C   0  0  0  0  0  0
   -8.9427  -17.3900   -8.3389 C   0  0  0  0  0  0
  -10.1000  -16.8574  -10.3863 C   0  0  0  0  0  0
   -5.0882  -17.8984  -13.3136 C   0  0  0  0  0  0
   -5.4911  -20.2648  -12.4275 C   0  0  0  0  0  0
   -7.8681  -19.8458  -12.8211 O   0  0  0  0  0  0
  -13.2484  -15.6108   -7.6052 C   0  0  0  0  0  0
  -11.0293  -16.3305   -8.1641 O   0  0  0  0  0  0
  -12.2127  -11.2654   -7.3051 C   0  0  0  0  0  0
  -13.4690  -13.2635   -8.0217 O   0  0  0  0  0  0
   -5.0713  -12.5024   -7.3994 C   0  0  0  0  0  0
  -12.2714  -15.9568   -8.7375 C   0  0  0  0  0  0
  -13.0696  -14.2018   -7.0248 C   0  0  0  0  0  0
  -13.5690  -11.9053   -7.5933 C   0  0  0  0  0  0
   -3.3064  -10.8699   -8.8493 C   0  0  0  0  0  0
  -11.0486  -11.7420   -7.9157 C   0  0  0  0  0  0
  -12.1460  -10.1733   -6.4343 C   0  0  0  0  0  0
   -4.7010  -11.2513   -6.9166 C   0  0  0  0  0  0
   -3.8238  -10.4439   -7.6305 C   0  0  0  0  0  0
  -10.9226   -9.5792   -6.1436 C   0  0  0  0  0  0
   -9.8243  -11.1522   -7.6209 C   0  0  0  0  0  0
   -9.7666  -10.0841   -6.7292 C   0  0  0  0  0  0
   -5.8843  -18.4763  -10.5199 H   0  0  0  0  0  0
   -3.7077  -19.4125  -13.0151 H   0  0  0  0  0  0
   -6.9771  -17.0228  -12.9278 H   0  0  0  0  0  0
   -5.5474  -14.8863   -8.5723 H   0  0  0  0  0  0
   -7.1435  -20.4121  -11.0556 H   0  0  0  0  0  0
   -9.0750  -17.3220  -12.2040 H   0  0  0  0  0  0
   -7.0611  -18.3386   -8.5468 H   0  0  0  0  0  0
   -2.4823  -11.9744  -11.1871 H   0  0  0  0  0  0
   -4.8565  -16.7124   -9.9562 H   0  0  0  0  0  0
   -3.7383  -16.5157  -11.2904 H   0  0  0  0  0  0
   -3.0847  -14.2089  -12.0246 H   0  0  0  0  0  0
   -8.9047  -17.4085   -7.2596 H   0  0  0  0  0  0
  -10.9499  -16.4621  -10.9203 H   0  0  0  0  0  0
   -5.4695  -17.7524  -14.3261 H   0  0  0  0  0  0
   -4.1781  -17.3021  -13.2765 H   0  0  0  0  0  0
   -5.6652  -21.1487  -13.0421 H   0  0  0  0  0  0
   -4.8650  -20.5927  -11.5972 H   0  0  0  0  0  0
   -7.8662  -19.0635  -13.3905 H   0  0  0  0  0  0
  -13.1575  -16.3624   -6.8212 H   0  0  0  0  0  0
  -14.2686  -15.6977   -7.9754 H   0  0  0  0  0  0
   -5.7518  -13.1241   -6.8339 H   0  0  0  0  0  0
  -12.6686  -16.8043   -9.2987 H   0  0  0  0  0  0
  -12.1588  -15.1224   -9.4305 H   0  0  0  0  0  0
  -12.0361  -14.0447   -6.7118 H   0  0  0  0  0  0
  -13.6969  -14.0983   -6.1383 H   0  0  0  0  0  0
  -14.2300  -11.8347   -6.7278 H   0  0  0  0  0  0
  -14.0434  -11.3371   -8.3926 H   0  0  0  0  0  0
   -2.6280  -10.2363   -9.4012 H   0  0  0  0  0  0
  -11.0851  -12.5829   -8.5934 H   0  0  0  0  0  0
  -13.0554   -9.7667   -6.0202 H   0  0  0  0  0  0
   -5.1082  -10.8958   -5.9845 H   0  0  0  0  0  0
   -3.5511   -9.4744   -7.2386 H   0  0  0  0  0  0
  -10.8704   -8.7391   -5.4665 H   0  0  0  0  0  0
   -8.9055  -11.5506   -8.0210 H   0  0  0  0  0  0
   -8.8075   -9.6612   -6.4722 H   0  0  0  0  0  0
  1  3  1  0  0  0
  1  4  1  0  0  0
  1  8  1  0  0  0
  1 38  1  0  0  0
  2 20  1  0  0  0
  2 19  1  0  0  0
  2 39  1  0  0  0
  3 10  2  0  0  0
  3 11  1  0  0  0
  4  6  1  0  0  0
  4 19  1  0  0  0
  4 40  1  0  0  0
  5  7  2  0  0  0
  5 26  1  0  0  0
  5  9  1  0  0  0
  6 14  1  0  0  0
  7 13  1  0  0  0
  7 41  1  0  0  0
  8 20  1  0  0  0
  8 21  1  0  0  0
  8 42  1  0  0  0
  9 12  2  0  0  0
  9 30  1  0  0  0
 10 18  1  0  0  0
 10 43  1  0  0  0
 11 17  2  0  0  0
 11 44  1  0  0  0
 12 16  1  0  0  0
 12 45  1  0  0  0
 13 14  1  0  0  0
 13 16  2  0  0  0
 14 46  1  0  0  0
 14 47  1  0  0  0
 15 17  1  0  0  0
 15 23  1  0  0  0
 15 18  2  0  0  0
 16 48  1  0  0  0
 17 49  1  0  0  0
 18 50  1  0  0  0
 19 51  1  0  0  0
 19 52  1  0  0  0
 20 53  1  0  0  0
 20 54  1  0  0  0
 21 55  1  0  0  0
 22 27  1  0  0  0
 22 28  1  0  0  0
 22 56  1  0  0  0
 22 57  1  0  0  0
 23 27  1  0  0  0
 24 29  1  0  0  0
 24 31  1  0  0  0
 24 32  2  0  0  0
 25 28  1  0  0  0
 25 29  1  0  0  0
 26 33  2  0  0  0
 26 58  1  0  0  0
 27 59  1  0  0  0
 27 60  1  0  0  0
 28 61  1  0  0  0
 28 62  1  0  0  0
 29 63  1  0  0  0
 29 64  1  0  0  0
 30 34  2  0  0  0
 30 65  1  0  0  0
 31 36  2  0  0  0
 31 66  1  0  0  0
 32 35  1  0  0  0
 32 67  1  0  0  0
 33 34  1  0  0  0
 33 68  1  0  0  0
 34 69  1  0  0  0
 35 37  2  0  0  0
 35 70  1  0  0  0
 36 37  1  0  0  0
 36 71  1  0  0  0
 37 72  1  0  0  0
M  END
> <s_m_entry_id>
26250

> <s_m_entry_name>
dock_pv.74

> <s_m_Source_Path>
/home/csk/Desktop/cluster/DUD-E-result/reni

> <s_m_Source_File>
dock_pv.maegz

> <i_m_Source_File_Index>
74

> <chembl_id>
CHEMBL31428

> <chembl_pref_name>
None

> <i_lp_mmshare_version>
53161

> <r_lp_tautomer_probability>
1

> <s_lp_Force_Field>
OPLS_2005

> <r_lp_Energy>
46.071044

> <b_lp_Chiralities_Consistent>
1

> <s_lp_Variant>
CHEMBL286_lig507-1

> <s_i_glide_gridfile>
glide-grid_3g6z

> <i_i_glide_lignum>
1184

> <i_i_glide_rotatable_bonds>
12

> <r_i_docking_score>
-8.04879614675898

> <r_i_glide_ligand_efficiency>
-0.217535030993486

> <r_i_glide_ligand_efficiency_sa>
-0.724874982902486

> <r_i_glide_ligand_efficiency_ln>
-1.74559519367874

> <r_i_glide_gscore>
-8.04879614675898

> <r_i_glide_lipo>
-4.93157102100148

> <r_i_glide_hbond>
-0.449029848499539

> <r_i_glide_metal>
0

> <r_i_glide_rewards>
0.42609158513587

> <r_i_glide_evdw>
-55.7278785705566

> <r_i_glide_ecoul>
-7.54479646682739

> <r_i_glide_erotb>
0.823826536158104

> <r_i_glide_esite>
0

> <r_i_glide_emodel>
-86.5340542669314

> <r_i_glide_energy>
-63.272675037384

> <r_i_glide_einternal>
7.02198886871338

> <i_i_glide_confnum>
87

> <i_i_glide_posenum>
380

> <r_i_glide_eff_state_penalty>
0

> <s_user_duplicate_titles>
CHEMBL286_lig507,42557

> <i_f3d_flags>
0

> <s_m_subgroup_title>
dock_pv

> <s_m_subgroupid>
dock_pv

> <b_m_subgroup_collapsed>
1

$$$$
CHEMBL286_lig666
                    3D
 Schrodinger Suite 2021-1.
 95 98  0  0  1  0            999 V2000
   -6.7070  -20.5337  -10.0166 C   0  0  0  0  0  0
   -8.2854  -17.7801   -9.6898 C   0  0  0  0  0  0
   -6.8554  -15.1038   -8.2368 C   0  0  0  0  0  0
   -6.9660  -18.0306   -9.6305 N   0  0  0  0  0  0
   -6.2832  -21.4596  -10.8968 N   0  0  0  0  0  0
   -6.2532  -19.1003  -10.3432 C   0  0  1  0  0  0
   -7.8766  -15.3268   -9.1513 N   0  0  0  0  0  0
   -3.4545  -15.8798  -11.6212 N   0  0  0  0  0  0
   -8.8009  -16.4799   -9.0039 C   0  0  1  0  0  0
   -6.4371  -22.9206  -10.8182 C   0  0  2  0  0  0
   -4.0977  -17.6866  -10.5321 C   0  0  0  0  0  0
   -4.7363  -18.9763  -10.0887 C   0  0  0  0  0  0
   -3.1037  -17.0517   -9.7787 N   0  0  0  0  0  0
   -2.7675  -15.9806  -10.4844 C   0  0  0  0  0  0
   -6.0817  -14.0582   -8.6376 O   0  0  0  0  0  0
   -4.3047  -16.9679  -11.6935 C   0  0  0  0  0  0
   -7.9152  -23.4057  -10.7067 C   0  0  1  0  0  0
  -12.3535  -23.1567  -12.0480 N   0  0  0  0  0  0
  -11.1846  -22.5956  -11.6503 C   0  0  0  0  0  0
   -6.6670  -15.7635   -7.2187 O   0  0  0  0  0  0
   -7.3762  -20.7707   -9.0102 O   0  0  0  0  0  0
   -9.0781  -18.5034  -10.2985 O   0  0  0  0  0  0
  -10.2491  -16.0896   -9.4296 C   0  0  0  0  0  0
   -5.3735  -23.6005   -9.8954 C   0  0  0  0  0  0
   -8.7950  -22.9532  -11.8920 C   0  0  0  0  0  0
  -10.1194  -23.4655  -11.7271 O   0  0  0  0  0  0
   -5.0546  -13.4432   -7.8271 C   0  0  0  0  0  0
  -11.0630  -15.1205   -8.5795 C   0  0  0  0  0  0
   -7.9672  -24.8217  -10.6690 O   0  0  0  0  0  0
   -5.3829  -23.3117   -8.3676 C   0  0  0  0  0  0
  -13.4685  -22.3873  -12.0508 C   0  0  0  0  0  0
  -11.1131  -21.2677  -11.1909 C   0  0  0  0  0  0
   -5.7268  -12.6114   -6.7138 C   0  0  0  0  0  0
   -4.2859  -12.5073   -8.7829 C   0  0  0  0  0  0
   -4.0345  -14.4430   -7.2207 C   0  0  0  0  0  0
  -10.6791  -13.7683   -8.4208 C   0  0  0  0  0  0
  -12.2412  -15.5749   -7.9479 C   0  0  0  0  0  0
   -6.5038  -24.0646   -7.6102 C   0  0  0  0  0  0
   -4.0259  -23.6969   -7.7242 C   0  0  0  0  0  0
  -13.4741  -21.0545  -11.6396 C   0  0  0  0  0  0
  -12.2717  -20.4879  -11.2174 C   0  0  0  0  0  0
  -13.0270  -14.6927   -7.2208 C   0  0  0  0  0  0
  -11.4787  -12.9036   -7.6851 C   0  0  0  0  0  0
   -6.5226  -23.6918   -6.1162 C   0  0  0  0  0  0
   -3.9864  -23.3333   -6.2243 C   0  0  0  0  0  0
  -12.6493  -13.3620   -7.0960 C   0  0  0  0  0  0
   -5.1588  -23.9900   -5.4574 C   0  0  0  0  0  0
   -6.3891  -17.4019   -9.0862 H   0  0  0  0  0  0
   -5.7515  -21.1283  -11.6887 H   0  0  0  0  0  0
   -6.4458  -18.9427  -11.4062 H   0  0  0  0  0  0
   -7.9178  -14.7652   -9.9864 H   0  0  0  0  0  0
   -3.3627  -15.1665  -12.3365 H   0  0  0  0  0  0
   -8.8996  -16.7649   -7.9534 H   0  0  0  0  0  0
   -6.1419  -23.2383  -11.8193 H   0  0  0  0  0  0
   -4.5371  -19.1044   -9.0221 H   0  0  0  0  0  0
   -4.1955  -19.7870  -10.5838 H   0  0  0  0  0  0
   -2.0115  -15.2731  -10.1781 H   0  0  0  0  0  0
   -4.9674  -17.1295  -12.5321 H   0  0  0  0  0  0
   -8.3792  -23.0314   -9.7959 H   0  0  0  0  0  0
  -10.8644  -16.9846   -9.5444 H   0  0  0  0  0  0
  -10.2043  -15.6658  -10.4215 H   0  0  0  0  0  0
   -5.4050  -24.6808  -10.0526 H   0  0  0  0  0  0
   -4.4006  -23.3032  -10.2859 H   0  0  0  0  0  0
   -8.7447  -21.8741  -12.0421 H   0  0  0  0  0  0
   -8.4092  -23.3799  -12.8199 H   0  0  0  0  0  0
   -8.8633  -25.0702  -10.9083 H   0  0  0  0  0  0
   -5.5081  -22.2405   -8.1973 H   0  0  0  0  0  0
  -14.3748  -22.8559  -12.4115 H   0  0  0  0  0  0
  -10.1894  -20.8398  -10.8339 H   0  0  0  0  0  0
   -6.2801  -13.2496   -6.0268 H   0  0  0  0  0  0
   -4.9941  -12.0561   -6.1278 H   0  0  0  0  0  0
   -6.4365  -11.8920   -7.1228 H   0  0  0  0  0  0
   -3.9651  -13.0326   -9.6859 H   0  0  0  0  0  0
   -4.8816  -11.6539   -9.0921 H   0  0  0  0  0  0
   -3.3875  -12.1005   -8.3166 H   0  0  0  0  0  0
   -3.6571  -15.1214   -7.9789 H   0  0  0  0  0  0
   -3.1778  -13.9279   -6.7851 H   0  0  0  0  0  0
   -4.4639  -15.0597   -6.4321 H   0  0  0  0  0  0
   -9.7862  -13.3911   -8.8937 H   0  0  0  0  0  0
  -12.5526  -16.6053   -8.0427 H   0  0  0  0  0  0
   -7.4764  -23.8403   -8.0328 H   0  0  0  0  0  0
   -6.3839  -25.1408   -7.7480 H   0  0  0  0  0  0
   -3.8234  -24.7595   -7.8730 H   0  0  0  0  0  0
   -3.2150  -23.1822   -8.2459 H   0  0  0  0  0  0
  -14.3872  -20.4794  -11.6586 H   0  0  0  0  0  0
  -12.2344  -19.4581  -10.8959 H   0  0  0  0  0  0
  -13.9392  -15.0422   -6.7615 H   0  0  0  0  0  0
  -11.1887  -11.8701   -7.5667 H   0  0  0  0  0  0
   -6.7566  -22.6271   -6.0212 H   0  0  0  0  0  0
   -7.3184  -24.2323   -5.5998 H   0  0  0  0  0  0
   -4.0361  -22.2441   -6.1121 H   0  0  0  0  0  0
   -3.0341  -23.6444   -5.7871 H   0  0  0  0  0  0
  -13.2628  -12.6837   -6.5205 H   0  0  0  0  0  0
   -5.1709  -23.6627   -4.4194 H   0  0  0  0  0  0
   -4.9984  -25.0701   -5.4415 H   0  0  0  0  0  0
  1  5  1  0  0  0
  1  6  1  0  0  0
  1 21  2  0  0  0
  2  4  1  0  0  0
  2  9  1  0  0  0
  2 22  2  0  0  0
  3  7  1  0  0  0
  3 15  1  0  0  0
  3 20  2  0  0  0
  4  6  1  0  0  0
  4 48  1  0  0  0
  5 10  1  0  0  0
  5 49  1  0  0  0
  6 12  1  0  0  0
  6 50  1  0  0  0
  7  9  1  0  0  0
  7 51  1  0  0  0
  8 16  1  0  0  0
  8 14  1  0  0  0
  8 52  1  0  0  0
  9 23  1  0  0  0
  9 53  1  0  0  0
 10 17  1  0  0  0
 10 24  1  0  0  0
 10 54  1  0  0  0
 11 12  1  0  0  0
 11 13  1  0  0  0
 11 16  2  0  0  0
 12 55  1  0  0  0
 12 56  1  0  0  0
 13 14  2  0  0  0
 14 57  1  0  0  0
 15 27  1  0  0  0
 16 58  1  0  0  0
 17 25  1  0  0  0
 17 29  1  0  0  0
 17 59  1  0  0  0
 18 19  1  0  0  0
 18 31  2  0  0  0
 19 26  1  0  0  0
 19 32  2  0  0  0
 23 28  1  0  0  0
 23 60  1  0  0  0
 23 61  1  0  0  0
 24 30  1  0  0  0
 24 62  1  0  0  0
 24 63  1  0  0  0
 25 26  1  0  0  0
 25 64  1  0  0  0
 25 65  1  0  0  0
 27 33  1  0  0  0
 27 34  1  0  0  0
 27 35  1  0  0  0
 28 36  1  0  0  0
 28 37  2  0  0  0
 29 66  1  0  0  0
 30 38  1  0  0  0
 30 39  1  0  0  0
 30 67  1  0  0  0
 31 40  1  0  0  0
 31 68  1  0  0  0
 32 41  1  0  0  0
 32 69  1  0  0  0
 33 70  1  0  0  0
 33 71  1  0  0  0
 33 72  1  0  0  0
 34 73  1  0  0  0
 34 74  1  0  0  0
 34 75  1  0  0  0
 35 76  1  0  0  0
 35 77  1  0  0  0
 35 78  1  0  0  0
 36 43  2  0  0  0
 36 79  1  0  0  0
 37 42  1  0  0  0
 37 80  1  0  0  0
 38 44  1  0  0  0
 38 81  1  0  0  0
 38 82  1  0  0  0
 39 45  1  0  0  0
 39 83  1  0  0  0
 39 84  1  0  0  0
 40 41  2  0  0  0
 40 85  1  0  0  0
 41 86  1  0  0  0
 42 46  2  0  0  0
 42 87  1  0  0  0
 43 46  1  0  0  0
 43 88  1  0  0  0
 44 47  1  0  0  0
 44 89  1  0  0  0
 44 90  1  0  0  0
 45 47  1  0  0  0
 45 91  1  0  0  0
 45 92  1  0  0  0
 46 93  1  0  0  0
 47 94  1  0  0  0
 47 95  1  0  0  0
M  END
> <s_m_entry_id>
26251

> <s_m_entry_name>
dock_pv.75

> <s_m_Source_Path>
/home/csk/Desktop/cluster/DUD-E-result/reni

> <s_m_Source_File>
dock_pv.maegz

> <i_m_Source_File_Index>
75

> <chembl_id>
CHEMBL327068

> <chembl_pref_name>
None

> <i_lp_mmshare_version>
53161

> <r_lp_tautomer_probability>
0.499999999999999

> <s_lp_Force_Field>
OPLS_2005

> <r_lp_Energy>
21.926616

> <b_lp_Chiralities_Consistent>
1

> <s_lp_Variant>
CHEMBL286_lig666-3

> <s_i_glide_gridfile>
glide-grid_3g6z

> <i_i_glide_lignum>
1892

> <i_i_glide_rotatable_bonds>
21

> <r_i_docking_score>
-8.00367544622785

> <r_i_glide_ligand_efficiency>
-0.170290966941018

> <r_i_glide_ligand_efficiency_sa>
-0.614550481920079

> <r_i_glide_ligand_efficiency_ln>
-1.65019213918478

> <r_i_glide_gscore>
-8.00367544622785

> <r_i_glide_lipo>
-4.30180536062077

> <r_i_glide_hbond>
-0.265557950880974

> <r_i_glide_metal>
0

> <r_i_glide_rewards>
-0.818862032231809

> <r_i_glide_evdw>
-51.1774024963379

> <r_i_glide_ecoul>
-4.26022958755493

> <r_i_glide_erotb>
0.606392352025957

> <r_i_glide_esite>
-0.0259378915701175

> <r_i_glide_emodel>
-76.8957124767337

> <r_i_glide_energy>
-55.4376320838928

> <r_i_glide_einternal>
16.2558498382568

> <i_i_glide_confnum>
43

> <i_i_glide_posenum>
84

> <r_i_glide_eff_state_penalty>
0

> <s_user_duplicate_titles>
CHEMBL286_lig666

> <i_f3d_flags>
0

> <s_m_subgroup_title>
dock_pv

> <s_m_subgroupid>
dock_pv

> <b_m_subgroup_collapsed>
1

$$$$
CHEMBL286_lig1321
                    3D
 Schrodinger Suite 2021-1.
 67 71  0  0  1  0            999 V2000
  -12.2232  -15.4108   -8.2935 C   0  0  0  0  0  0
  -12.2491  -13.9586   -7.9669 C   0  0  0  0  0  0
   -5.8480  -18.8776  -10.8555 C   0  0  2  0  0  0
  -11.2703  -15.7202   -9.1931 O   0  0  0  0  0  0
   -7.2658  -18.3705  -10.5658 C   0  0  0  0  0  0
   -3.7072  -19.6244  -12.8099 N   0  0  2  0  0  0
   -4.5421  -12.7642   -8.7121 C   0  0  0  0  0  0
   -4.8116  -16.6856  -10.7902 O   0  0  0  0  0  0
  -13.0707  -16.2083   -7.8822 O   0  0  0  0  0  0
  -11.1012  -13.1541   -7.9776 C   0  0  0  0  0  0
   -5.0118  -17.8270  -11.6277 C   0  0  1  0  0  0
   -5.0989  -13.8442   -9.4379 C   0  0  0  0  0  0
   -3.3248  -12.1687   -9.1705 C   0  0  0  0  0  0
   -8.1015  -17.9991  -11.6213 C   0  0  0  0  0  0
   -7.7360  -18.2668   -9.2518 C   0  0  0  0  0  0
   -2.7070  -12.6809  -10.3385 C   0  0  0  0  0  0
   -4.4813  -14.3111  -10.6000 C   0  0  0  0  0  0
  -11.2724  -16.9923   -9.8239 C   0  0  0  0  0  0
   -5.1160  -15.4356  -11.3975 C   0  0  0  0  0  0
  -11.1692  -11.8050   -7.6205 C   0  0  0  0  0  0
   -9.8538  -17.4465  -10.0758 C   0  0  0  0  0  0
   -3.2890  -13.7342  -11.0375 C   0  0  0  0  0  0
   -9.0268  -17.8003   -9.0065 C   0  0  0  0  0  0
   -9.3883  -17.5407  -11.3817 C   0  0  0  0  0  0
   -3.6285  -18.3644  -12.0633 C   0  0  0  0  0  0
   -9.9880  -11.0914   -7.6228 O   0  0  0  0  0  0
  -13.4699  -13.3823   -7.6184 C   0  0  0  0  0  0
  -13.5601  -12.0409   -7.2708 C   0  0  0  0  0  0
   -4.4766  -20.6558  -12.1135 C   0  0  0  0  0  0
   -5.8840  -20.1618  -11.7218 C   0  0  0  0  0  0
   -5.1693  -12.2418   -7.5533 C   0  0  0  0  0  0
  -12.4106  -11.2592   -7.2632 C   0  0  0  0  0  0
   -2.7758  -11.0789   -8.4519 C   0  0  0  0  0  0
  -10.0525   -9.6770   -7.4685 C   0  0  0  0  0  0
   -4.6142  -11.1543   -6.8860 C   0  0  0  0  0  0
   -3.4261  -10.5795   -7.3256 C   0  0  0  0  0  0
   -5.3671  -19.0977   -9.9019 H   0  0  0  0  0  0
   -2.7733  -19.9638  -13.0059 H   0  0  0  0  0  0
  -10.1395  -13.5753   -8.2378 H   0  0  0  0  0  0
   -5.5437  -17.5360  -12.5370 H   0  0  0  0  0  0
   -6.0206  -14.2950   -9.0969 H   0  0  0  0  0  0
   -7.7595  -18.0687  -12.6401 H   0  0  0  0  0  0
   -7.1085  -18.5450   -8.4219 H   0  0  0  0  0  0
   -1.7870  -12.2419  -10.6967 H   0  0  0  0  0  0
  -11.7713  -17.7627   -9.2346 H   0  0  0  0  0  0
  -11.8217  -16.9145  -10.7638 H   0  0  0  0  0  0
   -4.7455  -15.4037  -12.4185 H   0  0  0  0  0  0
   -6.1985  -15.3041  -11.4448 H   0  0  0  0  0  0
   -2.8117  -14.0981  -11.9370 H   0  0  0  0  0  0
   -9.3854  -17.7220   -7.9889 H   0  0  0  0  0  0
  -10.0156  -17.2699  -12.2222 H   0  0  0  0  0  0
   -3.1502  -17.6283  -12.7110 H   0  0  0  0  0  0
   -2.9797  -18.4916  -11.1950 H   0  0  0  0  0  0
  -14.3672  -13.9773   -7.6178 H   0  0  0  0  0  0
  -14.5124  -11.6095   -7.0005 H   0  0  0  0  0  0
   -4.5596  -21.5245  -12.7684 H   0  0  0  0  0  0
   -3.9253  -20.9747  -11.2271 H   0  0  0  0  0  0
   -6.3540  -20.9617  -11.1479 H   0  0  0  0  0  0
   -6.4749  -20.0430  -12.6324 H   0  0  0  0  0  0
   -6.0909  -12.6801   -7.1989 H   0  0  0  0  0  0
  -12.5067  -10.2227   -6.9747 H   0  0  0  0  0  0
   -1.8558  -10.6271   -8.7881 H   0  0  0  0  0  0
   -9.0690   -9.2624   -7.6610 H   0  0  0  0  0  0
  -10.7364   -9.2160   -8.1845 H   0  0  0  0  0  0
  -10.3449   -9.3931   -6.4559 H   0  0  0  0  0  0
   -5.1094  -10.7453   -6.0208 H   0  0  0  0  0  0
   -3.0114   -9.7391   -6.7884 H   0  0  0  0  0  0
  1  2  1  0  0  0
  1  4  1  0  0  0
  1  9  2  0  0  0
  2 10  1  0  0  0
  2 27  2  0  0  0
  3  5  1  0  0  0
  3 11  1  0  0  0
  3 30  1  0  0  0
  3 37  1  0  0  0
  4 18  1  0  0  0
  5 14  1  0  0  0
  5 15  2  0  0  0
  6 29  1  0  0  0
  6 25  1  0  0  0
  6 38  1  0  0  0
  7 12  2  0  0  0
  7 31  1  0  0  0
  7 13  1  0  0  0
  8 11  1  0  0  0
  8 19  1  0  0  0
 10 20  2  0  0  0
 10 39  1  0  0  0
 11 25  1  0  0  0
 11 40  1  0  0  0
 12 17  1  0  0  0
 12 41  1  0  0  0
 13 16  2  0  0  0
 13 33  1  0  0  0
 14 24  2  0  0  0
 14 42  1  0  0  0
 15 23  1  0  0  0
 15 43  1  0  0  0
 16 22  1  0  0  0
 16 44  1  0  0  0
 17 19  1  0  0  0
 17 22  2  0  0  0
 18 21  1  0  0  0
 18 45  1  0  0  0
 18 46  1  0  0  0
 19 47  1  0  0  0
 19 48  1  0  0  0
 20 26  1  0  0  0
 20 32  1  0  0  0
 21 23  2  0  0  0
 21 24  1  0  0  0
 22 49  1  0  0  0
 23 50  1  0  0  0
 24 51  1  0  0  0
 25 52  1  0  0  0
 25 53  1  0  0  0
 26 34  1  0  0  0
 27 28  1  0  0  0
 27 54  1  0  0  0
 28 32  2  0  0  0
 28 55  1  0  0  0
 29 30  1  0  0  0
 29 56  1  0  0  0
 29 57  1  0  0  0
 30 58  1  0  0  0
 30 59  1  0  0  0
 31 35  2  0  0  0
 31 60  1  0  0  0
 32 61  1  0  0  0
 33 36  2  0  0  0
 33 62  1  0  0  0
 34 63  1  0  0  0
 34 64  1  0  0  0
 34 65  1  0  0  0
 35 36  1  0  0  0
 35 66  1  0  0  0
 36 67  1  0  0  0
M  END
> <s_m_entry_id>
26252

> <s_m_entry_name>
dock_pv.76

> <s_m_Source_Path>
/home/csk/Desktop/cluster/DUD-E-result/reni

> <s_m_Source_File>
dock_pv.maegz

> <i_m_Source_File_Index>
76

> <chembl_id>
CHEMBL289898

> <chembl_pref_name>
None

> <i_lp_mmshare_version>
53161

> <r_lp_tautomer_probability>
1

> <s_lp_Force_Field>
OPLS_2005

> <r_lp_Energy>
39.153218

> <b_lp_Chiralities_Consistent>
1

> <s_lp_Variant>
CHEMBL286_lig1321-1

> <s_i_glide_gridfile>
glide-grid_3g6z

> <i_i_glide_lignum>
4314

> <i_i_glide_rotatable_bonds>
9

> <r_i_docking_score>
-7.99207421289535

> <r_i_glide_ligand_efficiency>
-0.222002061469315

> <r_i_glide_ligand_efficiency_sa>
-0.733034655200697

> <r_i_glide_ligand_efficiency_ln>
-1.74365467236127

> <r_i_glide_gscore>
-7.99207421289535

> <r_i_glide_lipo>
-4.15342478212673

> <r_i_glide_hbond>
-0.0737045461005928

> <r_i_glide_metal>
0

> <r_i_glide_rewards>
-1.21142319637188

> <r_i_glide_evdw>
-50.6760215759277

> <r_i_glide_ecoul>
-4.79681158065796

> <r_i_glide_erotb>
0.699801127598938

> <r_i_glide_esite>
0

> <r_i_glide_emodel>
-79.3515226611438

> <r_i_glide_energy>
-55.4728331565857

> <r_i_glide_einternal>
6.40642261505127

> <i_i_glide_confnum>
21

> <i_i_glide_posenum>
223

> <r_i_glide_eff_state_penalty>
0

> <s_user_duplicate_titles>
CHEMBL286_lig1321,41980

> <i_f3d_flags>
0

> <s_m_subgroup_title>
dock_pv

> <s_m_subgroupid>
dock_pv

> <b_m_subgroup_collapsed>
1

$$$$
CHEMBL286_lig2464
                    3D
 Schrodinger Suite 2021-1.
 72 74  0  0  1  0            999 V2000
   -8.5324  -18.9432   -8.7560 C   0  0  0  0  0  0
   -8.1438  -17.5680   -9.3574 C   0  0  0  0  0  0
   -6.7504  -17.1064   -8.8794 C   0  0  0  0  0  0
  -13.4640  -15.3242   -7.5720 C   0  0  0  0  0  0
  -13.1765  -14.0040   -7.2366 C   0  0  0  0  0  0
  -11.9906  -13.4207   -7.6674 C   0  0  0  0  0  0
  -11.0705  -14.1506   -8.4208 C   0  0  0  0  0  0
  -11.3408  -15.4990   -8.7529 C   0  0  0  0  0  0
  -12.5540  -16.0642   -8.3250 C   0  0  0  0  0  0
  -10.4126  -16.3082   -9.4629 N   0  0  0  0  0  0
   -9.1357  -16.5357   -8.7583 C   0  0  0  0  0  0
   -8.2663  -17.5638  -10.8278 N   0  0  2  0  0  0
   -9.6295  -17.7217  -11.3739 C   0  0  0  0  0  0
  -10.7439  -16.9344  -10.6342 C   0  0  0  0  0  0
  -11.8660  -16.8621  -11.1406 O   0  0  0  0  0  0
   -7.3312  -18.4398  -11.5785 C   0  0  0  0  0  0
   -6.0050  -17.7510  -12.0068 C   0  0  1  0  0  0
   -5.0080  -18.7281  -12.6971 C   0  0  2  0  0  0
   -6.2656  -16.5687  -12.8213 N   0  0  0  0  0  0
   -3.5688  -18.1893  -12.9021 C   0  0  0  0  0  0
   -5.5202  -19.1620  -13.9462 O   0  0  0  0  0  0
   -2.6960  -18.0618  -11.6014 C   0  0  2  0  0  0
   -2.6444  -16.5895  -11.1077 C   0  0  0  0  0  0
   -3.4690  -16.2439  -10.0929 N   0  0  0  0  0  0
   -1.8449  -15.8064  -11.6210 O   0  0  0  0  0  0
   -1.2730  -18.7069  -11.7867 C   0  0  0  0  0  0
   -9.6229  -13.3211   -8.8843 Cl  0  0  0  0  0  0
   -3.6965  -14.9525   -9.5783 C   0  0  0  0  0  0
   -4.0974  -14.8557   -8.2434 C   0  0  0  0  0  0
   -4.3820  -13.6086   -7.6898 C   0  0  0  0  0  0
   -4.2638  -12.4601   -8.4670 C   0  0  0  0  0  0
   -3.8686  -12.5462   -9.7990 C   0  0  0  0  0  0
   -3.5939  -13.7905  -10.3609 C   0  0  0  0  0  0
   -1.3407  -20.2356  -12.0212 C   0  0  0  0  0  0
   -0.2893  -18.4389  -10.6230 C   0  0  0  0  0  0
   -4.5401  -11.2524   -7.9254 F   0  0  0  0  0  0
   -8.6691  -18.8759   -7.6769 H   0  0  0  0  0  0
   -9.4673  -19.3230   -9.1651 H   0  0  0  0  0  0
   -7.7764  -19.7048   -8.9452 H   0  0  0  0  0  0
   -6.7366  -16.8627   -7.8150 H   0  0  0  0  0  0
   -5.9893  -17.8624   -9.0652 H   0  0  0  0  0  0
   -6.4435  -16.2010   -9.4058 H   0  0  0  0  0  0
  -14.3898  -15.7764   -7.2465 H   0  0  0  0  0  0
  -13.8676  -13.4257   -6.6438 H   0  0  0  0  0  0
  -11.7797  -12.3947   -7.4040 H   0  0  0  0  0  0
  -12.7920  -17.0892   -8.5698 H   0  0  0  0  0  0
   -8.6309  -15.5822   -8.8852 H   0  0  0  0  0  0
   -9.2472  -16.6431   -7.6790 H   0  0  0  0  0  0
   -9.6421  -17.3926  -12.4162 H   0  0  0  0  0  0
   -9.9292  -18.7700  -11.3937 H   0  0  0  0  0  0
   -7.8032  -18.8354  -12.4820 H   0  0  0  0  0  0
   -7.0837  -19.3181  -10.9846 H   0  0  0  0  0  0
   -5.5147  -17.3925  -11.1116 H   0  0  0  0  0  0
   -4.9304  -19.6282  -12.0851 H   0  0  0  0  0  0
   -7.0067  -16.0373  -12.3824 H   0  0  0  0  0  0
   -5.4510  -15.9710  -12.8811 H   0  0  0  0  0  0
   -3.6042  -17.2624  -13.4651 H   0  0  0  0  0  0
   -3.0731  -18.8543  -13.6089 H   0  0  0  0  0  0
   -6.0698  -18.4473  -14.3040 H   0  0  0  0  0  0
   -3.1717  -18.6422  -10.8090 H   0  0  0  0  0  0
   -3.9203  -16.9938   -9.5932 H   0  0  0  0  0  0
   -0.8248  -18.2639  -12.6804 H   0  0  0  0  0  0
   -4.1913  -15.7399   -7.6298 H   0  0  0  0  0  0
   -4.6954  -13.5282   -6.6623 H   0  0  0  0  0  0
   -3.7872  -11.6511  -10.3967 H   0  0  0  0  0  0
   -3.3141  -13.8377  -11.4022 H   0  0  0  0  0  0
   -1.7905  -20.7469  -11.1688 H   0  0  0  0  0  0
   -1.9099  -20.5095  -12.9077 H   0  0  0  0  0  0
   -0.3437  -20.6554  -12.1606 H   0  0  0  0  0  0
   -0.6682  -18.8383   -9.6816 H   0  0  0  0  0  0
    0.6824  -18.8927  -10.8179 H   0  0  0  0  0  0
   -0.0949  -17.3771  -10.4744 H   0  0  0  0  0  0
  1  2  1  0  0  0
  1 37  1  0  0  0
  1 38  1  0  0  0
  1 39  1  0  0  0
  2  3  1  0  0  0
  2 11  1  0  0  0
  2 12  1  0  0  0
  3 40  1  0  0  0
  3 41  1  0  0  0
  3 42  1  0  0  0
  4  5  2  0  0  0
  4  9  1  0  0  0
  4 43  1  0  0  0
  5  6  1  0  0  0
  5 44  1  0  0  0
  6  7  2  0  0  0
  6 45  1  0  0  0
  7  8  1  0  0  0
  7 27  1  0  0  0
  8  9  2  0  0  0
  8 10  1  0  0  0
  9 46  1  0  0  0
 10 11  1  0  0  0
 10 14  1  0  0  0
 11 47  1  0  0  0
 11 48  1  0  0  0
 12 13  1  0  0  0
 12 16  1  0  0  0
 13 14  1  0  0  0
 13 49  1  0  0  0
 13 50  1  0  0  0
 14 15  2  0  0  0
 16 17  1  0  0  0
 16 51  1  0  0  0
 16 52  1  0  0  0
 17 18  1  0  0  0
 17 19  1  0  0  0
 17 53  1  0  0  0
 18 20  1  0  0  0
 18 21  1  0  0  0
 18 54  1  0  0  0
 19 55  1  0  0  0
 19 56  1  0  0  0
 20 22  1  0  0  0
 20 57  1  0  0  0
 20 58  1  0  0  0
 21 59  1  0  0  0
 22 23  1  0  0  0
 22 26  1  0  0  0
 22 60  1  0  0  0
 23 24  1  0  0  0
 23 25  2  0  0  0
 24 28  1  0  0  0
 24 61  1  0  0  0
 26 34  1  0  0  0
 26 35  1  0  0  0
 26 62  1  0  0  0
 28 29  2  0  0  0
 28 33  1  0  0  0
 29 30  1  0  0  0
 29 63  1  0  0  0
 30 31  2  0  0  0
 30 64  1  0  0  0
 31 32  1  0  0  0
 31 36  1  0  0  0
 32 33  2  0  0  0
 32 65  1  0  0  0
 33 66  1  0  0  0
 34 67  1  0  0  0
 34 68  1  0  0  0
 34 69  1  0  0  0
 35 70  1  0  0  0
 35 71  1  0  0  0
 35 72  1  0  0  0
M  END
> <s_m_entry_id>
26253

> <s_m_entry_name>
dock_pv.77

> <s_m_Source_Path>
/home/csk/Desktop/cluster/DUD-E-result/reni

> <s_m_Source_File>
dock_pv.maegz

> <i_m_Source_File_Index>
77

> <chembl_id>
CHEMBL2387551

> <chembl_pref_name>
None

> <i_lp_mmshare_version>
53161

> <r_lp_tautomer_probability>
1

> <s_lp_Force_Field>
OPLS_2005

> <r_lp_Energy>
79.952362

> <b_lp_Chiralities_Consistent>
1

> <s_lp_Variant>
CHEMBL286_lig2464-1

> <s_i_glide_gridfile>
glide-grid_3g6z

> <i_i_glide_lignum>
6524

> <i_i_glide_rotatable_bonds>
11

> <r_i_docking_score>
-7.98351462449668

> <r_i_glide_ligand_efficiency>
-0.221764295124908

> <r_i_glide_ligand_efficiency_sa>
-0.732249568030166

> <r_i_glide_ligand_efficiency_ln>
-1.74178720142603

> <r_i_glide_gscore>
-7.98351462449668

> <r_i_glide_lipo>
-3.20350825161616

> <r_i_glide_hbond>
-0.353516245014482

> <r_i_glide_metal>
0

> <r_i_glide_rewards>
-1.65461708870839

> <r_i_glide_evdw>
-43.4705085754395

> <r_i_glide_ecoul>
-8.05555725097656

> <r_i_glide_erotb>
0.609985977260813

> <r_i_glide_esite>
0

> <r_i_glide_emodel>
-69.1434423211637

> <r_i_glide_energy>
-51.526065826416

> <r_i_glide_einternal>
12.2213096618652

> <i_i_glide_confnum>
12

> <i_i_glide_posenum>
165

> <r_i_glide_eff_state_penalty>
0

> <s_user_duplicate_titles>
CHEMBL286_lig2464

> <i_f3d_flags>
0

> <s_m_subgroup_title>
dock_pv

> <s_m_subgroupid>
dock_pv

> <b_m_subgroup_collapsed>
1

$$$$
CHEMBL286_lig2043
                    3D
 Schrodinger Suite 2021-1.
 91 95  0  0  1  0            999 V2000
   -7.7126  -21.5188   -8.4217 C   0  0  0  0  0  0
   -7.1428  -22.4528   -7.5634 C   0  0  0  0  0  0
   -5.8193  -22.8494   -7.7288 C   0  0  0  0  0  0
   -6.9706  -20.9696   -9.4609 C   0  0  0  0  0  0
   -5.6237  -21.3602   -9.6659 C   0  0  0  0  0  0
   -5.0266  -22.3169   -8.7847 C   0  0  0  0  0  0
   -3.6679  -22.7100   -8.9866 C   0  0  0  0  0  0
   -2.9532  -22.1464  -10.0551 C   0  0  0  0  0  0
   -3.5353  -21.2205  -10.9175 C   0  0  0  0  0  0
   -4.8572  -20.8256  -10.7255 C   0  0  0  0  0  0
   -3.1291  -23.6400   -8.1120 O   0  0  0  0  0  0
   -1.7655  -24.0281   -8.2486 C   0  0  0  0  0  0
   -2.7303  -20.6524  -12.0811 C   0  0  0  0  0  0
   -2.8942  -19.2384  -12.2099 O   0  0  0  0  0  0
   -2.3093  -18.4191  -11.1915 C   0  0  2  0  0  0
   -2.9860  -17.0278  -11.2484 C   0  0  2  0  0  0
   -2.2229  -16.0197  -10.3393 C   0  0  1  0  0  0
   -0.7028  -16.0157  -10.6310 C   0  0  0  0  0  0
   -0.1222  -17.3514  -10.5247 N   0  0  1  0  0  0
   -0.7719  -18.3249  -11.4028 C   0  0  0  0  0  0
   -4.4987  -17.0796  -10.9907 C   0  0  0  0  0  0
   -5.0078  -17.2119   -9.6915 C   0  0  0  0  0  0
   -6.3831  -17.2710   -9.4837 C   0  0  0  0  0  0
   -7.2713  -17.2181  -10.5568 C   0  0  0  0  0  0
   -6.7607  -17.0640  -11.8549 C   0  0  0  0  0  0
   -5.3855  -17.0024  -12.0678 C   0  0  0  0  0  0
   -2.7218  -14.6780  -10.3430 O   0  0  0  0  0  0
   -2.9922  -14.1039  -11.6210 C   0  0  0  0  0  0
   -2.8960  -12.5758  -11.5579 C   0  0  1  0  0  0
   -3.0084  -11.9220  -12.9530 C   0  0  0  0  0  0
   -3.8671  -12.0623  -10.6645 O   0  0  0  0  0  0
   -4.2694  -12.0658  -13.5707 O   0  0  0  0  0  0
   -8.6130  -17.3428  -10.2449 O   0  0  0  0  0  0
   -9.5830  -17.2914  -11.2866 C   0  0  0  0  0  0
  -10.9389  -17.8408  -10.8146 C   0  0  0  0  0  0
  -11.6989  -16.9541   -9.8169 C   0  0  0  0  0  0
  -10.9887  -16.8626   -8.5914 O   0  0  0  0  0  0
  -11.6885  -16.2298   -7.5224 C   0  0  0  0  0  0
  -11.9761  -14.7390   -7.7486 C   0  0  0  0  0  0
  -13.1886  -14.2225   -7.2751 C   0  0  0  0  0  0
  -13.4691  -12.8611   -7.3767 C   0  0  0  0  0  0
  -12.5382  -11.9998   -7.9473 C   0  0  0  0  0  0
  -11.3312  -12.5047   -8.4209 C   0  0  0  0  0  0
  -11.0365  -13.8782   -8.3438 C   0  0  0  0  0  0
   -9.8596  -14.4295   -8.8196 O   0  0  0  0  0  0
   -8.7850  -13.5937   -9.2202 C   0  0  0  0  0  0
   -8.7351  -21.2090   -8.2748 H   0  0  0  0  0  0
   -7.7344  -22.8632   -6.7572 H   0  0  0  0  0  0
   -5.3860  -23.5680   -7.0494 H   0  0  0  0  0  0
   -7.4176  -20.2387  -10.1223 H   0  0  0  0  0  0
   -1.9280  -22.4295  -10.2304 H   0  0  0  0  0  0
   -5.3097  -20.1001  -11.3903 H   0  0  0  0  0  0
   -1.5317  -24.7896   -7.5048 H   0  0  0  0  0  0
   -1.5662  -24.4625   -9.2302 H   0  0  0  0  0  0
   -1.0905  -23.1866   -8.0908 H   0  0  0  0  0  0
   -1.6759  -20.9216  -12.0136 H   0  0  0  0  0  0
   -3.1027  -21.1132  -12.9961 H   0  0  0  0  0  0
   -2.5162  -18.8734  -10.2216 H   0  0  0  0  0  0
   -2.8726  -16.6842  -12.2773 H   0  0  0  0  0  0
   -2.3423  -16.3164   -9.2955 H   0  0  0  0  0  0
   -0.2025  -15.3807   -9.9009 H   0  0  0  0  0  0
   -0.4888  -15.5960  -11.6131 H   0  0  0  0  0  0
    0.8731  -17.3271  -10.6997 H   0  0  0  0  0  0
   -0.3150  -19.2925  -11.1990 H   0  0  0  0  0  0
   -0.5507  -18.0844  -12.4433 H   0  0  0  0  0  0
   -4.3440  -17.2762   -8.8430 H   0  0  0  0  0  0
   -6.7703  -17.3722   -8.4812 H   0  0  0  0  0  0
   -7.4073  -17.0000  -12.7177 H   0  0  0  0  0  0
   -5.0152  -16.8978  -13.0771 H   0  0  0  0  0  0
   -2.2676  -14.4472  -12.3621 H   0  0  0  0  0  0
   -3.9797  -14.4159  -11.9651 H   0  0  0  0  0  0
   -1.9183  -12.3243  -11.1439 H   0  0  0  0  0  0
   -2.8020  -10.8643  -12.8740 H   0  0  0  0  0  0
   -2.2642  -12.3434  -13.6262 H   0  0  0  0  0  0
   -3.8673  -12.6298   -9.8874 H   0  0  0  0  0  0
   -4.3709  -12.9952  -13.8036 H   0  0  0  0  0  0
   -9.6821  -16.2604  -11.6217 H   0  0  0  0  0  0
   -9.2742  -17.9003  -12.1385 H   0  0  0  0  0  0
  -11.5703  -17.9806  -11.6916 H   0  0  0  0  0  0
  -10.7957  -18.8344  -10.3890 H   0  0  0  0  0  0
  -11.8737  -15.9648  -10.2450 H   0  0  0  0  0  0
  -12.6689  -17.4080   -9.6222 H   0  0  0  0  0  0
  -12.6031  -16.7835   -7.3019 H   0  0  0  0  0  0
  -11.0641  -16.3113   -6.6328 H   0  0  0  0  0  0
  -13.9113  -14.8756   -6.8116 H   0  0  0  0  0  0
  -14.4008  -12.4631   -7.0012 H   0  0  0  0  0  0
  -12.7518  -10.9423   -8.0234 H   0  0  0  0  0  0
  -10.6448  -11.8065   -8.8692 H   0  0  0  0  0  0
   -7.9054  -14.2078   -9.4133 H   0  0  0  0  0  0
   -9.0176  -13.0642  -10.1394 H   0  0  0  0  0  0
   -8.5205  -12.8732   -8.4432 H   0  0  0  0  0  0
  1  2  2  0  0  0
  1  4  1  0  0  0
  1 47  1  0  0  0
  2  3  1  0  0  0
  2 48  1  0  0  0
  3  6  2  0  0  0
  3 49  1  0  0  0
  4  5  2  0  0  0
  4 50  1  0  0  0
  5  6  1  0  0  0
  5 10  1  0  0  0
  6  7  1  0  0  0
  7 11  1  0  0  0
  7  8  2  0  0  0
  8  9  1  0  0  0
  8 51  1  0  0  0
  9 13  1  0  0  0
  9 10  2  0  0  0
 10 52  1  0  0  0
 11 12  1  0  0  0
 12 53  1  0  0  0
 12 54  1  0  0  0
 12 55  1  0  0  0
 13 14  1  0  0  0
 13 56  1  0  0  0
 13 57  1  0  0  0
 14 15  1  0  0  0
 15 16  1  0  0  0
 15 20  1  0  0  0
 15 58  1  0  0  0
 16 21  1  0  0  0
 16 17  1  0  0  0
 16 59  1  0  0  0
 17 27  1  0  0  0
 17 18  1  0  0  0
 17 60  1  0  0  0
 18 19  1  0  0  0
 18 61  1  0  0  0
 18 62  1  0  0  0
 19 20  1  0  0  0
 19 63  1  0  0  0
 20 64  1  0  0  0
 20 65  1  0  0  0
 21 26  1  0  0  0
 21 22  2  0  0  0
 22 23  1  0  0  0
 22 66  1  0  0  0
 23 24  2  0  0  0
 23 67  1  0  0  0
 24 25  1  0  0  0
 24 33  1  0  0  0
 25 26  2  0  0  0
 25 68  1  0  0  0
 26 69  1  0  0  0
 27 28  1  0  0  0
 28 29  1  0  0  0
 28 70  1  0  0  0
 28 71  1  0  0  0
 29 30  1  0  0  0
 29 31  1  0  0  0
 29 72  1  0  0  0
 30 32  1  0  0  0
 30 73  1  0  0  0
 30 74  1  0  0  0
 31 75  1  0  0  0
 32 76  1  0  0  0
 33 34  1  0  0  0
 34 35  1  0  0  0
 34 77  1  0  0  0
 34 78  1  0  0  0
 35 36  1  0  0  0
 35 79  1  0  0  0
 35 80  1  0  0  0
 36 37  1  0  0  0
 36 81  1  0  0  0
 36 82  1  0  0  0
 37 38  1  0  0  0
 38 39  1  0  0  0
 38 83  1  0  0  0
 38 84  1  0  0  0
 39 40  2  0  0  0
 39 44  1  0  0  0
 40 41  1  0  0  0
 40 85  1  0  0  0
 41 42  2  0  0  0
 41 86  1  0  0  0
 42 43  1  0  0  0
 42 87  1  0  0  0
 43 44  2  0  0  0
 43 88  1  0  0  0
 44 45  1  0  0  0
 45 46  1  0  0  0
 46 89  1  0  0  0
 46 90  1  0  0  0
 46 91  1  0  0  0
M  END
> <s_m_entry_id>
26254

> <s_m_entry_name>
dock_pv.78

> <s_m_Source_Path>
/home/csk/Desktop/cluster/DUD-E-result/reni

> <s_m_Source_File>
dock_pv.maegz

> <i_m_Source_File_Index>
78

> <chembl_id>
CHEMBL1276276

> <chembl_pref_name>
None

> <i_lp_mmshare_version>
53161

> <r_lp_tautomer_probability>
1

> <s_lp_Force_Field>
OPLS_2005

> <r_lp_Energy>
54.479009

> <b_lp_Chiralities_Consistent>
1

> <s_lp_Variant>
CHEMBL286_lig2043-1

> <s_i_glide_gridfile>
glide-grid_3g6z

> <i_i_glide_lignum>
5851

> <i_i_glide_rotatable_bonds>
19

> <r_i_docking_score>
-7.9754575028708

> <r_i_glide_ligand_efficiency>
-0.173379510931974

> <r_i_glide_ligand_efficiency_sa>
-0.621227086729776

> <r_i_glide_ligand_efficiency_ln>
-1.65169803428968

> <r_i_glide_gscore>
-7.9754575028708

> <r_i_glide_lipo>
-4.510260055866

> <r_i_glide_hbond>
0

> <r_i_glide_metal>
0

> <r_i_glide_rewards>
-0.499999762061542

> <r_i_glide_evdw>
-52.9808311462402

> <r_i_glide_ecoul>
-6.476393699646

> <r_i_glide_erotb>
0.655302927315653

> <r_i_glide_esite>
0

> <r_i_glide_emodel>
-80.7715366350768

> <r_i_glide_energy>
-59.4572248458862

> <r_i_glide_einternal>
13.7663125991821

> <i_i_glide_confnum>
26

> <i_i_glide_posenum>
85

> <r_i_glide_eff_state_penalty>
0

> <s_user_duplicate_titles>
CHEMBL286_lig2043

> <i_f3d_flags>
0

> <s_m_subgroup_title>
dock_pv

> <s_m_subgroupid>
dock_pv

> <b_m_subgroup_collapsed>
1

$$$$
CHEMBL286_lig1945
                    3D
 Schrodinger Suite 2021-1.
 83 87  0  0  1  0            999 V2000
   -6.7156  -20.4451  -10.3545 C   0  0  0  0  0  0
   -5.2709  -20.9743  -10.5434 C   0  0  0  0  0  0
   -4.2637  -19.9142  -10.4861 N   0  0  2  0  0  0
   -4.5446  -18.9083  -11.5068 C   0  0  0  0  0  0
   -5.8812  -18.2100  -11.1534 C   0  0  2  0  0  0
   -7.1015  -19.1916  -11.2014 C   0  0  2  0  0  0
   -6.0541  -16.9222  -12.0100 C   0  0  0  0  0  0
   -6.4215  -15.7179  -11.4774 N   0  0  0  0  0  0
   -5.8690  -17.0568  -13.2209 O   0  0  0  0  0  0
   -8.3698  -18.4887  -10.6516 C   0  0  0  0  0  0
   -7.2570  -19.6438  -12.5443 O   0  0  0  0  0  0
   -6.6376  -14.5865  -12.4065 C   0  0  0  0  0  0
   -6.4411  -15.3890  -10.0301 C   0  0  0  0  0  0
   -7.9160  -14.5495  -13.2207 C   0  0  0  0  0  0
   -7.6878  -13.5268  -12.1416 C   0  0  0  0  0  0
   -5.3142  -14.5065   -9.4748 C   0  0  0  0  0  0
   -4.3827  -13.8985  -10.3245 C   0  0  0  0  0  0
   -3.4226  -13.0064   -9.8409 C   0  0  0  0  0  0
   -3.3695  -12.7482   -8.4700 C   0  0  0  0  0  0
   -4.2584  -13.3771   -7.6037 C   0  0  0  0  0  0
   -5.2218  -14.2571   -8.0952 C   0  0  0  0  0  0
   -6.2694  -15.0331   -6.9621 Cl  0  0  0  0  0  0
   -9.4553  -18.1886  -11.4868 C   0  0  0  0  0  0
  -10.5655  -17.5111  -10.9940 C   0  0  0  0  0  0
  -10.6215  -17.1173   -9.6614 C   0  0  0  0  0  0
   -9.5502  -17.4312   -8.8115 C   0  0  0  0  0  0
   -8.4376  -18.1057   -9.3058 C   0  0  0  0  0  0
  -11.7575  -16.4324   -9.2768 O   0  0  0  0  0  0
  -11.8667  -15.9376   -7.9451 C   0  0  0  0  0  0
  -12.9252  -14.8307   -7.8915 C   0  0  0  0  0  0
  -12.5268  -13.7448   -8.7319 O   0  0  0  0  0  0
  -12.1250  -12.6030   -8.0757 C   0  0  0  0  0  0
  -10.7677  -12.2577   -8.0249 C   0  0  0  0  0  0
  -10.3601  -11.0769   -7.4030 C   0  0  0  0  0  0
  -11.2941  -10.2459   -6.7891 C   0  0  0  0  0  0
  -12.6448  -10.5994   -6.8211 C   0  0  0  0  0  0
  -13.0681  -11.7457   -7.4900 C   0  0  0  0  0  0
  -10.8456   -8.9701   -6.1024 C   0  0  0  0  0  0
   -9.5662  -13.2636   -8.7542 Cl  0  0  0  0  0  0
  -14.7641  -12.0630   -7.6193 Cl  0  0  0  0  0  0
   -2.4256  -12.3214  -10.7721 C   0  0  0  0  0  0
   -2.7051  -12.4458  -12.2827 C   0  0  0  0  0  0
   -3.8258  -11.6643  -12.6768 O   0  0  0  0  0  0
   -3.9441  -11.5667  -14.0914 C   0  0  0  0  0  0
   -6.8983  -20.2987   -9.2903 H   0  0  0  0  0  0
   -7.4170  -21.2486  -10.5831 H   0  0  0  0  0  0
   -5.0402  -21.6900   -9.7549 H   0  0  0  0  0  0
   -5.1864  -21.5135  -11.4891 H   0  0  0  0  0  0
   -3.3461  -20.3117  -10.6403 H   0  0  0  0  0  0
   -4.6235  -19.4195  -12.4687 H   0  0  0  0  0  0
   -3.7191  -18.1988  -11.5977 H   0  0  0  0  0  0
   -5.7313  -17.8753  -10.1347 H   0  0  0  0  0  0
   -7.2282  -18.8773  -13.1342 H   0  0  0  0  0  0
   -5.7326  -14.2877  -12.9374 H   0  0  0  0  0  0
   -6.5015  -16.2709   -9.4038 H   0  0  0  0  0  0
   -7.3793  -14.8795   -9.8155 H   0  0  0  0  0  0
   -7.8531  -14.2365  -14.2609 H   0  0  0  0  0  0
   -8.6498  -15.3446  -13.0699 H   0  0  0  0  0  0
   -8.2685  -13.5735  -11.2254 H   0  0  0  0  0  0
   -7.4536  -12.4993  -12.4219 H   0  0  0  0  0  0
   -4.4081  -14.1109  -11.3757 H   0  0  0  0  0  0
   -2.6315  -12.0645   -8.0722 H   0  0  0  0  0  0
   -4.1998  -13.1794   -6.5423 H   0  0  0  0  0  0
   -9.4477  -18.4620  -12.5306 H   0  0  0  0  0  0
  -11.3853  -17.2748  -11.6592 H   0  0  0  0  0  0
   -9.5557  -17.1581   -7.7670 H   0  0  0  0  0  0
   -7.6192  -18.3080   -8.6307 H   0  0  0  0  0  0
  -12.1125  -16.7480   -7.2577 H   0  0  0  0  0  0
  -10.9299  -15.4949   -7.6204 H   0  0  0  0  0  0
  -13.8689  -15.2202   -8.2673 H   0  0  0  0  0  0
  -13.1083  -14.5361   -6.8550 H   0  0  0  0  0  0
   -9.3118  -10.8124   -7.3929 H   0  0  0  0  0  0
  -13.3845   -9.9465   -6.3821 H   0  0  0  0  0  0
   -9.8725   -9.1061   -5.6264 H   0  0  0  0  0  0
  -10.7642   -8.1602   -6.8261 H   0  0  0  0  0  0
  -11.5437   -8.6754   -5.3192 H   0  0  0  0  0  0
   -1.4419  -12.7449  -10.5619 H   0  0  0  0  0  0
   -2.3671  -11.2633  -10.5114 H   0  0  0  0  0  0
   -2.7887  -13.4879  -12.5825 H   0  0  0  0  0  0
   -1.8560  -12.0628  -12.8188 H   0  0  0  0  0  0
   -4.6690  -10.8032  -14.3487 H   0  0  0  0  0  0
   -4.2685  -12.5082  -14.5271 H   0  0  0  0  0  0
   -3.0127  -11.2670  -14.5731 H   0  0  0  0  0  0
  1  2  1  0  0  0
  1  6  1  0  0  0
  1 45  1  0  0  0
  1 46  1  0  0  0
  2  3  1  0  0  0
  2 47  1  0  0  0
  2 48  1  0  0  0
  3  4  1  0  0  0
  3 49  1  0  0  0
  4  5  1  0  0  0
  4 50  1  0  0  0
  4 51  1  0  0  0
  5  6  1  0  0  0
  5  7  1  0  0  0
  5 52  1  0  0  0
  6 11  1  0  0  0
  6 10  1  0  0  0
  7  8  1  0  0  0
  7  9  2  0  0  0
  8 12  1  0  0  0
  8 13  1  0  0  0
 10 23  2  0  0  0
 10 27  1  0  0  0
 11 53  1  0  0  0
 12 14  1  0  0  0
 12 15  1  0  0  0
 12 54  1  0  0  0
 13 16  1  0  0  0
 13 55  1  0  0  0
 13 56  1  0  0  0
 14 15  1  0  0  0
 14 57  1  0  0  0
 14 58  1  0  0  0
 15 59  1  0  0  0
 15 60  1  0  0  0
 16 21  1  0  0  0
 16 17  2  0  0  0
 17 18  1  0  0  0
 17 61  1  0  0  0
 18 19  2  0  0  0
 18 41  1  0  0  0
 19 20  1  0  0  0
 19 62  1  0  0  0
 20 21  2  0  0  0
 20 63  1  0  0  0
 21 22  1  0  0  0
 23 24  1  0  0  0
 23 64  1  0  0  0
 24 25  2  0  0  0
 24 65  1  0  0  0
 25 26  1  0  0  0
 25 28  1  0  0  0
 26 27  2  0  0  0
 26 66  1  0  0  0
 27 67  1  0  0  0
 28 29  1  0  0  0
 29 30  1  0  0  0
 29 68  1  0  0  0
 29 69  1  0  0  0
 30 31  1  0  0  0
 30 70  1  0  0  0
 30 71  1  0  0  0
 31 32  1  0  0  0
 32 33  2  0  0  0
 32 37  1  0  0  0
 33 34  1  0  0  0
 33 39  1  0  0  0
 34 35  2  0  0  0
 34 72  1  0  0  0
 35 36  1  0  0  0
 35 38  1  0  0  0
 36 37  2  0  0  0
 36 73  1  0  0  0
 37 40  1  0  0  0
 38 74  1  0  0  0
 38 75  1  0  0  0
 38 76  1  0  0  0
 41 42  1  0  0  0
 41 77  1  0  0  0
 41 78  1  0  0  0
 42 43  1  0  0  0
 42 79  1  0  0  0
 42 80  1  0  0  0
 43 44  1  0  0  0
 44 81  1  0  0  0
 44 82  1  0  0  0
 44 83  1  0  0  0
M  END
> <s_m_entry_id>
26255

> <s_m_entry_name>
dock_pv.79

> <s_m_Source_Path>
/home/csk/Desktop/cluster/DUD-E-result/reni

> <s_m_Source_File>
dock_pv.maegz

> <i_m_Source_File_Index>
79

> <chembl_id>
CHEMBL1269700

> <chembl_pref_name>
None

> <i_lp_mmshare_version>
53161

> <r_lp_tautomer_probability>
1

> <s_lp_Force_Field>
OPLS_2005

> <r_lp_Energy>
71.204286

> <b_lp_Chiralities_Consistent>
1

> <s_lp_Variant>
CHEMBL286_lig1945-1

> <s_i_glide_gridfile>
glide-grid_3g6z

> <i_i_glide_lignum>
5734

> <i_i_glide_rotatable_bonds>
15

> <r_i_docking_score>
-7.97434245072297

> <r_i_glide_ligand_efficiency>
-0.181235055698249

> <r_i_glide_ligand_efficiency_sa>
-0.63982287637997

> <r_i_glide_ligand_efficiency_ln>
-1.66681153150528

> <r_i_glide_gscore>
-7.97434245072297

> <r_i_glide_lipo>
-5.37445036450834

> <r_i_glide_hbond>
0

> <r_i_glide_metal>
0

> <r_i_glide_rewards>
0.563624549383315

> <r_i_glide_evdw>
-63.2340126037598

> <r_i_glide_ecoul>
-3.15422296524048

> <r_i_glide_erotb>
0.473929952498257

> <r_i_glide_esite>
-0.00261251312213564

> <r_i_glide_emodel>
-92.938785845126

> <r_i_glide_energy>
-66.3882355690002

> <r_i_glide_einternal>
8.82194995880127

> <i_i_glide_confnum>
46

> <i_i_glide_posenum>
286

> <r_i_glide_eff_state_penalty>
0

> <s_user_duplicate_titles>
CHEMBL286_lig1945

> <i_f3d_flags>
0

> <s_m_subgroup_title>
dock_pv

> <s_m_subgroupid>
dock_pv

> <b_m_subgroup_collapsed>
1

$$$$
CHEMBL286_lig55
                    3D
 Schrodinger Suite 2021-1.
113115  0  0  1  0            999 V2000
   -9.1321  -18.0018  -10.4351 C   0  0  0  0  0  0
   -7.8646  -15.6609   -8.8213 C   0  0  0  0  0  0
   -8.7382  -12.1103   -8.0210 C   0  0  0  0  0  0
   -9.1342  -15.8729   -9.2231 N   0  0  0  0  0  0
   -8.4343  -19.0560   -9.9800 N   0  0  0  0  0  0
   -9.8258  -17.1436   -9.3698 C   0  0  1  0  0  0
  -12.9535  -16.4625   -7.8608 N   0  0  0  0  0  0
   -8.5589  -13.2628   -8.7713 N   0  0  0  0  0  0
   -7.3849  -14.1815   -8.7493 C   0  0  1  0  0  0
   -5.6429  -20.1387  -12.5399 C   0  0  0  0  0  0
  -12.0596  -15.9646   -8.7937 C   0  0  0  0  0  0
   -7.6583  -19.9962  -10.8036 C   0  0  2  0  0  0
   -4.6693  -21.1821  -11.9039 C   0  0  2  0  0  0
   -3.4701  -20.5401  -11.3339 N   0  0  0  0  0  0
  -11.2956  -16.8483   -9.7528 C   0  0  0  0  0  0
  -13.0368  -14.2566   -7.6616 N   0  0  0  0  0  0
  -13.4925  -15.4209   -7.2248 C   0  0  0  0  0  0
   -2.5339  -19.8437  -12.0076 C   0  0  0  0  0  0
   -6.4936  -19.2749  -11.5733 C   0  0  1  0  0  0
  -10.0756  -11.8229   -8.0103 O   0  0  0  0  0  0
  -12.1320  -14.5938   -8.6676 C   0  0  0  0  0  0
   -7.8751  -11.4580   -7.4418 O   0  0  0  0  0  0
   -9.2675  -17.7063  -11.6207 O   0  0  0  0  0  0
   -7.1079  -16.5723   -8.4909 O   0  0  0  0  0  0
   -6.2783  -13.9362   -7.6582 C   0  0  0  0  0  0
   -8.5205  -20.8891  -11.7450 C   0  0  0  0  0  0
   -2.5812  -19.6627  -13.2206 O   0  0  0  0  0  0
  -10.6875  -10.6803   -7.3646 C   0  0  0  0  0  0
   -4.3449  -22.4003  -12.8358 C   0  0  0  0  0  0
   -5.2431  -12.8504   -7.9412 C   0  0  0  0  0  0
   -5.6426  -18.6023  -10.6635 O   0  0  0  0  0  0
   -9.8803  -21.5037  -11.2689 C   0  0  0  0  0  0
   -1.3622  -19.2877  -11.1903 C   0  0  0  0  0  0
  -10.3068  -10.4587   -5.8801 C   0  0  0  0  0  0
  -12.1973  -10.9749   -7.4043 C   0  0  0  0  0  0
  -10.3928   -9.4144   -8.1807 C   0  0  0  0  0  0
   -5.5895  -23.2413  -13.2012 C   0  0  0  0  0  0
   -3.2561  -23.3380  -12.2597 C   0  0  0  0  0  0
   -4.9513  -11.8722   -6.9669 C   0  0  0  0  0  0
   -4.4951  -12.8631   -9.1385 C   0  0  0  0  0  0
  -11.0685  -20.5008  -11.1340 C   0  0  0  0  0  0
  -10.2580  -22.7548  -12.0976 C   0  0  0  0  0  0
   -0.7729  -17.9692  -11.7496 C   0  0  0  0  0  0
    0.5401  -17.5246  -11.0751 C   0  0  0  0  0  0
    1.7706  -18.3500  -11.4865 C   0  0  0  0  0  0
   -3.9990  -10.8948   -7.2209 C   0  0  0  0  0  0
   -3.5490  -11.8731   -9.3751 C   0  0  0  0  0  0
  -12.5058  -21.0711  -11.0655 C   0  0  0  0  0  0
  -11.6262  -23.3609  -11.7427 C   0  0  0  0  0  0
   -3.3123  -10.8891   -8.4261 C   0  0  0  0  0  0
  -12.7464  -22.3307  -11.9163 C   0  0  0  0  0  0
   -9.6964  -15.0754   -9.4651 H   0  0  0  0  0  0
   -8.3406  -19.1601   -8.9810 H   0  0  0  0  0  0
   -9.8064  -17.6595   -8.4078 H   0  0  0  0  0  0
   -9.2778  -13.4567   -9.4511 H   0  0  0  0  0  0
   -6.9153  -14.0932   -9.7287 H   0  0  0  0  0  0
   -6.3122  -20.6070  -13.2568 H   0  0  0  0  0  0
   -5.0784  -19.4551  -13.1719 H   0  0  0  0  0  0
   -7.1982  -20.6770  -10.0859 H   0  0  0  0  0  0
   -5.1817  -21.5999  -11.0363 H   0  0  0  0  0  0
   -3.3647  -20.6171  -10.3344 H   0  0  0  0  0  0
  -11.3446  -16.3743  -10.7366 H   0  0  0  0  0  0
  -11.8475  -17.7796   -9.8602 H   0  0  0  0  0  0
  -13.1987  -17.4309   -7.7230 H   0  0  0  0  0  0
  -14.2551  -15.5096   -6.4624 H   0  0  0  0  0  0
   -6.9385  -18.4970  -12.1972 H   0  0  0  0  0  0
  -11.6151  -13.8219   -9.2191 H   0  0  0  0  0  0
   -5.6840  -14.8331   -7.4854 H   0  0  0  0  0  0
   -6.7479  -13.7446   -6.6963 H   0  0  0  0  0  0
   -8.6690  -20.3149  -12.6569 H   0  0  0  0  0  0
   -7.8860  -21.7206  -12.0556 H   0  0  0  0  0  0
   -3.9394  -22.0081  -13.7696 H   0  0  0  0  0  0
   -5.0067  -18.0908  -11.1696 H   0  0  0  0  0  0
   -9.7405  -21.8927  -10.2579 H   0  0  0  0  0  0
   -1.6518  -19.1571  -10.1483 H   0  0  0  0  0  0
   -0.6073  -20.0640  -11.2222 H   0  0  0  0  0  0
   -9.2356  -10.3613   -5.7223 H   0  0  0  0  0  0
  -10.7593   -9.5454   -5.4942 H   0  0  0  0  0  0
  -10.6690  -11.2687   -5.2506 H   0  0  0  0  0  0
  -12.5471  -11.1678   -8.4179 H   0  0  0  0  0  0
  -12.4421  -11.8534   -6.8076 H   0  0  0  0  0  0
  -12.7820  -10.1464   -7.0019 H   0  0  0  0  0  0
  -10.7514   -9.5358   -9.2001 H   0  0  0  0  0  0
  -10.8858   -8.5383   -7.7564 H   0  0  0  0  0  0
   -9.3259   -9.2063   -8.2243 H   0  0  0  0  0  0
   -6.1080  -23.5958  -12.3122 H   0  0  0  0  0  0
   -6.3072  -22.6889  -13.8064 H   0  0  0  0  0  0
   -5.3153  -24.1156  -13.7935 H   0  0  0  0  0  0
   -3.5560  -23.7510  -11.2982 H   0  0  0  0  0  0
   -3.0567  -24.1749  -12.9315 H   0  0  0  0  0  0
   -2.3081  -22.8214  -12.1210 H   0  0  0  0  0  0
   -5.4790  -11.8598   -6.0234 H   0  0  0  0  0  0
   -4.6597  -13.6285   -9.8809 H   0  0  0  0  0  0
  -10.9274  -19.8467  -10.2845 H   0  0  0  0  0  0
  -11.0607  -19.8634  -12.0172 H   0  0  0  0  0  0
  -10.2679  -22.4716  -13.1512 H   0  0  0  0  0  0
   -9.4765  -23.5103  -12.0191 H   0  0  0  0  0  0
   -0.5988  -18.0625  -12.8205 H   0  0  0  0  0  0
   -1.5127  -17.1768  -11.6259 H   0  0  0  0  0  0
    0.7307  -16.4794  -11.3309 H   0  0  0  0  0  0
    0.4284  -17.5462   -9.9902 H   0  0  0  0  0  0
    2.6696  -17.9817  -10.9945 H   0  0  0  0  0  0
    1.6636  -19.4014  -11.2204 H   0  0  0  0  0  0
    1.9423  -18.2979  -12.5621 H   0  0  0  0  0  0
   -3.7975  -10.1366   -6.4775 H   0  0  0  0  0  0
   -2.9950  -11.8731  -10.3034 H   0  0  0  0  0  0
  -12.7546  -21.2631  -10.0226 H   0  0  0  0  0  0
  -13.2140  -20.3009  -11.3725 H   0  0  0  0  0  0
  -11.6142  -23.7242  -10.7140 H   0  0  0  0  0  0
  -11.8202  -24.2296  -12.3745 H   0  0  0  0  0  0
   -2.5760  -10.1233   -8.6185 H   0  0  0  0  0  0
  -13.7057  -22.7752  -11.6558 H   0  0  0  0  0  0
  -12.8252  -22.0634  -12.9693 H   0  0  0  0  0  0
  1  5  1  0  0  0
  1  6  1  0  0  0
  1 23  2  0  0  0
  2  4  1  0  0  0
  2  9  1  0  0  0
  2 24  2  0  0  0
  3  8  1  0  0  0
  3 20  1  0  0  0
  3 22  2  0  0  0
  4  6  1  0  0  0
  4 52  1  0  0  0
  5 12  1  0  0  0
  5 53  1  0  0  0
  6 15  1  0  0  0
  6 54  1  0  0  0
  7 11  1  0  0  0
  7 64  1  0  0  0
  7 17  1  0  0  0
  8  9  1  0  0  0
  8 55  1  0  0  0
  9 25  1  0  0  0
  9 56  1  0  0  0
 10 19  1  0  0  0
 10 13  1  0  0  0
 10 57  1  0  0  0
 10 58  1  0  0  0
 11 21  2  0  0  0
 11 15  1  0  0  0
 12 19  1  0  0  0
 12 26  1  0  0  0
 12 59  1  0  0  0
 13 14  1  0  0  0
 13 29  1  0  0  0
 13 60  1  0  0  0
 14 18  1  0  0  0
 14 61  1  0  0  0
 15 62  1  0  0  0
 15 63  1  0  0  0
 16 17  2  0  0  0
 16 21  1  0  0  0
 17 65  1  0  0  0
 18 27  2  0  0  0
 18 33  1  0  0  0
 19 31  1  0  0  0
 19 66  1  0  0  0
 20 28  1  0  0  0
 21 67  1  0  0  0
 25 30  1  0  0  0
 25 68  1  0  0  0
 25 69  1  0  0  0
 26 32  1  0  0  0
 26 70  1  0  0  0
 26 71  1  0  0  0
 28 34  1  0  0  0
 28 35  1  0  0  0
 28 36  1  0  0  0
 29 37  1  0  0  0
 29 38  1  0  0  0
 29 72  1  0  0  0
 30 39  2  0  0  0
 30 40  1  0  0  0
 31 73  1  0  0  0
 32 41  1  0  0  0
 32 42  1  0  0  0
 32 74  1  0  0  0
 33 43  1  0  0  0
 33 75  1  0  0  0
 33 76  1  0  0  0
 34 77  1  0  0  0
 34 78  1  0  0  0
 34 79  1  0  0  0
 35 80  1  0  0  0
 35 81  1  0  0  0
 35 82  1  0  0  0
 36 83  1  0  0  0
 36 84  1  0  0  0
 36 85  1  0  0  0
 37 86  1  0  0  0
 37 87  1  0  0  0
 37 88  1  0  0  0
 38 89  1  0  0  0
 38 90  1  0  0  0
 38 91  1  0  0  0
 39 46  1  0  0  0
 39 92  1  0  0  0
 40 47  2  0  0  0
 40 93  1  0  0  0
 41 48  1  0  0  0
 41 94  1  0  0  0
 41 95  1  0  0  0
 42 49  1  0  0  0
 42 96  1  0  0  0
 42 97  1  0  0  0
 43 44  1  0  0  0
 43 98  1  0  0  0
 43 99  1  0  0  0
 44 45  1  0  0  0
 44100  1  0  0  0
 44101  1  0  0  0
 45102  1  0  0  0
 45103  1  0  0  0
 45104  1  0  0  0
 46 50  2  0  0  0
 46105  1  0  0  0
 47 50  1  0  0  0
 47106  1  0  0  0
 48 51  1  0  0  0
 48107  1  0  0  0
 48108  1  0  0  0
 49 51  1  0  0  0
 49109  1  0  0  0
 49110  1  0  0  0
 50111  1  0  0  0
 51112  1  0  0  0
 51113  1  0  0  0
M  END
> <s_m_entry_id>
26256

> <s_m_entry_name>
dock_pv.80

> <s_m_Source_Path>
/home/csk/Desktop/cluster/DUD-E-result/reni

> <s_m_Source_File>
dock_pv.maegz

> <i_m_Source_File_Index>
80

> <chembl_id>
CHEMBL48481

> <chembl_pref_name>
None

> <i_lp_mmshare_version>
53161

> <r_lp_tautomer_probability>
0.499999999999999

> <s_lp_Force_Field>
OPLS_2005

> <r_lp_Energy>
21.166432

> <b_lp_Chiralities_Consistent>
1

> <s_lp_Variant>
CHEMBL286_lig55-2

> <s_i_glide_gridfile>
glide-grid_3g6z

> <i_i_glide_lignum>
62

> <i_i_glide_rotatable_bonds>
26

> <r_i_docking_score>
-7.96586504668386

> <r_i_glide_ligand_efficiency>
-0.156193432287919

> <r_i_glide_ligand_efficiency_sa>
-0.579232373301234

> <r_i_glide_ligand_efficiency_ln>
-1.61519600243521

> <r_i_glide_gscore>
-7.96586504668386

> <r_i_glide_lipo>
-4.88462442471657

> <r_i_glide_hbond>
0

> <r_i_glide_metal>
0

> <r_i_glide_rewards>
-0.815350833857388

> <r_i_glide_evdw>
-56.5960464477539

> <r_i_glide_ecoul>
-0.428057163953781

> <r_i_glide_erotb>
0.628121108870865

> <r_i_glide_esite>
0

> <r_i_glide_emodel>
-70.4282786355778

> <r_i_glide_energy>
-57.0241036117077

> <r_i_glide_einternal>
17.839038848877

> <i_i_glide_confnum>
7

> <i_i_glide_posenum>
100

> <r_i_glide_eff_state_penalty>
0

> <s_user_duplicate_titles>
CHEMBL286_lig55

> <i_f3d_flags>
0

> <s_m_subgroup_title>
dock_pv

> <s_m_subgroupid>
dock_pv

> <b_m_subgroup_collapsed>
1

$$$$
CHEMBL286_lig1596
                    3D
 Schrodinger Suite 2021-1.
 51 53  0  0  1  0            999 V2000
   -5.2477  -13.7365   -9.7065 N   0  0  0  0  0  0
   -6.4367  -14.0502   -9.1191 C   0  0  0  0  0  0
   -7.4696  -14.7019   -9.8286 C   0  0  0  0  0  0
   -7.1801  -15.0246  -11.1730 C   0  0  0  0  0  0
   -6.0056  -14.7170  -11.7677 N   0  0  0  0  0  0
   -5.0965  -14.0783  -11.0050 C   0  0  0  0  0  0
   -8.7950  -15.0090   -9.2218 C   0  0  0  0  0  0
   -9.2238  -16.3287   -9.0793 C   0  0  0  0  0  0
  -10.5080  -16.6085   -8.6216 C   0  0  0  0  0  0
   -9.6704  -13.9797   -8.8629 C   0  0  0  0  0  0
   -3.9046  -13.7354  -11.6210 N   0  0  0  0  0  0
   -6.5855  -13.6649   -7.6402 C   0  0  0  0  0  0
   -5.5088  -12.7256   -7.0544 C   0  0  0  0  0  0
   -8.0982  -15.6749  -11.9927 N   0  0  0  0  0  0
  -10.9842  -14.2371   -8.4440 C   0  0  0  0  0  0
  -11.4065  -15.5821   -8.3161 C   0  0  0  0  0  0
  -12.8087  -15.9017   -7.8305 C   0  0  0  0  0  0
  -13.2524  -14.7940   -6.8729 C   0  0  0  0  0  0
  -13.1854  -13.4252   -7.5650 C   0  0  0  0  0  0
  -11.8868  -13.1875   -8.2166 N   0  0  0  0  0  0
  -11.5882  -11.7550   -8.2783 C   0  0  0  0  0  0
  -10.7234  -11.3777   -7.0637 C   0  0  0  0  0  0
  -10.7710   -9.8944   -6.7550 C   0  0  0  0  0  0
  -11.8697   -9.5565   -6.0685 O   0  0  0  0  0  0
  -12.0473   -8.2277   -5.6207 C   0  0  0  0  0  0
   -9.8708   -9.1432   -7.1141 O   0  0  0  0  0  0
   -8.5647  -17.1423   -9.3426 H   0  0  0  0  0  0
  -10.8177  -17.6385   -8.5282 H   0  0  0  0  0  0
   -9.3420  -12.9628   -9.0056 H   0  0  0  0  0  0
   -3.1719  -13.3126  -11.0772 H   0  0  0  0  0  0
   -3.7549  -14.0617  -12.5721 H   0  0  0  0  0  0
   -7.5476  -13.1760   -7.5000 H   0  0  0  0  0  0
   -6.6207  -14.5857   -7.0547 H   0  0  0  0  0  0
   -5.7363  -12.4708   -6.0193 H   0  0  0  0  0  0
   -4.5209  -13.1877   -7.0721 H   0  0  0  0  0  0
   -5.4522  -11.7897   -7.6140 H   0  0  0  0  0  0
   -8.9809  -15.9705  -11.6051 H   0  0  0  0  0  0
   -7.8212  -15.9486  -12.9263 H   0  0  0  0  0  0
  -12.8441  -16.8632   -7.3257 H   0  0  0  0  0  0
  -13.4708  -15.9613   -8.6915 H   0  0  0  0  0  0
  -12.5773  -14.7761   -6.0193 H   0  0  0  0  0  0
  -14.2429  -14.9900   -6.4707 H   0  0  0  0  0  0
  -13.6338  -12.5868   -7.0277 H   0  0  0  0  0  0
  -13.8332  -13.6234   -8.4202 H   0  0  0  0  0  0
  -12.5138  -11.1728   -8.3043 H   0  0  0  0  0  0
  -11.0706  -11.5249   -9.2109 H   0  0  0  0  0  0
   -9.6858  -11.6613   -7.2250 H   0  0  0  0  0  0
  -11.0704  -11.9011   -6.1723 H   0  0  0  0  0  0
  -13.0671   -8.0746   -5.2717 H   0  0  0  0  0  0
  -11.8458   -7.5000   -6.4100 H   0  0  0  0  0  0
  -11.3719   -8.0629   -4.7835 H   0  0  0  0  0  0
  1  6  1  0  0  0
  1  2  2  0  0  0
  2 12  1  0  0  0
  2  3  1  0  0  0
  3  4  2  0  0  0
  3  7  1  0  0  0
  4 14  1  0  0  0
  4  5  1  0  0  0
  5  6  2  0  0  0
  6 11  1  0  0  0
  7  8  2  0  0  0
  7 10  1  0  0  0
  8  9  1  0  0  0
  8 27  1  0  0  0
  9 16  2  0  0  0
  9 28  1  0  0  0
 10 15  2  0  0  0
 10 29  1  0  0  0
 11 30  1  0  0  0
 11 31  1  0  0  0
 12 13  1  0  0  0
 12 32  1  0  0  0
 12 33  1  0  0  0
 13 34  1  0  0  0
 13 35  1  0  0  0
 13 36  1  0  0  0
 14 37  1  0  0  0
 14 38  1  0  0  0
 15 16  1  0  0  0
 15 20  1  0  0  0
 16 17  1  0  0  0
 17 18  1  0  0  0
 17 39  1  0  0  0
 17 40  1  0  0  0
 18 19  1  0  0  0
 18 41  1  0  0  0
 18 42  1  0  0  0
 19 20  1  0  0  0
 19 43  1  0  0  0
 19 44  1  0  0  0
 20 21  1  0  0  0
 21 22  1  0  0  0
 21 45  1  0  0  0
 21 46  1  0  0  0
 22 23  1  0  0  0
 22 47  1  0  0  0
 22 48  1  0  0  0
 23 24  1  0  0  0
 23 26  2  0  0  0
 24 25  1  0  0  0
 25 49  1  0  0  0
 25 50  1  0  0  0
 25 51  1  0  0  0
M  END
> <s_m_entry_id>
26257

> <s_m_entry_name>
dock_pv.81

> <s_m_Source_Path>
/home/csk/Desktop/cluster/DUD-E-result/reni

> <s_m_Source_File>
dock_pv.maegz

> <i_m_Source_File_Index>
81

> <chembl_id>
CHEMBL390642

> <chembl_pref_name>
None

> <i_lp_mmshare_version>
53161

> <r_lp_tautomer_probability>
0.999999624730965

> <s_lp_Force_Field>
OPLS_2005

> <r_lp_Energy>
15.527196

> <b_lp_Chiralities_Consistent>
1

> <s_lp_Variant>
CHEMBL286_lig1596-1

> <s_i_glide_gridfile>
glide-grid_3g6z

> <i_i_glide_lignum>
5300

> <i_i_glide_rotatable_bonds>
6

> <r_i_docking_score>
-7.96418475199822

> <r_i_glide_ligand_efficiency>
-0.306314798153778

> <r_i_glide_ligand_efficiency_sa>
-0.907456384240037

> <r_i_glide_ligand_efficiency_ln>
-1.87036265638514

> <r_i_glide_gscore>
-7.96418475199822

> <r_i_glide_lipo>
-3.42267906444345

> <r_i_glide_hbond>
-0.32

> <r_i_glide_metal>
0

> <r_i_glide_rewards>
-2.53317057110863

> <r_i_glide_evdw>
-37.9658126831055

> <r_i_glide_ecoul>
-2.25307130813599

> <r_i_glide_erotb>
0.605398638244242

> <r_i_glide_esite>
-0.0574824243147071

> <r_i_glide_emodel>
-52.9477467420641

> <r_i_glide_energy>
-40.2188839912415

> <r_i_glide_einternal>
8.31264114379883

> <i_i_glide_confnum>
169

> <i_i_glide_posenum>
392

> <r_i_glide_eff_state_penalty>
0

> <s_user_duplicate_titles>
CHEMBL286_lig1596,384152

> <i_f3d_flags>
0

> <s_m_subgroup_title>
dock_pv

> <s_m_subgroupid>
dock_pv

> <b_m_subgroup_collapsed>
1

$$$$
CHEMBL286_lig1224
                    3D
 Schrodinger Suite 2021-1.
 90 93  0  0  1  0            999 V2000
  -10.1589  -14.3468   -8.8210 C   0  0  0  0  0  0
   -9.1244  -20.7002  -11.2214 C   0  0  0  0  0  0
   -8.4953  -17.6279  -10.4348 C   0  0  0  0  0  0
   -9.5910  -23.1394  -10.9745 C   0  0  2  0  0  0
  -10.5122  -23.9245  -11.9687 C   0  0  1  0  0  0
   -8.9389  -21.9779  -11.5930 N   0  0  0  0  0  0
   -8.4711  -18.2785  -11.6179 N   0  0  0  0  0  0
  -11.3958  -13.9199   -8.4338 N   0  0  0  0  0  0
   -8.1307  -19.6923  -11.8425 C   0  0  1  0  0  0
   -8.9326  -16.1436  -10.4530 C   0  0  1  0  0  0
  -11.8185  -23.2009  -12.4005 C   0  0  0  0  0  0
   -4.1921  -17.3966  -12.1830 N   0  0  0  0  0  0
   -6.6018  -14.9894   -9.6987 C   0  0  0  0  0  0
   -9.9443  -15.8156   -9.2826 C   0  0  0  0  0  0
   -5.6208  -19.0612  -11.9075 C   0  0  0  0  0  0
   -6.6778  -20.0059  -11.3952 C   0  0  0  0  0  0
   -7.7137  -15.2032  -10.7458 C   0  0  0  0  0  0
   -4.9833  -19.2424  -13.1389 N   0  0  0  0  0  0
   -4.1452  -18.2177  -13.2310 C   0  0  0  0  0  0
   -5.4433  -14.2196  -10.0659 C   0  0  0  0  0  0
   -5.1162  -17.9274  -11.3033 C   0  0  0  0  0  0
   -9.2026  -13.5730   -8.8512 O   0  0  0  0  0  0
   -8.1926  -18.1702   -9.3707 O   0  0  0  0  0  0
  -10.0064  -20.3386  -10.4392 O   0  0  0  0  0  0
   -8.5341  -24.0695  -10.3150 C   0  0  0  0  0  0
  -12.2646  -23.2573  -13.5519 O   0  0  0  0  0  0
   -4.4201  -13.9936   -9.0880 C   0  0  0  0  0  0
   -9.7921  -24.3525  -13.1244 O   0  0  0  0  0  0
  -12.4007  -22.5229  -11.3900 O   0  0  0  0  0  0
  -12.5409  -14.8346   -8.2104 C   0  0  0  0  0  0
  -11.6519  -12.4640   -8.2908 C   0  0  0  0  0  0
   -6.6922  -15.4957   -8.3973 C   0  0  0  0  0  0
   -5.6971  -15.2644   -7.4586 C   0  0  0  0  0  0
   -7.4764  -23.3956   -9.3941 C   0  0  0  0  0  0
   -5.2505  -13.6622  -11.3659 C   0  0  0  0  0  0
   -4.5687  -14.5259   -7.7870 C   0  0  0  0  0  0
   -3.2702  -13.2390   -9.4339 C   0  0  0  0  0  0
  -13.5839  -21.7708  -11.6129 C   0  0  0  0  0  0
   -6.4320  -24.4151   -8.9068 C   0  0  0  0  0  0
   -8.0885  -22.6461   -8.1951 C   0  0  0  0  0  0
  -13.1375  -14.5264   -6.8217 C   0  0  0  0  0  0
  -12.2298  -12.1948   -6.8903 C   0  0  0  0  0  0
   -4.1091  -12.9251  -11.6705 C   0  0  0  0  0  0
   -3.1242  -12.7174  -10.7137 C   0  0  0  0  0  0
  -13.4758  -13.0441   -6.6294 C   0  0  0  0  0  0
  -10.2189  -22.8108  -10.1430 H   0  0  0  0  0  0
  -10.8471  -24.8315  -11.4654 H   0  0  0  0  0  0
   -8.2117  -22.1822  -12.2642 H   0  0  0  0  0  0
   -8.6778  -17.7747  -12.4757 H   0  0  0  0  0  0
   -8.1821  -19.8247  -12.9251 H   0  0  0  0  0  0
   -9.5401  -16.0632  -11.3558 H   0  0  0  0  0  0
   -3.6681  -16.5393  -12.0681 H   0  0  0  0  0  0
  -10.8961  -16.2075   -9.6367 H   0  0  0  0  0  0
   -9.7057  -16.3731   -8.3767 H   0  0  0  0  0  0
   -6.6129  -20.0218  -10.3066 H   0  0  0  0  0  0
   -6.3945  -21.0077  -11.7198 H   0  0  0  0  0  0
   -8.0938  -14.2247  -11.0410 H   0  0  0  0  0  0
   -7.2279  -15.5884  -11.6459 H   0  0  0  0  0  0
   -3.4970  -18.0619  -14.0811 H   0  0  0  0  0  0
   -5.3529  -17.4653  -10.3566 H   0  0  0  0  0  0
   -9.0518  -24.8467   -9.7520 H   0  0  0  0  0  0
   -7.9994  -24.5967  -11.1083 H   0  0  0  0  0  0
   -9.5760  -23.5918  -13.6763 H   0  0  0  0  0  0
  -13.2852  -14.6565   -8.9865 H   0  0  0  0  0  0
  -12.2694  -15.8898   -8.1913 H   0  0  0  0  0  0
  -10.7683  -11.8427   -8.4514 H   0  0  0  0  0  0
  -12.3903  -12.1890   -9.0440 H   0  0  0  0  0  0
   -7.5450  -16.0707   -8.0836 H   0  0  0  0  0  0
   -5.8038  -15.6643   -6.4608 H   0  0  0  0  0  0
   -6.9271  -22.6630   -9.9863 H   0  0  0  0  0  0
   -5.9879  -13.8040  -12.1398 H   0  0  0  0  0  0
   -3.8000  -14.3567   -7.0467 H   0  0  0  0  0  0
   -2.5007  -13.0735   -8.6938 H   0  0  0  0  0  0
  -13.8709  -21.2629  -10.6939 H   0  0  0  0  0  0
  -13.4346  -21.0114  -12.3850 H   0  0  0  0  0  0
  -14.4052  -22.4185  -11.9236 H   0  0  0  0  0  0
   -6.8850  -25.1548   -8.2481 H   0  0  0  0  0  0
   -5.9667  -24.9410   -9.7410 H   0  0  0  0  0  0
   -5.6325  -23.9244   -8.3485 H   0  0  0  0  0  0
   -8.7072  -23.3036   -7.5839 H   0  0  0  0  0  0
   -7.3109  -22.2332   -7.5505 H   0  0  0  0  0  0
   -8.6993  -21.8039   -8.5141 H   0  0  0  0  0  0
  -14.0312  -15.1349   -6.6764 H   0  0  0  0  0  0
  -12.4305  -14.8424   -6.0523 H   0  0  0  0  0  0
  -11.4688  -12.3936   -6.1344 H   0  0  0  0  0  0
  -12.4755  -11.1362   -6.7950 H   0  0  0  0  0  0
   -3.9820  -12.5220  -12.6649 H   0  0  0  0  0  0
   -2.2406  -12.1509  -10.9709 H   0  0  0  0  0  0
  -13.8690  -12.8690   -5.6272 H   0  0  0  0  0  0
  -14.2682  -12.7535   -7.3216 H   0  0  0  0  0  0
  1  8  1  0  0  0
  1 14  1  0  0  0
  1 22  2  0  0  0
  2  9  1  0  0  0
  2  6  1  0  0  0
  2 24  2  0  0  0
  3 10  1  0  0  0
  3  7  1  0  0  0
  3 23  2  0  0  0
  4  6  1  0  0  0
  4  5  1  0  0  0
  4 25  1  0  0  0
  4 46  1  0  0  0
  5 11  1  0  0  0
  5 28  1  0  0  0
  5 47  1  0  0  0
  6 48  1  0  0  0
  7  9  1  0  0  0
  7 49  1  0  0  0
  8 30  1  0  0  0
  8 31  1  0  0  0
  9 16  1  0  0  0
  9 50  1  0  0  0
 10 14  1  0  0  0
 10 17  1  0  0  0
 10 51  1  0  0  0
 11 26  2  0  0  0
 11 29  1  0  0  0
 12 21  1  0  0  0
 12 19  1  0  0  0
 12 52  1  0  0  0
 13 17  1  0  0  0
 13 20  2  0  0  0
 13 32  1  0  0  0
 14 53  1  0  0  0
 14 54  1  0  0  0
 15 16  1  0  0  0
 15 18  1  0  0  0
 15 21  2  0  0  0
 16 55  1  0  0  0
 16 56  1  0  0  0
 17 57  1  0  0  0
 17 58  1  0  0  0
 18 19  2  0  0  0
 19 59  1  0  0  0
 20 27  1  0  0  0
 20 35  1  0  0  0
 21 60  1  0  0  0
 25 34  1  0  0  0
 25 61  1  0  0  0
 25 62  1  0  0  0
 27 37  1  0  0  0
 27 36  2  0  0  0
 28 63  1  0  0  0
 29 38  1  0  0  0
 30 41  1  0  0  0
 30 64  1  0  0  0
 30 65  1  0  0  0
 31 42  1  0  0  0
 31 66  1  0  0  0
 31 67  1  0  0  0
 32 33  2  0  0  0
 32 68  1  0  0  0
 33 36  1  0  0  0
 33 69  1  0  0  0
 34 39  1  0  0  0
 34 40  1  0  0  0
 34 70  1  0  0  0
 35 43  2  0  0  0
 35 71  1  0  0  0
 36 72  1  0  0  0
 37 44  2  0  0  0
 37 73  1  0  0  0
 38 74  1  0  0  0
 38 75  1  0  0  0
 38 76  1  0  0  0
 39 77  1  0  0  0
 39 78  1  0  0  0
 39 79  1  0  0  0
 40 80  1  0  0  0
 40 81  1  0  0  0
 40 82  1  0  0  0
 41 45  1  0  0  0
 41 83  1  0  0  0
 41 84  1  0  0  0
 42 45  1  0  0  0
 42 85  1  0  0  0
 42 86  1  0  0  0
 43 44  1  0  0  0
 43 87  1  0  0  0
 44 88  1  0  0  0
 45 89  1  0  0  0
 45 90  1  0  0  0
M  END
> <s_m_entry_id>
26258

> <s_m_entry_name>
dock_pv.82

> <s_m_Source_Path>
/home/csk/Desktop/cluster/DUD-E-result/reni

> <s_m_Source_File>
dock_pv.maegz

> <i_m_Source_File_Index>
82

> <chembl_id>
CHEMBL159336

> <chembl_pref_name>
None

> <i_lp_mmshare_version>
53161

> <r_lp_tautomer_probability>
0.499999999999999

> <s_lp_Force_Field>
OPLS_2005

> <r_lp_Energy>
46.115875

> <b_lp_Chiralities_Consistent>
1

> <s_lp_Variant>
CHEMBL286_lig1224-16

> <s_i_glide_gridfile>
glide-grid_3g6z

> <i_i_glide_lignum>
3976

> <i_i_glide_rotatable_bonds>
19

> <r_i_docking_score>
-7.9343405582588

> <r_i_glide_ligand_efficiency>
-0.176318679072418

> <r_i_glide_ligand_efficiency_sa>
-0.627146728253436

> <r_i_glide_ligand_efficiency_ln>
-1.65069641880305

> <r_i_glide_gscore>
-7.9343405582588

> <r_i_glide_lipo>
-2.73678425456104

> <r_i_glide_hbond>
-0.353546699125678

> <r_i_glide_metal>
0

> <r_i_glide_rewards>
-1.50049756140384

> <r_i_glide_evdw>
-53.4770927429199

> <r_i_glide_ecoul>
-7.81796073913574

> <r_i_glide_erotb>
0.582473839846423

> <r_i_glide_esite>
-0.0794371349983086

> <r_i_glide_emodel>
-84.111877466673

> <r_i_glide_energy>
-61.2950534820557

> <r_i_glide_einternal>
11.4804763793945

> <i_i_glide_confnum>
50

> <i_i_glide_posenum>
338

> <r_i_glide_eff_state_penalty>
0

> <s_user_duplicate_titles>
CHEMBL286_lig1224

> <i_f3d_flags>
0

> <s_m_subgroup_title>
dock_pv

> <s_m_subgroupid>
dock_pv

> <b_m_subgroup_collapsed>
1

$$$$
CHEMBL286_lig2476
                    3D
 Schrodinger Suite 2021-1.
 75 76  0  0  1  0            999 V2000
   -8.4904  -18.8575   -8.7583 C   0  0  0  0  0  0
   -8.0402  -17.4933   -9.3476 C   0  0  0  0  0  0
   -6.6385  -17.0751   -8.8485 C   0  0  0  0  0  0
  -13.3894  -15.4616   -7.5255 C   0  0  0  0  0  0
  -13.1655  -14.1321   -7.1790 C   0  0  0  0  0  0
  -12.0167  -13.4832   -7.6130 C   0  0  0  0  0  0
  -11.0688  -14.1599   -8.3789 C   0  0  0  0  0  0
  -11.2705  -15.5168   -8.7209 C   0  0  0  0  0  0
  -12.4500  -16.1472   -8.2926 C   0  0  0  0  0  0
  -10.3106  -16.2723   -9.4451 N   0  0  0  0  0  0
   -8.9916  -16.4043   -8.7946 C   0  0  0  0  0  0
   -8.1289  -17.4609  -10.8187 N   0  0  2  0  0  0
   -9.4807  -17.6047  -11.3930 C   0  0  0  0  0  0
  -10.6206  -16.8783  -10.6322 C   0  0  0  0  0  0
  -11.7491  -16.8608  -11.1253 O   0  0  0  0  0  0
   -7.2081  -18.3613  -11.5499 C   0  0  0  0  0  0
   -5.8741  -17.7004  -11.9856 C   0  0  1  0  0  0
   -4.9409  -18.7191  -12.7011 C   0  0  2  0  0  0
   -6.1052  -16.5180  -12.8096 N   0  0  0  0  0  0
   -3.4645  -18.2633  -12.8228 C   0  0  0  0  0  0
   -5.4677  -19.0587  -13.9742 O   0  0  0  0  0  0
   -2.6432  -18.3501  -11.4888 C   0  0  2  0  0  0
   -1.7050  -17.1273  -11.2993 C   0  0  0  0  0  0
   -2.2477  -16.0050  -10.7932 N   0  0  0  0  0  0
   -0.5177  -17.1874  -11.6213 O   0  0  0  0  0  0
   -1.9061  -19.7202  -11.2573 C   0  0  0  0  0  0
   -9.6570  -13.2632   -8.8216 Cl  0  0  0  0  0  0
   -0.9901  -20.1933  -12.4142 C   0  0  0  0  0  0
   -2.8547  -20.8625  -10.8437 C   0  0  0  0  0  0
   -1.4975  -14.7629  -10.5571 C   0  0  0  0  0  0
   -2.3572  -13.4708  -10.5513 C   0  0  0  0  0  0
   -1.4690  -12.3790  -10.4209 O   0  0  0  0  0  0
   -3.1220  -13.2565  -11.8695 C   0  0  0  0  0  0
   -3.3200  -13.4261   -9.3479 C   0  0  0  0  0  0
   -8.6692  -18.7879   -7.6860 H   0  0  0  0  0  0
   -9.4220  -19.2136   -9.1978 H   0  0  0  0  0  0
   -7.7469  -19.6360   -8.9212 H   0  0  0  0  0  0
   -6.6322  -16.8632   -7.7784 H   0  0  0  0  0  0
   -5.8939  -17.8423   -9.0498 H   0  0  0  0  0  0
   -6.2970  -16.1644   -9.3437 H   0  0  0  0  0  0
  -14.2867  -15.9650   -7.1961 H   0  0  0  0  0  0
  -13.8687  -13.5940   -6.5655 H   0  0  0  0  0  0
  -11.8557  -12.4510   -7.3378 H   0  0  0  0  0  0
  -12.6380  -17.1821   -8.5438 H   0  0  0  0  0  0
   -8.4967  -15.4575   -8.9968 H   0  0  0  0  0  0
   -9.0672  -16.4634   -7.7088 H   0  0  0  0  0  0
   -9.4717  -17.2252  -12.4162 H   0  0  0  0  0  0
   -9.7761  -18.6532  -11.4658 H   0  0  0  0  0  0
   -7.6822  -18.7688  -12.4472 H   0  0  0  0  0  0
   -6.9718  -19.2311  -10.9367 H   0  0  0  0  0  0
   -5.3577  -17.3513  -11.0957 H   0  0  0  0  0  0
   -4.9550  -19.6480  -12.1334 H   0  0  0  0  0  0
   -6.8173  -15.9501  -12.3677 H   0  0  0  0  0  0
   -5.2722  -15.9514  -12.9095 H   0  0  0  0  0  0
   -3.4693  -17.2536  -13.2287 H   0  0  0  0  0  0
   -2.9649  -18.8398  -13.5994 H   0  0  0  0  0  0
   -5.9984  -18.3089  -14.2868 H   0  0  0  0  0  0
   -3.3485  -18.2520  -10.6625 H   0  0  0  0  0  0
   -3.2199  -16.0095  -10.5250 H   0  0  0  0  0  0
   -1.2538  -19.5809  -10.3924 H   0  0  0  0  0  0
   -1.5600  -20.5171  -13.2850 H   0  0  0  0  0  0
   -0.2987  -19.4187  -12.7420 H   0  0  0  0  0  0
   -0.3821  -21.0433  -12.1016 H   0  0  0  0  0  0
   -3.4539  -21.2174  -11.6822 H   0  0  0  0  0  0
   -2.2915  -21.7193  -10.4727 H   0  0  0  0  0  0
   -3.5325  -20.5553  -10.0467 H   0  0  0  0  0  0
   -0.7190  -14.6563  -11.3173 H   0  0  0  0  0  0
   -0.9692  -14.8580   -9.6061 H   0  0  0  0  0  0
   -0.8095  -12.4517  -11.1260 H   0  0  0  0  0  0
   -3.8667  -14.0383  -12.0207 H   0  0  0  0  0  0
   -2.4512  -13.2640  -12.7304 H   0  0  0  0  0  0
   -3.6516  -12.3024  -11.8779 H   0  0  0  0  0  0
   -4.0602  -14.2250   -9.3952 H   0  0  0  0  0  0
   -2.7810  -13.5311   -8.4052 H   0  0  0  0  0  0
   -3.8637  -12.4817   -9.3058 H   0  0  0  0  0  0
  1  2  1  0  0  0
  1 35  1  0  0  0
  1 36  1  0  0  0
  1 37  1  0  0  0
  2  3  1  0  0  0
  2 11  1  0  0  0
  2 12  1  0  0  0
  3 38  1  0  0  0
  3 39  1  0  0  0
  3 40  1  0  0  0
  4  5  2  0  0  0
  4  9  1  0  0  0
  4 41  1  0  0  0
  5  6  1  0  0  0
  5 42  1  0  0  0
  6  7  2  0  0  0
  6 43  1  0  0  0
  7  8  1  0  0  0
  7 27  1  0  0  0
  8  9  2  0  0  0
  8 10  1  0  0  0
  9 44  1  0  0  0
 10 11  1  0  0  0
 10 14  1  0  0  0
 11 45  1  0  0  0
 11 46  1  0  0  0
 12 13  1  0  0  0
 12 16  1  0  0  0
 13 14  1  0  0  0
 13 47  1  0  0  0
 13 48  1  0  0  0
 14 15  2  0  0  0
 16 17  1  0  0  0
 16 49  1  0  0  0
 16 50  1  0  0  0
 17 18  1  0  0  0
 17 19  1  0  0  0
 17 51  1  0  0  0
 18 20  1  0  0  0
 18 21  1  0  0  0
 18 52  1  0  0  0
 19 53  1  0  0  0
 19 54  1  0  0  0
 20 22  1  0  0  0
 20 55  1  0  0  0
 20 56  1  0  0  0
 21 57  1  0  0  0
 22 23  1  0  0  0
 22 26  1  0  0  0
 22 58  1  0  0  0
 23 24  1  0  0  0
 23 25  2  0  0  0
 24 30  1  0  0  0
 24 59  1  0  0  0
 26 28  1  0  0  0
 26 29  1  0  0  0
 26 60  1  0  0  0
 28 61  1  0  0  0
 28 62  1  0  0  0
 28 63  1  0  0  0
 29 64  1  0  0  0
 29 65  1  0  0  0
 29 66  1  0  0  0
 30 31  1  0  0  0
 30 67  1  0  0  0
 30 68  1  0  0  0
 31 32  1  0  0  0
 31 33  1  0  0  0
 31 34  1  0  0  0
 32 69  1  0  0  0
 33 70  1  0  0  0
 33 71  1  0  0  0
 33 72  1  0  0  0
 34 73  1  0  0  0
 34 74  1  0  0  0
 34 75  1  0  0  0
M  END
> <s_m_entry_id>
26259

> <s_m_entry_name>
dock_pv.83

> <s_m_Source_Path>
/home/csk/Desktop/cluster/DUD-E-result/reni

> <s_m_Source_File>
dock_pv.maegz

> <i_m_Source_File_Index>
83

> <chembl_id>
CHEMBL2387451

> <chembl_pref_name>
None

> <i_lp_mmshare_version>
53161

> <r_lp_tautomer_probability>
1

> <s_lp_Force_Field>
OPLS_2005

> <r_lp_Energy>
72.71909

> <b_lp_Chiralities_Consistent>
1

> <s_lp_Variant>
CHEMBL286_lig2476-1

> <s_i_glide_gridfile>
glide-grid_3g6z

> <i_i_glide_lignum>
6536

> <i_i_glide_rotatable_bonds>
13

> <r_i_docking_score>
-7.92186743085037

> <r_i_glide_ligand_efficiency>
-0.232996100907364

> <r_i_glide_ligand_efficiency_sa>
-0.754816917263883

> <r_i_glide_ligand_efficiency_ln>
-1.75016271632984

> <r_i_glide_gscore>
-7.92186743085037

> <r_i_glide_lipo>
-2.69864502289352

> <r_i_glide_hbond>
-0.697090271005485

> <r_i_glide_metal>
0

> <r_i_glide_rewards>
-1.2950927138987

> <r_i_glide_evdw>
-39.8007011413574

> <r_i_glide_ecoul>
-13.7767715454102

> <r_i_glide_erotb>
0.825511365826726

> <r_i_glide_esite>
0

> <r_i_glide_emodel>
-70.0343775479724

> <r_i_glide_energy>
-53.5774726867676

> <r_i_glide_einternal>
15.0050640106201

> <i_i_glide_confnum>
7

> <i_i_glide_posenum>
288

> <r_i_glide_eff_state_penalty>
0

> <s_user_duplicate_titles>
CHEMBL286_lig2476

> <i_f3d_flags>
0

> <s_m_subgroup_title>
dock_pv

> <s_m_subgroupid>
dock_pv

> <b_m_subgroup_collapsed>
1

$$$$
CHEMBL286_lig1576
                    3D
 Schrodinger Suite 2021-1.
 73 76  0  0  1  0            999 V2000
  -10.9703  -11.9092   -7.7136 C   0  0  0  0  0  0
  -10.0842  -19.9238  -10.7379 N   0  0  0  0  0  0
  -10.3320  -10.5958   -7.2336 C   0  0  0  0  0  0
  -10.9491  -20.9782  -10.9090 C   0  0  0  0  0  0
   -8.7154  -20.1871  -10.5593 C   0  0  0  0  0  0
  -12.3402  -12.1842   -7.5388 C   0  0  0  0  0  0
  -10.4598  -18.4809  -10.8368 C   0  0  1  0  0  0
  -12.6690  -19.2639  -11.6210 N   0  0  1  0  0  0
  -10.1561  -12.8977   -8.2871 C   0  0  0  0  0  0
   -0.5301  -18.3897  -12.0209 C   0  0  0  0  0  0
  -10.6037  -22.1606  -10.8215 O   0  0  0  0  0  0
    0.1374  -17.3217  -11.3993 C   0  0  0  0  0  0
   -9.0013  -10.6675   -7.2211 F   0  0  0  0  0  0
  -10.6689   -9.5964   -8.0408 F   0  0  0  0  0  0
  -10.7164  -10.2963   -5.9943 F   0  0  0  0  0  0
   -8.2626  -20.6620   -9.3245 C   0  0  0  0  0  0
   -7.8179  -19.9528  -11.6048 C   0  0  0  0  0  0
  -12.8570  -13.4235   -7.9227 C   0  0  0  0  0  0
  -12.4325  -20.6484  -11.2210 C   0  0  0  0  0  0
  -10.6688  -14.1446   -8.6570 C   0  0  0  0  0  0
  -13.4336  -11.0324   -6.8465 Cl  0  0  0  0  0  0
  -11.9895  -18.2777  -10.8106 C   0  0  0  0  0  0
   -6.0016  -20.6777  -10.1819 C   0  0  0  0  0  0
  -10.4172  -16.2431   -9.8790 O   0  0  0  0  0  0
  -12.0294  -14.4023   -8.4698 C   0  0  0  0  0  0
   -6.9082  -20.9042   -9.1383 C   0  0  0  0  0  0
   -6.4642  -20.2114  -11.4118 C   0  0  0  0  0  0
   -0.6239  -16.3833  -10.7282 O   0  0  0  0  0  0
   -9.8145  -17.5328   -9.7940 C   0  0  0  0  0  0
   -2.5344  -20.6878   -8.9154 C   0  0  0  0  0  0
   -4.6482  -20.9062  -10.0734 O   0  0  0  0  0  0
   -2.0469  -18.5350  -11.9335 C   0  0  0  0  0  0
   -2.4098  -19.6093  -11.0734 O   0  0  0  0  0  0
    0.1914  -19.3531  -12.7310 C   0  0  0  0  0  0
   -9.7132  -15.1981   -9.2209 C   0  0  0  0  0  0
   -4.0521  -20.8774   -8.7808 C   0  0  0  0  0  0
   -2.1231  -19.4257   -9.6908 C   0  0  0  0  0  0
    1.5394  -17.2611  -11.4915 C   0  0  0  0  0  0
    0.0110  -15.2745  -10.0958 C   0  0  0  0  0  0
    1.5770  -19.2683  -12.8258 C   0  0  0  0  0  0
    2.2510  -18.2281  -12.1977 C   0  0  0  0  0  0
  -10.0998  -18.1433  -11.8101 H   0  0  0  0  0  0
  -12.4384  -19.0869  -12.5952 H   0  0  0  0  0  0
   -9.0993  -12.7134   -8.4224 H   0  0  0  0  0  0
   -8.9587  -20.8460   -8.5172 H   0  0  0  0  0  0
   -8.1628  -19.5806  -12.5616 H   0  0  0  0  0  0
  -13.9043  -13.6365   -7.7792 H   0  0  0  0  0  0
  -12.7585  -21.3154  -12.0205 H   0  0  0  0  0  0
  -13.0442  -20.9068  -10.3580 H   0  0  0  0  0  0
  -12.2403  -17.2895  -11.2003 H   0  0  0  0  0  0
  -12.3570  -18.3355   -9.7844 H   0  0  0  0  0  0
  -12.4465  -15.3609   -8.7403 H   0  0  0  0  0  0
   -6.5747  -21.2781   -8.1824 H   0  0  0  0  0  0
   -5.7648  -20.0359  -12.2153 H   0  0  0  0  0  0
   -9.9465  -17.9239   -8.7837 H   0  0  0  0  0  0
   -8.7414  -17.4643   -9.9829 H   0  0  0  0  0  0
   -2.0960  -21.5655   -9.3942 H   0  0  0  0  0  0
   -2.1015  -20.6451   -7.9151 H   0  0  0  0  0  0
   -2.5523  -17.6073  -11.6597 H   0  0  0  0  0  0
   -2.4164  -18.7853  -12.9308 H   0  0  0  0  0  0
   -0.3239  -20.1773  -13.2043 H   0  0  0  0  0  0
   -9.0880  -15.5865   -8.4209 H   0  0  0  0  0  0
   -9.0302  -14.7438   -9.9404 H   0  0  0  0  0  0
   -4.2698  -21.8086   -8.2543 H   0  0  0  0  0  0
   -4.4570  -20.0638   -8.1818 H   0  0  0  0  0  0
   -1.0571  -19.2606   -9.5483 H   0  0  0  0  0  0
   -2.6416  -18.5484   -9.3037 H   0  0  0  0  0  0
    2.0928  -16.4691  -11.0153 H   0  0  0  0  0  0
   -0.7446  -14.6597   -9.6090 H   0  0  0  0  0  0
    0.7142  -15.5984   -9.3264 H   0  0  0  0  0  0
    0.5316  -14.6434  -10.8194 H   0  0  0  0  0  0
    2.1262  -20.0242  -13.3687 H   0  0  0  0  0  0
    3.3298  -18.1776  -12.2533 H   0  0  0  0  0  0
  1  3  1  0  0  0
  1  6  1  0  0  0
  1  9  2  0  0  0
  2  7  1  0  0  0
  2  4  1  0  0  0
  2  5  1  0  0  0
  3 13  1  0  0  0
  3 14  1  0  0  0
  3 15  1  0  0  0
  4 11  2  0  0  0
  4 19  1  0  0  0
  5 16  1  0  0  0
  5 17  2  0  0  0
  6 18  2  0  0  0
  6 21  1  0  0  0
  7 29  1  0  0  0
  7 22  1  0  0  0
  7 42  1  0  0  0
  8 22  1  0  0  0
  8 19  1  0  0  0
  8 43  1  0  0  0
  9 20  1  0  0  0
  9 44  1  0  0  0
 10 32  1  0  0  0
 10 12  2  0  0  0
 10 34  1  0  0  0
 12 28  1  0  0  0
 12 38  1  0  0  0
 16 26  2  0  0  0
 16 45  1  0  0  0
 17 27  1  0  0  0
 17 46  1  0  0  0
 18 25  1  0  0  0
 18 47  1  0  0  0
 19 48  1  0  0  0
 19 49  1  0  0  0
 20 25  2  0  0  0
 20 35  1  0  0  0
 22 50  1  0  0  0
 22 51  1  0  0  0
 23 27  2  0  0  0
 23 31  1  0  0  0
 23 26  1  0  0  0
 24 35  1  0  0  0
 24 29  1  0  0  0
 25 52  1  0  0  0
 26 53  1  0  0  0
 27 54  1  0  0  0
 28 39  1  0  0  0
 29 55  1  0  0  0
 29 56  1  0  0  0
 30 36  1  0  0  0
 30 37  1  0  0  0
 30 57  1  0  0  0
 30 58  1  0  0  0
 31 36  1  0  0  0
 32 33  1  0  0  0
 32 59  1  0  0  0
 32 60  1  0  0  0
 33 37  1  0  0  0
 34 40  2  0  0  0
 34 61  1  0  0  0
 35 62  1  0  0  0
 35 63  1  0  0  0
 36 64  1  0  0  0
 36 65  1  0  0  0
 37 66  1  0  0  0
 37 67  1  0  0  0
 38 41  2  0  0  0
 38 68  1  0  0  0
 39 69  1  0  0  0
 39 70  1  0  0  0
 39 71  1  0  0  0
 40 41  1  0  0  0
 40 72  1  0  0  0
 41 73  1  0  0  0
M  END
> <s_m_entry_id>
26260

> <s_m_entry_name>
dock_pv.84

> <s_m_Source_Path>
/home/csk/Desktop/cluster/DUD-E-result/reni

> <s_m_Source_File>
dock_pv.maegz

> <i_m_Source_File_Index>
84

> <chembl_id>
CHEMBL196890

> <chembl_pref_name>
None

> <i_lp_mmshare_version>
53161

> <r_lp_tautomer_probability>
1

> <s_lp_Force_Field>
OPLS_2005

> <r_lp_Energy>
56.717485

> <b_lp_Chiralities_Consistent>
1

> <s_lp_Variant>
CHEMBL286_lig1576-1

> <s_i_glide_gridfile>
glide-grid_3g6z

> <i_i_glide_lignum>
5280

> <i_i_glide_rotatable_bonds>
14

> <r_i_docking_score>
-7.91435920473761

> <r_i_glide_ligand_efficiency>
-0.193033151335064

> <r_i_glide_ligand_efficiency_sa>
-0.665620239575032

> <r_i_glide_ligand_efficiency_ln>
-1.67905764306501

> <r_i_glide_gscore>
-7.91435920473761

> <r_i_glide_lipo>
-3.62819489306769

> <r_i_glide_hbond>
-0.340428217195748

> <r_i_glide_metal>
0

> <r_i_glide_rewards>
-1.40743947267168

> <r_i_glide_evdw>
-49.1659889221191

> <r_i_glide_ecoul>
-4.56281185150146

> <r_i_glide_erotb>
0.604424602028687

> <r_i_glide_esite>
0

> <r_i_glide_emodel>
-74.9763933445028

> <r_i_glide_energy>
-53.7288007736206

> <r_i_glide_einternal>
8.45244026184082

> <i_i_glide_confnum>
57

> <i_i_glide_posenum>
141

> <r_i_glide_eff_state_penalty>
0

> <s_user_duplicate_titles>
CHEMBL286_lig1576,326763

> <i_f3d_flags>
0

> <s_m_subgroup_title>
dock_pv

> <s_m_subgroupid>
dock_pv

> <b_m_subgroup_collapsed>
1

$$$$
CHEMBL286_lig1566
                    3D
 Schrodinger Suite 2021-1.
 73 76  0  0  1  0            999 V2000
   -7.2085  -18.3680  -11.7343 N   0  0  0  0  0  0
   -4.8971  -12.1932   -7.9401 C   0  0  0  0  0  0
   -7.1334  -19.7262  -11.9174 C   0  0  0  0  0  0
   -4.1371  -12.7861   -9.1242 C   0  0  0  0  0  0
   -8.1911  -17.8585  -10.8661 C   0  0  0  0  0  0
   -6.4152  -17.3606  -12.4996 C   0  0  2  0  0  0
   -5.8690  -19.2635  -14.0196 N   0  0  2  0  0  0
  -12.0030  -11.9486   -7.5595 C   0  0  0  0  0  0
   -7.8250  -20.5383  -11.2951 O   0  0  0  0  0  0
   -4.1877  -14.1651   -9.3711 C   0  0  0  0  0  0
  -10.6713  -12.1167   -7.9699 C   0  0  0  0  0  0
   -6.1305  -12.6952   -7.8709 F   0  0  0  0  0  0
   -4.2522  -12.5038   -6.8208 F   0  0  0  0  0  0
   -4.9901  -10.8641   -8.0142 F   0  0  0  0  0  0
   -7.9089  -17.6996   -9.5081 C   0  0  0  0  0  0
   -9.4568  -17.5488  -11.3683 C   0  0  0  0  0  0
   -6.1006  -20.2346  -12.9537 C   0  0  0  0  0  0
   -5.4087  -17.9901  -13.4998 C   0  0  0  0  0  0
  -10.1865  -16.9729   -9.1309 C   0  0  0  0  0  0
   -4.8574  -16.7507  -10.6988 O   0  0  0  0  0  0
   -3.4814  -14.7253  -10.4414 C   0  0  0  0  0  0
   -8.9086  -17.2536   -8.6478 C   0  0  0  0  0  0
  -10.4532  -17.1114  -10.5009 C   0  0  0  0  0  0
  -10.3563  -13.2629   -8.6798 O   0  0  0  0  0  0
   -5.7378  -16.2282  -11.6944 C   0  0  0  0  0  0
  -13.3469  -16.5095   -7.2675 C   0  0  0  0  0  0
  -11.1239  -16.5591   -8.2075 O   0  0  0  0  0  0
  -13.0538  -12.9983   -7.8731 C   0  0  0  0  0  0
   -3.3739  -11.9694   -9.9686 C   0  0  0  0  0  0
  -12.7662  -14.1610   -7.1100 O   0  0  0  0  0  0
   -2.6693  -12.5222  -11.0360 C   0  0  0  0  0  0
  -12.3755  -10.8224   -6.8208 C   0  0  0  0  0  0
   -3.5292  -16.2289  -10.7065 C   0  0  0  0  0  0
  -12.5051  -16.6605   -8.5474 C   0  0  0  0  0  0
  -13.8378  -15.0811   -7.0098 C   0  0  0  0  0  0
   -9.7330  -11.1283   -7.6210 C   0  0  0  0  0  0
   -2.7177  -13.8956  -11.2670 C   0  0  0  0  0  0
   -8.9945  -13.5836   -8.9436 C   0  0  0  0  0  0
  -11.4306   -9.8609   -6.4714 C   0  0  0  0  0  0
  -10.1090  -10.0131   -6.8752 C   0  0  0  0  0  0
   -7.1656  -16.8649  -13.1160 H   0  0  0  0  0  0
   -6.6678  -19.0980  -14.6386 H   0  0  0  0  0  0
   -4.7741  -14.8078   -8.7282 H   0  0  0  0  0  0
   -6.9266  -17.9322   -9.1215 H   0  0  0  0  0  0
   -9.6704  -17.6675  -12.4208 H   0  0  0  0  0  0
   -5.1715  -20.4609  -12.4264 H   0  0  0  0  0  0
   -6.4690  -21.1661  -13.3878 H   0  0  0  0  0  0
   -4.4442  -18.1446  -13.0089 H   0  0  0  0  0  0
   -5.2474  -17.2995  -14.3293 H   0  0  0  0  0  0
   -8.6973  -17.1382   -7.5964 H   0  0  0  0  0  0
  -11.4247  -16.8803  -10.9103 H   0  0  0  0  0  0
   -5.2339  -15.5503  -12.3900 H   0  0  0  0  0  0
   -6.4933  -15.6226  -11.1912 H   0  0  0  0  0  0
  -12.7642  -16.8629   -6.4212 H   0  0  0  0  0  0
  -14.2164  -17.1670   -7.3179 H   0  0  0  0  0  0
  -14.0470  -12.6104   -7.6365 H   0  0  0  0  0  0
  -13.0471  -13.2324   -8.9389 H   0  0  0  0  0  0
   -3.3185  -10.9035   -9.8001 H   0  0  0  0  0  0
   -2.0770  -11.8890  -11.6828 H   0  0  0  0  0  0
  -13.3990  -10.6885   -6.5022 H   0  0  0  0  0  0
   -2.9548  -16.7318   -9.9283 H   0  0  0  0  0  0
   -3.0470  -16.4793  -11.6531 H   0  0  0  0  0  0
  -12.7047  -17.6369   -8.9900 H   0  0  0  0  0  0
  -12.7752  -15.9021   -9.2828 H   0  0  0  0  0  0
  -14.2688  -14.9811   -6.0210 H   0  0  0  0  0  0
  -14.6687  -14.8631   -7.6675 H   0  0  0  0  0  0
   -8.6968  -11.2169   -7.9099 H   0  0  0  0  0  0
   -2.1659  -14.3074  -12.0999 H   0  0  0  0  0  0
   -8.9423  -14.5425   -9.4550 H   0  0  0  0  0  0
   -8.5040  -12.8630   -9.5954 H   0  0  0  0  0  0
   -8.4230  -13.6709   -8.0206 H   0  0  0  0  0  0
  -11.7268   -8.9930   -5.9024 H   0  0  0  0  0  0
   -9.3785   -9.2655   -6.6067 H   0  0  0  0  0  0
  1  3  1  0  0  0
  1  5  1  0  0  0
  1  6  1  0  0  0
  2  4  1  0  0  0
  2 12  1  0  0  0
  2 13  1  0  0  0
  2 14  1  0  0  0
  3  9  2  0  0  0
  3 17  1  0  0  0
  4 10  1  0  0  0
  4 29  2  0  0  0
  5 15  1  0  0  0
  5 16  2  0  0  0
  6 18  1  0  0  0
  6 25  1  0  0  0
  6 41  1  0  0  0
  7 18  1  0  0  0
  7 17  1  0  0  0
  7 42  1  0  0  0
  8 28  1  0  0  0
  8 11  2  0  0  0
  8 32  1  0  0  0
 10 21  2  0  0  0
 10 43  1  0  0  0
 11 24  1  0  0  0
 11 36  1  0  0  0
 15 22  2  0  0  0
 15 44  1  0  0  0
 16 23  1  0  0  0
 16 45  1  0  0  0
 17 46  1  0  0  0
 17 47  1  0  0  0
 18 48  1  0  0  0
 18 49  1  0  0  0
 19 23  2  0  0  0
 19 27  1  0  0  0
 19 22  1  0  0  0
 20 25  1  0  0  0
 20 33  1  0  0  0
 21 33  1  0  0  0
 21 37  1  0  0  0
 22 50  1  0  0  0
 23 51  1  0  0  0
 24 38  1  0  0  0
 25 52  1  0  0  0
 25 53  1  0  0  0
 26 34  1  0  0  0
 26 35  1  0  0  0
 26 54  1  0  0  0
 26 55  1  0  0  0
 27 34  1  0  0  0
 28 30  1  0  0  0
 28 56  1  0  0  0
 28 57  1  0  0  0
 29 31  1  0  0  0
 29 58  1  0  0  0
 30 35  1  0  0  0
 31 37  2  0  0  0
 31 59  1  0  0  0
 32 39  2  0  0  0
 32 60  1  0  0  0
 33 61  1  0  0  0
 33 62  1  0  0  0
 34 63  1  0  0  0
 34 64  1  0  0  0
 35 65  1  0  0  0
 35 66  1  0  0  0
 36 40  2  0  0  0
 36 67  1  0  0  0
 37 68  1  0  0  0
 38 69  1  0  0  0
 38 70  1  0  0  0
 38 71  1  0  0  0
 39 40  1  0  0  0
 39 72  1  0  0  0
 40 73  1  0  0  0
M  END
> <s_m_entry_id>
26261

> <s_m_entry_name>
dock_pv.85

> <s_m_Source_Path>
/home/csk/Desktop/cluster/DUD-E-result/reni

> <s_m_Source_File>
dock_pv.maegz

> <i_m_Source_File_Index>
85

> <chembl_id>
CHEMBL196981

> <chembl_pref_name>
None

> <i_lp_mmshare_version>
53161

> <r_lp_tautomer_probability>
1

> <s_lp_Force_Field>
OPLS_2005

> <r_lp_Energy>
59.311335

> <b_lp_Chiralities_Consistent>
1

> <s_lp_Variant>
CHEMBL286_lig1566-1

> <s_i_glide_gridfile>
glide-grid_3g6z

> <i_i_glide_lignum>
5270

> <i_i_glide_rotatable_bonds>
14

> <r_i_docking_score>
-7.90862134189447

> <r_i_glide_ligand_efficiency>
-0.197715533547362

> <r_i_glide_ligand_efficiency_sa>
-0.676177612469231

> <r_i_glide_ligand_efficiency_ln>
-1.68667619188964

> <r_i_glide_gscore>
-7.90862134189447

> <r_i_glide_lipo>
-4.03466253655412

> <r_i_glide_hbond>
-0.394715571784321

> <r_i_glide_metal>
0

> <r_i_glide_rewards>
-0.358003613501853

> <r_i_glide_evdw>
-50.6013832092285

> <r_i_glide_ecoul>
-8.30098628997803

> <r_i_glide_erotb>
0.721135929443834

> <r_i_glide_esite>
-0.0671584455398855

> <r_i_glide_emodel>
-80.7813894409092

> <r_i_glide_energy>
-58.9023694992065

> <r_i_glide_einternal>
12.2337207794189

> <i_i_glide_confnum>
152

> <i_i_glide_posenum>
370

> <r_i_glide_eff_state_penalty>
0

> <s_user_duplicate_titles>
CHEMBL286_lig1566,326752

> <i_f3d_flags>
0

> <s_m_subgroup_title>
dock_pv

> <s_m_subgroupid>
dock_pv

> <b_m_subgroup_collapsed>
1

$$$$
CHEMBL286_lig1538
                    3D
 Schrodinger Suite 2021-1.
 72 76  0  0  1  0            999 V2000
   -7.2393  -18.5579  -11.7076 N   0  0  0  0  0  0
   -7.1592  -19.8964  -11.9970 C   0  0  0  0  0  0
   -6.3922  -17.4904  -12.3314 C   0  0  1  0  0  0
   -8.2413  -18.1228  -10.8280 C   0  0  0  0  0  0
   -4.5456  -13.3337   -8.6650 C   0  0  0  0  0  0
   -5.8683  -19.2623  -14.0201 N   0  0  2  0  0  0
   -4.8683  -14.3638   -9.5833 C   0  0  0  0  0  0
   -3.2516  -12.9166   -8.5644 N   0  0  0  0  0  0
  -11.7879  -12.2043   -7.9574 C   0  0  0  0  0  0
   -7.8833  -20.7556  -11.4845 O   0  0  0  0  0  0
   -5.6620  -16.4927  -11.3948 C   0  0  0  0  0  0
  -12.6707  -11.3934   -7.2196 C   0  0  0  0  0  0
   -5.5847  -12.7490   -7.8802 C   0  0  0  0  0  0
   -6.1942  -14.7968   -9.7285 C   0  0  0  0  0  0
   -9.4644  -17.6821  -11.3378 C   0  0  0  0  0  0
   -8.0013  -18.1303   -9.4522 C   0  0  0  0  0  0
   -6.6104  -15.7635  -10.6196 O   0  0  0  0  0  0
   -6.9065  -13.2249   -8.0200 C   0  0  0  0  0  0
   -6.0854  -20.3113  -13.0291 C   0  0  0  0  0  0
   -5.4183  -18.0244  -13.4153 C   0  0  0  0  0  0
  -10.2221  -17.2613   -9.0782 C   0  0  0  0  0  0
   -7.1916  -14.2280   -8.9412 C   0  0  0  0  0  0
   -8.9891  -17.6819   -8.5843 C   0  0  0  0  0  0
  -10.4591  -17.2610  -10.4616 C   0  0  0  0  0  0
  -14.0080  -11.6790   -7.0554 O   0  0  0  0  0  0
  -13.2782  -16.3147   -7.2453 C   0  0  0  0  0  0
  -11.1393  -16.8630   -8.1332 O   0  0  0  0  0  0
  -12.2508  -13.4497   -8.6952 C   0  0  0  0  0  0
  -13.2948  -14.1147   -8.0012 O   0  0  0  0  0  0
   -2.9632  -11.9108   -7.6999 C   0  0  0  0  0  0
  -10.4334  -11.8678   -8.0205 C   0  0  0  0  0  0
  -12.5132  -16.7800   -8.4894 C   0  0  0  0  0  0
  -12.9290  -14.8718   -6.8675 C   0  0  0  0  0  0
  -12.1662  -10.2780   -6.5492 C   0  0  0  0  0  0
   -5.2430  -11.6936   -7.0004 C   0  0  0  0  0  0
  -14.8234  -11.6629   -8.2226 C   0  0  0  0  0  0
   -3.9180  -11.2749   -6.9103 C   0  0  0  0  0  0
   -9.9481  -10.7425   -7.3542 C   0  0  0  0  0  0
  -10.8157   -9.9433   -6.6175 C   0  0  0  0  0  0
   -7.1289  -16.8968  -12.8761 H   0  0  0  0  0  0
   -6.6666  -19.0755  -14.6327 H   0  0  0  0  0  0
   -4.0724  -14.7880  -10.1756 H   0  0  0  0  0  0
   -4.9717  -17.0303  -10.7423 H   0  0  0  0  0  0
   -5.0782  -15.7937  -11.9975 H   0  0  0  0  0  0
   -9.6420  -17.6737  -12.4058 H   0  0  0  0  0  0
   -7.0508  -18.4657   -9.0640 H   0  0  0  0  0  0
   -7.6904  -12.7940   -7.4169 H   0  0  0  0  0  0
   -5.1625  -20.5379  -12.4936 H   0  0  0  0  0  0
   -6.4098  -21.2261  -13.5292 H   0  0  0  0  0  0
   -4.4365  -18.2031  -12.9723 H   0  0  0  0  0  0
   -5.2900  -17.2704  -14.1925 H   0  0  0  0  0  0
   -8.2084  -14.5750   -9.0521 H   0  0  0  0  0  0
   -8.8046  -17.6743   -7.5195 H   0  0  0  0  0  0
  -11.3978  -16.9307  -10.8774 H   0  0  0  0  0  0
  -13.0681  -16.9899   -6.4214 H   0  0  0  0  0  0
  -14.3489  -16.3864   -7.4274 H   0  0  0  0  0  0
  -12.6718  -13.1270   -9.6438 H   0  0  0  0  0  0
  -11.4250  -14.1260   -8.9261 H   0  0  0  0  0  0
   -1.9266  -11.6104   -7.6532 H   0  0  0  0  0  0
   -9.7502  -12.4819   -8.5884 H   0  0  0  0  0  0
  -12.8939  -17.7384   -8.8219 H   0  0  0  0  0  0
  -12.6706  -16.0915   -9.3179 H   0  0  0  0  0  0
  -11.8781  -14.7671   -6.5874 H   0  0  0  0  0  0
  -13.5241  -14.5154   -6.0258 H   0  0  0  0  0  0
  -12.8497   -9.6369   -6.0198 H   0  0  0  0  0  0
   -6.0146  -11.2136   -6.4212 H   0  0  0  0  0  0
  -15.8686  -11.7040   -7.9233 H   0  0  0  0  0  0
  -14.6698  -10.7754   -8.8209 H   0  0  0  0  0  0
  -14.6639  -12.4632   -8.9237 H   0  0  0  0  0  0
   -3.6382  -10.4737   -6.2396 H   0  0  0  0  0  0
   -8.9010  -10.4845   -7.4208 H   0  0  0  0  0  0
  -10.4479   -9.0614   -6.1132 H   0  0  0  0  0  0
  1  2  1  0  0  0
  1  3  1  0  0  0
  1  4  1  0  0  0
  2 10  2  0  0  0
  2 19  1  0  0  0
  3 11  1  0  0  0
  3 20  1  0  0  0
  3 40  1  0  0  0
  4 15  2  0  0  0
  4 16  1  0  0  0
  5  7  2  0  0  0
  5  8  1  0  0  0
  5 13  1  0  0  0
  6 20  1  0  0  0
  6 19  1  0  0  0
  6 41  1  0  0  0
  7 14  1  0  0  0
  7 42  1  0  0  0
  8 30  2  0  0  0
  9 28  1  0  0  0
  9 12  2  0  0  0
  9 31  1  0  0  0
 11 17  1  0  0  0
 11 43  1  0  0  0
 11 44  1  0  0  0
 12 25  1  0  0  0
 12 34  1  0  0  0
 13 18  2  0  0  0
 13 35  1  0  0  0
 14 17  1  0  0  0
 14 22  2  0  0  0
 15 24  1  0  0  0
 15 45  1  0  0  0
 16 23  2  0  0  0
 16 46  1  0  0  0
 18 22  1  0  0  0
 18 47  1  0  0  0
 19 48  1  0  0  0
 19 49  1  0  0  0
 20 50  1  0  0  0
 20 51  1  0  0  0
 21 23  1  0  0  0
 21 27  1  0  0  0
 21 24  2  0  0  0
 22 52  1  0  0  0
 23 53  1  0  0  0
 24 54  1  0  0  0
 25 36  1  0  0  0
 26 32  1  0  0  0
 26 33  1  0  0  0
 26 55  1  0  0  0
 26 56  1  0  0  0
 27 32  1  0  0  0
 28 29  1  0  0  0
 28 57  1  0  0  0
 28 58  1  0  0  0
 29 33  1  0  0  0
 30 37  1  0  0  0
 30 59  1  0  0  0
 31 38  2  0  0  0
 31 60  1  0  0  0
 32 61  1  0  0  0
 32 62  1  0  0  0
 33 63  1  0  0  0
 33 64  1  0  0  0
 34 39  2  0  0  0
 34 65  1  0  0  0
 35 37  2  0  0  0
 35 66  1  0  0  0
 36 67  1  0  0  0
 36 68  1  0  0  0
 36 69  1  0  0  0
 37 70  1  0  0  0
 38 39  1  0  0  0
 38 71  1  0  0  0
 39 72  1  0  0  0
M  END
> <s_m_entry_id>
26262

> <s_m_entry_name>
dock_pv.86

> <s_m_Source_Path>
/home/csk/Desktop/cluster/DUD-E-result/reni

> <s_m_Source_File>
dock_pv.maegz

> <i_m_Source_File_Index>
86

> <chembl_id>
CHEMBL426642

> <chembl_pref_name>
None

> <i_lp_mmshare_version>
53161

> <r_lp_tautomer_probability>
1

> <s_lp_Force_Field>
OPLS_2005

> <r_lp_Energy>
58.643001

> <b_lp_Chiralities_Consistent>
1

> <s_lp_Variant>
CHEMBL286_lig1538-1

> <s_i_glide_gridfile>
glide-grid_3g6z

> <i_i_glide_lignum>
5242

> <i_i_glide_rotatable_bonds>
12

> <r_i_docking_score>
-7.90860000790989

> <r_i_glide_ligand_efficiency>
-0.202784615587433

> <r_i_glide_ligand_efficiency_sa>
-0.68768550800754

> <r_i_glide_ligand_efficiency_ln>
-1.69582834065748

> <r_i_glide_gscore>
-7.90860000790989

> <r_i_glide_lipo>
-4.89259350171553

> <r_i_glide_hbond>
-0.39301407970336

> <r_i_glide_metal>
0

> <r_i_glide_rewards>
0.284259857263515

> <r_i_glide_evdw>
-52.9609184265137

> <r_i_glide_ecoul>
-6.7369236946106

> <r_i_glide_erotb>
0.813869276177362

> <r_i_glide_esite>
-0.0625370844146089

> <r_i_glide_emodel>
-79.9157899034546

> <r_i_glide_energy>
-59.6978421211243

> <r_i_glide_einternal>
15.8413429260254

> <i_i_glide_confnum>
46

> <i_i_glide_posenum>
35

> <r_i_glide_eff_state_penalty>
0

> <s_user_duplicate_titles>
CHEMBL286_lig1538,325171

> <i_f3d_flags>
0

> <s_m_subgroup_title>
dock_pv

> <s_m_subgroupid>
dock_pv

> <b_m_subgroup_collapsed>
1

$$$$
CHEMBL286_lig269
                    3D
 Schrodinger Suite 2021-1.
 99102  0  0  1  0            999 V2000
   -2.7524  -19.8306   -8.3823 C   0  0  0  0  0  0
   -3.6004  -21.1555   -8.3454 C   0  0  2  0  0  0
   -8.2841  -22.6174   -9.8735 C   0  0  0  0  0  0
   -9.0684  -19.5868   -9.8135 C   0  0  0  0  0  0
  -10.8548  -16.8279   -9.2117 C   0  0  0  0  0  0
   -7.1171  -21.9569   -9.8931 N   0  0  0  0  0  0
   -1.9147  -19.5762   -7.3260 N   0  0  0  0  0  0
   -5.8706  -22.2873   -9.2091 C   0  0  2  0  0  0
   -9.3523  -20.4788  -10.7891 N   0  0  0  0  0  0
   -4.9790  -20.9999   -9.0898 C   0  0  2  0  0  0
   -9.4567  -21.9450  -10.6236 C   0  0  1  0  0  0
  -12.2042  -22.1124  -11.8605 N   0  0  0  0  0  0
   -9.5287  -17.2242   -9.1890 N   0  0  0  0  0  0
   -8.9539  -18.1076  -10.2210 C   0  0  1  0  0  0
  -11.1354  -22.8639  -12.3718 C   0  0  0  0  0  0
   -9.6898  -22.6249  -11.9963 C   0  0  0  0  0  0
  -13.0178  -23.6619  -13.2208 N   0  0  0  0  0  0
  -13.2916  -22.6365  -12.4146 C   0  0  0  0  0  0
   -2.7799  -19.0860   -9.3687 O   0  0  0  0  0  0
  -11.0706  -16.0153   -8.1425 O   0  0  0  0  0  0
  -11.6448  -23.8239  -13.2214 C   0  0  0  0  0  0
  -11.6932  -17.1419  -10.0574 O   0  0  0  0  0  0
   -5.2139  -23.5820   -9.7832 C   0  0  0  0  0  0
   -8.4736  -23.6849   -9.2939 O   0  0  0  0  0  0
   -8.8386  -19.8992   -8.6435 O   0  0  0  0  0  0
   -7.4757  -17.6996  -10.4561 C   0  0  0  0  0  0
  -12.2866  -15.2938   -7.8732 C   0  0  0  0  0  0
   -3.7817  -21.7059   -6.9132 C   0  0  0  0  0  0
   -4.8576  -20.3879  -10.3687 O   0  0  0  0  0  0
   -7.2753  -16.3038  -11.0299 C   0  0  0  0  0  0
   -1.8910  -20.3303   -6.0560 C   0  0  0  0  0  0
   -1.1156  -18.3439   -7.3341 C   0  0  0  0  0  0
   -4.7097  -23.6391  -11.2586 C   0  0  0  0  0  0
   -2.4376  -21.7559   -6.2028 C   0  0  0  0  0  0
  -13.4661  -16.2486   -7.5802 C   0  0  0  0  0  0
  -12.6214  -14.3184   -9.0226 C   0  0  0  0  0  0
  -11.9880  -14.4686   -6.6067 C   0  0  0  0  0  0
   -7.4095  -15.1713  -10.2016 C   0  0  0  0  0  0
   -7.1277  -16.1168  -12.4207 C   0  0  0  0  0  0
   -5.6561  -23.0429  -12.3405 C   0  0  0  0  0  0
   -3.2653  -23.1110  -11.4053 C   0  0  0  0  0  0
   -7.0689  -14.8352  -12.9524 C   0  0  0  0  0  0
   -7.3667  -13.9011  -10.7547 C   0  0  0  0  0  0
   -2.7320  -23.2368  -12.8363 C   0  0  0  0  0  0
   -5.0835  -23.1144  -13.7662 C   0  0  0  0  0  0
   -3.6630  -22.5230  -13.8232 C   0  0  0  0  0  0
   -7.1864  -13.7306  -12.1194 C   0  0  0  0  0  0
   -2.9746  -21.8588   -8.8921 H   0  0  0  0  0  0
   -7.0895  -21.0832  -10.3988 H   0  0  0  0  0  0
   -6.1566  -22.5386   -8.1876 H   0  0  0  0  0  0
   -9.5305  -20.1311  -11.7186 H   0  0  0  0  0  0
   -5.5662  -20.2822   -8.5117 H   0  0  0  0  0  0
  -10.3401  -22.1340  -10.0208 H   0  0  0  0  0  0
   -8.9550  -16.9566   -8.4049 H   0  0  0  0  0  0
   -9.4777  -17.9643  -11.1693 H   0  0  0  0  0  0
   -9.2058  -22.0633  -12.7974 H   0  0  0  0  0  0
   -9.2171  -23.6075  -12.0122 H   0  0  0  0  0  0
  -13.6972  -24.2358  -13.7252 H   0  0  0  0  0  0
  -14.2904  -22.2806  -12.2152 H   0  0  0  0  0  0
  -11.1540  -24.5900  -13.8036 H   0  0  0  0  0  0
   -4.3913  -23.8717   -9.1271 H   0  0  0  0  0  0
   -5.9294  -24.3946   -9.6625 H   0  0  0  0  0  0
   -6.9797  -18.4106  -11.1184 H   0  0  0  0  0  0
   -6.9241  -17.7455   -9.5129 H   0  0  0  0  0  0
   -4.4621  -21.0729   -6.3403 H   0  0  0  0  0  0
   -4.2102  -22.7081   -6.9284 H   0  0  0  0  0  0
   -4.1533  -19.7227  -10.2974 H   0  0  0  0  0  0
   -0.9293  -20.2613   -5.5418 H   0  0  0  0  0  0
   -2.6006  -19.7960   -5.4191 H   0  0  0  0  0  0
   -1.6472  -17.5425   -6.8213 H   0  0  0  0  0  0
   -0.1643  -18.4904   -6.8205 H   0  0  0  0  0  0
   -0.8869  -17.9915   -8.3422 H   0  0  0  0  0  0
   -4.6384  -24.6974  -11.5198 H   0  0  0  0  0  0
   -1.7239  -22.3773   -6.7495 H   0  0  0  0  0  0
   -2.5369  -22.2127   -5.2215 H   0  0  0  0  0  0
  -13.2451  -16.8957   -6.7308 H   0  0  0  0  0  0
  -14.3788  -15.6990   -7.3446 H   0  0  0  0  0  0
  -13.6861  -16.9028   -8.4206 H   0  0  0  0  0  0
  -11.7746  -13.6628   -9.2209 H   0  0  0  0  0  0
  -12.8621  -14.8411   -9.9473 H   0  0  0  0  0  0
  -13.4695  -13.6827   -8.7733 H   0  0  0  0  0  0
  -11.1958  -13.7411   -6.7834 H   0  0  0  0  0  0
  -12.8672  -13.9154   -6.2710 H   0  0  0  0  0  0
  -11.6672  -15.1038   -5.7812 H   0  0  0  0  0  0
   -7.5651  -15.2870   -9.1397 H   0  0  0  0  0  0
   -7.0688  -16.9673  -13.0838 H   0  0  0  0  0  0
   -6.6276  -23.5368  -12.2968 H   0  0  0  0  0  0
   -5.8605  -21.9974  -12.1261 H   0  0  0  0  0  0
   -3.1914  -22.0717  -11.1027 H   0  0  0  0  0  0
   -2.6301  -23.6543  -10.7121 H   0  0  0  0  0  0
   -6.9483  -14.7039  -14.0168 H   0  0  0  0  0  0
   -7.4897  -13.0463  -10.1106 H   0  0  0  0  0  0
   -2.6693  -24.2893  -13.1055 H   0  0  0  0  0  0
   -1.7221  -22.8273  -12.9045 H   0  0  0  0  0  0
   -5.0621  -24.1524  -14.1042 H   0  0  0  0  0  0
   -5.7386  -22.5842  -14.4589 H   0  0  0  0  0  0
   -3.2538  -22.5966  -14.8208 H   0  0  0  0  0  0
   -3.6956  -21.4591  -13.5920 H   0  0  0  0  0  0
   -7.1488  -12.7355  -12.5392 H   0  0  0  0  0  0
  1  2  1  0  0  0
  1  7  1  0  0  0
  1 19  2  0  0  0
  2 10  1  0  0  0
  2 28  1  0  0  0
  2 48  1  0  0  0
  3  6  1  0  0  0
  3 11  1  0  0  0
  3 24  2  0  0  0
  4  9  1  0  0  0
  4 14  1  0  0  0
  4 25  2  0  0  0
  5 13  1  0  0  0
  5 20  1  0  0  0
  5 22  2  0  0  0
  6  8  1  0  0  0
  6 49  1  0  0  0
  7 31  1  0  0  0
  7 32  1  0  0  0
  8 10  1  0  0  0
  8 23  1  0  0  0
  8 50  1  0  0  0
  9 11  1  0  0  0
  9 51  1  0  0  0
 10 29  1  0  0  0
 10 52  1  0  0  0
 11 16  1  0  0  0
 11 53  1  0  0  0
 12 15  1  0  0  0
 12 18  2  0  0  0
 13 14  1  0  0  0
 13 54  1  0  0  0
 14 26  1  0  0  0
 14 55  1  0  0  0
 15 16  1  0  0  0
 15 21  2  0  0  0
 16 56  1  0  0  0
 16 57  1  0  0  0
 17 21  1  0  0  0
 17 18  1  0  0  0
 17 58  1  0  0  0
 18 59  1  0  0  0
 20 27  1  0  0  0
 21 60  1  0  0  0
 23 33  1  0  0  0
 23 61  1  0  0  0
 23 62  1  0  0  0
 26 30  1  0  0  0
 26 63  1  0  0  0
 26 64  1  0  0  0
 27 35  1  0  0  0
 27 36  1  0  0  0
 27 37  1  0  0  0
 28 34  1  0  0  0
 28 65  1  0  0  0
 28 66  1  0  0  0
 29 67  1  0  0  0
 30 38  1  0  0  0
 30 39  2  0  0  0
 31 34  1  0  0  0
 31 68  1  0  0  0
 31 69  1  0  0  0
 32 70  1  0  0  0
 32 71  1  0  0  0
 32 72  1  0  0  0
 33 40  1  0  0  0
 33 41  1  0  0  0
 33 73  1  0  0  0
 34 74  1  0  0  0
 34 75  1  0  0  0
 35 76  1  0  0  0
 35 77  1  0  0  0
 35 78  1  0  0  0
 36 79  1  0  0  0
 36 80  1  0  0  0
 36 81  1  0  0  0
 37 82  1  0  0  0
 37 83  1  0  0  0
 37 84  1  0  0  0
 38 43  2  0  0  0
 38 85  1  0  0  0
 39 42  1  0  0  0
 39 86  1  0  0  0
 40 45  1  0  0  0
 40 87  1  0  0  0
 40 88  1  0  0  0
 41 44  1  0  0  0
 41 89  1  0  0  0
 41 90  1  0  0  0
 42 47  2  0  0  0
 42 91  1  0  0  0
 43 47  1  0  0  0
 43 92  1  0  0  0
 44 46  1  0  0  0
 44 93  1  0  0  0
 44 94  1  0  0  0
 45 46  1  0  0  0
 45 95  1  0  0  0
 45 96  1  0  0  0
 46 97  1  0  0  0
 46 98  1  0  0  0
 47 99  1  0  0  0
M  END
> <s_m_entry_id>
26263

> <s_m_entry_name>
dock_pv.87

> <s_m_Source_Path>
/home/csk/Desktop/cluster/DUD-E-result/reni

> <s_m_Source_File>
dock_pv.maegz

> <i_m_Source_File_Index>
87

> <chembl_id>
CHEMBL434110

> <chembl_pref_name>
None

> <i_lp_mmshare_version>
53161

> <r_lp_tautomer_probability>
0.499999999999999

> <s_lp_Force_Field>
OPLS_2005

> <r_lp_Energy>
36.82499

> <b_lp_Chiralities_Consistent>
1

> <s_lp_Variant>
CHEMBL286_lig269-1

> <s_i_glide_gridfile>
glide-grid_3g6z

> <i_i_glide_lignum>
425

> <i_i_glide_rotatable_bonds>
19

> <r_i_docking_score>
-7.90419763297278

> <r_i_glide_ligand_efficiency>
-0.168174417722825

> <r_i_glide_ligand_efficiency_sa>
-0.60691222391137

> <r_i_glide_ligand_efficiency_ln>
-1.62968187404976

> <r_i_glide_gscore>
-7.90419763297278

> <r_i_glide_lipo>
-3.37619507203793

> <r_i_glide_hbond>
-0.32

> <r_i_glide_metal>
0

> <r_i_glide_rewards>
-1.06594890902607

> <r_i_glide_evdw>
-53.1176109313965

> <r_i_glide_ecoul>
-6.81246662139893

> <r_i_glide_erotb>
0.545548785070501

> <r_i_glide_esite>
-0.00985189719961367

> <r_i_glide_emodel>
-79.2859664532506

> <r_i_glide_energy>
-59.9300775527954

> <r_i_glide_einternal>
20.6729679107666

> <i_i_glide_confnum>
5

> <i_i_glide_posenum>
226

> <r_i_glide_eff_state_penalty>
0

> <s_user_duplicate_titles>
CHEMBL286_lig269

> <i_f3d_flags>
0

> <s_m_subgroup_title>
dock_pv

> <s_m_subgroupid>
dock_pv

> <b_m_subgroup_collapsed>
1

$$$$
CHEMBL286_lig2072
                    3D
 Schrodinger Suite 2021-1.
 81 83  0  0  1  0            999 V2000
  -10.2623  -13.7563   -8.5255 C   0  0  0  0  0  0
  -11.4334  -12.9827   -7.8812 C   0  0  0  0  0  0
  -12.8080  -13.4347   -8.4236 C   0  0  0  0  0  0
  -12.9230  -14.9745   -8.4200 C   0  0  0  0  0  0
  -11.8269  -15.6326   -9.2813 C   0  0  0  0  0  0
  -10.5351  -15.2771   -8.5297 C   0  0  0  0  0  0
  -12.0094  -17.1773   -9.4352 C   0  0  0  0  0  0
  -11.5852  -17.7653  -10.8226 C   0  0  1  0  0  0
  -10.2373  -17.3475  -11.2221 N   0  0  0  0  0  0
  -11.7850  -19.3060  -10.9836 C   0  0  0  0  0  0
  -13.0574  -19.6630  -11.6209 N   0  0  2  0  0  0
  -13.2879  -21.0984  -11.5423 C   0  0  0  0  0  0
   -9.0556  -17.6567  -10.6507 C   0  0  0  0  0  0
   -8.0062  -16.8989  -11.0797 N   0  0  0  0  0  0
   -8.9677  -18.4874   -9.7435 O   0  0  0  0  0  0
   -6.6983  -16.9667  -10.3940 C   0  0  0  0  0  0
   -6.1376  -15.5116  -10.2219 C   0  0  2  0  0  0
   -6.1515  -14.7507  -11.5767 C   0  0  0  0  0  0
   -7.5229  -14.8222  -12.2521 C   0  0  0  0  0  0
   -7.9694  -16.2793  -12.4210 C   0  0  0  0  0  0
   -4.7667  -15.4373   -9.4504 C   0  0  1  0  0  0
   -4.2815  -13.9652   -9.3431 C   0  0  0  0  0  0
   -3.4699  -13.3963  -10.3422 C   0  0  0  0  0  0
   -3.0369  -12.0749  -10.2557 C   0  0  0  0  0  0
   -3.4074  -11.2937   -9.1655 C   0  0  0  0  0  0
   -4.2124  -11.8352   -8.1657 C   0  0  0  0  0  0
   -4.6474  -13.1586   -8.2533 C   0  0  0  0  0  0
   -4.6684  -10.8632   -6.8211 Cl  0  0  0  0  0  0
   -5.0509  -15.9861   -8.1696 O   0  0  0  0  0  0
   -3.6787  -16.3787  -10.0636 C   0  0  0  0  0  0
   -2.3323  -16.4361   -9.2965 C   0  0  0  0  0  0
   -1.1540  -16.9660  -10.1377 C   0  0  0  0  0  0
   -0.5723  -15.9221  -11.1187 C   0  0  0  0  0  0
    0.3841  -16.4681  -12.0210 O   0  0  0  0  0  0
    1.5685  -16.9856  -11.4311 C   0  0  0  0  0  0
   -9.3245  -13.5344   -8.0207 H   0  0  0  0  0  0
  -10.0952  -13.4137   -9.5430 H   0  0  0  0  0  0
  -11.4116  -13.1439   -6.8022 H   0  0  0  0  0  0
  -11.3039  -11.9103   -8.0292 H   0  0  0  0  0  0
  -13.6085  -12.9967   -7.8253 H   0  0  0  0  0  0
  -12.9460  -13.0575   -9.4381 H   0  0  0  0  0  0
  -12.9363  -15.3779   -7.4054 H   0  0  0  0  0  0
  -13.8690  -15.2642   -8.8208 H   0  0  0  0  0  0
  -11.8495  -15.1800  -10.2717 H   0  0  0  0  0  0
   -9.6650  -15.7767   -8.9383 H   0  0  0  0  0  0
  -10.6690  -15.6966   -7.5321 H   0  0  0  0  0  0
  -11.4303  -17.6630   -8.6524 H   0  0  0  0  0  0
  -13.0438  -17.4502   -9.2210 H   0  0  0  0  0  0
  -12.2265  -17.2828  -11.5629 H   0  0  0  0  0  0
  -10.2035  -16.6807  -11.9775 H   0  0  0  0  0  0
  -10.9928  -19.7079  -11.6189 H   0  0  0  0  0  0
  -11.6563  -19.8006  -10.0213 H   0  0  0  0  0  0
  -13.0043  -19.3820  -12.5945 H   0  0  0  0  0  0
  -14.2214  -21.3540  -12.0453 H   0  0  0  0  0  0
  -12.4848  -21.6611  -12.0217 H   0  0  0  0  0  0
  -13.3711  -21.4236  -10.5043 H   0  0  0  0  0  0
   -6.7886  -17.4225   -9.4058 H   0  0  0  0  0  0
   -6.0238  -17.5729  -10.9982 H   0  0  0  0  0  0
   -6.8749  -14.9946   -9.6011 H   0  0  0  0  0  0
   -5.3871  -15.1558  -12.2414 H   0  0  0  0  0  0
   -5.8901  -13.7012  -11.4430 H   0  0  0  0  0  0
   -7.4748  -14.3414  -13.2299 H   0  0  0  0  0  0
   -8.2665  -14.2649  -11.6794 H   0  0  0  0  0  0
   -7.2394  -16.8208  -13.0247 H   0  0  0  0  0  0
   -8.9243  -16.3056  -12.9413 H   0  0  0  0  0  0
   -3.1769  -13.9633  -11.2118 H   0  0  0  0  0  0
   -2.4155  -11.6603  -11.0366 H   0  0  0  0  0  0
   -3.0757  -10.2683   -9.0959 H   0  0  0  0  0  0
   -5.2778  -13.5534   -7.4706 H   0  0  0  0  0  0
   -4.2230  -16.1570   -7.7130 H   0  0  0  0  0  0
   -4.0533  -17.4007  -10.1222 H   0  0  0  0  0  0
   -3.5093  -16.1040  -11.1029 H   0  0  0  0  0  0
   -2.0649  -15.4553   -8.9005 H   0  0  0  0  0  0
   -2.4577  -17.0763   -8.4216 H   0  0  0  0  0  0
   -0.3670  -17.2860   -9.4537 H   0  0  0  0  0  0
   -1.4599  -17.8592  -10.6843 H   0  0  0  0  0  0
   -1.3682  -15.5027  -11.7332 H   0  0  0  0  0  0
   -0.1332  -15.0820  -10.5776 H   0  0  0  0  0  0
    2.2691  -17.2585  -12.2201 H   0  0  0  0  0  0
    2.0519  -16.2483  -10.7890 H   0  0  0  0  0  0
    1.3707  -17.8864  -10.8487 H   0  0  0  0  0  0
  1  2  1  0  0  0
  1  6  1  0  0  0
  1 36  1  0  0  0
  1 37  1  0  0  0
  2  3  1  0  0  0
  2 38  1  0  0  0
  2 39  1  0  0  0
  3  4  1  0  0  0
  3 40  1  0  0  0
  3 41  1  0  0  0
  4  5  1  0  0  0
  4 42  1  0  0  0
  4 43  1  0  0  0
  5  6  1  0  0  0
  5  7  1  0  0  0
  5 44  1  0  0  0
  6 45  1  0  0  0
  6 46  1  0  0  0
  7  8  1  0  0  0
  7 47  1  0  0  0
  7 48  1  0  0  0
  8  9  1  0  0  0
  8 10  1  0  0  0
  8 49  1  0  0  0
  9 13  1  0  0  0
  9 50  1  0  0  0
 10 11  1  0  0  0
 10 51  1  0  0  0
 10 52  1  0  0  0
 11 12  1  0  0  0
 11 53  1  0  0  0
 12 54  1  0  0  0
 12 55  1  0  0  0
 12 56  1  0  0  0
 13 14  1  0  0  0
 13 15  2  0  0  0
 14 20  1  0  0  0
 14 16  1  0  0  0
 16 17  1  0  0  0
 16 57  1  0  0  0
 16 58  1  0  0  0
 17 18  1  0  0  0
 17 21  1  0  0  0
 17 59  1  0  0  0
 18 19  1  0  0  0
 18 60  1  0  0  0
 18 61  1  0  0  0
 19 20  1  0  0  0
 19 62  1  0  0  0
 19 63  1  0  0  0
 20 64  1  0  0  0
 20 65  1  0  0  0
 21 22  1  0  0  0
 21 29  1  0  0  0
 21 30  1  0  0  0
 22 23  2  0  0  0
 22 27  1  0  0  0
 23 24  1  0  0  0
 23 66  1  0  0  0
 24 25  2  0  0  0
 24 67  1  0  0  0
 25 26  1  0  0  0
 25 68  1  0  0  0
 26 27  2  0  0  0
 26 28  1  0  0  0
 27 69  1  0  0  0
 29 70  1  0  0  0
 30 31  1  0  0  0
 30 71  1  0  0  0
 30 72  1  0  0  0
 31 32  1  0  0  0
 31 73  1  0  0  0
 31 74  1  0  0  0
 32 33  1  0  0  0
 32 75  1  0  0  0
 32 76  1  0  0  0
 33 34  1  0  0  0
 33 77  1  0  0  0
 33 78  1  0  0  0
 34 35  1  0  0  0
 35 79  1  0  0  0
 35 80  1  0  0  0
 35 81  1  0  0  0
M  END
> <s_m_entry_id>
26264

> <s_m_entry_name>
dock_pv.88

> <s_m_Source_Path>
/home/csk/Desktop/cluster/DUD-E-result/reni

> <s_m_Source_File>
dock_pv.maegz

> <i_m_Source_File_Index>
88

> <chembl_id>
CHEMBL1783183

> <chembl_pref_name>
None

> <i_lp_mmshare_version>
53161

> <r_lp_tautomer_probability>
1

> <s_lp_Force_Field>
OPLS_2005

> <r_lp_Energy>
52.821356

> <b_lp_Chiralities_Consistent>
1

> <s_lp_Variant>
CHEMBL286_lig2072-6

> <s_i_glide_gridfile>
glide-grid_3g6z

> <i_i_glide_lignum>
5914

> <i_i_glide_rotatable_bonds>
15

> <r_i_docking_score>
-7.89731435033392

> <r_i_glide_ligand_efficiency>
-0.225637552866683

> <r_i_glide_ligand_efficiency_sa>
-0.7380753966209

> <r_i_glide_ligand_efficiency_ln>
-1.73363577134693

> <r_i_glide_gscore>
-7.89731435033392

> <r_i_glide_lipo>
-3.88296434680021

> <r_i_glide_hbond>
-0.613735741671338

> <r_i_glide_metal>
0

> <r_i_glide_rewards>
-0.646189101985424

> <r_i_glide_evdw>
-38.4848823547363

> <r_i_glide_ecoul>
-11.1356229782104

> <r_i_glide_erotb>
0.872124210362716

> <r_i_glide_esite>
-0.031961805771277

> <r_i_glide_emodel>
-64.829708493346

> <r_i_glide_energy>
-49.6205053329468

> <r_i_glide_einternal>
16.9591617584229

> <i_i_glide_confnum>
267

> <i_i_glide_posenum>
155

> <r_i_glide_eff_state_penalty>
0

> <s_user_duplicate_titles>
CHEMBL286_lig2072

> <i_f3d_flags>
0

> <s_m_subgroup_title>
dock_pv

> <s_m_subgroupid>
dock_pv

> <b_m_subgroup_collapsed>
1

$$$$
CHEMBL286_lig980
                    3D
 Schrodinger Suite 2021-1.
105107  0  0  1  0            999 V2000
   -6.0267  -18.4715  -11.1456 C   0  0  0  0  0  0
   -4.2213  -15.4832   -9.8143 C   0  0  0  0  0  0
   -2.5527  -12.4939   -9.1168 C   0  0  0  0  0  0
   -4.7831  -16.4069  -10.6126 N   0  0  0  0  0  0
   -6.6272  -19.5424  -10.6028 N   0  0  0  0  0  0
  -10.8730  -20.7624  -11.0147 C   0  0  0  0  0  0
  -11.4693  -19.4313  -11.1697 C   0  0  0  0  0  0
   -5.8976  -17.2653  -10.2102 C   0  0  1  0  0  0
   -7.4750  -15.6997  -12.5710 N   0  0  0  0  0  0
   -2.3742  -13.8270   -9.4468 N   0  0  0  0  0  0
   -3.2037  -14.5050  -10.4587 C   0  0  1  0  0  0
   -7.3818  -15.4043  -11.2203 C   0  0  0  0  0  0
   -6.8727  -20.8249  -11.2668 C   0  0  2  0  0  0
   -7.2139  -16.4495  -10.1423 C   0  0  0  0  0  0
   -9.4029  -20.8954  -10.5687 C   0  0  0  0  0  0
   -7.4684  -13.4792  -12.4204 N   0  0  0  0  0  0
  -10.6567  -18.3858  -10.9278 N   0  0  0  0  0  0
   -7.5126  -14.5355  -13.2215 C   0  0  0  0  0  0
   -8.3615  -20.9500  -11.7193 C   0  0  2  0  0  0
   -1.7408  -12.2112   -8.0654 O   0  0  0  0  0  0
   -7.4024  -14.0301  -11.1408 C   0  0  0  0  0  0
   -3.2932  -11.6903   -9.6868 O   0  0  0  0  0  0
   -5.6100  -18.4060  -12.3025 O   0  0  0  0  0  0
   -4.5322  -15.3542   -8.6275 O   0  0  0  0  0  0
   -2.3125  -15.0657  -11.6051 C   0  0  0  0  0  0
  -12.6651  -19.2682  -11.4359 O   0  0  0  0  0  0
   -6.3691  -22.0182  -10.4018 C   0  0  0  0  0  0
  -11.6345  -21.8592  -11.2216 C   0  0  0  0  0  0
   -1.4016  -10.8922   -7.6107 C   0  0  0  0  0  0
  -11.0877  -16.9900  -10.8118 C   0  0  0  0  0  0
   -1.1119  -15.9132  -11.2212 C   0  0  0  0  0  0
   -8.5595  -22.1641  -12.4210 O   0  0  0  0  0  0
   -4.8682  -21.9783   -9.9865 C   0  0  0  0  0  0
  -11.5804  -16.6338   -9.3836 C   0  0  0  0  0  0
   -0.5164  -11.1308   -6.3722 C   0  0  0  0  0  0
   -2.6383  -10.0624   -7.1859 C   0  0  0  0  0  0
   -0.5772  -10.1708   -8.7022 C   0  0  0  0  0  0
   -1.2174  -17.3188  -11.1890 C   0  0  0  0  0  0
    0.0869  -15.3029  -10.7977 C   0  0  0  0  0  0
   -4.6309  -21.2286   -8.6489 C   0  0  0  0  0  0
   -4.2782  -23.4050   -9.8494 C   0  0  0  0  0  0
  -12.1207  -15.1963   -9.2951 C   0  0  0  0  0  0
  -10.5035  -16.8613   -8.3007 C   0  0  0  0  0  0
    1.1704  -16.0854  -10.4234 C   0  0  0  0  0  0
   -0.1190  -18.0816  -10.8218 C   0  0  0  0  0  0
   -2.7709  -23.3739   -9.5179 C   0  0  0  0  0  0
   -3.1305  -21.1481   -8.2988 C   0  0  0  0  0  0
    1.0724  -17.4703  -10.4504 C   0  0  0  0  0  0
   -2.4891  -22.5509   -8.2430 C   0  0  0  0  0  0
   -4.5230  -16.4752  -11.5873 H   0  0  0  0  0  0
   -6.9058  -19.4897   -9.6339 H   0  0  0  0  0  0
   -5.6778  -17.6652   -9.2205 H   0  0  0  0  0  0
   -1.7404  -14.3814   -8.8933 H   0  0  0  0  0  0
   -3.8635  -13.7802  -10.9432 H   0  0  0  0  0  0
   -6.2756  -20.8653  -12.1827 H   0  0  0  0  0  0
   -8.0810  -17.1092  -10.1561 H   0  0  0  0  0  0
   -7.2560  -15.9341   -9.1818 H   0  0  0  0  0  0
   -9.1496  -20.1130   -9.8528 H   0  0  0  0  0  0
   -9.3143  -21.8084   -9.9778 H   0  0  0  0  0  0
   -7.4978  -16.6183  -13.0044 H   0  0  0  0  0  0
   -9.6728  -18.5653  -10.8146 H   0  0  0  0  0  0
   -7.5600  -14.4584  -14.2969 H   0  0  0  0  0  0
   -8.5711  -20.1304  -12.4097 H   0  0  0  0  0  0
   -7.3377  -13.3974  -10.2678 H   0  0  0  0  0  0
   -2.9082  -15.6629  -12.2957 H   0  0  0  0  0  0
   -1.9487  -14.2282  -12.2048 H   0  0  0  0  0  0
   -6.9855  -22.1172   -9.5081 H   0  0  0  0  0  0
   -6.5509  -22.9326  -10.9675 H   0  0  0  0  0  0
  -11.2190  -22.8493  -11.1023 H   0  0  0  0  0  0
  -12.6731  -21.8016  -11.5155 H   0  0  0  0  0  0
  -11.8595  -16.7611  -11.5510 H   0  0  0  0  0  0
  -10.2371  -16.3618  -11.0767 H   0  0  0  0  0  0
   -8.2710  -22.0632  -13.3388 H   0  0  0  0  0  0
   -4.2966  -21.4701  -10.7656 H   0  0  0  0  0  0
  -12.4176  -17.2979   -9.1578 H   0  0  0  0  0  0
    0.3601  -11.7330   -6.6170 H   0  0  0  0  0  0
   -0.1615  -10.1916   -5.9465 H   0  0  0  0  0  0
   -1.0609  -11.6624   -5.5899 H   0  0  0  0  0  0
   -3.2846   -9.8054   -8.0247 H   0  0  0  0  0  0
   -3.2494  -10.6062   -6.4632 H   0  0  0  0  0  0
   -2.3409   -9.1233   -6.7171 H   0  0  0  0  0  0
   -1.1435  -10.0632   -9.6275 H   0  0  0  0  0  0
   -0.2539   -9.1812   -8.3741 H   0  0  0  0  0  0
    0.3186  -10.7396   -8.9537 H   0  0  0  0  0  0
   -2.1400  -17.8058  -11.4662 H   0  0  0  0  0  0
    0.1742  -14.2256  -10.7808 H   0  0  0  0  0  0
   -5.0404  -20.2215   -8.6884 H   0  0  0  0  0  0
   -5.1851  -21.7146   -7.8441 H   0  0  0  0  0  0
   -4.8261  -23.9656   -9.0904 H   0  0  0  0  0  0
   -4.4361  -23.9645  -10.7726 H   0  0  0  0  0  0
  -11.3354  -14.4628   -9.4728 H   0  0  0  0  0  0
  -12.5404  -14.9937   -8.3097 H   0  0  0  0  0  0
  -12.9116  -15.0173  -10.0209 H   0  0  0  0  0  0
   -9.6658  -16.1744   -8.4245 H   0  0  0  0  0  0
  -10.9105  -16.7054   -7.3013 H   0  0  0  0  0  0
  -10.1047  -17.8741   -8.3278 H   0  0  0  0  0  0
    2.0931  -15.6175  -10.1162 H   0  0  0  0  0  0
   -0.1948  -19.1579  -10.8215 H   0  0  0  0  0  0
   -2.2209  -22.9435  -10.3568 H   0  0  0  0  0  0
   -2.3934  -24.3899   -9.3948 H   0  0  0  0  0  0
   -2.6128  -20.5383   -9.0428 H   0  0  0  0  0  0
   -2.9985  -20.6402   -7.3426 H   0  0  0  0  0  0
    1.9205  -18.0763  -10.1657 H   0  0  0  0  0  0
   -1.4143  -22.4635   -8.0834 H   0  0  0  0  0  0
   -2.8792  -23.0879   -7.3766 H   0  0  0  0  0  0
  1  5  1  0  0  0
  1  8  1  0  0  0
  1 23  2  0  0  0
  2  4  1  0  0  0
  2 11  1  0  0  0
  2 24  2  0  0  0
  3 10  1  0  0  0
  3 20  1  0  0  0
  3 22  2  0  0  0
  4  8  1  0  0  0
  4 50  1  0  0  0
  5 13  1  0  0  0
  5 51  1  0  0  0
  6 15  1  0  0  0
  6  7  1  0  0  0
  6 28  2  0  0  0
  7 17  1  0  0  0
  7 26  2  0  0  0
  8 14  1  0  0  0
  8 52  1  0  0  0
  9 12  1  0  0  0
  9 60  1  0  0  0
  9 18  1  0  0  0
 10 11  1  0  0  0
 10 53  1  0  0  0
 11 25  1  0  0  0
 11 54  1  0  0  0
 12 21  2  0  0  0
 12 14  1  0  0  0
 13 19  1  0  0  0
 13 27  1  0  0  0
 13 55  1  0  0  0
 14 56  1  0  0  0
 14 57  1  0  0  0
 15 19  1  0  0  0
 15 58  1  0  0  0
 15 59  1  0  0  0
 16 18  2  0  0  0
 16 21  1  0  0  0
 17 30  1  0  0  0
 17 61  1  0  0  0
 18 62  1  0  0  0
 19 32  1  0  0  0
 19 63  1  0  0  0
 20 29  1  0  0  0
 21 64  1  0  0  0
 25 31  1  0  0  0
 25 65  1  0  0  0
 25 66  1  0  0  0
 27 33  1  0  0  0
 27 67  1  0  0  0
 27 68  1  0  0  0
 28 69  1  0  0  0
 28 70  1  0  0  0
 29 35  1  0  0  0
 29 36  1  0  0  0
 29 37  1  0  0  0
 30 34  1  0  0  0
 30 71  1  0  0  0
 30 72  1  0  0  0
 31 38  1  0  0  0
 31 39  2  0  0  0
 32 73  1  0  0  0
 33 40  1  0  0  0
 33 41  1  0  0  0
 33 74  1  0  0  0
 34 42  1  0  0  0
 34 43  1  0  0  0
 34 75  1  0  0  0
 35 76  1  0  0  0
 35 77  1  0  0  0
 35 78  1  0  0  0
 36 79  1  0  0  0
 36 80  1  0  0  0
 36 81  1  0  0  0
 37 82  1  0  0  0
 37 83  1  0  0  0
 37 84  1  0  0  0
 38 45  2  0  0  0
 38 85  1  0  0  0
 39 44  1  0  0  0
 39 86  1  0  0  0
 40 47  1  0  0  0
 40 87  1  0  0  0
 40 88  1  0  0  0
 41 46  1  0  0  0
 41 89  1  0  0  0
 41 90  1  0  0  0
 42 91  1  0  0  0
 42 92  1  0  0  0
 42 93  1  0  0  0
 43 94  1  0  0  0
 43 95  1  0  0  0
 43 96  1  0  0  0
 44 48  2  0  0  0
 44 97  1  0  0  0
 45 48  1  0  0  0
 45 98  1  0  0  0
 46 49  1  0  0  0
 46 99  1  0  0  0
 46100  1  0  0  0
 47 49  1  0  0  0
 47101  1  0  0  0
 47102  1  0  0  0
 48103  1  0  0  0
 49104  1  0  0  0
 49105  1  0  0  0
M  END
> <s_m_entry_id>
26265

> <s_m_entry_name>
dock_pv.89

> <s_m_Source_Path>
/home/csk/Desktop/cluster/DUD-E-result/reni

> <s_m_Source_File>
dock_pv.maegz

> <i_m_Source_File_Index>
89

> <chembl_id>
CHEMBL333222

> <chembl_pref_name>
None

> <i_lp_mmshare_version>
53161

> <r_lp_tautomer_probability>
0.499999999999999

> <s_lp_Force_Field>
OPLS_2005

> <r_lp_Energy>
24.721145

> <b_lp_Chiralities_Consistent>
1

> <s_lp_Variant>
CHEMBL286_lig980-3

> <s_i_glide_gridfile>
glide-grid_3g6z

> <i_i_glide_lignum>
2606

> <i_i_glide_rotatable_bonds>
24

> <r_i_docking_score>
-7.89235485103376

> <r_i_glide_ligand_efficiency>
-0.161068466347628

> <r_i_glide_ligand_efficiency_sa>
-0.589398757845906

> <r_i_glide_ligand_efficiency_ln>
-1.6133779186619

> <r_i_glide_gscore>
-7.89235485103376

> <r_i_glide_lipo>
-2.99817651854426

> <r_i_glide_hbond>
-0.613397416831257

> <r_i_glide_metal>
0

> <r_i_glide_rewards>
-0.795472508416466

> <r_i_glide_evdw>
-54.9550399780273

> <r_i_glide_ecoul>
-9.14335918426514

> <r_i_glide_erotb>
0.662746911074713

> <r_i_glide_esite>
-0.0287994417753573

> <r_i_glide_emodel>
-86.3913241864296

> <r_i_glide_energy>
-64.0983991622925

> <r_i_glide_einternal>
20.7753944396973

> <i_i_glide_confnum>
20

> <i_i_glide_posenum>
198

> <r_i_glide_eff_state_penalty>
0

> <s_user_duplicate_titles>
CHEMBL286_lig980

> <i_f3d_flags>
0

> <s_m_subgroup_title>
dock_pv

> <s_m_subgroupid>
dock_pv

> <b_m_subgroup_collapsed>
1

$$$$
CHEMBL286_lig1224
                    3D
 Schrodinger Suite 2021-1.
 90 93  0  0  1  0            999 V2000
   -4.5219  -12.4932   -8.8213 C   0  0  0  0  0  0
   -6.5844  -17.8793  -10.4019 C   0  0  0  0  0  0
   -6.1760  -15.2644   -8.4992 C   0  0  0  0  0  0
   -8.1180  -19.3609  -11.7089 C   0  0  1  0  0  0
   -9.4720  -18.8554  -11.0716 C   0  0  2  0  0  0
   -7.0697  -18.3332  -11.5718 N   0  0  0  0  0  0
   -6.0373  -15.5170   -9.8175 N   0  0  0  0  0  0
   -3.5947  -11.5325   -8.5641 N   0  0  0  0  0  0
   -5.5591  -16.7364  -10.4841 C   0  0  1  0  0  0
   -6.7087  -13.8731   -8.0763 C   0  0  1  0  0  0
  -10.7473  -19.7442  -11.0989 C   0  0  0  0  0  0
   -2.4354  -20.1236  -11.3378 N   0  0  0  0  0  0
   -9.2349  -13.8802   -8.8562 C   0  0  0  0  0  0
   -5.5283  -12.8992   -7.7126 C   0  0  0  0  0  0
   -3.4905  -18.2709  -10.7456 C   0  0  0  0  0  0
   -4.1544  -17.1504   -9.9808 C   0  0  0  0  0  0
   -7.8210  -13.2633   -8.9974 C   0  0  0  0  0  0
   -3.3243  -18.2547  -12.1361 N   0  0  0  0  0  0
   -2.6877  -19.3842  -12.4192 C   0  0  0  0  0  0
  -10.3752  -13.1083   -8.4094 C   0  0  0  0  0  0
   -2.9413  -19.4363  -10.2490 C   0  0  0  0  0  0
   -4.6690  -12.9502   -9.9561 O   0  0  0  0  0  0
   -5.8679  -16.0627   -7.6213 O   0  0  0  0  0  0
   -6.9198  -18.3262   -9.3061 O   0  0  0  0  0  0
   -7.6107  -20.7665  -11.2533 C   0  0  0  0  0  0
  -11.8818  -19.2639  -11.2207 O   0  0  0  0  0  0
  -11.6581  -13.7526   -8.3362 C   0  0  0  0  0  0
   -9.7926  -17.5799  -11.6243 O   0  0  0  0  0  0
  -10.5068  -21.0580  -10.9338 O   0  0  0  0  0  0
   -2.6400  -11.1374   -9.6196 C   0  0  0  0  0  0
   -3.1630  -11.1719   -7.1996 C   0  0  0  0  0  0
   -9.4325  -15.2201   -9.2205 C   0  0  0  0  0  0
  -10.6742  -15.8317   -9.1067 C   0  0  0  0  0  0
   -6.1710  -21.1668  -11.6774 C   0  0  0  0  0  0
  -10.3232  -11.7347   -8.0199 C   0  0  0  0  0  0
  -11.7798  -15.1166   -8.6813 C   0  0  0  0  0  0
  -12.8011  -13.0230   -7.9198 C   0  0  0  0  0  0
  -11.5589  -22.0057  -11.0460 C   0  0  0  0  0  0
   -6.0047  -21.2341  -13.2073 C   0  0  0  0  0  0
   -5.7512  -22.4975  -11.0286 C   0  0  0  0  0  0
   -1.3401  -11.9434   -9.3936 C   0  0  0  0  0  0
   -1.8689  -11.9721   -6.8980 C   0  0  0  0  0  0
  -11.4641  -11.0466   -7.6178 C   0  0  0  0  0  0
  -12.6941  -11.6838   -7.5707 C   0  0  0  0  0  0
   -0.7801  -11.7496   -7.9695 C   0  0  0  0  0  0
   -8.2787  -19.4341  -12.7857 H   0  0  0  0  0  0
   -9.2949  -18.6907  -10.0088 H   0  0  0  0  0  0
   -6.7443  -17.9132  -12.4312 H   0  0  0  0  0  0
   -6.2408  -14.7568  -10.4500 H   0  0  0  0  0  0
   -5.4537  -16.4584  -11.5343 H   0  0  0  0  0  0
   -7.2081  -14.0510   -7.1264 H   0  0  0  0  0  0
   -1.9482  -21.0090  -11.3162 H   0  0  0  0  0  0
   -5.9587  -11.9872   -7.2953 H   0  0  0  0  0  0
   -4.9563  -13.3447   -6.8961 H   0  0  0  0  0  0
   -3.4875  -16.2894  -10.0281 H   0  0  0  0  0  0
   -4.1937  -17.4466   -8.9330 H   0  0  0  0  0  0
   -7.5350  -13.3179  -10.0497 H   0  0  0  0  0  0
   -7.8605  -12.2012   -8.8014 H   0  0  0  0  0  0
   -2.3979  -19.6720  -13.4201 H   0  0  0  0  0  0
   -2.8660  -19.8126   -9.2375 H   0  0  0  0  0  0
   -7.6810  -20.8194  -10.1660 H   0  0  0  0  0  0
   -8.2726  -21.5394  -11.6391 H   0  0  0  0  0  0
   -9.6865  -17.6211  -12.5830 H   0  0  0  0  0  0
   -3.0568  -11.2433  -10.6233 H   0  0  0  0  0  0
   -2.4559  -10.0695   -9.5003 H   0  0  0  0  0  0
   -2.9417  -10.1021   -7.2154 H   0  0  0  0  0  0
   -3.9480  -11.2609   -6.4473 H   0  0  0  0  0  0
   -8.6192  -15.8206   -9.5934 H   0  0  0  0  0  0
  -10.7892  -16.8729   -9.3687 H   0  0  0  0  0  0
   -5.4774  -20.4134  -11.3066 H   0  0  0  0  0  0
   -9.3997  -11.1819   -8.0196 H   0  0  0  0  0  0
  -12.7443  -15.6024   -8.6199 H   0  0  0  0  0  0
  -13.7606  -13.5174   -7.8748 H   0  0  0  0  0  0
  -11.2074  -22.9881  -10.7301 H   0  0  0  0  0  0
  -12.4121  -21.7335  -10.4213 H   0  0  0  0  0  0
  -11.9030  -22.0777  -12.0790 H   0  0  0  0  0  0
   -6.6697  -21.9827  -13.6385 H   0  0  0  0  0  0
   -6.2279  -20.2781  -13.6802 H   0  0  0  0  0  0
   -4.9833  -21.5020  -13.4795 H   0  0  0  0  0  0
   -6.3942  -23.3188  -11.3483 H   0  0  0  0  0  0
   -4.7238  -22.7567  -11.2869 H   0  0  0  0  0  0
   -5.8046  -22.4381   -9.9412 H   0  0  0  0  0  0
   -1.5321  -13.0017   -9.5848 H   0  0  0  0  0  0
   -0.5917  -11.6469  -10.1307 H   0  0  0  0  0  0
   -1.4701  -11.6825   -5.9248 H   0  0  0  0  0  0
   -2.1079  -13.0349   -6.8199 H   0  0  0  0  0  0
  -11.3933  -10.0038   -7.3418 H   0  0  0  0  0  0
  -13.5689  -11.1324   -7.2576 H   0  0  0  0  0  0
   -0.3804  -10.7379   -7.8744 H   0  0  0  0  0  0
    0.0585  -12.4276   -7.8007 H   0  0  0  0  0  0
  1  8  1  0  0  0
  1 14  1  0  0  0
  1 22  2  0  0  0
  2  9  1  0  0  0
  2  6  1  0  0  0
  2 24  2  0  0  0
  3 10  1  0  0  0
  3  7  1  0  0  0
  3 23  2  0  0  0
  4  6  1  0  0  0
  4  5  1  0  0  0
  4 25  1  0  0  0
  4 46  1  0  0  0
  5 11  1  0  0  0
  5 28  1  0  0  0
  5 47  1  0  0  0
  6 48  1  0  0  0
  7  9  1  0  0  0
  7 49  1  0  0  0
  8 30  1  0  0  0
  8 31  1  0  0  0
  9 16  1  0  0  0
  9 50  1  0  0  0
 10 14  1  0  0  0
 10 17  1  0  0  0
 10 51  1  0  0  0
 11 26  2  0  0  0
 11 29  1  0  0  0
 12 21  1  0  0  0
 12 19  1  0  0  0
 12 52  1  0  0  0
 13 17  1  0  0  0
 13 20  2  0  0  0
 13 32  1  0  0  0
 14 53  1  0  0  0
 14 54  1  0  0  0
 15 16  1  0  0  0
 15 18  1  0  0  0
 15 21  2  0  0  0
 16 55  1  0  0  0
 16 56  1  0  0  0
 17 57  1  0  0  0
 17 58  1  0  0  0
 18 19  2  0  0  0
 19 59  1  0  0  0
 20 27  1  0  0  0
 20 35  1  0  0  0
 21 60  1  0  0  0
 25 34  1  0  0  0
 25 61  1  0  0  0
 25 62  1  0  0  0
 27 37  1  0  0  0
 27 36  2  0  0  0
 28 63  1  0  0  0
 29 38  1  0  0  0
 30 41  1  0  0  0
 30 64  1  0  0  0
 30 65  1  0  0  0
 31 42  1  0  0  0
 31 66  1  0  0  0
 31 67  1  0  0  0
 32 33  2  0  0  0
 32 68  1  0  0  0
 33 36  1  0  0  0
 33 69  1  0  0  0
 34 39  1  0  0  0
 34 40  1  0  0  0
 34 70  1  0  0  0
 35 43  2  0  0  0
 35 71  1  0  0  0
 36 72  1  0  0  0
 37 44  2  0  0  0
 37 73  1  0  0  0
 38 74  1  0  0  0
 38 75  1  0  0  0
 38 76  1  0  0  0
 39 77  1  0  0  0
 39 78  1  0  0  0
 39 79  1  0  0  0
 40 80  1  0  0  0
 40 81  1  0  0  0
 40 82  1  0  0  0
 41 45  1  0  0  0
 41 83  1  0  0  0
 41 84  1  0  0  0
 42 45  1  0  0  0
 42 85  1  0  0  0
 42 86  1  0  0  0
 43 44  1  0  0  0
 43 87  1  0  0  0
 44 88  1  0  0  0
 45 89  1  0  0  0
 45 90  1  0  0  0
M  END
> <s_m_entry_id>
26266

> <s_m_entry_name>
dock_pv.90

> <s_m_Source_Path>
/home/csk/Desktop/cluster/DUD-E-result/reni

> <s_m_Source_File>
dock_pv.maegz

> <i_m_Source_File_Index>
90

> <chembl_id>
CHEMBL159336

> <chembl_pref_name>
None

> <i_lp_mmshare_version>
53161

> <r_lp_tautomer_probability>
0.499999999999999

> <s_lp_Force_Field>
OPLS_2005

> <r_lp_Energy>
38.076127

> <b_lp_Chiralities_Consistent>
1

> <s_lp_Variant>
CHEMBL286_lig1224-13

> <s_i_glide_gridfile>
glide-grid_3g6z

> <i_i_glide_lignum>
3973

> <i_i_glide_rotatable_bonds>
19

> <r_i_docking_score>
-7.8796018028487

> <r_i_glide_ligand_efficiency>
-0.175102262285527

> <r_i_glide_ligand_efficiency_sa>
-0.622820063534164

> <r_i_glide_ligand_efficiency_ln>
-1.63930831832239

> <r_i_glide_gscore>
-7.8796018028487

> <r_i_glide_lipo>
-3.73598167149085

> <r_i_glide_hbond>
0

> <r_i_glide_metal>
0

> <r_i_glide_rewards>
-1.76176159811571

> <r_i_glide_evdw>
-50.0419654846191

> <r_i_glide_ecoul>
-2.8714439868927

> <r_i_glide_erotb>
0.582473839846423

> <r_i_glide_esite>
-0.0315175008236966

> <r_i_glide_emodel>
-71.1809637590653

> <r_i_glide_energy>
-52.9134094715118

> <r_i_glide_einternal>
15.8470993041992

> <i_i_glide_confnum>
44

> <i_i_glide_posenum>
105

> <r_i_glide_eff_state_penalty>
0

> <s_user_duplicate_titles>
CHEMBL286_lig1224,CHEMBL286_lig1224

> <i_f3d_flags>
0

> <s_m_subgroup_title>
dock_pv

> <s_m_subgroupid>
dock_pv

> <b_m_subgroup_collapsed>
1

$$$$
CHEMBL286_lig2039
                    3D
 Schrodinger Suite 2021-1.
 70 74  0  0  1  0            999 V2000
   -4.2203  -19.8296  -12.6024 N   0  0  2  0  0  0
   -4.1789  -18.4377  -12.1369 C   0  0  0  0  0  0
   -5.5401  -17.8972  -11.6083 C   0  0  2  0  0  0
   -5.3225  -16.7005  -10.8585 O   0  0  0  0  0  0
   -5.1597  -15.5235  -11.6467 C   0  0  0  0  0  0
   -4.6965  -14.3531  -10.7881 C   0  0  0  0  0  0
   -3.7121  -13.4879  -11.2708 C   0  0  0  0  0  0
   -3.2919  -12.3908  -10.5247 C   0  0  0  0  0  0
   -3.8645  -12.1297   -9.2588 C   0  0  0  0  0  0
   -3.4722  -11.0141   -8.4797 C   0  0  0  0  0  0
   -4.0590  -10.7846   -7.2392 C   0  0  0  0  0  0
   -5.0347  -11.6475   -6.7504 C   0  0  0  0  0  0
   -5.4451  -12.7525   -7.4882 C   0  0  0  0  0  0
   -4.8681  -13.0144   -8.7544 C   0  0  0  0  0  0
   -5.2716  -14.1233   -9.5371 C   0  0  0  0  0  0
   -6.3239  -18.8936  -10.7117 C   0  0  1  0  0  0
   -7.7478  -18.3946  -10.4386 C   0  0  0  0  0  0
   -8.6595  -18.2871  -11.4936 C   0  0  0  0  0  0
   -9.9392  -17.7934  -11.2699 C   0  0  0  0  0  0
  -10.3200  -17.4053   -9.9864 C   0  0  0  0  0  0
   -9.4193  -17.5179   -8.9244 C   0  0  0  0  0  0
   -8.1351  -18.0079   -9.1521 C   0  0  0  0  0  0
  -11.7147  -16.8616   -9.7510 C   0  0  0  0  0  0
  -11.6289  -15.5077   -9.3165 O   0  0  0  0  0  0
  -12.3122  -15.0577   -8.2445 C   0  0  0  0  0  0
  -13.1273  -15.7427   -7.6204 O   0  0  0  0  0  0
  -12.1022  -13.5958   -7.9832 C   0  0  0  0  0  0
  -13.1812  -12.8820   -7.4336 C   0  0  0  0  0  0
  -13.0706  -11.5261   -7.1354 C   0  0  0  0  0  0
  -11.8668  -10.8641   -7.3536 C   0  0  0  0  0  0
  -10.7788  -11.5577   -7.8732 C   0  0  0  0  0  0
  -10.8812  -12.9110   -8.1972 C   0  0  0  0  0  0
   -9.4441  -13.6636   -8.8199 Cl  0  0  0  0  0  0
   -6.2562  -20.3394  -11.2793 C   0  0  2  0  0  0
   -6.9344  -21.4357  -10.4174 C   0  0  0  0  0  0
   -8.3539  -21.3283  -10.3599 O   0  0  0  0  0  0
   -9.0336  -21.7583  -11.5324 C   0  0  0  0  0  0
   -4.7853  -20.7066  -11.5822 C   0  0  0  0  0  0
   -3.2774  -20.1294  -12.8179 H   0  0  0  0  0  0
   -3.8520  -17.8294  -12.9848 H   0  0  0  0  0  0
   -3.4158  -18.3402  -11.3615 H   0  0  0  0  0  0
   -6.1521  -17.6356  -12.4763 H   0  0  0  0  0  0
   -4.4248  -15.7145  -12.4210 H   0  0  0  0  0  0
   -6.1034  -15.2594  -12.1279 H   0  0  0  0  0  0
   -3.2693  -13.6628  -12.2430 H   0  0  0  0  0  0
   -2.5297  -11.7303  -10.9150 H   0  0  0  0  0  0
   -2.7140  -10.3412   -8.8529 H   0  0  0  0  0  0
   -3.7550   -9.9326   -6.6432 H   0  0  0  0  0  0
   -5.4687  -11.4567   -5.7822 H   0  0  0  0  0  0
   -6.2044  -13.4166   -7.0995 H   0  0  0  0  0  0
   -6.0343  -14.7898   -9.1633 H   0  0  0  0  0  0
   -5.8278  -18.9216   -9.7397 H   0  0  0  0  0  0
   -8.3763  -18.5762  -12.4932 H   0  0  0  0  0  0
  -10.6230  -17.6984  -12.1024 H   0  0  0  0  0  0
   -9.7085  -17.2189   -7.9276 H   0  0  0  0  0  0
   -7.4419  -18.0725   -8.3272 H   0  0  0  0  0  0
  -12.2392  -17.5115   -9.0497 H   0  0  0  0  0  0
  -12.2699  -16.8890  -10.6860 H   0  0  0  0  0  0
  -14.1228  -13.3715   -7.2273 H   0  0  0  0  0  0
  -13.9151  -10.9922   -6.7258 H   0  0  0  0  0  0
  -11.7807   -9.8134   -7.1117 H   0  0  0  0  0  0
   -9.8453  -11.0320   -8.0209 H   0  0  0  0  0  0
   -6.7579  -20.3037  -12.2495 H   0  0  0  0  0  0
   -6.6599  -22.4379  -10.7562 H   0  0  0  0  0  0
   -6.5596  -21.3609   -9.3954 H   0  0  0  0  0  0
  -10.0995  -21.5629  -11.4193 H   0  0  0  0  0  0
   -8.6925  -21.2310  -12.4243 H   0  0  0  0  0  0
   -8.9013  -22.8285  -11.6930 H   0  0  0  0  0  0
   -4.1834  -20.7199  -10.6682 H   0  0  0  0  0  0
   -4.7396  -21.7263  -11.9742 H   0  0  0  0  0  0
  1  2  1  0  0  0
  1 38  1  0  0  0
  1 39  1  0  0  0
  2  3  1  0  0  0
  2 40  1  0  0  0
  2 41  1  0  0  0
  3  4  1  0  0  0
  3 16  1  0  0  0
  3 42  1  0  0  0
  4  5  1  0  0  0
  5  6  1  0  0  0
  5 43  1  0  0  0
  5 44  1  0  0  0
  6  7  2  0  0  0
  6 15  1  0  0  0
  7  8  1  0  0  0
  7 45  1  0  0  0
  8  9  2  0  0  0
  8 46  1  0  0  0
  9 10  1  0  0  0
  9 14  1  0  0  0
 10 11  2  0  0  0
 10 47  1  0  0  0
 11 12  1  0  0  0
 11 48  1  0  0  0
 12 13  2  0  0  0
 12 49  1  0  0  0
 13 14  1  0  0  0
 13 50  1  0  0  0
 14 15  2  0  0  0
 15 51  1  0  0  0
 16 17  1  0  0  0
 16 34  1  0  0  0
 16 52  1  0  0  0
 17 18  2  0  0  0
 17 22  1  0  0  0
 18 19  1  0  0  0
 18 53  1  0  0  0
 19 20  2  0  0  0
 19 54  1  0  0  0
 20 21  1  0  0  0
 20 23  1  0  0  0
 21 22  2  0  0  0
 21 55  1  0  0  0
 22 56  1  0  0  0
 23 24  1  0  0  0
 23 57  1  0  0  0
 23 58  1  0  0  0
 24 25  1  0  0  0
 25 26  2  0  0  0
 25 27  1  0  0  0
 27 28  2  0  0  0
 27 32  1  0  0  0
 28 29  1  0  0  0
 28 59  1  0  0  0
 29 30  2  0  0  0
 29 60  1  0  0  0
 30 31  1  0  0  0
 30 61  1  0  0  0
 31 32  2  0  0  0
 31 62  1  0  0  0
 32 33  1  0  0  0
 34 35  1  0  0  0
 34 38  1  0  0  0
 34 63  1  0  0  0
 35 36  1  0  0  0
 35 64  1  0  0  0
 35 65  1  0  0  0
 36 37  1  0  0  0
 37 66  1  0  0  0
 37 67  1  0  0  0
 37 68  1  0  0  0
 38 69  1  0  0  0
 38 70  1  0  0  0
M  END
> <s_m_entry_id>
26267

> <s_m_entry_name>
dock_pv.91

> <s_m_Source_Path>
/home/csk/Desktop/cluster/DUD-E-result/reni

> <s_m_Source_File>
dock_pv.maegz

> <i_m_Source_File_Index>
91

> <chembl_id>
CHEMBL1235623

> <chembl_pref_name>
None

> <i_lp_mmshare_version>
53161

> <r_lp_tautomer_probability>
1

> <s_lp_Force_Field>
OPLS_2005

> <r_lp_Energy>
37.922582

> <b_lp_Chiralities_Consistent>
1

> <s_lp_Variant>
CHEMBL286_lig2039-1

> <s_i_glide_gridfile>
glide-grid_3g6z

> <i_i_glide_lignum>
5847

> <i_i_glide_rotatable_bonds>
10

> <r_i_docking_score>
-7.87232450907321

> <r_i_glide_ligand_efficiency>
-0.207166434449295

> <r_i_glide_ligand_efficiency_sa>
-0.696488456888247

> <r_i_glide_ligand_efficiency_ln>
-1.69750474448062

> <r_i_glide_gscore>
-7.87232450907321

> <r_i_glide_lipo>
-4.07193616882716

> <r_i_glide_hbond>
-0.0514347999086381

> <r_i_glide_metal>
0

> <r_i_glide_rewards>
-1.10090908926293

> <r_i_glide_evdw>
-51.0423965454102

> <r_i_glide_ecoul>
-4.55211782455444

> <r_i_glide_erotb>
0.586893049879199

> <r_i_glide_esite>
0

> <r_i_glide_emodel>
-78.9782394701413

> <r_i_glide_energy>
-55.5945143699646

> <r_i_glide_einternal>
6.57499027252197

> <i_i_glide_confnum>
7

> <i_i_glide_posenum>
318

> <r_i_glide_eff_state_penalty>
0

> <s_user_duplicate_titles>
CHEMBL286_lig2039

> <i_f3d_flags>
0

> <s_m_subgroup_title>
dock_pv

> <s_m_subgroupid>
dock_pv

> <b_m_subgroup_collapsed>
1

$$$$
CHEMBL286_lig637
                    3D
 Schrodinger Suite 2021-1.
 86 90  0  0  1  0            999 V2000
  -10.2414  -17.2935   -9.4575 N   0  0  0  0  0  0
  -11.1697  -16.4933  -10.0427 C   0  0  0  0  0  0
   -9.1037  -17.9104  -10.2058 C   0  0  2  0  0  0
   -7.9751  -16.9139  -10.6031 C   0  0  0  0  0  0
  -10.2241  -17.1235   -7.9974 C   0  0  0  0  0  0
  -11.7618  -15.6629   -8.9641 C   0  0  0  0  0  0
   -4.6463  -16.7640  -10.8860 C   0  0  0  0  0  0
   -2.5803  -15.5112  -10.1607 C   0  0  1  0  0  0
   -1.2846  -16.3701  -10.3446 C   0  0  1  0  0  0
   -3.6926  -15.8309  -11.0826 N   0  0  0  0  0  0
   -6.9834  -17.4319  -11.3455 N   0  0  0  0  0  0
   -5.8033  -16.7558  -11.8919 C   0  0  2  0  0  0
  -11.3115  -16.1108   -7.7504 C   0  0  0  0  0  0
   -1.4952  -17.9016  -10.2187 C   0  0  0  0  0  0
   -5.2157  -21.1956  -12.7345 N   0  0  0  0  0  0
   -5.4658  -18.9810  -13.1241 C   0  0  0  0  0  0
   -5.3695  -17.4785  -13.1888 C   0  0  0  0  0  0
   -6.5569  -19.6628  -13.6276 N   0  0  0  0  0  0
   -6.3642  -20.9559  -13.3555 C   0  0  0  0  0  0
  -11.4910  -16.4631  -11.2209 O   0  0  0  0  0  0
   -4.6369  -19.9366  -12.5781 C   0  0  0  0  0  0
   -9.5493  -18.7953  -11.4216 C   0  0  0  0  0  0
   -8.0140  -15.7403  -10.2308 O   0  0  0  0  0  0
   -3.0012  -15.3812   -8.6759 C   0  0  0  0  0  0
   -4.6422  -17.5906   -9.9731 O   0  0  0  0  0  0
   -1.4805  -18.6571  -11.1961 O   0  0  0  0  0  0
   -0.7431  -16.0723  -11.6209 O   0  0  0  0  0  0
   -1.7246  -18.2811   -8.9433 O   0  0  0  0  0  0
   -9.9499  -20.2272  -11.1343 C   0  0  0  0  0  0
   -4.2609  -14.5164   -8.4184 C   0  0  0  0  0  0
  -12.6690  -14.6111   -9.0627 C   0  0  0  0  0  0
  -11.8373  -15.5537   -6.5825 C   0  0  0  0  0  0
   -2.1591  -19.6008   -8.6462 C   0  0  0  0  0  0
  -11.3017  -20.6210  -11.2209 C   0  0  0  0  0  0
   -8.9705  -21.1860  -10.8036 C   0  0  0  0  0  0
   -5.0456  -15.0719   -7.2226 C   0  0  0  0  0  0
   -3.9284  -13.0249   -8.2024 C   0  0  0  0  0  0
  -13.1420  -14.0039   -7.9001 C   0  0  0  0  0  0
  -12.7365  -14.4867   -6.6587 C   0  0  0  0  0  0
   -9.3338  -22.5179  -10.6576 C   0  0  0  0  0  0
  -11.6400  -21.9609  -11.1005 C   0  0  0  0  0  0
   -5.2242  -12.2344   -7.9837 C   0  0  0  0  0  0
   -6.2702  -14.2220   -6.8213 C   0  0  0  0  0  0
   -5.9676  -12.7097   -6.7284 C   0  0  0  0  0  0
  -10.6578  -22.9063  -10.8255 C   0  0  0  0  0  0
   -8.6259  -18.5947   -9.5040 H   0  0  0  0  0  0
  -10.4024  -18.0630   -7.4803 H   0  0  0  0  0  0
   -9.2485  -16.7571   -7.6778 H   0  0  0  0  0  0
   -2.3020  -14.4935  -10.4455 H   0  0  0  0  0  0
   -0.5418  -16.0772   -9.6025 H   0  0  0  0  0  0
   -3.7903  -15.2314  -11.8916 H   0  0  0  0  0  0
   -7.0149  -18.4186  -11.5575 H   0  0  0  0  0  0
   -6.0505  -15.7164  -12.1180 H   0  0  0  0  0  0
   -7.3455  -19.2293  -14.1097 H   0  0  0  0  0  0
   -5.9803  -17.1267  -14.0211 H   0  0  0  0  0  0
   -4.3399  -17.2342  -13.4544 H   0  0  0  0  0  0
   -7.0683  -21.7312  -13.6212 H   0  0  0  0  0  0
   -3.6914  -19.8139  -12.0682 H   0  0  0  0  0  0
  -10.3402  -18.3376  -12.0073 H   0  0  0  0  0  0
   -8.7637  -18.8915  -12.1665 H   0  0  0  0  0  0
   -2.1666  -14.9973   -8.0892 H   0  0  0  0  0  0
   -3.1765  -16.3789   -8.2762 H   0  0  0  0  0  0
   -1.4423  -16.2492  -12.2625 H   0  0  0  0  0  0
   -4.9483  -14.5573   -9.2648 H   0  0  0  0  0  0
  -13.0251  -14.2656  -10.0206 H   0  0  0  0  0  0
  -11.4729  -15.8808   -5.6172 H   0  0  0  0  0  0
   -2.2379  -19.7310   -7.5662 H   0  0  0  0  0  0
   -3.1406  -19.7887   -9.0842 H   0  0  0  0  0  0
   -1.4694  -20.3494   -9.0300 H   0  0  0  0  0  0
  -12.0641  -19.8909  -11.4487 H   0  0  0  0  0  0
   -7.9324  -20.8989  -10.7094 H   0  0  0  0  0  0
   -4.3300  -15.1168   -6.4208 H   0  0  0  0  0  0
   -5.3370  -16.1075   -7.3985 H   0  0  0  0  0  0
   -3.3839  -12.6361   -9.0638 H   0  0  0  0  0  0
   -3.2508  -12.9028   -7.3559 H   0  0  0  0  0  0
  -13.8440  -13.1849   -7.9578 H   0  0  0  0  0  0
  -13.1175  -14.0461   -5.7517 H   0  0  0  0  0  0
   -8.5793  -23.2578  -10.4315 H   0  0  0  0  0  0
  -12.6697  -22.2699  -11.2113 H   0  0  0  0  0  0
   -5.0450  -11.1582   -7.9613 H   0  0  0  0  0  0
   -5.8749  -12.4625   -8.8210 H   0  0  0  0  0  0
   -6.6687  -14.5802   -5.8730 H   0  0  0  0  0  0
   -7.0609  -14.3841   -7.5551 H   0  0  0  0  0  0
   -5.3756  -12.4666   -5.8450 H   0  0  0  0  0  0
   -6.9028  -12.1583   -6.6228 H   0  0  0  0  0  0
  -10.9244  -23.9473  -10.7293 H   0  0  0  0  0  0
  1  2  1  0  0  0
  1  3  1  0  0  0
  1  5  1  0  0  0
  2  6  1  0  0  0
  2 20  2  0  0  0
  3  4  1  0  0  0
  3 22  1  0  0  0
  3 46  1  0  0  0
  4 11  1  0  0  0
  4 23  2  0  0  0
  5 13  1  0  0  0
  5 47  1  0  0  0
  5 48  1  0  0  0
  6 31  2  0  0  0
  6 13  1  0  0  0
  7 12  1  0  0  0
  7 10  1  0  0  0
  7 25  2  0  0  0
  8 10  1  0  0  0
  8  9  1  0  0  0
  8 24  1  0  0  0
  8 49  1  0  0  0
  9 14  1  0  0  0
  9 27  1  0  0  0
  9 50  1  0  0  0
 10 51  1  0  0  0
 11 12  1  0  0  0
 11 52  1  0  0  0
 12 17  1  0  0  0
 12 53  1  0  0  0
 13 32  2  0  0  0
 14 26  2  0  0  0
 14 28  1  0  0  0
 15 19  2  0  0  0
 15 21  1  0  0  0
 16 21  2  0  0  0
 16 17  1  0  0  0
 16 18  1  0  0  0
 17 55  1  0  0  0
 17 56  1  0  0  0
 18 54  1  0  0  0
 18 19  1  0  0  0
 19 57  1  0  0  0
 21 58  1  0  0  0
 22 29  1  0  0  0
 22 59  1  0  0  0
 22 60  1  0  0  0
 24 30  1  0  0  0
 24 61  1  0  0  0
 24 62  1  0  0  0
 27 63  1  0  0  0
 28 33  1  0  0  0
 29 34  2  0  0  0
 29 35  1  0  0  0
 30 36  1  0  0  0
 30 37  1  0  0  0
 30 64  1  0  0  0
 31 38  1  0  0  0
 31 65  1  0  0  0
 32 39  1  0  0  0
 32 66  1  0  0  0
 33 67  1  0  0  0
 33 68  1  0  0  0
 33 69  1  0  0  0
 34 41  1  0  0  0
 34 70  1  0  0  0
 35 40  2  0  0  0
 35 71  1  0  0  0
 36 43  1  0  0  0
 36 72  1  0  0  0
 36 73  1  0  0  0
 37 42  1  0  0  0
 37 74  1  0  0  0
 37 75  1  0  0  0
 38 39  2  0  0  0
 38 76  1  0  0  0
 39 77  1  0  0  0
 40 45  1  0  0  0
 40 78  1  0  0  0
 41 45  2  0  0  0
 41 79  1  0  0  0
 42 44  1  0  0  0
 42 80  1  0  0  0
 42 81  1  0  0  0
 43 44  1  0  0  0
 43 82  1  0  0  0
 43 83  1  0  0  0
 44 84  1  0  0  0
 44 85  1  0  0  0
 45 86  1  0  0  0
M  END
> <s_m_entry_id>
26268

> <s_m_entry_name>
dock_pv.92

> <s_m_Source_Path>
/home/csk/Desktop/cluster/DUD-E-result/reni

> <s_m_Source_File>
dock_pv.maegz

> <i_m_Source_File_Index>
92

> <chembl_id>
CHEMBL353061

> <chembl_pref_name>
None

> <i_lp_mmshare_version>
53161

> <r_lp_tautomer_probability>
0.499999999999999

> <s_lp_Force_Field>
OPLS_2005

> <r_lp_Energy>
48.015612

> <b_lp_Chiralities_Consistent>
1

> <s_lp_Variant>
CHEMBL286_lig637-6

> <s_i_glide_gridfile>
glide-grid_3g6z

> <i_i_glide_lignum>
1804

> <i_i_glide_rotatable_bonds>
17

> <r_i_docking_score>
-7.84791055416127

> <r_i_glide_ligand_efficiency>
-0.174398012314695

> <r_i_glide_ligand_efficiency_sa>
-0.620315121531404

> <r_i_glide_ligand_efficiency_ln>
-1.63271512631965

> <r_i_glide_gscore>
-7.84791055416127

> <r_i_glide_lipo>
-3.31899044419972

> <r_i_glide_hbond>
-0.210083876649449

> <r_i_glide_metal>
0

> <r_i_glide_rewards>
-1.36037199916554

> <r_i_glide_evdw>
-46.4661483764648

> <r_i_glide_ecoul>
-7.00742816925049

> <r_i_glide_erotb>
0.594073524962445

> <r_i_glide_esite>
-0.17811611489819

> <r_i_glide_emodel>
-62.1978475586239

> <r_i_glide_energy>
-53.4735765457153

> <r_i_glide_einternal>
12.6340055465698

> <i_i_glide_confnum>
9

> <i_i_glide_posenum>
388

> <r_i_glide_eff_state_penalty>
0

> <s_user_duplicate_titles>
CHEMBL286_lig637

> <i_f3d_flags>
0

> <s_m_subgroup_title>
dock_pv

> <s_m_subgroupid>
dock_pv

> <b_m_subgroup_collapsed>
1

$$$$
CHEMBL286_lig2604
                    3D
 Schrodinger Suite 2021-1.
107109  0  0  1  0            999 V2000
   -6.7687  -20.7719  -12.8825 C   0  0  0  0  0  0
   -6.1024  -21.3319  -11.5988 C   0  0  0  0  0  0
   -5.6500  -22.7824  -11.8966 C   0  0  0  0  0  0
   -9.2710  -13.0303   -8.4206 C   0  0  0  0  0  0
   -9.8705  -14.2377   -8.8209 C   0  0  0  0  0  0
   -9.0523  -15.3278   -9.1730 C   0  0  0  0  0  0
   -7.6630  -15.2100   -9.1359 C   0  0  0  0  0  0
   -7.0544  -13.9940   -8.8283 C   0  0  0  0  0  0
   -7.8699  -12.9197   -8.4479 C   0  0  0  0  0  0
  -10.1134  -12.0076   -8.0213 O   0  0  0  0  0  0
   -9.6329  -10.7737   -7.4631 C   0  0  0  0  0  0
  -10.8011   -9.7821   -7.4172 C   0  0  0  0  0  0
  -12.0397  -10.3080   -6.6590 C   0  0  0  0  0  0
  -12.7289  -11.2608   -7.4641 O   0  0  0  0  0  0
  -13.8231  -11.8942   -6.8264 C   0  0  0  0  0  0
  -11.2545  -14.2970   -8.8028 O   0  0  0  0  0  0
  -11.9184  -15.4853   -9.2255 C   0  0  0  0  0  0
   -5.5603  -13.8106   -9.1238 C   0  0  0  0  0  0
   -4.5122  -13.9992   -7.9929 C   0  0  1  0  0  0
   -3.1701  -14.5575   -8.5735 C   0  0  0  0  0  0
   -4.2024  -12.6937   -7.1883 C   0  0  0  0  0  0
   -5.3976  -12.1043   -6.4291 C   0  0  0  0  0  0
   -3.4955  -11.5744   -7.9869 C   0  0  0  0  0  0
   -3.1219  -16.0646   -8.9698 C   0  0  1  0  0  0
   -2.5323  -16.3005  -10.3893 C   0  0  2  0  0  0
   -2.2697  -16.7626   -8.0173 N   0  0  0  0  0  0
   -3.4859  -15.9056  -11.5356 C   0  0  0  0  0  0
   -2.0994  -17.6371  -10.5600 O   0  0  0  0  0  0
   -4.8630  -16.6428  -11.6848 C   0  0  2  0  0  0
   -4.6660  -18.1418  -12.0445 C   0  0  0  0  0  0
   -5.8724  -15.9710  -12.6901 C   0  0  0  0  0  0
   -6.0106  -14.4287  -12.6592 C   0  0  0  0  0  0
   -7.2950  -16.5598  -12.5568 C   0  0  0  0  0  0
   -4.1762  -18.4558  -13.1360 O   0  0  0  0  0  0
   -5.0297  -19.0515  -11.1168 N   0  0  0  0  0  0
   -4.8276  -20.5030  -11.2451 C   0  0  0  0  0  0
   -7.0913  -21.2983  -10.3871 C   0  0  0  0  0  0
   -8.5164  -21.7859  -10.6581 C   0  0  0  0  0  0
   -9.5544  -20.8572  -10.7740 C   0  0  0  0  0  0
  -10.0537  -23.5911  -11.1637 C   0  0  0  0  0  0
   -8.7823  -23.1443  -10.8126 C   0  0  0  0  0  0
  -11.1104  -22.6655  -11.3350 C   0  0  0  0  0  0
  -10.8664  -21.2782  -11.1000 C   0  0  0  0  0  0
  -11.9388  -20.3552  -11.2204 C   0  0  0  0  0  0
  -13.1958  -20.7952  -11.6210 C   0  0  0  0  0  0
  -13.4241  -22.1399  -11.8915 C   0  0  0  0  0  0
  -12.4058  -23.0778  -11.7381 C   0  0  0  0  0  0
   -6.0538  -20.6578  -13.6966 H   0  0  0  0  0  0
   -7.5632  -21.4214  -13.2380 H   0  0  0  0  0  0
   -7.2252  -19.8008  -12.7068 H   0  0  0  0  0  0
   -4.8736  -22.8101  -12.6637 H   0  0  0  0  0  0
   -5.2483  -23.2757  -11.0084 H   0  0  0  0  0  0
   -6.4643  -23.3968  -12.2813 H   0  0  0  0  0  0
   -9.4731  -16.2749   -9.4634 H   0  0  0  0  0  0
   -7.0645  -16.0613   -9.4123 H   0  0  0  0  0  0
   -7.4340  -11.9604   -8.2679 H   0  0  0  0  0  0
   -9.2494  -10.8628   -6.4472 H   0  0  0  0  0  0
   -8.8145  -10.3271   -8.0208 H   0  0  0  0  0  0
  -10.4549   -8.8579   -6.9503 H   0  0  0  0  0  0
  -11.0704   -9.5096   -8.4391 H   0  0  0  0  0  0
  -11.7288  -10.7501   -5.7122 H   0  0  0  0  0  0
  -12.7067   -9.4751   -6.4212 H   0  0  0  0  0  0
  -14.3403  -12.5195   -7.5557 H   0  0  0  0  0  0
  -13.4812  -12.5455   -6.0223 H   0  0  0  0  0  0
  -14.5440  -11.1830   -6.4245 H   0  0  0  0  0  0
  -12.9975  -15.3274   -9.1669 H   0  0  0  0  0  0
  -11.6841  -15.7276  -10.2669 H   0  0  0  0  0  0
  -11.6729  -16.3365   -8.5898 H   0  0  0  0  0  0
   -5.4137  -12.8638   -9.6352 H   0  0  0  0  0  0
   -5.3360  -14.5350   -9.8994 H   0  0  0  0  0  0
   -4.8932  -14.7433   -7.2927 H   0  0  0  0  0  0
   -2.3498  -14.3326   -7.8878 H   0  0  0  0  0  0
   -2.9225  -13.9568   -9.4500 H   0  0  0  0  0  0
   -3.4964  -13.0032   -6.4221 H   0  0  0  0  0  0
   -5.9630  -11.4072   -7.0392 H   0  0  0  0  0  0
   -6.0616  -12.8648   -6.0218 H   0  0  0  0  0  0
   -5.0456  -11.4832   -5.6215 H   0  0  0  0  0  0
   -4.1195  -11.1985   -8.7977 H   0  0  0  0  0  0
   -3.2564  -10.7209   -7.3471 H   0  0  0  0  0  0
   -2.5551  -11.9050   -8.4217 H   0  0  0  0  0  0
   -4.1111  -16.5117   -8.8990 H   0  0  0  0  0  0
   -1.6223  -15.7022  -10.4836 H   0  0  0  0  0  0
   -1.4220  -16.2372   -7.8558 H   0  0  0  0  0  0
   -2.7552  -16.8252   -7.1279 H   0  0  0  0  0  0
   -2.8954  -16.0392  -12.4215 H   0  0  0  0  0  0
   -3.6366  -14.8303  -11.4670 H   0  0  0  0  0  0
   -1.9833  -17.9772   -9.6586 H   0  0  0  0  0  0
   -5.3448  -16.6023  -10.7090 H   0  0  0  0  0  0
   -5.5224  -16.2138  -13.6912 H   0  0  0  0  0  0
   -6.4991  -14.0729  -11.7542 H   0  0  0  0  0  0
   -5.0678  -13.9012  -12.7705 H   0  0  0  0  0  0
   -6.6304  -14.0871  -13.4906 H   0  0  0  0  0  0
   -7.6880  -16.4739  -11.5462 H   0  0  0  0  0  0
   -7.9978  -16.0565  -13.2174 H   0  0  0  0  0  0
   -7.3123  -17.6148  -12.8184 H   0  0  0  0  0  0
   -5.4139  -18.7163  -10.2443 H   0  0  0  0  0  0
   -4.4098  -20.8550  -10.2981 H   0  0  0  0  0  0
   -4.0394  -20.7024  -11.9738 H   0  0  0  0  0  0
   -7.1607  -20.2777   -9.9988 H   0  0  0  0  0  0
   -6.6828  -21.8709   -9.5494 H   0  0  0  0  0  0
   -9.3625  -19.7987  -10.6398 H   0  0  0  0  0  0
  -10.2365  -24.6432  -11.3193 H   0  0  0  0  0  0
   -7.9903  -23.8694  -10.6958 H   0  0  0  0  0  0
  -11.7599  -19.3061  -11.0352 H   0  0  0  0  0  0
  -14.0042  -20.0922  -11.7524 H   0  0  0  0  0  0
  -14.4056  -22.4615  -12.2066 H   0  0  0  0  0  0
  -12.5952  -24.1212  -11.9359 H   0  0  0  0  0  0
  1  2  1  0  0  0
  1 48  1  0  0  0
  1 49  1  0  0  0
  1 50  1  0  0  0
  2  3  1  0  0  0
  2 36  1  0  0  0
  2 37  1  0  0  0
  3 51  1  0  0  0
  3 52  1  0  0  0
  3 53  1  0  0  0
  4  5  2  0  0  0
  4  9  1  0  0  0
  4 10  1  0  0  0
  5  6  1  0  0  0
  5 16  1  0  0  0
  6  7  2  0  0  0
  6 54  1  0  0  0
  7  8  1  0  0  0
  7 55  1  0  0  0
  8  9  2  0  0  0
  8 18  1  0  0  0
  9 56  1  0  0  0
 10 11  1  0  0  0
 11 12  1  0  0  0
 11 57  1  0  0  0
 11 58  1  0  0  0
 12 13  1  0  0  0
 12 59  1  0  0  0
 12 60  1  0  0  0
 13 14  1  0  0  0
 13 61  1  0  0  0
 13 62  1  0  0  0
 14 15  1  0  0  0
 15 63  1  0  0  0
 15 64  1  0  0  0
 15 65  1  0  0  0
 16 17  1  0  0  0
 17 66  1  0  0  0
 17 67  1  0  0  0
 17 68  1  0  0  0
 18 19  1  0  0  0
 18 69  1  0  0  0
 18 70  1  0  0  0
 19 20  1  0  0  0
 19 21  1  0  0  0
 19 71  1  0  0  0
 20 24  1  0  0  0
 20 72  1  0  0  0
 20 73  1  0  0  0
 21 22  1  0  0  0
 21 23  1  0  0  0
 21 74  1  0  0  0
 22 75  1  0  0  0
 22 76  1  0  0  0
 22 77  1  0  0  0
 23 78  1  0  0  0
 23 79  1  0  0  0
 23 80  1  0  0  0
 24 25  1  0  0  0
 24 26  1  0  0  0
 24 81  1  0  0  0
 25 27  1  0  0  0
 25 28  1  0  0  0
 25 82  1  0  0  0
 26 83  1  0  0  0
 26 84  1  0  0  0
 27 29  1  0  0  0
 27 85  1  0  0  0
 27 86  1  0  0  0
 28 87  1  0  0  0
 29 30  1  0  0  0
 29 31  1  0  0  0
 29 88  1  0  0  0
 30 34  2  0  0  0
 30 35  1  0  0  0
 31 32  1  0  0  0
 31 33  1  0  0  0
 31 89  1  0  0  0
 32 90  1  0  0  0
 32 91  1  0  0  0
 32 92  1  0  0  0
 33 93  1  0  0  0
 33 94  1  0  0  0
 33 95  1  0  0  0
 35 36  1  0  0  0
 35 96  1  0  0  0
 36 97  1  0  0  0
 36 98  1  0  0  0
 37 38  1  0  0  0
 37 99  1  0  0  0
 37100  1  0  0  0
 38 39  2  0  0  0
 38 41  1  0  0  0
 39 43  1  0  0  0
 39101  1  0  0  0
 40 42  1  0  0  0
 40 41  2  0  0  0
 40102  1  0  0  0
 41103  1  0  0  0
 42 43  1  0  0  0
 42 47  2  0  0  0
 43 44  2  0  0  0
 44 45  1  0  0  0
 44104  1  0  0  0
 45 46  2  0  0  0
 45105  1  0  0  0
 46 47  1  0  0  0
 46106  1  0  0  0
 47107  1  0  0  0
M  END
> <s_m_entry_id>
26269

> <s_m_entry_name>
dock_pv.93

> <s_m_Source_Path>
/home/csk/Desktop/cluster/DUD-E-result/reni

> <s_m_Source_File>
dock_pv.maegz

> <i_m_Source_File_Index>
93

> <chembl_id>
CHEMBL3633112

> <chembl_pref_name>
None

> <i_lp_mmshare_version>
53161

> <r_lp_tautomer_probability>
1

> <s_lp_Force_Field>
OPLS_2005

> <r_lp_Energy>
40.085541

> <b_lp_Chiralities_Consistent>
1

> <s_lp_Variant>
CHEMBL286_lig2604-1

> <s_i_glide_gridfile>
glide-grid_3g6z

> <i_i_glide_lignum>
6669

> <i_i_glide_rotatable_bonds>
22

> <r_i_docking_score>
-7.8400910734203

> <r_i_glide_ligand_efficiency>
-0.166810448370645

> <r_i_glide_ligand_efficiency_sa>
-0.601989895747028

> <r_i_glide_ligand_efficiency_ln>
-1.61646442897038

> <r_i_glide_gscore>
-7.8400910734203

> <r_i_glide_lipo>
-4.64621964329045

> <r_i_glide_hbond>
-0.341509475856066

> <r_i_glide_metal>
0

> <r_i_glide_rewards>
-0.31604478291739

> <r_i_glide_evdw>
-49.930362701416

> <r_i_glide_ecoul>
-4.64178276062012

> <r_i_glide_erotb>
0.656468377807419

> <r_i_glide_esite>
0

> <r_i_glide_emodel>
-57.4124440014019

> <r_i_glide_energy>
-54.5721454620361

> <r_i_glide_einternal>
32.5020599365234

> <i_i_glide_confnum>
2

> <i_i_glide_posenum>
83

> <r_i_glide_eff_state_penalty>
0

> <s_user_duplicate_titles>
CHEMBL286_lig2604

> <i_f3d_flags>
0

> <s_m_subgroup_title>
dock_pv

> <s_m_subgroupid>
dock_pv

> <b_m_subgroup_collapsed>
1

$$$$
CHEMBL286_lig2024
                    3D
 Schrodinger Suite 2021-1.
 51 54  0  0  1  0            999 V2000
   -9.8165  -18.7560  -10.5137 C   0  0  0  0  0  0
   -9.3851  -16.5420   -9.8353 C   0  0  1  0  0  0
  -10.0586  -17.3971  -10.7906 N   0  0  0  0  0  0
  -10.4383  -15.6610   -9.0926 C   0  0  0  0  0  0
  -11.6380  -16.2279   -8.6332 C   0  0  0  0  0  0
  -12.5800  -15.4813   -7.9229 C   0  0  0  0  0  0
  -12.3513  -14.1251   -7.6554 C   0  0  0  0  0  0
  -11.1624  -13.5444   -8.1099 C   0  0  0  0  0  0
  -10.2304  -14.2974   -8.8210 C   0  0  0  0  0  0
  -10.2926  -19.6824  -11.2210 N   0  0  0  0  0  0
   -9.0690  -18.8035   -9.3824 N   0  0  0  0  0  0
   -8.8245  -17.5842   -8.8519 C   0  0  0  0  0  0
   -8.5993  -20.0071   -8.6884 C   0  0  0  0  0  0
   -8.2688  -17.3301   -7.7809 O   0  0  0  0  0  0
   -8.2095  -15.7537  -10.5007 C   0  0  0  0  0  0
   -7.2659  -15.0755   -9.7060 C   0  0  0  0  0  0
   -6.2700  -14.2766  -10.2725 C   0  0  0  0  0  0
   -6.1816  -14.1666  -11.6654 C   0  0  0  0  0  0
   -7.0680  -14.8762  -12.4721 C   0  0  0  0  0  0
   -8.0668  -15.6620  -11.8990 C   0  0  0  0  0  0
  -13.2827  -13.4269   -6.9121 O   0  0  0  0  0  0
  -13.5817  -12.0838   -7.2876 C   0  0  0  0  0  0
  -14.2781  -12.0631   -8.4215 F   0  0  0  0  0  0
  -14.3198  -11.5236   -6.3319 F   0  0  0  0  0  0
   -5.3685  -13.5349   -9.3992 C   0  0  0  0  0  0
   -5.2574  -13.3648  -12.2481 F   0  0  0  0  0  0
   -4.6360  -12.8609   -8.6912 C   0  0  0  0  0  0
   -3.7541  -12.0102   -7.8744 C   0  0  0  0  0  0
   -3.6504  -10.5429   -8.2379 C   0  0  0  0  0  0
   -4.3826  -10.9559   -6.9872 C   0  0  0  0  0  0
  -13.8570  -16.1610   -7.4694 C   0  0  0  0  0  0
  -11.8410  -17.2716   -8.8230 H   0  0  0  0  0  0
  -10.9307  -12.5113   -7.9055 H   0  0  0  0  0  0
   -9.3439  -13.7826   -9.1512 H   0  0  0  0  0  0
  -10.0397  -20.6004  -10.8880 H   0  0  0  0  0  0
  -10.1678  -17.0004  -11.7115 H   0  0  0  0  0  0
   -9.0691  -20.0958   -7.7081 H   0  0  0  0  0  0
   -8.8247  -20.9135   -9.2502 H   0  0  0  0  0  0
   -7.5181  -19.9676   -8.5443 H   0  0  0  0  0  0
   -7.3414  -15.1277   -8.6282 H   0  0  0  0  0  0
   -6.9905  -14.8046  -13.5474 H   0  0  0  0  0  0
   -8.7367  -16.1753  -12.5725 H   0  0  0  0  0  0
  -12.7107  -11.4384   -7.3973 H   0  0  0  0  0  0
   -2.8585  -12.5193   -7.5163 H   0  0  0  0  0  0
   -4.2226  -10.1554   -9.0824 H   0  0  0  0  0  0
   -2.6760  -10.0632   -8.1487 H   0  0  0  0  0  0
   -3.9228  -10.7528   -6.0210 H   0  0  0  0  0  0
   -5.4687  -10.8660   -6.9510 H   0  0  0  0  0  0
  -13.8053  -16.4202   -6.4210 H   0  0  0  0  0  0
  -14.7113  -15.5028   -7.6180 H   0  0  0  0  0  0
  -14.0421  -17.0795   -8.0210 H   0  0  0  0  0  0
  1 11  1  0  0  0
  1 10  2  0  0  0
  1  3  1  0  0  0
  2  3  1  0  0  0
  2 12  1  0  0  0
  2 15  1  0  0  0
  2  4  1  0  0  0
  3 36  1  0  0  0
  4  9  1  0  0  0
  4  5  2  0  0  0
  5  6  1  0  0  0
  5 32  1  0  0  0
  6  7  2  0  0  0
  6 31  1  0  0  0
  7  8  1  0  0  0
  7 21  1  0  0  0
  8  9  2  0  0  0
  8 33  1  0  0  0
  9 34  1  0  0  0
 10 35  1  0  0  0
 11 12  1  0  0  0
 11 13  1  0  0  0
 12 14  2  0  0  0
 13 37  1  0  0  0
 13 38  1  0  0  0
 13 39  1  0  0  0
 15 16  2  0  0  0
 15 20  1  0  0  0
 16 17  1  0  0  0
 16 40  1  0  0  0
 17 18  2  0  0  0
 17 25  1  0  0  0
 18 19  1  0  0  0
 18 26  1  0  0  0
 19 20  2  0  0  0
 19 41  1  0  0  0
 20 42  1  0  0  0
 21 22  1  0  0  0
 22 23  1  0  0  0
 22 24  1  0  0  0
 22 43  1  0  0  0
 25 27  3  0  0  0
 27 28  1  0  0  0
 28 29  1  0  0  0
 28 30  1  0  0  0
 28 44  1  0  0  0
 29 30  1  0  0  0
 29 45  1  0  0  0
 29 46  1  0  0  0
 30 47  1  0  0  0
 30 48  1  0  0  0
 31 49  1  0  0  0
 31 50  1  0  0  0
 31 51  1  0  0  0
M  END
> <s_m_entry_id>
26270

> <s_m_entry_name>
dock_pv.94

> <s_m_Source_Path>
/home/csk/Desktop/cluster/DUD-E-result/reni

> <s_m_Source_File>
dock_pv.maegz

> <i_m_Source_File_Index>
94

> <chembl_id>
CHEMBL1270432

> <chembl_pref_name>
None

> <i_lp_mmshare_version>
53161

> <r_lp_tautomer_probability>
0.499639836881432

> <s_lp_Force_Field>
OPLS_2005

> <r_lp_Energy>
35.246888

> <b_lp_Chiralities_Consistent>
1

> <s_lp_Variant>
CHEMBL286_lig2024-1

> <s_i_glide_gridfile>
glide-grid_3g6z

> <i_i_glide_lignum>
5826

> <i_i_glide_rotatable_bonds>
6

> <r_i_docking_score>
-7.83790412559236

> <r_i_glide_ligand_efficiency>
-0.252835616954592

> <r_i_glide_ligand_efficiency_sa>
-0.794252914427446

> <r_i_glide_ligand_efficiency_ln>
-1.76768758323525

> <r_i_glide_gscore>
-7.83790412559236

> <r_i_glide_lipo>
-3.85825514247723

> <r_i_glide_hbond>
0

> <r_i_glide_metal>
0

> <r_i_glide_rewards>
-2.28738995567671

> <r_i_glide_evdw>
-40.6118774414062

> <r_i_glide_ecoul>
-1.33142650127411

> <r_i_glide_erotb>
0.543408562442237

> <r_i_glide_esite>
-0.00535974261922803

> <r_i_glide_emodel>
-57.7978890915417

> <r_i_glide_energy>
-41.9433039426804

> <r_i_glide_einternal>
3.73286437988281

> <i_i_glide_confnum>
4

> <i_i_glide_posenum>
73

> <r_i_glide_eff_state_penalty>
0

> <s_user_duplicate_titles>
CHEMBL286_lig2024,CHEMBL286_lig2024

> <i_f3d_flags>
0

> <s_m_subgroup_title>
dock_pv

> <s_m_subgroupid>
dock_pv

> <b_m_subgroup_collapsed>
1

$$$$
CHEMBL286_lig2518
                    3D
 Schrodinger Suite 2021-1.
 72 75  0  0  1  0            999 V2000
  -12.7167  -14.5204   -8.9455 C   0  0  0  0  0  0
  -12.0175  -15.8480   -8.5744 C   0  0  0  0  0  0
  -12.2026  -13.2837   -8.3265 N   0  0  0  0  0  0
  -11.2033  -16.3330   -9.6835 N   0  0  0  0  0  0
   -9.9722  -16.8582   -9.5644 C   0  0  0  0  0  0
   -9.1754  -17.0103  -10.8859 C   0  0  2  0  0  0
   -9.4608  -17.1602   -8.4821 O   0  0  0  0  0  0
   -9.0313  -18.4735  -11.3797 C   0  0  0  0  0  0
   -7.8825  -16.3171  -10.6777 N   0  0  0  0  0  0
   -7.2531  -15.3455  -11.4916 C   0  0  0  0  0  0
   -6.3032  -14.6690  -10.9801 N   0  0  0  0  0  0
   -7.7697  -15.2630  -12.8114 N   0  0  0  0  0  0
   -5.5765  -13.7159  -11.6720 C   0  0  0  0  0  0
   -4.0877  -13.7037  -11.2926 C   0  0  0  0  0  0
   -6.0604  -12.8631  -12.4212 O   0  0  0  0  0  0
   -3.7456  -12.8344  -10.0735 C   0  0  0  0  0  0
   -2.5782  -12.0652  -10.0998 C   0  0  0  0  0  0
   -2.2077  -11.2624   -9.0049 C   0  0  0  0  0  0
   -3.0327  -11.2453   -7.8681 C   0  0  0  0  0  0
   -4.1849  -12.0276   -7.8258 C   0  0  0  0  0  0
   -4.5290  -12.8314   -8.9109 C   0  0  0  0  0  0
   -8.0470  -19.3724  -10.6444 C   0  0  0  0  0  0
   -8.4455  -20.1147   -9.5129 C   0  0  0  0  0  0
   -7.5164  -20.8788   -8.8209 C   0  0  0  0  0  0
   -6.1828  -20.8893   -9.2140 C   0  0  0  0  0  0
   -5.7653  -20.1263  -10.2983 C   0  0  0  0  0  0
   -6.6817  -19.3620  -11.0079 C   0  0  0  0  0  0
  -13.0367  -12.4019   -7.7153 C   0  0  0  0  0  0
  -10.8954  -12.8974   -8.3217 C   0  0  0  0  0  0
  -10.8740  -11.6108   -7.5791 C   0  0  0  0  0  0
  -12.1538  -11.3391   -7.1878 C   0  0  0  0  0  0
  -12.4514  -10.2183   -6.4210 C   0  0  0  0  0  0
  -11.4187   -9.3559   -6.0455 C   0  0  0  0  0  0
  -10.1081   -9.6313   -6.4444 C   0  0  0  0  0  0
   -9.8240  -10.7574   -7.2279 C   0  0  0  0  0  0
   -1.0740  -10.4694   -8.9853 O   0  0  0  0  0  0
   -0.1132  -10.6092  -10.0209 C   0  0  0  0  0  0
   -2.7487  -10.4633   -6.7726 O   0  0  0  0  0  0
   -1.5881  -10.8453   -6.0433 C   0  0  0  0  0  0
  -14.2630  -12.4630   -7.6210 O   0  0  0  0  0  0
   -9.9369  -13.4863   -8.8205 O   0  0  0  0  0  0
  -13.7814  -14.6420   -8.7446 H   0  0  0  0  0  0
  -12.6686  -14.3643  -10.0214 H   0  0  0  0  0  0
  -11.4498  -15.7337   -7.6466 H   0  0  0  0  0  0
  -12.7714  -16.6030   -8.3466 H   0  0  0  0  0  0
  -11.5656  -16.1601  -10.6099 H   0  0  0  0  0  0
   -9.7617  -16.4909  -11.6442 H   0  0  0  0  0  0
  -10.0089  -18.9591  -11.3912 H   0  0  0  0  0  0
   -8.7167  -18.4534  -12.4210 H   0  0  0  0  0  0
   -7.4958  -16.4509   -9.7545 H   0  0  0  0  0  0
   -8.1122  -16.1087  -13.2508 H   0  0  0  0  0  0
   -7.2792  -14.6689  -13.4624 H   0  0  0  0  0  0
   -3.7429  -14.7223  -11.1125 H   0  0  0  0  0  0
   -3.5385  -13.3441  -12.1647 H   0  0  0  0  0  0
   -1.9655  -12.0981  -10.9884 H   0  0  0  0  0  0
   -4.8073  -12.0163   -6.9430 H   0  0  0  0  0  0
   -5.4192  -13.4395   -8.8388 H   0  0  0  0  0  0
   -9.4723  -20.0940   -9.1851 H   0  0  0  0  0  0
   -7.8312  -21.4602   -7.9657 H   0  0  0  0  0  0
   -5.4650  -21.4825   -8.6658 H   0  0  0  0  0  0
   -4.7238  -20.1239  -10.5866 H   0  0  0  0  0  0
   -6.3489  -18.7584  -11.8423 H   0  0  0  0  0  0
  -13.4688  -10.0279   -6.1191 H   0  0  0  0  0  0
  -11.6285   -8.4821   -5.4449 H   0  0  0  0  0  0
   -9.3172   -8.9724   -6.1318 H   0  0  0  0  0  0
   -8.8063  -10.9646   -7.5264 H   0  0  0  0  0  0
    0.7095   -9.9186   -9.8402 H   0  0  0  0  0  0
    0.3009  -11.6189  -10.0468 H   0  0  0  0  0  0
   -0.5403  -10.3737  -10.9959 H   0  0  0  0  0  0
   -1.6575  -10.4640   -5.0258 H   0  0  0  0  0  0
   -1.4683  -11.9282   -5.9846 H   0  0  0  0  0  0
   -0.6875  -10.4201   -6.4855 H   0  0  0  0  0  0
  1  2  1  0  0  0
  1  3  1  0  0  0
  1 42  1  0  0  0
  1 43  1  0  0  0
  2  4  1  0  0  0
  2 44  1  0  0  0
  2 45  1  0  0  0
  3 28  1  0  0  0
  3 29  1  0  0  0
  4  5  1  0  0  0
  4 46  1  0  0  0
  5  6  1  0  0  0
  5  7  2  0  0  0
  6  8  1  0  0  0
  6  9  1  0  0  0
  6 47  1  0  0  0
  8 22  1  0  0  0
  8 48  1  0  0  0
  8 49  1  0  0  0
  9 50  1  0  0  0
  9 10  1  0  0  0
 10 12  1  0  0  0
 10 11  2  0  0  0
 11 13  1  0  0  0
 12 52  1  0  0  0
 12 51  1  0  0  0
 13 15  2  0  0  0
 13 14  1  0  0  0
 14 16  1  0  0  0
 14 53  1  0  0  0
 14 54  1  0  0  0
 16 17  2  0  0  0
 16 21  1  0  0  0
 17 18  1  0  0  0
 17 55  1  0  0  0
 18 19  2  0  0  0
 18 36  1  0  0  0
 19 20  1  0  0  0
 19 38  1  0  0  0
 20 21  2  0  0  0
 20 56  1  0  0  0
 21 57  1  0  0  0
 22 23  2  0  0  0
 22 27  1  0  0  0
 23 24  1  0  0  0
 23 58  1  0  0  0
 24 25  2  0  0  0
 24 59  1  0  0  0
 25 26  1  0  0  0
 25 60  1  0  0  0
 26 27  2  0  0  0
 26 61  1  0  0  0
 27 62  1  0  0  0
 28 31  1  0  0  0
 28 40  2  0  0  0
 29 30  1  0  0  0
 29 41  2  0  0  0
 30 31  2  0  0  0
 30 35  1  0  0  0
 31 32  1  0  0  0
 32 33  2  0  0  0
 32 63  1  0  0  0
 33 34  1  0  0  0
 33 64  1  0  0  0
 34 35  2  0  0  0
 34 65  1  0  0  0
 35 66  1  0  0  0
 36 37  1  0  0  0
 37 67  1  0  0  0
 37 68  1  0  0  0
 37 69  1  0  0  0
 38 39  1  0  0  0
 39 70  1  0  0  0
 39 71  1  0  0  0
 39 72  1  0  0  0
M  END
> <s_m_entry_id>
26271

> <s_m_entry_name>
dock_pv.95

> <s_m_Source_Path>
/home/csk/Desktop/cluster/DUD-E-result/reni

> <s_m_Source_File>
dock_pv.maegz

> <i_m_Source_File_Index>
95

> <chembl_id>
CHEMBL3321924

> <chembl_pref_name>
None

> <i_lp_mmshare_version>
53161

> <r_lp_tautomer_probability>
0.435499999998937

> <s_lp_Force_Field>
OPLS_2005

> <r_lp_Energy>
50.207707

> <b_lp_Chiralities_Consistent>
1

> <s_lp_Variant>
CHEMBL286_lig2518-1

> <s_i_glide_gridfile>
glide-grid_3g6z

> <i_i_glide_lignum>
6580

> <i_i_glide_rotatable_bonds>
14

> <r_i_docking_score>
-7.83456546975649

> <r_i_glide_ligand_efficiency>
-0.191086962676988

> <r_i_glide_ligand_efficiency_sa>
-0.658909358299524

> <r_i_glide_ligand_efficiency_ln>
-1.66212913664739

> <r_i_glide_gscore>
-7.83456546975649

> <r_i_glide_lipo>
-3.48034387082675

> <r_i_glide_hbond>
-0.202950274540082

> <r_i_glide_metal>
0

> <r_i_glide_rewards>
-0.951736101812453

> <r_i_glide_evdw>
-60.9856376647949

> <r_i_glide_ecoul>
-4.92757940292358

> <r_i_glide_erotb>
0.59119914153889

> <r_i_glide_esite>
-0.00231557043780915

> <r_i_glide_emodel>
-84.1042487036196

> <r_i_glide_energy>
-65.9132170677185

> <r_i_glide_einternal>
22.3504657745361

> <i_i_glide_confnum>
10

> <i_i_glide_posenum>
178

> <r_i_glide_eff_state_penalty>
0

> <s_user_duplicate_titles>
CHEMBL286_lig2518,CHEMBL286_lig2518

> <i_f3d_flags>
1

> <s_m_subgroup_title>
dock_pv

> <s_m_subgroupid>
dock_pv

> <b_m_subgroup_collapsed>
1

$$$$
CHEMBL286_lig1061
                    3D
 Schrodinger Suite 2021-1.
114117  0  0  1  0            999 V2000
   -5.7024  -20.0474  -12.3549 S   0  0  0  0  0  0
   -7.1366  -20.7320  -11.6007 N   0  0  1  0  0  0
   -7.4901  -20.4147  -10.1847 C   0  0  1  0  0  0
   -4.4181  -21.1605  -11.8262 N   0  0  0  0  0  0
   -5.4660  -12.7290   -7.6832 C   0  0  0  0  0  0
   -4.5106  -11.8184   -8.0143 N   0  0  0  0  0  0
   -8.3726  -19.1430  -10.0820 C   0  0  0  0  0  0
   -5.4098  -14.1592   -8.2558 C   0  0  0  0  0  0
   -8.6686  -16.0631  -10.9517 C   0  0  0  0  0  0
   -8.5941  -15.7571   -9.6407 N   0  0  0  0  0  0
   -8.7276  -18.5150  -11.2183 N   0  0  0  0  0  0
   -7.9186  -14.6032   -9.0105 C   0  0  1  0  0  0
  -11.7820  -18.4438  -11.0827 C   0  0  0  0  0  0
   -5.4705  -18.7431  -11.7263 O   0  0  0  0  0  0
   -5.8683  -20.1685  -13.8064 O   0  0  0  0  0  0
  -12.4406  -19.4351  -11.3570 C   0  0  0  0  0  0
   -9.5174  -17.2883  -11.3461 C   0  0  1  0  0  0
   -6.3997  -14.4943   -9.4073 C   0  0  1  0  0  0
   -3.6337  -11.9426   -9.1953 C   0  0  0  0  0  0
   -8.1186  -21.6431   -9.4849 C   0  0  0  0  0  0
  -12.3262  -23.0514  -11.7438 C   0  0  0  0  0  0
   -6.3068  -12.5114   -6.8114 O   0  0  0  0  0  0
   -8.6988  -18.7489   -8.9597 O   0  0  0  0  0  0
   -8.1224  -15.4214  -11.8448 O   0  0  0  0  0  0
   -8.7521  -13.2690   -9.0921 C   0  0  0  0  0  0
   -2.0919  -10.4635   -8.0274 O   0  0  0  0  0  0
  -11.7055  -23.9479  -11.1784 O   0  0  0  0  0  0
   -1.9279  -22.3500  -11.2529 O   0  0  0  0  0  0
   -3.5710  -21.7201  -12.9087 C   0  0  0  0  0  0
   -3.6257  -20.7172  -10.6501 C   0  0  0  0  0  0
  -12.3567  -21.8207  -11.2208 N   0  0  0  0  0  0
   -2.1788  -11.7113   -8.7136 C   0  0  2  0  0  0
   -4.4219  -10.5267   -7.3085 C   0  0  0  0  0  0
  -10.9238  -17.3136  -10.6691 C   0  0  0  0  0  0
   -7.1060  -22.6595   -8.9868 C   0  0  0  0  0  0
   -6.1749  -13.6646  -10.5338 O   0  0  0  0  0  0
   -2.9452  -10.3668   -6.8911 C   0  0  0  0  0  0
  -13.1743  -20.6826  -11.6194 C   0  0  0  0  0  0
    0.8118  -12.3832   -8.6150 N   0  0  0  0  0  0
   -1.1873  -11.6978   -9.8979 C   0  0  0  0  0  0
  -10.0925  -13.1633   -8.2803 C   0  0  0  0  0  0
   -2.7158  -21.8644  -10.1670 C   0  0  0  0  0  0
   -2.6931  -22.8541  -12.3464 C   0  0  0  0  0  0
  -13.0821  -23.3507  -13.0344 C   0  0  0  0  0  0
    0.2739  -11.3865   -9.5206 C   0  0  0  0  0  0
   -6.4889  -23.5546   -9.8857 C   0  0  0  0  0  0
   -6.6522  -22.6051   -7.6507 C   0  0  0  0  0  0
  -10.7343  -11.7520   -8.3649 C   0  0  0  0  0  0
  -11.1623  -14.2488   -8.5701 C   0  0  0  0  0  0
   -5.6511  -23.4643   -7.2226 C   0  0  0  0  0  0
   -5.4844  -24.4035   -9.4391 C   0  0  0  0  0  0
  -12.4128  -14.1092   -7.6774 C   0  0  0  0  0  0
  -11.9734  -11.6071   -7.4589 C   0  0  0  0  0  0
   -5.0701  -24.3606   -8.1121 C   0  0  0  0  0  0
  -13.0228  -12.6970   -7.7514 C   0  0  0  0  0  0
   -7.9034  -20.9945  -12.2240 H   0  0  0  0  0  0
   -6.5723  -20.1490   -9.6607 H   0  0  0  0  0  0
   -5.5983  -14.8397   -7.4258 H   0  0  0  0  0  0
   -4.3933  -14.4175   -8.5457 H   0  0  0  0  0  0
   -9.0423  -16.4022   -9.0057 H   0  0  0  0  0  0
   -8.3552  -18.8611  -12.0934 H   0  0  0  0  0  0
   -7.8720  -14.8861   -7.9610 H   0  0  0  0  0  0
   -9.6893  -17.2001  -12.4202 H   0  0  0  0  0  0
   -6.0899  -15.4910   -9.7313 H   0  0  0  0  0  0
   -3.7029  -12.8891   -9.7270 H   0  0  0  0  0  0
   -3.8969  -11.1682   -9.9180 H   0  0  0  0  0  0
   -8.7228  -21.3432   -8.6265 H   0  0  0  0  0  0
   -8.8167  -22.1422  -10.1616 H   0  0  0  0  0  0
   -8.1097  -12.4664   -8.7302 H   0  0  0  0  0  0
   -8.9295  -13.0059  -10.1380 H   0  0  0  0  0  0
   -2.8674  -20.9532  -13.2345 H   0  0  0  0  0  0
   -4.1950  -22.1092  -13.7143 H   0  0  0  0  0  0
   -4.2860  -20.4161   -9.8391 H   0  0  0  0  0  0
   -2.9436  -19.9266  -10.9696 H   0  0  0  0  0  0
  -11.8553  -21.7048  -10.3523 H   0  0  0  0  0  0
   -1.8820  -12.5199   -8.0434 H   0  0  0  0  0  0
   -4.6794   -9.7637   -8.0441 H   0  0  0  0  0  0
   -5.0705  -10.4482   -6.4354 H   0  0  0  0  0  0
  -10.8475  -17.3709   -9.5827 H   0  0  0  0  0  0
  -11.4750  -16.3999  -10.8959 H   0  0  0  0  0  0
   -5.7150  -14.1766  -11.2116 H   0  0  0  0  0  0
   -2.8004   -9.3940   -6.4241 H   0  0  0  0  0  0
   -2.6702  -11.1110   -6.1425 H   0  0  0  0  0  0
  -14.0918  -20.6767  -11.0289 H   0  0  0  0  0  0
  -13.4695  -20.7047  -12.6693 H   0  0  0  0  0  0
    1.7515  -12.1338   -8.3424 H   0  0  0  0  0  0
    0.2694  -12.3900   -7.7637 H   0  0  0  0  0  0
   -1.2229  -12.6559  -10.4209 H   0  0  0  0  0  0
   -1.5112  -10.9553  -10.6279 H   0  0  0  0  0  0
   -9.8666  -13.2629   -7.2254 H   0  0  0  0  0  0
   -3.3043  -22.6839   -9.7515 H   0  0  0  0  0  0
   -2.0516  -21.5172   -9.3744 H   0  0  0  0  0  0
   -3.3008  -23.6992  -12.0169 H   0  0  0  0  0  0
   -2.0183  -23.2284  -13.1130 H   0  0  0  0  0  0
  -14.1268  -23.0436  -12.9632 H   0  0  0  0  0  0
  -12.6170  -22.8514  -13.8836 H   0  0  0  0  0  0
  -13.0648  -24.4240  -13.2211 H   0  0  0  0  0  0
    0.8937  -11.3618  -10.4188 H   0  0  0  0  0  0
    0.3455  -10.4028   -9.0559 H   0  0  0  0  0  0
   -6.7864  -23.5750  -10.9257 H   0  0  0  0  0  0
   -7.0865  -21.9002   -6.9560 H   0  0  0  0  0  0
  -10.0001  -11.0042   -8.0631 H   0  0  0  0  0  0
  -10.9978  -11.4952   -9.3898 H   0  0  0  0  0  0
  -11.4525  -14.2316   -9.6166 H   0  0  0  0  0  0
  -10.7489  -15.2402   -8.4051 H   0  0  0  0  0  0
   -5.3159  -23.4275   -6.1953 H   0  0  0  0  0  0
   -5.0085  -25.0826  -10.1321 H   0  0  0  0  0  0
  -12.1472  -14.3322   -6.6426 H   0  0  0  0  0  0
  -13.1577  -14.8513   -7.9656 H   0  0  0  0  0  0
  -11.6707  -11.6671   -6.4133 H   0  0  0  0  0  0
  -12.4162  -10.6194   -7.5895 H   0  0  0  0  0  0
   -4.2763  -25.0092   -7.7770 H   0  0  0  0  0  0
  -13.8535  -12.6119   -7.0486 H   0  0  0  0  0  0
  -13.4452  -12.5371   -8.7442 H   0  0  0  0  0  0
  1  2  1  0  0  0
  1  4  1  0  0  0
  1 14  2  0  0  0
  1 15  2  0  0  0
  2  3  1  0  0  0
  2 56  1  0  0  0
  3  7  1  0  0  0
  3 20  1  0  0  0
  3 57  1  0  0  0
  4 29  1  0  0  0
  4 30  1  0  0  0
  5  8  1  0  0  0
  5  6  1  0  0  0
  5 22  2  0  0  0
  6 19  1  0  0  0
  6 33  1  0  0  0
  7 11  1  0  0  0
  7 23  2  0  0  0
  8 18  1  0  0  0
  8 58  1  0  0  0
  8 59  1  0  0  0
  9 17  1  0  0  0
  9 10  1  0  0  0
  9 24  2  0  0  0
 10 12  1  0  0  0
 10 60  1  0  0  0
 11 17  1  0  0  0
 11 61  1  0  0  0
 12 18  1  0  0  0
 12 25  1  0  0  0
 12 62  1  0  0  0
 13 34  1  0  0  0
 13 16  3  0  0  0
 16 38  1  0  0  0
 17 34  1  0  0  0
 17 63  1  0  0  0
 18 36  1  0  0  0
 18 64  1  0  0  0
 19 32  1  0  0  0
 19 65  1  0  0  0
 19 66  1  0  0  0
 20 35  1  0  0  0
 20 67  1  0  0  0
 20 68  1  0  0  0
 21 31  1  0  0  0
 21 27  2  0  0  0
 21 44  1  0  0  0
 25 41  1  0  0  0
 25 69  1  0  0  0
 25 70  1  0  0  0
 26 37  1  0  0  0
 26 32  1  0  0  0
 28 42  1  0  0  0
 28 43  1  0  0  0
 29 43  1  0  0  0
 29 71  1  0  0  0
 29 72  1  0  0  0
 30 42  1  0  0  0
 30 73  1  0  0  0
 30 74  1  0  0  0
 31 38  1  0  0  0
 31 75  1  0  0  0
 32 40  1  0  0  0
 32 76  1  0  0  0
 33 37  1  0  0  0
 33 77  1  0  0  0
 33 78  1  0  0  0
 34 79  1  0  0  0
 34 80  1  0  0  0
 35 46  1  0  0  0
 35 47  2  0  0  0
 36 81  1  0  0  0
 37 82  1  0  0  0
 37 83  1  0  0  0
 38 84  1  0  0  0
 38 85  1  0  0  0
 39 45  1  0  0  0
 39 86  1  0  0  0
 39 87  1  0  0  0
 40 45  1  0  0  0
 40 88  1  0  0  0
 40 89  1  0  0  0
 41 48  1  0  0  0
 41 49  1  0  0  0
 41 90  1  0  0  0
 42 91  1  0  0  0
 42 92  1  0  0  0
 43 93  1  0  0  0
 43 94  1  0  0  0
 44 95  1  0  0  0
 44 96  1  0  0  0
 44 97  1  0  0  0
 45 98  1  0  0  0
 45 99  1  0  0  0
 46 51  2  0  0  0
 46100  1  0  0  0
 47 50  1  0  0  0
 47101  1  0  0  0
 48 53  1  0  0  0
 48102  1  0  0  0
 48103  1  0  0  0
 49 52  1  0  0  0
 49104  1  0  0  0
 49105  1  0  0  0
 50 54  2  0  0  0
 50106  1  0  0  0
 51 54  1  0  0  0
 51107  1  0  0  0
 52 55  1  0  0  0
 52108  1  0  0  0
 52109  1  0  0  0
 53 55  1  0  0  0
 53110  1  0  0  0
 53111  1  0  0  0
 54112  1  0  0  0
 55113  1  0  0  0
 55114  1  0  0  0
M  END
> <s_m_entry_id>
26272

> <s_m_entry_name>
dock_pv.96

> <s_m_Source_Path>
/home/csk/Desktop/cluster/DUD-E-result/reni

> <s_m_Source_File>
dock_pv.maegz

> <i_m_Source_File_Index>
96

> <chembl_id>
CHEMBL22506

> <chembl_pref_name>
None

> <i_lp_mmshare_version>
53161

> <r_lp_tautomer_probability>
1

> <s_lp_Force_Field>
OPLS_2005

> <r_lp_Energy>
48.432262

> <b_lp_Chiralities_Consistent>
1

> <s_lp_Variant>
CHEMBL286_lig1061-16

> <s_i_glide_gridfile>
glide-grid_3g6z

> <i_i_glide_lignum>
3229

> <i_i_glide_rotatable_bonds>
25

> <r_i_docking_score>
-7.80551314423552

> <r_i_glide_ligand_efficiency>
-0.141918420804282

> <r_i_glide_ligand_efficiency_sa>
-0.539709006904085

> <r_i_glide_ligand_efficiency_ln>
-1.55881641095012

> <r_i_glide_gscore>
-7.80551314423552

> <r_i_glide_lipo>
-4.53488416948372

> <r_i_glide_hbond>
0

> <r_i_glide_metal>
0

> <r_i_glide_rewards>
0.159961678936736

> <r_i_glide_evdw>
-64.6303863525391

> <r_i_glide_ecoul>
-3.35191941261292

> <r_i_glide_erotb>
0.459994343516373

> <r_i_glide_esite>
-0.156277767686023

> <r_i_glide_emodel>
-62.49979646153

> <r_i_glide_energy>
-67.982305765152

> <r_i_glide_einternal>
47.4185752868652

> <i_i_glide_confnum>
7

> <i_i_glide_posenum>
104

> <r_i_glide_eff_state_penalty>
0

> <s_user_duplicate_titles>
CHEMBL286_lig1061

> <i_f3d_flags>
0

> <s_m_subgroup_title>
dock_pv

> <s_m_subgroupid>
dock_pv

> <b_m_subgroup_collapsed>
1

$$$$
CHEMBL286_lig2018
                    3D
 Schrodinger Suite 2021-1.
 48 51  0  0  1  0            999 V2000
   -9.8777  -18.5854  -10.4753 C   0  0  0  0  0  0
   -9.3944  -16.4409   -9.6697 C   0  0  1  0  0  0
  -10.0686  -17.2078  -10.6882 N   0  0  0  0  0  0
  -10.4719  -15.6050   -8.9084 C   0  0  0  0  0  0
  -11.5718  -16.2383   -8.3059 C   0  0  0  0  0  0
  -12.5464  -15.5100   -7.6279 C   0  0  0  0  0  0
  -12.4561  -14.1236   -7.5427 C   0  0  0  0  0  0
  -11.3696  -13.4737   -8.1392 C   0  0  0  0  0  0
  -10.4020  -14.2067   -8.8209 C   0  0  0  0  0  0
  -10.4057  -19.4501  -11.2207 N   0  0  0  0  0  0
   -9.0690  -18.7206   -9.3924 N   0  0  0  0  0  0
   -8.8330  -17.5478   -8.7624 C   0  0  0  0  0  0
   -8.5959  -19.9871   -8.8267 C   0  0  0  0  0  0
   -8.2701  -17.3674   -7.6794 O   0  0  0  0  0  0
   -8.1896  -15.6410  -10.2552 C   0  0  0  0  0  0
   -7.3583  -14.9024   -9.3970 C   0  0  0  0  0  0
   -6.2719  -14.1750   -9.8857 C   0  0  0  0  0  0
   -5.9814  -14.1946  -11.2508 C   0  0  0  0  0  0
   -6.7798  -14.9357  -12.1188 C   0  0  0  0  0  0
   -7.8709  -15.6519  -11.6284 C   0  0  0  0  0  0
  -13.4612  -13.4746   -6.8554 O   0  0  0  0  0  0
  -13.7647  -12.1234   -7.1927 C   0  0  0  0  0  0
  -14.2742  -12.0570   -8.4208 F   0  0  0  0  0  0
  -14.6690  -11.6625   -6.3337 F   0  0  0  0  0  0
   -5.4685  -13.3837   -8.9686 C   0  0  0  0  0  0
   -4.8461  -12.6968   -8.1744 C   0  0  0  0  0  0
   -4.1411  -11.8495   -7.2029 C   0  0  0  0  0  0
   -2.7314  -11.4018   -7.5269 C   0  0  0  0  0  0
   -3.8670  -10.4117   -7.5786 C   0  0  0  0  0  0
  -11.6832  -17.3074   -8.3708 H   0  0  0  0  0  0
  -13.3835  -16.0234   -7.1769 H   0  0  0  0  0  0
  -11.2536  -12.4029   -8.0863 H   0  0  0  0  0  0
   -9.5967  -13.6546   -9.2772 H   0  0  0  0  0  0
  -10.9283  -19.0222  -11.9721 H   0  0  0  0  0  0
  -10.9166  -16.7744  -11.0189 H   0  0  0  0  0  0
   -8.1434  -20.6004   -9.6107 H   0  0  0  0  0  0
   -7.8507  -19.8473   -8.0396 H   0  0  0  0  0  0
   -9.4288  -20.5484   -8.3971 H   0  0  0  0  0  0
   -7.5745  -14.8825   -8.3376 H   0  0  0  0  0  0
   -5.1428  -13.6414  -11.6476 H   0  0  0  0  0  0
   -6.5517  -14.9589  -13.1746 H   0  0  0  0  0  0
   -8.4615  -16.2186  -12.3354 H   0  0  0  0  0  0
  -12.9162  -11.4462   -7.1157 H   0  0  0  0  0  0
   -4.3988  -12.0597   -6.1649 H   0  0  0  0  0  0
   -2.2698  -11.7291   -8.4594 H   0  0  0  0  0  0
   -2.0113  -11.3428   -6.7111 H   0  0  0  0  0  0
   -3.9551   -9.6600   -6.7949 H   0  0  0  0  0  0
   -4.2016  -10.0364   -8.5470 H   0  0  0  0  0  0
  1 11  1  0  0  0
  1 10  2  0  0  0
  1  3  1  0  0  0
  2  3  1  0  0  0
  2 12  1  0  0  0
  2 15  1  0  0  0
  2  4  1  0  0  0
  3 35  1  0  0  0
  4  9  1  0  0  0
  4  5  2  0  0  0
  5  6  1  0  0  0
  5 30  1  0  0  0
  6  7  2  0  0  0
  6 31  1  0  0  0
  7  8  1  0  0  0
  7 21  1  0  0  0
  8  9  2  0  0  0
  8 32  1  0  0  0
  9 33  1  0  0  0
 10 34  1  0  0  0
 11 12  1  0  0  0
 11 13  1  0  0  0
 12 14  2  0  0  0
 13 36  1  0  0  0
 13 37  1  0  0  0
 13 38  1  0  0  0
 15 16  2  0  0  0
 15 20  1  0  0  0
 16 17  1  0  0  0
 16 39  1  0  0  0
 17 18  2  0  0  0
 17 25  1  0  0  0
 18 19  1  0  0  0
 18 40  1  0  0  0
 19 20  2  0  0  0
 19 41  1  0  0  0
 20 42  1  0  0  0
 21 22  1  0  0  0
 22 23  1  0  0  0
 22 24  1  0  0  0
 22 43  1  0  0  0
 25 26  3  0  0  0
 26 27  1  0  0  0
 27 28  1  0  0  0
 27 29  1  0  0  0
 27 44  1  0  0  0
 28 29  1  0  0  0
 28 45  1  0  0  0
 28 46  1  0  0  0
 29 47  1  0  0  0
 29 48  1  0  0  0
M  END
> <s_m_entry_id>
26273

> <s_m_entry_name>
dock_pv.97

> <s_m_Source_Path>
/home/csk/Desktop/cluster/DUD-E-result/reni

> <s_m_Source_File>
dock_pv.maegz

> <i_m_Source_File_Index>
97

> <chembl_id>
CHEMBL1271246

> <chembl_pref_name>
None

> <i_lp_mmshare_version>
53161

> <r_lp_tautomer_probability>
0.499639836881432

> <s_lp_Force_Field>
OPLS_2005

> <r_lp_Energy>
34.03993

> <b_lp_Chiralities_Consistent>
1

> <s_lp_Variant>
CHEMBL286_lig2018-2

> <s_i_glide_gridfile>
glide-grid_3g6z

> <i_i_glide_lignum>
5815

> <i_i_glide_rotatable_bonds>
6

> <r_i_docking_score>
-7.79727356972315

> <r_i_glide_ligand_efficiency>
-0.268871502404247

> <r_i_glide_ligand_efficiency_sa>
-0.826058439856805

> <r_i_glide_ligand_efficiency_ln>
-1.78537792566878

> <r_i_glide_gscore>
-7.79727356972315

> <r_i_glide_lipo>
-3.570134969859

> <r_i_glide_hbond>
0

> <r_i_glide_metal>
0

> <r_i_glide_rewards>
-2.44610251172775

> <r_i_glide_evdw>
-42.0573654174805

> <r_i_glide_ecoul>
-2.02360939979553

> <r_i_glide_erotb>
0.625373592706951

> <r_i_glide_esite>
0

> <r_i_glide_emodel>
-63.6979875865361

> <r_i_glide_energy>
-44.080974817276

> <r_i_glide_einternal>
2.32962346076965

> <i_i_glide_confnum>
3

> <i_i_glide_posenum>
377

> <r_i_glide_eff_state_penalty>
0

> <s_user_duplicate_titles>
CHEMBL286_lig2018,CHEMBL286_lig2018

> <i_f3d_flags>
0

> <s_m_subgroup_title>
dock_pv

> <s_m_subgroupid>
dock_pv

> <b_m_subgroup_collapsed>
1

$$$$
CHEMBL286_lig1366
                    3D
 Schrodinger Suite 2021-1.
 90 92  0  0  1  0            999 V2000
   -3.1620  -13.1802  -11.1625 S   0  0  0  0  0  0
  -10.4603  -18.4534  -10.8057 S   0  0  0  0  0  0
   -8.0479  -19.3505   -9.4529 C   0  0  1  0  0  0
   -6.4998  -19.2762   -9.6281 C   0  0  0  0  0  0
   -4.9004  -13.9315  -11.2902 C   0  0  0  0  0  0
   -8.7225  -18.5498  -10.5295 N   0  0  1  0  0  0
   -5.9906  -18.2457  -10.3346 N   0  0  0  0  0  0
   -4.5815  -17.8848  -10.5527 C   0  0  2  0  0  0
   -5.0678  -15.2940  -10.5675 C   0  0  1  0  0  0
   -4.5099  -16.5311  -11.3396 C   0  0  2  0  0  0
   -8.1966  -22.7167  -12.4213 N   0  0  0  0  0  0
   -8.5842  -20.8013   -9.2865 C   0  0  0  0  0  0
   -8.3736  -21.7573  -10.4381 C   0  0  0  0  0  0
   -8.0626  -23.1102  -10.2439 N   0  0  0  0  0  0
   -7.9703  -23.6187  -11.4667 C   0  0  0  0  0  0
   -2.1826  -14.2724  -11.1913 O   0  0  0  0  0  0
   -3.0808  -12.0637  -12.1084 O   0  0  0  0  0  0
  -11.0302  -19.8027  -10.7428 O   0  0  0  0  0  0
  -10.6318  -17.6631  -12.0209 O   0  0  0  0  0  0
   -8.4556  -21.5135  -11.7920 C   0  0  0  0  0  0
   -3.1094  -12.5097   -9.5379 N   0  0  3  0  0  0
   -3.7570  -19.0320  -11.2163 C   0  0  0  0  0  0
   -5.7925  -20.1332   -9.0988 O   0  0  0  0  0  0
  -11.1299  -17.4358   -9.3560 C   0  0  0  0  0  0
   -4.4898  -15.2145   -9.2773 O   0  0  0  0  0  0
   -5.2018  -16.6594  -12.5739 O   0  0  0  0  0  0
  -11.0020  -15.9239   -9.6228 C   0  0  0  0  0  0
   -2.3016  -18.7059  -11.6589 C   0  0  0  0  0  0
  -11.6609  -15.0085   -8.5900 C   0  0  0  0  0  0
   -3.5812  -11.1439   -9.2447 C   0  0  0  0  0  0
  -12.7824  -15.4172   -7.8604 C   0  0  0  0  0  0
  -11.1635  -13.7122   -8.4211 C   0  0  0  0  0  0
   -1.4479  -17.9853  -10.5861 C   0  0  0  0  0  0
   -1.5395  -19.9966  -12.0398 C   0  0  0  0  0  0
   -3.1321  -10.6540   -7.8586 C   0  0  0  0  0  0
   -1.6014  -10.6064   -7.6826 C   0  0  0  0  0  0
   -1.1676   -9.9454   -6.3682 C   0  0  0  0  0  0
  -11.7889  -12.8268   -7.5478 C   0  0  0  0  0  0
  -13.4010  -14.5368   -6.9824 C   0  0  0  0  0  0
   -0.1420  -19.6907  -12.6283 C   0  0  0  0  0  0
   -0.1082  -17.5288  -11.1964 C   0  0  0  0  0  0
    0.6952  -18.7247  -11.7511 C   0  0  0  0  0  0
  -12.9091  -13.2440   -6.8320 C   0  0  0  0  0  0
   -8.2518  -18.8278   -8.5172 H   0  0  0  0  0  0
   -5.1163  -14.0180  -12.3544 H   0  0  0  0  0  0
   -5.5889  -13.1952  -10.8866 H   0  0  0  0  0  0
   -8.1427  -18.3174  -11.3422 H   0  0  0  0  0  0
   -6.6476  -17.5907  -10.7320 H   0  0  0  0  0  0
   -4.1524  -17.7284   -9.5599 H   0  0  0  0  0  0
   -6.1375  -15.4517  -10.4187 H   0  0  0  0  0  0
   -3.4781  -16.3257  -11.6112 H   0  0  0  0  0  0
   -8.1939  -22.8685  -13.4260 H   0  0  0  0  0  0
   -8.1121  -21.2535   -8.4125 H   0  0  0  0  0  0
   -9.6420  -20.7939   -9.0458 H   0  0  0  0  0  0
   -7.7360  -24.6558  -11.6650 H   0  0  0  0  0  0
   -8.6689  -20.6124  -12.3473 H   0  0  0  0  0  0
   -2.5027  -12.9664   -8.8502 H   0  0  0  0  0  0
   -3.7212  -19.8784  -10.5290 H   0  0  0  0  0  0
   -4.3085  -19.3940  -12.0867 H   0  0  0  0  0  0
  -10.5926  -17.7179   -8.4543 H   0  0  0  0  0  0
  -12.1737  -17.7318   -9.2736 H   0  0  0  0  0  0
   -3.5397  -15.1113   -9.3771 H   0  0  0  0  0  0
   -4.8721  -15.9874  -13.1817 H   0  0  0  0  0  0
  -11.4688  -15.6856  -10.5788 H   0  0  0  0  0  0
   -9.9432  -15.6703   -9.7020 H   0  0  0  0  0  0
   -2.3541  -18.0728  -12.5464 H   0  0  0  0  0  0
   -3.2370  -10.4630  -10.0211 H   0  0  0  0  0  0
   -4.6679  -11.1412   -9.3107 H   0  0  0  0  0  0
  -13.2113  -16.4007   -7.9734 H   0  0  0  0  0  0
  -10.3013  -13.3777   -8.9828 H   0  0  0  0  0  0
   -1.9622  -17.1062  -10.2012 H   0  0  0  0  0  0
   -1.3122  -18.6194   -9.7095 H   0  0  0  0  0  0
   -1.4684  -20.6663  -11.1796 H   0  0  0  0  0  0
   -2.1193  -20.5611  -12.7736 H   0  0  0  0  0  0
   -3.5400   -9.6546   -7.7049 H   0  0  0  0  0  0
   -3.5826  -11.2740   -7.0815 H   0  0  0  0  0  0
   -1.1915  -11.6170   -7.7257 H   0  0  0  0  0  0
   -1.1536  -10.0627   -8.5146 H   0  0  0  0  0  0
   -0.0820   -9.9514   -6.2682 H   0  0  0  0  0  0
   -1.4944   -8.9055   -6.3258 H   0  0  0  0  0  0
   -1.5828  -10.4649   -5.5035 H   0  0  0  0  0  0
  -11.4119  -11.8211   -7.4275 H   0  0  0  0  0  0
  -14.2690  -14.8633   -6.4251 H   0  0  0  0  0  0
   -0.2668  -19.2626  -13.6176 H   0  0  0  0  0  0
    0.4089  -20.6208  -12.7771 H   0  0  0  0  0  0
   -0.2964  -16.8125  -11.9976 H   0  0  0  0  0  0
    0.4824  -16.9978  -10.4485 H   0  0  0  0  0  0
    1.5523  -18.3641  -12.3203 H   0  0  0  0  0  0
    1.1209  -19.2629  -10.9067 H   0  0  0  0  0  0
  -13.3979  -12.5585   -6.1534 H   0  0  0  0  0  0
  1  5  1  0  0  0
  1 16  2  0  0  0
  1 17  2  0  0  0
  1 21  1  0  0  0
  2  6  1  0  0  0
  2 18  2  0  0  0
  2 19  2  0  0  0
  2 24  1  0  0  0
  3  4  1  0  0  0
  3  6  1  0  0  0
  3 12  1  0  0  0
  3 44  1  0  0  0
  4  7  1  0  0  0
  4 23  2  0  0  0
  5  9  1  0  0  0
  5 45  1  0  0  0
  5 46  1  0  0  0
  6 47  1  0  0  0
  7  8  1  0  0  0
  7 48  1  0  0  0
  8 10  1  0  0  0
  8 22  1  0  0  0
  8 49  1  0  0  0
  9 10  1  0  0  0
  9 25  1  0  0  0
  9 50  1  0  0  0
 10 26  1  0  0  0
 10 51  1  0  0  0
 11 20  1  0  0  0
 11 15  1  0  0  0
 11 52  1  0  0  0
 12 13  1  0  0  0
 12 53  1  0  0  0
 12 54  1  0  0  0
 13 14  1  0  0  0
 13 20  2  0  0  0
 14 15  2  0  0  0
 15 55  1  0  0  0
 20 56  1  0  0  0
 21 30  1  0  0  0
 21 57  1  0  0  0
 22 28  1  0  0  0
 22 58  1  0  0  0
 22 59  1  0  0  0
 24 27  1  0  0  0
 24 60  1  0  0  0
 24 61  1  0  0  0
 25 62  1  0  0  0
 26 63  1  0  0  0
 27 29  1  0  0  0
 27 64  1  0  0  0
 27 65  1  0  0  0
 28 33  1  0  0  0
 28 34  1  0  0  0
 28 66  1  0  0  0
 29 31  2  0  0  0
 29 32  1  0  0  0
 30 35  1  0  0  0
 30 67  1  0  0  0
 30 68  1  0  0  0
 31 39  1  0  0  0
 31 69  1  0  0  0
 32 38  2  0  0  0
 32 70  1  0  0  0
 33 41  1  0  0  0
 33 71  1  0  0  0
 33 72  1  0  0  0
 34 40  1  0  0  0
 34 73  1  0  0  0
 34 74  1  0  0  0
 35 36  1  0  0  0
 35 75  1  0  0  0
 35 76  1  0  0  0
 36 37  1  0  0  0
 36 77  1  0  0  0
 36 78  1  0  0  0
 37 79  1  0  0  0
 37 80  1  0  0  0
 37 81  1  0  0  0
 38 43  1  0  0  0
 38 82  1  0  0  0
 39 43  2  0  0  0
 39 83  1  0  0  0
 40 42  1  0  0  0
 40 84  1  0  0  0
 40 85  1  0  0  0
 41 42  1  0  0  0
 41 86  1  0  0  0
 41 87  1  0  0  0
 42 88  1  0  0  0
 42 89  1  0  0  0
 43 90  1  0  0  0
M  END
> <s_m_entry_id>
26274

> <s_m_entry_name>
dock_pv.98

> <s_m_Source_Path>
/home/csk/Desktop/cluster/DUD-E-result/reni

> <s_m_Source_File>
dock_pv.maegz

> <i_m_Source_File_Index>
98

> <chembl_id>
CHEMBL316558

> <chembl_pref_name>
None

> <i_lp_mmshare_version>
53161

> <r_lp_tautomer_probability>
0.499999999999999

> <s_lp_Force_Field>
OPLS_2005

> <r_lp_Energy>
11.639909

> <b_lp_Chiralities_Consistent>
1

> <s_lp_Variant>
CHEMBL286_lig1366-1

> <s_i_glide_gridfile>
glide-grid_3g6z

> <i_i_glide_lignum>
4410

> <i_i_glide_rotatable_bonds>
22

> <r_i_docking_score>
-7.7843741480031

> <r_i_glide_ligand_efficiency>
-0.181031956930305

> <r_i_glide_ligand_efficiency_sa>
-0.634227005982491

> <r_i_glide_ligand_efficiency_ln>
-1.63496050551304

> <r_i_glide_gscore>
-7.7843741480031

> <r_i_glide_lipo>
-3.86106354939723

> <r_i_glide_hbond>
-0.608

> <r_i_glide_metal>
0

> <r_i_glide_rewards>
-0.865784998705558

> <r_i_glide_evdw>
-48.5078620910645

> <r_i_glide_ecoul>
-4.13117790222168

> <r_i_glide_erotb>
0.677300430331392

> <r_i_glide_esite>
-0.0817562403452248

> <r_i_glide_emodel>
-70.7976205962135

> <r_i_glide_energy>
-52.6390399932861

> <r_i_glide_einternal>
11.7917404174805

> <i_i_glide_confnum>
15

> <i_i_glide_posenum>
51

> <r_i_glide_eff_state_penalty>
0

> <s_user_duplicate_titles>
CHEMBL286_lig1366,CHEMBL286_lig1366

> <i_f3d_flags>
0

> <s_m_subgroup_title>
dock_pv

> <s_m_subgroupid>
dock_pv

> <b_m_subgroup_collapsed>
1

$$$$
CHEMBL286_lig1959
                    3D
 Schrodinger Suite 2021-1.
 80 85  0  0  1  0            999 V2000
   -4.7191  -21.8620  -12.8601 C   0  0  0  0  0  0
   -3.2576  -22.1888  -13.2384 C   0  0  0  0  0  0
   -2.3880  -21.0179  -13.1053 N   0  0  1  0  0  0
   -2.3997  -20.4670  -11.7552 C   0  0  0  0  0  0
   -3.8284  -20.0302  -11.3363 C   0  0  1  0  0  0
   -4.8356  -21.2157  -11.4622 C   0  0  1  0  0  0
   -6.2909  -20.8579  -11.1374 C   0  0  0  0  0  0
   -3.6888  -19.5090   -9.8799 C   0  0  0  0  0  0
   -3.3484  -18.2117   -9.6461 N   0  0  0  0  0  0
   -3.7956  -20.3205   -8.9558 O   0  0  0  0  0  0
   -2.6851  -17.8399   -8.3877 C   0  0  0  0  0  0
   -3.6387  -17.0775  -10.5504 C   0  0  0  0  0  0
   -4.1989  -15.8383   -9.8442 C   0  0  0  0  0  0
   -3.4636  -14.6495   -9.8744 C   0  0  0  0  0  0
   -3.9257  -13.4996   -9.2225 C   0  0  0  0  0  0
   -5.1352  -13.5506   -8.5267 C   0  0  0  0  0  0
   -5.8873  -14.7226   -8.5086 C   0  0  0  0  0  0
   -5.4363  -15.8593   -9.1785 C   0  0  0  0  0  0
   -6.4357  -17.2631   -9.1662 Cl  0  0  0  0  0  0
   -6.9851  -21.5389  -10.1299 C   0  0  0  0  0  0
   -8.3246  -21.2383   -9.8833 C   0  0  0  0  0  0
   -8.9458  -20.2538  -10.6511 C   0  0  0  0  0  0
   -8.2819  -19.5628  -11.6208 N   0  0  0  0  0  0
   -6.9810  -19.8702  -11.8535 C   0  0  0  0  0  0
  -10.2833  -19.9909  -10.4208 O   0  0  0  0  0  0
  -10.9187  -18.8586  -11.0284 C   0  0  0  0  0  0
  -10.7761  -17.6293  -10.1528 C   0  0  0  0  0  0
  -11.6264  -16.6205   -9.7608 C   0  0  0  0  0  0
  -10.8582  -15.7539   -8.9862 C   0  0  0  0  0  0
   -9.6394  -16.2248   -8.8349 N   0  0  0  0  0  0
   -9.5691  -17.4003   -9.5823 O   0  0  0  0  0  0
  -11.2939  -14.4543   -8.3768 C   0  0  0  0  0  0
  -10.5100  -13.2809   -8.4208 C   0  0  0  0  0  0
  -10.9892  -12.0884   -7.8613 C   0  0  0  0  0  0
  -12.2210  -12.0614   -7.2232 C   0  0  0  0  0  0
  -12.9757  -13.2220   -7.1368 C   0  0  0  0  0  0
  -12.5331  -14.4064   -7.7198 C   0  0  0  0  0  0
   -8.9605  -13.2632   -9.1976 Cl  0  0  0  0  0  0
  -10.2642  -10.9502   -7.9205 F   0  0  0  0  0  0
  -13.3111  -15.5103   -7.6120 F   0  0  0  0  0  0
   -1.4684  -18.5982   -7.9050 C   0  0  0  0  0  0
   -1.3156  -17.1926   -8.4325 C   0  0  0  0  0  0
   -3.1244  -12.1999   -9.2601 C   0  0  0  0  0  0
   -2.6344  -11.8100  -10.6617 C   0  0  0  0  0  0
   -3.7626  -11.6644  -11.5155 O   0  0  0  0  0  0
   -3.4693  -11.8374  -12.8902 C   0  0  0  0  0  0
   -5.2605  -22.8096  -12.8698 H   0  0  0  0  0  0
   -5.1712  -21.2418  -13.6342 H   0  0  0  0  0  0
   -2.8745  -23.0023  -12.6179 H   0  0  0  0  0  0
   -3.2150  -22.5266  -14.2742 H   0  0  0  0  0  0
   -1.4402  -21.2635  -13.3640 H   0  0  0  0  0  0
   -1.6876  -19.6416  -11.6953 H   0  0  0  0  0  0
   -2.0419  -21.2650  -11.1003 H   0  0  0  0  0  0
   -4.1561  -19.2203  -11.9809 H   0  0  0  0  0  0
   -4.5441  -21.9935  -10.7518 H   0  0  0  0  0  0
   -3.3729  -17.4809   -7.6219 H   0  0  0  0  0  0
   -4.3854  -17.3371  -11.2950 H   0  0  0  0  0  0
   -2.7361  -16.8207  -11.1047 H   0  0  0  0  0  0
   -2.5189  -14.6279  -10.3928 H   0  0  0  0  0  0
   -5.5080  -12.6793   -8.0067 H   0  0  0  0  0  0
   -6.8285  -14.7503   -7.9783 H   0  0  0  0  0  0
   -6.4943  -22.3053   -9.5473 H   0  0  0  0  0  0
   -8.8752  -21.7626   -9.1176 H   0  0  0  0  0  0
   -6.5042  -19.3117  -12.6449 H   0  0  0  0  0  0
  -10.5878  -18.6686  -12.0488 H   0  0  0  0  0  0
  -11.9731  -19.1163  -11.1082 H   0  0  0  0  0  0
  -12.6665  -16.5059  -10.0205 H   0  0  0  0  0  0
  -12.5805  -11.1455   -6.7776 H   0  0  0  0  0  0
  -13.8961  -13.2060   -6.5852 H   0  0  0  0  0  0
   -1.3822  -18.7877   -6.8344 H   0  0  0  0  0  0
   -1.1012  -19.4349   -8.5027 H   0  0  0  0  0  0
   -0.8474  -17.0312   -9.4039 H   0  0  0  0  0  0
   -1.1201  -16.3779   -7.7347 H   0  0  0  0  0  0
   -2.2818  -12.2972   -8.5826 H   0  0  0  0  0  0
   -3.7367  -11.3852   -8.8746 H   0  0  0  0  0  0
   -1.9319  -12.5595  -11.0329 H   0  0  0  0  0  0
   -2.0793  -10.8732  -10.6162 H   0  0  0  0  0  0
   -4.3530  -11.6317  -13.4930 H   0  0  0  0  0  0
   -3.1564  -12.8626  -13.0960 H   0  0  0  0  0  0
   -2.6732  -11.1675  -13.2116 H   0  0  0  0  0  0
  1  2  1  0  0  0
  1  6  1  0  0  0
  1 47  1  0  0  0
  1 48  1  0  0  0
  2  3  1  0  0  0
  2 49  1  0  0  0
  2 50  1  0  0  0
  3  4  1  0  0  0
  3 51  1  0  0  0
  4  5  1  0  0  0
  4 52  1  0  0  0
  4 53  1  0  0  0
  5  6  1  0  0  0
  5  8  1  0  0  0
  5 54  1  0  0  0
  6  7  1  0  0  0
  6 55  1  0  0  0
  7 24  1  0  0  0
  7 20  2  0  0  0
  8  9  1  0  0  0
  8 10  2  0  0  0
  9 11  1  0  0  0
  9 12  1  0  0  0
 11 41  1  0  0  0
 11 42  1  0  0  0
 11 56  1  0  0  0
 12 13  1  0  0  0
 12 57  1  0  0  0
 12 58  1  0  0  0
 13 14  2  0  0  0
 13 18  1  0  0  0
 14 15  1  0  0  0
 14 59  1  0  0  0
 15 16  2  0  0  0
 15 43  1  0  0  0
 16 17  1  0  0  0
 16 60  1  0  0  0
 17 18  2  0  0  0
 17 61  1  0  0  0
 18 19  1  0  0  0
 20 21  1  0  0  0
 20 62  1  0  0  0
 21 22  2  0  0  0
 21 63  1  0  0  0
 22 23  1  0  0  0
 22 25  1  0  0  0
 23 24  2  0  0  0
 24 64  1  0  0  0
 25 26  1  0  0  0
 26 27  1  0  0  0
 26 65  1  0  0  0
 26 66  1  0  0  0
 27 28  2  0  0  0
 27 31  1  0  0  0
 28 29  1  0  0  0
 28 67  1  0  0  0
 29 30  2  0  0  0
 29 32  1  0  0  0
 30 31  1  0  0  0
 32 33  2  0  0  0
 32 37  1  0  0  0
 33 34  1  0  0  0
 33 38  1  0  0  0
 34 35  2  0  0  0
 34 39  1  0  0  0
 35 36  1  0  0  0
 35 68  1  0  0  0
 36 37  2  0  0  0
 36 69  1  0  0  0
 37 40  1  0  0  0
 41 42  1  0  0  0
 41 70  1  0  0  0
 41 71  1  0  0  0
 42 72  1  0  0  0
 42 73  1  0  0  0
 43 44  1  0  0  0
 43 74  1  0  0  0
 43 75  1  0  0  0
 44 45  1  0  0  0
 44 76  1  0  0  0
 44 77  1  0  0  0
 45 46  1  0  0  0
 46 78  1  0  0  0
 46 79  1  0  0  0
 46 80  1  0  0  0
M  END
> <s_m_entry_id>
26275

> <s_m_entry_name>
dock_pv.99

> <s_m_Source_Path>
/home/csk/Desktop/cluster/DUD-E-result/reni

> <s_m_Source_File>
dock_pv.maegz

> <i_m_Source_File_Index>
99

> <chembl_id>
CHEMBL1269754

> <chembl_pref_name>
None

> <i_lp_mmshare_version>
53161

> <r_lp_tautomer_probability>
1

> <s_lp_Force_Field>
OPLS_2005

> <r_lp_Energy>
56.919447

> <b_lp_Chiralities_Consistent>
1

> <s_lp_Variant>
CHEMBL286_lig1959-1

> <s_i_glide_gridfile>
glide-grid_3g6z

> <i_i_glide_lignum>
5748

> <i_i_glide_rotatable_bonds>
13

> <r_i_docking_score>
-7.77950204638037

> <r_i_glide_ligand_efficiency>
-0.169119609703921

> <r_i_glide_ligand_efficiency_sa>
-0.605963656723343

> <r_i_glide_ligand_efficiency_ln>
-1.61111613134843

> <r_i_glide_gscore>
-7.77950204638037

> <r_i_glide_lipo>
-3.98683639649217

> <r_i_glide_hbond>
0

> <r_i_glide_metal>
0

> <r_i_glide_rewards>
-1.49692003929609

> <r_i_glide_evdw>
-47.2586860656738

> <r_i_glide_ecoul>
-2.2531681060791

> <r_i_glide_erotb>
0.40516390860345

> <r_i_glide_esite>
0

> <r_i_glide_emodel>
-59.4234786896982

> <r_i_glide_energy>
-49.5118541717529

> <r_i_glide_einternal>
19.1707458496094

> <i_i_glide_confnum>
21

> <i_i_glide_posenum>
39

> <r_i_glide_eff_state_penalty>
0

> <s_user_duplicate_titles>
CHEMBL286_lig1959

> <i_f3d_flags>
0

> <s_m_subgroup_title>
dock_pv

> <s_m_subgroupid>
dock_pv

> <b_m_subgroup_collapsed>
1

$$$$
CHEMBL286_lig2617
                    3D
 Schrodinger Suite 2021-1.
 92 93  0  0  1  0            999 V2000
   -3.4930  -15.7144  -11.6210 N   0  0  0  0  0  0
   -9.8457  -16.3001   -9.2028 C   0  0  0  0  0  0
   -8.5515  -15.8883   -8.8573 C   0  0  0  0  0  0
   -7.5763  -16.8584   -8.5930 C   0  0  0  0  0  0
   -7.8442  -18.2054   -8.8024 C   0  0  0  0  0  0
   -9.0691  -18.6175   -9.3141 C   0  0  0  0  0  0
  -10.0822  -17.6626   -9.4784 C   0  0  0  0  0  0
  -10.8082  -15.3039   -9.2377 O   0  0  0  0  0  0
  -12.1980  -15.6005   -9.3390 C   0  0  0  0  0  0
  -12.8236  -15.6667   -7.9343 C   0  0  0  0  0  0
  -12.7331  -14.3399   -7.1584 C   0  0  0  0  0  0
  -13.4470  -13.3296   -7.8603 O   0  0  0  0  0  0
  -13.4130  -12.0592   -7.2262 C   0  0  0  0  0  0
   -8.3087  -14.5249   -8.7986 O   0  0  0  0  0  0
   -7.0304  -14.0553   -8.3781 C   0  0  0  0  0  0
   -9.3051  -20.0941   -9.6573 C   0  0  0  0  0  0
   -8.8373  -20.5332  -11.0682 C   0  0  1  0  0  0
   -7.2959  -20.4717  -11.2531 C   0  0  0  0  0  0
   -9.4265  -21.9108  -11.5253 C   0  0  0  0  0  0
  -10.9685  -21.9230  -11.5884 C   0  0  0  0  0  0
   -8.9364  -23.1229  -10.7029 C   0  0  0  0  0  0
   -6.8456  -20.0860  -12.6847 C   0  0  1  0  0  0
   -5.9152  -18.8341  -12.7027 C   0  0  2  0  0  0
   -6.2102  -21.2577  -13.2745 N   0  0  0  0  0  0
   -6.6354  -17.5400  -12.2293 C   0  0  0  0  0  0
   -5.4532  -18.6148  -14.0210 O   0  0  0  0  0  0
   -5.8179  -16.2088  -12.2634 C   0  0  2  0  0  0
   -4.6679  -16.2354  -11.2265 C   0  0  0  0  0  0
   -6.7178  -14.9265  -12.1293 C   0  0  0  0  0  0
   -7.7508  -14.8003  -13.2689 C   0  0  0  0  0  0
   -5.9298  -13.5952  -12.0408 C   0  0  0  0  0  0
   -4.8628  -16.6612  -10.0902 O   0  0  0  0  0  0
   -2.3326  -15.4018  -10.7822 C   0  0  2  0  0  0
   -1.7333  -16.6342  -10.0675 C   0  0  0  0  0  0
   -2.6144  -14.2005   -9.8698 C   0  0  0  0  0  0
   -3.1494  -14.3679   -8.5867 C   0  0  0  0  0  0
   -3.4396  -13.2574   -7.7986 C   0  0  0  0  0  0
   -3.1836  -11.9783   -8.2847 C   0  0  0  0  0  0
   -2.6264  -11.8005   -9.5475 C   0  0  0  0  0  0
   -2.3372  -12.9103  -10.3367 C   0  0  0  0  0  0
   -3.6006  -10.4634   -7.2130 Br  0  0  0  0  0  0
   -3.4700  -15.3330  -12.5641 H   0  0  0  0  0  0
   -6.5915  -16.5809   -8.2508 H   0  0  0  0  0  0
   -7.0695  -18.9267   -8.6005 H   0  0  0  0  0  0
  -11.0441  -18.0117   -9.8147 H   0  0  0  0  0  0
  -12.6625  -14.7913   -9.9051 H   0  0  0  0  0  0
  -12.4184  -16.4933   -9.9169 H   0  0  0  0  0  0
  -13.8691  -15.9579   -8.0204 H   0  0  0  0  0  0
  -12.3371  -16.4557   -7.3629 H   0  0  0  0  0  0
  -13.1593  -14.4626   -6.1620 H   0  0  0  0  0  0
  -11.6896  -14.0502   -7.0298 H   0  0  0  0  0  0
  -13.9550  -11.3332   -7.8333 H   0  0  0  0  0  0
  -13.8849  -12.0916   -6.2445 H   0  0  0  0  0  0
  -12.3903  -11.6978   -7.1125 H   0  0  0  0  0  0
   -7.0239  -12.9642   -8.3921 H   0  0  0  0  0  0
   -6.8051  -14.3730   -7.3584 H   0  0  0  0  0  0
   -6.2358  -14.3971   -9.0417 H   0  0  0  0  0  0
  -10.3731  -20.2773   -9.6210 H   0  0  0  0  0  0
   -8.8655  -20.7232   -8.8830 H   0  0  0  0  0  0
   -9.2666  -19.7839  -11.7370 H   0  0  0  0  0  0
   -6.8237  -21.3896  -10.9060 H   0  0  0  0  0  0
   -6.8603  -19.7596  -10.5642 H   0  0  0  0  0  0
   -9.0867  -22.0667  -12.5508 H   0  0  0  0  0  0
  -11.4150  -22.0241  -10.5990 H   0  0  0  0  0  0
  -11.3541  -21.0044  -12.0206 H   0  0  0  0  0  0
  -11.3324  -22.7543  -12.1935 H   0  0  0  0  0  0
   -9.1677  -23.0108   -9.6431 H   0  0  0  0  0  0
   -9.4110  -24.0445  -11.0433 H   0  0  0  0  0  0
   -7.8629  -23.2823  -10.7940 H   0  0  0  0  0  0
   -7.7185  -19.8606  -13.2996 H   0  0  0  0  0  0
   -5.0444  -19.0207  -12.0719 H   0  0  0  0  0  0
   -6.8936  -21.9994  -13.3482 H   0  0  0  0  0  0
   -5.9611  -21.0319  -14.2239 H   0  0  0  0  0  0
   -7.0167  -17.6748  -11.2239 H   0  0  0  0  0  0
   -7.5327  -17.4349  -12.8210 H   0  0  0  0  0  0
   -6.1893  -18.3134  -14.5768 H   0  0  0  0  0  0
   -5.3616  -16.1387  -13.2473 H   0  0  0  0  0  0
   -7.2864  -15.0152  -11.2051 H   0  0  0  0  0  0
   -7.2659  -14.8648  -14.2424 H   0  0  0  0  0  0
   -8.5177  -15.5726  -13.2216 H   0  0  0  0  0  0
   -8.2784  -13.8485  -13.2284 H   0  0  0  0  0  0
   -5.2664  -13.4697  -12.8965 H   0  0  0  0  0  0
   -6.5995  -12.7359  -12.0202 H   0  0  0  0  0  0
   -5.3230  -13.5364  -11.1384 H   0  0  0  0  0  0
   -1.5613  -15.0826  -11.4851 H   0  0  0  0  0  0
   -0.8106  -16.3765   -9.5495 H   0  0  0  0  0  0
   -2.4151  -17.0714   -9.3388 H   0  0  0  0  0  0
   -1.4966  -17.4174  -10.7875 H   0  0  0  0  0  0
   -3.3759  -15.3534   -8.2082 H   0  0  0  0  0  0
   -3.8727  -13.3899   -6.8184 H   0  0  0  0  0  0
   -2.4268  -10.8068   -9.9170 H   0  0  0  0  0  0
   -1.9150  -12.7603  -11.3203 H   0  0  0  0  0  0
  1 28  1  0  0  0
  1 33  1  0  0  0
  1 42  1  0  0  0
  2  3  2  0  0  0
  2  7  1  0  0  0
  2  8  1  0  0  0
  3  4  1  0  0  0
  3 14  1  0  0  0
  4  5  2  0  0  0
  4 43  1  0  0  0
  5  6  1  0  0  0
  5 44  1  0  0  0
  6  7  2  0  0  0
  6 16  1  0  0  0
  7 45  1  0  0  0
  8  9  1  0  0  0
  9 10  1  0  0  0
  9 46  1  0  0  0
  9 47  1  0  0  0
 10 11  1  0  0  0
 10 48  1  0  0  0
 10 49  1  0  0  0
 11 12  1  0  0  0
 11 50  1  0  0  0
 11 51  1  0  0  0
 12 13  1  0  0  0
 13 52  1  0  0  0
 13 53  1  0  0  0
 13 54  1  0  0  0
 14 15  1  0  0  0
 15 55  1  0  0  0
 15 56  1  0  0  0
 15 57  1  0  0  0
 16 17  1  0  0  0
 16 58  1  0  0  0
 16 59  1  0  0  0
 17 18  1  0  0  0
 17 19  1  0  0  0
 17 60  1  0  0  0
 18 22  1  0  0  0
 18 61  1  0  0  0
 18 62  1  0  0  0
 19 20  1  0  0  0
 19 21  1  0  0  0
 19 63  1  0  0  0
 20 64  1  0  0  0
 20 65  1  0  0  0
 20 66  1  0  0  0
 21 67  1  0  0  0
 21 68  1  0  0  0
 21 69  1  0  0  0
 22 23  1  0  0  0
 22 24  1  0  0  0
 22 70  1  0  0  0
 23 25  1  0  0  0
 23 26  1  0  0  0
 23 71  1  0  0  0
 24 72  1  0  0  0
 24 73  1  0  0  0
 25 27  1  0  0  0
 25 74  1  0  0  0
 25 75  1  0  0  0
 26 76  1  0  0  0
 27 28  1  0  0  0
 27 29  1  0  0  0
 27 77  1  0  0  0
 28 32  2  0  0  0
 29 30  1  0  0  0
 29 31  1  0  0  0
 29 78  1  0  0  0
 30 79  1  0  0  0
 30 80  1  0  0  0
 30 81  1  0  0  0
 31 82  1  0  0  0
 31 83  1  0  0  0
 31 84  1  0  0  0
 33 34  1  0  0  0
 33 35  1  0  0  0
 33 85  1  0  0  0
 34 86  1  0  0  0
 34 87  1  0  0  0
 34 88  1  0  0  0
 35 36  2  0  0  0
 35 40  1  0  0  0
 36 37  1  0  0  0
 36 89  1  0  0  0
 37 38  2  0  0  0
 37 90  1  0  0  0
 38 39  1  0  0  0
 38 41  1  0  0  0
 39 40  2  0  0  0
 39 91  1  0  0  0
 40 92  1  0  0  0
M  END
> <s_m_entry_id>
26276

> <s_m_entry_name>
dock_pv.100

> <s_m_Source_Path>
/home/csk/Desktop/cluster/DUD-E-result/reni

> <s_m_Source_File>
dock_pv.maegz

> <i_m_Source_File_Index>
100

> <chembl_id>
CHEMBL3633125

> <chembl_pref_name>
None

> <i_lp_mmshare_version>
53161

> <r_lp_tautomer_probability>
1

> <s_lp_Force_Field>
OPLS_2005

> <r_lp_Energy>
38.302566

> <b_lp_Chiralities_Consistent>
1

> <s_lp_Variant>
CHEMBL286_lig2617-1

> <s_i_glide_gridfile>
glide-grid_3g6z

> <i_i_glide_lignum>
6682

> <i_i_glide_rotatable_bonds>
20

> <r_i_docking_score>
-7.77640565762166

> <r_i_glide_ligand_efficiency>
-0.189668430673699

> <r_i_glide_ligand_efficiency_sa>
-0.654017951795805

> <r_i_glide_ligand_efficiency_ln>
-1.64979033895601

> <r_i_glide_gscore>
-7.77640565762166

> <r_i_glide_lipo>
-3.60893750999885

> <r_i_glide_hbond>
-0.72

> <r_i_glide_metal>
0

> <r_i_glide_rewards>
0.00221884302827884

> <r_i_glide_evdw>
-48.936107635498

> <r_i_glide_ecoul>
-10.3731250762939

> <r_i_glide_erotb>
0.591302167578573

> <r_i_glide_esite>
-0.0382150150106691

> <r_i_glide_emodel>
-83.0238926956406

> <r_i_glide_energy>
-59.309232711792

> <r_i_glide_einternal>
11.3360834121704

> <i_i_glide_confnum>
84

> <i_i_glide_posenum>
243

> <r_i_glide_eff_state_penalty>
0

> <s_user_duplicate_titles>
CHEMBL286_lig2617

> <i_f3d_flags>
0

> <s_m_subgroup_title>
dock_pv

> <s_m_subgroupid>
dock_pv

> <b_m_subgroup_collapsed>
1

$$$$
CHEMBL286_lig1940
                    3D
 Schrodinger Suite 2021-1.
 80 84  0  0  1  0            999 V2000
  -10.1843  -10.9935   -7.5627 C   0  0  0  0  0  0
  -10.6286  -12.2255   -8.0460 C   0  0  0  0  0  0
  -11.9778  -12.5916   -7.9227 C   0  0  0  0  0  0
  -12.8733  -11.6936   -7.3263 C   0  0  0  0  0  0
  -12.4109  -10.4763   -6.8210 C   0  0  0  0  0  0
  -11.0689  -10.1184   -6.9361 C   0  0  0  0  0  0
  -10.5810   -8.7910   -6.3913 C   0  0  0  0  0  0
  -14.5585  -12.0597   -7.2233 Cl  0  0  0  0  0  0
   -9.4804  -13.2637   -8.8176 Cl  0  0  0  0  0  0
  -12.4276  -13.8046   -8.3961 O   0  0  0  0  0  0
  -12.2563  -14.8997   -7.4927 C   0  0  0  0  0  0
  -11.9414  -16.2006   -8.2568 C   0  0  0  0  0  0
  -10.9312  -15.9395   -9.2286 O   0  0  0  0  0  0
  -10.0233  -16.9080   -9.6015 C   0  0  0  0  0  0
   -9.4671  -17.8608   -8.7364 C   0  0  0  0  0  0
   -8.4937  -18.7490   -9.2055 C   0  0  0  0  0  0
   -8.0716  -18.6999  -10.5407 C   0  0  0  0  0  0
   -8.6521  -17.7659  -11.3961 C   0  0  0  0  0  0
   -9.5978  -16.8658  -10.9257 C   0  0  0  0  0  0
   -6.9633  -19.6268  -11.0703 C   0  0  1  0  0  0
   -7.4423  -20.4968  -12.2584 C   0  0  0  0  0  0
   -6.3267  -21.4225  -12.7951 C   0  0  0  0  0  0
   -5.1019  -20.6971  -13.1379 N   0  0  1  0  0  0
   -4.5980  -19.8956  -12.0221 C   0  0  0  0  0  0
   -5.6567  -18.8832  -11.5034 C   0  0  2  0  0  0
   -5.0125  -18.1267  -10.3079 C   0  0  0  0  0  0
   -4.7010  -16.7959  -10.3636 N   0  0  0  0  0  0
   -4.7513  -18.8079   -9.3127 O   0  0  0  0  0  0
   -4.6730  -16.0135  -11.6198 C   0  0  0  0  0  0
   -3.9546  -16.1879   -9.2367 C   0  0  0  0  0  0
   -4.5033  -14.8735   -8.6906 C   0  0  0  0  0  0
   -5.9315  -15.7161  -12.4141 C   0  0  0  0  0  0
   -5.2289  -14.5991  -11.7031 C   0  0  0  0  0  0
   -3.7447  -13.7139   -8.8741 C   0  0  0  0  0  0
   -4.1984  -12.4774   -8.4110 C   0  0  0  0  0  0
   -5.4079  -12.4145   -7.7067 C   0  0  0  0  0  0
   -6.1459  -13.5704   -7.4741 C   0  0  0  0  0  0
   -5.7044  -14.7975   -7.9653 C   0  0  0  0  0  0
   -6.6732  -16.1910   -7.6509 Cl  0  0  0  0  0  0
   -3.3603  -11.2407   -8.7206 C   0  0  0  0  0  0
   -3.6798  -10.0631   -7.9271 N   0  0  1  0  0  0
   -3.1806  -10.1683   -6.5664 C   0  0  0  0  0  0
   -9.1441  -10.7195   -7.6620 H   0  0  0  0  0  0
  -13.1094   -9.7894   -6.3695 H   0  0  0  0  0  0
   -9.5586   -8.8739   -6.0217 H   0  0  0  0  0  0
  -10.6139   -8.0293   -7.1706 H   0  0  0  0  0  0
  -11.1907   -8.4630   -5.5501 H   0  0  0  0  0  0
  -13.1754  -15.0235   -6.9193 H   0  0  0  0  0  0
  -11.4688  -14.7187   -6.7583 H   0  0  0  0  0  0
  -12.8337  -16.5618   -8.7719 H   0  0  0  0  0  0
  -11.6624  -16.9681   -7.5385 H   0  0  0  0  0  0
   -9.7402  -17.8942   -7.6939 H   0  0  0  0  0  0
   -8.0464  -19.4565   -8.5212 H   0  0  0  0  0  0
   -8.3418  -17.7074  -12.4236 H   0  0  0  0  0  0
   -9.9939  -16.1277  -11.6039 H   0  0  0  0  0  0
   -6.7294  -20.3114  -10.2534 H   0  0  0  0  0  0
   -8.2582  -21.1393  -11.9295 H   0  0  0  0  0  0
   -7.8309  -19.8991  -13.0855 H   0  0  0  0  0  0
   -6.0916  -22.1912  -12.0573 H   0  0  0  0  0  0
   -6.6696  -21.9408  -13.6908 H   0  0  0  0  0  0
   -4.3979  -21.3768  -13.4000 H   0  0  0  0  0  0
   -3.6768  -19.3885  -12.3219 H   0  0  0  0  0  0
   -4.3373  -20.6052  -11.2327 H   0  0  0  0  0  0
   -5.8875  -18.1890  -12.3038 H   0  0  0  0  0  0
   -3.7688  -16.2120  -12.1974 H   0  0  0  0  0  0
   -2.9122  -16.0606   -9.5299 H   0  0  0  0  0  0
   -3.9122  -16.8535   -8.3730 H   0  0  0  0  0  0
   -5.8806  -15.7827  -13.5008 H   0  0  0  0  0  0
   -6.9045  -16.0038  -12.0326 H   0  0  0  0  0  0
   -5.7504  -14.1445  -10.8626 H   0  0  0  0  0  0
   -4.6769  -13.8643  -12.2889 H   0  0  0  0  0  0
   -2.8148  -13.7656   -9.4210 H   0  0  0  0  0  0
   -5.7836  -11.4708   -7.3378 H   0  0  0  0  0  0
   -7.0705  -13.5121   -6.9213 H   0  0  0  0  0  0
   -3.6142  -10.9758   -9.7465 H   0  0  0  0  0  0
   -2.2916  -11.4602   -8.7421 H   0  0  0  0  0  0
   -3.3468   -9.2253   -8.3857 H   0  0  0  0  0  0
   -3.4542   -9.2669   -6.0213 H   0  0  0  0  0  0
   -2.0950  -10.2610   -6.5429 H   0  0  0  0  0  0
   -3.6202  -11.0155   -6.0410 H   0  0  0  0  0  0
  1  6  1  0  0  0
  1  2  2  0  0  0
  1 43  1  0  0  0
  2  3  1  0  0  0
  2  9  1  0  0  0
  3 10  1  0  0  0
  3  4  2  0  0  0
  4  8  1  0  0  0
  4  5  1  0  0  0
  5  6  2  0  0  0
  5 44  1  0  0  0
  6  7  1  0  0  0
  7 45  1  0  0  0
  7 46  1  0  0  0
  7 47  1  0  0  0
 10 11  1  0  0  0
 11 12  1  0  0  0
 11 48  1  0  0  0
 11 49  1  0  0  0
 12 13  1  0  0  0
 12 50  1  0  0  0
 12 51  1  0  0  0
 13 14  1  0  0  0
 14 15  2  0  0  0
 14 19  1  0  0  0
 15 16  1  0  0  0
 15 52  1  0  0  0
 16 17  2  0  0  0
 16 53  1  0  0  0
 17 18  1  0  0  0
 17 20  1  0  0  0
 18 19  2  0  0  0
 18 54  1  0  0  0
 19 55  1  0  0  0
 20 21  1  0  0  0
 20 25  1  0  0  0
 20 56  1  0  0  0
 21 22  1  0  0  0
 21 57  1  0  0  0
 21 58  1  0  0  0
 22 23  1  0  0  0
 22 59  1  0  0  0
 22 60  1  0  0  0
 23 24  1  0  0  0
 23 61  1  0  0  0
 24 25  1  0  0  0
 24 62  1  0  0  0
 24 63  1  0  0  0
 25 26  1  0  0  0
 25 64  1  0  0  0
 26 27  1  0  0  0
 26 28  2  0  0  0
 27 29  1  0  0  0
 27 30  1  0  0  0
 29 32  1  0  0  0
 29 33  1  0  0  0
 29 65  1  0  0  0
 30 31  1  0  0  0
 30 66  1  0  0  0
 30 67  1  0  0  0
 31 34  2  0  0  0
 31 38  1  0  0  0
 32 33  1  0  0  0
 32 68  1  0  0  0
 32 69  1  0  0  0
 33 70  1  0  0  0
 33 71  1  0  0  0
 34 35  1  0  0  0
 34 72  1  0  0  0
 35 36  2  0  0  0
 35 40  1  0  0  0
 36 37  1  0  0  0
 36 73  1  0  0  0
 37 38  2  0  0  0
 37 74  1  0  0  0
 38 39  1  0  0  0
 40 41  1  0  0  0
 40 75  1  0  0  0
 40 76  1  0  0  0
 41 42  1  0  0  0
 41 77  1  0  0  0
 42 78  1  0  0  0
 42 79  1  0  0  0
 42 80  1  0  0  0
M  END
> <s_m_entry_id>
26277

> <s_m_entry_name>
dock_pv.101

> <s_m_Source_Path>
/home/csk/Desktop/cluster/DUD-E-result/reni

> <s_m_Source_File>
dock_pv.maegz

> <i_m_Source_File_Index>
101

> <chembl_id>
CHEMBL1269674

> <chembl_pref_name>
None

> <i_lp_mmshare_version>
53161

> <r_lp_tautomer_probability>
1

> <s_lp_Force_Field>
OPLS_2005

> <r_lp_Energy>
65.667262

> <b_lp_Chiralities_Consistent>
1

> <s_lp_Variant>
CHEMBL286_lig1940-1

> <s_i_glide_gridfile>
glide-grid_3g6z

> <i_i_glide_lignum>
5729

> <i_i_glide_rotatable_bonds>
13

> <r_i_docking_score>
-7.76782355067144

> <r_i_glide_ligand_efficiency>
-0.184948179777891

> <r_i_glide_ligand_efficiency_sa>
-0.642884800030236

> <r_i_glide_ligand_efficiency_ln>
-1.63958742937546

> <r_i_glide_gscore>
-7.76782355067144

> <r_i_glide_lipo>
-5.07385793538752

> <r_i_glide_hbond>
-0.246034792873215

> <r_i_glide_metal>
0

> <r_i_glide_rewards>
0.758226963801166

> <r_i_glide_evdw>
-53.6777801513672

> <r_i_glide_ecoul>
-6.80273914337158

> <r_i_glide_erotb>
0.498142092862231

> <r_i_glide_esite>
0

> <r_i_glide_emodel>
-82.9736879409293

> <r_i_glide_energy>
-60.4805192947388

> <r_i_glide_einternal>
6.78487634658813

> <i_i_glide_confnum>
111

> <i_i_glide_posenum>
259

> <r_i_glide_eff_state_penalty>
0

> <s_user_duplicate_titles>
CHEMBL286_lig1940

> <i_f3d_flags>
0

> <s_m_subgroup_title>
dock_pv

> <s_m_subgroupid>
dock_pv

> <b_m_subgroup_collapsed>
1

$$$$
CHEMBL286_lig2072
                    3D
 Schrodinger Suite 2021-1.
 81 83  0  0  1  0            999 V2000
  -10.9477  -13.6287   -8.2959 C   0  0  0  0  0  0
  -11.9065  -13.4894   -7.1001 C   0  0  0  0  0  0
  -13.2651  -14.1506   -7.3806 C   0  0  0  0  0  0
  -13.0911  -15.6110   -7.8346 C   0  0  0  0  0  0
  -12.1890  -15.7583   -9.0885 C   0  0  0  0  0  0
  -10.8221  -15.0881   -8.7830 C   0  0  0  0  0  0
  -12.0564  -17.2663   -9.4443 C   0  0  0  0  0  0
  -11.6104  -17.6982  -10.8802 C   0  0  1  0  0  0
  -10.2630  -17.2210  -11.2205 N   0  0  0  0  0  0
  -11.7449  -19.2386  -11.1198 C   0  0  0  0  0  0
  -13.0607  -19.6626  -11.6165 N   0  0  2  0  0  0
  -13.2225  -21.1037  -11.4932 C   0  0  0  0  0  0
   -9.1105  -17.5485  -10.6035 C   0  0  0  0  0  0
   -8.0322  -16.7818  -10.9308 N   0  0  0  0  0  0
   -9.0751  -18.4253   -9.7336 O   0  0  0  0  0  0
   -6.7861  -16.9576  -10.1571 C   0  0  0  0  0  0
   -6.0856  -15.5730   -9.9466 C   0  0  2  0  0  0
   -6.0103  -14.7088  -11.2385 C   0  0  0  0  0  0
   -7.3400  -14.7135  -12.0066 C   0  0  0  0  0  0
   -7.8705  -16.1375  -12.2532 C   0  0  0  0  0  0
   -4.7672  -15.6724   -9.0848 C   0  0  2  0  0  0
   -3.7110  -16.6977   -9.5820 C   0  0  0  0  0  0
   -2.7222  -17.1481   -8.6902 C   0  0  0  0  0  0
   -1.7970  -18.1198   -9.0620 C   0  0  0  0  0  0
   -1.8328  -18.6609  -10.3425 C   0  0  0  0  0  0
   -2.7877  -18.2137  -11.2517 C   0  0  0  0  0  0
   -3.7019  -17.2263  -10.8830 C   0  0  0  0  0  0
   -2.8705  -18.9150  -12.8210 Cl  0  0  0  0  0  0
   -5.2519  -16.0630   -7.8075 O   0  0  0  0  0  0
   -4.0764  -14.2931   -8.8530 C   0  0  0  0  0  0
   -4.9100  -13.1958   -8.1383 C   0  0  0  0  0  0
   -4.0462  -12.0971   -7.4936 C   0  0  0  0  0  0
   -3.2785  -11.1938   -8.4815 C   0  0  0  0  0  0
   -2.2231  -10.4760   -7.8465 O   0  0  0  0  0  0
   -2.6319   -9.5680   -6.8328 C   0  0  0  0  0  0
   -9.9643  -13.2389   -8.0311 H   0  0  0  0  0  0
  -11.3128  -13.0054   -9.1075 H   0  0  0  0  0  0
  -11.4685  -13.9487   -6.2132 H   0  0  0  0  0  0
  -12.0458  -12.4363   -6.8539 H   0  0  0  0  0  0
  -13.8689  -14.1176   -6.4756 H   0  0  0  0  0  0
  -13.8051  -13.5835   -8.1409 H   0  0  0  0  0  0
  -12.6623  -16.1908   -7.0135 H   0  0  0  0  0  0
  -14.0644  -16.0707   -8.0101 H   0  0  0  0  0  0
  -12.6675  -15.2149   -9.9031 H   0  0  0  0  0  0
  -10.1389  -15.1438   -9.6210 H   0  0  0  0  0  0
  -10.3186  -15.6752   -8.0211 H   0  0  0  0  0  0
  -11.3558  -17.6667   -8.7176 H   0  0  0  0  0  0
  -12.9989  -17.7622   -9.2211 H   0  0  0  0  0  0
  -12.2682  -17.1985  -11.5925 H   0  0  0  0  0  0
  -10.2150  -16.5144  -11.9383 H   0  0  0  0  0  0
  -11.0104  -19.5490  -11.8631 H   0  0  0  0  0  0
  -11.4734  -19.7719  -10.2071 H   0  0  0  0  0  0
  -13.1118  -19.4037  -12.5962 H   0  0  0  0  0  0
  -14.1815  -21.4070  -11.9144 H   0  0  0  0  0  0
  -12.4363  -21.6459  -12.0199 H   0  0  0  0  0  0
  -13.2081  -21.4058  -10.4464 H   0  0  0  0  0  0
   -6.9978  -17.3511   -9.1597 H   0  0  0  0  0  0
   -6.1562  -17.6681  -10.6873 H   0  0  0  0  0  0
   -6.8127  -15.0215   -9.3427 H   0  0  0  0  0  0
   -5.2218  -15.0519  -11.9045 H   0  0  0  0  0  0
   -5.7330  -13.6817  -10.9989 H   0  0  0  0  0  0
   -7.2030  -14.2114  -12.9656 H   0  0  0  0  0  0
   -8.0880  -14.1267  -11.4716 H   0  0  0  0  0  0
   -7.1450  -16.7138  -12.8318 H   0  0  0  0  0  0
   -8.7919  -16.0790  -12.8301 H   0  0  0  0  0  0
   -2.6696  -16.7615   -7.6825 H   0  0  0  0  0  0
   -1.0690  -18.4681   -8.3457 H   0  0  0  0  0  0
   -1.1294  -19.4302  -10.6262 H   0  0  0  0  0  0
   -4.4211  -16.9284  -11.6228 H   0  0  0  0  0  0
   -4.5262  -16.4225   -7.2870 H   0  0  0  0  0  0
   -3.1749  -14.4571   -8.2622 H   0  0  0  0  0  0
   -3.7102  -13.9109   -9.8051 H   0  0  0  0  0  0
   -5.6333  -12.7566   -8.8214 H   0  0  0  0  0  0
   -5.5048  -13.6369   -7.3389 H   0  0  0  0  0  0
   -4.6858  -11.4770   -6.8632 H   0  0  0  0  0  0
   -3.3302  -12.5703   -6.8211 H   0  0  0  0  0  0
   -2.8156  -11.7984   -9.2607 H   0  0  0  0  0  0
   -3.9565  -10.5057   -8.9913 H   0  0  0  0  0  0
   -1.7725   -8.9997   -6.4767 H   0  0  0  0  0  0
   -3.3681   -8.8634   -7.2211 H   0  0  0  0  0  0
   -3.0628  -10.0834   -5.9758 H   0  0  0  0  0  0
  1  2  1  0  0  0
  1  6  1  0  0  0
  1 36  1  0  0  0
  1 37  1  0  0  0
  2  3  1  0  0  0
  2 38  1  0  0  0
  2 39  1  0  0  0
  3  4  1  0  0  0
  3 40  1  0  0  0
  3 41  1  0  0  0
  4  5  1  0  0  0
  4 42  1  0  0  0
  4 43  1  0  0  0
  5  6  1  0  0  0
  5  7  1  0  0  0
  5 44  1  0  0  0
  6 45  1  0  0  0
  6 46  1  0  0  0
  7  8  1  0  0  0
  7 47  1  0  0  0
  7 48  1  0  0  0
  8  9  1  0  0  0
  8 10  1  0  0  0
  8 49  1  0  0  0
  9 13  1  0  0  0
  9 50  1  0  0  0
 10 11  1  0  0  0
 10 51  1  0  0  0
 10 52  1  0  0  0
 11 12  1  0  0  0
 11 53  1  0  0  0
 12 54  1  0  0  0
 12 55  1  0  0  0
 12 56  1  0  0  0
 13 14  1  0  0  0
 13 15  2  0  0  0
 14 20  1  0  0  0
 14 16  1  0  0  0
 16 17  1  0  0  0
 16 57  1  0  0  0
 16 58  1  0  0  0
 17 18  1  0  0  0
 17 21  1  0  0  0
 17 59  1  0  0  0
 18 19  1  0  0  0
 18 60  1  0  0  0
 18 61  1  0  0  0
 19 20  1  0  0  0
 19 62  1  0  0  0
 19 63  1  0  0  0
 20 64  1  0  0  0
 20 65  1  0  0  0
 21 22  1  0  0  0
 21 29  1  0  0  0
 21 30  1  0  0  0
 22 23  2  0  0  0
 22 27  1  0  0  0
 23 24  1  0  0  0
 23 66  1  0  0  0
 24 25  2  0  0  0
 24 67  1  0  0  0
 25 26  1  0  0  0
 25 68  1  0  0  0
 26 27  2  0  0  0
 26 28  1  0  0  0
 27 69  1  0  0  0
 29 70  1  0  0  0
 30 31  1  0  0  0
 30 71  1  0  0  0
 30 72  1  0  0  0
 31 32  1  0  0  0
 31 73  1  0  0  0
 31 74  1  0  0  0
 32 33  1  0  0  0
 32 75  1  0  0  0
 32 76  1  0  0  0
 33 34  1  0  0  0
 33 77  1  0  0  0
 33 78  1  0  0  0
 34 35  1  0  0  0
 35 79  1  0  0  0
 35 80  1  0  0  0
 35 81  1  0  0  0
M  END
> <s_m_entry_id>
26279

> <s_m_entry_name>
dock_pv.103

> <s_m_Source_Path>
/home/csk/Desktop/cluster/DUD-E-result/reni

> <s_m_Source_File>
dock_pv.maegz

> <i_m_Source_File_Index>
103

> <chembl_id>
CHEMBL1783183

> <chembl_pref_name>
None

> <i_lp_mmshare_version>
53161

> <r_lp_tautomer_probability>
1

> <s_lp_Force_Field>
OPLS_2005

> <r_lp_Energy>
51.690621

> <b_lp_Chiralities_Consistent>
1

> <s_lp_Variant>
CHEMBL286_lig2072-2

> <s_i_glide_gridfile>
glide-grid_3g6z

> <i_i_glide_lignum>
5910

> <i_i_glide_rotatable_bonds>
15

> <r_i_docking_score>
-7.75924301876192

> <r_i_glide_ligand_efficiency>
-0.221692657678912

> <r_i_glide_ligand_efficiency_sa>
-0.725171382890248

> <r_i_glide_ligand_efficiency_ln>
-1.70332604973877

> <r_i_glide_gscore>
-7.75924301876192

> <r_i_glide_lipo>
-3.92321021277285

> <r_i_glide_hbond>
-0.608

> <r_i_glide_metal>
0

> <r_i_glide_rewards>
-0.61570900527717

> <r_i_glide_evdw>
-38.3696212768555

> <r_i_glide_ecoul>
-10.2832775115967

> <r_i_glide_erotb>
0.872124210362716

> <r_i_glide_esite>
-0.0234753204923394

> <r_i_glide_emodel>
-60.7783671780809

> <r_i_glide_energy>
-48.6528987884521

> <r_i_glide_einternal>
18.586763381958

> <i_i_glide_confnum>
89

> <i_i_glide_posenum>
117

> <r_i_glide_eff_state_penalty>
0

> <s_user_duplicate_titles>
CHEMBL286_lig2072

> <i_f3d_flags>
0

> <s_m_subgroup_title>
dock_pv

> <s_m_subgroupid>
dock_pv

> <b_m_subgroup_collapsed>
1

$$$$
CHEMBL286_lig931
                    3D
 Schrodinger Suite 2021-1.
 95 97  0  0  1  0            999 V2000
   -7.0281  -17.1670  -10.2390 C   0  0  0  0  0  0
   -3.8724  -16.3895   -9.3949 C   0  0  0  0  0  0
   -8.0755  -17.6338  -10.9363 N   0  0  0  0  0  0
   -9.4440  -17.8757  -10.4422 C   0  0  2  0  0  0
   -4.6571  -16.3315  -10.4875 N   0  0  0  0  0  0
   -5.6690  -17.2929  -10.9601 C   0  0  1  0  0  0
  -10.1152  -18.9325  -11.3905 C   0  0  2  0  0  0
   -1.6929  -19.7372  -11.5142 N   0  0  0  0  0  0
   -3.4807  -19.2598  -12.7478 N   0  0  0  0  0  0
   -2.2091  -19.6414  -12.7393 C   0  0  0  0  0  0
   -2.8891  -15.2110   -9.0927 C   0  0  1  0  0  0
  -11.5274  -19.4528  -10.9491 C   0  0  2  0  0  0
   -5.2058  -18.7786  -10.9150 C   0  0  0  0  0  0
   -3.0841  -14.0623  -10.0196 N   0  0  2  0  0  0
  -10.2173  -16.5249  -10.3380 C   0  0  0  0  0  0
   -7.1079  -16.7279   -9.0908 O   0  0  0  0  0  0
   -3.8673  -17.3530   -8.6326 O   0  0  0  0  0  0
   -3.8147  -19.1203  -11.3935 C   0  0  0  0  0  0
   -2.9927  -14.7108   -7.6241 C   0  0  0  0  0  0
  -11.6988  -20.9667  -10.6139 C   0  0  0  0  0  0
   -2.7034  -19.4205  -10.6314 C   0  0  0  0  0  0
   -9.2186  -20.0213  -11.6069 O   0  0  0  0  0  0
   -2.4877  -14.1739  -11.3413 C   0  0  0  0  0  0
  -12.5552  -18.9766  -11.7940 O   0  0  0  0  0  0
   -4.1679  -13.7835   -7.3440 C   0  0  0  0  0  0
  -11.3444  -16.3365   -9.2759 C   0  0  0  0  0  0
  -11.7389  -22.0125  -11.7552 C   0  0  0  0  0  0
   -3.0987  -13.0872  -12.2551 C   0  0  0  0  0  0
   -3.9742  -12.3860   -7.3029 C   0  0  0  0  0  0
   -5.4814  -14.2938   -7.3281 C   0  0  0  0  0  0
  -10.8981  -16.6182   -7.8161 C   0  0  0  0  0  0
  -11.9918  -14.9392   -9.4246 C   0  0  0  0  0  0
  -13.1194  -22.1005  -12.4451 C   0  0  0  0  0  0
  -11.3210  -23.4063  -11.2475 C   0  0  0  0  0  0
   -2.6616  -11.6631  -11.9225 C   0  0  0  0  0  0
   -4.6440  -13.1662  -12.3557 C   0  0  0  0  0  0
   -6.5572  -13.4244   -7.2792 C   0  0  0  0  0  0
   -5.0668  -11.5353   -7.2203 C   0  0  0  0  0  0
  -13.0267  -14.5961   -8.3442 C   0  0  0  0  0  0
  -11.8621  -16.1180   -6.7145 C   0  0  0  0  0  0
   -6.3549  -12.0541   -7.2209 C   0  0  0  0  0  0
  -12.4062  -14.7018   -6.9497 C   0  0  0  0  0  0
   -7.8992  -17.9859  -11.8685 H   0  0  0  0  0  0
   -9.3586  -18.3204   -9.4494 H   0  0  0  0  0  0
   -4.5793  -15.4788  -11.0254 H   0  0  0  0  0  0
   -5.8252  -17.0271  -12.0088 H   0  0  0  0  0  0
  -10.2047  -18.4658  -12.3753 H   0  0  0  0  0  0
   -0.7546  -20.0262  -11.2759 H   0  0  0  0  0  0
   -1.6379  -19.8658  -13.6239 H   0  0  0  0  0  0
   -1.8857  -15.6252   -9.2040 H   0  0  0  0  0  0
  -11.7477  -18.9538  -10.0209 H   0  0  0  0  0  0
   -5.2878  -19.1547   -9.8942 H   0  0  0  0  0  0
   -5.8992  -19.3837  -11.4997 H   0  0  0  0  0  0
   -2.7083  -13.2308   -9.5900 H   0  0  0  0  0  0
  -10.6262  -16.3016  -11.3215 H   0  0  0  0  0  0
   -9.4976  -15.7276  -10.1479 H   0  0  0  0  0  0
   -3.0483  -15.5548   -6.9352 H   0  0  0  0  0  0
   -2.0765  -14.1871   -7.3522 H   0  0  0  0  0  0
  -10.8857  -21.2242   -9.9371 H   0  0  0  0  0  0
  -12.6018  -21.1061  -10.0211 H   0  0  0  0  0  0
   -2.5635  -19.4425   -9.5586 H   0  0  0  0  0  0
   -8.9421  -20.3709  -10.7585 H   0  0  0  0  0  0
   -1.4140  -14.0263  -11.2269 H   0  0  0  0  0  0
   -2.6606  -15.1648  -11.7612 H   0  0  0  0  0  0
  -12.1948  -18.8614  -12.6831 H   0  0  0  0  0  0
  -12.1793  -17.0127   -9.4664 H   0  0  0  0  0  0
  -10.9873  -21.7282  -12.4862 H   0  0  0  0  0  0
   -2.6690  -13.2629  -13.2353 H   0  0  0  0  0  0
   -2.9786  -11.9711   -7.3492 H   0  0  0  0  0  0
   -5.6547  -15.3585   -7.3927 H   0  0  0  0  0  0
   -9.9717  -16.0884   -7.6539 H   0  0  0  0  0  0
  -10.6273  -17.6629   -7.6715 H   0  0  0  0  0  0
  -12.4306  -14.8398  -10.4182 H   0  0  0  0  0  0
  -11.2098  -14.1836   -9.3651 H   0  0  0  0  0  0
  -13.8834  -22.4604  -11.7542 H   0  0  0  0  0  0
  -13.4692  -21.1410  -12.8242 H   0  0  0  0  0  0
  -13.0969  -22.7902  -13.2908 H   0  0  0  0  0  0
  -11.9994  -23.7746  -10.4792 H   0  0  0  0  0  0
  -11.3108  -24.1354  -12.0579 H   0  0  0  0  0  0
  -10.3171  -23.3877  -10.8238 H   0  0  0  0  0  0
   -3.2072  -11.2643  -11.0634 H   0  0  0  0  0  0
   -1.5978  -11.6019  -11.6932 H   0  0  0  0  0  0
   -2.8540  -11.0330  -12.7998 H   0  0  0  0  0  0
   -5.1186  -12.7524  -11.4671 H   0  0  0  0  0  0
   -5.0152  -12.6092  -13.2176 H   0  0  0  0  0  0
   -4.9946  -14.1942  -12.4409 H   0  0  0  0  0  0
   -7.5596  -13.8200   -7.3006 H   0  0  0  0  0  0
   -4.9143  -10.4661   -7.1847 H   0  0  0  0  0  0
  -13.4247  -13.5929   -8.5009 H   0  0  0  0  0  0
  -13.8637  -15.2834   -8.4131 H   0  0  0  0  0  0
  -11.3544  -16.1111   -5.7496 H   0  0  0  0  0  0
  -12.6968  -16.8168   -6.6302 H   0  0  0  0  0  0
   -7.2045  -11.3877   -7.1767 H   0  0  0  0  0  0
  -11.5997  -13.9714   -6.8411 H   0  0  0  0  0  0
  -13.1476  -14.4524   -6.1872 H   0  0  0  0  0  0
  1  3  1  0  0  0
  1  6  1  0  0  0
  1 16  2  0  0  0
  2  5  1  0  0  0
  2 11  1  0  0  0
  2 17  2  0  0  0
  3  4  1  0  0  0
  3 43  1  0  0  0
  4  7  1  0  0  0
  4 15  1  0  0  0
  4 44  1  0  0  0
  5  6  1  0  0  0
  5 45  1  0  0  0
  6 13  1  0  0  0
  6 46  1  0  0  0
  7 12  1  0  0  0
  7 22  1  0  0  0
  7 47  1  0  0  0
  8 21  1  0  0  0
  8 10  1  0  0  0
  8 48  1  0  0  0
  9 18  1  0  0  0
  9 10  2  0  0  0
 10 49  1  0  0  0
 11 14  1  0  0  0
 11 19  1  0  0  0
 11 50  1  0  0  0
 12 20  1  0  0  0
 12 24  1  0  0  0
 12 51  1  0  0  0
 13 18  1  0  0  0
 13 52  1  0  0  0
 13 53  1  0  0  0
 14 23  1  0  0  0
 14 54  1  0  0  0
 15 26  1  0  0  0
 15 55  1  0  0  0
 15 56  1  0  0  0
 18 21  2  0  0  0
 19 25  1  0  0  0
 19 57  1  0  0  0
 19 58  1  0  0  0
 20 27  1  0  0  0
 20 59  1  0  0  0
 20 60  1  0  0  0
 21 61  1  0  0  0
 22 62  1  0  0  0
 23 28  1  0  0  0
 23 63  1  0  0  0
 23 64  1  0  0  0
 24 65  1  0  0  0
 25 29  2  0  0  0
 25 30  1  0  0  0
 26 31  1  0  0  0
 26 32  1  0  0  0
 26 66  1  0  0  0
 27 33  1  0  0  0
 27 34  1  0  0  0
 27 67  1  0  0  0
 28 35  1  0  0  0
 28 36  1  0  0  0
 28 68  1  0  0  0
 29 38  1  0  0  0
 29 69  1  0  0  0
 30 37  2  0  0  0
 30 70  1  0  0  0
 31 40  1  0  0  0
 31 71  1  0  0  0
 31 72  1  0  0  0
 32 39  1  0  0  0
 32 73  1  0  0  0
 32 74  1  0  0  0
 33 75  1  0  0  0
 33 76  1  0  0  0
 33 77  1  0  0  0
 34 78  1  0  0  0
 34 79  1  0  0  0
 34 80  1  0  0  0
 35 81  1  0  0  0
 35 82  1  0  0  0
 35 83  1  0  0  0
 36 84  1  0  0  0
 36 85  1  0  0  0
 36 86  1  0  0  0
 37 41  1  0  0  0
 37 87  1  0  0  0
 38 41  2  0  0  0
 38 88  1  0  0  0
 39 42  1  0  0  0
 39 89  1  0  0  0
 39 90  1  0  0  0
 40 42  1  0  0  0
 40 91  1  0  0  0
 40 92  1  0  0  0
 41 93  1  0  0  0
 42 94  1  0  0  0
 42 95  1  0  0  0
M  END
> <s_m_entry_id>
26280

> <s_m_entry_name>
dock_pv.104

> <s_m_Source_Path>
/home/csk/Desktop/cluster/DUD-E-result/reni

> <s_m_Source_File>
dock_pv.maegz

> <i_m_Source_File_Index>
104

> <chembl_id>
CHEMBL3348544

> <chembl_pref_name>
None

> <i_lp_mmshare_version>
53161

> <r_lp_tautomer_probability>
0.499999999999999

> <s_lp_Force_Field>
OPLS_2005

> <r_lp_Energy>
35.377952

> <b_lp_Chiralities_Consistent>
1

> <s_lp_Variant>
CHEMBL286_lig931-1

> <s_i_glide_gridfile>
glide-grid_3g6z

> <i_i_glide_lignum>
2525

> <i_i_glide_rotatable_bonds>
21

> <r_i_docking_score>
-7.7541137943514

> <r_i_glide_ligand_efficiency>
-0.184621757008367

> <r_i_glide_ligand_efficiency_sa>
-0.641750145787284

> <r_i_glide_ligand_efficiency_ln>
-1.63669365302028

> <r_i_glide_gscore>
-7.7541137943514

> <r_i_glide_lipo>
-4.12011136765652

> <r_i_glide_hbond>
-0.466524580261124

> <r_i_glide_metal>
0

> <r_i_glide_rewards>
-0.849618654975243

> <r_i_glide_evdw>
-38.9323387145996

> <r_i_glide_ecoul>
-7.36303806304932

> <r_i_glide_erotb>
0.756334874496019

> <r_i_glide_esite>
-0.0231214207671596

> <r_i_glide_emodel>
-43.4815623439811

> <r_i_glide_energy>
-46.2953767776489

> <r_i_glide_einternal>
17.8160495758057

> <i_i_glide_confnum>
21

> <i_i_glide_posenum>
266

> <r_i_glide_eff_state_penalty>
0

> <s_user_duplicate_titles>
CHEMBL286_lig931,116472

> <i_f3d_flags>
0

> <s_m_subgroup_title>
dock_pv

> <s_m_subgroupid>
dock_pv

> <b_m_subgroup_collapsed>
1

$$$$
CHEMBL286_lig2000
                    3D
 Schrodinger Suite 2021-1.
 60 64  0  0  1  0            999 V2000
  -10.2192  -19.9867  -11.2163 C   0  0  0  0  0  0
  -11.4335  -19.3348  -10.9721 C   0  0  0  0  0  0
  -11.4449  -18.0512  -10.4352 C   0  0  0  0  0  0
   -8.9965  -19.3622  -10.9771 C   0  0  0  0  0  0
   -9.9426  -16.2469   -9.4693 N   0  0  0  0  0  0
   -8.5723  -16.0252   -9.5480 C   0  0  0  0  0  0
   -7.9235  -17.1482  -10.0966 C   0  0  0  0  0  0
   -8.9757  -18.0649  -10.4380 C   0  0  0  0  0  0
  -10.2194  -17.4454  -10.1184 C   0  0  0  0  0  0
  -10.8989  -15.4292   -8.7930 C   0  0  0  0  0  0
  -11.9564  -16.0283   -8.0911 C   0  0  0  0  0  0
  -12.9105  -15.2490   -7.4427 C   0  0  0  0  0  0
  -12.8092  -13.8618   -7.4803 C   0  0  0  0  0  0
  -11.7626  -13.2500   -8.1631 C   0  0  0  0  0  0
  -10.8136  -14.0309   -8.8193 C   0  0  0  0  0  0
   -6.4911  -17.2947  -10.2268 C   0  0  0  0  0  0
   -5.9283  -17.3740  -11.4628 N   0  0  0  0  0  0
   -5.8175  -17.2630   -9.2018 O   0  0  0  0  0  0
   -4.4537  -17.3505  -11.5841 C   0  0  0  0  0  0
   -3.9761  -18.5847  -12.3775 C   0  0  0  0  0  0
   -4.7151  -18.7594  -13.6210 N   0  0  0  0  0  0
   -6.1641  -18.7754  -13.4498 C   0  0  0  0  0  0
   -6.6690  -17.5042  -12.7280 C   0  0  0  0  0  0
   -8.0722  -14.8134   -9.1117 O   0  0  0  0  0  0
   -6.8153  -14.3701   -9.4503 C   0  0  0  0  0  0
   -5.8791  -14.2479   -8.4213 C   0  0  0  0  0  0
   -4.5719  -13.8562   -8.6979 C   0  0  0  0  0  0
   -4.1933  -13.5734  -10.0084 C   0  0  0  0  0  0
   -5.1275  -13.6611  -11.0397 C   0  0  0  0  0  0
   -6.4499  -14.0319  -10.7701 C   0  0  0  0  0  0
  -12.6748  -19.8869  -11.2210 O   0  0  0  0  0  0
  -12.7888  -21.3023  -11.3088 C   0  0  0  0  0  0
   -7.4473  -14.0379  -11.9224 C   0  0  0  0  0  0
   -3.6699  -13.7560   -7.6956 F   0  0  0  0  0  0
  -10.2058  -20.9845  -11.6265 H   0  0  0  0  0  0
  -12.3864  -17.5631  -10.2405 H   0  0  0  0  0  0
   -8.0733  -19.8741  -11.2052 H   0  0  0  0  0  0
  -12.0415  -17.1019   -8.0228 H   0  0  0  0  0  0
  -13.7217  -15.7197   -6.9065 H   0  0  0  0  0  0
  -13.5439  -13.2553   -6.9707 H   0  0  0  0  0  0
  -11.6875  -12.1724   -8.1865 H   0  0  0  0  0  0
  -10.0166  -13.5246   -9.3411 H   0  0  0  0  0  0
   -3.9324  -17.3101  -10.6264 H   0  0  0  0  0  0
   -4.1717  -16.4487  -12.1297 H   0  0  0  0  0  0
   -2.9112  -18.4995  -12.5971 H   0  0  0  0  0  0
   -4.1444  -19.4811  -11.7781 H   0  0  0  0  0  0
   -4.4520  -18.0630  -14.3106 H   0  0  0  0  0  0
   -6.6463  -18.8764  -14.4208 H   0  0  0  0  0  0
   -6.4147  -19.6554  -12.8561 H   0  0  0  0  0  0
   -6.4770  -16.6349  -13.3572 H   0  0  0  0  0  0
   -7.7473  -17.5534  -12.5993 H   0  0  0  0  0  0
   -6.1611  -14.4919   -7.4080 H   0  0  0  0  0  0
   -3.1770  -13.2780  -10.2228 H   0  0  0  0  0  0
   -4.8235  -13.4225  -12.0496 H   0  0  0  0  0  0
  -13.8424  -21.5763  -11.3684 H   0  0  0  0  0  0
  -12.2960  -21.7011  -12.1945 H   0  0  0  0  0  0
  -12.3719  -21.7818  -10.4225 H   0  0  0  0  0  0
   -7.8674  -13.0412  -12.0577 H   0  0  0  0  0  0
   -6.9573  -14.3261  -12.8530 H   0  0  0  0  0  0
   -8.2644  -14.7428  -11.7824 H   0  0  0  0  0  0
  1  4  1  0  0  0
  1  2  2  0  0  0
  1 35  1  0  0  0
  2  3  1  0  0  0
  2 31  1  0  0  0
  3  9  2  0  0  0
  3 36  1  0  0  0
  4  8  2  0  0  0
  4 37  1  0  0  0
  5  6  1  0  0  0
  5  9  1  0  0  0
  5 10  1  0  0  0
  6 24  1  0  0  0
  6  7  2  0  0  0
  7 16  1  0  0  0
  7  8  1  0  0  0
  8  9  1  0  0  0
 10 11  2  0  0  0
 10 15  1  0  0  0
 11 12  1  0  0  0
 11 38  1  0  0  0
 12 13  2  0  0  0
 12 39  1  0  0  0
 13 14  1  0  0  0
 13 40  1  0  0  0
 14 15  2  0  0  0
 14 41  1  0  0  0
 15 42  1  0  0  0
 16 17  1  0  0  0
 16 18  2  0  0  0
 17 19  1  0  0  0
 17 23  1  0  0  0
 19 20  1  0  0  0
 19 43  1  0  0  0
 19 44  1  0  0  0
 20 21  1  0  0  0
 20 45  1  0  0  0
 20 46  1  0  0  0
 21 22  1  0  0  0
 21 47  1  0  0  0
 22 23  1  0  0  0
 22 48  1  0  0  0
 22 49  1  0  0  0
 23 50  1  0  0  0
 23 51  1  0  0  0
 24 25  1  0  0  0
 25 26  2  0  0  0
 25 30  1  0  0  0
 26 27  1  0  0  0
 26 52  1  0  0  0
 27 28  2  0  0  0
 27 34  1  0  0  0
 28 29  1  0  0  0
 28 53  1  0  0  0
 29 30  2  0  0  0
 29 54  1  0  0  0
 30 33  1  0  0  0
 31 32  1  0  0  0
 32 55  1  0  0  0
 32 56  1  0  0  0
 32 57  1  0  0  0
 33 58  1  0  0  0
 33 59  1  0  0  0
 33 60  1  0  0  0
M  END
> <s_m_entry_id>
26281

> <s_m_entry_name>
dock_pv.105

> <s_m_Source_Path>
/home/csk/Desktop/cluster/DUD-E-result/reni

> <s_m_Source_File>
dock_pv.maegz

> <i_m_Source_File_Index>
105

> <chembl_id>
CHEMBL1271392

> <chembl_pref_name>
None

> <i_lp_mmshare_version>
53161

> <r_lp_tautomer_probability>
1

> <s_lp_Force_Field>
OPLS_2005

> <r_lp_Energy>
55.54089

> <b_lp_Chiralities_Consistent>
1

> <s_lp_Variant>
CHEMBL286_lig2000-1

> <s_i_glide_gridfile>
glide-grid_3g6z

> <i_i_glide_lignum>
5793

> <i_i_glide_rotatable_bonds>
6

> <r_i_docking_score>
-7.74955978345036

> <r_i_glide_ligand_efficiency>
-0.227928228925011

> <r_i_glide_ligand_efficiency_sa>
-0.738398979401787

> <r_i_glide_ligand_efficiency_ln>
-1.71209512395337

> <r_i_glide_gscore>
-7.74955978345036

> <r_i_glide_lipo>
-3.18651553854494

> <r_i_glide_hbond>
-0.601072644490937

> <r_i_glide_metal>
0

> <r_i_glide_rewards>
-1.19139868191865

> <r_i_glide_evdw>
-38.9263534545898

> <r_i_glide_ecoul>
-8.64083385467529

> <r_i_glide_erotb>
0.476463626514288

> <r_i_glide_esite>
-0.00459379407932908

> <r_i_glide_emodel>
-58.5553559392957

> <r_i_glide_energy>
-47.5671873092651

> <r_i_glide_einternal>
16.4874591827393

> <i_i_glide_confnum>
31

> <i_i_glide_posenum>
312

> <r_i_glide_eff_state_penalty>
0

> <s_user_duplicate_titles>
CHEMBL286_lig2000

> <i_f3d_flags>
0

> <s_m_subgroup_title>
dock_pv

> <s_m_subgroupid>
dock_pv

> <b_m_subgroup_collapsed>
1

$$$$
CHEMBL286_lig1591
                    3D
 Schrodinger Suite 2021-1.
 79 82  0  0  1  0            999 V2000
  -11.4715  -10.4202   -6.9457 C   0  0  0  0  0  0
  -10.3403  -10.9316   -7.5700 C   0  0  0  0  0  0
  -10.3401  -12.2497   -8.0210 C   0  0  0  0  0  0
  -11.4686  -13.0693   -7.8410 C   0  0  0  0  0  0
  -12.6123  -12.5199   -7.2474 C   0  0  0  0  0  0
  -12.6185  -11.1967   -6.8210 C   0  0  0  0  0  0
  -11.4530   -9.1654   -6.4406 F   0  0  0  0  0  0
  -11.4690  -14.5574   -8.2351 C   0  0  2  0  0  0
  -10.2076  -15.0217   -8.8210 N   0  0  0  0  0  0
   -9.7979  -16.2954   -8.9571 C   0  0  0  0  0  0
   -8.4154  -16.4770   -9.5332 C   0  0  0  0  0  0
  -10.4904  -17.2630   -8.6439 O   0  0  0  0  0  0
   -7.3946  -15.5578   -9.2660 C   0  0  0  0  0  0
   -6.1105  -15.7325   -9.7869 C   0  0  0  0  0  0
   -5.8563  -16.8553  -10.5891 C   0  0  0  0  0  0
   -6.8484  -17.8103  -10.8781 C   0  0  0  0  0  0
   -8.1265  -17.5908  -10.3303 C   0  0  0  0  0  0
   -6.5747  -18.9480  -11.6924 N   0  0  0  0  0  0
   -7.7052  -19.7425  -12.1860 C   0  0  0  0  0  0
   -5.0448  -14.7021   -9.4924 C   0  0  0  0  0  0
   -5.3612  -13.5467   -9.2107 O   0  0  0  0  0  0
   -3.7625  -15.1191   -9.5174 N   0  0  0  0  0  0
   -2.5923  -14.2761   -9.2126 C   0  0  2  0  0  0
   -1.2604  -14.8859   -9.7535 C   0  0  2  0  0  0
  -12.6690  -14.9195   -9.1273 C   0  0  0  0  0  0
   -2.5153  -13.9142   -7.6966 C   0  0  0  0  0  0
   -2.2255  -12.4451   -7.4100 C   0  0  0  0  0  0
   -0.9167  -12.0207   -7.1659 C   0  0  0  0  0  0
   -0.6607  -10.6838   -6.8714 C   0  0  0  0  0  0
   -1.7174   -9.7766   -6.8212 C   0  0  0  0  0  0
   -3.0259  -10.1918   -7.0657 C   0  0  0  0  0  0
   -0.2224  -13.9147   -9.6999 O   0  0  0  0  0  0
   -1.3226  -15.4109  -11.2137 C   0  0  0  0  0  0
   -3.2791  -11.5266   -7.3619 C   0  0  0  0  0  0
   -0.0781  -16.0631  -11.6210 N   0  0  2  0  0  0
    0.0303  -17.4183  -11.1030 C   0  0  0  0  0  0
   -0.5964  -18.5363  -11.9065 C   0  0  0  0  0  0
    0.9002  -18.3663  -11.8972 C   0  0  0  0  0  0
   -4.9956  -19.2450  -12.5012 S   0  0  0  0  0  0
   -4.9479  -17.8858  -13.7859 C   0  0  0  0  0  0
   -3.9228  -19.0123  -11.5288 O   0  0  0  0  0  0
   -5.0693  -20.5217  -13.2208 O   0  0  0  0  0  0
   -9.4600  -10.3132   -7.6769 H   0  0  0  0  0  0
   -9.4334  -12.6280   -8.4669 H   0  0  0  0  0  0
  -13.4958  -13.1205   -7.0870 H   0  0  0  0  0  0
  -13.4972  -10.7832   -6.3476 H   0  0  0  0  0  0
  -11.5780  -15.0971   -7.2910 H   0  0  0  0  0  0
   -9.5908  -14.3000   -9.1658 H   0  0  0  0  0  0
   -7.5926  -14.7015   -8.6351 H   0  0  0  0  0  0
   -4.8696  -16.9551  -11.0029 H   0  0  0  0  0  0
   -8.9266  -18.2913  -10.5198 H   0  0  0  0  0  0
   -8.2855  -20.1609  -11.3637 H   0  0  0  0  0  0
   -8.3580  -19.1269  -12.8081 H   0  0  0  0  0  0
   -7.3922  -20.5857  -12.8006 H   0  0  0  0  0  0
   -3.5822  -16.0865   -9.7365 H   0  0  0  0  0  0
   -2.7476  -13.3534   -9.7810 H   0  0  0  0  0  0
   -0.9892  -15.7120   -9.0965 H   0  0  0  0  0  0
  -13.6119  -14.7687   -8.6045 H   0  0  0  0  0  0
  -12.6693  -14.3001  -10.0218 H   0  0  0  0  0  0
  -12.6574  -15.9642   -9.4413 H   0  0  0  0  0  0
   -1.7848  -14.5386   -7.1795 H   0  0  0  0  0  0
   -3.4504  -14.1529   -7.1886 H   0  0  0  0  0  0
   -0.0992  -12.7264   -7.1987 H   0  0  0  0  0  0
    0.3494  -10.3530   -6.6773 H   0  0  0  0  0  0
   -1.5238   -8.7409   -6.5801 H   0  0  0  0  0  0
   -3.8415   -9.4833   -7.0163 H   0  0  0  0  0  0
   -0.2686  -13.3699  -10.4968 H   0  0  0  0  0  0
   -2.1560  -16.1020  -11.3550 H   0  0  0  0  0  0
   -1.5156  -14.5750  -11.8884 H   0  0  0  0  0  0
   -4.2947  -11.8487   -7.5419 H   0  0  0  0  0  0
    0.6979  -15.5243  -11.2556 H   0  0  0  0  0  0
    0.0882  -17.5073  -10.0174 H   0  0  0  0  0  0
   -1.0435  -19.3697  -11.3623 H   0  0  0  0  0  0
   -1.1547  -18.2912  -12.8087 H   0  0  0  0  0  0
    1.3941  -18.0021  -12.7996 H   0  0  0  0  0  0
    1.5098  -19.0911  -11.3545 H   0  0  0  0  0  0
   -4.0814  -18.0600  -14.4210 H   0  0  0  0  0  0
   -5.8643  -17.9377  -14.3743 H   0  0  0  0  0  0
   -4.8739  -16.9155  -13.2956 H   0  0  0  0  0  0
  1  6  1  0  0  0
  1  2  2  0  0  0
  1  7  1  0  0  0
  2  3  1  0  0  0
  2 43  1  0  0  0
  3  4  2  0  0  0
  3 44  1  0  0  0
  4  8  1  0  0  0
  4  5  1  0  0  0
  5  6  2  0  0  0
  5 45  1  0  0  0
  6 46  1  0  0  0
  8 25  1  0  0  0
  8  9  1  0  0  0
  8 47  1  0  0  0
  9 10  1  0  0  0
  9 48  1  0  0  0
 10 12  2  0  0  0
 10 11  1  0  0  0
 11 13  2  0  0  0
 11 17  1  0  0  0
 13 14  1  0  0  0
 13 49  1  0  0  0
 14 20  1  0  0  0
 14 15  2  0  0  0
 15 16  1  0  0  0
 15 50  1  0  0  0
 16 17  2  0  0  0
 16 18  1  0  0  0
 17 51  1  0  0  0
 18 19  1  0  0  0
 18 39  1  0  0  0
 19 52  1  0  0  0
 19 53  1  0  0  0
 19 54  1  0  0  0
 20 21  2  0  0  0
 20 22  1  0  0  0
 22 23  1  0  0  0
 22 55  1  0  0  0
 23 24  1  0  0  0
 23 26  1  0  0  0
 23 56  1  0  0  0
 24 32  1  0  0  0
 24 33  1  0  0  0
 24 57  1  0  0  0
 25 58  1  0  0  0
 25 59  1  0  0  0
 25 60  1  0  0  0
 26 27  1  0  0  0
 26 61  1  0  0  0
 26 62  1  0  0  0
 27 28  2  0  0  0
 27 34  1  0  0  0
 28 29  1  0  0  0
 28 63  1  0  0  0
 29 30  2  0  0  0
 29 64  1  0  0  0
 30 31  1  0  0  0
 30 65  1  0  0  0
 31 34  2  0  0  0
 31 66  1  0  0  0
 32 67  1  0  0  0
 33 35  1  0  0  0
 33 68  1  0  0  0
 33 69  1  0  0  0
 34 70  1  0  0  0
 35 36  1  0  0  0
 35 71  1  0  0  0
 36 37  1  0  0  0
 36 38  1  0  0  0
 36 72  1  0  0  0
 37 38  1  0  0  0
 37 73  1  0  0  0
 37 74  1  0  0  0
 38 75  1  0  0  0
 38 76  1  0  0  0
 39 40  1  0  0  0
 39 41  2  0  0  0
 39 42  2  0  0  0
 40 77  1  0  0  0
 40 78  1  0  0  0
 40 79  1  0  0  0
M  END
> <s_m_entry_id>
26283

> <s_m_entry_name>
dock_pv.107

> <s_m_Source_Path>
/home/csk/Desktop/cluster/DUD-E-result/reni

> <s_m_Source_File>
dock_pv.maegz

> <i_m_Source_File_Index>
107

> <chembl_id>
CHEMBL377625

> <chembl_pref_name>
None

> <i_lp_mmshare_version>
53161

> <r_lp_tautomer_probability>
1

> <s_lp_Force_Field>
OPLS_2005

> <r_lp_Energy>
32.726036

> <b_lp_Chiralities_Consistent>
1

> <s_lp_Variant>
CHEMBL286_lig1591-1

> <s_i_glide_gridfile>
glide-grid_3g6z

> <i_i_glide_lignum>
5295

> <i_i_glide_rotatable_bonds>
16

> <r_i_docking_score>
-7.74140441324458

> <r_i_glide_ligand_efficiency>
-0.184319152696299

> <r_i_glide_ligand_efficiency_sa>
-0.640698285136992

> <r_i_glide_ligand_efficiency_ln>
-1.63401103009998

> <r_i_glide_gscore>
-7.74140441324458

> <r_i_glide_lipo>
-3.69109828649451

> <r_i_glide_hbond>
-0.504670674640902

> <r_i_glide_metal>
0

> <r_i_glide_rewards>
-0.0394802072271154

> <r_i_glide_evdw>
-52.8781204223633

> <r_i_glide_ecoul>
-8.60614204406738

> <r_i_glide_erotb>
0.53425470201444

> <r_i_glide_esite>
-0.10558261916822

> <r_i_glide_emodel>
-85.4987565414503

> <r_i_glide_energy>
-61.4842624664307

> <r_i_glide_einternal>
8.72849750518799

> <i_i_glide_confnum>
46

> <i_i_glide_posenum>
230

> <r_i_glide_eff_state_penalty>
0

> <s_user_duplicate_titles>
CHEMBL286_lig1591

> <i_f3d_flags>
0

> <s_m_subgroup_title>
dock_pv

> <s_m_subgroupid>
dock_pv

> <b_m_subgroup_collapsed>
1

$$$$
CHEMBL286_lig2836
                    3D
 Schrodinger Suite 2021-1.
 72 74  0  0  1  0            999 V2000
   -6.3405  -21.2232  -11.2711 C   0  0  0  0  0  0
   -6.0828  -20.2415  -12.4329 C   0  0  0  0  0  0
   -7.3154  -20.1458  -13.3457 C   0  0  0  0  0  0
   -5.0149  -16.0123  -11.4789 C   0  0  0  0  0  0
   -4.2818  -16.8630  -12.4179 N   0  0  1  0  0  0
   -5.1042  -17.8924  -13.0280 C   0  0  0  0  0  0
   -5.5905  -18.8488  -11.9250 C   0  0  1  0  0  0
   -6.5664  -18.0712  -11.0149 C   0  0  0  0  0  0
   -6.0549  -16.6805  -10.5047 C   0  0  2  0  0  0
   -7.0252  -15.7357   -9.8279 N   0  0  0  0  0  0
   -8.2476  -16.1497   -9.3332 C   0  0  0  0  0  0
   -6.4542  -14.4041   -9.4885 C   0  0  0  0  0  0
   -6.1069  -14.2084   -7.9840 C   0  0  0  0  0  0
   -5.6108  -12.7761   -7.7208 C   0  0  0  0  0  0
   -5.0917  -15.2458   -7.4679 C   0  0  0  0  0  0
   -8.4699  -17.3405   -9.1308 O   0  0  0  0  0  0
  -11.3243  -16.8672   -9.1306 C   0  0  0  0  0  0
  -11.6037  -17.0646  -10.6433 C   0  0  0  0  0  0
  -10.8840  -18.2358  -11.3443 C   0  0  0  0  0  0
  -11.4906  -19.6264  -11.0775 C   0  0  0  0  0  0
  -12.8521  -19.6627  -11.5039 O   0  0  0  0  0  0
  -13.4564  -20.9415  -11.3919 C   0  0  0  0  0  0
   -9.3408  -15.1860   -9.0515 C   0  0  0  0  0  0
  -10.6837  -15.5658   -8.8667 N   0  0  0  0  0  0
   -9.2070  -13.8916   -8.8212 N   0  0  0  0  0  0
  -10.4221  -13.4164   -8.4213 C   0  0  0  0  0  0
  -11.3865  -14.4423   -8.4534 C   0  0  0  0  0  0
  -12.7267  -14.2058   -8.1177 C   0  0  0  0  0  0
  -13.0662  -12.9007   -7.7496 C   0  0  0  0  0  0
  -12.1196  -11.8765   -7.7094 C   0  0  0  0  0  0
  -10.7846  -12.1168   -8.0360 C   0  0  0  0  0  0
   -5.0690  -20.8347  -13.2210 O   0  0  0  0  0  0
   -7.1915  -20.9146  -10.6636 H   0  0  0  0  0  0
   -5.4760  -21.3017  -10.6115 H   0  0  0  0  0  0
   -6.5641  -22.2271  -11.6311 H   0  0  0  0  0  0
   -8.1472  -19.6336  -12.8633 H   0  0  0  0  0  0
   -7.0873  -19.6235  -14.2747 H   0  0  0  0  0  0
   -7.6694  -21.1355  -13.6189 H   0  0  0  0  0  0
   -5.5206  -15.2468  -12.0721 H   0  0  0  0  0  0
   -4.2389  -15.5136  -10.8962 H   0  0  0  0  0  0
   -3.8727  -16.2538  -13.1277 H   0  0  0  0  0  0
   -4.4661  -18.4221  -13.7359 H   0  0  0  0  0  0
   -5.9264  -17.4942  -13.6242 H   0  0  0  0  0  0
   -4.7184  -19.0441  -11.2953 H   0  0  0  0  0  0
   -7.4697  -17.9071  -11.6034 H   0  0  0  0  0  0
   -6.8088  -18.7208  -10.1750 H   0  0  0  0  0  0
   -5.4090  -16.9260   -9.6612 H   0  0  0  0  0  0
   -5.5473  -14.1934  -10.0425 H   0  0  0  0  0  0
   -7.1189  -13.6177   -9.8403 H   0  0  0  0  0  0
   -7.0157  -14.3282   -7.3940 H   0  0  0  0  0  0
   -4.6920  -12.5630   -8.2665 H   0  0  0  0  0  0
   -6.3541  -12.0382   -8.0198 H   0  0  0  0  0  0
   -5.4093  -12.6157   -6.6611 H   0  0  0  0  0  0
   -4.1600  -15.2117   -8.0325 H   0  0  0  0  0  0
   -4.8502  -15.0795   -6.4210 H   0  0  0  0  0  0
   -5.4881  -16.2575   -7.5350 H   0  0  0  0  0  0
  -10.7500  -17.6690   -8.6820 H   0  0  0  0  0  0
  -12.2714  -16.8893   -8.5882 H   0  0  0  0  0  0
  -12.6688  -17.2314  -10.7664 H   0  0  0  0  0  0
  -11.4014  -16.1460  -11.1958 H   0  0  0  0  0  0
  -10.9066  -18.0623  -12.4209 H   0  0  0  0  0  0
   -9.8279  -18.2423  -11.0844 H   0  0  0  0  0  0
  -10.9098  -20.3731  -11.6208 H   0  0  0  0  0  0
  -11.4163  -19.8765  -10.0212 H   0  0  0  0  0  0
  -14.4922  -20.8822  -11.7300 H   0  0  0  0  0  0
  -12.9446  -21.6841  -12.0087 H   0  0  0  0  0  0
  -13.4648  -21.2898  -10.3592 H   0  0  0  0  0  0
  -13.4702  -14.9872   -8.1395 H   0  0  0  0  0  0
  -14.0905  -12.6723   -7.4911 H   0  0  0  0  0  0
  -12.4273  -10.8795   -7.4258 H   0  0  0  0  0  0
  -10.0594  -11.3155   -8.0204 H   0  0  0  0  0  0
   -5.3679  -21.7139  -13.4640 H   0  0  0  0  0  0
  1  2  1  0  0  0
  1 33  1  0  0  0
  1 34  1  0  0  0
  1 35  1  0  0  0
  2  3  1  0  0  0
  2  7  1  0  0  0
  2 32  1  0  0  0
  3 36  1  0  0  0
  3 37  1  0  0  0
  3 38  1  0  0  0
  4  5  1  0  0  0
  4  9  1  0  0  0
  4 39  1  0  0  0
  4 40  1  0  0  0
  5  6  1  0  0  0
  5 41  1  0  0  0
  6  7  1  0  0  0
  6 42  1  0  0  0
  6 43  1  0  0  0
  7  8  1  0  0  0
  7 44  1  0  0  0
  8  9  1  0  0  0
  8 45  1  0  0  0
  8 46  1  0  0  0
  9 10  1  0  0  0
  9 47  1  0  0  0
 10 11  1  0  0  0
 10 12  1  0  0  0
 11 16  2  0  0  0
 11 23  1  0  0  0
 12 13  1  0  0  0
 12 48  1  0  0  0
 12 49  1  0  0  0
 13 14  1  0  0  0
 13 15  1  0  0  0
 13 50  1  0  0  0
 14 51  1  0  0  0
 14 52  1  0  0  0
 14 53  1  0  0  0
 15 54  1  0  0  0
 15 55  1  0  0  0
 15 56  1  0  0  0
 17 24  1  0  0  0
 17 18  1  0  0  0
 17 57  1  0  0  0
 17 58  1  0  0  0
 18 19  1  0  0  0
 18 59  1  0  0  0
 18 60  1  0  0  0
 19 20  1  0  0  0
 19 61  1  0  0  0
 19 62  1  0  0  0
 20 21  1  0  0  0
 20 63  1  0  0  0
 20 64  1  0  0  0
 21 22  1  0  0  0
 22 65  1  0  0  0
 22 66  1  0  0  0
 22 67  1  0  0  0
 23 24  1  0  0  0
 23 25  2  0  0  0
 24 27  1  0  0  0
 25 26  1  0  0  0
 26 27  2  0  0  0
 26 31  1  0  0  0
 27 28  1  0  0  0
 28 29  2  0  0  0
 28 68  1  0  0  0
 29 30  1  0  0  0
 29 69  1  0  0  0
 30 31  2  0  0  0
 30 70  1  0  0  0
 31 71  1  0  0  0
 32 72  1  0  0  0
M  END
> <s_m_entry_id>
26284

> <s_m_entry_name>
dock_pv.108

> <s_m_Source_Path>
/home/csk/Desktop/cluster/DUD-E-result/reni

> <s_m_Source_File>
dock_pv.maegz

> <i_m_Source_File_Index>
108

> <chembl_id>
CHEMBL4128795

> <chembl_pref_name>
None

> <i_lp_mmshare_version>
53161

> <r_lp_tautomer_probability>
1

> <s_lp_Force_Field>
OPLS_2005

> <r_lp_Energy>
48.783499

> <b_lp_Chiralities_Consistent>
1

> <s_lp_Variant>
CHEMBL286_lig2836-1

> <s_i_glide_gridfile>
glide-grid_3g6z

> <i_i_glide_lignum>
6934

> <i_i_glide_rotatable_bonds>
12

> <r_i_docking_score>
-7.73799224922222

> <r_i_glide_ligand_efficiency>
-0.241812257788194

> <r_i_glide_ligand_efficiency_sa>
-0.767706063896681

> <r_i_glide_ligand_efficiency_ln>
-1.73274739430314

> <r_i_glide_gscore>
-7.73799224922222

> <r_i_glide_lipo>
-3.48473963960653

> <r_i_glide_hbond>
-0.794293881526135

> <r_i_glide_metal>
0

> <r_i_glide_rewards>
-0.990438930864059

> <r_i_glide_evdw>
-37.0001220703125

> <r_i_glide_ecoul>
-10.1943140029907

> <r_i_glide_erotb>
0.910633406738742

> <r_i_glide_esite>
0

> <r_i_glide_emodel>
-56.8188398426286

> <r_i_glide_energy>
-47.1944360733032

> <r_i_glide_einternal>
20.0683898925781

> <i_i_glide_confnum>
79

> <i_i_glide_posenum>
226

> <r_i_glide_eff_state_penalty>
0

> <s_user_duplicate_titles>
CHEMBL286_lig2836

> <i_f3d_flags>
0

> <s_m_subgroup_title>
dock_pv

> <s_m_subgroupid>
dock_pv

> <b_m_subgroup_collapsed>
1

$$$$
CHEMBL286_lig1597
                    3D
 Schrodinger Suite 2021-1.
 52 54  0  0  1  0            999 V2000
   -5.0329  -13.7724   -9.4576 N   0  0  0  0  0  0
   -6.2690  -14.0653   -8.9702 C   0  0  0  0  0  0
   -7.3177  -14.5377   -9.7858 C   0  0  0  0  0  0
   -6.9802  -14.7374  -11.1411 C   0  0  0  0  0  0
   -5.7585  -14.4552  -11.6461 N   0  0  0  0  0  0
   -4.8429  -13.9793  -10.7803 C   0  0  0  0  0  0
   -8.6824  -14.8254   -9.2568 C   0  0  0  0  0  0
   -9.1735  -16.1298   -9.2422 C   0  0  0  0  0  0
  -10.4740  -16.3958   -8.8236 C   0  0  0  0  0  0
   -9.5226  -13.7927   -8.8213 C   0  0  0  0  0  0
   -3.5963  -13.6896  -11.3086 N   0  0  0  0  0  0
   -6.3957  -13.9357   -7.4566 C   0  0  0  0  0  0
   -6.1652  -15.2871   -6.7569 C   0  0  0  0  0  0
   -7.8774  -15.2638  -12.0636 N   0  0  0  0  0  0
  -10.8469  -14.0332   -8.4210 C   0  0  0  0  0  0
  -11.3291  -15.3657   -8.4209 C   0  0  0  0  0  0
  -12.7515  -15.6793   -7.9722 C   0  0  0  0  0  0
  -13.1612  -14.6668   -6.8994 C   0  0  0  0  0  0
  -13.0140  -13.2351   -7.4422 C   0  0  0  0  0  0
  -11.6839  -12.9788   -8.0213 N   0  0  0  0  0  0
  -11.4787  -11.5457   -8.2639 C   0  0  0  0  0  0
  -10.6080  -10.8953   -7.1734 C   0  0  0  0  0  0
  -10.4438   -9.3690   -7.3322 C   0  0  0  0  0  0
  -10.6623   -8.7030   -6.0940 O   0  0  0  0  0  0
  -12.0289   -8.4247   -5.8167 C   0  0  0  0  0  0
   -8.5481  -16.9463   -9.5701 H   0  0  0  0  0  0
  -10.8269  -17.4168   -8.8289 H   0  0  0  0  0  0
   -9.1332  -12.7899   -8.8226 H   0  0  0  0  0  0
   -2.8521  -13.3965  -10.6959 H   0  0  0  0  0  0
   -3.4389  -13.9338  -12.2789 H   0  0  0  0  0  0
   -5.6795  -13.2019   -7.0837 H   0  0  0  0  0  0
   -7.3764  -13.5389   -7.2070 H   0  0  0  0  0  0
   -6.2717  -15.2110   -5.6755 H   0  0  0  0  0  0
   -6.8780  -16.0384   -7.0965 H   0  0  0  0  0  0
   -5.1625  -15.6659   -6.9608 H   0  0  0  0  0  0
   -8.7845  -15.5733  -11.7491 H   0  0  0  0  0  0
   -7.5427  -15.4808  -12.9911 H   0  0  0  0  0  0
  -12.8347  -16.6973   -7.5895 H   0  0  0  0  0  0
  -13.4294  -15.6063   -8.8228 H   0  0  0  0  0  0
  -12.5229  -14.7798   -6.0214 H   0  0  0  0  0  0
  -14.1768  -14.8633   -6.5585 H   0  0  0  0  0  0
  -13.4130  -12.4358   -6.8152 H   0  0  0  0  0  0
  -13.6633  -13.2444   -8.3183 H   0  0  0  0  0  0
  -12.4244  -11.0049   -8.3427 H   0  0  0  0  0  0
  -11.0264  -11.4056   -9.2440 H   0  0  0  0  0  0
   -9.6056  -11.3155   -7.2213 H   0  0  0  0  0  0
  -11.0000  -11.1443   -6.1854 H   0  0  0  0  0  0
  -11.0690   -8.9556   -8.1221 H   0  0  0  0  0  0
   -9.4260   -9.1524   -7.6470 H   0  0  0  0  0  0
  -12.1402   -8.1192   -4.7764 H   0  0  0  0  0  0
  -12.6709   -9.2892   -5.9984 H   0  0  0  0  0  0
  -12.3872   -7.5972   -6.4269 H   0  0  0  0  0  0
  1  6  1  0  0  0
  1  2  2  0  0  0
  2 12  1  0  0  0
  2  3  1  0  0  0
  3  4  2  0  0  0
  3  7  1  0  0  0
  4 14  1  0  0  0
  4  5  1  0  0  0
  5  6  2  0  0  0
  6 11  1  0  0  0
  7  8  2  0  0  0
  7 10  1  0  0  0
  8  9  1  0  0  0
  8 26  1  0  0  0
  9 16  2  0  0  0
  9 27  1  0  0  0
 10 15  2  0  0  0
 10 28  1  0  0  0
 11 29  1  0  0  0
 11 30  1  0  0  0
 12 13  1  0  0  0
 12 31  1  0  0  0
 12 32  1  0  0  0
 13 33  1  0  0  0
 13 34  1  0  0  0
 13 35  1  0  0  0
 14 36  1  0  0  0
 14 37  1  0  0  0
 15 16  1  0  0  0
 15 20  1  0  0  0
 16 17  1  0  0  0
 17 18  1  0  0  0
 17 38  1  0  0  0
 17 39  1  0  0  0
 18 19  1  0  0  0
 18 40  1  0  0  0
 18 41  1  0  0  0
 19 20  1  0  0  0
 19 42  1  0  0  0
 19 43  1  0  0  0
 20 21  1  0  0  0
 21 22  1  0  0  0
 21 44  1  0  0  0
 21 45  1  0  0  0
 22 23  1  0  0  0
 22 46  1  0  0  0
 22 47  1  0  0  0
 23 24  1  0  0  0
 23 48  1  0  0  0
 23 49  1  0  0  0
 24 25  1  0  0  0
 25 50  1  0  0  0
 25 51  1  0  0  0
 25 52  1  0  0  0
M  END
> <s_m_entry_id>
26285

> <s_m_entry_name>
dock_pv.109

> <s_m_Source_Path>
/home/csk/Desktop/cluster/DUD-E-result/reni

> <s_m_Source_File>
dock_pv.maegz

> <i_m_Source_File_Index>
109

> <chembl_id>
CHEMBL230260

> <chembl_pref_name>
None

> <i_lp_mmshare_version>
53161

> <r_lp_tautomer_probability>
0.999999624730965

> <s_lp_Force_Field>
OPLS_2005

> <r_lp_Energy>
15.060064

> <b_lp_Chiralities_Consistent>
1

> <s_lp_Variant>
CHEMBL286_lig1597-1

> <s_i_glide_gridfile>
glide-grid_3g6z

> <i_i_glide_lignum>
5301

> <i_i_glide_rotatable_bonds>
6

> <r_i_docking_score>
-7.73339393923439

> <r_i_glide_ligand_efficiency>
-0.309335757569376

> <r_i_glide_ligand_efficiency_sa>
-0.904503241225875

> <r_i_glide_ligand_efficiency_ln>
-1.83304611471374

> <r_i_glide_gscore>
-7.73339393923439

> <r_i_glide_lipo>
-3.68286478083204

> <r_i_glide_hbond>
-0.235158780766692

> <r_i_glide_metal>
0

> <r_i_glide_rewards>
-2.3271498544492

> <r_i_glide_evdw>
-38.9645347595215

> <r_i_glide_ecoul>
-1.11612498760223

> <r_i_glide_erotb>
0.65015383582798

> <r_i_glide_esite>
-0.0227288728980271

> <r_i_glide_emodel>
-52.6459954034759

> <r_i_glide_energy>
-40.0806597471237

> <r_i_glide_einternal>
9.61263465881348

> <i_i_glide_confnum>
134

> <i_i_glide_posenum>
2

> <r_i_glide_eff_state_penalty>
0

> <s_user_duplicate_titles>
CHEMBL286_lig1597,384151

> <i_f3d_flags>
0

> <s_m_subgroup_title>
dock_pv

> <s_m_subgroupid>
dock_pv

> <b_m_subgroup_collapsed>
1

$$$$
CHEMBL286_lig1558
                    3D
 Schrodinger Suite 2021-1.
 73 76  0  0  1  0            999 V2000
   -7.2939  -18.3328  -11.7649 N   0  0  0  0  0  0
   -7.4066  -19.6671  -12.0700 C   0  0  0  0  0  0
   -8.1871  -17.7816  -10.8172 C   0  0  0  0  0  0
   -6.3748  -17.3861  -12.4729 C   0  0  2  0  0  0
   -5.8690  -19.2630  -14.0210 N   0  0  2  0  0  0
  -10.9468  -11.9405   -8.0210 C   0  0  0  0  0  0
   -8.2257  -20.4200  -11.5335 O   0  0  0  0  0  0
  -10.4564  -10.7904   -7.3836 C   0  0  0  0  0  0
   -9.4602  -17.3442  -11.1998 C   0  0  0  0  0  0
   -7.8051  -17.7302   -9.4742 C   0  0  0  0  0  0
   -6.3770  -20.2527  -13.0735 C   0  0  0  0  0  0
   -5.3262  -18.0936  -13.3653 C   0  0  0  0  0  0
   -9.9865  -16.8673   -8.8765 C   0  0  0  0  0  0
   -6.5381  -15.2112  -11.4816 O   0  0  0  0  0  0
  -10.3595  -16.8920  -10.2301 C   0  0  0  0  0  0
   -8.6989  -17.2632   -8.5153 C   0  0  0  0  0  0
   -4.9824  -13.6095  -10.4083 C   0  0  0  0  0  0
   -2.6251  -12.1177  -10.4242 C   0  0  0  0  0  0
   -3.2391  -12.4632  -11.6300 C   0  0  0  0  0  0
   -3.1874  -12.5190   -9.2119 C   0  0  0  0  0  0
   -4.4206  -13.2008  -11.6210 C   0  0  0  0  0  0
   -4.3624  -13.2654   -9.2042 C   0  0  0  0  0  0
  -11.3701   -9.8558   -6.9341 O   0  0  0  0  0  0
   -5.6607  -16.3217  -11.6087 C   0  0  0  0  0  0
  -12.8223  -15.1194   -8.2203 C   0  0  0  0  0  0
  -10.8083  -16.4630   -7.8410 O   0  0  0  0  0  0
  -12.4412  -12.1016   -8.3039 C   0  0  0  0  0  0
  -13.1203  -12.8388   -7.2867 O   0  0  0  0  0  0
  -10.0588  -12.9482   -8.4210 C   0  0  0  0  0  0
   -6.3120  -14.3566  -10.3701 C   0  0  0  0  0  0
  -12.2282  -16.5082   -7.9797 C   0  0  0  0  0  0
  -12.6672  -14.1642   -7.0155 C   0  0  0  0  0  0
   -9.0691  -10.6531   -7.2210 C   0  0  0  0  0  0
   -1.3522  -11.2907  -10.4210 C   0  0  0  0  0  0
  -10.9137   -8.6328   -6.3662 C   0  0  0  0  0  0
   -8.6928  -12.8327   -8.1877 C   0  0  0  0  0  0
   -8.1895  -11.6630   -7.6210 C   0  0  0  0  0  0
   -7.0307  -16.8361  -13.1510 H   0  0  0  0  0  0
   -6.5652  -18.9605  -14.7096 H   0  0  0  0  0  0
   -9.7558  -17.3818  -12.2398 H   0  0  0  0  0  0
   -6.8251  -18.0689   -9.1723 H   0  0  0  0  0  0
   -5.5592  -20.6898  -12.4993 H   0  0  0  0  0  0
   -6.8544  -21.0670  -13.6210 H   0  0  0  0  0  0
   -4.4626  -18.3957  -12.7695 H   0  0  0  0  0  0
   -4.9827  -17.3994  -14.1325 H   0  0  0  0  0  0
  -11.3401  -16.5668  -10.5419 H   0  0  0  0  0  0
   -8.4019  -17.2366   -7.4773 H   0  0  0  0  0  0
   -2.8085  -12.1574  -12.5733 H   0  0  0  0  0  0
   -2.7179  -12.2510   -8.2766 H   0  0  0  0  0  0
   -4.8996  -13.4511  -12.5572 H   0  0  0  0  0  0
   -4.7967  -13.5619   -8.2601 H   0  0  0  0  0  0
   -5.3759  -16.7455  -10.6441 H   0  0  0  0  0  0
   -4.7422  -15.9711  -12.0818 H   0  0  0  0  0  0
  -13.8807  -15.2325   -8.4209 H   0  0  0  0  0  0
  -12.3922  -14.7178   -9.1337 H   0  0  0  0  0  0
  -12.9130  -11.1236   -8.3912 H   0  0  0  0  0  0
  -12.6031  -12.5614   -9.2773 H   0  0  0  0  0  0
  -10.4172  -13.8446   -8.9005 H   0  0  0  0  0  0
   -7.1021  -13.6084  -10.3970 H   0  0  0  0  0  0
   -6.4246  -14.9227   -9.4435 H   0  0  0  0  0  0
  -12.6296  -16.8630   -7.0317 H   0  0  0  0  0  0
  -12.5603  -17.2236   -8.7346 H   0  0  0  0  0  0
  -11.6451  -14.1524   -6.6369 H   0  0  0  0  0  0
  -13.2743  -14.5269   -6.1872 H   0  0  0  0  0  0
   -8.6690   -9.7824   -6.7309 H   0  0  0  0  0  0
   -0.5056  -11.9021  -10.1074 H   0  0  0  0  0  0
   -1.1359  -10.8630  -11.4005 H   0  0  0  0  0  0
   -1.4439  -10.4641   -9.7166 H   0  0  0  0  0  0
  -11.7752   -8.0151   -6.1135 H   0  0  0  0  0  0
  -10.3488   -8.8027   -5.4483 H   0  0  0  0  0  0
  -10.2998   -8.0662   -7.0681 H   0  0  0  0  0  0
   -8.0344  -13.6451   -8.4410 H   0  0  0  0  0  0
   -7.1279  -11.5564   -7.4533 H   0  0  0  0  0  0
  1  2  1  0  0  0
  1  3  1  0  0  0
  1  4  1  0  0  0
  2  7  2  0  0  0
  2 11  1  0  0  0
  3  9  1  0  0  0
  3 10  2  0  0  0
  4 12  1  0  0  0
  4 24  1  0  0  0
  4 38  1  0  0  0
  5 12  1  0  0  0
  5 11  1  0  0  0
  5 39  1  0  0  0
  6 27  1  0  0  0
  6  8  2  0  0  0
  6 29  1  0  0  0
  8 23  1  0  0  0
  8 33  1  0  0  0
  9 15  2  0  0  0
  9 40  1  0  0  0
 10 16  1  0  0  0
 10 41  1  0  0  0
 11 42  1  0  0  0
 11 43  1  0  0  0
 12 44  1  0  0  0
 12 45  1  0  0  0
 13 16  2  0  0  0
 13 26  1  0  0  0
 13 15  1  0  0  0
 14 24  1  0  0  0
 14 30  1  0  0  0
 15 46  1  0  0  0
 16 47  1  0  0  0
 17 30  1  0  0  0
 17 21  1  0  0  0
 17 22  2  0  0  0
 18 20  2  0  0  0
 18 34  1  0  0  0
 18 19  1  0  0  0
 19 21  2  0  0  0
 19 48  1  0  0  0
 20 22  1  0  0  0
 20 49  1  0  0  0
 21 50  1  0  0  0
 22 51  1  0  0  0
 23 35  1  0  0  0
 24 52  1  0  0  0
 24 53  1  0  0  0
 25 31  1  0  0  0
 25 32  1  0  0  0
 25 54  1  0  0  0
 25 55  1  0  0  0
 26 31  1  0  0  0
 27 28  1  0  0  0
 27 56  1  0  0  0
 27 57  1  0  0  0
 28 32  1  0  0  0
 29 36  2  0  0  0
 29 58  1  0  0  0
 30 59  1  0  0  0
 30 60  1  0  0  0
 31 61  1  0  0  0
 31 62  1  0  0  0
 32 63  1  0  0  0
 32 64  1  0  0  0
 33 37  2  0  0  0
 33 65  1  0  0  0
 34 66  1  0  0  0
 34 67  1  0  0  0
 34 68  1  0  0  0
 35 69  1  0  0  0
 35 70  1  0  0  0
 35 71  1  0  0  0
 36 37  1  0  0  0
 36 72  1  0  0  0
 37 73  1  0  0  0
M  END
> <s_m_entry_id>
26286

> <s_m_entry_name>
dock_pv.110

> <s_m_Source_Path>
/home/csk/Desktop/cluster/DUD-E-result/reni

> <s_m_Source_File>
dock_pv.maegz

> <i_m_Source_File_Index>
110

> <chembl_id>
CHEMBL381425

> <chembl_pref_name>
None

> <i_lp_mmshare_version>
53161

> <r_lp_tautomer_probability>
1

> <s_lp_Force_Field>
OPLS_2005

> <r_lp_Energy>
56.728415

> <b_lp_Chiralities_Consistent>
1

> <s_lp_Variant>
CHEMBL286_lig1558-1

> <s_i_glide_gridfile>
glide-grid_3g6z

> <i_i_glide_lignum>
5262

> <i_i_glide_rotatable_bonds>
13

> <r_i_docking_score>
-7.73228476006911

> <r_i_glide_ligand_efficiency>
-0.208980669191057

> <r_i_glide_ligand_efficiency_sa>
-0.696369951611856

> <r_i_glide_ligand_efficiency_ln>
-1.67695129398538

> <r_i_glide_gscore>
-7.73228476006911

> <r_i_glide_lipo>
-4.17695412072338

> <r_i_glide_hbond>
-0.442112155092052

> <r_i_glide_metal>
0

> <r_i_glide_rewards>
-0.394082997385818

> <r_i_glide_evdw>
-46.1462059020996

> <r_i_glide_ecoul>
-8.61610317230225

> <r_i_glide_erotb>
0.963617592224042

> <r_i_glide_esite>
-0.0830273081415858

> <r_i_glide_emodel>
-76.8269677275289

> <r_i_glide_energy>
-54.7623090744019

> <r_i_glide_einternal>
8.8609561920166

> <i_i_glide_confnum>
61

> <i_i_glide_posenum>
198

> <r_i_glide_eff_state_penalty>
0

> <s_user_duplicate_titles>
CHEMBL286_lig1558,326744

> <i_f3d_flags>
0

> <s_m_subgroup_title>
dock_pv

> <s_m_subgroupid>
dock_pv

> <b_m_subgroup_collapsed>
1

$$$$
CHEMBL286_lig2023
                    3D
 Schrodinger Suite 2021-1.
 48 51  0  0  1  0            999 V2000
   -9.8685  -18.5024  -10.4550 C   0  0  0  0  0  0
   -9.3709  -16.3767   -9.6011 C   0  0  1  0  0  0
  -10.0386  -17.1185  -10.6450 N   0  0  0  0  0  0
  -10.4529  -15.5465   -8.8442 C   0  0  0  0  0  0
  -11.5204  -16.1888   -8.1957 C   0  0  0  0  0  0
  -12.5032  -15.4627   -7.5339 C   0  0  0  0  0  0
  -12.4553  -14.0729   -7.5102 C   0  0  0  0  0  0
  -11.4035  -13.4134   -8.1569 C   0  0  0  0  0  0
  -10.4217  -14.1437   -8.8196 C   0  0  0  0  0  0
  -10.4000  -19.3466  -11.2201 N   0  0  0  0  0  0
   -9.0678  -18.6652   -9.3700 N   0  0  0  0  0  0
   -8.8266  -17.5084   -8.7142 C   0  0  0  0  0  0
   -8.5841  -19.9348   -8.8215 C   0  0  0  0  0  0
   -8.2701  -17.3557   -7.6241 O   0  0  0  0  0  0
   -8.1592  -15.5653  -10.1532 C   0  0  0  0  0  0
   -7.3517  -14.8288   -9.2694 C   0  0  0  0  0  0
   -6.2741  -14.0690   -9.7282 C   0  0  0  0  0  0
   -5.9629  -14.0631  -11.0942 C   0  0  0  0  0  0
   -6.7340  -14.8097  -11.9821 C   0  0  0  0  0  0
   -7.8209  -15.5500  -11.5197 C   0  0  0  0  0  0
  -13.4688  -13.4356   -6.8283 O   0  0  0  0  0  0
  -13.7668  -12.0794   -7.1360 C   0  0  0  0  0  0
  -14.2748  -11.9807   -8.3641 F   0  0  0  0  0  0
  -14.6745  -11.6540   -6.2624 F   0  0  0  0  0  0
   -5.5215  -13.2633   -8.7753 C   0  0  0  0  0  0
   -4.9297  -13.3298  -11.5757 F   0  0  0  0  0  0
   -4.9403  -12.5399   -7.9812 C   0  0  0  0  0  0
   -4.2668  -11.6282   -7.0419 C   0  0  0  0  0  0
   -2.7826  -11.3824   -7.2230 C   0  0  0  0  0  0
   -3.7708  -10.3000   -7.5712 C   0  0  0  0  0  0
  -11.5992  -17.2630   -8.2055 H   0  0  0  0  0  0
  -13.3147  -15.9802   -7.0427 H   0  0  0  0  0  0
  -11.3273  -12.3381   -8.1631 H   0  0  0  0  0  0
   -9.6418  -13.5887   -9.3168 H   0  0  0  0  0  0
  -10.9084  -18.8974  -11.9695 H   0  0  0  0  0  0
  -10.8744  -16.6667  -10.9848 H   0  0  0  0  0  0
   -8.7891  -20.7631   -9.5017 H   0  0  0  0  0  0
   -7.5055  -19.8984   -8.6519 H   0  0  0  0  0  0
   -9.0689  -20.1519   -7.8690 H   0  0  0  0  0  0
   -7.5868  -14.8306   -8.2131 H   0  0  0  0  0  0
   -6.4895  -14.8103  -13.0346 H   0  0  0  0  0  0
   -8.3934  -16.1108  -12.2452 H   0  0  0  0  0  0
  -12.9166  -11.4042   -7.0340 H   0  0  0  0  0  0
   -4.6702  -11.6595   -6.0288 H   0  0  0  0  0  0
   -2.2508  -11.8937   -8.0273 H   0  0  0  0  0  0
   -2.1660  -11.2645   -6.3315 H   0  0  0  0  0  0
   -3.8528   -9.4286   -6.9213 H   0  0  0  0  0  0
   -3.9363  -10.0462   -8.6202 H   0  0  0  0  0  0
  1 11  1  0  0  0
  1 10  2  0  0  0
  1  3  1  0  0  0
  2  3  1  0  0  0
  2 12  1  0  0  0
  2 15  1  0  0  0
  2  4  1  0  0  0
  3 36  1  0  0  0
  4  9  1  0  0  0
  4  5  2  0  0  0
  5  6  1  0  0  0
  5 31  1  0  0  0
  6  7  2  0  0  0
  6 32  1  0  0  0
  7  8  1  0  0  0
  7 21  1  0  0  0
  8  9  2  0  0  0
  8 33  1  0  0  0
  9 34  1  0  0  0
 10 35  1  0  0  0
 11 12  1  0  0  0
 11 13  1  0  0  0
 12 14  2  0  0  0
 13 37  1  0  0  0
 13 38  1  0  0  0
 13 39  1  0  0  0
 15 16  2  0  0  0
 15 20  1  0  0  0
 16 17  1  0  0  0
 16 40  1  0  0  0
 17 18  2  0  0  0
 17 25  1  0  0  0
 18 19  1  0  0  0
 18 26  1  0  0  0
 19 20  2  0  0  0
 19 41  1  0  0  0
 20 42  1  0  0  0
 21 22  1  0  0  0
 22 23  1  0  0  0
 22 24  1  0  0  0
 22 43  1  0  0  0
 25 27  3  0  0  0
 27 28  1  0  0  0
 28 29  1  0  0  0
 28 30  1  0  0  0
 28 44  1  0  0  0
 29 30  1  0  0  0
 29 45  1  0  0  0
 29 46  1  0  0  0
 30 47  1  0  0  0
 30 48  1  0  0  0
M  END
> <s_m_entry_id>
26287

> <s_m_entry_name>
dock_pv.111

> <s_m_Source_Path>
/home/csk/Desktop/cluster/DUD-E-result/reni

> <s_m_Source_File>
dock_pv.maegz

> <i_m_Source_File_Index>
111

> <chembl_id>
CHEMBL1270335

> <chembl_pref_name>
None

> <i_lp_mmshare_version>
53161

> <r_lp_tautomer_probability>
0.499639836881432

> <s_lp_Force_Field>
OPLS_2005

> <r_lp_Energy>
34.11595

> <b_lp_Chiralities_Consistent>
1

> <s_lp_Variant>
CHEMBL286_lig2023-2

> <s_i_glide_gridfile>
glide-grid_3g6z

> <i_i_glide_lignum>
5825

> <i_i_glide_rotatable_bonds>
6

> <r_i_docking_score>
-7.7303284432911

> <r_i_glide_ligand_efficiency>
-0.25767761477637

> <r_i_glide_ligand_efficiency_sa>
-0.800664259782054

> <r_i_glide_ligand_efficiency_ln>
-1.75641485099031

> <r_i_glide_gscore>
-7.7303284432911

> <r_i_glide_lipo>
-3.6500873850241

> <r_i_glide_hbond>
0

> <r_i_glide_metal>
0

> <r_i_glide_rewards>
-2.25558023551554

> <r_i_glide_evdw>
-43.0746421813965

> <r_i_glide_ecoul>
-1.65417182445526

> <r_i_glide_erotb>
0.577197059986657

> <r_i_glide_esite>
0

> <r_i_glide_emodel>
-65.6607796795374

> <r_i_glide_energy>
-44.7288140058517

> <r_i_glide_einternal>
2.80959320068359

> <i_i_glide_confnum>
2

> <i_i_glide_posenum>
273

> <r_i_glide_eff_state_penalty>
0

> <s_user_duplicate_titles>
CHEMBL286_lig2023,CHEMBL286_lig2023

> <i_f3d_flags>
0

> <s_m_subgroup_title>
dock_pv

> <s_m_subgroupid>
dock_pv

> <b_m_subgroup_collapsed>
1

$$$$
CHEMBL286_lig2025
                    3D
 Schrodinger Suite 2021-1.
 51 54  0  0  1  0            999 V2000
   -9.9277  -18.4527  -10.5374 C   0  0  0  0  0  0
   -9.2478  -16.3107   -9.8479 C   0  0  1  0  0  0
  -10.0190  -17.0743  -10.8047 N   0  0  0  0  0  0
  -10.2342  -15.4154   -9.0279 C   0  0  0  0  0  0
  -11.4007  -15.9759   -8.4776 C   0  0  0  0  0  0
  -12.3253  -15.2072   -7.7699 C   0  0  0  0  0  0
  -12.1045  -13.8378   -7.5815 C   0  0  0  0  0  0
  -10.9422  -13.2630   -8.1062 C   0  0  0  0  0  0
  -10.0274  -14.0391   -8.8210 C   0  0  0  0  0  0
  -10.5528  -19.3030  -11.2210 N   0  0  0  0  0  0
   -9.0840  -18.6013   -9.4836 N   0  0  0  0  0  0
   -8.6928  -17.4253   -8.9444 C   0  0  0  0  0  0
   -8.6690  -19.8630   -8.8631 C   0  0  0  0  0  0
   -8.0163  -17.2530   -7.9282 O   0  0  0  0  0  0
   -8.0534  -15.5824  -10.5454 C   0  0  0  0  0  0
   -7.0965  -14.8906   -9.7817 C   0  0  0  0  0  0
   -6.0252  -14.2279  -10.3859 C   0  0  0  0  0  0
   -5.8711  -14.2733  -11.7719 C   0  0  0  0  0  0
   -6.7916  -14.9715  -12.5481 C   0  0  0  0  0  0
   -7.8691  -15.6155  -11.9429 C   0  0  0  0  0  0
  -13.0139  -13.1129   -6.8423 O   0  0  0  0  0  0
  -13.4710  -11.8727   -7.3708 C   0  0  0  0  0  0
  -14.2689  -12.0630   -8.4210 F   0  0  0  0  0  0
  -14.1749  -11.2630   -6.4210 F   0  0  0  0  0  0
   -5.0975  -13.4595   -9.5729 C   0  0  0  0  0  0
   -4.3788  -12.7489   -8.8887 C   0  0  0  0  0  0
   -3.5661  -11.8355   -8.0730 C   0  0  0  0  0  0
   -3.8689  -10.3551   -8.1615 C   0  0  0  0  0  0
   -4.2354  -11.1198   -6.9193 C   0  0  0  0  0  0
  -13.5618  -15.8912   -7.2177 C   0  0  0  0  0  0
  -11.6042  -17.0290   -8.6082 H   0  0  0  0  0  0
  -10.7306  -12.2153   -7.9578 H   0  0  0  0  0  0
   -9.1655  -13.5343   -9.2254 H   0  0  0  0  0  0
  -11.0689  -18.8631  -11.9707 H   0  0  0  0  0  0
  -10.8391  -16.5886  -11.1362 H   0  0  0  0  0  0
   -9.0254  -20.7210   -9.4353 H   0  0  0  0  0  0
   -7.5811  -19.9263   -8.8091 H   0  0  0  0  0  0
   -9.0690  -19.9444   -7.8518 H   0  0  0  0  0  0
   -7.2022  -14.8539   -8.7057 H   0  0  0  0  0  0
   -5.0440  -13.7717  -12.2559 H   0  0  0  0  0  0
   -6.6717  -15.0158  -13.6209 H   0  0  0  0  0  0
   -8.5559  -16.1451  -12.5880 H   0  0  0  0  0  0
  -12.6744  -11.1833   -7.6518 H   0  0  0  0  0  0
   -2.5276  -12.1481   -7.9579 H   0  0  0  0  0  0
   -4.6636  -10.0024   -8.8210 H   0  0  0  0  0  0
   -3.0316   -9.6630   -8.1139 H   0  0  0  0  0  0
   -3.6507  -10.9428   -6.0207 H   0  0  0  0  0  0
   -5.2868  -11.3133   -6.6997 H   0  0  0  0  0  0
  -14.0437  -15.3190   -6.4212 H   0  0  0  0  0  0
  -14.2690  -16.0629   -8.0208 H   0  0  0  0  0  0
  -13.3014  -16.8630   -6.7994 H   0  0  0  0  0  0
  1 11  1  0  0  0
  1 10  2  0  0  0
  1  3  1  0  0  0
  2  3  1  0  0  0
  2 12  1  0  0  0
  2 15  1  0  0  0
  2  4  1  0  0  0
  3 35  1  0  0  0
  4  9  1  0  0  0
  4  5  2  0  0  0
  5  6  1  0  0  0
  5 31  1  0  0  0
  6  7  2  0  0  0
  6 30  1  0  0  0
  7  8  1  0  0  0
  7 21  1  0  0  0
  8  9  2  0  0  0
  8 32  1  0  0  0
  9 33  1  0  0  0
 10 34  1  0  0  0
 11 12  1  0  0  0
 11 13  1  0  0  0
 12 14  2  0  0  0
 13 36  1  0  0  0
 13 37  1  0  0  0
 13 38  1  0  0  0
 15 16  2  0  0  0
 15 20  1  0  0  0
 16 17  1  0  0  0
 16 39  1  0  0  0
 17 18  2  0  0  0
 17 25  1  0  0  0
 18 19  1  0  0  0
 18 40  1  0  0  0
 19 20  2  0  0  0
 19 41  1  0  0  0
 20 42  1  0  0  0
 21 22  1  0  0  0
 22 23  1  0  0  0
 22 24  1  0  0  0
 22 43  1  0  0  0
 25 26  3  0  0  0
 26 27  1  0  0  0
 27 28  1  0  0  0
 27 29  1  0  0  0
 27 44  1  0  0  0
 28 29  1  0  0  0
 28 45  1  0  0  0
 28 46  1  0  0  0
 29 47  1  0  0  0
 29 48  1  0  0  0
 30 49  1  0  0  0
 30 50  1  0  0  0
 30 51  1  0  0  0
M  END
> <s_m_entry_id>
26288

> <s_m_entry_name>
dock_pv.112

> <s_m_Source_Path>
/home/csk/Desktop/cluster/DUD-E-result/reni

> <s_m_Source_File>
dock_pv.maegz

> <i_m_Source_File_Index>
112

> <chembl_id>
CHEMBL1270630

> <chembl_pref_name>
None

> <i_lp_mmshare_version>
53161

> <r_lp_tautomer_probability>
0.499639836881432

> <s_lp_Force_Field>
OPLS_2005

> <r_lp_Energy>
32.504176

> <b_lp_Chiralities_Consistent>
1

> <s_lp_Variant>
CHEMBL286_lig2025-2

> <s_i_glide_gridfile>
glide-grid_3g6z

> <i_i_glide_lignum>
5829

> <i_i_glide_rotatable_bonds>
6

> <r_i_docking_score>
-7.7300543271647

> <r_i_glide_ligand_efficiency>
-0.257668477572157

> <r_i_glide_ligand_efficiency_sa>
-0.800635868364141

> <r_i_glide_ligand_efficiency_ln>
-1.75635256881966

> <r_i_glide_gscore>
-7.7300543271647

> <r_i_glide_lipo>
-3.57115069608715

> <r_i_glide_hbond>
0

> <r_i_glide_metal>
0

> <r_i_glide_rewards>
-2.36371215746276

> <r_i_glide_evdw>
-40.824333190918

> <r_i_glide_ecoul>
-2.27529788017273

> <r_i_glide_erotb>
0.58731986795702

> <r_i_glide_esite>
0

> <r_i_glide_emodel>
-60.159599848487

> <r_i_glide_energy>
-43.0996310710907

> <r_i_glide_einternal>
3.66582441329956

> <i_i_glide_confnum>
3

> <i_i_glide_posenum>
98

> <r_i_glide_eff_state_penalty>
0

> <s_user_duplicate_titles>
CHEMBL286_lig2025,CHEMBL286_lig2025

> <i_f3d_flags>
0

> <s_m_subgroup_title>
dock_pv

> <s_m_subgroupid>
dock_pv

> <b_m_subgroup_collapsed>
1

$$$$
CHEMBL286_lig1329
                    3D
 Schrodinger Suite 2021-1.
 97100  0  0  1  0            999 V2000
   -6.6574  -14.8462  -12.0262 S   0  0  0  0  0  0
   -8.7886  -17.8207   -9.2055 C   0  0  0  0  0  0
   -8.9844  -19.3394   -9.4224 C   0  0  0  0  0  0
   -6.1020  -16.5067  -11.8022 N   0  0  1  0  0  0
   -5.2104  -13.8807  -11.6668 N   0  0  0  0  0  0
   -5.0060  -17.0259  -12.6711 C   0  0  2  0  0  0
   -9.7083  -19.7767  -10.6924 C   0  0  1  0  0  0
   -9.9884  -17.1985   -8.4594 C   0  0  0  0  0  0
   -5.2589  -18.5106  -13.0458 C   0  0  0  0  0  0
   -8.7228  -19.7665  -11.7777 N   0  0  0  0  0  0
   -7.0182  -14.6595  -13.4366 O   0  0  0  0  0  0
   -7.6258  -14.5914  -10.9545 O   0  0  0  0  0  0
   -7.7767  -20.6695  -12.0834 C   0  0  0  0  0  0
   -6.5160  -18.9257  -13.2162 N   0  0  0  0  0  0
  -11.8159  -13.7253   -8.1183 N   0  0  0  0  0  0
   -8.6607  -20.1479   -8.5494 O   0  0  0  0  0  0
   -3.6154  -16.7766  -12.0275 C   0  0  0  0  0  0
   -8.6296  -17.2227  -10.3930 F   0  0  0  0  0  0
   -7.6750  -17.6284   -8.4914 F   0  0  0  0  0  0
  -10.5580  -21.0756  -10.5233 C   0  0  0  0  0  0
  -10.0590  -17.2671   -7.2306 O   0  0  0  0  0  0
   -4.3051  -19.2677  -13.2205 O   0  0  0  0  0  0
   -7.5953  -21.7061  -11.4507 O   0  0  0  0  0  0
  -10.9740  -16.6743   -9.2160 N   0  0  0  0  0  0
   -3.2407  -12.0138  -10.9288 O   0  0  0  0  0  0
  -13.8562  -12.4637   -6.4946 O   0  0  0  0  0  0
   -6.8981  -20.3342  -13.2914 C   0  0  0  0  0  0
   -4.8613  -13.6848  -10.2387 C   0  0  0  0  0  0
   -4.9212  -12.7227  -12.5393 C   0  0  0  0  0  0
   -3.1789  -17.6763  -10.8835 C   0  0  0  0  0  0
  -12.2635  -16.1939   -8.7129 C   0  0  0  0  0  0
  -12.5205  -14.6904   -8.9862 C   0  0  0  0  0  0
  -11.6425  -21.3389  -11.5972 C   0  0  0  0  0  0
  -12.2860  -12.3497   -8.3908 C   0  0  0  0  0  0
  -11.9937  -13.9865   -6.6817 C   0  0  0  0  0  0
   -3.4666  -12.2531  -12.3198 C   0  0  0  0  0  0
   -3.4121  -13.1711  -10.1102 C   0  0  0  0  0  0
  -13.4670  -13.8184   -6.2642 C   0  0  0  0  0  0
  -13.7100  -12.0447   -7.8494 C   0  0  0  0  0  0
   -2.3396  -18.7778  -11.1600 C   0  0  0  0  0  0
   -3.7109  -17.5305   -9.5886 C   0  0  0  0  0  0
  -11.2731  -22.4627  -12.6313 C   0  0  0  0  0  0
  -13.0373  -21.6319  -11.0205 C   0  0  0  0  0  0
   -3.4011  -18.4692   -8.6154 C   0  0  0  0  0  0
   -2.0772  -19.7158  -10.1780 C   0  0  0  0  0  0
  -12.4228  -22.8748  -13.6040 C   0  0  0  0  0  0
  -14.1062  -21.8759  -12.0773 C   0  0  0  0  0  0
   -2.6003  -19.5623   -8.9023 C   0  0  0  0  0  0
  -13.7577  -23.1095  -12.9071 C   0  0  0  0  0  0
   -6.0349  -16.7992  -10.8265 H   0  0  0  0  0  0
   -5.0709  -16.4840  -13.6150 H   0  0  0  0  0  0
  -10.4112  -18.9796  -10.9393 H   0  0  0  0  0  0
   -8.7713  -18.9453  -12.3699 H   0  0  0  0  0  0
   -7.2495  -18.2325  -13.3132 H   0  0  0  0  0  0
   -2.9080  -16.9446  -12.8207 H   0  0  0  0  0  0
   -3.4781  -15.7308  -11.7658 H   0  0  0  0  0  0
   -9.9392  -21.9532  -10.3411 H   0  0  0  0  0  0
  -11.1162  -20.9026   -9.6208 H   0  0  0  0  0  0
  -10.8291  -16.6077  -10.2147 H   0  0  0  0  0  0
   -6.0527  -21.0176  -13.3346 H   0  0  0  0  0  0
   -7.4692  -20.4625  -14.2016 H   0  0  0  0  0  0
   -5.4731  -12.8726   -9.8502 H   0  0  0  0  0  0
   -5.0101  -14.6102   -9.6832 H   0  0  0  0  0  0
   -5.0635  -12.9955  -13.5852 H   0  0  0  0  0  0
   -5.5527  -11.8932  -12.2311 H   0  0  0  0  0  0
  -12.3941  -16.4325   -7.6573 H   0  0  0  0  0  0
  -13.0506  -16.7803   -9.1859 H   0  0  0  0  0  0
  -13.5825  -14.5396   -8.8214 H   0  0  0  0  0  0
  -12.3283  -14.4639  -10.0355 H   0  0  0  0  0  0
  -11.8128  -20.3608  -12.0209 H   0  0  0  0  0  0
  -12.2661  -12.1366   -9.4591 H   0  0  0  0  0  0
  -11.5733  -11.6484   -7.9542 H   0  0  0  0  0  0
  -11.3664  -13.2941   -6.1188 H   0  0  0  0  0  0
  -11.6251  -14.9711   -6.4117 H   0  0  0  0  0  0
   -2.7543  -12.9968  -12.6867 H   0  0  0  0  0  0
   -3.2760  -11.3438  -12.8802 H   0  0  0  0  0  0
   -2.6875  -13.9376  -10.4028 H   0  0  0  0  0  0
   -3.1926  -12.9063   -9.0789 H   0  0  0  0  0  0
  -13.5832  -14.0623   -5.2131 H   0  0  0  0  0  0
  -14.1148  -14.5174   -6.7926 H   0  0  0  0  0  0
  -13.8694  -10.9671   -7.8820 H   0  0  0  0  0  0
  -14.4889  -12.4742   -8.4810 H   0  0  0  0  0  0
   -1.9403  -18.9307  -12.1528 H   0  0  0  0  0  0
   -4.3659  -16.7068   -9.3499 H   0  0  0  0  0  0
  -10.3582  -22.2131  -13.1700 H   0  0  0  0  0  0
  -11.0144  -23.3562  -12.0634 H   0  0  0  0  0  0
  -12.9750  -22.5250  -10.4207 H   0  0  0  0  0  0
  -13.3638  -20.8168  -10.3852 H   0  0  0  0  0  0
   -3.8006  -18.3733   -7.6211 H   0  0  0  0  0  0
   -1.4759  -20.5771  -10.4145 H   0  0  0  0  0  0
  -12.6689  -22.1023  -14.3271 H   0  0  0  0  0  0
  -12.1384  -23.7562  -14.1795 H   0  0  0  0  0  0
  -14.2240  -20.9984  -12.7123 H   0  0  0  0  0  0
  -15.0691  -22.0423  -11.6112 H   0  0  0  0  0  0
   -2.3872  -20.2948   -8.1369 H   0  0  0  0  0  0
  -14.5479  -23.2630  -13.6412 H   0  0  0  0  0  0
  -13.7226  -24.0071  -12.2872 H   0  0  0  0  0  0
  1  4  1  0  0  0
  1  5  1  0  0  0
  1 11  2  0  0  0
  1 12  2  0  0  0
  2  3  1  0  0  0
  2  8  1  0  0  0
  2 18  1  0  0  0
  2 19  1  0  0  0
  3  7  1  0  0  0
  3 16  2  0  0  0
  4  6  1  0  0  0
  4 50  1  0  0  0
  5 28  1  0  0  0
  5 29  1  0  0  0
  6  9  1  0  0  0
  6 17  1  0  0  0
  6 51  1  0  0  0
  7 10  1  0  0  0
  7 20  1  0  0  0
  7 52  1  0  0  0
  8 21  2  0  0  0
  8 24  1  0  0  0
  9 14  1  0  0  0
  9 22  2  0  0  0
 10 13  1  0  0  0
 10 53  1  0  0  0
 13 27  1  0  0  0
 13 23  2  0  0  0
 14 27  1  0  0  0
 14 54  1  0  0  0
 15 32  1  0  0  0
 15 34  1  0  0  0
 15 35  1  0  0  0
 17 30  1  0  0  0
 17 55  1  0  0  0
 17 56  1  0  0  0
 20 33  1  0  0  0
 20 57  1  0  0  0
 20 58  1  0  0  0
 24 31  1  0  0  0
 24 59  1  0  0  0
 25 36  1  0  0  0
 25 37  1  0  0  0
 26 38  1  0  0  0
 26 39  1  0  0  0
 27 60  1  0  0  0
 27 61  1  0  0  0
 28 37  1  0  0  0
 28 62  1  0  0  0
 28 63  1  0  0  0
 29 36  1  0  0  0
 29 64  1  0  0  0
 29 65  1  0  0  0
 30 40  2  0  0  0
 30 41  1  0  0  0
 31 32  1  0  0  0
 31 66  1  0  0  0
 31 67  1  0  0  0
 32 68  1  0  0  0
 32 69  1  0  0  0
 33 42  1  0  0  0
 33 43  1  0  0  0
 33 70  1  0  0  0
 34 39  1  0  0  0
 34 71  1  0  0  0
 34 72  1  0  0  0
 35 38  1  0  0  0
 35 73  1  0  0  0
 35 74  1  0  0  0
 36 75  1  0  0  0
 36 76  1  0  0  0
 37 77  1  0  0  0
 37 78  1  0  0  0
 38 79  1  0  0  0
 38 80  1  0  0  0
 39 81  1  0  0  0
 39 82  1  0  0  0
 40 45  1  0  0  0
 40 83  1  0  0  0
 41 44  2  0  0  0
 41 84  1  0  0  0
 42 46  1  0  0  0
 42 85  1  0  0  0
 42 86  1  0  0  0
 43 47  1  0  0  0
 43 87  1  0  0  0
 43 88  1  0  0  0
 44 48  1  0  0  0
 44 89  1  0  0  0
 45 48  2  0  0  0
 45 90  1  0  0  0
 46 49  1  0  0  0
 46 91  1  0  0  0
 46 92  1  0  0  0
 47 49  1  0  0  0
 47 93  1  0  0  0
 47 94  1  0  0  0
 48 95  1  0  0  0
 49 96  1  0  0  0
 49 97  1  0  0  0
M  END
> <s_m_entry_id>
26289

> <s_m_entry_name>
dock_pv.113

> <s_m_Source_Path>
/home/csk/Desktop/cluster/DUD-E-result/reni

> <s_m_Source_File>
dock_pv.maegz

> <i_m_Source_File_Index>
113

> <chembl_id>
CHEMBL28702

> <chembl_pref_name>
None

> <i_lp_mmshare_version>
53161

> <r_lp_tautomer_probability>
0.99990000499975

> <s_lp_Force_Field>
OPLS_2005

> <r_lp_Energy>
37.547492

> <b_lp_Chiralities_Consistent>
1

> <s_lp_Variant>
CHEMBL286_lig1329-1

> <s_i_glide_gridfile>
glide-grid_3g6z

> <i_i_glide_lignum>
4330

> <i_i_glide_rotatable_bonds>
20

> <r_i_docking_score>
-7.72577360927376

> <r_i_glide_ligand_efficiency>
-0.157668849168852

> <r_i_glide_ligand_efficiency_sa>
-0.576958519307859

> <r_i_glide_ligand_efficiency_ln>
-1.57932490125561

> <r_i_glide_gscore>
-7.72577360927376

> <r_i_glide_lipo>
-3.20749254511185

> <r_i_glide_hbond>
-0.36504103528827

> <r_i_glide_metal>
0

> <r_i_glide_rewards>
-0.723691815143891

> <r_i_glide_evdw>
-46.7565002441406

> <r_i_glide_ecoul>
-9.34196186065674

> <r_i_glide_erotb>
0.492293304992927

> <r_i_glide_esite>
-0.182722227417136

> <r_i_glide_emodel>
-72.1662996707485

> <r_i_glide_energy>
-56.0984621047974

> <r_i_glide_einternal>
19.1924743652344

> <i_i_glide_confnum>
11

> <i_i_glide_posenum>
4

> <r_i_glide_eff_state_penalty>
0

> <s_user_duplicate_titles>
CHEMBL286_lig1329

> <i_f3d_flags>
0

> <s_m_subgroup_title>
dock_pv

> <s_m_subgroupid>
dock_pv

> <b_m_subgroup_collapsed>
1

$$$$
CHEMBL286_lig428
                    3D
 Schrodinger Suite 2021-1.
 95 98  0  0  1  0            999 V2000
  -10.7611  -21.2211  -10.9710 O   0  0  0  0  0  0
  -12.0746  -21.4593  -11.2210 C   0  0  0  0  0  0
   -9.9237  -22.3025  -11.3958 C   0  0  2  0  0  0
   -5.8324  -19.9014  -11.9335 C   0  0  0  0  0  0
   -6.5156  -17.5159   -9.8691 C   0  0  0  0  0  0
   -9.6443  -15.8092   -8.8211 C   0  0  0  0  0  0
   -6.1742  -21.0249  -11.2680 N   0  0  0  0  0  0
   -7.4550  -21.5731  -10.7778 C   0  0  2  0  0  0
   -7.2685  -18.1346  -10.7991 N   0  0  0  0  0  0
   -6.7726  -18.6694  -12.0726 C   0  0  1  0  0  0
   -8.5428  -21.7674  -11.8871 C   0  0  1  0  0  0
   -8.6565  -16.7842   -8.7250 N   0  0  0  0  0  0
   -7.8690  -14.2222  -12.3104 N   0  0  0  0  0  0
   -7.2404  -16.4457   -9.0121 C   0  0  1  0  0  0
   -6.6689  -16.1025  -12.7278 C   0  0  0  0  0  0
  -10.8053  -22.9889  -12.4437 C   0  0  0  0  0  0
   -6.1084  -17.5073  -12.8909 C   0  0  0  0  0  0
   -5.8691  -14.9805  -12.8209 N   0  0  0  0  0  0
  -12.2178  -22.8069  -11.9243 C   0  0  2  0  0  0
   -6.6127  -13.9099  -12.5629 C   0  0  0  0  0  0
  -10.8268  -16.2984   -8.3380 O   0  0  0  0  0  0
   -7.9195  -15.6141  -12.4210 C   0  0  0  0  0  0
  -12.9497  -20.6312  -10.9737 O   0  0  0  0  0  0
   -7.9023  -21.0994   -9.3584 C   0  0  0  0  0  0
   -9.4689  -14.6599   -9.2191 O   0  0  0  0  0  0
   -4.7241  -19.8485  -12.4655 O   0  0  0  0  0  0
   -5.2991  -17.6733   -9.7611 O   0  0  0  0  0  0
   -6.4823  -16.0610   -7.7029 C   0  0  0  0  0  0
  -12.0060  -15.4980   -8.0825 C   0  0  0  0  0  0
   -7.9908  -22.6879  -12.8209 O   0  0  0  0  0  0
   -5.7587  -14.7232   -7.7534 C   0  0  0  0  0  0
   -7.2218  -21.7829   -8.1359 C   0  0  0  0  0  0
  -13.3295  -22.8037  -12.9927 C   0  0  0  0  0  0
  -12.5015  -14.7805   -9.3479 C   0  0  0  0  0  0
  -11.7910  -14.4655   -6.9536 C   0  0  0  0  0  0
  -13.0981  -16.4739   -7.6246 C   0  0  0  0  0  0
   -6.4524  -13.5232   -7.5060 C   0  0  0  0  0  0
   -4.4252  -14.6556   -8.2064 C   0  0  0  0  0  0
   -7.4930  -23.3071   -8.0341 C   0  0  0  0  0  0
   -5.6964  -21.5354   -8.0697 C   0  0  0  0  0  0
   -3.7911  -13.4255   -8.3223 C   0  0  0  0  0  0
   -5.8032  -12.3022   -7.6195 C   0  0  0  0  0  0
   -5.0903  -22.0912   -6.7630 C   0  0  0  0  0  0
   -6.9198  -23.8960   -6.7316 C   0  0  0  0  0  0
   -5.4136  -23.5888   -6.5792 C   0  0  0  0  0  0
   -4.4754  -12.2549   -8.0177 C   0  0  0  0  0  0
  -12.4375  -23.5584  -11.1657 H   0  0  0  0  0  0
   -9.7608  -22.9885  -10.5629 H   0  0  0  0  0  0
   -5.4233  -21.6975  -11.2315 H   0  0  0  0  0  0
   -7.1545  -22.6018  -10.5925 H   0  0  0  0  0  0
   -8.2628  -17.9626  -10.7795 H   0  0  0  0  0  0
   -7.6504  -18.9689  -12.6393 H   0  0  0  0  0  0
   -8.6988  -20.8275  -12.4112 H   0  0  0  0  0  0
   -8.8882  -17.6802   -8.3256 H   0  0  0  0  0  0
   -4.8881  -14.9606  -13.1020 H   0  0  0  0  0  0
   -7.2084  -15.5775   -9.6743 H   0  0  0  0  0  0
  -10.6725  -22.5004  -13.4089 H   0  0  0  0  0  0
  -10.5128  -24.0242  -12.6227 H   0  0  0  0  0  0
   -5.0505  -17.4275  -12.6343 H   0  0  0  0  0  0
   -6.1360  -17.7565  -13.9521 H   0  0  0  0  0  0
   -6.2373  -12.8969  -12.5723 H   0  0  0  0  0  0
   -8.8414  -16.1539  -12.2626 H   0  0  0  0  0  0
   -7.7843  -20.0276   -9.2585 H   0  0  0  0  0  0
   -8.9706  -21.2480   -9.2230 H   0  0  0  0  0  0
   -5.7099  -16.7864   -7.4668 H   0  0  0  0  0  0
   -7.1441  -16.0626   -6.8350 H   0  0  0  0  0  0
   -8.2690  -22.4633  -13.7299 H   0  0  0  0  0  0
   -7.6613  -21.3466   -7.2377 H   0  0  0  0  0  0
  -14.3143  -22.8576  -12.5284 H   0  0  0  0  0  0
  -13.3146  -21.9140  -13.6190 H   0  0  0  0  0  0
  -13.2336  -23.6637  -13.6527 H   0  0  0  0  0  0
  -12.5852  -15.4602  -10.1950 H   0  0  0  0  0  0
  -13.4690  -14.3174   -9.1744 H   0  0  0  0  0  0
  -11.8294  -13.9788   -9.6204 H   0  0  0  0  0  0
  -11.4693  -14.9471   -6.0305 H   0  0  0  0  0  0
  -11.0475  -13.7153   -7.2215 H   0  0  0  0  0  0
  -12.7114  -13.9261   -6.7244 H   0  0  0  0  0  0
  -12.8322  -16.9354   -6.6771 H   0  0  0  0  0  0
  -14.0575  -15.9750   -7.4780 H   0  0  0  0  0  0
  -13.2555  -17.2611   -8.3596 H   0  0  0  0  0  0
   -7.4908  -13.5497   -7.2211 H   0  0  0  0  0  0
   -3.8914  -15.5609   -8.4569 H   0  0  0  0  0  0
   -8.5677  -23.4872   -8.0697 H   0  0  0  0  0  0
   -7.0915  -23.8491   -8.8883 H   0  0  0  0  0  0
   -5.1992  -21.9655   -8.9368 H   0  0  0  0  0  0
   -5.4973  -20.4646   -8.1393 H   0  0  0  0  0  0
   -2.7655  -13.3796   -8.6555 H   0  0  0  0  0  0
   -6.3369  -11.3871   -7.4120 H   0  0  0  0  0  0
   -5.4699  -21.5313   -5.9081 H   0  0  0  0  0  0
   -4.0101  -21.9409   -6.7636 H   0  0  0  0  0  0
   -7.4690  -23.4949   -5.8821 H   0  0  0  0  0  0
   -7.0829  -24.9723   -6.7069 H   0  0  0  0  0  0
   -5.0601  -23.9286   -5.6049 H   0  0  0  0  0  0
   -4.8571  -24.1660   -7.3193 H   0  0  0  0  0  0
   -3.9753  -11.3000   -8.1141 H   0  0  0  0  0  0
  1  2  1  0  0  0
  1  3  1  0  0  0
  2 19  1  0  0  0
  2 23  2  0  0  0
  3 11  1  0  0  0
  3 16  1  0  0  0
  3 48  1  0  0  0
  4  7  1  0  0  0
  4 10  1  0  0  0
  4 26  2  0  0  0
  5  9  1  0  0  0
  5 14  1  0  0  0
  5 27  2  0  0  0
  6 12  1  0  0  0
  6 21  1  0  0  0
  6 25  2  0  0  0
  7  8  1  0  0  0
  7 49  1  0  0  0
  8 11  1  0  0  0
  8 24  1  0  0  0
  8 50  1  0  0  0
  9 10  1  0  0  0
  9 51  1  0  0  0
 10 17  1  0  0  0
 10 52  1  0  0  0
 11 30  1  0  0  0
 11 53  1  0  0  0
 12 14  1  0  0  0
 12 54  1  0  0  0
 13 20  2  0  0  0
 13 22  1  0  0  0
 14 28  1  0  0  0
 14 56  1  0  0  0
 15 22  2  0  0  0
 15 17  1  0  0  0
 15 18  1  0  0  0
 16 19  1  0  0  0
 16 57  1  0  0  0
 16 58  1  0  0  0
 17 59  1  0  0  0
 17 60  1  0  0  0
 18 55  1  0  0  0
 18 20  1  0  0  0
 19 33  1  0  0  0
 19 47  1  0  0  0
 20 61  1  0  0  0
 21 29  1  0  0  0
 22 62  1  0  0  0
 24 32  1  0  0  0
 24 63  1  0  0  0
 24 64  1  0  0  0
 28 31  1  0  0  0
 28 65  1  0  0  0
 28 66  1  0  0  0
 29 34  1  0  0  0
 29 35  1  0  0  0
 29 36  1  0  0  0
 30 67  1  0  0  0
 31 37  1  0  0  0
 31 38  2  0  0  0
 32 39  1  0  0  0
 32 40  1  0  0  0
 32 68  1  0  0  0
 33 69  1  0  0  0
 33 70  1  0  0  0
 33 71  1  0  0  0
 34 72  1  0  0  0
 34 73  1  0  0  0
 34 74  1  0  0  0
 35 75  1  0  0  0
 35 76  1  0  0  0
 35 77  1  0  0  0
 36 78  1  0  0  0
 36 79  1  0  0  0
 36 80  1  0  0  0
 37 42  2  0  0  0
 37 81  1  0  0  0
 38 41  1  0  0  0
 38 82  1  0  0  0
 39 44  1  0  0  0
 39 83  1  0  0  0
 39 84  1  0  0  0
 40 43  1  0  0  0
 40 85  1  0  0  0
 40 86  1  0  0  0
 41 46  2  0  0  0
 41 87  1  0  0  0
 42 46  1  0  0  0
 42 88  1  0  0  0
 43 45  1  0  0  0
 43 89  1  0  0  0
 43 90  1  0  0  0
 44 45  1  0  0  0
 44 91  1  0  0  0
 44 92  1  0  0  0
 45 93  1  0  0  0
 45 94  1  0  0  0
 46 95  1  0  0  0
M  END
> <s_m_entry_id>
26290

> <s_m_entry_name>
dock_pv.114

> <s_m_Source_Path>
/home/csk/Desktop/cluster/DUD-E-result/reni

> <s_m_Source_File>
dock_pv.maegz

> <i_m_Source_File_Index>
114

> <chembl_id>
CHEMBL287953

> <chembl_pref_name>
None

> <i_lp_mmshare_version>
53161

> <r_lp_tautomer_probability>
0.499999999999999

> <s_lp_Force_Field>
OPLS_2005

> <r_lp_Energy>
32.531535

> <b_lp_Chiralities_Consistent>
1

> <s_lp_Variant>
CHEMBL286_lig428-2

> <s_i_glide_gridfile>
glide-grid_3g6z

> <i_i_glide_lignum>
788

> <i_i_glide_rotatable_bonds>
19

> <r_i_docking_score>
-7.72539471492572

> <r_i_glide_ligand_efficiency>
-0.16794336336795

> <r_i_glide_ligand_efficiency_sa>
-0.601749109798832

> <r_i_glide_ligand_efficiency_ln>
-1.59991063336011

> <r_i_glide_gscore>
-7.72539471492572

> <r_i_glide_lipo>
-3.9394697178605

> <r_i_glide_hbond>
-0.693372322875292

> <r_i_glide_metal>
0

> <r_i_glide_rewards>
1.03767878742639

> <r_i_glide_evdw>
-45.9650802612305

> <r_i_glide_ecoul>
-15.8610925674438

> <r_i_glide_erotb>
0.579985364893639

> <r_i_glide_esite>
-0.0327989283318533

> <r_i_glide_emodel>
-55.0949210398532

> <r_i_glide_energy>
-61.8261728286743

> <r_i_glide_einternal>
45.8177146911621

> <i_i_glide_confnum>
25

> <i_i_glide_posenum>
145

> <r_i_glide_eff_state_penalty>
0

> <s_user_duplicate_titles>
CHEMBL286_lig428

> <i_f3d_flags>
0

> <s_m_subgroup_title>
dock_pv

> <s_m_subgroupid>
dock_pv

> <b_m_subgroup_collapsed>
1

$$$$
CHEMBL286_lig1575
                    3D
 Schrodinger Suite 2021-1.
 70 73  0  0  1  0            999 V2000
  -10.2968  -19.6270  -11.0832 N   0  0  0  0  0  0
  -11.1105  -20.7314  -11.0706 C   0  0  0  0  0  0
   -8.9071  -19.7512  -10.8381 C   0  0  0  0  0  0
  -10.7447  -18.2454  -11.4237 C   0  0  1  0  0  0
  -12.9634  -19.2630  -12.0210 N   0  0  1  0  0  0
   -4.0563  -13.2463   -8.0063 C   0  0  0  0  0  0
  -10.6988  -21.8672  -10.8209 O   0  0  0  0  0  0
   -3.3847  -12.6661   -9.0988 C   0  0  0  0  0  0
   -8.4488  -20.2038   -9.5940 C   0  0  0  0  0  0
   -7.9886  -19.3154  -11.8004 C   0  0  0  0  0  0
  -12.6286  -20.5189  -11.3499 C   0  0  0  0  0  0
  -13.1544  -13.4169   -7.8268 C   0  0  0  0  0  0
  -12.2703  -18.1049  -11.4911 C   0  0  0  0  0  0
   -6.1700  -19.7059  -10.2451 C   0  0  0  0  0  0
  -10.4823  -17.4593   -9.1646 O   0  0  0  0  0  0
   -7.0851  -20.1905   -9.3094 C   0  0  0  0  0  0
   -6.6292  -19.2929  -11.5059 C   0  0  0  0  0  0
  -11.2207  -15.3902   -8.1384 C   0  0  0  0  0  0
  -14.0964  -12.4587   -7.6723 F   0  0  0  0  0  0
  -13.4688  -14.7478   -7.5537 C   0  0  0  0  0  0
  -11.8811  -13.0675   -8.2649 C   0  0  0  0  0  0
  -12.5051  -15.7375   -7.7155 C   0  0  0  0  0  0
  -10.9119  -14.0566   -8.4214 C   0  0  0  0  0  0
   -2.7793  -13.5066  -10.0168 O   0  0  0  0  0  0
  -10.2107  -17.1167  -10.5142 C   0  0  0  0  0  0
   -4.2319  -17.3311  -10.4556 C   0  0  0  0  0  0
   -4.8453  -19.6619   -9.8546 O   0  0  0  0  0  0
   -4.0908  -14.7591   -7.8140 C   0  0  0  0  0  0
   -4.4196  -15.4070   -9.0373 O   0  0  0  0  0  0
   -4.6800  -12.4293   -7.0549 C   0  0  0  0  0  0
  -10.1404  -16.4628   -8.2188 C   0  0  0  0  0  0
   -3.9175  -18.8384  -10.5674 C   0  0  0  0  0  0
   -4.2241  -16.8117   -9.0105 C   0  0  0  0  0  0
   -3.3395  -11.2649   -9.1987 C   0  0  0  0  0  0
   -2.2741  -12.9674  -11.2326 C   0  0  0  0  0  0
   -4.6092  -11.0441   -7.1575 C   0  0  0  0  0  0
   -3.9347  -10.4636   -8.2267 C   0  0  0  0  0  0
  -10.3544  -18.0514  -12.4221 H   0  0  0  0  0  0
  -12.7727  -19.2876  -13.0179 H   0  0  0  0  0  0
   -9.1489  -20.5264   -8.8363 H   0  0  0  0  0  0
   -8.3168  -18.9562  -12.7654 H   0  0  0  0  0  0
  -12.9712  -21.3487  -11.9699 H   0  0  0  0  0  0
  -13.1789  -20.6046  -10.4210 H   0  0  0  0  0  0
  -12.5128  -17.2494  -12.1206 H   0  0  0  0  0  0
  -12.6607  -17.9113  -10.4893 H   0  0  0  0  0  0
   -6.7350  -20.5219   -8.3423 H   0  0  0  0  0  0
   -5.9481  -18.9254  -12.2574 H   0  0  0  0  0  0
  -14.4611  -15.0136   -7.2218 H   0  0  0  0  0  0
  -11.6456  -12.0339   -8.4758 H   0  0  0  0  0  0
  -12.7513  -16.7676   -7.4948 H   0  0  0  0  0  0
   -9.9192  -13.7803   -8.7481 H   0  0  0  0  0  0
   -9.1357  -16.9898  -10.6534 H   0  0  0  0  0  0
  -10.6760  -16.1678  -10.7821 H   0  0  0  0  0  0
   -5.1914  -17.1012  -10.9190 H   0  0  0  0  0  0
   -3.4882  -16.7758  -11.0295 H   0  0  0  0  0  0
   -3.0974  -15.0602   -7.4727 H   0  0  0  0  0  0
   -4.8090  -15.0435   -7.0424 H   0  0  0  0  0  0
   -5.2003  -12.8628   -6.2154 H   0  0  0  0  0  0
  -10.0746  -16.9369   -7.2382 H   0  0  0  0  0  0
   -9.1540  -16.0403   -8.4209 H   0  0  0  0  0  0
   -3.8521  -19.1475  -11.6118 H   0  0  0  0  0  0
   -2.9279  -19.0291  -10.1512 H   0  0  0  0  0  0
   -3.2716  -17.0695   -8.5420 H   0  0  0  0  0  0
   -5.0229  -17.2631   -8.4254 H   0  0  0  0  0  0
   -2.8316  -10.7769  -10.0155 H   0  0  0  0  0  0
   -1.8710  -13.7741  -11.8456 H   0  0  0  0  0  0
   -3.0590  -12.4765  -11.8097 H   0  0  0  0  0  0
   -1.4691  -12.2538  -11.0503 H   0  0  0  0  0  0
   -5.0682  -10.4210   -6.4027 H   0  0  0  0  0  0
   -3.8691   -9.3892   -8.3068 H   0  0  0  0  0  0
  1  2  1  0  0  0
  1  3  1  0  0  0
  1  4  1  0  0  0
  2  7  2  0  0  0
  2 11  1  0  0  0
  3  9  1  0  0  0
  3 10  2  0  0  0
  4 13  1  0  0  0
  4 25  1  0  0  0
  4 38  1  0  0  0
  5 13  1  0  0  0
  5 11  1  0  0  0
  5 39  1  0  0  0
  6 28  1  0  0  0
  6  8  2  0  0  0
  6 30  1  0  0  0
  8 24  1  0  0  0
  8 34  1  0  0  0
  9 16  2  0  0  0
  9 40  1  0  0  0
 10 17  1  0  0  0
 10 41  1  0  0  0
 11 42  1  0  0  0
 11 43  1  0  0  0
 12 21  1  0  0  0
 12 19  1  0  0  0
 12 20  2  0  0  0
 13 44  1  0  0  0
 13 45  1  0  0  0
 14 17  2  0  0  0
 14 27  1  0  0  0
 14 16  1  0  0  0
 15 25  1  0  0  0
 15 31  1  0  0  0
 16 46  1  0  0  0
 17 47  1  0  0  0
 18 31  1  0  0  0
 18 22  2  0  0  0
 18 23  1  0  0  0
 20 22  1  0  0  0
 20 48  1  0  0  0
 21 23  2  0  0  0
 21 49  1  0  0  0
 22 50  1  0  0  0
 23 51  1  0  0  0
 24 35  1  0  0  0
 25 52  1  0  0  0
 25 53  1  0  0  0
 26 32  1  0  0  0
 26 33  1  0  0  0
 26 54  1  0  0  0
 26 55  1  0  0  0
 27 32  1  0  0  0
 28 29  1  0  0  0
 28 56  1  0  0  0
 28 57  1  0  0  0
 29 33  1  0  0  0
 30 36  2  0  0  0
 30 58  1  0  0  0
 31 59  1  0  0  0
 31 60  1  0  0  0
 32 61  1  0  0  0
 32 62  1  0  0  0
 33 63  1  0  0  0
 33 64  1  0  0  0
 34 37  2  0  0  0
 34 65  1  0  0  0
 35 66  1  0  0  0
 35 67  1  0  0  0
 35 68  1  0  0  0
 36 37  1  0  0  0
 36 69  1  0  0  0
 37 70  1  0  0  0
M  END
> <s_m_entry_id>
26291

> <s_m_entry_name>
dock_pv.115

> <s_m_Source_Path>
/home/csk/Desktop/cluster/DUD-E-result/reni

> <s_m_Source_File>
dock_pv.maegz

> <i_m_Source_File_Index>
115

> <chembl_id>
CHEMBL196547

> <chembl_pref_name>
None

> <i_lp_mmshare_version>
53161

> <r_lp_tautomer_probability>
1

> <s_lp_Force_Field>
OPLS_2005

> <r_lp_Energy>
53.972655

> <b_lp_Chiralities_Consistent>
1

> <s_lp_Variant>
CHEMBL286_lig1575-1

> <s_i_glide_gridfile>
glide-grid_3g6z

> <i_i_glide_lignum>
5279

> <i_i_glide_rotatable_bonds>
13

> <r_i_docking_score>
-7.72239180683439

> <r_i_glide_ligand_efficiency>
-0.208713292076605

> <r_i_glide_ligand_efficiency_sa>
-0.695478991749522

> <r_i_glide_ligand_efficiency_ln>
-1.6748057443525

> <r_i_glide_gscore>
-7.72239180683439

> <r_i_glide_lipo>
-3.88819638798524

> <r_i_glide_hbond>
-0.408342238694163

> <r_i_glide_metal>
0

> <r_i_glide_rewards>
-1.31970483504028

> <r_i_glide_evdw>
-40.0176887512207

> <r_i_glide_ecoul>
-6.48356819152832

> <r_i_glide_erotb>
0.870723078990894

> <r_i_glide_esite>
-0.00345175781531834

> <r_i_glide_emodel>
-66.9106403188264

> <r_i_glide_energy>
-46.501256942749

> <r_i_glide_einternal>
4.0950174331665

> <i_i_glide_confnum>
52

> <i_i_glide_posenum>
327

> <r_i_glide_eff_state_penalty>
0

> <s_user_duplicate_titles>
CHEMBL286_lig1575

> <i_f3d_flags>
0

> <s_m_subgroup_title>
dock_pv

> <s_m_subgroupid>
dock_pv

> <b_m_subgroup_collapsed>
1

$$$$
CHEMBL286_lig940
                    3D
 Schrodinger Suite 2021-1.
101104  0  0  1  0            999 V2000
   -3.6149  -13.7282  -10.1612 N   0  0  0  0  0  0
   -3.1321  -14.9923  -10.4073 C   0  0  0  0  0  0
   -3.0910  -12.9145   -9.2162 C   0  0  0  0  0  0
   -1.6079  -15.3429  -10.5550 C   0  0  1  0  0  0
   -6.1610  -13.6818  -10.8172 C   0  0  0  0  0  0
  -10.2160  -15.4663   -9.2192 C   0  0  0  0  0  0
   -0.5850  -14.3383  -10.2080 N   0  0  0  0  0  0
   -4.7138  -13.1037  -10.9591 C   0  0  2  0  0  0
   -6.3944  -14.6154   -9.8774 N   0  0  0  0  0  0
  -11.8288  -17.0149   -9.4237 N   0  0  0  0  0  0
  -10.6397  -16.5513   -9.9232 C   0  0  0  0  0  0
   -7.5836  -15.4716   -9.7083 C   0  0  2  0  0  0
   -7.7311  -16.4166  -10.9046 C   0  0  0  0  0  0
   -3.1969  -13.2756   -7.7065 C   0  0  0  0  0  0
   -0.1231  -13.9323   -9.0082 C   0  0  0  0  0  0
  -11.3652  -15.1277   -8.3694 C   0  0  0  0  0  0
   -8.8994  -14.7024   -9.3592 C   0  0  0  0  0  0
   -7.6720  -17.7277  -10.6197 N   0  0  0  0  0  0
  -12.3121  -16.1928   -8.4465 C   0  0  0  0  0  0
   -3.9090  -15.9308  -10.5871 O   0  0  0  0  0  0
   -2.5517  -11.8489   -9.5330 O   0  0  0  0  0  0
   -1.2188  -16.7486   -9.9828 C   0  0  0  0  0  0
   -7.0419  -13.2632  -11.5662 O   0  0  0  0  0  0
   -7.9996  -15.9607  -12.0144 O   0  0  0  0  0  0
    0.8137  -13.1401   -8.9405 O   0  0  0  0  0  0
   -1.7705  -13.3886   -7.0703 C   0  0  0  0  0  0
   -0.7821  -14.4105   -7.6996 C   0  0  0  0  0  0
   -7.8645  -18.7844  -11.6114 C   0  0  0  0  0  0
   -0.8428  -17.8123  -10.9957 C   0  0  0  0  0  0
   -3.5794  -10.8632  -16.8182 N   0  0  0  0  0  0
   -4.2510  -13.0733  -12.4197 C   0  0  0  0  0  0
   -4.0088  -12.1374   -7.0321 C   0  0  0  0  0  0
   -3.9809  -14.5976   -7.4620 C   0  0  0  0  0  0
  -11.7045  -14.0520   -7.5120 C   0  0  0  0  0  0
  -13.4627  -16.2523   -7.6510 C   0  0  0  0  0  0
   -6.5429  -19.2518  -12.2480 C   0  0  1  0  0  0
   -4.3990  -10.6818  -15.6316 C   0  0  0  0  0  0
   -1.8262  -18.6794  -11.5151 C   0  0  0  0  0  0
    0.4742  -17.8821  -11.4968 C   0  0  0  0  0  0
   -4.7383  -11.8881  -13.2407 C   0  0  0  0  0  0
   -5.8041  -18.0788  -12.9333 C   0  0  0  0  0  0
   -4.0924  -11.8653  -14.6542 C   0  0  0  0  0  0
   -5.6420  -19.9975  -11.2395 C   0  0  0  0  0  0
  -12.9009  -14.0635   -6.7620 C   0  0  0  0  0  0
   -4.8596  -18.5305  -14.0209 C   0  0  0  0  0  0
  -13.7671  -15.1740   -6.8234 C   0  0  0  0  0  0
   -1.4637  -19.6674  -12.4213 C   0  0  0  0  0  0
    0.8133  -18.8695  -12.4135 C   0  0  0  0  0  0
   -0.1461  -19.7713  -12.8515 C   0  0  0  0  0  0
   -1.4976  -15.4007  -11.6389 H   0  0  0  0  0  0
   -0.1699  -13.8768  -11.0128 H   0  0  0  0  0  0
   -4.8124  -12.0589  -10.6679 H   0  0  0  0  0  0
   -5.5866  -14.9426   -9.3677 H   0  0  0  0  0  0
  -12.2939  -17.8354   -9.7808 H   0  0  0  0  0  0
  -10.1436  -17.0328  -10.7459 H   0  0  0  0  0  0
   -7.3570  -16.0945   -8.8414 H   0  0  0  0  0  0
   -8.7250  -14.2058   -8.4111 H   0  0  0  0  0  0
   -9.0600  -13.8625  -10.0210 H   0  0  0  0  0  0
   -7.4953  -18.0181   -9.6709 H   0  0  0  0  0  0
   -2.0152  -17.1595   -9.3594 H   0  0  0  0  0  0
   -0.3576  -16.6896   -9.3167 H   0  0  0  0  0  0
   -1.8784  -13.6641   -6.0212 H   0  0  0  0  0  0
   -1.2982  -12.4035   -7.0410 H   0  0  0  0  0  0
   -1.2541  -15.3835   -7.7862 H   0  0  0  0  0  0
    0.0399  -14.5665   -6.9995 H   0  0  0  0  0  0
   -8.5485  -18.4616  -12.4048 H   0  0  0  0  0  0
   -8.3618  -19.6236  -11.1252 H   0  0  0  0  0  0
   -3.5033  -11.8520  -17.0242 H   0  0  0  0  0  0
   -4.0539  -10.4659  -17.6205 H   0  0  0  0  0  0
   -4.6690  -13.9892  -12.8209 H   0  0  0  0  0  0
   -3.1635  -13.1297  -12.4951 H   0  0  0  0  0  0
   -4.3062  -12.3961   -6.0211 H   0  0  0  0  0  0
   -3.4442  -11.2043   -6.9752 H   0  0  0  0  0  0
   -4.9350  -11.9175   -7.5667 H   0  0  0  0  0  0
   -3.5088  -15.4869   -7.8724 H   0  0  0  0  0  0
   -4.0771  -14.8157   -6.4208 H   0  0  0  0  0  0
   -5.0029  -14.5446   -7.8209 H   0  0  0  0  0  0
  -11.0307  -13.2120   -7.4251 H   0  0  0  0  0  0
  -14.1302  -17.0981   -7.7063 H   0  0  0  0  0  0
   -6.8241  -19.9723  -13.0204 H   0  0  0  0  0  0
   -5.3941  -10.4630  -16.0124 H   0  0  0  0  0  0
   -4.2790   -9.7300  -15.1412 H   0  0  0  0  0  0
   -2.8528  -18.6002  -11.1883 H   0  0  0  0  0  0
    1.2290  -17.1946  -11.1461 H   0  0  0  0  0  0
   -4.5330  -10.9506  -12.7255 H   0  0  0  0  0  0
   -5.8117  -12.0628  -13.2211 H   0  0  0  0  0  0
   -5.2658  -17.4800  -12.1994 H   0  0  0  0  0  0
   -6.5185  -17.4065  -13.4073 H   0  0  0  0  0  0
   -3.0137  -11.8525  -14.4876 H   0  0  0  0  0  0
   -4.2687  -12.8300  -15.1363 H   0  0  0  0  0  0
   -5.3116  -19.3382  -10.4351 H   0  0  0  0  0  0
   -6.1707  -20.8351  -10.7833 H   0  0  0  0  0  0
   -4.7504  -20.4037  -11.7162 H   0  0  0  0  0  0
  -13.1346  -13.2353   -6.1096 H   0  0  0  0  0  0
   -4.3140  -17.6852  -14.4360 H   0  0  0  0  0  0
   -4.1357  -19.2408  -13.6214 H   0  0  0  0  0  0
   -5.4678  -18.9811  -14.8114 H   0  0  0  0  0  0
  -14.6612  -15.2630   -6.2237 H   0  0  0  0  0  0
   -2.2041  -20.3590  -12.7949 H   0  0  0  0  0  0
    1.8284  -18.9484  -12.7766 H   0  0  0  0  0  0
    0.1288  -20.5444  -13.5566 H   0  0  0  0  0  0
  1  2  1  0  0  0
  1  3  1  0  0  0
  1  8  1  0  0  0
  2  4  1  0  0  0
  2 20  2  0  0  0
  3 14  1  0  0  0
  3 21  2  0  0  0
  4  7  1  0  0  0
  4 22  1  0  0  0
  4 50  1  0  0  0
  5  8  1  0  0  0
  5  9  1  0  0  0
  5 23  2  0  0  0
  6 17  1  0  0  0
  6 11  2  0  0  0
  6 16  1  0  0  0
  7 15  1  0  0  0
  7 51  1  0  0  0
  8 31  1  0  0  0
  8 52  1  0  0  0
  9 12  1  0  0  0
  9 53  1  0  0  0
 10 11  1  0  0  0
 10 19  1  0  0  0
 10 54  1  0  0  0
 11 55  1  0  0  0
 12 13  1  0  0  0
 12 17  1  0  0  0
 12 56  1  0  0  0
 13 18  1  0  0  0
 13 24  2  0  0  0
 14 26  1  0  0  0
 14 32  1  0  0  0
 14 33  1  0  0  0
 15 25  2  0  0  0
 15 27  1  0  0  0
 16 19  2  0  0  0
 16 34  1  0  0  0
 17 57  1  0  0  0
 17 58  1  0  0  0
 18 28  1  0  0  0
 18 59  1  0  0  0
 19 35  1  0  0  0
 22 29  1  0  0  0
 22 60  1  0  0  0
 22 61  1  0  0  0
 26 27  1  0  0  0
 26 62  1  0  0  0
 26 63  1  0  0  0
 27 64  1  0  0  0
 27 65  1  0  0  0
 28 36  1  0  0  0
 28 66  1  0  0  0
 28 67  1  0  0  0
 29 38  2  0  0  0
 29 39  1  0  0  0
 30 37  1  0  0  0
 30 68  1  0  0  0
 30 69  1  0  0  0
 31 40  1  0  0  0
 31 70  1  0  0  0
 31 71  1  0  0  0
 32 72  1  0  0  0
 32 73  1  0  0  0
 32 74  1  0  0  0
 33 75  1  0  0  0
 33 76  1  0  0  0
 33 77  1  0  0  0
 34 44  2  0  0  0
 34 78  1  0  0  0
 35 46  2  0  0  0
 35 79  1  0  0  0
 36 41  1  0  0  0
 36 43  1  0  0  0
 36 80  1  0  0  0
 37 42  1  0  0  0
 37 81  1  0  0  0
 37 82  1  0  0  0
 38 47  1  0  0  0
 38 83  1  0  0  0
 39 48  2  0  0  0
 39 84  1  0  0  0
 40 42  1  0  0  0
 40 85  1  0  0  0
 40 86  1  0  0  0
 41 45  1  0  0  0
 41 87  1  0  0  0
 41 88  1  0  0  0
 42 89  1  0  0  0
 42 90  1  0  0  0
 43 91  1  0  0  0
 43 92  1  0  0  0
 43 93  1  0  0  0
 44 46  1  0  0  0
 44 94  1  0  0  0
 45 95  1  0  0  0
 45 96  1  0  0  0
 45 97  1  0  0  0
 46 98  1  0  0  0
 47 49  2  0  0  0
 47 99  1  0  0  0
 48 49  1  0  0  0
 48100  1  0  0  0
 49101  1  0  0  0
M  END
> <s_m_entry_id>
26292

> <s_m_entry_name>
dock_pv.116

> <s_m_Source_Path>
/home/csk/Desktop/cluster/DUD-E-result/reni

> <s_m_Source_File>
dock_pv.maegz

> <i_m_Source_File_Index>
116

> <chembl_id>
CHEMBL433155

> <chembl_pref_name>
None

> <i_lp_mmshare_version>
53161

> <r_lp_tautomer_probability>
0.99995

> <s_lp_Force_Field>
OPLS_2005

> <r_lp_Energy>
66.087853

> <b_lp_Chiralities_Consistent>
1

> <s_lp_Variant>
CHEMBL286_lig940-2

> <s_i_glide_gridfile>
glide-grid_3g6z

> <i_i_glide_lignum>
2540

> <i_i_glide_rotatable_bonds>
17

> <r_i_docking_score>
-7.70754868716015

> <r_i_glide_ligand_efficiency>
-0.15729691198286

> <r_i_glide_ligand_efficiency_sa>
-0.575597487441154

> <r_i_glide_ligand_efficiency_ln>
-1.57559931016621

> <r_i_glide_gscore>
-7.70754868716015

> <r_i_glide_lipo>
-3.78772664091831

> <r_i_glide_hbond>
-0.608

> <r_i_glide_metal>
0

> <r_i_glide_rewards>
-0.867929142740009

> <r_i_glide_evdw>
-38.1191062927246

> <r_i_glide_ecoul>
-6.59459781646729

> <r_i_glide_erotb>
0.496710401031856

> <r_i_glide_esite>
-0.0454583174273701

> <r_i_glide_emodel>
-38.8312960879611

> <r_i_glide_energy>
-44.7137041091919

> <r_i_glide_einternal>
13.8188552856445

> <i_i_glide_confnum>
24

> <i_i_glide_posenum>
63

> <r_i_glide_eff_state_penalty>
0

> <s_user_duplicate_titles>
CHEMBL286_lig940

> <i_f3d_flags>
0

> <s_m_subgroup_title>
dock_pv

> <s_m_subgroupid>
dock_pv

> <b_m_subgroup_collapsed>
1

$$$$
CHEMBL286_lig1330
                    3D
 Schrodinger Suite 2021-1.
 69 73  0  0  1  0            999 V2000
   -7.4337  -16.8684  -10.5532 C   0  0  2  0  0  0
   -7.0154  -15.7402   -9.5975 C   0  0  0  0  0  0
   -2.1416  -10.8634   -8.1617 C   0  0  0  0  0  0
   -8.0781  -19.6268  -11.3947 N   0  0  2  0  0  0
  -11.6188  -13.4071   -7.9693 C   0  0  0  0  0  0
   -9.7582  -16.6358   -9.8734 O   0  0  0  0  0  0
   -8.7206  -17.5946  -10.0926 C   0  0  1  0  0  0
  -10.9390  -14.5541   -8.4225 C   0  0  0  0  0  0
   -2.6429  -11.5391   -9.0628 O   0  0  0  0  0  0
   -0.6940  -10.4654   -8.1572 C   0  0  0  0  0  0
  -12.9643  -13.5400   -7.5236 C   0  0  0  0  0  0
   -6.0852  -15.9235   -8.5658 C   0  0  0  0  0  0
   -7.6338  -14.4982   -9.7399 C   0  0  0  0  0  0
  -13.5649  -14.8237   -7.5461 C   0  0  0  0  0  0
  -11.5568  -15.8021   -8.4712 C   0  0  0  0  0  0
  -10.8055  -17.0226   -8.9871 C   0  0  0  0  0  0
   -6.4200  -13.6360   -7.8505 C   0  0  0  0  0  0
  -12.8664  -15.9298   -8.0198 C   0  0  0  0  0  0
   -7.3743  -13.4745   -8.8397 C   0  0  0  0  0  0
   -5.7824  -14.8738   -7.6968 C   0  0  0  0  0  0
   -9.1492  -18.6612  -11.1301 C   0  0  0  0  0  0
   -6.1575  -12.5279   -7.0830 O   0  0  0  0  0  0
   -6.8535  -18.9775  -11.8690 C   0  0  0  0  0  0
   -6.3386  -17.9107  -10.8763 C   0  0  0  0  0  0
   -3.0247  -10.3714   -6.9947 C   0  0  0  0  0  0
  -10.9961  -12.1366   -7.9480 C   0  0  0  0  0  0
    0.1415  -10.9161   -9.1911 C   0  0  0  0  0  0
   -0.1552   -9.6435   -7.1537 C   0  0  0  0  0  0
  -13.6484  -12.3834   -7.0781 C   0  0  0  0  0  0
   -4.7971  -12.2549   -6.7896 C   0  0  0  0  0  0
   -4.5179  -10.7703   -7.0597 C   0  0  0  0  0  0
  -11.6926  -11.0237   -7.4911 C   0  0  0  0  0  0
    1.1877   -9.2769   -7.1914 C   0  0  0  0  0  0
    1.4855  -10.5553   -9.2209 C   0  0  0  0  0  0
  -13.0071  -11.1495   -7.0577 C   0  0  0  0  0  0
    2.0020   -9.7327   -8.2253 C   0  0  0  0  0  0
   -7.6524  -16.3657  -11.4977 H   0  0  0  0  0  0
   -8.3849  -20.2927  -12.0923 H   0  0  0  0  0  0
   -8.5017  -18.0809   -9.1389 H   0  0  0  0  0  0
   -9.9229  -14.4478   -8.7504 H   0  0  0  0  0  0
   -5.5908  -16.8704   -8.4221 H   0  0  0  0  0  0
   -8.3486  -14.3360  -10.5309 H   0  0  0  0  0  0
  -14.5876  -14.9441   -7.2210 H   0  0  0  0  0  0
  -11.4924  -17.6865   -9.5112 H   0  0  0  0  0  0
  -10.4181  -17.5546   -8.1171 H   0  0  0  0  0  0
  -13.3602  -16.8906   -8.0435 H   0  0  0  0  0  0
   -7.8675  -12.5231   -8.9485 H   0  0  0  0  0  0
   -5.0546  -15.0258   -6.9136 H   0  0  0  0  0  0
  -10.0180  -19.2069  -10.7623 H   0  0  0  0  0  0
   -9.4510  -18.1782  -12.0617 H   0  0  0  0  0  0
   -6.0931  -19.7433  -12.0270 H   0  0  0  0  0  0
   -7.0526  -18.5208  -12.8408 H   0  0  0  0  0  0
   -5.4896  -17.4134  -11.3483 H   0  0  0  0  0  0
   -5.9636  -18.4174   -9.9865 H   0  0  0  0  0  0
   -2.5932  -10.7265   -6.0581 H   0  0  0  0  0  0
   -2.9583   -9.2835   -6.9702 H   0  0  0  0  0  0
   -9.9760  -12.0360   -8.2831 H   0  0  0  0  0  0
   -0.2394  -11.5507   -9.9810 H   0  0  0  0  0  0
   -0.7564   -9.2726   -6.3359 H   0  0  0  0  0  0
  -14.6695  -12.4561   -6.7454 H   0  0  0  0  0  0
   -4.0945  -12.8815   -7.3434 H   0  0  0  0  0  0
   -4.6686  -12.4630   -5.7317 H   0  0  0  0  0  0
   -5.0685  -10.1720   -6.3322 H   0  0  0  0  0  0
   -4.9276  -10.4976   -8.0341 H   0  0  0  0  0  0
  -11.2166  -10.0529   -7.4831 H   0  0  0  0  0  0
    1.5980   -8.6402   -6.4216 H   0  0  0  0  0  0
    2.1224  -10.9076  -10.0201 H   0  0  0  0  0  0
  -13.5306  -10.2702   -6.7143 H   0  0  0  0  0  0
    3.0437   -9.4465   -8.2521 H   0  0  0  0  0  0
  1  2  1  0  0  0
  1  7  1  0  0  0
  1 24  1  0  0  0
  1 37  1  0  0  0
  2 12  1  0  0  0
  2 13  2  0  0  0
  3 25  1  0  0  0
  3  9  2  0  0  0
  3 10  1  0  0  0
  4 23  1  0  0  0
  4 21  1  0  0  0
  4 38  1  0  0  0
  5  8  2  0  0  0
  5 26  1  0  0  0
  5 11  1  0  0  0
  6  7  1  0  0  0
  6 16  1  0  0  0
  7 21  1  0  0  0
  7 39  1  0  0  0
  8 15  1  0  0  0
  8 40  1  0  0  0
 10 27  1  0  0  0
 10 28  2  0  0  0
 11 14  2  0  0  0
 11 29  1  0  0  0
 12 20  2  0  0  0
 12 41  1  0  0  0
 13 19  1  0  0  0
 13 42  1  0  0  0
 14 18  1  0  0  0
 14 43  1  0  0  0
 15 16  1  0  0  0
 15 18  2  0  0  0
 16 44  1  0  0  0
 16 45  1  0  0  0
 17 19  2  0  0  0
 17 22  1  0  0  0
 17 20  1  0  0  0
 18 46  1  0  0  0
 19 47  1  0  0  0
 20 48  1  0  0  0
 21 49  1  0  0  0
 21 50  1  0  0  0
 22 30  1  0  0  0
 23 24  1  0  0  0
 23 51  1  0  0  0
 23 52  1  0  0  0
 24 53  1  0  0  0
 24 54  1  0  0  0
 25 31  1  0  0  0
 25 55  1  0  0  0
 25 56  1  0  0  0
 26 32  2  0  0  0
 26 57  1  0  0  0
 27 34  2  0  0  0
 27 58  1  0  0  0
 28 33  1  0  0  0
 28 59  1  0  0  0
 29 35  2  0  0  0
 29 60  1  0  0  0
 30 31  1  0  0  0
 30 61  1  0  0  0
 30 62  1  0  0  0
 31 63  1  0  0  0
 31 64  1  0  0  0
 32 35  1  0  0  0
 32 65  1  0  0  0
 33 36  2  0  0  0
 33 66  1  0  0  0
 34 36  1  0  0  0
 34 67  1  0  0  0
 35 68  1  0  0  0
 36 69  1  0  0  0
M  END
> <s_m_entry_id>
26293

> <s_m_entry_name>
dock_pv.117

> <s_m_Source_Path>
/home/csk/Desktop/cluster/DUD-E-result/reni

> <s_m_Source_File>
dock_pv.maegz

> <i_m_Source_File_Index>
117

> <chembl_id>
CHEMBL287637

> <chembl_pref_name>
None

> <i_lp_mmshare_version>
53161

> <r_lp_tautomer_probability>
0.99990000499975

> <s_lp_Force_Field>
OPLS_2005

> <r_lp_Energy>
42.958328

> <b_lp_Chiralities_Consistent>
1

> <s_lp_Variant>
CHEMBL286_lig1330-1

> <s_i_glide_gridfile>
glide-grid_3g6z

> <i_i_glide_lignum>
4331

> <i_i_glide_rotatable_bonds>
10

> <r_i_docking_score>
-7.69917786181907

> <r_i_glide_ligand_efficiency>
-0.213866051717196

> <r_i_glide_ligand_efficiency_sa>
-0.706170142934994

> <r_i_glide_ligand_efficiency_ln>
-1.67975260170135

> <r_i_glide_gscore>
-7.69917786181907

> <r_i_glide_lipo>
-4.92738929232729

> <r_i_glide_hbond>
0

> <r_i_glide_metal>
0

> <r_i_glide_rewards>
-0.827092925481972

> <r_i_glide_evdw>
-51.5615768432617

> <r_i_glide_ecoul>
-1.06548082828522

> <r_i_glide_erotb>
0.793205322396057

> <r_i_glide_esite>
0

> <r_i_glide_emodel>
-72.6351313466967

> <r_i_glide_energy>
-52.6270576715469

> <r_i_glide_einternal>
6.87207269668579

> <i_i_glide_confnum>
32

> <i_i_glide_posenum>
101

> <r_i_glide_eff_state_penalty>
0

> <s_user_duplicate_titles>
CHEMBL286_lig1330,43469

> <i_f3d_flags>
0

> <s_m_subgroup_title>
dock_pv

> <s_m_subgroupid>
dock_pv

> <b_m_subgroup_collapsed>
1

$$$$
CHEMBL286_lig637
                    3D
 Schrodinger Suite 2021-1.
 86 90  0  0  1  0            999 V2000
   -6.1649  -14.0682   -9.1717 N   0  0  0  0  0  0
   -5.7375  -14.0172  -10.4658 C   0  0  0  0  0  0
   -7.4290  -14.6845   -8.6926 C   0  0  2  0  0  0
   -7.4745  -16.2339   -8.8024 C   0  0  0  0  0  0
   -5.2789  -13.3710   -8.2387 C   0  0  0  0  0  0
   -4.4787  -13.2180  -10.4312 C   0  0  0  0  0  0
   -4.9670  -18.4650  -10.2104 C   0  0  0  0  0  0
   -3.2394  -20.1914  -10.6568 C   0  0  1  0  0  0
   -3.1390  -20.0908  -12.2168 C   0  0  1  0  0  0
   -4.5538  -19.7422  -10.1790 N   0  0  0  0  0  0
   -6.6913  -16.8109   -9.7254 N   0  0  0  0  0  0
   -6.4617  -18.2360   -9.9442 C   0  0  1  0  0  0
   -4.2092  -12.8294   -9.1325 C   0  0  0  0  0  0
   -1.7894  -20.5631  -12.8112 C   0  0  0  0  0  0
  -10.9504  -18.6368  -10.4318 N   0  0  0  0  0  0
   -8.7659  -18.5645  -11.0401 C   0  0  0  0  0  0
   -7.2721  -18.6971  -11.1742 C   0  0  0  0  0  0
   -9.5440  -17.9856  -12.0210 N   0  0  0  0  0  0
  -10.8139  -18.0619  -11.6207 C   0  0  0  0  0  0
   -6.2789  -14.5184  -11.4508 O   0  0  0  0  0  0
   -9.6427  -18.9573  -10.0543 C   0  0  0  0  0  0
   -8.6441  -13.9443   -9.3299 C   0  0  0  0  0  0
   -8.1763  -16.8709   -8.0202 O   0  0  0  0  0  0
   -2.9066  -21.6140  -10.1228 C   0  0  0  0  0  0
   -4.2343  -17.5162  -10.4951 O   0  0  0  0  0  0
   -1.6971  -21.5572  -13.5383 O   0  0  0  0  0  0
   -4.2162  -20.8018  -12.8214 O   0  0  0  0  0  0
   -0.7574  -19.7836  -12.4202 O   0  0  0  0  0  0
  -10.0589  -14.2133   -8.8211 C   0  0  0  0  0  0
   -3.0982  -21.8803   -8.6092 C   0  0  0  0  0  0
   -3.6436  -12.8505  -11.4861 C   0  0  0  0  0  0
   -3.0872  -12.0458   -8.8565 C   0  0  0  0  0  0
    0.5688  -20.0833  -12.8363 C   0  0  0  0  0  0
  -10.7293  -15.4036   -9.1782 C   0  0  0  0  0  0
  -10.7295  -13.2629   -8.0211 C   0  0  0  0  0  0
   -2.5079  -23.2659   -8.2457 C   0  0  0  0  0  0
   -2.4663  -20.7883   -7.7087 C   0  0  0  0  0  0
   -2.5236  -12.0633  -11.2144 C   0  0  0  0  0  0
   -2.2443  -11.6638   -9.9042 C   0  0  0  0  0  0
  -12.0236  -13.5157   -7.5838 C   0  0  0  0  0  0
  -12.0223  -15.6363   -8.7300 C   0  0  0  0  0  0
   -2.6235  -21.1055   -6.2106 C   0  0  0  0  0  0
   -2.6820  -23.6033   -6.7541 C   0  0  0  0  0  0
   -2.0655  -22.5012   -5.8695 C   0  0  0  0  0  0
  -12.6661  -14.6967   -7.9349 C   0  0  0  0  0  0
   -7.4697  -14.4797   -7.6228 H   0  0  0  0  0  0
   -5.8177  -12.5829   -7.7104 H   0  0  0  0  0  0
   -4.8838  -14.0665   -7.4962 H   0  0  0  0  0  0
   -2.4851  -19.5166  -10.2404 H   0  0  0  0  0  0
   -3.2552  -19.0438  -12.5002 H   0  0  0  0  0  0
   -5.2124  -20.4629   -9.9264 H   0  0  0  0  0  0
   -6.1502  -16.2128  -10.3387 H   0  0  0  0  0  0
   -6.7559  -18.8054   -9.0619 H   0  0  0  0  0  0
   -9.2137  -17.6643  -12.9368 H   0  0  0  0  0  0
   -6.9510  -18.1446  -12.0613 H   0  0  0  0  0  0
   -7.0703  -19.7478  -11.3893 H   0  0  0  0  0  0
  -11.6438  -17.7069  -12.2154 H   0  0  0  0  0  0
   -9.4323  -19.4529   -9.1189 H   0  0  0  0  0  0
   -8.4732  -12.8729   -9.2241 H   0  0  0  0  0  0
   -8.6578  -14.1226  -10.4046 H   0  0  0  0  0  0
   -1.8700  -21.8432  -10.3744 H   0  0  0  0  0  0
   -3.5083  -22.3454  -10.6679 H   0  0  0  0  0  0
   -4.0399  -21.7436  -12.7516 H   0  0  0  0  0  0
   -4.1649  -21.9076   -8.3794 H   0  0  0  0  0  0
   -3.8535  -13.1599  -12.5006 H   0  0  0  0  0  0
   -2.8634  -11.7272   -7.8477 H   0  0  0  0  0  0
    1.2602  -19.3444  -12.4323 H   0  0  0  0  0  0
    0.8839  -21.0666  -12.4797 H   0  0  0  0  0  0
    0.6580  -20.0676  -13.9242 H   0  0  0  0  0  0
  -10.2314  -16.1306   -9.7983 H   0  0  0  0  0  0
  -10.2460  -12.3395   -7.7405 H   0  0  0  0  0  0
   -1.4481  -23.2948   -8.5038 H   0  0  0  0  0  0
   -2.9620  -24.0435   -8.8637 H   0  0  0  0  0  0
   -2.8921  -19.8094   -7.9260 H   0  0  0  0  0  0
   -1.4095  -20.6905   -7.9494 H   0  0  0  0  0  0
   -1.8691  -11.7685  -12.0214 H   0  0  0  0  0  0
   -1.3724  -11.0608   -9.7059 H   0  0  0  0  0  0
  -12.5330  -12.7924   -6.9644 H   0  0  0  0  0  0
  -12.5277  -16.5511   -9.0053 H   0  0  0  0  0  0
   -2.1153  -20.3454   -5.6148 H   0  0  0  0  0  0
   -3.6775  -21.0527   -5.9317 H   0  0  0  0  0  0
   -2.2156  -24.5642   -6.5312 H   0  0  0  0  0  0
   -3.7432  -23.7147   -6.5228 H   0  0  0  0  0  0
   -0.9816  -22.4979   -5.9984 H   0  0  0  0  0  0
   -2.2432  -22.7280   -4.8210 H   0  0  0  0  0  0
  -13.6720  -14.8863   -7.5900 H   0  0  0  0  0  0
  1  2  1  0  0  0
  1  3  1  0  0  0
  1  5  1  0  0  0
  2  6  1  0  0  0
  2 20  2  0  0  0
  3  4  1  0  0  0
  3 22  1  0  0  0
  3 46  1  0  0  0
  4 11  1  0  0  0
  4 23  2  0  0  0
  5 13  1  0  0  0
  5 47  1  0  0  0
  5 48  1  0  0  0
  6 31  2  0  0  0
  6 13  1  0  0  0
  7 12  1  0  0  0
  7 10  1  0  0  0
  7 25  2  0  0  0
  8 10  1  0  0  0
  8  9  1  0  0  0
  8 24  1  0  0  0
  8 49  1  0  0  0
  9 14  1  0  0  0
  9 27  1  0  0  0
  9 50  1  0  0  0
 10 51  1  0  0  0
 11 12  1  0  0  0
 11 52  1  0  0  0
 12 17  1  0  0  0
 12 53  1  0  0  0
 13 32  2  0  0  0
 14 26  2  0  0  0
 14 28  1  0  0  0
 15 19  2  0  0  0
 15 21  1  0  0  0
 16 21  2  0  0  0
 16 17  1  0  0  0
 16 18  1  0  0  0
 17 55  1  0  0  0
 17 56  1  0  0  0
 18 54  1  0  0  0
 18 19  1  0  0  0
 19 57  1  0  0  0
 21 58  1  0  0  0
 22 29  1  0  0  0
 22 59  1  0  0  0
 22 60  1  0  0  0
 24 30  1  0  0  0
 24 61  1  0  0  0
 24 62  1  0  0  0
 27 63  1  0  0  0
 28 33  1  0  0  0
 29 34  2  0  0  0
 29 35  1  0  0  0
 30 36  1  0  0  0
 30 37  1  0  0  0
 30 64  1  0  0  0
 31 38  1  0  0  0
 31 65  1  0  0  0
 32 39  1  0  0  0
 32 66  1  0  0  0
 33 67  1  0  0  0
 33 68  1  0  0  0
 33 69  1  0  0  0
 34 41  1  0  0  0
 34 70  1  0  0  0
 35 40  2  0  0  0
 35 71  1  0  0  0
 36 43  1  0  0  0
 36 72  1  0  0  0
 36 73  1  0  0  0
 37 42  1  0  0  0
 37 74  1  0  0  0
 37 75  1  0  0  0
 38 39  2  0  0  0
 38 76  1  0  0  0
 39 77  1  0  0  0
 40 45  1  0  0  0
 40 78  1  0  0  0
 41 45  2  0  0  0
 41 79  1  0  0  0
 42 44  1  0  0  0
 42 80  1  0  0  0
 42 81  1  0  0  0
 43 44  1  0  0  0
 43 82  1  0  0  0
 43 83  1  0  0  0
 44 84  1  0  0  0
 44 85  1  0  0  0
 45 86  1  0  0  0
M  END
> <s_m_entry_id>
26294

> <s_m_entry_name>
dock_pv.118

> <s_m_Source_Path>
/home/csk/Desktop/cluster/DUD-E-result/reni

> <s_m_Source_File>
dock_pv.maegz

> <i_m_Source_File_Index>
118

> <chembl_id>
CHEMBL353061

> <chembl_pref_name>
None

> <i_lp_mmshare_version>
53161

> <r_lp_tautomer_probability>
0.499999999999999

> <s_lp_Force_Field>
OPLS_2005

> <r_lp_Energy>
43.622907

> <b_lp_Chiralities_Consistent>
1

> <s_lp_Variant>
CHEMBL286_lig637-8

> <s_i_glide_gridfile>
glide-grid_3g6z

> <i_i_glide_lignum>
1806

> <i_i_glide_rotatable_bonds>
17

> <r_i_docking_score>
-7.69102447871293

> <r_i_glide_ligand_efficiency>
-0.17091165508251

> <r_i_glide_ligand_efficiency_sa>
-0.607914520850918

> <r_i_glide_ligand_efficiency_ln>
-1.60007583121994

> <r_i_glide_gscore>
-7.69102447871293

> <r_i_glide_lipo>
-3.07880034221901

> <r_i_glide_hbond>
-0.16

> <r_i_glide_metal>
0

> <r_i_glide_rewards>
-1.42585851562003

> <r_i_glide_evdw>
-48.3760643005371

> <r_i_glide_ecoul>
-7.48676586151123

> <r_i_glide_erotb>
0.594073524962445

> <r_i_glide_esite>
-0.0786210515827923

> <r_i_glide_emodel>
-78.9347648150971

> <r_i_glide_energy>
-55.8628301620483

> <r_i_glide_einternal>
7.857497215271

> <i_i_glide_confnum>
1

> <i_i_glide_posenum>
256

> <r_i_glide_eff_state_penalty>
0

> <s_user_duplicate_titles>
CHEMBL286_lig637,CHEMBL286_lig637

> <i_f3d_flags>
0

> <s_m_subgroup_title>
dock_pv

> <s_m_subgroupid>
dock_pv

> <b_m_subgroup_collapsed>
1

$$$$
CHEMBL286_lig2460
                    3D
 Schrodinger Suite 2021-1.
 72 74  0  0  1  0            999 V2000
   -9.2802  -20.6525   -9.1745 C   0  0  0  0  0  0
   -8.5269  -19.3813   -9.6275 C   0  0  0  0  0  0
   -7.0731  -19.3707   -9.0965 C   0  0  0  0  0  0
  -13.0681  -15.7102   -7.9834 C   0  0  0  0  0  0
  -12.5206  -14.4471   -7.7777 C   0  0  0  0  0  0
  -11.2231  -14.1816   -8.2045 C   0  0  0  0  0  0
  -10.4568  -15.1764   -8.8209 C   0  0  0  0  0  0
  -11.0097  -16.4489   -9.0499 C   0  0  0  0  0  0
  -12.3219  -16.6955   -8.6288 C   0  0  0  0  0  0
  -10.3106  -17.4747   -9.7325 N   0  0  0  0  0  0
   -9.2421  -18.1553   -8.9697 C   0  0  0  0  0  0
   -8.6060  -19.3055  -11.0906 N   0  0  2  0  0  0
   -9.8573  -18.8840  -11.7356 C   0  0  0  0  0  0
  -10.6657  -17.7937  -11.0096 C   0  0  0  0  0  0
  -11.6134  -17.2635  -11.5960 O   0  0  0  0  0  0
   -7.8644  -20.3214  -11.8622 C   0  0  0  0  0  0
   -7.0408  -19.7641  -13.0583 C   0  0  1  0  0  0
   -6.0997  -18.5352  -12.7872 C   0  0  2  0  0  0
   -6.2709  -20.8839  -13.6084 N   0  0  0  0  0  0
   -6.7960  -17.2250  -12.2832 C   0  0  0  0  0  0
   -5.4379  -18.2316  -14.0108 O   0  0  0  0  0  0
   -5.9508  -15.9160  -12.3182 C   0  0  2  0  0  0
   -4.8689  -15.9897  -11.2149 C   0  0  0  0  0  0
   -3.5917  -15.8746  -11.6206 N   0  0  0  0  0  0
   -5.2102  -16.1264  -10.0367 O   0  0  0  0  0  0
   -6.7830  -14.5917  -12.2803 C   0  0  0  0  0  0
   -8.8275  -14.7878   -9.2350 Cl  0  0  0  0  0  0
   -2.4357  -15.9682  -10.8301 C   0  0  0  0  0  0
   -2.3380  -16.8013   -9.7042 C   0  0  0  0  0  0
   -1.1485  -16.8609   -8.9748 C   0  0  0  0  0  0
   -0.0510  -16.0924   -9.3661 C   0  0  0  0  0  0
   -0.1440  -15.2687  -10.4874 C   0  0  0  0  0  0
   -1.3288  -15.2115  -11.2209 C   0  0  0  0  0  0
   -7.7414  -14.4516  -13.4820 C   0  0  0  0  0  0
   -5.9137  -13.3140  -12.1996 C   0  0  0  0  0  0
   -1.0693  -17.6617   -7.8888 F   0  0  0  0  0  0
    1.1027  -16.1406   -8.6610 F   0  0  0  0  0  0
   -9.4342  -20.6701   -8.0957 H   0  0  0  0  0  0
  -10.2694  -20.7241   -9.6250 H   0  0  0  0  0  0
   -8.7444  -21.5604   -9.4541 H   0  0  0  0  0  0
   -7.0709  -19.4961   -8.0214 H   0  0  0  0  0  0
   -6.4568  -20.1827   -9.4761 H   0  0  0  0  0  0
   -6.5482  -18.4459   -9.3388 H   0  0  0  0  0  0
  -14.0771  -15.9233   -7.6598 H   0  0  0  0  0  0
  -13.0996  -13.6771   -7.2890 H   0  0  0  0  0  0
  -10.7953  -13.2049   -8.0332 H   0  0  0  0  0  0
  -12.7796  -17.6554   -8.8209 H   0  0  0  0  0  0
   -8.4881  -17.3697   -8.9544 H   0  0  0  0  0  0
   -9.4678  -18.3021   -7.9128 H   0  0  0  0  0  0
   -9.6407  -18.4638  -12.7188 H   0  0  0  0  0  0
  -10.5263  -19.7324  -11.8751 H   0  0  0  0  0  0
   -8.5726  -21.0613  -12.2402 H   0  0  0  0  0  0
   -7.1898  -20.8881  -11.2260 H   0  0  0  0  0  0
   -7.7546  -19.4960  -13.8269 H   0  0  0  0  0  0
   -5.3402  -18.8209  -12.0581 H   0  0  0  0  0  0
   -5.6961  -21.3014  -12.8895 H   0  0  0  0  0  0
   -6.9044  -21.6059  -13.9328 H   0  0  0  0  0  0
   -7.1323  -17.3523  -11.2586 H   0  0  0  0  0  0
   -7.7223  -17.0871  -12.8210 H   0  0  0  0  0  0
   -6.1097  -18.0631  -14.6921 H   0  0  0  0  0  0
   -5.4688  -15.8822  -13.2899 H   0  0  0  0  0  0
   -3.4681  -15.5739  -12.5845 H   0  0  0  0  0  0
   -7.3965  -14.6117  -11.3874 H   0  0  0  0  0  0
   -3.1714  -17.4108   -9.3885 H   0  0  0  0  0  0
    0.7006  -14.6644  -10.7853 H   0  0  0  0  0  0
   -1.3893  -14.5561  -12.0800 H   0  0  0  0  0  0
   -7.1893  -14.4890  -14.4210 H   0  0  0  0  0  0
   -8.5095  -15.2231  -13.5103 H   0  0  0  0  0  0
   -8.2697  -13.4996  -13.4562 H   0  0  0  0  0  0
   -5.2079  -13.2619  -13.0295 H   0  0  0  0  0  0
   -6.5274  -12.4138  -12.2355 H   0  0  0  0  0  0
   -5.3411  -13.2648  -11.2731 H   0  0  0  0  0  0
  1  2  1  0  0  0
  1 38  1  0  0  0
  1 39  1  0  0  0
  1 40  1  0  0  0
  2  3  1  0  0  0
  2 11  1  0  0  0
  2 12  1  0  0  0
  3 41  1  0  0  0
  3 42  1  0  0  0
  3 43  1  0  0  0
  4  5  2  0  0  0
  4  9  1  0  0  0
  4 44  1  0  0  0
  5  6  1  0  0  0
  5 45  1  0  0  0
  6  7  2  0  0  0
  6 46  1  0  0  0
  7  8  1  0  0  0
  7 27  1  0  0  0
  8  9  2  0  0  0
  8 10  1  0  0  0
  9 47  1  0  0  0
 10 11  1  0  0  0
 10 14  1  0  0  0
 11 48  1  0  0  0
 11 49  1  0  0  0
 12 13  1  0  0  0
 12 16  1  0  0  0
 13 14  1  0  0  0
 13 50  1  0  0  0
 13 51  1  0  0  0
 14 15  2  0  0  0
 16 17  1  0  0  0
 16 52  1  0  0  0
 16 53  1  0  0  0
 17 18  1  0  0  0
 17 19  1  0  0  0
 17 54  1  0  0  0
 18 20  1  0  0  0
 18 21  1  0  0  0
 18 55  1  0  0  0
 19 56  1  0  0  0
 19 57  1  0  0  0
 20 22  1  0  0  0
 20 58  1  0  0  0
 20 59  1  0  0  0
 21 60  1  0  0  0
 22 23  1  0  0  0
 22 26  1  0  0  0
 22 61  1  0  0  0
 23 24  1  0  0  0
 23 25  2  0  0  0
 24 28  1  0  0  0
 24 62  1  0  0  0
 26 34  1  0  0  0
 26 35  1  0  0  0
 26 63  1  0  0  0
 28 29  2  0  0  0
 28 33  1  0  0  0
 29 30  1  0  0  0
 29 64  1  0  0  0
 30 31  2  0  0  0
 30 36  1  0  0  0
 31 32  1  0  0  0
 31 37  1  0  0  0
 32 33  2  0  0  0
 32 65  1  0  0  0
 33 66  1  0  0  0
 34 67  1  0  0  0
 34 68  1  0  0  0
 34 69  1  0  0  0
 35 70  1  0  0  0
 35 71  1  0  0  0
 35 72  1  0  0  0
M  END
> <s_m_entry_id>
26295

> <s_m_entry_name>
dock_pv.119

> <s_m_Source_Path>
/home/csk/Desktop/cluster/DUD-E-result/reni

> <s_m_Source_File>
dock_pv.maegz

> <i_m_Source_File_Index>
119

> <chembl_id>
CHEMBL2387555

> <chembl_pref_name>
None

> <i_lp_mmshare_version>
53161

> <r_lp_tautomer_probability>
1

> <s_lp_Force_Field>
OPLS_2005

> <r_lp_Energy>
83.232822

> <b_lp_Chiralities_Consistent>
1

> <s_lp_Variant>
CHEMBL286_lig2460-1

> <s_i_glide_gridfile>
glide-grid_3g6z

> <i_i_glide_lignum>
6520

> <i_i_glide_rotatable_bonds>
11

> <r_i_docking_score>
-7.68458707714257

> <r_i_glide_ligand_efficiency>
-0.207691542625475

> <r_i_glide_ligand_efficiency_sa>
-0.692074295905657

> <r_i_glide_ligand_efficiency_ln>
-1.66660678475095

> <r_i_glide_gscore>
-7.68458707714257

> <r_i_glide_lipo>
-2.78857817072178

> <r_i_glide_hbond>
-0.740146244683961

> <r_i_glide_metal>
0

> <r_i_glide_rewards>
-0.861215508109267

> <r_i_glide_evdw>
-37.5166358947754

> <r_i_glide_ecoul>
-13.0376253128052

> <r_i_glide_erotb>
0.572902593094629

> <r_i_glide_esite>
-0.0360741550626504

> <r_i_glide_emodel>
-70.6572976527524

> <r_i_glide_energy>
-50.5542612075806

> <r_i_glide_einternal>
7.04836368560791

> <i_i_glide_confnum>
6

> <i_i_glide_posenum>
355

> <r_i_glide_eff_state_penalty>
0

> <s_user_duplicate_titles>
CHEMBL286_lig2460

> <i_f3d_flags>
0

> <s_m_subgroup_title>
dock_pv

> <s_m_subgroupid>
dock_pv

> <b_m_subgroup_collapsed>
1

$$$$
CHEMBL286_lig2040
                    3D
 Schrodinger Suite 2021-1.
 78 80  0  0  1  0            999 V2000
  -11.1410  -13.5195   -8.4830 C   0  0  0  0  0  0
  -12.2555  -12.8359   -8.0128 C   0  0  0  0  0  0
  -13.2964  -13.5457   -7.4315 C   0  0  0  0  0  0
  -13.2154  -14.9281   -7.2842 C   0  0  0  0  0  0
  -12.0903  -15.6065   -7.7500 C   0  0  0  0  0  0
  -11.0686  -14.9192   -8.4157 C   0  0  0  0  0  0
   -9.8311  -15.6809   -8.9504 C   0  0  1  0  0  0
  -10.0894  -16.8055  -10.0195 C   0  0  1  0  0  0
   -8.8556  -14.7363   -9.4167 O   0  0  0  0  0  0
   -9.4284  -18.1473   -9.5799 C   0  0  0  0  0  0
   -9.6621  -19.1878  -10.6160 N   0  0  0  0  0  0
  -11.0763  -19.4568  -10.9368 C   0  0  0  0  0  0
  -11.6371  -18.1509  -11.5259 C   0  0  0  0  0  0
  -11.5442  -17.0027  -10.5193 C   0  0  0  0  0  0
   -7.5353  -15.1942   -9.6947 C   0  0  0  0  0  0
   -9.5721  -16.5137  -10.9333 H   0  0  0  0  0  0
   -8.7065  -20.0488  -11.0598 C   0  0  0  0  0  0
   -8.9706  -21.1420  -11.5693 O   0  0  0  0  0  0
   -7.4379  -19.5990  -10.9725 N   0  0  0  0  0  0
   -6.2719  -20.1067  -11.7133 C   0  0  2  0  0  0
   -6.4939  -19.9770  -13.2542 C   0  0  0  0  0  0
   -5.8056  -21.5132  -11.2289 C   0  0  0  0  0  0
   -5.4699  -19.2626  -14.0208 N   0  0  2  0  0  0
   -5.1371  -17.9641  -13.4563 C   0  0  0  0  0  0
   -4.3826  -22.0011  -11.6312 C   0  0  0  0  0  0
   -4.3009  -22.5781  -13.0674 C   0  0  0  0  0  0
   -2.8921  -23.1216  -13.3928 C   0  0  0  0  0  0
   -1.8073  -22.0505  -13.1675 C   0  0  0  0  0  0
   -1.8703  -21.4718  -11.7423 C   0  0  0  0  0  0
   -3.2769  -20.9344  -11.4221 C   0  0  0  0  0  0
   -6.7221  -14.0397  -10.3030 C   0  0  0  0  0  0
   -7.3691  -13.3941  -11.5496 C   0  0  0  0  0  0
   -7.7467  -14.3382  -12.5417 O   0  0  0  0  0  0
   -6.6773  -14.8448  -13.3236 C   0  0  0  0  0  0
  -10.3438  -12.9481   -8.9337 H   0  0  0  0  0  0
  -12.3114  -11.7619   -8.1039 H   0  0  0  0  0  0
  -14.1664  -13.0130   -7.0813 H   0  0  0  0  0  0
  -14.0248  -15.4733   -6.8185 H   0  0  0  0  0  0
  -12.0278  -16.6762   -7.6015 H   0  0  0  0  0  0
   -9.3955  -16.1382   -8.0591 H   0  0  0  0  0  0
   -9.8676  -18.4649   -8.6367 H   0  0  0  0  0  0
   -8.3685  -17.9639   -9.4052 H   0  0  0  0  0  0
  -11.2119  -20.2807  -11.6336 H   0  0  0  0  0  0
  -11.5965  -19.7247  -10.0210 H   0  0  0  0  0  0
  -11.0804  -17.8862  -12.4214 H   0  0  0  0  0  0
  -12.6696  -18.2975  -11.8490 H   0  0  0  0  0  0
  -11.9279  -16.0750  -10.9466 H   0  0  0  0  0  0
  -12.2213  -17.2421   -9.7022 H   0  0  0  0  0  0
   -7.0606  -15.5442   -8.7761 H   0  0  0  0  0  0
   -7.5272  -16.0280  -10.3951 H   0  0  0  0  0  0
   -7.3038  -18.7006  -10.5350 H   0  0  0  0  0  0
   -5.5023  -19.4173  -11.3829 H   0  0  0  0  0  0
   -6.6502  -20.9619  -13.6951 H   0  0  0  0  0  0
   -7.4337  -19.4610  -13.4590 H   0  0  0  0  0  0
   -6.5430  -22.2631  -11.5221 H   0  0  0  0  0  0
   -5.8375  -21.5120  -10.1393 H   0  0  0  0  0  0
   -5.9185  -19.0058  -14.9056 H   0  0  0  0  0  0
   -4.6692  -17.3437  -14.2164 H   0  0  0  0  0  0
   -6.0381  -17.4555  -13.1199 H   0  0  0  0  0  0
   -4.4370  -18.0396  -12.6242 H   0  0  0  0  0  0
   -4.1288  -22.8306  -10.9675 H   0  0  0  0  0  0
   -4.5766  -21.8257  -13.8017 H   0  0  0  0  0  0
   -5.0407  -23.3701  -13.1891 H   0  0  0  0  0  0
   -2.8604  -23.4726  -14.4209 H   0  0  0  0  0  0
   -2.6771  -23.9926  -12.7700 H   0  0  0  0  0  0
   -1.9370  -21.2466  -13.8923 H   0  0  0  0  0  0
   -0.8180  -22.4630  -13.3562 H   0  0  0  0  0  0
   -1.1315  -20.6778  -11.6298 H   0  0  0  0  0  0
   -1.6004  -22.2458  -11.0214 H   0  0  0  0  0  0
   -3.3090  -20.5680  -10.3966 H   0  0  0  0  0  0
   -3.4714  -20.0607  -12.0442 H   0  0  0  0  0  0
   -6.5819  -13.2685   -9.5434 H   0  0  0  0  0  0
   -5.7213  -14.3903  -10.5470 H   0  0  0  0  0  0
   -8.2687  -12.8636  -11.2372 H   0  0  0  0  0  0
   -6.7210  -12.6316  -11.9891 H   0  0  0  0  0  0
   -7.0685  -15.5861  -14.0197 H   0  0  0  0  0  0
   -6.2055  -14.0641  -13.9167 H   0  0  0  0  0  0
   -5.9113  -15.3146  -12.7083 H   0  0  0  0  0  0
  1  6  1  0  0  0
  1  2  2  0  0  0
  1 35  1  0  0  0
  2  3  1  0  0  0
  2 36  1  0  0  0
  3  4  2  0  0  0
  3 37  1  0  0  0
  4  5  1  0  0  0
  4 38  1  0  0  0
  5  6  2  0  0  0
  5 39  1  0  0  0
  6  7  1  0  0  0
  7  8  1  0  0  0
  7  9  1  0  0  0
  7 40  1  0  0  0
  8 10  1  0  0  0
  8 14  1  0  0  0
  8 16  1  0  0  0
  9 15  1  0  0  0
 10 11  1  0  0  0
 10 41  1  0  0  0
 10 42  1  0  0  0
 11 17  1  0  0  0
 11 12  1  0  0  0
 12 13  1  0  0  0
 12 43  1  0  0  0
 12 44  1  0  0  0
 13 14  1  0  0  0
 13 45  1  0  0  0
 13 46  1  0  0  0
 14 47  1  0  0  0
 14 48  1  0  0  0
 15 31  1  0  0  0
 15 49  1  0  0  0
 15 50  1  0  0  0
 17 18  2  0  0  0
 17 19  1  0  0  0
 19 20  1  0  0  0
 19 51  1  0  0  0
 20 21  1  0  0  0
 20 22  1  0  0  0
 20 52  1  0  0  0
 21 23  1  0  0  0
 21 53  1  0  0  0
 21 54  1  0  0  0
 22 25  1  0  0  0
 22 55  1  0  0  0
 22 56  1  0  0  0
 23 24  1  0  0  0
 23 57  1  0  0  0
 24 58  1  0  0  0
 24 59  1  0  0  0
 24 60  1  0  0  0
 25 26  1  0  0  0
 25 30  1  0  0  0
 25 61  1  0  0  0
 26 27  1  0  0  0
 26 62  1  0  0  0
 26 63  1  0  0  0
 27 28  1  0  0  0
 27 64  1  0  0  0
 27 65  1  0  0  0
 28 29  1  0  0  0
 28 66  1  0  0  0
 28 67  1  0  0  0
 29 30  1  0  0  0
 29 68  1  0  0  0
 29 69  1  0  0  0
 30 70  1  0  0  0
 30 71  1  0  0  0
 31 32  1  0  0  0
 31 72  1  0  0  0
 31 73  1  0  0  0
 32 33  1  0  0  0
 32 74  1  0  0  0
 32 75  1  0  0  0
 33 34  1  0  0  0
 34 76  1  0  0  0
 34 77  1  0  0  0
 34 78  1  0  0  0
M  END
> <s_m_entry_id>
26296

> <s_m_entry_name>
dock_pv.120

> <s_m_Source_Path>
/home/csk/Desktop/cluster/DUD-E-result/reni

> <s_m_Source_File>
dock_pv.maegz

> <i_m_Source_File_Index>
120

> <chembl_id>
CHEMBL1276648

> <chembl_pref_name>
None

> <i_lp_mmshare_version>
53161

> <r_lp_tautomer_probability>
1

> <s_lp_Force_Field>
OPLS_2005

> <r_lp_Energy>
55.057673

> <b_lp_Chiralities_Consistent>
1

> <s_lp_Variant>
CHEMBL286_lig2040-1

> <s_i_glide_gridfile>
glide-grid_3g6z

> <i_i_glide_lignum>
5848

> <i_i_glide_rotatable_bonds>
14

> <r_i_docking_score>
-7.67411157419539

> <r_i_glide_ligand_efficiency>
-0.232548835581678

> <r_i_glide_ligand_efficiency_sa>
-0.74590837265943

> <r_i_glide_ligand_efficiency_ln>
-1.70668267967786

> <r_i_glide_gscore>
-7.67411157419539

> <r_i_glide_lipo>
-4.08130679158798

> <r_i_glide_hbond>
-0.43023598069365

> <r_i_glide_metal>
0

> <r_i_glide_rewards>
-0.952909268307336

> <r_i_glide_evdw>
-36.749698638916

> <r_i_glide_ecoul>
-9.38129329681396

> <r_i_glide_erotb>
1.04758686640105

> <r_i_glide_esite>
-0.0125674735395735

> <r_i_glide_emodel>
-50.2762484494807

> <r_i_glide_energy>
-46.13099193573

> <r_i_glide_einternal>
34.8925704956055

> <i_i_glide_confnum>
159

> <i_i_glide_posenum>
104

> <r_i_glide_eff_state_penalty>
0

> <s_user_duplicate_titles>
CHEMBL286_lig2040

> <i_f3d_flags>
0

> <s_m_subgroup_title>
dock_pv

> <s_m_subgroupid>
dock_pv

> <b_m_subgroup_collapsed>
1

$$$$
CHEMBL286_lig1555
                    3D
 Schrodinger Suite 2021-1.
 70 73  0  0  1  0            999 V2000
   -7.2569  -18.4709  -11.7281 N   0  0  0  0  0  0
   -7.2555  -19.8118  -12.0212 C   0  0  0  0  0  0
   -4.2020  -13.8813   -9.3156 C   0  0  0  0  0  0
   -8.2265  -17.9720  -10.8397 C   0  0  0  0  0  0
   -6.3639  -17.4567  -12.3685 C   0  0  2  0  0  0
   -4.5231  -15.2103   -8.9858 C   0  0  0  0  0  0
   -5.8671  -19.2643  -14.0206 N   0  0  2  0  0  0
   -4.7584  -12.8295   -8.5850 C   0  0  0  0  0  0
  -12.1499  -11.5678   -7.3206 C   0  0  0  0  0  0
   -8.0272  -20.6250  -11.5032 O   0  0  0  0  0  0
  -10.8990  -11.9113   -7.8760 C   0  0  0  0  0  0
   -5.4164  -15.4521   -7.9360 C   0  0  0  0  0  0
   -7.9287  -17.8541   -9.4800 C   0  0  0  0  0  0
   -9.4913  -17.6251  -11.3197 C   0  0  0  0  0  0
   -5.6489  -13.0843   -7.5445 C   0  0  0  0  0  0
   -6.2000  -20.2986  -13.0440 C   0  0  0  0  0  0
   -3.1273  -13.4891  -10.6136 Cl  0  0  0  0  0  0
   -5.3640  -18.0598  -13.3880 C   0  0  0  0  0  0
   -4.9004  -17.1674  -10.4322 O   0  0  0  0  0  0
  -10.1725  -17.0538   -9.0645 C   0  0  0  0  0  0
   -5.9796  -14.3967   -7.2212 C   0  0  0  0  0  0
   -8.9006  -17.3886   -8.6000 C   0  0  0  0  0  0
  -10.4648  -17.1752  -10.4334 C   0  0  0  0  0  0
   -6.1923  -12.0603   -6.8500 F   0  0  0  0  0  0
  -10.7873  -13.0624   -8.6400 O   0  0  0  0  0  0
   -3.9196  -16.4060   -9.7288 C   0  0  0  0  0  0
   -5.6294  -16.4649  -11.4365 C   0  0  0  0  0  0
  -13.2181  -15.9785   -7.2456 C   0  0  0  0  0  0
  -11.0665  -16.5992   -8.1169 O   0  0  0  0  0  0
  -13.4513  -12.3062   -7.6507 C   0  0  0  0  0  0
  -13.3128  -13.6963   -7.9161 O   0  0  0  0  0  0
  -12.2454  -10.4632   -6.4621 C   0  0  0  0  0  0
  -12.4320  -16.4287   -8.4811 C   0  0  0  0  0  0
  -12.9432  -14.5252   -6.8231 C   0  0  0  0  0  0
   -9.7988  -11.0790   -7.6140 C   0  0  0  0  0  0
   -9.4984  -13.5374   -9.0308 C   0  0  0  0  0  0
  -11.1376   -9.6666   -6.1952 C   0  0  0  0  0  0
   -9.9206   -9.9649   -6.7839 C   0  0  0  0  0  0
   -7.0589  -16.8574  -12.9590 H   0  0  0  0  0  0
   -6.6318  -19.0185  -14.6563 H   0  0  0  0  0  0
   -4.5067  -11.8082   -8.8294 H   0  0  0  0  0  0
   -5.6752  -16.4631   -7.6670 H   0  0  0  0  0  0
   -6.9522  -18.1283   -9.1090 H   0  0  0  0  0  0
   -9.7196  -17.7176  -12.3734 H   0  0  0  0  0  0
   -5.3108  -20.6121  -12.4957 H   0  0  0  0  0  0
   -6.5912  -21.1740  -13.5652 H   0  0  0  0  0  0
   -4.4241  -18.3017  -12.8891 H   0  0  0  0  0  0
   -5.1426  -17.3192  -14.1572 H   0  0  0  0  0  0
   -6.6669  -14.5962   -6.4121 H   0  0  0  0  0  0
   -8.6729  -17.2947   -7.5483 H   0  0  0  0  0  0
  -11.4343  -16.9174  -10.8310 H   0  0  0  0  0  0
   -3.4516  -17.0634   -8.9947 H   0  0  0  0  0  0
   -3.1218  -16.1215  -10.4144 H   0  0  0  0  0  0
   -4.9647  -15.8308  -12.0281 H   0  0  0  0  0  0
   -6.3517  -15.8001  -10.9607 H   0  0  0  0  0  0
  -12.9898  -16.6655   -6.4324 H   0  0  0  0  0  0
  -14.2837  -16.0890   -7.4442 H   0  0  0  0  0  0
  -14.2067  -12.1531   -6.8776 H   0  0  0  0  0  0
  -13.8526  -11.8533   -8.5568 H   0  0  0  0  0  0
  -13.1961  -10.1966   -6.0231 H   0  0  0  0  0  0
  -12.8367  -17.3803   -8.8278 H   0  0  0  0  0  0
  -12.5423  -15.7035   -9.2897 H   0  0  0  0  0  0
  -11.8949  -14.3825   -6.5555 H   0  0  0  0  0  0
  -13.5430  -14.2816   -5.9455 H   0  0  0  0  0  0
   -8.8233  -11.2879   -8.0163 H   0  0  0  0  0  0
   -9.5901  -14.4815   -9.5596 H   0  0  0  0  0  0
   -9.0023  -12.8812   -9.7333 H   0  0  0  0  0  0
   -8.8413  -13.6831   -8.1756 H   0  0  0  0  0  0
  -11.2286   -8.8086   -5.5458 H   0  0  0  0  0  0
   -9.0686   -9.3418   -6.5789 H   0  0  0  0  0  0
  1  2  1  0  0  0
  1  4  1  0  0  0
  1  5  1  0  0  0
  2 10  2  0  0  0
  2 16  1  0  0  0
  3  6  2  0  0  0
  3  8  1  0  0  0
  3 17  1  0  0  0
  4 13  1  0  0  0
  4 14  2  0  0  0
  5 18  1  0  0  0
  5 27  1  0  0  0
  5 39  1  0  0  0
  6 26  1  0  0  0
  6 12  1  0  0  0
  7 18  1  0  0  0
  7 16  1  0  0  0
  7 40  1  0  0  0
  8 15  2  0  0  0
  8 41  1  0  0  0
  9 30  1  0  0  0
  9 11  2  0  0  0
  9 32  1  0  0  0
 11 25  1  0  0  0
 11 35  1  0  0  0
 12 21  2  0  0  0
 12 42  1  0  0  0
 13 22  2  0  0  0
 13 43  1  0  0  0
 14 23  1  0  0  0
 14 44  1  0  0  0
 15 21  1  0  0  0
 15 24  1  0  0  0
 16 45  1  0  0  0
 16 46  1  0  0  0
 18 47  1  0  0  0
 18 48  1  0  0  0
 19 27  1  0  0  0
 19 26  1  0  0  0
 20 23  2  0  0  0
 20 29  1  0  0  0
 20 22  1  0  0  0
 21 49  1  0  0  0
 22 50  1  0  0  0
 23 51  1  0  0  0
 25 36  1  0  0  0
 26 52  1  0  0  0
 26 53  1  0  0  0
 27 54  1  0  0  0
 27 55  1  0  0  0
 28 33  1  0  0  0
 28 34  1  0  0  0
 28 56  1  0  0  0
 28 57  1  0  0  0
 29 33  1  0  0  0
 30 31  1  0  0  0
 30 58  1  0  0  0
 30 59  1  0  0  0
 31 34  1  0  0  0
 32 37  2  0  0  0
 32 60  1  0  0  0
 33 61  1  0  0  0
 33 62  1  0  0  0
 34 63  1  0  0  0
 34 64  1  0  0  0
 35 38  2  0  0  0
 35 65  1  0  0  0
 36 66  1  0  0  0
 36 67  1  0  0  0
 36 68  1  0  0  0
 37 38  1  0  0  0
 37 69  1  0  0  0
 38 70  1  0  0  0
M  END
> <s_m_entry_id>
26297

> <s_m_entry_name>
dock_pv.121

> <s_m_Source_Path>
/home/csk/Desktop/cluster/DUD-E-result/reni

> <s_m_Source_File>
dock_pv.maegz

> <i_m_Source_File_Index>
121

> <chembl_id>
CHEMBL195971

> <chembl_pref_name>
None

> <i_lp_mmshare_version>
53161

> <r_lp_tautomer_probability>
1

> <s_lp_Force_Field>
OPLS_2005

> <r_lp_Energy>
56.774076

> <b_lp_Chiralities_Consistent>
1

> <s_lp_Variant>
CHEMBL286_lig1555-1

> <s_i_glide_gridfile>
glide-grid_3g6z

> <i_i_glide_lignum>
5259

> <i_i_glide_rotatable_bonds>
13

> <r_i_docking_score>
-7.66175636756809

> <r_i_glide_ligand_efficiency>
-0.201625167567581

> <r_i_glide_ligand_efficiency_sa>
-0.677858853932005

> <r_i_glide_ligand_efficiency_ln>
-1.65210005888497

> <r_i_glide_gscore>
-7.66175636756809

> <r_i_glide_lipo>
-4.26512693118561

> <r_i_glide_hbond>
-0.415442766163339

> <r_i_glide_metal>
0

> <r_i_glide_rewards>
0.059889172339248

> <r_i_glide_evdw>
-49.521728515625

> <r_i_glide_ecoul>
-8.44791507720947

> <r_i_glide_erotb>
0.771808904167907

> <r_i_glide_esite>
-0.0696110593636233

> <r_i_glide_emodel>
-80.0110742725327

> <r_i_glide_energy>
-57.9696435928345

> <r_i_glide_einternal>
11.1800584793091

> <i_i_glide_confnum>
33

> <i_i_glide_posenum>
333

> <r_i_glide_eff_state_penalty>
0

> <s_user_duplicate_titles>
CHEMBL286_lig1555,326749

> <i_f3d_flags>
0

> <s_m_subgroup_title>
dock_pv

> <s_m_subgroupid>
dock_pv

> <b_m_subgroup_collapsed>
1

$$$$
CHEMBL286_lig498
                    3D
 Schrodinger Suite 2021-1.
 92 95  0  0  1  0            999 V2000
  -11.7455  -18.3667  -11.2762 N   0  3  0  0  0  0
   -5.7395  -18.1217  -10.5815 C   0  0  0  0  0  0
   -7.0946  -15.7012   -9.1400 C   0  0  0  0  0  0
   -6.5149  -19.0417  -11.1746 N   0  0  0  0  0  0
   -6.8356  -20.3390  -10.5651 C   0  0  1  0  0  0
   -5.6375  -12.6448   -7.5290 C   0  0  0  0  0  0
   -6.2117  -15.6566  -10.1556 N   0  0  0  0  0  0
   -5.9426  -13.7177   -8.2814 N   0  0  0  0  0  0
   -5.8546  -16.6888  -11.1315 C   0  0  1  0  0  0
   -7.2492  -14.3980   -8.3320 C   0  0  1  0  0  0
  -11.4748  -17.2634  -11.2210 N   0  5  0  0  0  0
   -1.7115  -15.4538   -9.5376 N   0  0  0  0  0  0
   -8.2262  -20.8487  -11.0549 C   0  0  1  0  0  0
   -3.3541  -15.8361  -11.0648 C   0  0  0  0  0  0
   -4.5831  -16.2223  -11.8695 C   0  0  0  0  0  0
   -2.3619  -15.0492  -11.6212 N   0  0  0  0  0  0
  -11.9474  -19.5815  -11.2211 N   0  0  0  0  0  0
   -1.4231  -14.8640  -10.6892 C   0  0  0  0  0  0
   -2.9398  -16.0774   -9.7692 C   0  0  0  0  0  0
   -9.3925  -19.8233  -10.8965 C   0  0  1  0  0  0
   -5.6841  -21.3844  -10.7079 C   0  0  0  0  0  0
   -5.0125  -18.3589   -9.6216 O   0  0  0  0  0  0
   -7.7624  -16.6893   -8.8342 O   0  0  0  0  0  0
   -6.4730  -12.0839   -6.8209 O   0  0  0  0  0  0
   -8.3309  -13.4655   -8.9746 C   0  0  0  0  0  0
   -4.1703  -12.1480   -7.5557 C   0  0  0  0  0  0
   -2.0180  -10.4634   -8.4010 O   0  0  0  0  0  0
  -10.8014  -20.4803  -11.0807 C   0  0  0  0  0  0
   -8.1662  -21.2633  -12.4157 O   0  0  0  0  0  0
   -9.8021  -13.6498   -8.5907 C   0  0  0  0  0  0
   -9.3469  -19.1916   -9.6230 O   0  0  0  0  0  0
   -5.3605  -22.2434   -9.4522 C   0  0  0  0  0  0
   -2.5556  -10.2726   -7.0897 C   0  0  0  0  0  0
   -2.0524  -11.8078   -8.8700 C   0  0  0  0  0  0
   -3.5108  -12.3010   -8.9488 C   0  0  0  0  0  0
   -4.0400  -10.6895   -7.0532 C   0  0  0  0  0  0
  -10.5188  -12.5703   -8.0211 C   0  0  0  0  0  0
  -10.4917  -14.8631   -8.8211 C   0  0  0  0  0  0
   -4.7277  -21.4080   -8.3104 C   0  0  0  0  0  0
   -6.5811  -23.0167   -8.8920 C   0  0  0  0  0  0
  -11.8318  -14.9856   -8.4844 C   0  0  0  0  0  0
  -11.8614  -12.7110   -7.6932 C   0  0  0  0  0  0
   -6.1830  -23.9365   -7.7188 C   0  0  0  0  0  0
   -4.3046  -22.2939   -7.1186 C   0  0  0  0  0  0
   -5.4818  -23.1433   -6.5942 C   0  0  0  0  0  0
  -12.5145  -13.9142   -7.9249 C   0  0  0  0  0  0
   -7.0573  -18.7596  -11.9779 H   0  0  0  0  0  0
   -6.9672  -20.1469   -9.4977 H   0  0  0  0  0  0
   -5.7685  -14.7701  -10.3385 H   0  0  0  0  0  0
   -5.1868  -14.1865   -8.7576 H   0  0  0  0  0  0
   -6.6652  -16.6927  -11.8611 H   0  0  0  0  0  0
   -7.4689  -14.6415   -7.2910 H   0  0  0  0  0  0
   -2.3744  -14.6791  -12.5645 H   0  0  0  0  0  0
   -8.4857  -21.7448  -10.4924 H   0  0  0  0  0  0
   -4.2914  -16.9590  -12.6187 H   0  0  0  0  0  0
   -4.8703  -15.3299  -12.4209 H   0  0  0  0  0  0
   -0.5313  -14.2758  -10.8432 H   0  0  0  0  0  0
   -3.4237  -16.6311   -8.9795 H   0  0  0  0  0  0
   -9.2616  -19.0553  -11.6597 H   0  0  0  0  0  0
   -4.7616  -20.8771  -10.9977 H   0  0  0  0  0  0
   -5.8851  -22.0529  -11.5465 H   0  0  0  0  0  0
   -8.0861  -12.4341   -8.7367 H   0  0  0  0  0  0
   -8.2688  -13.5115  -10.0646 H   0  0  0  0  0  0
   -3.6804  -12.8125   -6.8439 H   0  0  0  0  0  0
  -10.7817  -21.1113  -11.9705 H   0  0  0  0  0  0
  -10.9953  -21.1643  -10.2513 H   0  0  0  0  0  0
   -7.8624  -20.5346  -12.9664 H   0  0  0  0  0  0
   -8.6391  -18.5367   -9.5972 H   0  0  0  0  0  0
   -4.6208  -22.9897   -9.7514 H   0  0  0  0  0  0
   -1.9707  -10.8358   -6.3601 H   0  0  0  0  0  0
   -2.4570   -9.2201   -6.8203 H   0  0  0  0  0  0
   -1.4518  -12.4507   -8.2257 H   0  0  0  0  0  0
   -1.5950  -11.8420   -9.8599 H   0  0  0  0  0  0
   -3.4607  -13.3395   -9.2689 H   0  0  0  0  0  0
   -4.0042  -11.6772   -9.6969 H   0  0  0  0  0  0
   -4.5668   -9.9984   -7.7139 H   0  0  0  0  0  0
   -4.3781  -10.5809   -6.0206 H   0  0  0  0  0  0
  -10.0266  -11.6283   -7.8333 H   0  0  0  0  0  0
   -9.9917  -15.7009   -9.2826 H   0  0  0  0  0  0
   -5.4135  -20.6270   -7.9799 H   0  0  0  0  0  0
   -3.8560  -20.8688   -8.6904 H   0  0  0  0  0  0
   -7.0306  -23.6141   -9.6884 H   0  0  0  0  0  0
   -7.3617  -22.3245   -8.5761 H   0  0  0  0  0  0
  -12.3501  -15.9156   -8.6727 H   0  0  0  0  0  0
  -12.4001  -11.8784   -7.2626 H   0  0  0  0  0  0
   -7.0649  -24.4405   -7.3209 H   0  0  0  0  0  0
   -5.5209  -24.7249   -8.0804 H   0  0  0  0  0  0
   -3.9056  -21.6722   -6.3148 H   0  0  0  0  0  0
   -3.4885  -22.9489   -7.4289 H   0  0  0  0  0  0
   -6.2092  -22.4865   -6.1147 H   0  0  0  0  0  0
   -5.1280  -23.8293   -5.8227 H   0  0  0  0  0  0
  -13.5604  -14.0140   -7.6721 H   0  0  0  0  0  0
  1 11  2  0  0  0
  1 17  2  0  0  0
  2  4  1  0  0  0
  2  9  1  0  0  0
  2 22  2  0  0  0
  3  7  1  0  0  0
  3 10  1  0  0  0
  3 23  2  0  0  0
  4  5  1  0  0  0
  4 47  1  0  0  0
  5 13  1  0  0  0
  5 21  1  0  0  0
  5 48  1  0  0  0
  6  8  1  0  0  0
  6 24  2  0  0  0
  6 26  1  0  0  0
  7  9  1  0  0  0
  7 49  1  0  0  0
  8 10  1  0  0  0
  8 50  1  0  0  0
  9 15  1  0  0  0
  9 51  1  0  0  0
 10 25  1  0  0  0
 10 52  1  0  0  0
 12 18  2  0  0  0
 12 19  1  0  0  0
 13 20  1  0  0  0
 13 29  1  0  0  0
 13 54  1  0  0  0
 14 19  2  0  0  0
 14 15  1  0  0  0
 14 16  1  0  0  0
 15 55  1  0  0  0
 15 56  1  0  0  0
 16 53  1  0  0  0
 16 18  1  0  0  0
 17 28  1  0  0  0
 18 57  1  0  0  0
 19 58  1  0  0  0
 20 28  1  0  0  0
 20 31  1  0  0  0
 20 59  1  0  0  0
 21 32  1  0  0  0
 21 60  1  0  0  0
 21 61  1  0  0  0
 25 30  1  0  0  0
 25 62  1  0  0  0
 25 63  1  0  0  0
 26 35  1  0  0  0
 26 36  1  0  0  0
 26 64  1  0  0  0
 27 33  1  0  0  0
 27 34  1  0  0  0
 28 65  1  0  0  0
 28 66  1  0  0  0
 29 67  1  0  0  0
 30 37  1  0  0  0
 30 38  2  0  0  0
 31 68  1  0  0  0
 32 39  1  0  0  0
 32 40  1  0  0  0
 32 69  1  0  0  0
 33 36  1  0  0  0
 33 70  1  0  0  0
 33 71  1  0  0  0
 34 35  1  0  0  0
 34 72  1  0  0  0
 34 73  1  0  0  0
 35 74  1  0  0  0
 35 75  1  0  0  0
 36 76  1  0  0  0
 36 77  1  0  0  0
 37 42  2  0  0  0
 37 78  1  0  0  0
 38 41  1  0  0  0
 38 79  1  0  0  0
 39 44  1  0  0  0
 39 80  1  0  0  0
 39 81  1  0  0  0
 40 43  1  0  0  0
 40 82  1  0  0  0
 40 83  1  0  0  0
 41 46  2  0  0  0
 41 84  1  0  0  0
 42 46  1  0  0  0
 42 85  1  0  0  0
 43 45  1  0  0  0
 43 86  1  0  0  0
 43 87  1  0  0  0
 44 45  1  0  0  0
 44 88  1  0  0  0
 44 89  1  0  0  0
 45 90  1  0  0  0
 45 91  1  0  0  0
 46 92  1  0  0  0
M  CHG  2   1   1  11  -1
M  END
> <s_m_entry_id>
26298

> <s_m_entry_name>
dock_pv.122

> <s_m_Source_Path>
/home/csk/Desktop/cluster/DUD-E-result/reni

> <s_m_Source_File>
dock_pv.maegz

> <i_m_Source_File_Index>
122

> <chembl_id>
CHEMBL280744

> <chembl_pref_name>
None

> <i_lp_mmshare_version>
53161

> <r_lp_tautomer_probability>
0.499999999999999

> <s_lp_Force_Field>
OPLS_2005

> <r_lp_Energy>
34.574239

> <b_lp_Chiralities_Consistent>
1

> <s_lp_Variant>
CHEMBL286_lig498-2

> <s_i_glide_gridfile>
glide-grid_3g6z

> <i_i_glide_lignum>
1118

> <i_i_glide_rotatable_bonds>
21

> <r_i_docking_score>
-7.65791799848429

> <r_i_glide_ligand_efficiency>
-0.166476478227919

> <r_i_glide_ligand_efficiency_sa>
-0.596493190127526

> <r_i_glide_ligand_efficiency_ln>
-1.5859363679507

> <r_i_glide_gscore>
-7.65791799848429

> <r_i_glide_lipo>
-3.22239841286199

> <r_i_glide_hbond>
-0.227421253744276

> <r_i_glide_metal>
0

> <r_i_glide_rewards>
-1.14980810380744

> <r_i_glide_evdw>
-50.8392181396484

> <r_i_glide_ecoul>
-7.52811336517334

> <r_i_glide_erotb>
0.634704285978555

> <r_i_glide_esite>
-0.0218166022907166

> <r_i_glide_emodel>
-76.9597902459804

> <r_i_glide_energy>
-58.3673315048218

> <r_i_glide_einternal>
17.6624965667725

> <i_i_glide_confnum>
36

> <i_i_glide_posenum>
292

> <r_i_glide_eff_state_penalty>
0

> <s_user_duplicate_titles>
CHEMBL286_lig498

> <i_f3d_flags>
0

> <s_m_subgroup_title>
dock_pv

> <s_m_subgroupid>
dock_pv

> <b_m_subgroup_collapsed>
1

$$$$
CHEMBL286_lig2102
                    3D
 Schrodinger Suite 2021-1.
 72 76  0  0  1  0            999 V2000
   -4.0836  -17.0286  -12.0113 C   0  0  0  0  0  0
   -4.9803  -17.7585  -13.0233 C   0  0  0  0  0  0
   -6.2701  -18.1011  -12.4203 N   0  0  1  0  0  0
   -6.9666  -17.0157  -11.7150 C   0  0  0  0  0  0
   -6.0704  -16.1265  -10.7893 C   0  0  1  0  0  0
   -4.7700  -15.7281  -11.5479 C   0  0  1  0  0  0
   -6.9038  -14.8558  -10.4618 C   0  0  0  0  0  0
   -7.2666  -14.5777   -9.1783 N   0  0  0  0  0  0
   -7.2555  -14.1329  -11.3999 O   0  0  0  0  0  0
   -6.8647  -15.3588   -8.0015 C   0  0  0  0  0  0
   -8.3390  -13.6010   -8.9063 C   0  0  0  0  0  0
   -5.4020  -15.4994   -7.6255 C   0  0  0  0  0  0
   -6.3064  -14.6370   -6.7912 C   0  0  0  0  0  0
   -9.7757  -14.1397   -8.8211 C   0  0  0  0  0  0
  -10.0868  -15.4529   -9.1932 C   0  0  0  0  0  0
  -11.3884  -15.9377   -9.1267 C   0  0  0  0  0  0
  -12.4216  -15.1124   -8.6891 C   0  0  0  0  0  0
   -3.8137  -14.7428  -10.8504 C   0  0  0  0  0  0
   -2.6926  -15.1341  -10.1835 C   0  0  0  0  0  0
   -1.7193  -14.2246   -9.5777 C   0  0  0  0  0  0
   -1.9523  -12.8830   -9.8104 N   0  0  0  0  0  0
   -3.0845  -12.4738  -10.4733 C   0  0  0  0  0  0
   -4.0159  -13.3016  -10.9821 C   0  0  0  0  0  0
   -0.7901  -14.6766   -8.9069 O   0  0  0  0  0  0
   -0.9821  -11.9135   -9.2868 C   0  0  0  0  0  0
  -11.6593  -17.3948   -9.4536 C   0  0  0  0  0  0
  -11.4126  -17.8126  -10.9148 C   0  0  0  0  0  0
  -11.5922  -19.3292  -11.1210 C   0  0  0  0  0  0
  -12.9745  -19.6630  -11.2211 O   0  0  0  0  0  0
  -13.2295  -21.0568  -11.3163 C   0  0  0  0  0  0
  -10.8238  -13.2721   -8.3778 C   0  0  0  0  0  0
  -12.1620  -13.7753   -8.3145 C   0  0  0  0  0  0
  -13.1897  -12.9059   -7.8676 C   0  0  0  0  0  0
  -12.8734  -11.5987   -7.5134 C   0  0  0  0  0  0
  -11.5513  -11.1801   -7.6077 C   0  0  0  0  0  0
  -10.5420  -11.9829   -8.0209 N   0  0  0  0  0  0
   -3.1117  -16.8121  -12.4529 H   0  0  0  0  0  0
   -3.8931  -17.6993  -11.1713 H   0  0  0  0  0  0
   -5.1702  -17.1338  -13.8971 H   0  0  0  0  0  0
   -4.4909  -18.6653  -13.3767 H   0  0  0  0  0  0
   -6.8947  -18.4673  -13.1328 H   0  0  0  0  0  0
   -7.7954  -17.4441  -11.1494 H   0  0  0  0  0  0
   -7.3970  -16.4176  -12.5218 H   0  0  0  0  0  0
   -5.8199  -16.6826   -9.8902 H   0  0  0  0  0  0
   -5.0687  -15.2016  -12.4521 H   0  0  0  0  0  0
   -7.5150  -16.2148   -7.8157 H   0  0  0  0  0  0
   -8.3453  -12.8629   -9.7022 H   0  0  0  0  0  0
   -8.1068  -13.0612   -7.9879 H   0  0  0  0  0  0
   -5.0694  -16.4569   -7.2290 H   0  0  0  0  0  0
   -4.6381  -15.0081   -8.2251 H   0  0  0  0  0  0
   -6.1729  -13.5552   -6.8236 H   0  0  0  0  0  0
   -6.6342  -14.9832   -5.8117 H   0  0  0  0  0  0
   -9.3082  -16.1198   -9.5297 H   0  0  0  0  0  0
  -13.4309  -15.4921   -8.6223 H   0  0  0  0  0  0
   -2.4720  -16.1848  -10.0798 H   0  0  0  0  0  0
   -3.1638  -11.3969  -10.5317 H   0  0  0  0  0  0
   -4.8854  -12.9088  -11.4915 H   0  0  0  0  0  0
   -0.6514  -11.2564  -10.0920 H   0  0  0  0  0  0
   -1.4454  -11.2980   -8.5166 H   0  0  0  0  0  0
   -0.0897  -12.3699   -8.8584 H   0  0  0  0  0  0
  -12.6694  -17.6632   -9.1469 H   0  0  0  0  0  0
  -10.9788  -17.9605   -8.8213 H   0  0  0  0  0  0
  -10.3949  -17.5428  -11.2003 H   0  0  0  0  0  0
  -12.0682  -17.2620  -11.5903 H   0  0  0  0  0  0
  -11.1178  -19.8786  -10.3062 H   0  0  0  0  0  0
  -11.0692  -19.6328  -12.0209 H   0  0  0  0  0  0
  -14.3019  -21.2243  -11.4125 H   0  0  0  0  0  0
  -12.8931  -21.5817  -10.4234 H   0  0  0  0  0  0
  -12.7431  -21.5048  -12.1825 H   0  0  0  0  0  0
  -14.2093  -13.2580   -7.8041 H   0  0  0  0  0  0
  -13.6388  -10.9149   -7.1771 H   0  0  0  0  0  0
  -11.2822  -10.1650   -7.3516 H   0  0  0  0  0  0
  1  6  1  0  0  0
  1  2  1  0  0  0
  1 37  1  0  0  0
  1 38  1  0  0  0
  2  3  1  0  0  0
  2 39  1  0  0  0
  2 40  1  0  0  0
  3  4  1  0  0  0
  3 41  1  0  0  0
  4  5  1  0  0  0
  4 42  1  0  0  0
  4 43  1  0  0  0
  5  6  1  0  0  0
  5  7  1  0  0  0
  5 44  1  0  0  0
  6 18  1  0  0  0
  6 45  1  0  0  0
  7  9  2  0  0  0
  7  8  1  0  0  0
  8 10  1  0  0  0
  8 11  1  0  0  0
 10 12  1  0  0  0
 10 13  1  0  0  0
 10 46  1  0  0  0
 11 14  1  0  0  0
 11 47  1  0  0  0
 11 48  1  0  0  0
 12 13  1  0  0  0
 12 49  1  0  0  0
 12 50  1  0  0  0
 13 51  1  0  0  0
 13 52  1  0  0  0
 14 31  1  0  0  0
 14 15  2  0  0  0
 15 16  1  0  0  0
 15 53  1  0  0  0
 16 26  1  0  0  0
 16 17  2  0  0  0
 17 32  1  0  0  0
 17 54  1  0  0  0
 18 19  2  0  0  0
 18 23  1  0  0  0
 19 20  1  0  0  0
 19 55  1  0  0  0
 20 21  1  0  0  0
 20 24  2  0  0  0
 21 22  1  0  0  0
 21 25  1  0  0  0
 22 23  2  0  0  0
 22 56  1  0  0  0
 23 57  1  0  0  0
 25 58  1  0  0  0
 25 59  1  0  0  0
 25 60  1  0  0  0
 26 27  1  0  0  0
 26 61  1  0  0  0
 26 62  1  0  0  0
 27 28  1  0  0  0
 27 63  1  0  0  0
 27 64  1  0  0  0
 28 29  1  0  0  0
 28 65  1  0  0  0
 28 66  1  0  0  0
 29 30  1  0  0  0
 30 67  1  0  0  0
 30 68  1  0  0  0
 30 69  1  0  0  0
 31 32  1  0  0  0
 31 36  2  0  0  0
 32 33  2  0  0  0
 33 34  1  0  0  0
 33 70  1  0  0  0
 34 35  2  0  0  0
 34 71  1  0  0  0
 35 36  1  0  0  0
 35 72  1  0  0  0
M  END
> <s_m_entry_id>
26299

> <s_m_entry_name>
dock_pv.123

> <s_m_Source_Path>
/home/csk/Desktop/cluster/DUD-E-result/reni

> <s_m_Source_File>
dock_pv.maegz

> <i_m_Source_File_Index>
123

> <chembl_id>
CHEMBL1796067

> <chembl_pref_name>
None

> <i_lp_mmshare_version>
53161

> <r_lp_tautomer_probability>
1

> <s_lp_Force_Field>
OPLS_2005

> <r_lp_Energy>
63.240225

> <b_lp_Chiralities_Consistent>
1

> <s_lp_Variant>
CHEMBL286_lig2102-1

> <s_i_glide_gridfile>
glide-grid_3g6z

> <i_i_glide_lignum>
6088

> <i_i_glide_rotatable_bonds>
10

> <r_i_docking_score>
-7.64727164374336

> <r_i_glide_ligand_efficiency>
-0.212424212326204

> <r_i_glide_ligand_efficiency_sa>
-0.701409294167035

> <r_i_glide_ligand_efficiency_ln>
-1.66842806726118

> <r_i_glide_gscore>
-7.64727164374336

> <r_i_glide_lipo>
-3.70821038996592

> <r_i_glide_hbond>
-0.32

> <r_i_glide_metal>
0

> <r_i_glide_rewards>
-1.22486237275481

> <r_i_glide_evdw>
-44.0234451293945

> <r_i_glide_ecoul>
-6.36738061904907

> <r_i_glide_erotb>
0.766655906078763

> <r_i_glide_esite>
-0.00457543777430357

> <r_i_glide_emodel>
-68.6663214184748

> <r_i_glide_energy>
-50.3908257484436

> <r_i_glide_einternal>
6.62823438644409

> <i_i_glide_confnum>
187

> <i_i_glide_posenum>
270

> <r_i_glide_eff_state_penalty>
0

> <s_user_duplicate_titles>
CHEMBL286_lig2102

> <i_f3d_flags>
0

> <s_m_subgroup_title>
dock_pv

> <s_m_subgroupid>
dock_pv

> <b_m_subgroup_collapsed>
1

$$$$
CHEMBL286_lig2919
                    3D
 Schrodinger Suite 2021-1.
 61 64  0  0  1  0            999 V2000
   -3.0211  -18.1840  -12.2152 N   0  0  0  0  0  0
   -2.5528  -17.6751  -10.9288 C   0  0  1  0  0  0
   -3.2250  -16.2806  -10.6939 C   0  0  0  0  0  0
   -4.7172  -16.1844  -11.0870 C   0  0  0  0  0  0
   -5.1190  -17.0393  -12.0858 N   0  0  0  0  0  0
   -4.3443  -18.0082  -12.6924 C   0  0  0  0  0  0
   -4.7412  -18.7669  -13.6194 N   0  0  0  0  0  0
   -5.4436  -15.3567  -10.5278 O   0  0  0  0  0  0
   -6.5416  -16.8776  -12.4948 C   0  0  0  0  0  0
   -7.5448  -17.6748  -11.6580 C   0  0  0  0  0  0
   -8.4453  -17.0182  -10.8117 C   0  0  0  0  0  0
   -9.3973  -17.7536  -10.0969 C   0  0  0  0  0  0
   -9.4664  -19.1437  -10.2521 C   0  0  0  0  0  0
   -8.5778  -19.7965  -11.1018 C   0  0  0  0  0  0
   -7.6210  -19.0650  -11.8023 C   0  0  0  0  0  0
   -2.8334  -18.7016   -9.7614 C   0  0  0  0  0  0
   -4.3103  -19.1043   -9.5363 C   0  0  0  0  0  0
   -2.2073  -18.2952   -8.4091 C   0  0  0  0  0  0
   -1.0369  -17.4150  -11.1224 C   0  0  0  0  0  0
  -10.2836  -17.0923   -9.2353 N   0  0  0  0  0  0
  -10.2636  -17.2617   -7.8915 C   0  0  0  0  0  0
  -11.4366  -16.4712   -7.3159 C   0  0  0  0  0  0
  -12.0732  -15.7120   -8.4677 C   0  0  2  0  0  0
  -11.4467  -16.3414   -9.7032 C   0  0  0  0  0  0
   -9.4689  -17.9206   -7.2211 O   0  0  0  0  0  0
  -11.9459  -14.1950   -8.3324 C   0  0  0  0  0  0
  -10.6967  -13.5704   -8.4072 C   0  0  0  0  0  0
  -10.5902  -12.2044   -8.1609 C   0  0  0  0  0  0
  -11.7313  -11.4475   -7.9074 C   0  0  0  0  0  0
  -12.9801  -12.0582   -7.8517 C   0  0  0  0  0  0
  -13.0810  -13.4299   -8.0472 C   0  0  0  0  0  0
   -2.5876  -19.0444  -12.5093 H   0  0  0  0  0  0
   -3.1129  -15.9453   -9.6636 H   0  0  0  0  0  0
   -2.7445  -15.5179  -11.3082 H   0  0  0  0  0  0
   -5.6874  -18.5371  -13.9058 H   0  0  0  0  0  0
   -6.8334  -15.8265  -12.4685 H   0  0  0  0  0  0
   -6.6690  -17.1360  -13.5463 H   0  0  0  0  0  0
   -8.3979  -15.9439  -10.7063 H   0  0  0  0  0  0
  -10.2011  -19.7242   -9.7185 H   0  0  0  0  0  0
   -8.6338  -20.8690  -11.2265 H   0  0  0  0  0  0
   -6.9550  -19.5873  -12.4712 H   0  0  0  0  0  0
   -2.3248  -19.6249  -10.0478 H   0  0  0  0  0  0
   -4.9182  -18.2573   -9.2211 H   0  0  0  0  0  0
   -4.3919  -19.8596   -8.7554 H   0  0  0  0  0  0
   -4.7640  -19.5367  -10.4267 H   0  0  0  0  0  0
   -2.6563  -17.3816   -8.0194 H   0  0  0  0  0  0
   -2.3567  -19.0701   -7.6561 H   0  0  0  0  0  0
   -1.1319  -18.1370   -8.4800 H   0  0  0  0  0  0
   -0.6025  -16.8795  -10.2767 H   0  0  0  0  0  0
   -0.4826  -18.3465  -11.2480 H   0  0  0  0  0  0
   -0.8358  -16.8093  -12.0059 H   0  0  0  0  0  0
  -12.1561  -17.1173   -6.8225 H   0  0  0  0  0  0
  -11.0707  -15.8089   -6.5324 H   0  0  0  0  0  0
  -13.1448  -15.9300   -8.4960 H   0  0  0  0  0  0
  -11.2875  -15.6631  -10.5391 H   0  0  0  0  0  0
  -12.1210  -17.1092  -10.0914 H   0  0  0  0  0  0
   -9.8053  -14.1490   -8.6055 H   0  0  0  0  0  0
   -9.6221  -11.7288   -8.1652 H   0  0  0  0  0  0
  -11.6481  -10.3845   -7.7394 H   0  0  0  0  0  0
  -13.8616  -11.4690   -7.6416 H   0  0  0  0  0  0
  -14.0460  -13.9035   -7.9597 H   0  0  0  0  0  0
  1  2  1  0  0  0
  1  6  1  0  0  0
  1 32  1  0  0  0
  2  3  1  0  0  0
  2 16  1  0  0  0
  2 19  1  0  0  0
  3  4  1  0  0  0
  3 33  1  0  0  0
  3 34  1  0  0  0
  4  5  1  0  0  0
  4  8  2  0  0  0
  5  6  1  0  0  0
  5  9  1  0  0  0
  6  7  2  0  0  0
  7 35  1  0  0  0
  9 10  1  0  0  0
  9 36  1  0  0  0
  9 37  1  0  0  0
 10 11  2  0  0  0
 10 15  1  0  0  0
 11 12  1  0  0  0
 11 38  1  0  0  0
 12 13  2  0  0  0
 12 20  1  0  0  0
 13 14  1  0  0  0
 13 39  1  0  0  0
 14 15  2  0  0  0
 14 40  1  0  0  0
 15 41  1  0  0  0
 16 17  1  0  0  0
 16 18  1  0  0  0
 16 42  1  0  0  0
 17 43  1  0  0  0
 17 44  1  0  0  0
 17 45  1  0  0  0
 18 46  1  0  0  0
 18 47  1  0  0  0
 18 48  1  0  0  0
 19 49  1  0  0  0
 19 50  1  0  0  0
 19 51  1  0  0  0
 20 21  1  0  0  0
 20 24  1  0  0  0
 21 22  1  0  0  0
 21 25  2  0  0  0
 22 23  1  0  0  0
 22 52  1  0  0  0
 22 53  1  0  0  0
 23 24  1  0  0  0
 23 26  1  0  0  0
 23 54  1  0  0  0
 24 55  1  0  0  0
 24 56  1  0  0  0
 26 27  2  0  0  0
 26 31  1  0  0  0
 27 28  1  0  0  0
 27 57  1  0  0  0
 28 29  2  0  0  0
 28 58  1  0  0  0
 29 30  1  0  0  0
 29 59  1  0  0  0
 30 31  2  0  0  0
 30 60  1  0  0  0
 31 61  1  0  0  0
M  END
> <s_m_entry_id>
26300

> <s_m_entry_name>
dock_pv.124

> <s_m_Source_Path>
/home/csk/Desktop/cluster/DUD-E-result/reni

> <s_m_Source_File>
dock_pv.maegz

> <i_m_Source_File_Index>
124

> <chembl_id>
CHEMBL3401343

> <chembl_pref_name>
None

> <i_lp_mmshare_version>
53161

> <r_lp_tautomer_probability>
0.5

> <s_lp_Force_Field>
OPLS_2005

> <r_lp_Energy>
50.565869

> <b_lp_Chiralities_Consistent>
1

> <s_lp_Variant>
CHEMBL286_lig2919-1

> <s_i_glide_gridfile>
glide-grid_3g6z

> <i_i_glide_lignum>
7135

> <i_i_glide_rotatable_bonds>
5

> <r_i_docking_score>
-7.64615375259742

> <r_i_glide_ligand_efficiency>
-0.24665012105153

> <r_i_glide_ligand_efficiency_sa>
-0.774821917294361

> <r_i_glide_ligand_efficiency_ln>
-1.72444199768169

> <r_i_glide_gscore>
-7.64615375259742

> <r_i_glide_lipo>
-3.17390068828354

> <r_i_glide_hbond>
-0.316804417255985

> <r_i_glide_metal>
0

> <r_i_glide_rewards>
-1.8116908261111

> <r_i_glide_evdw>
-36.2510223388672

> <r_i_glide_ecoul>
-6.4965672492981

> <r_i_glide_erotb>
0.451567998056149

> <r_i_glide_esite>
-0.00828961466487075

> <r_i_glide_emodel>
-57.720343764595

> <r_i_glide_energy>
-42.7475895881653

> <r_i_glide_einternal>
7.11932229995728

> <i_i_glide_confnum>
34

> <i_i_glide_posenum>
49

> <r_i_glide_eff_state_penalty>
0

> <s_user_duplicate_titles>
CHEMBL286_lig2919

> <i_f3d_flags>
0

> <s_m_subgroup_title>
dock_pv

> <s_m_subgroupid>
dock_pv

> <b_m_subgroup_collapsed>
1

$$$$
CHEMBL286_lig2752
                    3D
 Schrodinger Suite 2021-1.
 63 66  0  0  1  0            999 V2000
  -13.5806  -21.3620  -11.4131 C   0  0  0  0  0  0
  -12.9342  -20.1025  -11.4840 O   0  0  0  0  0  0
  -11.5665  -20.1514  -11.0815 C   0  0  0  0  0  0
  -10.8530  -18.8188  -11.3699 C   0  0  0  0  0  0
  -11.6580  -17.5471  -11.0397 C   0  0  0  0  0  0
  -11.6880  -17.1685   -9.5456 C   0  0  0  0  0  0
  -10.6877  -16.1547   -9.2539 N   0  0  0  0  0  0
   -9.3309  -16.3085   -9.4318 C   0  0  0  0  0  0
   -8.6460  -15.1262   -9.2270 C   0  0  0  0  0  0
   -7.1596  -14.8307   -9.4074 C   0  0  1  0  0  0
   -6.3492  -15.1381   -8.1289 C   0  0  0  0  0  0
   -6.6153  -15.3936  -10.6749 N   0  0  0  0  0  0
   -6.4544  -14.4259  -11.7826 C   0  0  0  0  0  0
   -7.4431  -14.4889  -12.9407 C   0  0  0  0  0  0
   -7.4474  -13.2998  -12.0272 C   0  0  0  0  0  0
   -6.2881  -16.7142  -10.8279 C   0  0  0  0  0  0
   -6.4134  -17.5332   -9.9135 O   0  0  0  0  0  0
   -5.7026  -17.2343  -12.1650 C   0  0  1  0  0  0
   -4.1866  -17.3955  -12.1701 C   0  0  0  0  0  0
   -3.9810  -18.4701  -13.2420 C   0  0  0  0  0  0
   -5.2942  -18.9845  -13.6221 N   0  0  1  0  0  0
   -6.1927  -18.6350  -12.5342 C   0  0  0  0  0  0
   -9.6612  -14.1985   -8.8210 C   0  0  0  0  0  0
   -9.6577  -12.8624   -8.4199 C   0  0  0  0  0  0
  -10.8685  -12.2585   -8.0699 C   0  0  0  0  0  0
  -12.0470  -13.0052   -8.1338 C   0  0  0  0  0  0
  -13.3830  -12.3751   -7.7868 C   0  0  0  0  0  0
  -12.1012  -14.3126   -8.5035 N   0  0  0  0  0  0
  -10.9202  -14.8647   -8.8212 C   0  0  0  0  0  0
  -14.6446  -21.2466  -11.6193 H   0  0  0  0  0  0
  -13.4690  -21.7985  -10.4215 H   0  0  0  0  0  0
  -13.1708  -22.0577  -12.1469 H   0  0  0  0  0  0
  -11.4956  -20.3917  -10.0216 H   0  0  0  0  0  0
  -11.0409  -20.9469  -11.6140 H   0  0  0  0  0  0
   -9.8868  -18.8202  -10.8702 H   0  0  0  0  0  0
  -10.6024  -18.7754  -12.4210 H   0  0  0  0  0  0
  -11.2606  -16.7154  -11.6210 H   0  0  0  0  0  0
  -12.6680  -17.6634  -11.4200 H   0  0  0  0  0  0
  -12.6692  -16.7879   -9.2644 H   0  0  0  0  0  0
  -11.4967  -18.0210   -8.9108 H   0  0  0  0  0  0
   -8.9422  -17.2613   -9.7521 H   0  0  0  0  0  0
   -7.0690  -13.7496   -9.5141 H   0  0  0  0  0  0
   -6.6548  -14.4842   -7.3113 H   0  0  0  0  0  0
   -6.4905  -16.1629   -7.7855 H   0  0  0  0  0  0
   -5.2820  -14.9839   -8.2898 H   0  0  0  0  0  0
   -5.4082  -14.2254  -12.0222 H   0  0  0  0  0  0
   -7.0546  -14.3875  -13.9543 H   0  0  0  0  0  0
   -8.2695  -15.2003  -12.8886 H   0  0  0  0  0  0
   -8.2688  -13.1594  -11.3288 H   0  0  0  0  0  0
   -7.0752  -12.3518  -12.4174 H   0  0  0  0  0  0
   -5.9847  -16.5555  -12.9655 H   0  0  0  0  0  0
   -3.6826  -16.4627  -12.4210 H   0  0  0  0  0  0
   -3.8142  -17.7477  -11.2059 H   0  0  0  0  0  0
   -3.4591  -18.0687  -14.1108 H   0  0  0  0  0  0
   -3.3703  -19.2848  -12.8485 H   0  0  0  0  0  0
   -5.6359  -18.4676  -14.4344 H   0  0  0  0  0  0
   -6.0310  -19.3847  -11.7564 H   0  0  0  0  0  0
   -7.1938  -18.6553  -12.9605 H   0  0  0  0  0  0
   -8.7247  -12.3271   -8.3431 H   0  0  0  0  0  0
  -10.8892  -11.2241   -7.7558 H   0  0  0  0  0  0
  -13.2803  -11.3154   -7.5495 H   0  0  0  0  0  0
  -14.0764  -12.4619   -8.6238 H   0  0  0  0  0  0
  -13.8235  -12.8718   -6.9219 H   0  0  0  0  0  0
  1  2  1  0  0  0
  1 30  1  0  0  0
  1 31  1  0  0  0
  1 32  1  0  0  0
  2  3  1  0  0  0
  3  4  1  0  0  0
  3 33  1  0  0  0
  3 34  1  0  0  0
  4  5  1  0  0  0
  4 35  1  0  0  0
  4 36  1  0  0  0
  5  6  1  0  0  0
  5 37  1  0  0  0
  5 38  1  0  0  0
  6  7  1  0  0  0
  6 39  1  0  0  0
  6 40  1  0  0  0
  7  8  1  0  0  0
  7 29  1  0  0  0
  8  9  2  0  0  0
  8 41  1  0  0  0
  9 10  1  0  0  0
  9 23  1  0  0  0
 10 11  1  0  0  0
 10 12  1  0  0  0
 10 42  1  0  0  0
 11 43  1  0  0  0
 11 44  1  0  0  0
 11 45  1  0  0  0
 12 13  1  0  0  0
 12 16  1  0  0  0
 13 14  1  0  0  0
 13 15  1  0  0  0
 13 46  1  0  0  0
 14 15  1  0  0  0
 14 47  1  0  0  0
 14 48  1  0  0  0
 15 49  1  0  0  0
 15 50  1  0  0  0
 16 17  2  0  0  0
 16 18  1  0  0  0
 18 19  1  0  0  0
 18 22  1  0  0  0
 18 51  1  0  0  0
 19 20  1  0  0  0
 19 52  1  0  0  0
 19 53  1  0  0  0
 20 21  1  0  0  0
 20 54  1  0  0  0
 20 55  1  0  0  0
 21 22  1  0  0  0
 21 56  1  0  0  0
 22 57  1  0  0  0
 22 58  1  0  0  0
 23 24  2  0  0  0
 23 29  1  0  0  0
 24 25  1  0  0  0
 24 59  1  0  0  0
 25 26  2  0  0  0
 25 60  1  0  0  0
 26 27  1  0  0  0
 26 28  1  0  0  0
 27 61  1  0  0  0
 27 62  1  0  0  0
 27 63  1  0  0  0
 28 29  2  0  0  0
M  END
> <s_m_entry_id>
26301

> <s_m_entry_name>
dock_pv.125

> <s_m_Source_Path>
/home/csk/Desktop/cluster/DUD-E-result/reni

> <s_m_Source_File>
dock_pv.maegz

> <i_m_Source_File_Index>
125

> <chembl_id>
CHEMBL3984565

> <chembl_pref_name>
None

> <i_lp_mmshare_version>
53161

> <r_lp_tautomer_probability>
1

> <s_lp_Force_Field>
OPLS_2005

> <r_lp_Energy>
60.453902

> <b_lp_Chiralities_Consistent>
1

> <s_lp_Variant>
CHEMBL286_lig2752-4

> <s_i_glide_gridfile>
glide-grid_3g6z

> <i_i_glide_lignum>
6843

> <i_i_glide_rotatable_bonds>
10

> <r_i_docking_score>
-7.64189695743617

> <r_i_glide_ligand_efficiency>
-0.263513688187454

> <r_i_glide_ligand_efficiency_sa>
-0.809597537108131

> <r_i_glide_ligand_efficiency_ln>
-1.74980062146599

> <r_i_glide_gscore>
-7.64189695743617

> <r_i_glide_lipo>
-3.37426330972656

> <r_i_glide_hbond>
-0.608

> <r_i_glide_metal>
0

> <r_i_glide_rewards>
-1.58799243773655

> <r_i_glide_evdw>
-36.0201225280762

> <r_i_glide_ecoul>
-9.18976497650146

> <r_i_glide_erotb>
1.10977110511111

> <r_i_glide_esite>
-0.00194144220513854

> <r_i_glide_emodel>
-61.2601255232658

> <r_i_glide_energy>
-45.2098875045776

> <r_i_glide_einternal>
5.54621505737305

> <i_i_glide_confnum>
392

> <i_i_glide_posenum>
239

> <r_i_glide_eff_state_penalty>
0

> <s_user_duplicate_titles>
CHEMBL286_lig2752

> <i_f3d_flags>
0

> <s_m_subgroup_title>
dock_pv

> <s_m_subgroupid>
dock_pv

> <b_m_subgroup_collapsed>
1

$$$$
CHEMBL286_lig2797
                    3D
 Schrodinger Suite 2021-1.
 54 56  0  0  1  0            999 V2000
   -9.0170  -16.2363   -9.1154 C   0  0  0  0  0  0
   -8.5829  -14.9133   -9.2231 C   0  0  0  0  0  0
   -9.4784  -13.8854   -8.9043 C   0  0  0  0  0  0
  -10.3189  -16.5206   -8.7162 C   0  0  0  0  0  0
  -11.2295  -15.5005   -8.4200 C   0  0  0  0  0  0
  -10.8000  -14.1527   -8.5107 C   0  0  0  0  0  0
  -11.6991  -13.1099   -8.2461 N   0  0  0  0  0  0
  -13.0318  -13.3659   -7.6818 C   0  0  0  0  0  0
  -13.1489  -14.7477   -7.0179 C   0  0  0  0  0  0
  -12.6461  -15.8426   -7.9624 C   0  0  0  0  0  0
  -11.4607  -11.6745   -8.4148 C   0  0  0  0  0  0
  -10.5773  -11.1223   -7.2872 C   0  0  0  0  0  0
  -10.2517   -9.6237   -7.4535 C   0  0  0  0  0  0
   -9.8713   -9.0673   -6.2057 O   0  0  0  0  0  0
  -10.9595   -8.7428   -5.3565 C   0  0  0  0  0  0
   -7.2041  -14.6106   -9.7147 C   0  0  0  0  0  0
   -6.8190  -14.8722  -11.0517 C   0  0  0  0  0  0
   -5.5701  -14.6207  -11.5231 N   0  0  0  0  0  0
   -4.6601  -14.0796  -10.6889 C   0  0  0  0  0  0
   -4.9463  -13.7742   -9.3628 C   0  0  0  0  0  0
   -6.2263  -14.0471   -8.8659 C   0  0  0  0  0  0
   -7.7619  -15.4351  -12.1188 C   0  0  0  0  0  0
   -3.4008  -13.8327  -11.2202 N   0  0  0  0  0  0
   -6.5106  -13.7404   -7.4011 C   0  0  0  0  0  0
   -7.9336  -14.5004  -13.3308 C   0  0  0  0  0  0
   -8.3439  -17.0486   -9.3541 H   0  0  0  0  0  0
   -9.1399  -12.8678   -9.0135 H   0  0  0  0  0  0
  -10.6264  -17.5561   -8.6456 H   0  0  0  0  0  0
  -13.5051  -12.5370   -7.1516 H   0  0  0  0  0  0
  -13.6321  -13.5245   -8.5770 H   0  0  0  0  0  0
  -12.5612  -14.7479   -6.0992 H   0  0  0  0  0  0
  -14.1757  -14.9415   -6.7126 H   0  0  0  0  0  0
  -12.6673  -16.8114   -7.4618 H   0  0  0  0  0  0
  -13.3014  -15.9180   -8.8270 H   0  0  0  0  0  0
  -12.3940  -11.1114   -8.4213 H   0  0  0  0  0  0
  -11.0366  -11.4697   -9.3980 H   0  0  0  0  0  0
   -9.6364  -11.6614   -7.2213 H   0  0  0  0  0  0
  -11.0946  -11.2976   -6.3451 H   0  0  0  0  0  0
  -11.0694   -9.0594   -7.8935 H   0  0  0  0  0  0
   -9.4131   -9.5080   -8.1368 H   0  0  0  0  0  0
  -10.5877   -8.4627   -4.3699 H   0  0  0  0  0  0
  -11.6298   -9.5854   -5.2215 H   0  0  0  0  0  0
  -11.5435   -7.9152   -5.7631 H   0  0  0  0  0  0
   -4.1824  -13.3485   -8.7265 H   0  0  0  0  0  0
   -7.3657  -16.3954  -12.4565 H   0  0  0  0  0  0
   -8.7456  -15.6619  -11.7119 H   0  0  0  0  0  0
   -2.6840  -13.3983  -10.6592 H   0  0  0  0  0  0
   -3.2449  -14.0625  -12.1943 H   0  0  0  0  0  0
   -5.6378  -13.3478   -6.8784 H   0  0  0  0  0  0
   -7.3146  -13.0119   -7.3112 H   0  0  0  0  0  0
   -6.8223  -14.6488   -6.8901 H   0  0  0  0  0  0
   -8.6689  -14.9074  -14.0207 H   0  0  0  0  0  0
   -8.2687  -13.5087  -13.0250 H   0  0  0  0  0  0
   -6.9983  -14.3866  -13.8804 H   0  0  0  0  0  0
  1  2  2  0  0  0
  1  4  1  0  0  0
  1 26  1  0  0  0
  2  3  1  0  0  0
  2 16  1  0  0  0
  3  6  2  0  0  0
  3 27  1  0  0  0
  4  5  2  0  0  0
  4 28  1  0  0  0
  5  6  1  0  0  0
  5 10  1  0  0  0
  6  7  1  0  0  0
  7  8  1  0  0  0
  7 11  1  0  0  0
  8  9  1  0  0  0
  8 29  1  0  0  0
  8 30  1  0  0  0
  9 10  1  0  0  0
  9 31  1  0  0  0
  9 32  1  0  0  0
 10 33  1  0  0  0
 10 34  1  0  0  0
 11 12  1  0  0  0
 11 35  1  0  0  0
 11 36  1  0  0  0
 12 13  1  0  0  0
 12 37  1  0  0  0
 12 38  1  0  0  0
 13 14  1  0  0  0
 13 39  1  0  0  0
 13 40  1  0  0  0
 14 15  1  0  0  0
 15 41  1  0  0  0
 15 42  1  0  0  0
 15 43  1  0  0  0
 16 17  2  0  0  0
 16 21  1  0  0  0
 17 18  1  0  0  0
 17 22  1  0  0  0
 18 19  2  0  0  0
 19 20  1  0  0  0
 19 23  1  0  0  0
 20 21  2  0  0  0
 20 44  1  0  0  0
 21 24  1  0  0  0
 22 25  1  0  0  0
 22 45  1  0  0  0
 22 46  1  0  0  0
 23 47  1  0  0  0
 23 48  1  0  0  0
 24 49  1  0  0  0
 24 50  1  0  0  0
 24 51  1  0  0  0
 25 52  1  0  0  0
 25 53  1  0  0  0
 25 54  1  0  0  0
M  END
> <s_m_entry_id>
26302

> <s_m_entry_name>
dock_pv.126

> <s_m_Source_Path>
/home/csk/Desktop/cluster/DUD-E-result/reni

> <s_m_Source_File>
dock_pv.maegz

> <i_m_Source_File_Index>
126

> <chembl_id>
CHEMBL4078887

> <chembl_pref_name>
None

> <i_lp_mmshare_version>
53161

> <r_lp_tautomer_probability>
0.999999772200052

> <s_lp_Force_Field>
OPLS_2005

> <r_lp_Energy>
20.005844

> <b_lp_Chiralities_Consistent>
1

> <s_lp_Variant>
CHEMBL286_lig2797-1

> <s_i_glide_gridfile>
glide-grid_3g6z

> <i_i_glide_lignum>
6895

> <i_i_glide_rotatable_bonds>
6

> <r_i_docking_score>
-7.63960301514553

> <r_i_glide_ligand_efficiency>
-0.305584120605821

> <r_i_glide_ligand_efficiency_sa>
-0.893533388208877

> <r_i_glide_ligand_efficiency_ln>
-1.8108148550175

> <r_i_glide_gscore>
-7.63960301514553

> <r_i_glide_lipo>
-4.02636780211884

> <r_i_glide_hbond>
-0.196052206147954

> <r_i_glide_metal>
0

> <r_i_glide_rewards>
-2.19494542850637

> <r_i_glide_evdw>
-35.5619888305664

> <r_i_glide_ecoul>
-0.511840343475342

> <r_i_glide_erotb>
0.656878924948354

> <r_i_glide_esite>
-0.0242410102710979

> <r_i_glide_emodel>
-51.0091618959856

> <r_i_glide_energy>
-36.0738291740417

> <r_i_glide_einternal>
3.85087752342224

> <i_i_glide_confnum>
135

> <i_i_glide_posenum>
128

> <r_i_glide_eff_state_penalty>
0

> <s_user_duplicate_titles>
CHEMBL286_lig2797

> <i_f3d_flags>
0

> <s_m_subgroup_title>
dock_pv

> <s_m_subgroupid>
dock_pv

> <b_m_subgroup_collapsed>
1

$$$$
CHEMBL286_lig924
                    3D
 Schrodinger Suite 2021-1.
102105  0  0  1  0            999 V2000
   -8.6586  -20.4669  -10.6842 S   0  0  0  0  0  0
   -7.8413  -19.3245  -11.7595 N   0  0  2  0  0  0
   -6.7885  -18.4090  -11.2287 C   0  0  2  0  0  0
   -7.7742  -21.9962  -10.9139 N   0  0  0  0  0  0
   -7.4781  -17.2676  -10.4274 C   0  0  0  0  0  0
   -7.8724  -14.4373   -9.1365 C   0  0  0  0  0  0
   -9.1605  -14.2778   -8.8210 N   0  0  0  0  0  0
  -10.0768  -13.1583   -9.0488 C   0  0  2  0  0  0
   -6.6985  -16.6068   -9.5479 N   0  0  0  0  0  0
   -7.2247  -15.7001   -8.5245 C   0  0  1  0  0  0
   -9.9813  -11.9818   -8.0101 C   0  0  2  0  0  0
   -8.4393  -20.0323   -9.2997 O   0  0  0  0  0  0
  -10.0144  -20.6489  -11.2117 O   0  0  0  0  0  0
  -10.7600  -10.6843   -8.4216 C   0  0  2  0  0  0
   -5.9243  -17.8984  -12.4067 C   0  0  0  0  0  0
  -11.4911  -13.7854   -9.2073 C   0  0  0  0  0  0
   -8.6857  -17.0430  -10.5606 O   0  0  0  0  0  0
   -7.2252  -13.6630   -9.8273 O   0  0  0  0  0  0
   -6.1522  -15.4215   -7.4302 C   0  0  0  0  0  0
  -10.2783   -9.3124   -7.8510 C   0  0  0  0  0  0
   -5.4460  -22.6064  -12.4162 O   0  0  0  0  0  0
   -6.4579  -22.1693  -10.2498 C   0  0  0  0  0  0
   -7.8652  -22.6795  -12.2274 C   0  0  0  0  0  0
   -8.6394  -11.6639   -7.6257 O   0  0  0  0  0  0
  -12.1354  -10.8630   -8.1836 O   0  0  0  0  0  0
   -4.5309  -17.4157  -12.0296 C   0  0  0  0  0  0
   -5.2094  -14.2352   -7.5820 C   0  0  0  0  0  0
  -12.0015  -14.5014   -7.9661 C   0  0  0  0  0  0
   -6.6594  -22.3326  -13.1215 C   0  0  0  0  0  0
   -5.2968  -21.8546  -11.2127 C   0  0  0  0  0  0
  -10.5619   -8.9360   -6.3717 C   0  0  0  0  0  0
   -3.4674  -18.3412  -11.9418 C   0  0  0  0  0  0
   -4.3113  -16.0827  -11.6208 C   0  0  0  0  0  0
   -3.9773  -14.3856   -8.2473 C   0  0  0  0  0  0
   -5.5955  -12.9450   -7.1473 C   0  0  0  0  0  0
  -12.9576  -13.5815   -7.1757 C   0  0  0  0  0  0
  -12.5634  -15.8935   -8.3397 C   0  0  0  0  0  0
  -10.2316  -10.0543   -5.3922 C   0  0  0  0  0  0
  -11.9731   -8.3955   -6.0888 C   0  0  0  0  0  0
   -3.0402  -15.6823  -11.2211 C   0  0  0  0  0  0
   -3.1483  -13.2850   -8.4362 C   0  0  0  0  0  0
   -4.7579  -11.8564   -7.3451 C   0  0  0  0  0  0
   -2.2119  -17.9242  -11.5247 C   0  0  0  0  0  0
  -13.3686  -16.5369   -7.2211 C   0  0  0  0  0  0
  -13.6242  -14.2904   -6.0469 C   0  0  0  0  0  0
   -3.5352  -12.0266   -7.9905 C   0  0  0  0  0  0
  -14.3611  -15.5192   -6.6767 C   0  0  0  0  0  0
   -1.9984  -16.5985  -11.1738 C   0  0  0  0  0  0
   -8.4472  -18.8925  -12.4637 H   0  0  0  0  0  0
   -6.1737  -18.9866  -10.5397 H   0  0  0  0  0  0
   -9.6004  -15.0638   -8.3656 H   0  0  0  0  0  0
   -9.8653  -12.7525  -10.0166 H   0  0  0  0  0  0
   -5.7075  -16.7990   -9.5121 H   0  0  0  0  0  0
   -8.0121  -16.2713   -8.0227 H   0  0  0  0  0  0
  -10.4294  -12.3553   -7.1043 H   0  0  0  0  0  0
  -10.7114  -10.5841   -9.5035 H   0  0  0  0  0  0
   -5.7868  -18.6984  -13.1344 H   0  0  0  0  0  0
   -6.4471  -17.1118  -12.9592 H   0  0  0  0  0  0
  -11.4695  -14.5123  -10.0205 H   0  0  0  0  0  0
  -12.2663  -13.0767   -9.5250 H   0  0  0  0  0  0
   -6.6697  -15.2650   -6.4833 H   0  0  0  0  0  0
   -5.5526  -16.3157   -7.2586 H   0  0  0  0  0  0
   -9.2047   -9.2497   -8.0219 H   0  0  0  0  0  0
  -10.6694   -8.5160   -8.4813 H   0  0  0  0  0  0
   -6.4142  -21.5453   -9.3561 H   0  0  0  0  0  0
   -6.3910  -23.2075   -9.9219 H   0  0  0  0  0  0
   -7.8829  -23.7539  -12.0415 H   0  0  0  0  0  0
   -8.8054  -22.4138  -12.7118 H   0  0  0  0  0  0
   -8.0544  -12.2926   -8.0628 H   0  0  0  0  0  0
  -12.5668   -9.9995   -8.2845 H   0  0  0  0  0  0
  -11.1990  -14.7234   -7.2638 H   0  0  0  0  0  0
   -6.6691  -22.9407  -14.0213 H   0  0  0  0  0  0
   -6.6828  -21.2871  -13.4338 H   0  0  0  0  0  0
   -4.3416  -22.1003  -10.7483 H   0  0  0  0  0  0
   -5.2616  -20.7954  -11.4533 H   0  0  0  0  0  0
   -9.8795   -8.1186   -6.1391 H   0  0  0  0  0  0
   -3.6207  -19.3756  -12.2127 H   0  0  0  0  0  0
   -5.1124  -15.3596  -11.6482 H   0  0  0  0  0  0
   -3.6678  -15.3587   -8.5943 H   0  0  0  0  0  0
   -6.5369  -12.8089   -6.6332 H   0  0  0  0  0  0
  -13.7369  -13.1890   -7.8336 H   0  0  0  0  0  0
  -12.4566  -12.7170   -6.7574 H   0  0  0  0  0  0
  -11.7904  -16.5532   -8.7387 H   0  0  0  0  0  0
  -13.2547  -15.7444   -9.1638 H   0  0  0  0  0  0
  -10.9424  -10.8783   -5.4529 H   0  0  0  0  0  0
   -9.2295  -10.4409   -5.5516 H   0  0  0  0  0  0
  -10.2630   -9.6599   -4.3868 H   0  0  0  0  0  0
  -12.7384   -9.1462   -6.2767 H   0  0  0  0  0  0
  -12.0796   -8.0895   -5.0471 H   0  0  0  0  0  0
  -12.1929   -7.5231   -6.7015 H   0  0  0  0  0  0
   -2.8646  -14.6516  -10.9540 H   0  0  0  0  0  0
   -2.1982  -13.4100   -8.9348 H   0  0  0  0  0  0
   -5.0534  -10.8754   -6.9996 H   0  0  0  0  0  0
   -1.3963  -18.6332  -11.4724 H   0  0  0  0  0  0
  -13.8864  -17.4198   -7.5955 H   0  0  0  0  0  0
  -12.7016  -16.8627   -6.4213 H   0  0  0  0  0  0
  -14.2551  -13.5742   -5.5307 H   0  0  0  0  0  0
  -12.8368  -14.4630   -5.3186 H   0  0  0  0  0  0
   -2.8874  -11.1761   -8.1472 H   0  0  0  0  0  0
  -15.0016  -15.2156   -7.5021 H   0  0  0  0  0  0
  -15.0693  -15.9973   -6.0210 H   0  0  0  0  0  0
   -1.0184  -16.2761  -10.8523 H   0  0  0  0  0  0
  1  2  1  0  0  0
  1  4  1  0  0  0
  1 12  2  0  0  0
  1 13  2  0  0  0
  2  3  1  0  0  0
  2 49  1  0  0  0
  3  5  1  0  0  0
  3 15  1  0  0  0
  3 50  1  0  0  0
  4 22  1  0  0  0
  4 23  1  0  0  0
  5  9  1  0  0  0
  5 17  2  0  0  0
  6 10  1  0  0  0
  6  7  1  0  0  0
  6 18  2  0  0  0
  7  8  1  0  0  0
  7 51  1  0  0  0
  8 11  1  0  0  0
  8 16  1  0  0  0
  8 52  1  0  0  0
  9 10  1  0  0  0
  9 53  1  0  0  0
 10 19  1  0  0  0
 10 54  1  0  0  0
 11 14  1  0  0  0
 11 24  1  0  0  0
 11 55  1  0  0  0
 14 20  1  0  0  0
 14 25  1  0  0  0
 14 56  1  0  0  0
 15 26  1  0  0  0
 15 57  1  0  0  0
 15 58  1  0  0  0
 16 28  1  0  0  0
 16 59  1  0  0  0
 16 60  1  0  0  0
 19 27  1  0  0  0
 19 61  1  0  0  0
 19 62  1  0  0  0
 20 31  1  0  0  0
 20 63  1  0  0  0
 20 64  1  0  0  0
 21 29  1  0  0  0
 21 30  1  0  0  0
 22 30  1  0  0  0
 22 65  1  0  0  0
 22 66  1  0  0  0
 23 29  1  0  0  0
 23 67  1  0  0  0
 23 68  1  0  0  0
 24 69  1  0  0  0
 25 70  1  0  0  0
 26 32  2  0  0  0
 26 33  1  0  0  0
 27 34  2  0  0  0
 27 35  1  0  0  0
 28 36  1  0  0  0
 28 37  1  0  0  0
 28 71  1  0  0  0
 29 72  1  0  0  0
 29 73  1  0  0  0
 30 74  1  0  0  0
 30 75  1  0  0  0
 31 38  1  0  0  0
 31 39  1  0  0  0
 31 76  1  0  0  0
 32 43  1  0  0  0
 32 77  1  0  0  0
 33 40  2  0  0  0
 33 78  1  0  0  0
 34 41  1  0  0  0
 34 79  1  0  0  0
 35 42  2  0  0  0
 35 80  1  0  0  0
 36 45  1  0  0  0
 36 81  1  0  0  0
 36 82  1  0  0  0
 37 44  1  0  0  0
 37 83  1  0  0  0
 37 84  1  0  0  0
 38 85  1  0  0  0
 38 86  1  0  0  0
 38 87  1  0  0  0
 39 88  1  0  0  0
 39 89  1  0  0  0
 39 90  1  0  0  0
 40 48  1  0  0  0
 40 91  1  0  0  0
 41 46  2  0  0  0
 41 92  1  0  0  0
 42 46  1  0  0  0
 42 93  1  0  0  0
 43 48  2  0  0  0
 43 94  1  0  0  0
 44 47  1  0  0  0
 44 95  1  0  0  0
 44 96  1  0  0  0
 45 47  1  0  0  0
 45 97  1  0  0  0
 45 98  1  0  0  0
 46 99  1  0  0  0
 47100  1  0  0  0
 47101  1  0  0  0
 48102  1  0  0  0
M  END
> <s_m_entry_id>
26303

> <s_m_entry_name>
dock_pv.127

> <s_m_Source_Path>
/home/csk/Desktop/cluster/DUD-E-result/reni

> <s_m_Source_File>
dock_pv.maegz

> <i_m_Source_File_Index>
127

> <chembl_id>
CHEMBL263531

> <chembl_pref_name>
None

> <i_lp_mmshare_version>
53161

> <r_lp_tautomer_probability>
1

> <s_lp_Force_Field>
OPLS_2005

> <r_lp_Energy>
27.433866

> <b_lp_Chiralities_Consistent>
1

> <s_lp_Variant>
CHEMBL286_lig924-1

> <s_i_glide_gridfile>
glide-grid_3g6z

> <i_i_glide_lignum>
2515

> <i_i_glide_rotatable_bonds>
21

> <r_i_docking_score>
-7.6365915325464

> <r_i_glide_ligand_efficiency>
-0.15909565692805

> <r_i_glide_ligand_efficiency_sa>
-0.578191988122135

> <r_i_glide_ligand_efficiency_ln>
-1.56770199288555

> <r_i_glide_gscore>
-7.6365915325464

> <r_i_glide_lipo>
-4.41315934673627

> <r_i_glide_hbond>
-0.32

> <r_i_glide_metal>
0

> <r_i_glide_rewards>
-0.96914449560702

> <r_i_glide_evdw>
-28.1556415557861

> <r_i_glide_ecoul>
-6.34482431411743

> <r_i_glide_erotb>
0.46513587250063

> <r_i_glide_esite>
-0.0399178377968217

> <r_i_glide_emodel>
-34.6451699559095

> <r_i_glide_energy>
-34.5004658699036

> <r_i_glide_einternal>
34.9670639038086

> <i_i_glide_confnum>
142

> <i_i_glide_posenum>
246

> <r_i_glide_eff_state_penalty>
0

> <s_user_duplicate_titles>
CHEMBL286_lig924

> <i_f3d_flags>
0

> <s_m_subgroup_title>
dock_pv

> <s_m_subgroupid>
dock_pv

> <b_m_subgroup_collapsed>
1

$$$$
CHEMBL286_lig2752
                    3D
 Schrodinger Suite 2021-1.
 63 66  0  0  1  0            999 V2000
  -13.5825  -21.3265  -11.4072 C   0  0  0  0  0  0
  -12.9404  -20.0639  -11.4653 O   0  0  0  0  0  0
  -11.5685  -20.1116  -11.0769 C   0  0  0  0  0  0
  -10.8611  -18.7753  -11.3648 C   0  0  0  0  0  0
  -11.6628  -17.5029  -11.0276 C   0  0  0  0  0  0
  -11.6994  -17.0995   -9.5371 C   0  0  0  0  0  0
  -10.6574  -16.1240   -9.2430 N   0  0  0  0  0  0
   -9.3104  -16.3424   -9.4029 C   0  0  0  0  0  0
   -8.5705  -15.1866   -9.2490 C   0  0  0  0  0  0
   -7.0746  -14.9920   -9.5023 C   0  0  1  0  0  0
   -6.2239  -15.3141   -8.2550 C   0  0  0  0  0  0
   -6.6264  -15.6230  -10.7884 N   0  0  0  0  0  0
   -6.4677  -14.7346  -11.9723 C   0  0  0  0  0  0
   -7.3073  -13.4874  -12.1503 C   0  0  0  0  0  0
   -5.8222  -13.3723  -11.8546 C   0  0  0  0  0  0
   -6.4958  -16.9828  -10.9218 C   0  0  0  0  0  0
   -6.3865  -17.7291   -9.9465 O   0  0  0  0  0  0
   -6.5736  -17.6606  -12.3169 C   0  0  2  0  0  0
   -7.2169  -19.0572  -12.3952 C   0  0  0  0  0  0
   -6.2678  -19.8437  -13.3030 C   0  0  0  0  0  0
   -5.4690  -18.8630  -14.0210 N   0  0  2  0  0  0
   -5.2292  -17.8111  -13.0386 C   0  0  0  0  0  0
   -9.5363  -14.2055   -8.8210 C   0  0  0  0  0  0
   -9.4774  -12.8630   -8.4210 C   0  0  0  0  0  0
  -10.6647  -12.2192   -8.0557 C   0  0  0  0  0  0
  -11.8713  -12.9196   -8.1141 C   0  0  0  0  0  0
  -13.1785  -12.2442   -7.7431 C   0  0  0  0  0  0
  -11.9807  -14.2201   -8.4944 N   0  0  0  0  0  0
  -10.8262  -14.8196   -8.8210 C   0  0  0  0  0  0
  -14.6474  -21.2098  -11.6100 H   0  0  0  0  0  0
  -13.4690  -21.7760  -10.4210 H   0  0  0  0  0  0
  -13.1734  -22.0121  -12.1507 H   0  0  0  0  0  0
  -11.4815  -20.3603  -10.0210 H   0  0  0  0  0  0
  -11.0466  -20.9021  -11.6207 H   0  0  0  0  0  0
   -9.8890  -18.7818  -10.8797 H   0  0  0  0  0  0
  -10.6293  -18.7286  -12.4210 H   0  0  0  0  0  0
  -11.2793  -16.6729  -11.6210 H   0  0  0  0  0  0
  -12.6690  -17.6400  -11.4044 H   0  0  0  0  0  0
  -12.6690  -16.6704   -9.2814 H   0  0  0  0  0  0
  -11.5631  -17.9538   -8.8876 H   0  0  0  0  0  0
   -8.9670  -17.3191   -9.6979 H   0  0  0  0  0  0
   -6.9445  -13.9201   -9.6246 H   0  0  0  0  0  0
   -6.4433  -14.6164   -7.4464 H   0  0  0  0  0  0
   -6.4159  -16.3155   -7.8697 H   0  0  0  0  0  0
   -5.1587  -15.2382   -8.4742 H   0  0  0  0  0  0
   -6.1894  -15.2510  -12.8888 H   0  0  0  0  0  0
   -7.6700  -13.2630  -13.1535 H   0  0  0  0  0  0
   -8.0337  -13.2081  -11.3879 H   0  0  0  0  0  0
   -5.4690  -13.0350  -10.8809 H   0  0  0  0  0  0
   -5.1468  -13.0637  -12.6536 H   0  0  0  0  0  0
   -7.2275  -17.0315  -12.9175 H   0  0  0  0  0  0
   -7.2809  -19.5605  -11.4298 H   0  0  0  0  0  0
   -8.2194  -19.0198  -12.8210 H   0  0  0  0  0  0
   -5.6365  -20.5185  -12.7219 H   0  0  0  0  0  0
   -6.8240  -20.4515  -14.0186 H   0  0  0  0  0  0
   -6.0638  -18.4630  -14.7538 H   0  0  0  0  0  0
   -4.9441  -16.9123  -13.5851 H   0  0  0  0  0  0
   -4.4258  -18.1206  -12.3666 H   0  0  0  0  0  0
   -8.5242  -12.3603   -8.3623 H   0  0  0  0  0  0
  -10.6449  -11.1867   -7.7362 H   0  0  0  0  0  0
  -13.0582  -11.1658   -7.6306 H   0  0  0  0  0  0
  -13.9324  -12.4148   -8.5126 H   0  0  0  0  0  0
  -13.5536  -12.6435   -6.8004 H   0  0  0  0  0  0
  1  2  1  0  0  0
  1 30  1  0  0  0
  1 31  1  0  0  0
  1 32  1  0  0  0
  2  3  1  0  0  0
  3  4  1  0  0  0
  3 33  1  0  0  0
  3 34  1  0  0  0
  4  5  1  0  0  0
  4 35  1  0  0  0
  4 36  1  0  0  0
  5  6  1  0  0  0
  5 37  1  0  0  0
  5 38  1  0  0  0
  6  7  1  0  0  0
  6 39  1  0  0  0
  6 40  1  0  0  0
  7  8  1  0  0  0
  7 29  1  0  0  0
  8  9  2  0  0  0
  8 41  1  0  0  0
  9 10  1  0  0  0
  9 23  1  0  0  0
 10 11  1  0  0  0
 10 12  1  0  0  0
 10 42  1  0  0  0
 11 43  1  0  0  0
 11 44  1  0  0  0
 11 45  1  0  0  0
 12 13  1  0  0  0
 12 16  1  0  0  0
 13 14  1  0  0  0
 13 15  1  0  0  0
 13 46  1  0  0  0
 14 15  1  0  0  0
 14 47  1  0  0  0
 14 48  1  0  0  0
 15 49  1  0  0  0
 15 50  1  0  0  0
 16 17  2  0  0  0
 16 18  1  0  0  0
 18 19  1  0  0  0
 18 22  1  0  0  0
 18 51  1  0  0  0
 19 20  1  0  0  0
 19 52  1  0  0  0
 19 53  1  0  0  0
 20 21  1  0  0  0
 20 54  1  0  0  0
 20 55  1  0  0  0
 21 22  1  0  0  0
 21 56  1  0  0  0
 22 57  1  0  0  0
 22 58  1  0  0  0
 23 24  2  0  0  0
 23 29  1  0  0  0
 24 25  1  0  0  0
 24 59  1  0  0  0
 25 26  2  0  0  0
 25 60  1  0  0  0
 26 27  1  0  0  0
 26 28  1  0  0  0
 27 61  1  0  0  0
 27 62  1  0  0  0
 27 63  1  0  0  0
 28 29  2  0  0  0
M  END
> <s_m_entry_id>
26304

> <s_m_entry_name>
dock_pv.128

> <s_m_Source_Path>
/home/csk/Desktop/cluster/DUD-E-result/reni

> <s_m_Source_File>
dock_pv.maegz

> <i_m_Source_File_Index>
128

> <chembl_id>
CHEMBL3984565

> <chembl_pref_name>
None

> <i_lp_mmshare_version>
53161

> <r_lp_tautomer_probability>
1

> <s_lp_Force_Field>
OPLS_2005

> <r_lp_Energy>
53.606144

> <b_lp_Chiralities_Consistent>
1

> <s_lp_Variant>
CHEMBL286_lig2752-2

> <s_i_glide_gridfile>
glide-grid_3g6z

> <i_i_glide_lignum>
6841

> <i_i_glide_rotatable_bonds>
10

> <r_i_docking_score>
-7.62669736991682

> <r_i_glide_ligand_efficiency>
-0.26298956447989

> <r_i_glide_ligand_efficiency_sa>
-0.807987263024449

> <r_i_glide_ligand_efficiency_ln>
-1.74632030135234

> <r_i_glide_gscore>
-7.62669736991682

> <r_i_glide_lipo>
-3.10986351798565

> <r_i_glide_hbond>
-0.72

> <r_i_glide_metal>
0

> <r_i_glide_rewards>
-1.43260455645388

> <r_i_glide_evdw>
-32.946117401123

> <r_i_glide_ecoul>
-12.1436719894409

> <r_i_glide_erotb>
1.10977110511111

> <r_i_glide_esite>
-0.00514373211610209

> <r_i_glide_emodel>
-56.1514632727981

> <r_i_glide_energy>
-45.089789390564

> <r_i_glide_einternal>
16.275634765625

> <i_i_glide_confnum>
161

> <i_i_glide_posenum>
87

> <r_i_glide_eff_state_penalty>
0

> <s_user_duplicate_titles>
CHEMBL286_lig2752

> <i_f3d_flags>
0

> <s_m_subgroup_title>
dock_pv

> <s_m_subgroupid>
dock_pv

> <b_m_subgroup_collapsed>
1

$$$$
CHEMBL286_lig231
                    3D
 Schrodinger Suite 2021-1.
 92 92  0  0  1  0            999 V2000
  -12.0501  -15.9999   -7.8558 S   0  0  0  0  0  0
   -4.9555  -15.2086  -11.2209 C   0  0  0  0  0  0
   -1.1728  -15.2681  -10.9210 C   0  0  0  0  0  0
   -7.0145  -17.7198  -11.4740 C   0  0  0  0  0  0
   -8.0175  -18.4228  -12.0202 N   0  0  0  0  0  0
   -4.9148  -16.4081  -11.8330 N   0  0  0  0  0  0
   -2.4784  -15.1535  -11.3925 N   0  0  0  0  0  0
   -3.6326  -14.6999  -10.5804 C   0  0  1  0  0  0
   -9.1571  -19.0405  -11.3327 C   0  0  1  0  0  0
   -6.0368  -17.0819  -12.4835 C   0  0  1  0  0  0
   -1.0615  -14.9003   -9.6119 O   0  0  0  0  0  0
  -13.4718  -16.0348   -7.5078 O   0  0  0  0  0  0
  -11.0753  -16.6707   -6.9915 O   0  0  0  0  0  0
  -10.5113  -17.3426   -9.8390 C   0  0  0  0  0  0
   -0.2426  -15.6644  -11.6212 O   0  0  0  0  0  0
   -5.9802  -14.5231  -11.1504 O   0  0  0  0  0  0
   -6.8529  -17.5699  -10.2615 O   0  0  0  0  0  0
  -11.8963  -16.7058   -9.5935 C   0  0  0  0  0  0
   -3.5864  -13.1404  -10.4438 C   0  0  0  0  0  0
   -8.8210  -19.8715  -10.0503 C   0  0  0  0  0  0
  -10.3551  -18.0449  -11.2132 C   0  0  2  0  0  0
  -11.5169  -14.1992   -8.0587 C   0  0  0  0  0  0
    0.1505  -14.9224   -8.8417 C   0  0  0  0  0  0
   -4.0367  -12.5450   -9.1137 C   0  0  0  0  0  0
  -11.5502  -18.7011  -11.6134 O   0  0  0  0  0  0
  -12.1735  -13.2867   -6.9939 C   0  0  0  0  0  0
   -7.7624  -20.9930  -10.2070 C   0  0  0  0  0  0
   -5.4659  -18.1295  -13.4563 C   0  0  0  0  0  0
    1.2410  -14.0013   -9.4450 C   0  0  0  0  0  0
    0.6792  -16.3695   -8.6796 C   0  0  0  0  0  0
   -0.2756  -14.3741   -7.4660 C   0  0  0  0  0  0
  -13.6215  -12.8259   -7.3195 C   0  0  0  0  0  0
   -5.0890  -13.1193   -8.3601 C   0  0  0  0  0  0
   -3.5260  -11.2910   -8.7113 C   0  0  0  0  0  0
   -8.2050  -22.1172  -11.1653 C   0  0  0  0  0  0
   -7.3789  -21.5761   -8.8310 C   0  0  0  0  0  0
  -13.6863  -12.0630   -8.6472 C   0  0  0  0  0  0
  -14.2213  -11.9498   -6.2041 C   0  0  0  0  0  0
   -4.0149  -10.6701   -7.5682 C   0  0  0  0  0  0
   -5.5627  -12.4846   -7.2205 C   0  0  0  0  0  0
   -5.0315  -11.2633   -6.8277 C   0  0  0  0  0  0
   -8.0861  -18.3989  -13.0357 H   0  0  0  0  0  0
   -4.0497  -16.9262  -11.8163 H   0  0  0  0  0  0
   -2.6342  -15.2672  -12.3861 H   0  0  0  0  0  0
   -3.5443  -15.1610   -9.5939 H   0  0  0  0  0  0
   -9.4682  -19.8152  -12.0209 H   0  0  0  0  0  0
   -6.5957  -16.3444  -13.0629 H   0  0  0  0  0  0
  -10.3606  -18.0624   -9.0389 H   0  0  0  0  0  0
   -9.7253  -16.5933   -9.7246 H   0  0  0  0  0  0
  -12.1486  -15.9227  -10.3092 H   0  0  0  0  0  0
  -12.6689  -17.4701   -9.6472 H   0  0  0  0  0  0
   -4.1540  -12.6587  -11.2447 H   0  0  0  0  0  0
   -2.5681  -12.7792  -10.6037 H   0  0  0  0  0  0
   -8.4765  -19.1928   -9.2705 H   0  0  0  0  0  0
   -9.7431  -20.3154   -9.6664 H   0  0  0  0  0  0
  -10.2420  -17.2563  -11.9615 H   0  0  0  0  0  0
  -10.4295  -14.1742   -8.0219 H   0  0  0  0  0  0
  -11.7778  -13.9111   -9.0719 H   0  0  0  0  0  0
  -11.5560  -18.7255  -12.5790 H   0  0  0  0  0  0
  -12.1502  -13.7859   -6.0229 H   0  0  0  0  0  0
  -11.5518  -12.3987   -6.8679 H   0  0  0  0  0  0
   -6.8556  -20.5499  -10.6235 H   0  0  0  0  0  0
   -6.2587  -18.6234  -14.0227 H   0  0  0  0  0  0
   -4.8025  -17.6631  -14.1866 H   0  0  0  0  0  0
   -4.9048  -18.9021  -12.9299 H   0  0  0  0  0  0
    0.8559  -12.9944   -9.6105 H   0  0  0  0  0  0
    2.1104  -13.9251   -8.7916 H   0  0  0  0  0  0
    1.5968  -14.3667  -10.4087 H   0  0  0  0  0  0
   -0.0954  -17.0300   -8.2906 H   0  0  0  0  0  0
    1.0145  -16.7919   -9.6270 H   0  0  0  0  0  0
    1.5242  -16.4107   -7.9909 H   0  0  0  0  0  0
   -1.0503  -14.9944   -7.0140 H   0  0  0  0  0  0
    0.5629  -14.3322   -6.7696 H   0  0  0  0  0  0
   -0.6845  -13.3666   -7.5530 H   0  0  0  0  0  0
  -14.2566  -13.7039   -7.4199 H   0  0  0  0  0  0
   -5.5437  -14.0513   -8.6624 H   0  0  0  0  0  0
   -2.7561  -10.8048   -9.2932 H   0  0  0  0  0  0
   -9.1548  -22.5575  -10.8550 H   0  0  0  0  0  0
   -8.3230  -21.7586  -12.1911 H   0  0  0  0  0  0
   -7.4675  -22.9203  -11.1991 H   0  0  0  0  0  0
   -8.2391  -22.0255   -8.3315 H   0  0  0  0  0  0
   -6.6117  -22.3448   -8.9239 H   0  0  0  0  0  0
   -6.9797  -20.8024   -8.1716 H   0  0  0  0  0  0
  -12.9463  -11.2634   -8.6140 H   0  0  0  0  0  0
  -13.4688  -12.6875   -9.5135 H   0  0  0  0  0  0
  -14.6686  -11.6229   -8.8179 H   0  0  0  0  0  0
  -13.6320  -11.0447   -6.0476 H   0  0  0  0  0  0
  -15.2410  -11.6385   -6.4393 H   0  0  0  0  0  0
  -14.2690  -12.4825   -5.2589 H   0  0  0  0  0  0
   -3.6186   -9.7123   -7.2643 H   0  0  0  0  0  0
   -6.3634  -12.9317   -6.6503 H   0  0  0  0  0  0
   -5.4258  -10.7631   -5.9570 H   0  0  0  0  0  0
  1 12  2  0  0  0
  1 13  2  0  0  0
  1 18  1  0  0  0
  1 22  1  0  0  0
  2  6  1  0  0  0
  2  8  1  0  0  0
  2 16  2  0  0  0
  3  7  1  0  0  0
  3 11  1  0  0  0
  3 15  2  0  0  0
  4  5  1  0  0  0
  4 10  1  0  0  0
  4 17  2  0  0  0
  5  9  1  0  0  0
  5 42  1  0  0  0
  6 10  1  0  0  0
  6 43  1  0  0  0
  7  8  1  0  0  0
  7 44  1  0  0  0
  8 19  1  0  0  0
  8 45  1  0  0  0
  9 21  1  0  0  0
  9 20  1  0  0  0
  9 46  1  0  0  0
 10 28  1  0  0  0
 10 47  1  0  0  0
 11 23  1  0  0  0
 14 18  1  0  0  0
 14 21  1  0  0  0
 14 48  1  0  0  0
 14 49  1  0  0  0
 18 50  1  0  0  0
 18 51  1  0  0  0
 19 24  1  0  0  0
 19 52  1  0  0  0
 19 53  1  0  0  0
 20 27  1  0  0  0
 20 54  1  0  0  0
 20 55  1  0  0  0
 21 25  1  0  0  0
 21 56  1  0  0  0
 22 26  1  0  0  0
 22 57  1  0  0  0
 22 58  1  0  0  0
 23 29  1  0  0  0
 23 30  1  0  0  0
 23 31  1  0  0  0
 24 33  2  0  0  0
 24 34  1  0  0  0
 25 59  1  0  0  0
 26 32  1  0  0  0
 26 60  1  0  0  0
 26 61  1  0  0  0
 27 35  1  0  0  0
 27 36  1  0  0  0
 27 62  1  0  0  0
 28 63  1  0  0  0
 28 64  1  0  0  0
 28 65  1  0  0  0
 29 66  1  0  0  0
 29 67  1  0  0  0
 29 68  1  0  0  0
 30 69  1  0  0  0
 30 70  1  0  0  0
 30 71  1  0  0  0
 31 72  1  0  0  0
 31 73  1  0  0  0
 31 74  1  0  0  0
 32 37  1  0  0  0
 32 38  1  0  0  0
 32 75  1  0  0  0
 33 40  1  0  0  0
 33 76  1  0  0  0
 34 39  2  0  0  0
 34 77  1  0  0  0
 35 78  1  0  0  0
 35 79  1  0  0  0
 35 80  1  0  0  0
 36 81  1  0  0  0
 36 82  1  0  0  0
 36 83  1  0  0  0
 37 84  1  0  0  0
 37 85  1  0  0  0
 37 86  1  0  0  0
 38 87  1  0  0  0
 38 88  1  0  0  0
 38 89  1  0  0  0
 39 41  1  0  0  0
 39 90  1  0  0  0
 40 41  2  0  0  0
 40 91  1  0  0  0
 41 92  1  0  0  0
M  END
> <s_m_entry_id>
26305

> <s_m_entry_name>
dock_pv.129

> <s_m_Source_Path>
/home/csk/Desktop/cluster/DUD-E-result/reni

> <s_m_Source_File>
dock_pv.maegz

> <i_m_Source_File_Index>
129

> <chembl_id>
CHEMBL300898

> <chembl_pref_name>
None

> <i_lp_mmshare_version>
53161

> <r_lp_tautomer_probability>
1

> <s_lp_Force_Field>
OPLS_2005

> <r_lp_Energy>
9.037849

> <b_lp_Chiralities_Consistent>
1

> <s_lp_Variant>
CHEMBL286_lig231-1

> <s_i_glide_gridfile>
glide-grid_3g6z

> <i_i_glide_lignum>
368

> <i_i_glide_rotatable_bonds>
22

> <r_i_docking_score>
-7.62538727823148

> <r_i_glide_ligand_efficiency>
-0.185985055566622

> <r_i_glide_ligand_efficiency_sa>
-0.641316874264506

> <r_i_glide_ligand_efficiency_ln>
-1.61775128720225

> <r_i_glide_gscore>
-7.62538727823148

> <r_i_glide_lipo>
-3.49613160780521

> <r_i_glide_hbond>
-1.05856368601476

> <r_i_glide_metal>
0

> <r_i_glide_rewards>
0.52396195883022

> <r_i_glide_evdw>
-53.210334777832

> <r_i_glide_ecoul>
-9.32784461975098

> <r_i_glide_erotb>
0.618479731480411

> <r_i_glide_esite>
-0.153440242867893

> <r_i_glide_emodel>
-79.7985033435198

> <r_i_glide_energy>
-62.538179397583

> <r_i_glide_einternal>
19.8733787536621

> <i_i_glide_confnum>
70

> <i_i_glide_posenum>
251

> <r_i_glide_eff_state_penalty>
0

> <s_user_duplicate_titles>
CHEMBL286_lig231

> <i_f3d_flags>
0

> <s_m_subgroup_title>
dock_pv

> <s_m_subgroupid>
dock_pv

> <b_m_subgroup_collapsed>
1

$$$$
CHEMBL286_lig567
                    3D
 Schrodinger Suite 2021-1.
 94 96  0  0  1  0            999 V2000
   -5.7172  -12.5134   -7.3920 S   0  0  0  0  0  0
   -7.3751  -11.9956   -7.8532 N   0  0  1  0  0  0
   -8.4471  -13.0217   -8.0577 C   0  0  2  0  0  0
   -4.6690  -11.5408   -8.4616 N   0  0  0  0  0  0
   -8.1675  -13.8222   -9.3416 C   0  0  0  0  0  0
   -7.9456  -15.1349   -9.1598 N   0  0  0  0  0  0
   -7.8252  -17.5423   -9.5779 C   0  0  0  0  0  0
   -8.2647  -18.5318  -10.3791 N   0  0  0  0  0  0
   -7.6281  -16.1358  -10.1746 C   0  0  2  0  0  0
   -7.9984  -19.9691  -10.1330 C   0  0  2  0  0  0
   -5.4690  -12.0631   -6.0212 O   0  0  0  0  0  0
   -5.5524  -13.9299   -7.7385 O   0  0  0  0  0  0
   -8.2352  -20.8238  -11.4161 C   0  0  2  0  0  0
   -7.6361  -20.2258  -12.7126 C   0  0  0  0  0  0
   -9.9256  -12.4630   -8.0207 C   0  0  0  0  0  0
   -8.2290  -13.2637  -10.4325 O   0  0  0  0  0  0
   -7.4692  -17.7365   -8.4209 O   0  0  0  0  0  0
   -8.6985  -20.5582   -8.8632 C   0  0  0  0  0  0
   -1.9121  -11.5230   -7.7504 O   0  0  0  0  0  0
   -3.6587  -12.3073   -9.2317 C   0  0  0  0  0  0
   -4.0316  -10.3323   -7.8687 C   0  0  0  0  0  0
   -5.8365  -16.0261  -10.7929 S   0  0  0  0  0  0
   -6.6823  -14.4810  -12.9339 C   0  0  0  0  0  0
   -7.8999  -14.2599  -13.4389 C   0  0  0  0  0  0
  -11.0690  -13.4615   -7.8136 C   0  0  0  0  0  0
   -9.6207  -21.0223  -11.6209 O   0  0  0  0  0  0
   -6.1125  -20.0064  -12.6656 C   0  0  1  0  0  0
   -8.0529  -21.7862   -8.1486 C   0  0  0  0  0  0
   -5.4475  -21.2547  -12.7007 O   0  0  0  0  0  0
   -6.1758  -15.8474  -12.5551 C   0  0  0  0  0  0
   -2.4845  -12.7109   -8.3151 C   0  0  0  0  0  0
   -2.8195  -10.7135   -6.9890 C   0  0  0  0  0  0
  -12.0368  -13.1974   -6.8237 C   0  0  0  0  0  0
  -11.2614  -14.5905   -8.6479 C   0  0  0  0  0  0
   -8.3930  -23.1620   -8.7724 C   0  0  0  0  0  0
   -6.5111  -21.7083   -8.0173 C   0  0  0  0  0  0
   -5.6122  -19.1435  -13.8267 C   0  0  0  0  0  0
   -4.1580  -18.6765  -13.6211 C   0  0  0  0  0  0
  -12.3346  -15.4459   -8.4453 C   0  0  0  0  0  0
  -13.1063  -14.0625   -6.6388 C   0  0  0  0  0  0
   -5.9768  -22.8085   -7.0793 C   0  0  0  0  0  0
   -7.9127  -24.3068   -7.8585 C   0  0  0  0  0  0
  -13.2525  -15.1860   -7.4397 C   0  0  0  0  0  0
   -6.3971  -24.2097   -7.5730 C   0  0  0  0  0  0
   -7.7087  -11.2629   -7.2220 H   0  0  0  0  0  0
   -8.2689  -13.6630   -7.2210 H   0  0  0  0  0  0
   -7.7711  -15.4555   -8.2176 H   0  0  0  0  0  0
   -8.5341  -18.2832  -11.3210 H   0  0  0  0  0  0
   -8.3046  -16.0056  -11.0220 H   0  0  0  0  0  0
   -6.9258  -19.9986   -9.9444 H   0  0  0  0  0  0
   -7.8002  -21.8096  -11.2826 H   0  0  0  0  0  0
   -7.8704  -20.8627  -13.5655 H   0  0  0  0  0  0
   -8.1259  -19.2763  -12.9279 H   0  0  0  0  0  0
   -9.9827  -11.7220   -7.2210 H   0  0  0  0  0  0
  -10.2690  -11.9267   -8.9018 H   0  0  0  0  0  0
   -9.7358  -20.7840   -9.1041 H   0  0  0  0  0  0
   -8.7820  -19.7848   -8.1010 H   0  0  0  0  0  0
   -4.1400  -13.1099   -9.7949 H   0  0  0  0  0  0
   -3.2443  -11.6287   -9.9790 H   0  0  0  0  0  0
   -3.6366   -9.7472   -8.7006 H   0  0  0  0  0  0
   -4.7740   -9.6966   -7.3918 H   0  0  0  0  0  0
   -6.0107  -13.6513  -12.7620 H   0  0  0  0  0  0
   -8.2321  -13.2630  -13.6718 H   0  0  0  0  0  0
   -8.5911  -15.0714  -13.6201 H   0  0  0  0  0  0
  -10.0481  -20.1633  -11.6493 H   0  0  0  0  0  0
   -5.8379  -19.4943  -11.7444 H   0  0  0  0  0  0
   -8.4667  -21.7896   -7.1382 H   0  0  0  0  0  0
   -5.8675  -21.8513  -12.0747 H   0  0  0  0  0  0
   -5.2714  -16.0625  -13.1183 H   0  0  0  0  0  0
   -6.9157  -16.5952  -12.8326 H   0  0  0  0  0  0
   -1.7184  -13.2324   -8.8897 H   0  0  0  0  0  0
   -2.8072  -13.3859   -7.5196 H   0  0  0  0  0  0
   -2.2968   -9.8126   -6.6639 H   0  0  0  0  0  0
   -3.1169  -11.2441   -6.0852 H   0  0  0  0  0  0
  -11.9478  -12.3232   -6.1967 H   0  0  0  0  0  0
  -10.5923  -14.8159   -9.4599 H   0  0  0  0  0  0
   -7.9816  -23.2695   -9.7723 H   0  0  0  0  0  0
   -9.4686  -23.2626   -8.9101 H   0  0  0  0  0  0
   -6.2248  -20.7373   -7.6209 H   0  0  0  0  0  0
   -6.0268  -21.7583   -8.9926 H   0  0  0  0  0  0
   -5.7812  -19.6623  -14.7697 H   0  0  0  0  0  0
   -6.2392  -18.2634  -13.9224 H   0  0  0  0  0  0
   -3.8302  -18.0630  -14.4570 H   0  0  0  0  0  0
   -4.0596  -18.0733  -12.7184 H   0  0  0  0  0  0
   -3.4625  -19.5109  -13.5251 H   0  0  0  0  0  0
  -12.4638  -16.3099   -9.0807 H   0  0  0  0  0  0
  -13.8333  -13.8550   -5.8673 H   0  0  0  0  0  0
   -4.8897  -22.7472   -7.0139 H   0  0  0  0  0  0
   -6.3526  -22.6479   -6.0673 H   0  0  0  0  0  0
   -8.1432  -25.2624   -8.3239 H   0  0  0  0  0  0
   -8.4615  -24.2851   -6.9164 H   0  0  0  0  0  0
  -14.0902  -15.8516   -7.2890 H   0  0  0  0  0  0
   -5.8479  -24.4454   -8.4856 H   0  0  0  0  0  0
   -6.1023  -24.9640   -6.8424 H   0  0  0  0  0  0
  1  2  1  0  0  0
  1  4  1  0  0  0
  1 11  2  0  0  0
  1 12  2  0  0  0
  2  3  1  0  0  0
  2 45  1  0  0  0
  3  5  1  0  0  0
  3 15  1  0  0  0
  3 46  1  0  0  0
  4 20  1  0  0  0
  4 21  1  0  0  0
  5  6  1  0  0  0
  5 16  2  0  0  0
  6  9  1  0  0  0
  6 47  1  0  0  0
  7  9  1  0  0  0
  7  8  1  0  0  0
  7 17  2  0  0  0
  8 10  1  0  0  0
  8 48  1  0  0  0
  9 22  1  0  0  0
  9 49  1  0  0  0
 10 13  1  0  0  0
 10 18  1  0  0  0
 10 50  1  0  0  0
 13 14  1  0  0  0
 13 26  1  0  0  0
 13 51  1  0  0  0
 14 27  1  0  0  0
 14 52  1  0  0  0
 14 53  1  0  0  0
 15 25  1  0  0  0
 15 54  1  0  0  0
 15 55  1  0  0  0
 18 28  1  0  0  0
 18 56  1  0  0  0
 18 57  1  0  0  0
 19 32  1  0  0  0
 19 31  1  0  0  0
 20 31  1  0  0  0
 20 58  1  0  0  0
 20 59  1  0  0  0
 21 32  1  0  0  0
 21 60  1  0  0  0
 21 61  1  0  0  0
 22 30  1  0  0  0
 23 30  1  0  0  0
 23 24  2  0  0  0
 23 62  1  0  0  0
 24 63  1  0  0  0
 24 64  1  0  0  0
 25 33  2  0  0  0
 25 34  1  0  0  0
 26 65  1  0  0  0
 27 29  1  0  0  0
 27 37  1  0  0  0
 27 66  1  0  0  0
 28 35  1  0  0  0
 28 36  1  0  0  0
 28 67  1  0  0  0
 29 68  1  0  0  0
 30 69  1  0  0  0
 30 70  1  0  0  0
 31 71  1  0  0  0
 31 72  1  0  0  0
 32 73  1  0  0  0
 32 74  1  0  0  0
 33 40  1  0  0  0
 33 75  1  0  0  0
 34 39  2  0  0  0
 34 76  1  0  0  0
 35 42  1  0  0  0
 35 77  1  0  0  0
 35 78  1  0  0  0
 36 41  1  0  0  0
 36 79  1  0  0  0
 36 80  1  0  0  0
 37 38  1  0  0  0
 37 81  1  0  0  0
 37 82  1  0  0  0
 38 83  1  0  0  0
 38 84  1  0  0  0
 38 85  1  0  0  0
 39 43  1  0  0  0
 39 86  1  0  0  0
 40 43  2  0  0  0
 40 87  1  0  0  0
 41 44  1  0  0  0
 41 88  1  0  0  0
 41 89  1  0  0  0
 42 44  1  0  0  0
 42 90  1  0  0  0
 42 91  1  0  0  0
 43 92  1  0  0  0
 44 93  1  0  0  0
 44 94  1  0  0  0
M  END
> <s_m_entry_id>
26306

> <s_m_entry_name>
dock_pv.130

> <s_m_Source_Path>
/home/csk/Desktop/cluster/DUD-E-result/reni

> <s_m_Source_File>
dock_pv.maegz

> <i_m_Source_File_Index>
130

> <chembl_id>
CHEMBL88526

> <chembl_pref_name>
None

> <i_lp_mmshare_version>
53161

> <r_lp_tautomer_probability>
1

> <s_lp_Force_Field>
OPLS_2005

> <r_lp_Energy>
25.654848

> <b_lp_Chiralities_Consistent>
1

> <s_lp_Variant>
CHEMBL286_lig567-2

> <s_i_glide_gridfile>
glide-grid_3g6z

> <i_i_glide_lignum>
1604

> <i_i_glide_rotatable_bonds>
22

> <r_i_docking_score>
-7.62478329984708

> <r_i_glide_ligand_efficiency>
-0.173290529541979

> <r_i_glide_ligand_efficiency_sa>
-0.611775931724605

> <r_i_glide_ligand_efficiency_ln>
-1.59374604338214

> <r_i_glide_gscore>
-7.62478329984708

> <r_i_glide_lipo>
-3.85918787713045

> <r_i_glide_hbond>
0

> <r_i_glide_metal>
0

> <r_i_glide_rewards>
-1.7106909210413

> <r_i_glide_evdw>
-40.4628868103027

> <r_i_glide_ecoul>
-4.44794178009033

> <r_i_glide_erotb>
0.639426500185123

> <r_i_glide_esite>
-0.00399539433175543

> <r_i_glide_emodel>
-35.3668988292171

> <r_i_glide_energy>
-44.9108285903931

> <r_i_glide_einternal>
22.3414497375488

> <i_i_glide_confnum>
172

> <i_i_glide_posenum>
284

> <r_i_glide_eff_state_penalty>
0

> <s_user_duplicate_titles>
CHEMBL286_lig567

> <i_f3d_flags>
0

> <s_m_subgroup_title>
dock_pv

> <s_m_subgroupid>
dock_pv

> <b_m_subgroup_collapsed>
1

$$$$
CHEMBL286_lig1539
                    3D
 Schrodinger Suite 2021-1.
 76 80  0  0  1  0            999 V2000
   -8.5004  -13.5911   -8.8676 C   0  0  0  0  0  0
   -9.8318  -14.0833   -8.7541 O   0  0  0  0  0  0
  -10.8416  -13.2600   -8.2854 C   0  0  0  0  0  0
  -12.1046  -13.8365   -8.0571 C   0  0  0  0  0  0
  -12.3079  -15.3430   -8.1601 C   0  0  0  0  0  0
  -11.9606  -15.8218   -9.4538 O   0  0  0  0  0  0
  -10.6696  -11.8916   -8.0217 C   0  0  0  0  0  0
  -11.7383  -11.1005   -7.6065 C   0  0  0  0  0  0
  -12.9951  -11.6677   -7.4287 C   0  0  0  0  0  0
  -13.1752  -13.0332   -7.6432 C   0  0  0  0  0  0
   -3.3683  -14.7686   -9.9156 C   0  0  0  0  0  0
   -4.0112  -14.4452   -8.7128 C   0  0  0  0  0  0
   -4.1670  -13.1168   -8.3239 C   0  0  0  0  0  0
   -3.6831  -12.0721   -9.1355 C   0  0  0  0  0  0
   -3.0693  -12.4067  -10.3492 C   0  0  0  0  0  0
   -2.9237  -13.7368  -10.7391 C   0  0  0  0  0  0
   -2.9592  -18.4674  -10.1214 C   0  0  2  0  0  0
   -1.4596  -18.5437  -10.5226 C   0  0  0  0  0  0
   -1.1853  -19.5583  -11.5259 N   0  0  2  0  0  0
   -1.9971  -19.4061  -12.7277 C   0  0  0  0  0  0
   -3.5077  -19.4182  -12.4017 C   0  0  0  0  0  0
   -3.8897  -18.8191  -11.2321 N   0  0  0  0  0  0
   -4.3172  -19.8527  -13.2209 O   0  0  0  0  0  0
   -3.2454  -17.1237   -9.4158 C   0  0  0  0  0  0
   -3.1293  -16.0543  -10.3516 O   0  0  0  0  0  0
   -5.9694  -17.7153  -11.7806 C   0  0  0  0  0  0
   -5.2668  -18.6364  -10.9963 C   0  0  0  0  0  0
   -5.9270  -19.3843  -10.0200 C   0  0  0  0  0  0
   -7.3013  -19.2339   -9.8587 C   0  0  0  0  0  0
   -8.0172  -18.3515  -10.6681 C   0  0  0  0  0  0
   -7.3414  -17.5799  -11.6209 C   0  0  0  0  0  0
   -9.3808  -18.3099  -10.4712 O   0  0  0  0  0  0
  -10.1741  -17.4949  -11.3281 C   0  0  0  0  0  0
  -11.6390  -17.7046  -10.9474 C   0  0  0  0  0  0
  -11.9595  -17.2412   -9.5200 C   0  0  0  0  0  0
   -4.0269  -10.5306   -7.1770 C   0  0  0  0  0  0
   -5.1266  -11.4971   -6.6992 C   0  0  0  0  0  0
   -4.8139  -12.8682   -7.0955 N   0  0  0  0  0  0
   -3.8233  -10.6225   -8.6978 C   0  0  0  0  0  0
   -7.8345  -14.4191   -9.1087 H   0  0  0  0  0  0
   -8.4108  -12.8633   -9.6728 H   0  0  0  0  0  0
   -8.1427  -13.1478   -7.9382 H   0  0  0  0  0  0
  -11.6759  -15.8090   -7.4001 H   0  0  0  0  0  0
  -13.3421  -15.6084   -7.9323 H   0  0  0  0  0  0
   -9.7097  -11.4161   -8.1272 H   0  0  0  0  0  0
  -11.5948  -10.0447   -7.4258 H   0  0  0  0  0  0
  -13.8244  -11.0548   -7.1066 H   0  0  0  0  0  0
  -14.1480  -13.4679   -7.4681 H   0  0  0  0  0  0
   -4.3795  -15.2170   -8.0581 H   0  0  0  0  0  0
   -2.6981  -11.6269  -10.9977 H   0  0  0  0  0  0
   -2.4420  -13.9685  -11.6783 H   0  0  0  0  0  0
   -3.1281  -19.2450   -9.3756 H   0  0  0  0  0  0
   -0.8501  -18.7340   -9.6390 H   0  0  0  0  0  0
   -1.1435  -17.5816  -10.9351 H   0  0  0  0  0  0
   -1.1764  -20.4990  -11.1481 H   0  0  0  0  0  0
   -1.7665  -20.2046  -13.4372 H   0  0  0  0  0  0
   -1.7696  -18.4629  -13.2194 H   0  0  0  0  0  0
   -4.2467  -17.1608   -8.9871 H   0  0  0  0  0  0
   -2.5492  -16.9798   -8.5869 H   0  0  0  0  0  0
   -5.4597  -17.1334  -12.5358 H   0  0  0  0  0  0
   -5.3884  -20.0943   -9.4085 H   0  0  0  0  0  0
   -7.8210  -19.8254   -9.1207 H   0  0  0  0  0  0
   -7.8630  -16.8887  -12.2663 H   0  0  0  0  0  0
  -10.0250  -17.7796  -12.3708 H   0  0  0  0  0  0
   -9.9014  -16.4464  -11.2212 H   0  0  0  0  0  0
  -11.8789  -18.7622  -11.0507 H   0  0  0  0  0  0
  -12.2692  -17.1761  -11.6629 H   0  0  0  0  0  0
  -11.2344  -17.6610   -8.8209 H   0  0  0  0  0  0
  -12.9332  -17.6249   -9.2203 H   0  0  0  0  0  0
   -4.2693   -9.5140   -6.8845 H   0  0  0  0  0  0
   -3.0954  -10.7689   -6.6623 H   0  0  0  0  0  0
   -6.0691  -11.2631   -7.1970 H   0  0  0  0  0  0
   -5.2905  -11.4466   -5.6228 H   0  0  0  0  0  0
   -5.4313  -13.5697   -6.7164 H   0  0  0  0  0  0
   -2.9368  -10.0637   -8.9924 H   0  0  0  0  0  0
   -4.6686  -10.1783   -9.2191 H   0  0  0  0  0  0
  1  2  1  0  0  0
  1 40  1  0  0  0
  1 41  1  0  0  0
  1 42  1  0  0  0
  2  3  1  0  0  0
  3  4  2  0  0  0
  3  7  1  0  0  0
  4  5  1  0  0  0
  4 10  1  0  0  0
  5  6  1  0  0  0
  5 43  1  0  0  0
  5 44  1  0  0  0
  6 35  1  0  0  0
  7  8  2  0  0  0
  7 45  1  0  0  0
  8  9  1  0  0  0
  8 46  1  0  0  0
  9 10  2  0  0  0
  9 47  1  0  0  0
 10 48  1  0  0  0
 11 12  2  0  0  0
 11 16  1  0  0  0
 11 25  1  0  0  0
 12 13  1  0  0  0
 12 49  1  0  0  0
 13 14  2  0  0  0
 13 38  1  0  0  0
 14 15  1  0  0  0
 14 39  1  0  0  0
 15 16  2  0  0  0
 15 50  1  0  0  0
 16 51  1  0  0  0
 17 18  1  0  0  0
 17 22  1  0  0  0
 17 24  1  0  0  0
 17 52  1  0  0  0
 18 19  1  0  0  0
 18 53  1  0  0  0
 18 54  1  0  0  0
 19 20  1  0  0  0
 19 55  1  0  0  0
 20 21  1  0  0  0
 20 56  1  0  0  0
 20 57  1  0  0  0
 21 22  1  0  0  0
 21 23  2  0  0  0
 22 27  1  0  0  0
 24 25  1  0  0  0
 24 58  1  0  0  0
 24 59  1  0  0  0
 26 27  2  0  0  0
 26 31  1  0  0  0
 26 60  1  0  0  0
 27 28  1  0  0  0
 28 29  2  0  0  0
 28 61  1  0  0  0
 29 30  1  0  0  0
 29 62  1  0  0  0
 30 31  2  0  0  0
 30 32  1  0  0  0
 31 63  1  0  0  0
 32 33  1  0  0  0
 33 34  1  0  0  0
 33 64  1  0  0  0
 33 65  1  0  0  0
 34 35  1  0  0  0
 34 66  1  0  0  0
 34 67  1  0  0  0
 35 68  1  0  0  0
 35 69  1  0  0  0
 36 37  1  0  0  0
 36 39  1  0  0  0
 36 70  1  0  0  0
 36 71  1  0  0  0
 37 38  1  0  0  0
 37 72  1  0  0  0
 37 73  1  0  0  0
 38 74  1  0  0  0
 39 75  1  0  0  0
 39 76  1  0  0  0
M  END
> <s_m_entry_id>
26309

> <s_m_entry_name>
dock_pv.133

> <s_m_Source_Path>
/home/csk/Desktop/cluster/DUD-E-result/reni

> <s_m_Source_File>
dock_pv.maegz

> <i_m_Source_File_Index>
133

> <chembl_id>
CHEMBL434956

> <chembl_pref_name>
None

> <i_lp_mmshare_version>
53161

> <r_lp_tautomer_probability>
1

> <s_lp_Force_Field>
OPLS_2005

> <r_lp_Energy>
61.554357

> <b_lp_Chiralities_Consistent>
1

> <s_lp_Variant>
CHEMBL286_lig1539-1

> <s_i_glide_gridfile>
glide-grid_3g6z

> <i_i_glide_lignum>
5243

> <i_i_glide_rotatable_bonds>
12

> <r_i_docking_score>
-7.57655638119611

> <r_i_glide_ligand_efficiency>
-0.194270676440926

> <r_i_glide_ligand_efficiency_sa>
-0.658812940184037

> <r_i_glide_ligand_efficiency_ln>
-1.62462876147118

> <r_i_glide_gscore>
-7.57655638119611

> <r_i_glide_lipo>
-4.32950390920652

> <r_i_glide_hbond>
-0.248320040739587

> <r_i_glide_metal>
0

> <r_i_glide_rewards>
-0.591968975606621

> <r_i_glide_evdw>
-46.4825553894043

> <r_i_glide_ecoul>
-5.90118265151978

> <r_i_glide_erotb>
0.802541711554794

> <r_i_glide_esite>
0

> <r_i_glide_emodel>
-73.6416136915404

> <r_i_glide_energy>
-52.3837380409241

> <r_i_glide_einternal>
4.44613933563232

> <i_i_glide_confnum>
58

> <i_i_glide_posenum>
137

> <r_i_glide_eff_state_penalty>
0

> <s_user_duplicate_titles>
CHEMBL286_lig1539,324960

> <i_f3d_flags>
0

> <s_m_subgroup_title>
dock_pv

> <s_m_subgroupid>
dock_pv

> <b_m_subgroup_collapsed>
1

$$$$
CHEMBL286_lig508
                    3D
 Schrodinger Suite 2021-1.
 97101  0  0  1  0            999 V2000
   -3.2092  -23.4749   -8.9518 C   0  0  0  0  0  0
   -2.7593  -18.9862  -11.0824 C   0  0  0  0  0  0
   -3.0153  -15.4419  -10.1553 C   0  0  0  0  0  0
   -2.3122  -22.6599   -9.9027 C   0  0  0  0  0  0
   -2.6880  -16.5547  -10.8302 N   0  0  0  0  0  0
   -3.5491  -19.9118  -10.5159 N   0  0  0  0  0  0
   -2.3519  -17.8189  -10.1847 C   0  0  2  0  0  0
    0.7161  -18.7157  -11.6229 N   0  0  0  0  0  0
   -3.3859  -14.1960  -10.9862 C   0  0  0  0  0  0
    0.1531  -17.6652  -10.9148 C   0  0  0  0  0  0
   -4.0593  -21.1452  -11.1434 C   0  0  2  0  0  0
   -5.9645  -14.5603  -11.0972 C   0  0  0  0  0  0
   -1.6526  -12.7034   -9.6180 C   0  0  0  0  0  0
   -0.8573  -17.8632   -9.7989 C   0  0  0  0  0  0
   -2.2714  -13.0979  -10.9739 C   0  0  0  0  0  0
   -4.8073  -13.6568  -10.6641 C   0  0  0  0  0  0
    1.6548  -16.8636  -12.4211 N   0  0  0  0  0  0
   -2.9645  -22.2656  -11.2584 C   0  0  1  0  0  0
    1.5844  -18.1881  -12.4906 C   0  0  0  0  0  0
   -2.7722  -23.6973   -7.6809 N   0  0  0  0  0  0
   -2.3331  -11.8330   -8.7128 C   0  0  0  0  0  0
   -6.6731  -15.3950  -10.1714 C   0  0  0  0  0  0
    0.7466  -16.5292  -11.4176 C   0  0  0  0  0  0
   -4.2903  -23.8962   -9.3709 O   0  0  0  0  0  0
   -3.0311  -15.3950   -8.9234 O   0  0  0  0  0  0
   -2.3407  -19.0403  -12.2399 O   0  0  0  0  0  0
   -4.8063  -20.8970  -12.4869 C   0  0  0  0  0  0
   -1.7655  -11.6035   -7.4179 C   0  0  0  0  0  0
   -7.7833  -16.1599  -10.6576 C   0  0  0  0  0  0
   -1.9138  -21.8457  -12.1101 O   0  0  0  0  0  0
   -3.5479  -24.4883   -6.8195 O   0  0  0  0  0  0
   -6.3563  -14.5173  -12.4373 C   0  0  0  0  0  0
   -0.4119  -13.2292   -9.2551 C   0  0  0  0  0  0
   -7.4339  -15.2592  -12.8915 C   0  0  0  0  0  0
    0.1509  -12.9738   -8.0126 C   0  0  0  0  0  0
   -5.8440  -19.7320  -12.4947 C   0  0  0  0  0  0
   -1.4488  -23.4148   -7.1165 C   0  0  0  0  0  0
   -6.3437  -15.5046   -8.7920 C   0  0  0  0  0  0
   -3.5533  -11.1834   -9.0305 C   0  0  0  0  0  0
   -0.5175  -12.1839   -7.0871 C   0  0  0  0  0  0
   -8.1454  -16.0749  -12.0210 C   0  0  0  0  0  0
   -2.4667  -10.8002   -6.4860 C   0  0  0  0  0  0
   -8.5049  -16.9933   -9.7678 C   0  0  0  0  0  0
   -4.5938  -23.7247   -6.2150 C   0  0  0  0  0  0
   -7.2926  -20.2429  -12.4195 C   0  0  0  0  0  0
   -5.6455  -18.7934  -13.7006 C   0  0  0  0  0  0
   -4.2420  -10.4514   -8.0798 C   0  0  0  0  0  0
   -7.0748  -16.3295   -7.9474 C   0  0  0  0  0  0
   -8.1467  -17.0690   -8.4284 C   0  0  0  0  0  0
   -3.7024  -10.2550   -6.8183 C   0  0  0  0  0  0
   -1.4220  -23.2621  -10.0791 H   0  0  0  0  0  0
   -1.9788  -21.7581   -9.3928 H   0  0  0  0  0  0
   -2.7070  -16.5707  -11.8416 H   0  0  0  0  0  0
   -3.8314  -19.7634   -9.5553 H   0  0  0  0  0  0
   -2.9323  -17.9000   -9.2606 H   0  0  0  0  0  0
   -3.4381  -14.5168  -12.0207 H   0  0  0  0  0  0
   -4.8176  -21.5088  -10.4500 H   0  0  0  0  0  0
   -0.6574  -17.1176   -9.0289 H   0  0  0  0  0  0
   -0.6698  -18.8272   -9.3312 H   0  0  0  0  0  0
   -2.5922  -12.2059  -11.5076 H   0  0  0  0  0  0
   -1.4726  -13.4728  -11.6113 H   0  0  0  0  0  0
   -4.9126  -13.3657   -9.6215 H   0  0  0  0  0  0
   -4.9610  -12.7335  -11.2206 H   0  0  0  0  0  0
    0.5170  -19.6987  -11.4976 H   0  0  0  0  0  0
   -3.3964  -23.1507  -11.7328 H   0  0  0  0  0  0
    2.1685  -18.7809  -13.1818 H   0  0  0  0  0  0
    0.5914  -15.5002  -11.1451 H   0  0  0  0  0  0
   -4.0476  -20.7100  -13.2404 H   0  0  0  0  0  0
   -5.2810  -21.8259  -12.8144 H   0  0  0  0  0  0
   -2.0013  -20.8887  -12.2377 H   0  0  0  0  0  0
   -5.8138  -13.9020  -13.1414 H   0  0  0  0  0  0
    0.1302  -13.8544   -9.9410 H   0  0  0  0  0  0
   -7.7110  -15.2183  -13.9339 H   0  0  0  0  0  0
    1.1110  -13.4018   -7.7580 H   0  0  0  0  0  0
   -5.7028  -19.1074  -11.6112 H   0  0  0  0  0  0
   -0.9101  -22.6180   -7.6303 H   0  0  0  0  0  0
   -1.5373  -23.1033   -6.0744 H   0  0  0  0  0  0
   -0.8256  -24.3132   -7.1456 H   0  0  0  0  0  0
   -5.5128  -14.9562   -8.3729 H   0  0  0  0  0  0
   -3.9648  -11.2525  -10.0209 H   0  0  0  0  0  0
   -0.0835  -11.9986   -6.1136 H   0  0  0  0  0  0
   -8.9751  -16.6593  -12.3957 H   0  0  0  0  0  0
   -2.0516  -10.6314   -5.5016 H   0  0  0  0  0  0
   -9.3404  -17.5691  -10.1383 H   0  0  0  0  0  0
   -5.1180  -24.3466   -5.4897 H   0  0  0  0  0  0
   -4.2051  -22.8540   -5.6837 H   0  0  0  0  0  0
   -5.3306  -23.3879   -6.9479 H   0  0  0  0  0  0
   -7.5373  -20.8803  -13.2687 H   0  0  0  0  0  0
   -7.4608  -20.8178  -11.5081 H   0  0  0  0  0  0
   -8.0014  -19.4131  -12.4179 H   0  0  0  0  0  0
   -5.9011  -19.2814  -14.6411 H   0  0  0  0  0  0
   -6.2737  -17.9075  -13.6168 H   0  0  0  0  0  0
   -4.6189  -18.4303  -13.7682 H   0  0  0  0  0  0
   -5.1819   -9.9961   -8.3494 H   0  0  0  0  0  0
   -6.8070  -16.3959   -6.9032 H   0  0  0  0  0  0
   -8.7063  -17.7029   -7.7555 H   0  0  0  0  0  0
   -4.2403   -9.6633   -6.0874 H   0  0  0  0  0  0
  1  4  1  0  0  0
  1 20  1  0  0  0
  1 24  2  0  0  0
  2  6  1  0  0  0
  2  7  1  0  0  0
  2 26  2  0  0  0
  3  5  1  0  0  0
  3  9  1  0  0  0
  3 25  2  0  0  0
  4 18  1  0  0  0
  4 51  1  0  0  0
  4 52  1  0  0  0
  5  7  1  0  0  0
  5 53  1  0  0  0
  6 11  1  0  0  0
  6 54  1  0  0  0
  7 14  1  0  0  0
  7 55  1  0  0  0
  8 10  1  0  0  0
  8 64  1  0  0  0
  8 19  1  0  0  0
  9 15  1  0  0  0
  9 16  1  0  0  0
  9 56  1  0  0  0
 10 23  2  0  0  0
 10 14  1  0  0  0
 11 18  1  0  0  0
 11 27  1  0  0  0
 11 57  1  0  0  0
 12 16  1  0  0  0
 12 22  1  0  0  0
 12 32  2  0  0  0
 13 15  1  0  0  0
 13 21  1  0  0  0
 13 33  2  0  0  0
 14 58  1  0  0  0
 14 59  1  0  0  0
 15 60  1  0  0  0
 15 61  1  0  0  0
 16 62  1  0  0  0
 16 63  1  0  0  0
 17 19  2  0  0  0
 17 23  1  0  0  0
 18 30  1  0  0  0
 18 65  1  0  0  0
 19 66  1  0  0  0
 20 31  1  0  0  0
 20 37  1  0  0  0
 21 28  2  0  0  0
 21 39  1  0  0  0
 22 29  2  0  0  0
 22 38  1  0  0  0
 23 67  1  0  0  0
 27 36  1  0  0  0
 27 68  1  0  0  0
 27 69  1  0  0  0
 28 42  1  0  0  0
 28 40  1  0  0  0
 29 43  1  0  0  0
 29 41  1  0  0  0
 30 70  1  0  0  0
 31 44  1  0  0  0
 32 34  1  0  0  0
 32 71  1  0  0  0
 33 35  1  0  0  0
 33 72  1  0  0  0
 34 41  2  0  0  0
 34 73  1  0  0  0
 35 40  2  0  0  0
 35 74  1  0  0  0
 36 45  1  0  0  0
 36 46  1  0  0  0
 36 75  1  0  0  0
 37 76  1  0  0  0
 37 77  1  0  0  0
 37 78  1  0  0  0
 38 48  2  0  0  0
 38 79  1  0  0  0
 39 47  2  0  0  0
 39 80  1  0  0  0
 40 81  1  0  0  0
 41 82  1  0  0  0
 42 50  2  0  0  0
 42 83  1  0  0  0
 43 49  2  0  0  0
 43 84  1  0  0  0
 44 85  1  0  0  0
 44 86  1  0  0  0
 44 87  1  0  0  0
 45 88  1  0  0  0
 45 89  1  0  0  0
 45 90  1  0  0  0
 46 91  1  0  0  0
 46 92  1  0  0  0
 46 93  1  0  0  0
 47 50  1  0  0  0
 47 94  1  0  0  0
 48 49  1  0  0  0
 48 95  1  0  0  0
 49 96  1  0  0  0
 50 97  1  0  0  0
M  END
> <s_m_entry_id>
26310

> <s_m_entry_name>
dock_pv.134

> <s_m_Source_Path>
/home/csk/Desktop/cluster/DUD-E-result/reni

> <s_m_Source_File>
dock_pv.maegz

> <i_m_Source_File_Index>
134

> <chembl_id>
CHEMBL127776

> <chembl_pref_name>
None

> <i_lp_mmshare_version>
53161

> <r_lp_tautomer_probability>
0.499999999999999

> <s_lp_Force_Field>
OPLS_2005

> <r_lp_Energy>
30.688121

> <b_lp_Chiralities_Consistent>
1

> <s_lp_Variant>
CHEMBL286_lig508-10

> <s_i_glide_gridfile>
glide-grid_3g6z

> <i_i_glide_lignum>
1194

> <i_i_glide_rotatable_bonds>
20

> <r_i_docking_score>
-7.57422850313968

> <r_i_glide_ligand_efficiency>
-0.151484570062794

> <r_i_glide_ligand_efficiency_sa>
-0.558073926941595

> <r_i_glide_ligand_efficiency_ln>
-1.54197740824292

> <r_i_glide_gscore>
-7.57422850313968

> <r_i_glide_lipo>
-2.90875884446262

> <r_i_glide_hbond>
-0.157020000667156

> <r_i_glide_metal>
0

> <r_i_glide_rewards>
-0.75487898787402

> <r_i_glide_evdw>
-60.1410522460938

> <r_i_glide_ecoul>
-8.21203708648682

> <r_i_glide_erotb>
0.485287505141825

> <r_i_glide_esite>
0

> <r_i_glide_emodel>
-94.6048564752686

> <r_i_glide_energy>
-68.3530893325806

> <r_i_glide_einternal>
10.6844997406006

> <i_i_glide_confnum>
46

> <i_i_glide_posenum>
164

> <r_i_glide_eff_state_penalty>
0

> <s_user_duplicate_titles>
CHEMBL286_lig508

> <i_f3d_flags>
0

> <s_m_subgroup_title>
dock_pv

> <s_m_subgroupid>
dock_pv

> <b_m_subgroup_collapsed>
1

$$$$
CHEMBL286_lig645
                    3D
 Schrodinger Suite 2021-1.
 95 98  0  0  1  0            999 V2000
   -6.0171  -19.2841  -10.8821 C   0  0  0  0  0  0
   -3.3071  -19.0830  -12.4073 C   0  0  0  0  0  0
   -0.4816  -17.6527  -11.0544 C   0  0  0  0  0  0
   -3.8466  -18.2105  -11.5434 N   0  0  0  0  0  0
   -7.3022  -19.4473  -11.2497 N   0  0  0  0  0  0
   -5.2866  -18.0056  -11.3784 C   0  0  1  0  0  0
   -1.1613  -18.8628  -11.0887 N   0  0  0  0  0  0
   -7.2037  -13.8165  -12.4141 N   0  0  0  0  0  0
   -1.7839  -19.3877  -12.3213 C   0  0  1  0  0  0
   -8.2958  -20.2976  -10.5768 C   0  0  1  0  0  0
   -6.2619  -15.8211  -12.3820 C   0  0  0  0  0  0
   -5.9044  -17.2728  -12.6142 C   0  0  0  0  0  0
   -5.4711  -14.9520  -11.6206 N   0  0  0  0  0  0
   -6.0810  -13.7770  -11.6956 C   0  0  0  0  0  0
   -0.2549  -17.3425   -9.7557 O   0  0  0  0  0  0
   -7.3525  -15.1202  -12.8565 C   0  0  0  0  0  0
   -7.9899  -21.8300  -10.7169 C   0  0  2  0  0  0
  -11.1149  -22.9346  -12.1966 C   0  0  0  0  0  0
  -11.2170  -21.8535  -11.3803 N   0  0  0  0  0  0
   -0.1400  -16.9688  -12.0208 O   0  0  0  0  0  0
   -9.5223  -23.6705  -12.4210 S   0  0  0  0  0  0
   -4.0020  -19.6826  -13.2209 O   0  0  0  0  0  0
   -5.4460  -20.0116  -10.0687 O   0  0  0  0  0  0
   -1.3770  -20.8865  -12.5077 C   0  0  0  0  0  0
   -8.6201  -19.8323   -9.1203 C   0  0  0  0  0  0
   -8.2514  -22.3776  -12.1489 C   0  0  0  0  0  0
    0.5284  -16.2351   -9.2850 C   0  0  0  0  0  0
   -2.3388  -21.9512  -11.9857 C   0  0  0  0  0  0
   -8.6692  -22.6192   -9.7510 O   0  0  0  0  0  0
   -8.9736  -18.3387   -8.8394 C   0  0  0  0  0  0
  -12.4336  -21.2783  -11.2210 C   0  0  0  0  0  0
  -12.2169  -23.4646  -12.8734 C   0  0  0  0  0  0
   -0.0336  -14.8740   -9.7654 C   0  0  0  0  0  0
    2.0056  -16.4060   -9.7026 C   0  0  0  0  0  0
    0.4145  -16.3110   -7.7502 C   0  0  0  0  0  0
   -3.1813  -22.6448  -12.8813 C   0  0  0  0  0  0
   -2.5049  -22.1524  -10.5990 C   0  0  0  0  0  0
   -7.7933  -17.3570   -9.0286 C   0  0  0  0  0  0
  -10.1460  -17.7976   -9.6923 C   0  0  0  0  0  0
  -13.5760  -21.7436  -11.8700 C   0  0  0  0  0  0
  -13.4640  -22.8551  -12.7082 C   0  0  0  0  0  0
   -3.4636  -23.0415  -10.1351 C   0  0  0  0  0  0
   -4.1354  -23.5302  -12.3978 C   0  0  0  0  0  0
   -8.1200  -15.9656   -8.5061 C   0  0  0  0  0  0
  -10.5594  -16.3864   -9.2202 C   0  0  0  0  0  0
   -4.2749  -23.7282  -11.0291 C   0  0  0  0  0  0
   -9.3600  -15.4088   -9.2321 C   0  0  0  0  0  0
   -3.2505  -17.7398  -10.8806 H   0  0  0  0  0  0
   -7.6729  -18.8135  -11.9419 H   0  0  0  0  0  0
   -5.3440  -17.3348  -10.5233 H   0  0  0  0  0  0
   -1.3223  -19.3507  -10.2206 H   0  0  0  0  0  0
   -7.8201  -13.0382  -12.6061 H   0  0  0  0  0  0
   -1.3235  -18.8666  -13.1633 H   0  0  0  0  0  0
   -9.2157  -20.1200  -11.1325 H   0  0  0  0  0  0
   -5.2143  -17.2865  -13.4611 H   0  0  0  0  0  0
   -6.7990  -17.7624  -12.9982 H   0  0  0  0  0  0
   -5.6981  -12.8808  -11.2281 H   0  0  0  0  0  0
   -8.1812  -15.4375  -13.4739 H   0  0  0  0  0  0
   -6.9386  -21.9987  -10.4819 H   0  0  0  0  0  0
   -0.4141  -21.0740  -12.0312 H   0  0  0  0  0  0
   -1.2003  -21.0826  -13.5678 H   0  0  0  0  0  0
   -9.4673  -20.4236   -8.7639 H   0  0  0  0  0  0
   -7.7853  -20.1145   -8.4769 H   0  0  0  0  0  0
   -8.4941  -21.5593  -12.8251 H   0  0  0  0  0  0
   -7.3176  -22.7841  -12.5358 H   0  0  0  0  0  0
   -8.7389  -23.5110  -10.1027 H   0  0  0  0  0  0
   -9.2672  -18.2927   -7.7881 H   0  0  0  0  0  0
  -12.4720  -20.4238  -10.5640 H   0  0  0  0  0  0
  -12.1100  -24.3251  -13.5184 H   0  0  0  0  0  0
   -1.1011  -14.7938   -9.5567 H   0  0  0  0  0  0
    0.4610  -14.0389   -9.2698 H   0  0  0  0  0  0
    0.0952  -14.7281  -10.8384 H   0  0  0  0  0  0
    2.3845  -17.3901   -9.4205 H   0  0  0  0  0  0
    2.1302  -16.3098  -10.7812 H   0  0  0  0  0  0
    2.6435  -15.6631   -9.2271 H   0  0  0  0  0  0
    0.7950  -17.2590   -7.3679 H   0  0  0  0  0  0
    0.9760  -15.5158   -7.2628 H   0  0  0  0  0  0
   -0.6230  -16.2294   -7.4265 H   0  0  0  0  0  0
   -3.1035  -22.4734  -13.9451 H   0  0  0  0  0  0
   -1.8960  -21.6044   -9.8945 H   0  0  0  0  0  0
   -6.9096  -17.7293   -8.5099 H   0  0  0  0  0  0
   -7.5274  -17.2651  -10.0737 H   0  0  0  0  0  0
   -9.8901  -17.8057  -10.7523 H   0  0  0  0  0  0
  -11.0041  -18.4608   -9.6217 H   0  0  0  0  0  0
  -14.5331  -21.2665  -11.7204 H   0  0  0  0  0  0
  -14.3316  -23.2467  -13.2199 H   0  0  0  0  0  0
   -3.5887  -23.1857   -9.0700 H   0  0  0  0  0  0
   -4.7821  -24.0545  -13.0867 H   0  0  0  0  0  0
   -8.2687  -16.0632   -7.4398 H   0  0  0  0  0  0
   -7.2674  -15.2986   -8.6422 H   0  0  0  0  0  0
  -10.9693  -16.4436   -8.2113 H   0  0  0  0  0  0
  -11.3616  -16.0016   -9.8548 H   0  0  0  0  0  0
   -5.0245  -24.4106  -10.6572 H   0  0  0  0  0  0
   -9.6488  -14.4409   -8.8202 H   0  0  0  0  0  0
   -9.0689  -15.2259  -10.2666 H   0  0  0  0  0  0
  1  5  1  0  0  0
  1  6  1  0  0  0
  1 23  2  0  0  0
  2  4  1  0  0  0
  2  9  1  0  0  0
  2 22  2  0  0  0
  3  7  1  0  0  0
  3 15  1  0  0  0
  3 20  2  0  0  0
  4  6  1  0  0  0
  4 48  1  0  0  0
  5 10  1  0  0  0
  5 49  1  0  0  0
  6 12  1  0  0  0
  6 50  1  0  0  0
  7  9  1  0  0  0
  7 51  1  0  0  0
  8 16  1  0  0  0
  8 14  1  0  0  0
  8 52  1  0  0  0
  9 24  1  0  0  0
  9 53  1  0  0  0
 10 17  1  0  0  0
 10 25  1  0  0  0
 10 54  1  0  0  0
 11 12  1  0  0  0
 11 13  1  0  0  0
 11 16  2  0  0  0
 12 55  1  0  0  0
 12 56  1  0  0  0
 13 14  2  0  0  0
 14 57  1  0  0  0
 15 27  1  0  0  0
 16 58  1  0  0  0
 17 26  1  0  0  0
 17 29  1  0  0  0
 17 59  1  0  0  0
 18 21  1  0  0  0
 18 19  1  0  0  0
 18 32  2  0  0  0
 19 31  2  0  0  0
 21 26  1  0  0  0
 24 28  1  0  0  0
 24 60  1  0  0  0
 24 61  1  0  0  0
 25 30  1  0  0  0
 25 62  1  0  0  0
 25 63  1  0  0  0
 26 64  1  0  0  0
 26 65  1  0  0  0
 27 33  1  0  0  0
 27 34  1  0  0  0
 27 35  1  0  0  0
 28 36  1  0  0  0
 28 37  2  0  0  0
 29 66  1  0  0  0
 30 38  1  0  0  0
 30 39  1  0  0  0
 30 67  1  0  0  0
 31 40  1  0  0  0
 31 68  1  0  0  0
 32 41  1  0  0  0
 32 69  1  0  0  0
 33 70  1  0  0  0
 33 71  1  0  0  0
 33 72  1  0  0  0
 34 73  1  0  0  0
 34 74  1  0  0  0
 34 75  1  0  0  0
 35 76  1  0  0  0
 35 77  1  0  0  0
 35 78  1  0  0  0
 36 43  2  0  0  0
 36 79  1  0  0  0
 37 42  1  0  0  0
 37 80  1  0  0  0
 38 44  1  0  0  0
 38 81  1  0  0  0
 38 82  1  0  0  0
 39 45  1  0  0  0
 39 83  1  0  0  0
 39 84  1  0  0  0
 40 41  2  0  0  0
 40 85  1  0  0  0
 41 86  1  0  0  0
 42 46  2  0  0  0
 42 87  1  0  0  0
 43 46  1  0  0  0
 43 88  1  0  0  0
 44 47  1  0  0  0
 44 89  1  0  0  0
 44 90  1  0  0  0
 45 47  1  0  0  0
 45 91  1  0  0  0
 45 92  1  0  0  0
 46 93  1  0  0  0
 47 94  1  0  0  0
 47 95  1  0  0  0
M  END
> <s_m_entry_id>
26311

> <s_m_entry_name>
dock_pv.135

> <s_m_Source_Path>
/home/csk/Desktop/cluster/DUD-E-result/reni

> <s_m_Source_File>
dock_pv.maegz

> <i_m_Source_File_Index>
135

> <chembl_id>
CHEMBL334319

> <chembl_pref_name>
None

> <i_lp_mmshare_version>
53161

> <r_lp_tautomer_probability>
0.499999999999999

> <s_lp_Force_Field>
OPLS_2005

> <r_lp_Energy>
16.962683

> <b_lp_Chiralities_Consistent>
1

> <s_lp_Variant>
CHEMBL286_lig645-2

> <s_i_glide_gridfile>
glide-grid_3g6z

> <i_i_glide_lignum>
1829

> <i_i_glide_rotatable_bonds>
21

> <r_i_docking_score>
-7.57199754123652

> <r_i_glide_ligand_efficiency>
-0.161106330664607

> <r_i_glide_ligand_efficiency_sa>
-0.581404727031717

> <r_i_glide_ligand_efficiency_ln>
-1.56118909423845

> <r_i_glide_gscore>
-7.57199754123652

> <r_i_glide_lipo>
-3.28453553674328

> <r_i_glide_hbond>
-0.363253544470719

> <r_i_glide_metal>
0

> <r_i_glide_rewards>
-0.637547895884235

> <r_i_glide_evdw>
-53.4833183288574

> <r_i_glide_ecoul>
-7.75540590286255

> <r_i_glide_erotb>
0.563827208356299

> <r_i_glide_esite>
-0.0130109706223375

> <r_i_glide_emodel>
-76.2282938807517

> <r_i_glide_energy>
-61.23872423172

> <r_i_glide_einternal>
27.2500247955322

> <i_i_glide_confnum>
34

> <i_i_glide_posenum>
115

> <r_i_glide_eff_state_penalty>
0

> <s_user_duplicate_titles>
CHEMBL286_lig645,CHEMBL286_lig645

> <i_f3d_flags>
0

> <s_m_subgroup_title>
dock_pv

> <s_m_subgroupid>
dock_pv

> <b_m_subgroup_collapsed>
1

$$$$
CHEMBL286_lig1357
                    3D
 Schrodinger Suite 2021-1.
102105  0  0  1  0            999 V2000
   -5.0504  -16.6510   -9.5664 C   0  0  0  0  0  0
   -7.6133  -17.7438  -11.0436 C   0  0  0  0  0  0
   -4.3892  -15.7470  -10.3144 N   0  0  0  0  0  0
   -3.7751  -14.4490   -9.9740 C   0  0  2  0  0  0
   -6.7015  -18.3922  -10.2972 N   0  0  0  0  0  0
   -5.2782  -18.0408  -10.2121 C   0  0  1  0  0  0
   -3.9523  -20.6065  -11.6305 N   0  0  0  0  0  0
   -2.2788  -14.4870  -10.4294 C   0  0  2  0  0  0
   -9.0157  -18.3749  -11.2418 C   0  0  1  0  0  0
   -4.7101  -19.6481  -12.1396 C   0  0  0  0  0  0
   -4.5336  -18.2503  -11.5708 C   0  0  0  0  0  0
   -1.2792  -15.1960   -9.4470 C   0  0  2  0  0  0
   -5.4690  -21.7786  -13.3574 S   0  0  0  0  0  0
   -4.2183  -21.7724  -12.1614 C   0  0  0  0  0  0
   -8.5102  -20.9444  -10.7766 C   0  0  0  0  0  0
   -9.3710  -19.7074  -10.4974 C   0  0  0  0  0  0
   -5.6046  -20.0606  -13.1280 C   0  0  0  0  0  0
   -4.0467  -13.8975   -8.5330 C   0  0  0  0  0  0
   -7.3469  -16.6875  -11.6205 O   0  0  0  0  0  0
   -5.4551  -16.4631   -8.4191 O   0  0  0  0  0  0
  -11.6423  -22.7895  -11.2212 N   0  0  0  0  0  0
  -10.1497  -17.3087  -11.1475 C   0  0  0  0  0  0
    0.2311  -15.1141   -9.8205 C   0  0  0  0  0  0
   -7.6303  -21.2715   -9.9792 O   0  0  0  0  0  0
   -8.8394  -21.6621  -11.8579 N   0  0  0  0  0  0
  -10.9686  -23.5834  -12.0977 C   0  0  0  0  0  0
   -1.8690  -13.1822  -10.8197 O   0  0  0  0  0  0
   -1.6416  -16.5382   -9.1889 O   0  0  0  0  0  0
   -9.5759  -24.0256  -11.6649 C   0  0  0  0  0  0
  -10.6745  -16.8603   -9.7789 C   0  0  0  0  0  0
   -8.4638  -23.0514  -12.1179 C   0  0  0  0  0  0
   -3.6813  -12.4101   -8.2307 C   0  0  0  0  0  0
    0.8328  -16.1508  -10.8149 C   0  0  0  0  0  0
  -12.8153  -22.2430  -11.6208 C   0  0  0  0  0  0
  -11.4585  -23.8796  -13.3713 C   0  0  0  0  0  0
  -11.8230  -16.0668   -9.7653 C   0  0  0  0  0  0
  -10.0687  -17.2025   -8.5641 C   0  0  0  0  0  0
   -4.6264  -11.8177   -7.1533 C   0  0  0  0  0  0
   -2.2266  -12.2035   -7.7305 C   0  0  0  0  0  0
   -0.0595  -16.4587  -12.0209 C   0  0  0  0  0  0
    1.2859  -17.4559  -10.1422 C   0  0  0  0  0  0
  -13.3522  -22.4643  -12.8879 C   0  0  0  0  0  0
  -12.4051  -15.6727   -8.5651 C   0  0  0  0  0  0
  -10.6843  -16.8630   -7.3610 C   0  0  0  0  0  0
  -12.6689  -23.3041  -13.7642 C   0  0  0  0  0  0
   -1.8965  -10.7155   -7.5089 C   0  0  0  0  0  0
   -4.3405  -10.3262   -6.8783 C   0  0  0  0  0  0
   -2.8661  -10.0716   -6.5041 C   0  0  0  0  0  0
  -11.8414  -16.0870   -7.3640 C   0  0  0  0  0  0
   -4.2224  -16.0308  -11.2698 H   0  0  0  0  0  0
   -4.2929  -13.7562  -10.6413 H   0  0  0  0  0  0
   -6.9558  -19.2787   -9.8765 H   0  0  0  0  0  0
   -4.8513  -18.7515   -9.5016 H   0  0  0  0  0  0
   -2.2689  -15.0371  -11.3682 H   0  0  0  0  0  0
   -8.9866  -18.6388  -12.3025 H   0  0  0  0  0  0
   -4.8927  -17.5280  -12.3082 H   0  0  0  0  0  0
   -3.4698  -18.0334  -11.4519 H   0  0  0  0  0  0
   -1.3766  -14.7209   -8.4743 H   0  0  0  0  0  0
   -3.7099  -22.6819  -11.8770 H   0  0  0  0  0  0
  -10.3928  -19.9800  -10.7679 H   0  0  0  0  0  0
   -9.4083  -19.5927   -9.4185 H   0  0  0  0  0  0
   -6.3318  -19.4690  -13.6729 H   0  0  0  0  0  0
   -5.1222  -13.9861   -8.3773 H   0  0  0  0  0  0
   -3.6010  -14.5546   -7.7845 H   0  0  0  0  0  0
   -9.8516  -16.4025  -11.6677 H   0  0  0  0  0  0
  -11.0002  -17.6789  -11.7217 H   0  0  0  0  0  0
    0.4534  -14.1118  -10.1881 H   0  0  0  0  0  0
    0.8037  -15.1742   -8.8931 H   0  0  0  0  0  0
   -9.5090  -21.2650  -12.5004 H   0  0  0  0  0  0
   -1.0404  -13.2353  -11.3181 H   0  0  0  0  0  0
   -1.4109  -17.0678   -9.9548 H   0  0  0  0  0  0
   -9.5543  -24.1205  -10.5787 H   0  0  0  0  0  0
   -9.3713  -25.0259  -12.0467 H   0  0  0  0  0  0
   -7.5082  -23.2989  -11.6524 H   0  0  0  0  0  0
   -8.3548  -23.1110  -13.2016 H   0  0  0  0  0  0
   -3.8114  -11.8205   -9.1405 H   0  0  0  0  0  0
    1.7324  -15.6836  -11.2178 H   0  0  0  0  0  0
  -13.3166  -21.6029  -10.9109 H   0  0  0  0  0  0
  -10.8970  -24.4981  -14.0566 H   0  0  0  0  0  0
  -12.2686  -15.7641  -10.6980 H   0  0  0  0  0  0
   -9.1389  -17.7391   -8.5267 H   0  0  0  0  0  0
   -5.6654  -11.9351   -7.4650 H   0  0  0  0  0  0
   -4.5525  -12.3943   -6.2290 H   0  0  0  0  0  0
   -2.0577  -12.7783   -6.8173 H   0  0  0  0  0  0
   -1.5037  -12.5968   -8.4354 H   0  0  0  0  0  0
   -0.8989  -17.1066  -11.7630 H   0  0  0  0  0  0
   -0.4730  -15.5397  -12.4209 H   0  0  0  0  0  0
    0.5019  -16.9546  -12.8145 H   0  0  0  0  0  0
    0.4318  -18.0497   -9.8139 H   0  0  0  0  0  0
    1.8608  -18.0752  -10.8318 H   0  0  0  0  0  0
    1.9205  -17.2630   -9.2776 H   0  0  0  0  0  0
  -14.2694  -21.9919  -13.1886 H   0  0  0  0  0  0
  -13.2994  -15.0668   -8.5660 H   0  0  0  0  0  0
  -10.2589  -17.1739   -6.4212 H   0  0  0  0  0  0
  -13.0672  -23.5066  -14.7496 H   0  0  0  0  0  0
   -1.9506  -10.1891   -8.4617 H   0  0  0  0  0  0
   -0.8716  -10.6085   -7.1572 H   0  0  0  0  0  0
   -4.5935   -9.7430   -7.7664 H   0  0  0  0  0  0
   -4.9915   -9.9748   -6.0767 H   0  0  0  0  0  0
   -2.6691   -9.0028   -6.4229 H   0  0  0  0  0  0
   -2.6693  -10.4880   -5.5190 H   0  0  0  0  0  0
  -12.2972  -15.7995   -6.4290 H   0  0  0  0  0  0
  1  3  1  0  0  0
  1  6  1  0  0  0
  1 20  2  0  0  0
  2  5  1  0  0  0
  2  9  1  0  0  0
  2 19  2  0  0  0
  3  4  1  0  0  0
  3 50  1  0  0  0
  4  8  1  0  0  0
  4 18  1  0  0  0
  4 51  1  0  0  0
  5  6  1  0  0  0
  5 52  1  0  0  0
  6 11  1  0  0  0
  6 53  1  0  0  0
  7 10  1  0  0  0
  7 14  2  0  0  0
  8 12  1  0  0  0
  8 27  1  0  0  0
  8 54  1  0  0  0
  9 16  1  0  0  0
  9 22  1  0  0  0
  9 55  1  0  0  0
 10 11  1  0  0  0
 10 17  2  0  0  0
 11 56  1  0  0  0
 11 57  1  0  0  0
 12 23  1  0  0  0
 12 28  1  0  0  0
 12 58  1  0  0  0
 13 17  1  0  0  0
 13 14  1  0  0  0
 14 59  1  0  0  0
 15 16  1  0  0  0
 15 24  2  0  0  0
 15 25  1  0  0  0
 16 60  1  0  0  0
 16 61  1  0  0  0
 17 62  1  0  0  0
 18 32  1  0  0  0
 18 63  1  0  0  0
 18 64  1  0  0  0
 21 26  1  0  0  0
 21 34  2  0  0  0
 22 30  1  0  0  0
 22 65  1  0  0  0
 22 66  1  0  0  0
 23 33  1  0  0  0
 23 67  1  0  0  0
 23 68  1  0  0  0
 25 31  1  0  0  0
 25 69  1  0  0  0
 26 29  1  0  0  0
 26 35  2  0  0  0
 27 70  1  0  0  0
 28 71  1  0  0  0
 29 31  1  0  0  0
 29 72  1  0  0  0
 29 73  1  0  0  0
 30 36  2  0  0  0
 30 37  1  0  0  0
 31 74  1  0  0  0
 31 75  1  0  0  0
 32 38  1  0  0  0
 32 39  1  0  0  0
 32 76  1  0  0  0
 33 40  1  0  0  0
 33 41  1  0  0  0
 33 77  1  0  0  0
 34 42  1  0  0  0
 34 78  1  0  0  0
 35 45  1  0  0  0
 35 79  1  0  0  0
 36 43  1  0  0  0
 36 80  1  0  0  0
 37 44  2  0  0  0
 37 81  1  0  0  0
 38 47  1  0  0  0
 38 82  1  0  0  0
 38 83  1  0  0  0
 39 46  1  0  0  0
 39 84  1  0  0  0
 39 85  1  0  0  0
 40 86  1  0  0  0
 40 87  1  0  0  0
 40 88  1  0  0  0
 41 89  1  0  0  0
 41 90  1  0  0  0
 41 91  1  0  0  0
 42 45  2  0  0  0
 42 92  1  0  0  0
 43 49  2  0  0  0
 43 93  1  0  0  0
 44 49  1  0  0  0
 44 94  1  0  0  0
 45 95  1  0  0  0
 46 48  1  0  0  0
 46 96  1  0  0  0
 46 97  1  0  0  0
 47 48  1  0  0  0
 47 98  1  0  0  0
 47 99  1  0  0  0
 48100  1  0  0  0
 48101  1  0  0  0
 49102  1  0  0  0
M  END
> <s_m_entry_id>
26312

> <s_m_entry_name>
dock_pv.136

> <s_m_Source_Path>
/home/csk/Desktop/cluster/DUD-E-result/reni

> <s_m_Source_File>
dock_pv.maegz

> <i_m_Source_File_Index>
136

> <chembl_id>
CHEMBL143790

> <chembl_pref_name>
None

> <i_lp_mmshare_version>
53161

> <r_lp_tautomer_probability>
1

> <s_lp_Force_Field>
OPLS_2005

> <r_lp_Energy>
27.268543

> <b_lp_Chiralities_Consistent>
1

> <s_lp_Variant>
CHEMBL286_lig1357-1

> <s_i_glide_gridfile>
glide-grid_3g6z

> <i_i_glide_lignum>
4393

> <i_i_glide_rotatable_bonds>
24

> <r_i_docking_score>
-7.57187072425833

> <r_i_glide_ligand_efficiency>
-0.154527973964456

> <r_i_glide_ligand_efficiency_sa>
-0.565465096752851

> <r_i_glide_ligand_efficiency_ln>
-1.54786363006483

> <r_i_glide_gscore>
-7.57187072425833

> <r_i_glide_lipo>
-3.78295679114559

> <r_i_glide_hbond>
-0.32

> <r_i_glide_metal>
0

> <r_i_glide_rewards>
-0.534993605794006

> <r_i_glide_evdw>
-54.9701538085938

> <r_i_glide_ecoul>
-4.92664861679077

> <r_i_glide_erotb>
0.588478200690631

> <r_i_glide_esite>
-0.0348935450610629

> <r_i_glide_emodel>
-77.9658808995353

> <r_i_glide_energy>
-59.8968024253845

> <r_i_glide_einternal>
20.427791595459

> <i_i_glide_confnum>
11

> <i_i_glide_posenum>
290

> <r_i_glide_eff_state_penalty>
0

> <s_user_duplicate_titles>
CHEMBL286_lig1357

> <i_f3d_flags>
0

> <s_m_subgroup_title>
dock_pv

> <s_m_subgroupid>
dock_pv

> <b_m_subgroup_collapsed>
1

$$$$
CHEMBL286_lig2798
                    3D
 Schrodinger Suite 2021-1.
 55 57  0  0  1  0            999 V2000
   -8.9047  -16.0764   -9.5463 C   0  0  0  0  0  0
   -8.4021  -14.7900   -9.3640 C   0  0  0  0  0  0
   -9.2387  -13.8134   -8.8211 C   0  0  0  0  0  0
  -10.2216  -16.3716   -9.2166 C   0  0  0  0  0  0
  -11.0824  -15.3856   -8.7263 C   0  0  0  0  0  0
  -10.5928  -14.0674   -8.5368 C   0  0  0  0  0  0
  -11.3903  -13.0738   -7.9431 N   0  0  0  0  0  0
  -12.8340  -13.3389   -7.7822 C   0  0  0  0  0  0
  -13.1177  -14.7966   -7.3997 C   0  0  0  0  0  0
  -12.5384  -15.7309   -8.4607 C   0  0  0  0  0  0
  -11.1816  -11.6339   -8.1706 C   0  0  0  0  0  0
  -11.5389  -10.7880   -6.9355 C   0  0  0  0  0  0
  -10.7068   -9.4972   -6.8073 C   0  0  0  0  0  0
  -11.0452   -8.7936   -5.6186 O   0  0  0  0  0  0
  -12.2609   -8.0677   -5.7013 C   0  0  0  0  0  0
   -7.0284  -14.4473   -9.8205 C   0  0  0  0  0  0
   -5.9938  -14.0955   -8.9298 C   0  0  0  0  0  0
   -4.7431  -13.7668   -9.3491 N   0  0  0  0  0  0
   -4.4868  -13.7845  -10.6752 C   0  0  0  0  0  0
   -5.4423  -14.1259  -11.6227 C   0  0  0  0  0  0
   -6.7341  -14.4670  -11.1978 C   0  0  0  0  0  0
   -3.2045  -13.4475  -11.0863 N   0  0  0  0  0  0
   -7.7515  -14.8147  -12.0689 O   0  0  0  0  0  0
   -7.4727  -14.9816  -13.4529 C   0  0  0  0  0  0
   -6.1685  -14.1013   -7.4121 C   0  0  0  0  0  0
   -6.1809  -15.5212   -6.8228 C   0  0  0  0  0  0
   -8.2767  -16.8466   -9.9702 H   0  0  0  0  0  0
   -8.8036  -12.8433   -8.6562 H   0  0  0  0  0  0
  -10.5887  -17.3744   -9.3820 H   0  0  0  0  0  0
  -13.3559  -12.6146   -7.1569 H   0  0  0  0  0  0
  -13.2698  -13.1642   -8.7683 H   0  0  0  0  0  0
  -12.6759  -15.0080   -6.4254 H   0  0  0  0  0  0
  -14.1901  -14.9601   -7.2885 H   0  0  0  0  0  0
  -12.6610  -16.7747   -8.1675 H   0  0  0  0  0  0
  -13.0693  -15.5988   -9.4004 H   0  0  0  0  0  0
  -11.7554  -11.3174   -9.0445 H   0  0  0  0  0  0
  -10.1516  -11.4027   -8.4205 H   0  0  0  0  0  0
  -11.4978  -11.3791   -6.0210 H   0  0  0  0  0  0
  -12.5844  -10.5080   -7.0477 H   0  0  0  0  0  0
  -10.8009   -8.8600   -7.6893 H   0  0  0  0  0  0
   -9.6515   -9.7604   -6.7291 H   0  0  0  0  0  0
  -12.5386   -7.6628   -4.7293 H   0  0  0  0  0  0
  -13.0690   -8.7114   -6.0190 H   0  0  0  0  0  0
  -12.1812   -7.2566   -6.4210 H   0  0  0  0  0  0
   -5.1745  -14.1196  -12.6676 H   0  0  0  0  0  0
   -2.9681  -13.5243  -12.0659 H   0  0  0  0  0  0
   -2.5079  -13.2431  -10.3869 H   0  0  0  0  0  0
   -8.3940  -15.2614  -13.9620 H   0  0  0  0  0  0
   -7.1123  -14.0629  -13.9132 H   0  0  0  0  0  0
   -6.7442  -15.7767  -13.6204 H   0  0  0  0  0  0
   -5.3651  -13.5293   -6.9441 H   0  0  0  0  0  0
   -7.0825  -13.5755   -7.1431 H   0  0  0  0  0  0
   -6.2686  -15.4975   -5.7367 H   0  0  0  0  0  0
   -7.0177  -16.1072   -7.2027 H   0  0  0  0  0  0
   -5.2635  -16.0566   -7.0707 H   0  0  0  0  0  0
  1  2  2  0  0  0
  1  4  1  0  0  0
  1 27  1  0  0  0
  2  3  1  0  0  0
  2 16  1  0  0  0
  3  6  2  0  0  0
  3 28  1  0  0  0
  4  5  2  0  0  0
  4 29  1  0  0  0
  5  6  1  0  0  0
  5 10  1  0  0  0
  6  7  1  0  0  0
  7  8  1  0  0  0
  7 11  1  0  0  0
  8  9  1  0  0  0
  8 30  1  0  0  0
  8 31  1  0  0  0
  9 10  1  0  0  0
  9 32  1  0  0  0
  9 33  1  0  0  0
 10 34  1  0  0  0
 10 35  1  0  0  0
 11 12  1  0  0  0
 11 36  1  0  0  0
 11 37  1  0  0  0
 12 13  1  0  0  0
 12 38  1  0  0  0
 12 39  1  0  0  0
 13 14  1  0  0  0
 13 40  1  0  0  0
 13 41  1  0  0  0
 14 15  1  0  0  0
 15 42  1  0  0  0
 15 43  1  0  0  0
 15 44  1  0  0  0
 16 17  2  0  0  0
 16 21  1  0  0  0
 17 18  1  0  0  0
 17 25  1  0  0  0
 18 19  2  0  0  0
 19 20  1  0  0  0
 19 22  1  0  0  0
 20 21  2  0  0  0
 20 45  1  0  0  0
 21 23  1  0  0  0
 22 46  1  0  0  0
 22 47  1  0  0  0
 23 24  1  0  0  0
 24 48  1  0  0  0
 24 49  1  0  0  0
 24 50  1  0  0  0
 25 26  1  0  0  0
 25 51  1  0  0  0
 25 52  1  0  0  0
 26 53  1  0  0  0
 26 54  1  0  0  0
 26 55  1  0  0  0
M  END
> <s_m_entry_id>
26313

> <s_m_entry_name>
dock_pv.137

> <s_m_Source_Path>
/home/csk/Desktop/cluster/DUD-E-result/reni

> <s_m_Source_File>
dock_pv.maegz

> <i_m_Source_File_Index>
137

> <chembl_id>
CHEMBL4102221

> <chembl_pref_name>
None

> <i_lp_mmshare_version>
53161

> <r_lp_tautomer_probability>
0.999999586418856

> <s_lp_Force_Field>
OPLS_2005

> <r_lp_Energy>
23.062868

> <b_lp_Chiralities_Consistent>
1

> <s_lp_Variant>
CHEMBL286_lig2798-1

> <s_i_glide_gridfile>
glide-grid_3g6z

> <i_i_glide_lignum>
6896

> <i_i_glide_rotatable_bonds>
7

> <r_i_docking_score>
-7.55642894021533

> <r_i_glide_ligand_efficiency>
-0.290631882315974

> <r_i_glide_ligand_efficiency_sa>
-0.860995807779838

> <r_i_glide_ligand_efficiency_ln>
-1.77460254194387

> <r_i_glide_gscore>
-7.55642894021533

> <r_i_glide_lipo>
-3.8607205194139

> <r_i_glide_hbond>
0

> <r_i_glide_metal>
0

> <r_i_glide_rewards>
-2.11228730343093

> <r_i_glide_evdw>
-40.0503234863281

> <r_i_glide_ecoul>
-1.23754441738129

> <r_i_glide_erotb>
0.605278082404817

> <r_i_glide_esite>
-0.000551362851719707

> <r_i_glide_emodel>
-55.7748184069842

> <r_i_glide_energy>
-41.2878679037094

> <r_i_glide_einternal>
6.85409116744995

> <i_i_glide_confnum>
154

> <i_i_glide_posenum>
363

> <r_i_glide_eff_state_penalty>
0

> <s_user_duplicate_titles>
CHEMBL286_lig2798

> <i_f3d_flags>
0

> <s_m_subgroup_title>
dock_pv

> <s_m_subgroupid>
dock_pv

> <b_m_subgroup_collapsed>
1

$$$$
CHEMBL286_lig936
                    3D
 Schrodinger Suite 2021-1.
104107  0  0  1  0            999 V2000
   -5.1375  -19.1629  -10.1627 C   0  0  0  0  0  0
   -8.2401  -18.4090   -9.3962 C   0  0  0  0  0  0
  -11.4823  -19.2384  -11.2210 C   0  0  0  0  0  0
   -4.9897  -17.8885   -9.7545 N   0  0  0  0  0  0
   -4.1125  -16.8984  -10.3916 C   0  0  2  0  0  0
   -7.5666  -19.4423   -9.9384 N   0  0  0  0  0  0
   -6.2717  -19.9607   -9.4931 C   0  0  1  0  0  0
   -9.6046  -18.0124  -10.0347 C   0  0  1  0  0  0
  -10.2521  -19.2306  -10.5872 N   0  0  0  0  0  0
   -3.8224  -15.6551   -9.4860 C   0  0  2  0  0  0
   -7.7540  -22.7060  -12.8206 N   0  0  0  0  0  0
   -8.3710  -22.3324  -10.7286 N   0  0  0  0  0  0
  -10.2320  -15.6876   -8.8894 C   0  0  0  0  0  0
  -10.5103  -17.2004   -9.0397 C   0  0  0  0  0  0
   -8.7453  -22.7273  -11.9340 C   0  0  0  0  0  0
   -2.7627  -15.8563   -8.3616 C   0  0  2  0  0  0
   -6.1815  -21.4954   -9.7212 C   0  0  0  0  0  0
  -11.2511  -14.8470   -8.3273 C   0  0  0  0  0  0
  -11.7550  -20.5096  -11.6209 O   0  0  0  0  0  0
  -12.2469  -18.2839  -11.3908 O   0  0  0  0  0  0
   -4.6409  -16.5086  -11.8056 C   0  0  0  0  0  0
   -4.4725  -19.6845  -11.0612 O   0  0  0  0  0  0
   -7.8096  -17.7983   -8.4203 O   0  0  0  0  0  0
   -7.0062  -22.0383  -10.8593 C   0  0  0  0  0  0
   -2.5296  -14.6191   -7.4484 C   0  0  0  0  0  0
  -13.0569  -20.9744  -12.0198 C   0  0  0  0  0  0
   -6.6209  -22.2752  -12.1615 C   0  0  0  0  0  0
  -10.9760  -13.4540   -8.1174 C   0  0  0  0  0  0
   -5.0223  -15.1594   -8.8990 O   0  0  0  0  0  0
   -1.5257  -16.2725   -8.9111 O   0  0  0  0  0  0
   -5.9500  -15.6635  -11.8568 C   0  0  0  0  0  0
   -8.9986  -15.1144   -9.2213 C   0  0  0  0  0  0
   -8.7262  -13.7753   -8.9710 C   0  0  0  0  0  0
   -2.2836  -13.2391   -8.1288 C   0  0  0  0  0  0
  -12.5310  -15.3317   -7.9525 C   0  0  0  0  0  0
   -9.6968  -12.9506   -8.4211 C   0  0  0  0  0  0
  -13.8956  -21.0255  -10.7541 C   0  0  0  0  0  0
  -12.8539  -22.4151  -12.5471 C   0  0  0  0  0  0
  -13.8690  -20.1116  -13.0301 C   0  0  0  0  0  0
  -11.9779  -12.6049   -7.5845 C   0  0  0  0  0  0
   -5.6995  -14.1362  -12.0229 C   0  0  0  0  0  0
   -6.9783  -16.2049  -12.8776 C   0  0  0  0  0  0
   -1.0324  -13.1970   -9.0286 C   0  0  0  0  0  0
   -2.2310  -12.1160   -7.0742 C   0  0  0  0  0  0
  -13.4790  -14.4717   -7.4358 C   0  0  0  0  0  0
  -13.2210  -13.1225   -7.2563 C   0  0  0  0  0  0
   -8.2185  -15.2986  -12.9915 C   0  0  0  0  0  0
   -6.9150  -13.2662  -12.3809 C   0  0  0  0  0  0
   -7.8028  -13.9109  -13.4522 C   0  0  0  0  0  0
   -5.5789  -17.5438   -9.0049 H   0  0  0  0  0  0
   -3.1540  -17.3869  -10.5586 H   0  0  0  0  0  0
   -7.9443  -19.8936  -10.7588 H   0  0  0  0  0  0
   -6.1798  -19.8251   -8.4211 H   0  0  0  0  0  0
   -9.4013  -17.3701  -10.8917 H   0  0  0  0  0  0
   -9.8204  -20.1261  -10.4016 H   0  0  0  0  0  0
   -3.4376  -14.8693  -10.1386 H   0  0  0  0  0  0
   -7.8672  -22.8634  -13.8196 H   0  0  0  0  0  0
  -10.4770  -17.6477   -8.0467 H   0  0  0  0  0  0
  -11.5338  -17.3074   -9.3593 H   0  0  0  0  0  0
   -9.7613  -22.9967  -12.1878 H   0  0  0  0  0  0
   -3.0958  -16.6680   -7.7134 H   0  0  0  0  0  0
   -5.1482  -21.8175   -9.8488 H   0  0  0  0  0  0
   -6.5274  -21.9990   -8.8179 H   0  0  0  0  0  0
   -3.8426  -16.0035  -12.3485 H   0  0  0  0  0  0
   -4.7769  -17.4180  -12.3921 H   0  0  0  0  0  0
   -3.4135  -14.5267   -6.8150 H   0  0  0  0  0  0
   -1.7155  -14.8355   -6.7515 H   0  0  0  0  0  0
   -5.6748  -22.1424  -12.6657 H   0  0  0  0  0  0
   -5.6585  -14.9988   -9.6003 H   0  0  0  0  0  0
   -1.0858  -15.5061   -9.2822 H   0  0  0  0  0  0
   -6.4778  -15.7755  -10.9129 H   0  0  0  0  0  0
   -8.2134  -15.7122   -9.6452 H   0  0  0  0  0  0
   -7.7482  -13.3807   -9.2033 H   0  0  0  0  0  0
   -3.1457  -13.0155   -8.7584 H   0  0  0  0  0  0
  -12.8080  -16.3701   -8.0617 H   0  0  0  0  0  0
   -9.4771  -11.9159   -8.2177 H   0  0  0  0  0  0
  -13.9327  -20.0630  -10.2657 H   0  0  0  0  0  0
  -14.9247  -21.2636  -11.0156 H   0  0  0  0  0  0
  -13.4694  -21.7077  -10.0225 H   0  0  0  0  0  0
  -12.2253  -22.4522  -13.4409 H   0  0  0  0  0  0
  -12.3701  -23.0459  -11.8010 H   0  0  0  0  0  0
  -13.8014  -22.8889  -12.8002 H   0  0  0  0  0  0
  -13.4693  -19.7438  -13.9633 H   0  0  0  0  0  0
  -14.6690  -20.7428  -13.3740 H   0  0  0  0  0  0
  -14.2644  -19.2138  -12.5612 H   0  0  0  0  0  0
  -11.7707  -11.5533   -7.4334 H   0  0  0  0  0  0
   -5.1245  -13.7097  -11.2042 H   0  0  0  0  0  0
   -5.0690  -14.0210  -12.8880 H   0  0  0  0  0  0
   -6.5105  -16.2675  -13.8670 H   0  0  0  0  0  0
   -7.2604  -17.2304  -12.6343 H   0  0  0  0  0  0
   -0.1373  -13.5072   -8.4866 H   0  0  0  0  0  0
   -1.1390  -13.8385   -9.9015 H   0  0  0  0  0  0
   -0.8535  -12.1905   -9.4075 H   0  0  0  0  0  0
   -1.3932  -12.2575   -6.3884 H   0  0  0  0  0  0
   -2.1075  -11.1381   -7.5454 H   0  0  0  0  0  0
   -3.1469  -12.0662   -6.4783 H   0  0  0  0  0  0
  -14.4596  -14.8705   -7.2195 H   0  0  0  0  0  0
  -13.9912  -12.4730   -6.8623 H   0  0  0  0  0  0
   -8.7103  -15.2575  -12.0264 H   0  0  0  0  0  0
   -8.9469  -15.6631  -13.7041 H   0  0  0  0  0  0
   -7.5100  -13.0887  -11.4906 H   0  0  0  0  0  0
   -6.5835  -12.2843  -12.7137 H   0  0  0  0  0  0
   -8.6687  -13.2652  -13.6181 H   0  0  0  0  0  0
   -7.2993  -14.0602  -14.4160 H   0  0  0  0  0  0
  1  4  1  0  0  0
  1  7  1  0  0  0
  1 22  2  0  0  0
  2  6  1  0  0  0
  2  8  1  0  0  0
  2 23  2  0  0  0
  3  9  1  0  0  0
  3 19  1  0  0  0
  3 20  2  0  0  0
  4  5  1  0  0  0
  4 50  1  0  0  0
  5 10  1  0  0  0
  5 21  1  0  0  0
  5 51  1  0  0  0
  6  7  1  0  0  0
  6 52  1  0  0  0
  7 17  1  0  0  0
  7 53  1  0  0  0
  8  9  1  0  0  0
  8 14  1  0  0  0
  8 54  1  0  0  0
  9 55  1  0  0  0
 10 16  1  0  0  0
 10 29  1  0  0  0
 10 56  1  0  0  0
 11 27  1  0  0  0
 11 15  1  0  0  0
 11 57  1  0  0  0
 12 24  1  0  0  0
 12 15  2  0  0  0
 13 14  1  0  0  0
 13 18  2  0  0  0
 13 32  1  0  0  0
 14 58  1  0  0  0
 14 59  1  0  0  0
 15 60  1  0  0  0
 16 25  1  0  0  0
 16 30  1  0  0  0
 16 61  1  0  0  0
 17 24  1  0  0  0
 17 62  1  0  0  0
 17 63  1  0  0  0
 18 28  1  0  0  0
 18 35  1  0  0  0
 19 26  1  0  0  0
 21 31  1  0  0  0
 21 64  1  0  0  0
 21 65  1  0  0  0
 24 27  2  0  0  0
 25 34  1  0  0  0
 25 66  1  0  0  0
 25 67  1  0  0  0
 26 37  1  0  0  0
 26 38  1  0  0  0
 26 39  1  0  0  0
 27 68  1  0  0  0
 28 40  1  0  0  0
 28 36  2  0  0  0
 29 69  1  0  0  0
 30 70  1  0  0  0
 31 41  1  0  0  0
 31 42  1  0  0  0
 31 71  1  0  0  0
 32 33  2  0  0  0
 32 72  1  0  0  0
 33 36  1  0  0  0
 33 73  1  0  0  0
 34 43  1  0  0  0
 34 44  1  0  0  0
 34 74  1  0  0  0
 35 45  2  0  0  0
 35 75  1  0  0  0
 36 76  1  0  0  0
 37 77  1  0  0  0
 37 78  1  0  0  0
 37 79  1  0  0  0
 38 80  1  0  0  0
 38 81  1  0  0  0
 38 82  1  0  0  0
 39 83  1  0  0  0
 39 84  1  0  0  0
 39 85  1  0  0  0
 40 46  2  0  0  0
 40 86  1  0  0  0
 41 48  1  0  0  0
 41 87  1  0  0  0
 41 88  1  0  0  0
 42 47  1  0  0  0
 42 89  1  0  0  0
 42 90  1  0  0  0
 43 91  1  0  0  0
 43 92  1  0  0  0
 43 93  1  0  0  0
 44 94  1  0  0  0
 44 95  1  0  0  0
 44 96  1  0  0  0
 45 46  1  0  0  0
 45 97  1  0  0  0
 46 98  1  0  0  0
 47 49  1  0  0  0
 47 99  1  0  0  0
 47100  1  0  0  0
 48 49  1  0  0  0
 48101  1  0  0  0
 48102  1  0  0  0
 49103  1  0  0  0
 49104  1  0  0  0
M  END
> <s_m_entry_id>
26314

> <s_m_entry_name>
dock_pv.138

> <s_m_Source_Path>
/home/csk/Desktop/cluster/DUD-E-result/reni

> <s_m_Source_File>
dock_pv.maegz

> <i_m_Source_File_Index>
138

> <chembl_id>
CHEMBL3348541

> <chembl_pref_name>
None

> <i_lp_mmshare_version>
53161

> <r_lp_tautomer_probability>
0.499999999999999

> <s_lp_Force_Field>
OPLS_2005

> <r_lp_Energy>
33.881033

> <b_lp_Chiralities_Consistent>
1

> <s_lp_Variant>
CHEMBL286_lig936-1

> <s_i_glide_gridfile>
glide-grid_3g6z

> <i_i_glide_lignum>
2532

> <i_i_glide_rotatable_bonds>
22

> <r_i_docking_score>
-7.54956450691518

> <r_i_glide_ligand_efficiency>
-0.154072745039085

> <r_i_glide_ligand_efficiency_sa>
-0.563799274949036

> <r_i_glide_ligand_efficiency_ln>
-1.54330372884528

> <r_i_glide_gscore>
-7.54956450691518

> <r_i_glide_lipo>
-4.11870344365789

> <r_i_glide_hbond>
-0.377190020851102

> <r_i_glide_metal>
0

> <r_i_glide_rewards>
-1.02416372322499

> <r_i_glide_evdw>
-32.5434265136719

> <r_i_glide_ecoul>
-5.81080150604248

> <r_i_glide_erotb>
0.531656464070232

> <r_i_glide_esite>
-0.0623722316614676

> <r_i_glide_emodel>
-48.6374583129416

> <r_i_glide_energy>
-38.3542280197144

> <r_i_glide_einternal>
25.4101886749268

> <i_i_glide_confnum>
33

> <i_i_glide_posenum>
24

> <r_i_glide_eff_state_penalty>
0

> <s_user_duplicate_titles>
CHEMBL286_lig936

> <i_f3d_flags>
0

> <s_m_subgroup_title>
dock_pv

> <s_m_subgroupid>
dock_pv

> <b_m_subgroup_collapsed>
1

$$$$
CHEMBL286_lig2035
                    3D
 Schrodinger Suite 2021-1.
 84 86  0  0  1  0            999 V2000
   -4.2165  -12.8024  -12.1126 C   0  0  0  0  0  0
   -3.7453  -12.3842  -10.7076 C   0  0  0  0  0  0
   -5.6927  -13.2873  -12.1879 C   0  0  0  0  0  0
   -3.9824  -11.6616  -13.1177 C   0  0  0  0  0  0
   -6.1288  -14.4799  -11.2912 C   0  0  1  0  0  0
   -5.2838  -15.7722  -11.4927 C   0  0  2  0  0  0
   -6.1649  -14.0826   -9.9312 O   0  0  0  0  0  0
   -5.4694  -16.2295  -12.8199 O   0  0  0  0  0  0
   -5.5680  -16.9446  -10.5049 C   0  0  1  0  0  0
   -6.9870  -17.3164  -10.5822 N   0  0  0  0  0  0
   -4.6318  -18.1779  -10.7256 C   0  0  0  0  0  0
   -3.1494  -17.8911  -11.0856 C   0  0  0  0  0  0
   -7.6268  -18.1916   -9.7902 C   0  0  0  0  0  0
   -9.0687  -18.5146  -10.1720 C   0  0  2  0  0  0
   -7.1378  -18.7553   -8.8210 O   0  0  0  0  0  0
   -9.1846  -19.0304  -11.6236 C   0  0  0  0  0  0
   -9.8803  -17.3315   -9.9178 N   0  0  0  0  0  0
  -11.2120  -17.2611  -10.0399 C   0  0  0  0  0  0
  -11.9223  -16.0060   -9.5073 C   0  0  0  0  0  0
  -11.8710  -18.1625  -10.5529 O   0  0  0  0  0  0
  -11.2959  -15.3652   -8.2386 C   0  0  1  0  0  0
  -11.8327  -13.9573   -7.9784 C   0  0  0  0  0  0
  -11.4693  -16.2767   -6.9989 C   0  0  0  0  0  0
  -13.1845  -13.7628   -7.6768 C   0  0  0  0  0  0
  -13.6662  -12.4822   -7.4168 C   0  0  0  0  0  0
  -12.7937  -11.3997   -7.4426 C   0  0  0  0  0  0
  -11.4471  -11.5770   -7.7533 C   0  0  0  0  0  0
  -10.9687  -12.8567   -8.0227 C   0  0  0  0  0  0
   -2.4008  -17.0572  -10.0190 C   0  0  0  0  0  0
   -0.9940  -16.6806  -10.5302 C   0  0  0  0  0  0
   -0.1749  -17.9341  -10.9242 C   0  0  0  0  0  0
   -0.9501  -18.8970  -11.8524 C   0  0  0  0  0  0
   -2.3595  -19.1987  -11.3074 C   0  0  0  0  0  0
   -8.1183  -20.0279  -12.0228 C   0  0  0  0  0  0
   -7.6210  -21.1493  -11.3970 C   0  0  0  0  0  0
   -6.5982  -21.7054  -12.1702 N   0  0  0  0  0  0
   -6.5241  -20.9094  -13.2281 C   0  0  0  0  0  0
   -7.3985  -19.9026  -13.1986 N   0  0  0  0  0  0
   -3.5673  -13.6219  -12.4207 H   0  0  0  0  0  0
   -4.3670  -11.5929  -10.2937 H   0  0  0  0  0  0
   -3.7623  -13.2229  -10.0134 H   0  0  0  0  0  0
   -2.7185  -12.0204  -10.7300 H   0  0  0  0  0  0
   -5.8984  -13.5743  -13.2199 H   0  0  0  0  0  0
   -6.3652  -12.4510  -12.0118 H   0  0  0  0  0  0
   -4.5658  -10.7817  -12.8515 H   0  0  0  0  0  0
   -2.9348  -11.3657  -13.1468 H   0  0  0  0  0  0
   -4.2587  -11.9578  -14.1293 H   0  0  0  0  0  0
   -7.1661  -14.7098  -11.5526 H   0  0  0  0  0  0
   -4.2371  -15.4957  -11.3975 H   0  0  0  0  0  0
   -6.5268  -14.7982   -9.4054 H   0  0  0  0  0  0
   -4.9043  -15.6976  -13.3981 H   0  0  0  0  0  0
   -5.3818  -16.5712   -9.4977 H   0  0  0  0  0  0
   -7.4817  -16.9515  -11.3832 H   0  0  0  0  0  0
   -5.0539  -18.7756  -11.5360 H   0  0  0  0  0  0
   -4.6674  -18.8175   -9.8423 H   0  0  0  0  0  0
   -3.1320  -17.3454  -12.0313 H   0  0  0  0  0  0
   -9.4066  -19.3103   -9.5017 H   0  0  0  0  0  0
  -10.1452  -19.5195  -11.7655 H   0  0  0  0  0  0
   -9.1658  -18.1994  -12.3272 H   0  0  0  0  0  0
   -9.3819  -16.5490   -9.5230 H   0  0  0  0  0  0
  -11.9539  -15.2876  -10.3276 H   0  0  0  0  0  0
  -12.9549  -16.2648   -9.2716 H   0  0  0  0  0  0
  -10.2251  -15.2452   -8.4213 H   0  0  0  0  0  0
  -11.1041  -15.7996   -6.0924 H   0  0  0  0  0  0
  -12.5182  -16.5271   -6.8286 H   0  0  0  0  0  0
  -10.9237  -17.2134   -7.1155 H   0  0  0  0  0  0
  -13.8633  -14.6031   -7.6386 H   0  0  0  0  0  0
  -14.7084  -12.3284   -7.1832 H   0  0  0  0  0  0
  -13.1673  -10.4106   -7.2220 H   0  0  0  0  0  0
  -10.7824  -10.7262   -7.7820 H   0  0  0  0  0  0
   -9.9201  -12.9854   -8.2557 H   0  0  0  0  0  0
   -2.3608  -17.5973   -9.0706 H   0  0  0  0  0  0
   -2.9530  -16.1455   -9.7900 H   0  0  0  0  0  0
   -0.4591  -16.1072   -9.7709 H   0  0  0  0  0  0
   -1.0836  -16.0224  -11.3980 H   0  0  0  0  0  0
    0.1069  -18.4730  -10.0209 H   0  0  0  0  0  0
    0.7625  -17.6354  -11.3974 H   0  0  0  0  0  0
   -0.3895  -19.8205  -11.9817 H   0  0  0  0  0  0
   -1.0317  -18.4574  -12.8451 H   0  0  0  0  0  0
   -2.8892  -19.8304  -12.0222 H   0  0  0  0  0  0
   -2.3239  -19.7859  -10.3862 H   0  0  0  0  0  0
   -7.9051  -21.5841  -10.4505 H   0  0  0  0  0  0
   -7.5386  -19.1706  -13.8995 H   0  0  0  0  0  0
   -5.8386  -21.0808  -14.0421 H   0  0  0  0  0  0
  1  3  1  0  0  0
  1  2  1  0  0  0
  1  4  1  0  0  0
  1 39  1  0  0  0
  2 40  1  0  0  0
  2 41  1  0  0  0
  2 42  1  0  0  0
  3  5  1  0  0  0
  3 43  1  0  0  0
  3 44  1  0  0  0
  4 45  1  0  0  0
  4 46  1  0  0  0
  4 47  1  0  0  0
  5  6  1  0  0  0
  5  7  1  0  0  0
  5 48  1  0  0  0
  6  8  1  0  0  0
  6  9  1  0  0  0
  6 49  1  0  0  0
  7 50  1  0  0  0
  8 51  1  0  0  0
  9 10  1  0  0  0
  9 11  1  0  0  0
  9 52  1  0  0  0
 10 13  1  0  0  0
 10 53  1  0  0  0
 11 12  1  0  0  0
 11 54  1  0  0  0
 11 55  1  0  0  0
 12 29  1  0  0  0
 12 33  1  0  0  0
 12 56  1  0  0  0
 13 14  1  0  0  0
 13 15  2  0  0  0
 14 16  1  0  0  0
 14 17  1  0  0  0
 14 57  1  0  0  0
 16 58  1  0  0  0
 16 59  1  0  0  0
 16 34  1  0  0  0
 17 18  1  0  0  0
 17 60  1  0  0  0
 18 20  2  0  0  0
 18 19  1  0  0  0
 19 21  1  0  0  0
 19 61  1  0  0  0
 19 62  1  0  0  0
 21 22  1  0  0  0
 21 23  1  0  0  0
 21 63  1  0  0  0
 22 24  2  0  0  0
 22 28  1  0  0  0
 23 64  1  0  0  0
 23 65  1  0  0  0
 23 66  1  0  0  0
 24 25  1  0  0  0
 24 67  1  0  0  0
 25 26  2  0  0  0
 25 68  1  0  0  0
 26 27  1  0  0  0
 26 69  1  0  0  0
 27 28  2  0  0  0
 27 70  1  0  0  0
 28 71  1  0  0  0
 29 30  1  0  0  0
 29 72  1  0  0  0
 29 73  1  0  0  0
 30 31  1  0  0  0
 30 74  1  0  0  0
 30 75  1  0  0  0
 31 32  1  0  0  0
 31 76  1  0  0  0
 31 77  1  0  0  0
 32 33  1  0  0  0
 32 78  1  0  0  0
 32 79  1  0  0  0
 33 80  1  0  0  0
 33 81  1  0  0  0
 34 35  2  0  0  0
 34 38  1  0  0  0
 35 82  1  0  0  0
 35 36  1  0  0  0
 36 37  2  0  0  0
 37 38  1  0  0  0
 37 84  1  0  0  0
 38 83  1  0  0  0
M  END
> <s_m_entry_id>
26315

> <s_m_entry_name>
dock_pv.139

> <s_m_Source_Path>
/home/csk/Desktop/cluster/DUD-E-result/reni

> <s_m_Source_File>
dock_pv.maegz

> <i_m_Source_File_Index>
139

> <chembl_id>
CHEMBL1276462

> <chembl_pref_name>
None

> <i_lp_mmshare_version>
53161

> <r_lp_tautomer_probability>
0.499999999999999

> <s_lp_Force_Field>
OPLS_2005

> <r_lp_Energy>
31.21668

> <b_lp_Chiralities_Consistent>
1

> <s_lp_Variant>
CHEMBL286_lig2035-2

> <s_i_glide_gridfile>
glide-grid_3g6z

> <i_i_glide_lignum>
5843

> <i_i_glide_rotatable_bonds>
18

> <r_i_docking_score>
-7.54530274370845

> <r_i_glide_ligand_efficiency>
-0.198560598518643

> <r_i_glide_ligand_efficiency_sa>
-0.667555848169531

> <r_i_glide_ligand_efficiency_ln>
-1.6269892318623

> <r_i_glide_gscore>
-7.54530274370845

> <r_i_glide_lipo>
-3.41300458627885

> <r_i_glide_hbond>
-0.456

> <r_i_glide_metal>
0

> <r_i_glide_rewards>
-1.14812119613262

> <r_i_glide_evdw>
-43.8762969970703

> <r_i_glide_ecoul>
-7.41945838928223

> <r_i_glide_erotb>
0.890652253008225

> <r_i_glide_esite>
-0.112095606059352

> <r_i_glide_emodel>
-72.9287670602923

> <r_i_glide_energy>
-51.2957553863525

> <r_i_glide_einternal>
12.2959070205688

> <i_i_glide_confnum>
77

> <i_i_glide_posenum>
15

> <r_i_glide_eff_state_penalty>
0

> <s_user_duplicate_titles>
CHEMBL286_lig2035

> <i_f3d_flags>
0

> <s_m_subgroup_title>
dock_pv

> <s_m_subgroupid>
dock_pv

> <b_m_subgroup_collapsed>
1

$$$$
CHEMBL286_lig311
                    3D
 Schrodinger Suite 2021-1.
 93 96  0  0  1  0            999 V2000
   -6.6468  -21.0123  -12.1485 P   0  0  0  0  0  0
   -6.3616  -19.3952  -13.0083 C   0  0  1  0  0  0
   -5.1828  -18.5812  -12.4089 C   0  0  1  0  0  0
   -6.3879  -17.0048  -10.9426 C   0  0  0  0  0  0
   -7.0055  -14.5446   -8.4061 C   0  0  0  0  0  0
   -5.5779  -18.0519  -11.1119 N   0  0  0  0  0  0
   -9.8680  -12.2388   -8.0210 C   0  0  0  0  0  0
   -7.2912  -15.3762   -9.4101 N   0  0  0  0  0  0
   -8.9925  -13.1767   -8.4212 N   0  0  0  0  0  0
   -6.8309  -16.7499   -9.5033 C   0  0  1  0  0  0
   -9.4659  -17.8305  -11.1320 N   0  0  0  0  0  0
   -7.5383  -13.1221   -8.5866 C   0  0  1  0  0  0
   -9.2905  -17.5935   -9.7754 C   0  0  0  0  0  0
   -7.9565  -17.7149   -9.0622 C   0  0  0  0  0  0
  -11.4709  -17.3071  -10.3411 N   0  0  0  0  0  0
  -10.7606  -17.6624  -11.4035 C   0  0  0  0  0  0
   -6.5406  -21.0352  -10.6614 O   0  0  0  0  0  0
  -10.5411  -17.2644   -9.3028 C   0  0  0  0  0  0
   -3.8399  -19.3531  -12.2999 C   0  0  0  0  0  0
   -6.8209  -16.3079  -11.8605 O   0  0  0  0  0  0
   -6.3899  -14.8658   -7.3900 O   0  0  0  0  0  0
   -9.5418  -11.1171   -7.6211 O   0  0  0  0  0  0
   -6.8018  -12.0631   -7.7082 C   0  0  0  0  0  0
  -11.3321  -12.6481   -7.8254 C   0  0  0  0  0  0
   -8.1119  -21.4294  -12.7250 O   0  0  0  0  0  0
   -5.6112  -22.0108  -12.9235 O   0  0  0  0  0  0
   -6.1979  -19.6633  -14.3869 O   0  0  0  0  0  0
   -5.2781  -11.9463   -7.7685 C   0  0  0  0  0  0
   -2.5730  -18.4794  -12.0965 C   0  0  0  0  0  0
  -12.3011  -11.6922   -8.5292 C   0  0  0  0  0  0
  -11.6847  -14.0656   -8.2820 C   0  0  0  0  0  0
   -8.7613  -22.6213  -12.3227 C   0  0  0  0  0  0
   -5.4265  -23.3538  -12.5072 C   0  0  0  0  0  0
   -4.5135  -12.4555   -8.8421 C   0  0  0  0  0  0
   -4.6296  -11.1279   -6.8206 C   0  0  0  0  0  0
   -2.4491  -17.8311  -10.6914 C   0  0  0  0  0  0
   -1.2891  -19.3104  -12.3541 C   0  0  0  0  0  0
  -13.1850  -13.9999   -8.4787 C   0  0  0  0  0  0
  -13.5081  -12.5524   -8.9103 C   0  0  0  0  0  0
   -3.2655  -10.8883   -6.9079 C   0  0  0  0  0  0
   -3.1498  -12.2093   -8.9139 C   0  0  0  0  0  0
   -0.0047  -18.4602  -12.2554 C   0  0  0  0  0  0
   -1.1976  -16.9374  -10.5789 C   0  0  0  0  0  0
    0.0865  -17.7276  -10.9027 C   0  0  0  0  0  0
   -2.5243  -11.4369   -7.9459 C   0  0  0  0  0  0
   -7.2863  -18.8252  -12.9178 H   0  0  0  0  0  0
   -5.0030  -17.7368  -13.0830 H   0  0  0  0  0  0
   -5.2719  -18.5724  -10.3020 H   0  0  0  0  0  0
   -7.7533  -15.0375  -10.2421 H   0  0  0  0  0  0
   -9.3779  -14.0847   -8.6379 H   0  0  0  0  0  0
   -5.9583  -16.8958   -8.8609 H   0  0  0  0  0  0
   -7.4068  -12.8633   -9.6327 H   0  0  0  0  0  0
   -7.6182  -18.7467   -9.1681 H   0  0  0  0  0  0
   -8.1367  -17.5772   -7.9928 H   0  0  0  0  0  0
   -8.7489  -18.0401  -11.8144 H   0  0  0  0  0  0
  -11.1829  -17.7658  -12.3950 H   0  0  0  0  0  0
  -10.8454  -17.0108   -8.2977 H   0  0  0  0  0  0
   -3.7072  -19.9219  -13.2188 H   0  0  0  0  0  0
   -3.8944  -20.0992  -11.5060 H   0  0  0  0  0  0
   -7.1462  -11.0792   -8.0209 H   0  0  0  0  0  0
   -7.0924  -12.1760   -6.6627 H   0  0  0  0  0  0
  -11.4692  -12.5777   -6.7457 H   0  0  0  0  0  0
   -6.6643  -18.9773  -14.8966 H   0  0  0  0  0  0
   -2.6152  -17.6674  -12.8209 H   0  0  0  0  0  0
  -12.5884  -10.8671   -7.8782 H   0  0  0  0  0  0
  -11.8687  -11.2614   -9.4326 H   0  0  0  0  0  0
  -11.2102  -14.3333   -9.2254 H   0  0  0  0  0  0
  -11.4152  -14.8184   -7.5395 H   0  0  0  0  0  0
   -9.7710  -22.3888  -11.9856 H   0  0  0  0  0  0
   -8.8439  -23.2988  -13.1726 H   0  0  0  0  0  0
   -8.2498  -23.1399  -11.5096 H   0  0  0  0  0  0
   -4.3638  -23.5383  -12.3549 H   0  0  0  0  0  0
   -5.9403  -23.5934  -11.5748 H   0  0  0  0  0  0
   -5.7747  -24.0334  -13.2859 H   0  0  0  0  0  0
   -4.9771  -13.0327   -9.6273 H   0  0  0  0  0  0
   -5.1958  -10.6758   -6.0207 H   0  0  0  0  0  0
   -2.4363  -18.6038   -9.9214 H   0  0  0  0  0  0
   -3.3197  -17.2229  -10.4588 H   0  0  0  0  0  0
   -1.3371  -19.7831  -13.3347 H   0  0  0  0  0  0
   -1.2456  -20.1470  -11.6511 H   0  0  0  0  0  0
  -13.7008  -14.2386   -7.5470 H   0  0  0  0  0  0
  -13.4693  -14.7536   -9.2092 H   0  0  0  0  0  0
  -14.4172  -12.1957   -8.4213 H   0  0  0  0  0  0
  -13.6785  -12.4632   -9.9827 H   0  0  0  0  0  0
   -2.7844  -10.2725   -6.1631 H   0  0  0  0  0  0
   -2.5778  -12.6167   -9.7351 H   0  0  0  0  0  0
    0.8708  -19.0965  -12.3906 H   0  0  0  0  0  0
    0.0227  -17.7278  -13.0594 H   0  0  0  0  0  0
   -1.1334  -16.5173   -9.5739 H   0  0  0  0  0  0
   -1.2911  -16.0882  -11.2589 H   0  0  0  0  0  0
    0.2577  -18.4622  -10.1169 H   0  0  0  0  0  0
    0.9508  -17.0630  -10.8895 H   0  0  0  0  0  0
   -1.4627  -11.2506   -8.0077 H   0  0  0  0  0  0
  1  2  1  0  0  0
  1 17  2  0  0  0
  1 25  1  0  0  0
  1 26  1  0  0  0
  2  3  1  0  0  0
  2 27  1  0  0  0
  2 46  1  0  0  0
  3  6  1  0  0  0
  3 19  1  0  0  0
  3 47  1  0  0  0
  4  6  1  0  0  0
  4 10  1  0  0  0
  4 20  2  0  0  0
  5  8  1  0  0  0
  5 12  1  0  0  0
  5 21  2  0  0  0
  6 48  1  0  0  0
  7  9  1  0  0  0
  7 22  2  0  0  0
  7 24  1  0  0  0
  8 10  1  0  0  0
  8 49  1  0  0  0
  9 12  1  0  0  0
  9 50  1  0  0  0
 10 14  1  0  0  0
 10 51  1  0  0  0
 11 13  1  0  0  0
 11 55  1  0  0  0
 11 16  1  0  0  0
 12 23  1  0  0  0
 12 52  1  0  0  0
 13 18  2  0  0  0
 13 14  1  0  0  0
 14 53  1  0  0  0
 14 54  1  0  0  0
 15 16  2  0  0  0
 15 18  1  0  0  0
 16 56  1  0  0  0
 18 57  1  0  0  0
 19 29  1  0  0  0
 19 58  1  0  0  0
 19 59  1  0  0  0
 23 28  1  0  0  0
 23 60  1  0  0  0
 23 61  1  0  0  0
 24 30  1  0  0  0
 24 31  1  0  0  0
 24 62  1  0  0  0
 25 32  1  0  0  0
 26 33  1  0  0  0
 27 63  1  0  0  0
 28 34  2  0  0  0
 28 35  1  0  0  0
 29 36  1  0  0  0
 29 37  1  0  0  0
 29 64  1  0  0  0
 30 39  1  0  0  0
 30 65  1  0  0  0
 30 66  1  0  0  0
 31 38  1  0  0  0
 31 67  1  0  0  0
 31 68  1  0  0  0
 32 69  1  0  0  0
 32 70  1  0  0  0
 32 71  1  0  0  0
 33 72  1  0  0  0
 33 73  1  0  0  0
 33 74  1  0  0  0
 34 41  1  0  0  0
 34 75  1  0  0  0
 35 40  2  0  0  0
 35 76  1  0  0  0
 36 43  1  0  0  0
 36 77  1  0  0  0
 36 78  1  0  0  0
 37 42  1  0  0  0
 37 79  1  0  0  0
 37 80  1  0  0  0
 38 39  1  0  0  0
 38 81  1  0  0  0
 38 82  1  0  0  0
 39 83  1  0  0  0
 39 84  1  0  0  0
 40 45  1  0  0  0
 40 85  1  0  0  0
 41 45  2  0  0  0
 41 86  1  0  0  0
 42 44  1  0  0  0
 42 87  1  0  0  0
 42 88  1  0  0  0
 43 44  1  0  0  0
 43 89  1  0  0  0
 43 90  1  0  0  0
 44 91  1  0  0  0
 44 92  1  0  0  0
 45 93  1  0  0  0
M  END
> <s_m_entry_id>
26316

> <s_m_entry_name>
dock_pv.140

> <s_m_Source_Path>
/home/csk/Desktop/cluster/DUD-E-result/reni

> <s_m_Source_File>
dock_pv.maegz

> <i_m_Source_File_Index>
140

> <chembl_id>
CHEMBL436018

> <chembl_pref_name>
None

> <i_lp_mmshare_version>
53161

> <r_lp_tautomer_probability>
0.499999999999999

> <s_lp_Force_Field>
OPLS_2005

> <r_lp_Energy>
24.399772

> <b_lp_Chiralities_Consistent>
1

> <s_lp_Variant>
CHEMBL286_lig311-2

> <s_i_glide_gridfile>
glide-grid_3g6z

> <i_i_glide_lignum>
511

> <i_i_glide_rotatable_bonds>
20

> <r_i_docking_score>
-7.54232524031973

> <r_i_glide_ligand_efficiency>
-0.167607227562661

> <r_i_glide_ligand_efficiency_sa>
-0.596161024745309

> <r_i_glide_ligand_efficiency_ln>
-1.56913976306253

> <r_i_glide_gscore>
-7.54232524031973

> <r_i_glide_lipo>
-4.15225861637631

> <r_i_glide_hbond>
0

> <r_i_glide_metal>
0

> <r_i_glide_rewards>
-0.707319078350474

> <r_i_glide_evdw>
-46.5306930541992

> <r_i_glide_ecoul>
-5.53649806976318

> <r_i_glide_erotb>
0.513137637995069

> <r_i_glide_esite>
-0.0388758204135769

> <r_i_glide_emodel>
-67.9544464205346

> <r_i_glide_energy>
-52.0671911239624

> <r_i_glide_einternal>
12.7116994857788

> <i_i_glide_confnum>
106

> <i_i_glide_posenum>
220

> <r_i_glide_eff_state_penalty>
0

> <s_user_duplicate_titles>
CHEMBL286_lig311

> <i_f3d_flags>
0

> <s_m_subgroup_title>
dock_pv

> <s_m_subgroupid>
dock_pv

> <b_m_subgroup_collapsed>
1

$$$$
CHEMBL286_lig1390
                    3D
 Schrodinger Suite 2021-1.
 97 99  0  0  1  0            999 V2000
   -8.5747  -19.5377  -10.3435 S   0  0  0  0  0  0
   -9.0756  -18.6733   -8.9148 N   0  0  3  0  0  0
   -9.4137  -17.2294   -8.9052 C   0  0  2  0  0  0
  -10.0907  -19.6816  -11.2207 N   0  0  0  0  0  0
   -8.1228  -16.6275   -8.3756 C   0  0  0  0  0  0
   -7.3340  -15.9679   -9.2297 N   0  0  0  0  0  0
   -5.0520  -15.5488   -9.9024 C   0  0  0  0  0  0
   -3.9844  -16.2734   -9.5200 N   0  0  0  0  0  0
   -2.7856  -16.6033  -10.3077 C   0  0  2  0  0  0
   -6.1055  -15.3036   -8.8232 C   0  0  1  0  0  0
   -1.6635  -15.5058  -10.1844 C   0  0  2  0  0  0
   -7.7085  -18.6197  -11.0842 O   0  0  0  0  0  0
   -8.1246  -20.8718   -9.9286 O   0  0  0  0  0  0
   -2.0665  -14.0184  -10.4669 C   0  0  2  0  0  0
  -10.6748  -17.0086   -8.0274 C   0  0  0  0  0  0
   -3.0453  -17.1477  -11.7551 C   0  0  0  0  0  0
   -7.8067  -16.8628   -7.2210 O   0  0  0  0  0  0
   -5.2277  -15.0907  -11.0305 O   0  0  0  0  0  0
   -2.3770  -13.7075  -11.9501 C   0  0  0  0  0  0
  -12.8891  -19.7056  -11.6561 O   0  0  0  0  0  0
  -10.7652  -18.4862  -11.7589 C   0  0  0  0  0  0
  -10.7726  -20.9850  -11.3980 C   0  0  0  0  0  0
   -6.3609  -13.4648   -8.4880 S   0  0  0  0  0  0
   -4.8583  -11.8460   -6.7288 C   0  0  0  0  0  0
   -4.6685  -10.8663   -7.6290 C   0  0  0  0  0  0
   -0.5354  -15.8843  -10.9594 O   0  0  0  0  0  0
   -1.0453  -13.1469  -10.0197 O   0  0  0  0  0  0
  -11.4161  -15.6872   -8.0240 C   0  0  0  0  0  0
   -4.1460  -18.2243  -11.9464 C   0  0  0  0  0  0
   -5.3469  -13.2541   -7.0071 C   0  0  0  0  0  0
  -12.2791  -20.8715  -11.0904 C   0  0  0  0  0  0
  -12.2464  -18.4626  -11.3666 C   0  0  0  0  0  0
   -2.7328  -12.2555  -12.3311 C   0  0  0  0  0  0
  -11.8691  -15.1671   -6.7966 C   0  0  0  0  0  0
  -11.8580  -15.0834   -9.2195 C   0  0  0  0  0  0
   -4.5038  -18.3670  -13.4467 C   0  0  0  0  0  0
   -3.7237  -19.6062  -11.3958 C   0  0  0  0  0  0
   -3.9071  -11.7246  -11.5093 C   0  0  0  0  0  0
   -3.0673  -12.1295  -13.8299 C   0  0  0  0  0  0
  -12.6686  -13.9546   -9.1625 C   0  0  0  0  0  0
  -12.6860  -14.0489   -6.7682 C   0  0  0  0  0  0
   -5.6501  -19.3752  -13.6659 C   0  0  0  0  0  0
   -4.8553  -20.6395  -11.5617 C   0  0  0  0  0  0
   -5.3324  -20.7489  -13.0276 C   0  0  0  0  0  0
  -13.0684  -13.4294   -7.9462 C   0  0  0  0  0  0
   -9.0489  -19.1664   -8.0118 H   0  0  0  0  0  0
   -9.5629  -16.8277   -9.8946 H   0  0  0  0  0  0
   -7.6468  -15.7892  -10.1726 H   0  0  0  0  0  0
   -3.9789  -16.6057   -8.5651 H   0  0  0  0  0  0
   -2.3809  -17.4681   -9.7757 H   0  0  0  0  0  0
   -5.7432  -15.7246   -7.8804 H   0  0  0  0  0  0
   -1.3373  -15.5377   -9.1422 H   0  0  0  0  0  0
   -2.9412  -13.7745   -9.8628 H   0  0  0  0  0  0
  -11.4626  -17.6627   -8.3673 H   0  0  0  0  0  0
  -10.4527  -17.2967   -6.9957 H   0  0  0  0  0  0
   -2.1175  -17.5600  -12.1567 H   0  0  0  0  0  0
   -3.2947  -16.3247  -12.4161 H   0  0  0  0  0  0
   -1.5710  -14.0639  -12.5958 H   0  0  0  0  0  0
   -3.2509  -14.2823  -12.2015 H   0  0  0  0  0  0
  -10.2542  -17.5866  -11.4837 H   0  0  0  0  0  0
  -10.6088  -18.4622  -12.8210 H   0  0  0  0  0  0
  -10.6209  -21.3188  -12.4209 H   0  0  0  0  0  0
  -10.2987  -21.7328  -10.7594 H   0  0  0  0  0  0
   -4.6058  -11.6555   -5.6953 H   0  0  0  0  0  0
   -4.2904   -9.8993   -7.3256 H   0  0  0  0  0  0
   -4.8787  -11.0052   -8.6767 H   0  0  0  0  0  0
   -0.8376  -16.0193  -11.8552 H   0  0  0  0  0  0
   -0.3321  -13.1754  -10.6690 H   0  0  0  0  0  0
   -5.0558  -17.9189  -11.4318 H   0  0  0  0  0  0
   -5.9664  -13.5738   -6.1735 H   0  0  0  0  0  0
   -4.4821  -13.9172   -7.0513 H   0  0  0  0  0  0
  -12.8051  -21.7504  -11.4623 H   0  0  0  0  0  0
  -12.4217  -20.8630  -10.0210 H   0  0  0  0  0  0
  -12.7348  -17.6637  -11.9239 H   0  0  0  0  0  0
  -12.3527  -18.2458  -10.3063 H   0  0  0  0  0  0
   -1.8686  -11.6274  -12.1253 H   0  0  0  0  0  0
  -11.5931  -15.6369   -5.8660 H   0  0  0  0  0  0
  -11.5921  -15.5041  -10.1775 H   0  0  0  0  0  0
   -3.6184  -18.6450  -14.0193 H   0  0  0  0  0  0
   -4.7978  -17.3978  -13.8509 H   0  0  0  0  0  0
   -3.4497  -19.5204  -10.3429 H   0  0  0  0  0  0
   -2.8150  -19.9513  -11.8934 H   0  0  0  0  0  0
   -4.7133  -12.4538  -11.4243 H   0  0  0  0  0  0
   -3.5963  -11.4337  -10.5032 H   0  0  0  0  0  0
   -4.3146  -10.8631  -12.0199 H   0  0  0  0  0  0
   -3.9944  -12.6455  -14.0793 H   0  0  0  0  0  0
   -3.2266  -11.0963  -14.1149 H   0  0  0  0  0  0
   -2.2707  -12.5289  -14.4594 H   0  0  0  0  0  0
  -13.0151  -13.4823  -10.0702 H   0  0  0  0  0  0
  -13.0278  -13.6608   -5.8209 H   0  0  0  0  0  0
   -5.8686  -19.4821  -14.7288 H   0  0  0  0  0  0
   -6.5644  -18.9724  -13.2363 H   0  0  0  0  0  0
   -4.5271  -21.6172  -11.2049 H   0  0  0  0  0  0
   -5.6917  -20.3542  -10.9274 H   0  0  0  0  0  0
   -4.5573  -21.2521  -13.6054 H   0  0  0  0  0  0
   -6.2118  -21.3936  -13.0886 H   0  0  0  0  0  0
  -13.7003  -12.5540   -7.9172 H   0  0  0  0  0  0
  1  2  1  0  0  0
  1  4  1  0  0  0
  1 12  2  0  0  0
  1 13  2  0  0  0
  2  3  1  0  0  0
  2 46  1  0  0  0
  3  5  1  0  0  0
  3 15  1  0  0  0
  3 47  1  0  0  0
  4 21  1  0  0  0
  4 22  1  0  0  0
  5  6  1  0  0  0
  5 17  2  0  0  0
  6 10  1  0  0  0
  6 48  1  0  0  0
  7 10  1  0  0  0
  7  8  1  0  0  0
  7 18  2  0  0  0
  8  9  1  0  0  0
  8 49  1  0  0  0
  9 11  1  0  0  0
  9 16  1  0  0  0
  9 50  1  0  0  0
 10 23  1  0  0  0
 10 51  1  0  0  0
 11 14  1  0  0  0
 11 26  1  0  0  0
 11 52  1  0  0  0
 14 19  1  0  0  0
 14 27  1  0  0  0
 14 53  1  0  0  0
 15 28  1  0  0  0
 15 54  1  0  0  0
 15 55  1  0  0  0
 16 29  1  0  0  0
 16 56  1  0  0  0
 16 57  1  0  0  0
 19 33  1  0  0  0
 19 58  1  0  0  0
 19 59  1  0  0  0
 20 31  1  0  0  0
 20 32  1  0  0  0
 21 32  1  0  0  0
 21 60  1  0  0  0
 21 61  1  0  0  0
 22 31  1  0  0  0
 22 62  1  0  0  0
 22 63  1  0  0  0
 23 30  1  0  0  0
 24 30  1  0  0  0
 24 25  2  0  0  0
 24 64  1  0  0  0
 25 65  1  0  0  0
 25 66  1  0  0  0
 26 67  1  0  0  0
 27 68  1  0  0  0
 28 34  1  0  0  0
 28 35  2  0  0  0
 29 36  1  0  0  0
 29 37  1  0  0  0
 29 69  1  0  0  0
 30 70  1  0  0  0
 30 71  1  0  0  0
 31 72  1  0  0  0
 31 73  1  0  0  0
 32 74  1  0  0  0
 32 75  1  0  0  0
 33 38  1  0  0  0
 33 39  1  0  0  0
 33 76  1  0  0  0
 34 41  2  0  0  0
 34 77  1  0  0  0
 35 40  1  0  0  0
 35 78  1  0  0  0
 36 42  1  0  0  0
 36 79  1  0  0  0
 36 80  1  0  0  0
 37 43  1  0  0  0
 37 81  1  0  0  0
 37 82  1  0  0  0
 38 83  1  0  0  0
 38 84  1  0  0  0
 38 85  1  0  0  0
 39 86  1  0  0  0
 39 87  1  0  0  0
 39 88  1  0  0  0
 40 45  2  0  0  0
 40 89  1  0  0  0
 41 45  1  0  0  0
 41 90  1  0  0  0
 42 44  1  0  0  0
 42 91  1  0  0  0
 42 92  1  0  0  0
 43 44  1  0  0  0
 43 93  1  0  0  0
 43 94  1  0  0  0
 44 95  1  0  0  0
 44 96  1  0  0  0
 45 97  1  0  0  0
M  END
> <s_m_entry_id>
26317

> <s_m_entry_name>
dock_pv.141

> <s_m_Source_Path>
/home/csk/Desktop/cluster/DUD-E-result/reni

> <s_m_Source_File>
dock_pv.maegz

> <i_m_Source_File_Index>
141

> <chembl_id>
CHEMBL8477

> <chembl_pref_name>
None

> <i_lp_mmshare_version>
53161

> <r_lp_tautomer_probability>
1

> <s_lp_Force_Field>
OPLS_2005

> <r_lp_Energy>
31.653627

> <b_lp_Chiralities_Consistent>
1

> <s_lp_Variant>
CHEMBL286_lig1390-1

> <s_i_glide_gridfile>
glide-grid_3g6z

> <i_i_glide_lignum>
4457

> <i_i_glide_rotatable_bonds>
22

> <r_i_docking_score>
-7.54119842232616

> <r_i_glide_ligand_efficiency>
-0.167582187162803

> <r_i_glide_ligand_efficiency_sa>
-0.596071958714828

> <r_i_glide_ligand_efficiency_ln>
-1.56890533470481

> <r_i_glide_gscore>
-7.54119842232616

> <r_i_glide_lipo>
-4.0370846419667

> <r_i_glide_hbond>
-0.304218447127945

> <r_i_glide_metal>
0

> <r_i_glide_rewards>
-1.04545074640684

> <r_i_glide_evdw>
-39.26123046875

> <r_i_glide_ecoul>
-5.08492088317871

> <r_i_glide_erotb>
0.601235214190326

> <r_i_glide_esite>
-0.0298801451006819

> <r_i_glide_emodel>
-45.1958176362952

> <r_i_glide_energy>
-44.3461513519287

> <r_i_glide_einternal>
18.2358150482178

> <i_i_glide_confnum>
85

> <i_i_glide_posenum>
25

> <r_i_glide_eff_state_penalty>
0

> <s_user_duplicate_titles>
CHEMBL286_lig1390

> <i_f3d_flags>
0

> <s_m_subgroup_title>
dock_pv

> <s_m_subgroupid>
dock_pv

> <b_m_subgroup_collapsed>
1

$$$$
CHEMBL286_lig1546
                    3D
 Schrodinger Suite 2021-1.
 88 92  0  0  1  0            999 V2000
   -3.6296  -12.6769   -8.2319 N   0  0  0  0  0  0
   -7.0877  -18.4705  -11.7007 N   0  0  0  0  0  0
   -4.8980  -13.2229   -8.6112 C   0  0  0  0  0  0
   -3.4430  -11.5537   -7.4648 C   0  0  0  0  0  0
   -7.0556  -19.8173  -11.9580 C   0  0  0  0  0  0
   -6.2749  -17.4392  -12.4240 C   0  0  1  0  0  0
   -5.0624  -14.1419   -9.6725 C   0  0  0  0  0  0
   -8.0512  -17.9765  -10.8079 C   0  0  0  0  0  0
   -6.0352  -12.8622   -7.8603 C   0  0  0  0  0  0
   -5.7564  -19.2632  -14.0208 N   0  0  2  0  0  0
  -12.2272  -12.0917   -8.1261 C   0  0  0  0  0  0
   -4.7580  -10.8808   -7.0116 C   0  0  0  0  0  0
   -2.3565  -11.0628   -7.1527 O   0  0  0  0  0  0
   -7.7606  -20.6430  -11.3682 O   0  0  0  0  0  0
   -5.5890  -16.3370  -11.5724 C   0  0  0  0  0  0
  -12.8402  -11.2638   -7.1819 C   0  0  0  0  0  0
   -5.8606  -11.9113   -6.6941 C   0  0  0  0  0  0
   -6.3361  -14.6197  -10.0240 C   0  0  0  0  0  0
   -7.2914  -13.3459   -8.2153 C   0  0  0  0  0  0
   -7.8110  -18.0009   -9.4296 C   0  0  0  0  0  0
   -9.2161  -17.4029  -11.3205 C   0  0  0  0  0  0
   -6.6069  -15.4858  -11.0602 O   0  0  0  0  0  0
   -2.4067  -13.2967   -8.8006 C   0  0  0  0  0  0
   -6.0523  -20.2998  -13.0333 C   0  0  0  0  0  0
   -5.2604  -18.0449  -13.4220 C   0  0  0  0  0  0
   -9.8539  -16.7700   -9.0860 C   0  0  0  0  0  0
   -7.4443  -14.1878   -9.3046 C   0  0  0  0  0  0
  -10.1187  -16.8060  -10.4509 C   0  0  0  0  0  0
   -8.7164  -17.3920   -8.5640 C   0  0  0  0  0  0
  -14.2084  -11.3238   -7.0892 O   0  0  0  0  0  0
   -1.9648  -12.7602  -10.1885 C   0  0  0  0  0  0
  -12.8552  -16.4311   -7.4429 C   0  0  0  0  0  0
  -10.6702  -15.9967   -8.3062 O   0  0  0  0  0  0
  -13.0729  -13.0348   -8.9744 C   0  0  0  0  0  0
  -12.7532  -14.3978   -8.7439 O   0  0  0  0  0  0
   -0.3833  -11.0497   -9.2778 O   0  0  0  0  0  0
  -10.8485  -12.0138   -8.3275 C   0  0  0  0  0  0
  -11.3444  -16.6146   -7.2215 C   0  0  0  0  0  0
   -1.4198  -11.3130  -10.2207 C   0  0  0  0  0  0
  -13.2801  -14.9544   -7.5448 C   0  0  0  0  0  0
  -12.0689  -10.3466   -6.4575 C   0  0  0  0  0  0
  -14.8056  -11.3650   -5.8135 C   0  0  0  0  0  0
    0.8213  -11.7859   -9.4465 C   0  0  0  0  0  0
  -10.0907  -11.0793   -7.6198 C   0  0  0  0  0  0
  -10.6961  -10.2498   -6.6802 C   0  0  0  0  0  0
   -7.0103  -16.9157  -13.0381 H   0  0  0  0  0  0
   -4.2158  -14.4679  -10.2538 H   0  0  0  0  0  0
   -6.5338  -19.0397  -14.6509 H   0  0  0  0  0  0
   -4.5552  -10.2540   -6.1413 H   0  0  0  0  0  0
   -5.0686  -10.2203   -7.8244 H   0  0  0  0  0  0
   -4.9143  -15.7352  -12.1837 H   0  0  0  0  0  0
   -5.0015  -16.7927  -10.7723 H   0  0  0  0  0  0
   -5.5994  -12.4630   -5.7899 H   0  0  0  0  0  0
   -6.7988  -11.3964   -6.4838 H   0  0  0  0  0  0
   -8.1613  -13.0707   -7.6396 H   0  0  0  0  0  0
   -6.9052  -18.4434   -9.0422 H   0  0  0  0  0  0
   -9.4012  -17.3860  -12.3868 H   0  0  0  0  0  0
   -2.5361  -14.3786   -8.8469 H   0  0  0  0  0  0
   -1.5745  -13.1643   -8.1070 H   0  0  0  0  0  0
   -6.4747  -21.1718  -13.5381 H   0  0  0  0  0  0
   -5.1427  -20.6286  -12.5264 H   0  0  0  0  0  0
   -5.0634  -17.3217  -14.2160 H   0  0  0  0  0  0
   -4.3152  -18.2568  -12.9162 H   0  0  0  0  0  0
   -8.4271  -14.5369   -9.5752 H   0  0  0  0  0  0
  -11.0005  -16.3157  -10.8374 H   0  0  0  0  0  0
   -8.5030  -17.3471   -7.5075 H   0  0  0  0  0  0
   -2.7796  -12.8455  -10.9079 H   0  0  0  0  0  0
   -1.1858  -13.4197  -10.5746 H   0  0  0  0  0  0
  -13.1631  -16.9538   -8.3501 H   0  0  0  0  0  0
  -13.4011  -16.9003   -6.6269 H   0  0  0  0  0  0
  -12.8962  -12.8081  -10.0211 H   0  0  0  0  0  0
  -14.1402  -12.8619   -8.8405 H   0  0  0  0  0  0
  -10.3684  -12.6589   -9.0513 H   0  0  0  0  0  0
  -11.0689  -17.6619   -7.0924 H   0  0  0  0  0  0
  -11.0688  -16.1103   -6.2960 H   0  0  0  0  0  0
   -2.2341  -10.6205  -10.0117 H   0  0  0  0  0  0
   -1.0707  -11.0607  -11.2224 H   0  0  0  0  0  0
  -14.3678  -14.8939   -7.5637 H   0  0  0  0  0  0
  -12.9386  -14.3982   -6.6699 H   0  0  0  0  0  0
  -12.5359   -9.6456   -5.7836 H   0  0  0  0  0  0
  -15.8686  -11.4549   -6.0173 H   0  0  0  0  0  0
  -14.4794  -12.2370   -5.2486 H   0  0  0  0  0  0
  -14.6637  -10.4781   -5.2156 H   0  0  0  0  0  0
    1.5430  -11.4697   -8.6923 H   0  0  0  0  0  0
    1.2703  -11.6065  -10.4216 H   0  0  0  0  0  0
    0.6696  -12.8597   -9.3224 H   0  0  0  0  0  0
   -9.0280  -10.9907   -7.7987 H   0  0  0  0  0  0
  -10.1099   -9.5209   -6.1394 H   0  0  0  0  0  0
  1  3  1  0  0  0
  1  4  1  0  0  0
  1 23  1  0  0  0
  2  6  1  0  0  0
  2  5  1  0  0  0
  2  8  1  0  0  0
  3  7  2  0  0  0
  3  9  1  0  0  0
  4 12  1  0  0  0
  4 13  2  0  0  0
  5 14  2  0  0  0
  5 24  1  0  0  0
  6 15  1  0  0  0
  6 25  1  0  0  0
  6 46  1  0  0  0
  7 18  1  0  0  0
  7 47  1  0  0  0
  8 20  1  0  0  0
  8 21  2  0  0  0
  9 19  2  0  0  0
  9 17  1  0  0  0
 10 25  1  0  0  0
 10 24  1  0  0  0
 10 48  1  0  0  0
 11 34  1  0  0  0
 11 16  2  0  0  0
 11 37  1  0  0  0
 12 17  1  0  0  0
 12 49  1  0  0  0
 12 50  1  0  0  0
 15 22  1  0  0  0
 15 51  1  0  0  0
 15 52  1  0  0  0
 16 30  1  0  0  0
 16 41  1  0  0  0
 17 53  1  0  0  0
 17 54  1  0  0  0
 18 22  1  0  0  0
 18 27  2  0  0  0
 19 27  1  0  0  0
 19 55  1  0  0  0
 20 29  2  0  0  0
 20 56  1  0  0  0
 21 28  1  0  0  0
 21 57  1  0  0  0
 23 31  1  0  0  0
 23 58  1  0  0  0
 23 59  1  0  0  0
 24 60  1  0  0  0
 24 61  1  0  0  0
 25 62  1  0  0  0
 25 63  1  0  0  0
 26 28  2  0  0  0
 26 33  1  0  0  0
 26 29  1  0  0  0
 27 64  1  0  0  0
 28 65  1  0  0  0
 29 66  1  0  0  0
 30 42  1  0  0  0
 31 39  1  0  0  0
 31 67  1  0  0  0
 31 68  1  0  0  0
 32 38  1  0  0  0
 32 40  1  0  0  0
 32 69  1  0  0  0
 32 70  1  0  0  0
 33 38  1  0  0  0
 34 35  1  0  0  0
 34 71  1  0  0  0
 34 72  1  0  0  0
 35 40  1  0  0  0
 36 39  1  0  0  0
 36 43  1  0  0  0
 37 44  2  0  0  0
 37 73  1  0  0  0
 38 74  1  0  0  0
 38 75  1  0  0  0
 39 76  1  0  0  0
 39 77  1  0  0  0
 40 78  1  0  0  0
 40 79  1  0  0  0
 41 45  2  0  0  0
 41 80  1  0  0  0
 42 81  1  0  0  0
 42 82  1  0  0  0
 42 83  1  0  0  0
 43 84  1  0  0  0
 43 85  1  0  0  0
 43 86  1  0  0  0
 44 45  1  0  0  0
 44 87  1  0  0  0
 45 88  1  0  0  0
M  END
> <s_m_entry_id>
26318

> <s_m_entry_name>
dock_pv.142

> <s_m_Source_Path>
/home/csk/Desktop/cluster/DUD-E-result/reni

> <s_m_Source_File>
dock_pv.maegz

> <i_m_Source_File_Index>
142

> <chembl_id>
CHEMBL193816

> <chembl_pref_name>
None

> <i_lp_mmshare_version>
53161

> <r_lp_tautomer_probability>
1

> <s_lp_Force_Field>
OPLS_2005

> <r_lp_Energy>
76.078488

> <b_lp_Chiralities_Consistent>
1

> <s_lp_Variant>
CHEMBL286_lig1546-1

> <s_i_glide_gridfile>
glide-grid_3g6z

> <i_i_glide_lignum>
5250

> <i_i_glide_rotatable_bonds>
16

> <r_i_docking_score>
-7.53628929658784

> <r_i_glide_ligand_efficiency>
-0.16747309547973

> <r_i_glide_ligand_efficiency_sa>
-0.59568393123822

> <r_i_glide_ligand_efficiency_ln>
-1.56788401778298

> <r_i_glide_gscore>
-7.53628929658784

> <r_i_glide_lipo>
-4.51991423270423

> <r_i_glide_hbond>
-0.390638810760445

> <r_i_glide_metal>
0

> <r_i_glide_rewards>
1.10082343873194

> <r_i_glide_evdw>
-57.2384719848633

> <r_i_glide_ecoul>
-9.66171741485596

> <r_i_glide_erotb>
0.643512465003474

> <r_i_glide_esite>
-0.0588909453870165

> <r_i_glide_emodel>
-82.9874145412253

> <r_i_glide_energy>
-66.9001893997192

> <r_i_glide_einternal>
19.5633869171143

> <i_i_glide_confnum>
11

> <i_i_glide_posenum>
8

> <r_i_glide_eff_state_penalty>
0

> <s_user_duplicate_titles>
CHEMBL286_lig1546

> <i_f3d_flags>
0

> <s_m_subgroup_title>
dock_pv

> <s_m_subgroupid>
dock_pv

> <b_m_subgroup_collapsed>
1

$$$$
CHEMBL286_lig1217
                    3D
 Schrodinger Suite 2021-1.
 95 98  0  0  1  0            999 V2000
   -3.1352  -19.1399  -12.2771 C   0  0  0  0  0  0
   -4.6362  -19.4990  -12.3372 C   0  0  2  0  0  0
  -10.6226  -16.9369   -8.4559 C   0  0  0  0  0  0
   -7.2030  -22.1753  -11.7176 C   0  0  0  0  0  0
   -9.6854  -19.7415  -10.6438 C   0  0  0  0  0  0
   -4.9881  -21.0011  -12.0405 C   0  0  2  0  0  0
   -6.4392  -21.0730  -11.8241 N   0  0  0  0  0  0
   -8.7036  -20.6437  -10.5028 N   0  0  0  0  0  0
  -11.5864  -16.0419   -8.0976 N   0  0  0  0  0  0
   -8.5987  -21.9889  -11.0731 C   0  0  2  0  0  0
   -9.2823  -18.2620  -10.3893 C   0  0  1  0  0  0
   -6.3954  -22.5703   -7.1143 N   0  0  0  0  0  0
   -7.3695  -16.6660   -9.5379 C   0  0  0  0  0  0
   -2.7097  -18.5979  -11.1203 N   0  0  0  0  0  0
  -10.4383  -17.2883   -9.9514 C   0  0  0  0  0  0
   -7.9310  -23.0025   -8.7429 C   0  0  0  0  0  0
   -8.8430  -23.0347   -9.9609 C   0  0  0  0  0  0
   -7.8708  -18.0962   -9.7080 C   0  0  0  0  0  0
   -7.9820  -23.9812   -7.7655 N   0  0  0  0  0  0
   -7.0696  -23.6797   -6.8419 C   0  0  0  0  0  0
   -7.1779  -15.8161  -10.6692 C   0  0  0  0  0  0
   -6.9401  -22.1357   -8.3229 C   0  0  0  0  0  0
   -2.3894  -19.3877  -13.2209 O   0  0  0  0  0  0
   -9.8942  -17.4793   -7.6217 O   0  0  0  0  0  0
  -10.8140  -20.0447  -11.0336 O   0  0  0  0  0  0
   -6.8219  -23.3067  -12.0174 O   0  0  0  0  0  0
   -4.2198  -21.6977  -10.8563 C   0  0  0  0  0  0
  -13.0130  -13.7574   -7.3467 O   0  0  0  0  0  0
   -5.1540  -19.1542  -13.6209 O   0  0  0  0  0  0
   -6.8972  -14.4333  -10.4352 C   0  0  0  0  0  0
  -11.8614  -15.7960   -6.6667 C   0  0  0  0  0  0
  -12.5462  -15.4414   -9.0484 C   0  0  0  0  0  0
   -1.3296  -18.3008  -10.7346 C   0  0  0  0  0  0
   -7.1361  -16.1760   -8.2510 C   0  0  0  0  0  0
   -6.7870  -14.8510   -8.0392 C   0  0  0  0  0  0
   -2.7234  -22.0923  -11.0345 C   0  0  0  0  0  0
   -7.2585  -16.2602  -12.0215 C   0  0  0  0  0  0
  -12.0146  -14.2726   -6.4853 C   0  0  0  0  0  0
  -12.6704  -13.9360   -8.7092 C   0  0  0  0  0  0
   -6.6918  -13.9743   -9.1105 C   0  0  0  0  0  0
   -6.8498  -13.5555  -11.5421 C   0  0  0  0  0  0
   -1.2697  -17.9215   -9.2488 C   0  0  0  0  0  0
   -0.6453  -17.2516  -11.6257 C   0  0  0  0  0  0
   -2.3846  -22.7076  -12.4071 C   0  0  0  0  0  0
   -2.2756  -23.0281   -9.8937 C   0  0  0  0  0  0
   -7.2044  -15.3516  -13.0694 C   0  0  0  0  0  0
   -7.0480  -14.0079  -12.8232 C   0  0  0  0  0  0
   -5.1409  -18.8666  -11.6060 H   0  0  0  0  0  0
   -4.7901  -21.5809  -12.9442 H   0  0  0  0  0  0
   -6.8999  -20.1819  -11.7201 H   0  0  0  0  0  0
   -7.8411  -20.3208  -10.0921 H   0  0  0  0  0  0
   -9.3388  -22.1137  -11.8664 H   0  0  0  0  0  0
   -9.1450  -17.9791  -11.4291 H   0  0  0  0  0  0
   -8.5998  -24.7774   -7.7502 H   0  0  0  0  0  0
   -3.3954  -18.4292  -10.3985 H   0  0  0  0  0  0
  -10.2812  -16.3492  -10.4810 H   0  0  0  0  0  0
  -11.3988  -17.6705  -10.3055 H   0  0  0  0  0  0
   -9.8699  -22.9292   -9.6210 H   0  0  0  0  0  0
   -8.7893  -24.0327  -10.3960 H   0  0  0  0  0  0
   -7.0951  -18.6059  -10.2783 H   0  0  0  0  0  0
   -7.8761  -18.5914   -8.7336 H   0  0  0  0  0  0
   -6.8993  -24.2696   -5.9528 H   0  0  0  0  0  0
   -6.5692  -21.2361   -8.7923 H   0  0  0  0  0  0
   -4.3187  -21.0797   -9.9618 H   0  0  0  0  0  0
   -4.7393  -22.6245  -10.6120 H   0  0  0  0  0  0
   -5.2497  -18.1962  -13.6914 H   0  0  0  0  0  0
  -12.8081  -16.2930   -6.4573 H   0  0  0  0  0  0
  -11.0687  -16.1439   -6.0031 H   0  0  0  0  0  0
  -12.2831  -15.5546  -10.1007 H   0  0  0  0  0  0
  -13.4907  -15.9343   -8.8211 H   0  0  0  0  0  0
   -0.7607  -19.2282  -10.8392 H   0  0  0  0  0  0
   -7.2667  -16.8187   -7.3929 H   0  0  0  0  0  0
   -6.6343  -14.4935   -7.0318 H   0  0  0  0  0  0
   -2.1094  -21.2007  -10.9222 H   0  0  0  0  0  0
   -7.3744  -17.3076  -12.2608 H   0  0  0  0  0  0
  -11.0708  -13.7458   -6.6415 H   0  0  0  0  0  0
  -12.3175  -14.0656   -5.4689 H   0  0  0  0  0  0
  -11.7508  -13.4021   -8.9484 H   0  0  0  0  0  0
  -13.4647  -13.4613   -9.2864 H   0  0  0  0  0  0
   -6.4618  -12.9357   -8.9260 H   0  0  0  0  0  0
   -6.6868  -12.5040  -11.4437 H   0  0  0  0  0  0
   -0.2577  -17.6529   -8.9545 H   0  0  0  0  0  0
   -1.8965  -17.0565   -9.0268 H   0  0  0  0  0  0
   -1.5699  -18.7535   -8.6103 H   0  0  0  0  0  0
    0.3141  -16.9463  -11.2098 H   0  0  0  0  0  0
   -0.4243  -17.6622  -12.6113 H   0  0  0  0  0  0
   -1.2494  -16.3512  -11.7305 H   0  0  0  0  0  0
   -2.8883  -23.6628  -12.5584 H   0  0  0  0  0  0
   -2.6504  -22.0515  -13.2346 H   0  0  0  0  0  0
   -1.3092  -22.8632  -12.4930 H   0  0  0  0  0  0
   -2.8214  -23.9722   -9.9136 H   0  0  0  0  0  0
   -1.2127  -23.2627   -9.9597 H   0  0  0  0  0  0
   -2.4450  -22.5685   -8.9183 H   0  0  0  0  0  0
   -7.3082  -15.6652  -14.0896 H   0  0  0  0  0  0
   -7.0671  -13.2930  -13.6204 H   0  0  0  0  0  0
  1  2  1  0  0  0
  1 14  1  0  0  0
  1 23  2  0  0  0
  2  6  1  0  0  0
  2 29  1  0  0  0
  2 48  1  0  0  0
  3 15  1  0  0  0
  3  9  1  0  0  0
  3 24  2  0  0  0
  4  7  1  0  0  0
  4 10  1  0  0  0
  4 26  2  0  0  0
  5  8  1  0  0  0
  5 11  1  0  0  0
  5 25  2  0  0  0
  6  7  1  0  0  0
  6 27  1  0  0  0
  6 49  1  0  0  0
  7 50  1  0  0  0
  8 10  1  0  0  0
  8 51  1  0  0  0
  9 31  1  0  0  0
  9 32  1  0  0  0
 10 17  1  0  0  0
 10 52  1  0  0  0
 11 15  1  0  0  0
 11 18  1  0  0  0
 11 53  1  0  0  0
 12 20  2  0  0  0
 12 22  1  0  0  0
 13 18  1  0  0  0
 13 21  2  0  0  0
 13 34  1  0  0  0
 14 33  1  0  0  0
 14 55  1  0  0  0
 15 56  1  0  0  0
 15 57  1  0  0  0
 16 22  2  0  0  0
 16 17  1  0  0  0
 16 19  1  0  0  0
 17 58  1  0  0  0
 17 59  1  0  0  0
 18 60  1  0  0  0
 18 61  1  0  0  0
 19 54  1  0  0  0
 19 20  1  0  0  0
 20 62  1  0  0  0
 21 30  1  0  0  0
 21 37  1  0  0  0
 22 63  1  0  0  0
 27 36  1  0  0  0
 27 64  1  0  0  0
 27 65  1  0  0  0
 28 39  1  0  0  0
 28 38  1  0  0  0
 29 66  1  0  0  0
 30 41  1  0  0  0
 30 40  2  0  0  0
 31 38  1  0  0  0
 31 67  1  0  0  0
 31 68  1  0  0  0
 32 39  1  0  0  0
 32 69  1  0  0  0
 32 70  1  0  0  0
 33 42  1  0  0  0
 33 43  1  0  0  0
 33 71  1  0  0  0
 34 35  2  0  0  0
 34 72  1  0  0  0
 35 40  1  0  0  0
 35 73  1  0  0  0
 36 44  1  0  0  0
 36 45  1  0  0  0
 36 74  1  0  0  0
 37 46  2  0  0  0
 37 75  1  0  0  0
 38 76  1  0  0  0
 38 77  1  0  0  0
 39 78  1  0  0  0
 39 79  1  0  0  0
 40 80  1  0  0  0
 41 47  2  0  0  0
 41 81  1  0  0  0
 42 82  1  0  0  0
 42 83  1  0  0  0
 42 84  1  0  0  0
 43 85  1  0  0  0
 43 86  1  0  0  0
 43 87  1  0  0  0
 44 88  1  0  0  0
 44 89  1  0  0  0
 44 90  1  0  0  0
 45 91  1  0  0  0
 45 92  1  0  0  0
 45 93  1  0  0  0
 46 47  1  0  0  0
 46 94  1  0  0  0
 47 95  1  0  0  0
M  END
> <s_m_entry_id>
26319

> <s_m_entry_name>
dock_pv.143

> <s_m_Source_Path>
/home/csk/Desktop/cluster/DUD-E-result/reni

> <s_m_Source_File>
dock_pv.maegz

> <i_m_Source_File_Index>
143

> <chembl_id>
CHEMBL159479

> <chembl_pref_name>
None

> <i_lp_mmshare_version>
53161

> <r_lp_tautomer_probability>
0.499999999999999

> <s_lp_Force_Field>
OPLS_2005

> <r_lp_Energy>
40.957988

> <b_lp_Chiralities_Consistent>
1

> <s_lp_Variant>
CHEMBL286_lig1217-29

> <s_i_glide_gridfile>
glide-grid_3g6z

> <i_i_glide_lignum>
3945

> <i_i_glide_rotatable_bonds>
20

> <r_i_docking_score>
-7.53356362035116

> <r_i_glide_ligand_efficiency>
-0.160288587667046

> <r_i_glide_ligand_efficiency_sa>
-0.578453634779056

> <r_i_glide_ligand_efficiency_ln>
-1.55326481563056

> <r_i_glide_gscore>
-7.53356362035116

> <r_i_glide_lipo>
-3.13096436435646

> <r_i_glide_hbond>
0

> <r_i_glide_metal>
0

> <r_i_glide_rewards>
-1.67550639283216

> <r_i_glide_evdw>
-48.4392890930176

> <r_i_glide_ecoul>
-5.68188381195068

> <r_i_glide_erotb>
0.555961172307528

> <r_i_glide_esite>
-0.00880700902659011

> <r_i_glide_emodel>
-70.6437319318673

> <r_i_glide_energy>
-54.1211729049683

> <r_i_glide_einternal>
19.9242820739746

> <i_i_glide_confnum>
61

> <i_i_glide_posenum>
13

> <r_i_glide_eff_state_penalty>
0

> <s_user_duplicate_titles>
CHEMBL286_lig1217

> <i_f3d_flags>
0

> <s_m_subgroup_title>
dock_pv

> <s_m_subgroupid>
dock_pv

> <b_m_subgroup_collapsed>
1

$$$$
CHEMBL286_lig1562
                    3D
 Schrodinger Suite 2021-1.
 73 76  0  0  1  0            999 V2000
   -2.9868  -11.4126   -7.2212 C   0  0  0  0  0  0
   -3.6553  -18.1051  -11.4465 N   0  0  0  0  0  0
   -1.7449  -10.5309   -7.1020 C   0  0  0  0  0  0
   -2.8445  -12.7988   -7.3757 C   0  0  0  0  0  0
   -2.9720  -19.1281  -12.0586 C   0  0  0  0  0  0
   -5.0629  -17.9936  -11.5830 C   0  0  0  0  0  0
   -2.9980  -17.0567  -10.6038 C   0  0  2  0  0  0
   -0.8611  -17.9094  -11.6265 N   0  0  2  0  0  0
   -3.9730  -13.6246   -7.4336 C   0  0  0  0  0  0
  -11.3357  -14.6942   -8.1290 C   0  0  0  0  0  0
   -3.4975  -19.9432  -12.8209 O   0  0  0  0  0  0
  -12.6606  -14.6102   -7.6891 C   0  0  0  0  0  0
   -2.0495   -9.2637   -6.8210 F   0  0  0  0  0  0
   -0.9612  -10.9825   -6.1222 F   0  0  0  0  0  0
   -1.0633  -10.5542   -8.2491 F   0  0  0  0  0  0
   -5.8950  -19.0509  -11.1913 C   0  0  0  0  0  0
   -5.6339  -16.7920  -12.0201 C   0  0  0  0  0  0
   -1.6073  -13.3484   -7.4411 F   0  0  0  0  0  0
   -1.4655  -19.2375  -11.7121 C   0  0  0  0  0  0
   -4.2737  -10.8625   -7.1491 C   0  0  0  0  0  0
   -1.4465  -17.1307  -10.5508 C   0  0  0  0  0  0
   -3.3854  -15.4606   -8.8542 O   0  0  0  0  0  0
   -7.8502  -17.6839  -11.6111 C   0  0  0  0  0  0
   -7.2783  -18.9011  -11.2122 C   0  0  0  0  0  0
   -7.0182  -16.6432  -12.0216 C   0  0  0  0  0  0
  -13.2943  -15.8025   -7.4011 O   0  0  0  0  0  0
   -3.8135  -15.1302   -7.5437 C   0  0  0  0  0  0
   -3.5927  -16.8232   -9.1967 C   0  0  0  0  0  0
  -11.5498  -17.8600  -11.2461 C   0  0  0  0  0  0
   -9.2070  -17.4249  -11.6214 O   0  0  0  0  0  0
  -10.6307  -16.0535   -8.2274 C   0  0  0  0  0  0
   -5.2499  -13.0619   -7.3629 C   0  0  0  0  0  0
   -5.3979  -11.6850   -7.2209 C   0  0  0  0  0  0
  -11.3429  -17.0179   -8.9952 O   0  0  0  0  0  0
  -10.6220  -13.5250   -8.4211 C   0  0  0  0  0  0
  -10.1303  -18.4505  -11.2666 C   0  0  0  0  0  0
  -11.6631  -16.6395  -10.3238 C   0  0  0  0  0  0
  -13.2546  -13.3419   -7.5597 C   0  0  0  0  0  0
  -14.6251  -15.7789   -6.9270 C   0  0  0  0  0  0
  -11.2220  -12.2735   -8.2834 C   0  0  0  0  0  0
  -12.5418  -12.1828   -7.8570 C   0  0  0  0  0  0
   -3.2036  -16.1536  -11.1797 H   0  0  0  0  0  0
   -0.8527  -17.4245  -12.5130 H   0  0  0  0  0  0
   -5.4713  -19.9837  -10.8465 H   0  0  0  0  0  0
   -5.0192  -15.9659  -12.3443 H   0  0  0  0  0  0
   -1.3646  -19.7764  -10.7661 H   0  0  0  0  0  0
   -0.9575  -19.8271  -12.4787 H   0  0  0  0  0  0
   -4.4113   -9.7983   -7.0255 H   0  0  0  0  0  0
   -1.1391  -17.6006   -9.6135 H   0  0  0  0  0  0
   -1.0258  -16.1227  -10.5402 H   0  0  0  0  0  0
   -7.8907  -19.7319  -10.9008 H   0  0  0  0  0  0
   -7.4575  -15.7110  -12.3481 H   0  0  0  0  0  0
   -4.7585  -15.6174   -7.2893 H   0  0  0  0  0  0
   -3.0704  -15.4721   -6.8215 H   0  0  0  0  0  0
   -4.6667  -17.0138   -9.1871 H   0  0  0  0  0  0
   -3.1443  -17.4977   -8.4630 H   0  0  0  0  0  0
  -12.2598  -18.6256  -10.9339 H   0  0  0  0  0  0
  -11.8336  -17.5748  -12.2593 H   0  0  0  0  0  0
   -9.6199  -15.9486   -8.6281 H   0  0  0  0  0  0
  -10.5237  -16.4630   -7.2219 H   0  0  0  0  0  0
   -6.1284  -13.6886   -7.4110 H   0  0  0  0  0  0
   -6.3898  -11.2631   -7.1592 H   0  0  0  0  0  0
   -9.5954  -13.5809   -8.7503 H   0  0  0  0  0  0
   -9.8938  -18.8616  -10.2843 H   0  0  0  0  0  0
  -10.0730  -19.2624  -11.9926 H   0  0  0  0  0  0
  -12.6601  -16.2077  -10.3256 H   0  0  0  0  0  0
  -10.9991  -15.8624  -10.6892 H   0  0  0  0  0  0
  -14.2690  -13.2299   -7.2208 H   0  0  0  0  0  0
  -14.9905  -16.7989   -6.8007 H   0  0  0  0  0  0
  -14.6690  -15.2645   -5.9754 H   0  0  0  0  0  0
  -15.2832  -15.2630   -7.6210 H   0  0  0  0  0  0
  -10.6682  -11.3740   -8.5093 H   0  0  0  0  0  0
  -13.0106  -11.2134   -7.7526 H   0  0  0  0  0  0
  1  3  1  0  0  0
  1  4  1  0  0  0
  1 20  2  0  0  0
  2  7  1  0  0  0
  2  5  1  0  0  0
  2  6  1  0  0  0
  3 13  1  0  0  0
  3 14  1  0  0  0
  3 15  1  0  0  0
  4  9  2  0  0  0
  4 18  1  0  0  0
  5 11  2  0  0  0
  5 19  1  0  0  0
  6 16  1  0  0  0
  6 17  2  0  0  0
  7 28  1  0  0  0
  7 21  1  0  0  0
  7 42  1  0  0  0
  8 21  1  0  0  0
  8 19  1  0  0  0
  8 43  1  0  0  0
  9 27  1  0  0  0
  9 32  1  0  0  0
 10 31  1  0  0  0
 10 12  2  0  0  0
 10 35  1  0  0  0
 12 26  1  0  0  0
 12 38  1  0  0  0
 16 24  2  0  0  0
 16 44  1  0  0  0
 17 25  1  0  0  0
 17 45  1  0  0  0
 19 46  1  0  0  0
 19 47  1  0  0  0
 20 33  1  0  0  0
 20 48  1  0  0  0
 21 49  1  0  0  0
 21 50  1  0  0  0
 22 27  1  0  0  0
 22 28  1  0  0  0
 23 25  2  0  0  0
 23 30  1  0  0  0
 23 24  1  0  0  0
 24 51  1  0  0  0
 25 52  1  0  0  0
 26 39  1  0  0  0
 27 53  1  0  0  0
 27 54  1  0  0  0
 28 55  1  0  0  0
 28 56  1  0  0  0
 29 36  1  0  0  0
 29 37  1  0  0  0
 29 57  1  0  0  0
 29 58  1  0  0  0
 30 36  1  0  0  0
 31 34  1  0  0  0
 31 59  1  0  0  0
 31 60  1  0  0  0
 32 33  2  0  0  0
 32 61  1  0  0  0
 33 62  1  0  0  0
 34 37  1  0  0  0
 35 40  2  0  0  0
 35 63  1  0  0  0
 36 64  1  0  0  0
 36 65  1  0  0  0
 37 66  1  0  0  0
 37 67  1  0  0  0
 38 41  2  0  0  0
 38 68  1  0  0  0
 39 69  1  0  0  0
 39 70  1  0  0  0
 39 71  1  0  0  0
 40 41  1  0  0  0
 40 72  1  0  0  0
 41 73  1  0  0  0
M  END
> <s_m_entry_id>
26320

> <s_m_entry_name>
dock_pv.144

> <s_m_Source_Path>
/home/csk/Desktop/cluster/DUD-E-result/reni

> <s_m_Source_File>
dock_pv.maegz

> <i_m_Source_File_Index>
144

> <chembl_id>
CHEMBL373264

> <chembl_pref_name>
None

> <i_lp_mmshare_version>
53161

> <r_lp_tautomer_probability>
1

> <s_lp_Force_Field>
OPLS_2005

> <r_lp_Energy>
61.124387

> <b_lp_Chiralities_Consistent>
1

> <s_lp_Variant>
CHEMBL286_lig1562-1

> <s_i_glide_gridfile>
glide-grid_3g6z

> <i_i_glide_lignum>
5266

> <i_i_glide_rotatable_bonds>
14

> <r_i_docking_score>
-7.51883070805815

> <r_i_glide_ligand_efficiency>
-0.183386114830687

> <r_i_glide_ligand_efficiency_sa>
-0.632355162023215

> <r_i_glide_ligand_efficiency_ln>
-1.59514495623597

> <r_i_glide_gscore>
-7.51883070805815

> <r_i_glide_lipo>
-4.54152483834967

> <r_i_glide_hbond>
-0.0475416567230174

> <r_i_glide_metal>
0

> <r_i_glide_rewards>
-1.0738674408202

> <r_i_glide_evdw>
-45.7191390991211

> <r_i_glide_ecoul>
-1.51600229740143

> <r_i_glide_erotb>
0.657460527401011

> <r_i_glide_esite>
0

> <r_i_glide_emodel>
-64.8167601010948

> <r_i_glide_energy>
-47.2351413965225

> <r_i_glide_einternal>
7.43845796585083

> <i_i_glide_confnum>
76

> <i_i_glide_posenum>
371

> <r_i_glide_eff_state_penalty>
0

> <s_user_duplicate_titles>
CHEMBL286_lig1562,326748

> <i_f3d_flags>
0

> <s_m_subgroup_title>
dock_pv

> <s_m_subgroupid>
dock_pv

> <b_m_subgroup_collapsed>
1

$$$$
CHEMBL286_lig575
                    3D
 Schrodinger Suite 2021-1.
 96 97  0  0  1  0            999 V2000
   -7.4413  -19.5295  -11.9593 P   0  0  1  0  0  0
  -10.2865  -17.4765  -10.2530 C   0  0  0  0  0  0
   -9.3170  -16.5942   -9.9604 N   0  0  0  0  0  0
   -9.8773  -18.6422  -11.1902 C   0  0  1  0  0  0
   -8.5264  -18.9676  -10.8796 O   0  0  0  0  0  0
   -4.7626  -14.2499   -8.3943 C   0  0  0  0  0  0
   -9.3365  -15.5298   -8.9425 C   0  0  1  0  0  0
   -6.7515  -15.9101   -8.5437 C   0  0  0  0  0  0
   -7.9006  -14.8909   -8.8500 C   0  0  1  0  0  0
   -5.3087  -15.5459   -9.0168 C   0  0  2  0  0  0
   -7.8689  -20.7025  -12.7631 O   0  0  0  0  0  0
  -11.4205  -17.3815   -9.7858 O   0  0  0  0  0  0
  -10.4577  -14.4622   -9.1779 C   0  0  0  0  0  0
   -4.4090  -14.2473   -7.2169 O   0  0  0  0  0  0
   -7.0690  -18.2083  -12.8210 O   0  0  0  0  0  0
   -4.6297  -13.1831   -9.1992 N   0  0  0  0  0  0
   -6.0192  -19.7391  -10.8254 C   0  0  0  0  0  0
   -7.6192  -14.2214  -10.0740 O   0  0  0  0  0  0
  -11.2883  -13.8767   -8.0078 C   0  0  0  0  0  0
  -10.6798  -19.9563  -11.0094 C   0  0  0  0  0  0
   -2.4614  -19.4519  -12.4591 C   0  0  0  0  0  0
   -4.6981  -20.2053  -11.4655 C   0  0  0  0  0  0
   -4.3029  -16.6834   -8.7346 C   0  0  0  0  0  0
   -3.9381  -19.1175  -12.2539 C   0  0  0  0  0  0
   -3.9315  -11.9522   -8.8360 C   0  0  0  0  0  0
   -2.0856  -20.6502  -13.0752 C   0  0  0  0  0  0
   -1.4770  -18.5605  -12.0207 C   0  0  0  0  0  0
  -11.8992  -12.5095   -8.4137 C   0  0  0  0  0  0
  -12.4357  -14.8204   -7.5865 C   0  0  0  0  0  0
  -12.1981  -19.8777  -11.2502 C   0  0  0  0  0  0
   -4.5304  -11.1781   -7.6409 C   0  0  0  0  0  0
   -3.7156   -9.9436   -7.2313 C   0  0  0  0  0  0
  -12.8218  -21.2779  -11.3808 C   0  0  0  0  0  0
   -2.3068  -10.2343   -6.6946 C   0  0  0  0  0  0
  -14.2675  -21.2551  -11.8680 C   0  0  0  0  0  0
   -0.1292  -18.8632  -12.2019 C   0  0  0  0  0  0
   -0.7384  -20.9535  -13.2558 C   0  0  0  0  0  0
  -12.6626  -11.8583   -7.2501 C   0  0  0  0  0  0
  -13.2677  -14.2116   -6.4409 C   0  0  0  0  0  0
  -13.7854  -12.7917   -6.7700 C   0  0  0  0  0  0
    0.2342  -20.0577  -12.8211 C   0  0  0  0  0  0
   -8.4139  -16.8119  -10.3557 H   0  0  0  0  0  0
   -9.9565  -18.2790  -12.2175 H   0  0  0  0  0  0
   -9.5491  -16.0630   -8.0209 H   0  0  0  0  0  0
   -6.9858  -16.8708   -9.0013 H   0  0  0  0  0  0
   -6.7436  -16.1045   -7.4693 H   0  0  0  0  0  0
   -7.8942  -14.1254   -8.0711 H   0  0  0  0  0  0
   -5.3283  -15.4242  -10.1009 H   0  0  0  0  0  0
   -9.9720  -13.5991   -9.6210 H   0  0  0  0  0  0
  -11.1885  -14.8628   -9.8852 H   0  0  0  0  0  0
   -7.6319  -18.0629  -13.6346 H   0  0  0  0  0  0
   -4.9989  -13.2441  -10.1372 H   0  0  0  0  0  0
   -5.8947  -18.8066  -10.2899 H   0  0  0  0  0  0
   -6.3270  -20.4745  -10.0833 H   0  0  0  0  0  0
   -7.8214  -14.8138  -10.8033 H   0  0  0  0  0  0
  -10.6685  -13.6661   -7.1432 H   0  0  0  0  0  0
  -10.2595  -20.6979  -11.6875 H   0  0  0  0  0  0
  -10.4979  -20.3644  -10.0184 H   0  0  0  0  0  0
   -4.0545  -20.5478  -10.6527 H   0  0  0  0  0  0
   -4.8739  -21.0807  -12.0945 H   0  0  0  0  0  0
   -3.3018  -16.4401   -9.0946 H   0  0  0  0  0  0
   -4.2278  -16.8629   -7.6640 H   0  0  0  0  0  0
   -4.5810  -17.6202   -9.2005 H   0  0  0  0  0  0
   -4.4097  -18.9535  -13.2238 H   0  0  0  0  0  0
   -4.0170  -18.1661  -11.7236 H   0  0  0  0  0  0
   -3.8881  -11.2948   -9.7072 H   0  0  0  0  0  0
   -2.8878  -12.2017   -8.6399 H   0  0  0  0  0  0
   -2.8351  -21.3497  -13.4160 H   0  0  0  0  0  0
   -1.7513  -17.6341  -11.5378 H   0  0  0  0  0  0
  -11.1188  -11.8303   -8.7610 H   0  0  0  0  0  0
  -12.5634  -12.6338   -9.2686 H   0  0  0  0  0  0
  -13.0814  -15.0272   -8.4415 H   0  0  0  0  0  0
  -12.0379  -15.7972   -7.3038 H   0  0  0  0  0  0
  -12.6721  -19.3595  -10.4224 H   0  0  0  0  0  0
  -12.4042  -19.2629  -12.1280 H   0  0  0  0  0  0
   -4.6374  -11.8187   -6.7656 H   0  0  0  0  0  0
   -5.5407  -10.8634   -7.9040 H   0  0  0  0  0  0
   -4.2681   -9.4212   -6.4547 H   0  0  0  0  0  0
   -3.6476   -9.2630   -8.0771 H   0  0  0  0  0  0
  -12.2380  -21.8893  -12.0689 H   0  0  0  0  0  0
  -12.7772  -21.7870  -10.4213 H   0  0  0  0  0  0
   -1.8044   -9.3069   -6.4209 H   0  0  0  0  0  0
   -1.6780  -10.7299   -7.4338 H   0  0  0  0  0  0
   -2.3455  -10.8633   -5.8051 H   0  0  0  0  0  0
  -14.6688  -22.2674  -11.9067 H   0  0  0  0  0  0
  -14.9117  -20.6616  -11.2209 H   0  0  0  0  0  0
  -14.3101  -20.8566  -12.8803 H   0  0  0  0  0  0
    0.6332  -18.1776  -11.8619 H   0  0  0  0  0  0
   -0.4487  -21.8794  -13.7312 H   0  0  0  0  0  0
  -11.9811  -11.6423   -6.4249 H   0  0  0  0  0  0
  -13.0790  -10.8986   -7.5631 H   0  0  0  0  0  0
  -12.6468  -14.1719   -5.5481 H   0  0  0  0  0  0
  -14.1083  -14.8630   -6.2124 H   0  0  0  0  0  0
  -14.2692  -12.3593   -5.8929 H   0  0  0  0  0  0
  -14.5485  -12.8540   -7.5487 H   0  0  0  0  0  0
    1.2796  -20.2970  -12.9599 H   0  0  0  0  0  0
  1  5  1  0  0  0
  1 11  2  0  0  0
  1 15  1  0  0  0
  1 17  1  0  0  0
  2  4  1  0  0  0
  2  3  1  0  0  0
  2 12  2  0  0  0
  3  7  1  0  0  0
  3 42  1  0  0  0
  4  5  1  0  0  0
  4 20  1  0  0  0
  4 43  1  0  0  0
  6 10  1  0  0  0
  6 14  2  0  0  0
  6 16  1  0  0  0
  7  9  1  0  0  0
  7 13  1  0  0  0
  7 44  1  0  0  0
  8  9  1  0  0  0
  8 10  1  0  0  0
  8 45  1  0  0  0
  8 46  1  0  0  0
  9 18  1  0  0  0
  9 47  1  0  0  0
 10 23  1  0  0  0
 10 48  1  0  0  0
 13 19  1  0  0  0
 13 49  1  0  0  0
 13 50  1  0  0  0
 15 51  1  0  0  0
 16 25  1  0  0  0
 16 52  1  0  0  0
 17 22  1  0  0  0
 17 53  1  0  0  0
 17 54  1  0  0  0
 18 55  1  0  0  0
 19 28  1  0  0  0
 19 29  1  0  0  0
 19 56  1  0  0  0
 20 30  1  0  0  0
 20 57  1  0  0  0
 20 58  1  0  0  0
 21 24  1  0  0  0
 21 26  2  0  0  0
 21 27  1  0  0  0
 22 24  1  0  0  0
 22 59  1  0  0  0
 22 60  1  0  0  0
 23 61  1  0  0  0
 23 62  1  0  0  0
 23 63  1  0  0  0
 24 64  1  0  0  0
 24 65  1  0  0  0
 25 31  1  0  0  0
 25 66  1  0  0  0
 25 67  1  0  0  0
 26 37  1  0  0  0
 26 68  1  0  0  0
 27 36  2  0  0  0
 27 69  1  0  0  0
 28 38  1  0  0  0
 28 70  1  0  0  0
 28 71  1  0  0  0
 29 39  1  0  0  0
 29 72  1  0  0  0
 29 73  1  0  0  0
 30 33  1  0  0  0
 30 74  1  0  0  0
 30 75  1  0  0  0
 31 32  1  0  0  0
 31 76  1  0  0  0
 31 77  1  0  0  0
 32 34  1  0  0  0
 32 78  1  0  0  0
 32 79  1  0  0  0
 33 35  1  0  0  0
 33 80  1  0  0  0
 33 81  1  0  0  0
 34 82  1  0  0  0
 34 83  1  0  0  0
 34 84  1  0  0  0
 35 85  1  0  0  0
 35 86  1  0  0  0
 35 87  1  0  0  0
 36 41  1  0  0  0
 36 88  1  0  0  0
 37 41  2  0  0  0
 37 89  1  0  0  0
 38 40  1  0  0  0
 38 90  1  0  0  0
 38 91  1  0  0  0
 39 40  1  0  0  0
 39 92  1  0  0  0
 39 93  1  0  0  0
 40 94  1  0  0  0
 40 95  1  0  0  0
 41 96  1  0  0  0
M  END
> <s_m_entry_id>
26321

> <s_m_entry_name>
dock_pv.145

> <s_m_Source_Path>
/home/csk/Desktop/cluster/DUD-E-result/reni

> <s_m_Source_File>
dock_pv.maegz

> <i_m_Source_File_Index>
145

> <chembl_id>
CHEMBL344138

> <chembl_pref_name>
None

> <i_lp_mmshare_version>
53161

> <r_lp_tautomer_probability>
1

> <s_lp_Force_Field>
OPLS_2005

> <r_lp_Energy>
5.11056

> <b_lp_Chiralities_Consistent>
1

> <s_lp_Variant>
CHEMBL286_lig575-2

> <s_i_glide_gridfile>
glide-grid_3g6z

> <i_i_glide_lignum>
1619

> <i_i_glide_rotatable_bonds>
24

> <r_i_docking_score>
-7.51835238868818

> <r_i_glide_ligand_efficiency>
-0.18337444850459

> <r_i_glide_ligand_efficiency_sa>
-0.632314933996486

> <r_i_glide_ligand_efficiency_ln>
-1.59504347918986

> <r_i_glide_gscore>
-7.51835238868818

> <r_i_glide_lipo>
-4.65113725967738

> <r_i_glide_hbond>
0

> <r_i_glide_metal>
0

> <r_i_glide_rewards>
-0.732135973542838

> <r_i_glide_evdw>
-45.7911720275879

> <r_i_glide_ecoul>
-5.09589719772339

> <r_i_glide_erotb>
0.954860264900451

> <r_i_glide_esite>
-0.0359962393305059

> <r_i_glide_emodel>
-66.1843466576145

> <r_i_glide_energy>
-50.8870692253113

> <r_i_glide_einternal>
17.5810813903809

> <i_i_glide_confnum>
44

> <i_i_glide_posenum>
240

> <r_i_glide_eff_state_penalty>
0

> <s_user_duplicate_titles>
CHEMBL286_lig575

> <i_f3d_flags>
0

> <s_m_subgroup_title>
dock_pv

> <s_m_subgroupid>
dock_pv

> <b_m_subgroup_collapsed>
1

$$$$
CHEMBL286_lig956
                    3D
 Schrodinger Suite 2021-1.
 94 95  0  0  1  0            999 V2000
   -6.5512  -14.3745  -10.3307 C   0  0  0  0  0  0
   -8.4938  -16.6964   -9.6026 C   0  0  0  0  0  0
  -11.5275  -16.2480   -8.4118 C   0  0  0  0  0  0
   -8.4920  -15.4019   -9.2212 N   0  0  0  0  0  0
   -5.3860  -15.0268  -10.4118 N   0  0  0  0  0  0
   -7.3273  -14.5414   -9.0105 C   0  0  1  0  0  0
   -3.9947  -14.8628   -7.3271 N   0  0  0  0  0  0
  -11.0393  -16.4799   -9.6889 N   0  0  0  0  0  0
   -4.9312  -17.4316  -12.2793 C   0  0  0  0  0  0
   -9.8669  -17.3666   -9.8721 C   0  0  1  0  0  0
   -5.2140  -14.2445   -7.5392 C   0  0  0  0  0  0
   -4.4266  -15.0038  -11.5087 C   0  0  2  0  0  0
   -4.3935  -18.7622  -12.8209 C   0  0  0  0  0  0
   -6.4793  -15.0282   -7.7980 C   0  0  0  0  0  0
   -3.5927  -12.6760   -7.3095 N   0  0  0  0  0  0
   -3.0781  -13.8976   -7.2211 C   0  0  0  0  0  0
   -3.8679  -16.4349  -11.7388 C   0  0  1  0  0  0
  -12.3669  -15.1809   -8.4306 O   0  0  0  0  0  0
   -4.9575  -12.8908   -7.5094 C   0  0  0  0  0  0
  -11.1840  -16.8630   -7.4030 O   0  0  0  0  0  0
   -3.1838  -19.1626  -12.3946 N   0  0  0  0  0  0
   -7.4729  -17.3728   -9.7251 O   0  0  0  0  0  0
   -7.0159  -13.6630  -11.2200 O   0  0  0  0  0  0
   -9.9456  -18.1225  -11.2249 C   0  0  0  0  0  0
   -3.2771  -13.9903  -11.2394 C   0  0  0  0  0  0
   -5.0688  -19.4073  -13.6210 O   0  0  0  0  0  0
  -13.0326  -14.6562   -7.2650 C   0  0  0  0  0  0
   -2.4468  -20.3476  -12.8248 C   0  0  0  0  0  0
  -10.7819  -19.3925  -11.2210 C   0  0  0  0  0  0
   -3.2804  -16.9392  -10.5425 O   0  0  0  0  0  0
   -3.6751  -12.4979  -11.1313 C   0  0  0  0  0  0
  -14.2223  -15.5695   -6.9058 C   0  0  0  0  0  0
  -13.5139  -13.2427   -7.6582 C   0  0  0  0  0  0
  -12.1243  -14.4598   -6.0294 C   0  0  0  0  0  0
   -3.0896  -21.6994  -12.4358 C   0  0  0  0  0  0
  -12.1902  -19.3272  -11.2211 C   0  0  0  0  0  0
  -10.1562  -20.6553  -11.1380 C   0  0  0  0  0  0
   -4.1232  -11.9240  -12.4896 C   0  0  0  0  0  0
   -2.5338  -11.6636  -10.5176 C   0  0  0  0  0  0
   -3.2761  -21.8521  -10.9128 C   0  0  0  0  0  0
   -2.2691  -22.8631  -13.0103 C   0  0  0  0  0  0
  -10.9216  -21.8135  -11.1655 C   0  0  0  0  0  0
  -12.9413  -20.4988  -11.2214 C   0  0  0  0  0  0
  -12.3074  -21.7341  -11.2210 C   0  0  0  0  0  0
   -9.3838  -14.9366   -9.1495 H   0  0  0  0  0  0
   -5.1437  -15.6345   -9.6425 H   0  0  0  0  0  0
   -7.7113  -13.5500   -8.7663 H   0  0  0  0  0  0
  -11.3711  -15.9182  -10.4586 H   0  0  0  0  0  0
   -5.6767  -17.6492  -11.5169 H   0  0  0  0  0  0
   -5.4774  -16.9573  -13.0967 H   0  0  0  0  0  0
   -9.8724  -18.1537   -9.1131 H   0  0  0  0  0  0
   -4.9485  -14.7083  -12.4209 H   0  0  0  0  0  0
   -7.0689  -14.9782   -6.8856 H   0  0  0  0  0  0
   -6.2106  -16.0796   -7.9098 H   0  0  0  0  0  0
   -3.8326  -15.8601   -7.2476 H   0  0  0  0  0  0
   -2.0279  -14.0862   -7.0531 H   0  0  0  0  0  0
   -3.0658  -16.3642  -12.4670 H   0  0  0  0  0  0
   -5.6372  -12.0614   -7.6425 H   0  0  0  0  0  0
   -2.7615  -18.5989  -11.6665 H   0  0  0  0  0  0
   -8.9510  -18.3967  -11.5862 H   0  0  0  0  0  0
  -10.3339  -17.4625  -12.0031 H   0  0  0  0  0  0
   -2.7755  -14.2803  -10.3146 H   0  0  0  0  0  0
   -2.5210  -14.0845  -12.0210 H   0  0  0  0  0  0
   -2.2685  -20.3001  -13.9005 H   0  0  0  0  0  0
   -1.4545  -20.2852  -12.3739 H   0  0  0  0  0  0
   -2.6581  -16.2849  -10.2158 H   0  0  0  0  0  0
   -4.5146  -12.4160  -10.4413 H   0  0  0  0  0  0
  -13.9296  -16.6151   -6.8209 H   0  0  0  0  0  0
  -14.6690  -15.2630   -5.9685 H   0  0  0  0  0  0
  -15.0281  -15.5150   -7.6210 H   0  0  0  0  0  0
  -12.6894  -12.6333   -8.0317 H   0  0  0  0  0  0
  -14.2680  -13.2609   -8.4339 H   0  0  0  0  0  0
  -13.9471  -12.7118   -6.8099 H   0  0  0  0  0  0
  -11.3204  -13.7536   -6.2343 H   0  0  0  0  0  0
  -12.7253  -14.0658   -5.2210 H   0  0  0  0  0  0
  -11.6800  -15.3706   -5.6363 H   0  0  0  0  0  0
   -4.0779  -21.7502  -12.8956 H   0  0  0  0  0  0
  -12.6690  -18.3610  -11.2583 H   0  0  0  0  0  0
   -9.0774  -20.7251  -11.0973 H   0  0  0  0  0  0
   -3.3446  -12.0373  -13.2456 H   0  0  0  0  0  0
   -5.0184  -12.4249  -12.8589 H   0  0  0  0  0  0
   -4.3574  -10.8630  -12.4210 H   0  0  0  0  0  0
   -1.7292  -11.4889  -11.2321 H   0  0  0  0  0  0
   -2.9010  -10.7007  -10.1645 H   0  0  0  0  0  0
   -2.0984  -12.1560   -9.6483 H   0  0  0  0  0  0
   -2.3214  -21.8020  -10.3871 H   0  0  0  0  0  0
   -3.9177  -21.0668  -10.5116 H   0  0  0  0  0  0
   -3.7417  -22.8062  -10.6655 H   0  0  0  0  0  0
   -1.2603  -22.8629  -12.5966 H   0  0  0  0  0  0
   -2.7276  -23.8267  -12.7867 H   0  0  0  0  0  0
   -2.1833  -22.7914  -14.0955 H   0  0  0  0  0  0
  -10.4358  -22.7776  -11.1445 H   0  0  0  0  0  0
  -14.0198  -20.4629  -11.2562 H   0  0  0  0  0  0
  -12.8965  -22.6406  -11.2454 H   0  0  0  0  0  0
  1  5  1  0  0  0
  1  6  1  0  0  0
  1 23  2  0  0  0
  2  4  1  0  0  0
  2 10  1  0  0  0
  2 22  2  0  0  0
  3  8  1  0  0  0
  3 18  1  0  0  0
  3 20  2  0  0  0
  4  6  1  0  0  0
  4 45  1  0  0  0
  5 12  1  0  0  0
  5 46  1  0  0  0
  6 14  1  0  0  0
  6 47  1  0  0  0
  7 11  1  0  0  0
  7 55  1  0  0  0
  7 16  1  0  0  0
  8 10  1  0  0  0
  8 48  1  0  0  0
  9 17  1  0  0  0
  9 13  1  0  0  0
  9 49  1  0  0  0
  9 50  1  0  0  0
 10 24  1  0  0  0
 10 51  1  0  0  0
 11 19  2  0  0  0
 11 14  1  0  0  0
 12 17  1  0  0  0
 12 25  1  0  0  0
 12 52  1  0  0  0
 13 21  1  0  0  0
 13 26  2  0  0  0
 14 53  1  0  0  0
 14 54  1  0  0  0
 15 16  2  0  0  0
 15 19  1  0  0  0
 16 56  1  0  0  0
 17 30  1  0  0  0
 17 57  1  0  0  0
 18 27  1  0  0  0
 19 58  1  0  0  0
 21 28  1  0  0  0
 21 59  1  0  0  0
 24 29  1  0  0  0
 24 60  1  0  0  0
 24 61  1  0  0  0
 25 31  1  0  0  0
 25 62  1  0  0  0
 25 63  1  0  0  0
 27 32  1  0  0  0
 27 33  1  0  0  0
 27 34  1  0  0  0
 28 35  1  0  0  0
 28 64  1  0  0  0
 28 65  1  0  0  0
 29 36  1  0  0  0
 29 37  2  0  0  0
 30 66  1  0  0  0
 31 38  1  0  0  0
 31 39  1  0  0  0
 31 67  1  0  0  0
 32 68  1  0  0  0
 32 69  1  0  0  0
 32 70  1  0  0  0
 33 71  1  0  0  0
 33 72  1  0  0  0
 33 73  1  0  0  0
 34 74  1  0  0  0
 34 75  1  0  0  0
 34 76  1  0  0  0
 35 40  1  0  0  0
 35 41  1  0  0  0
 35 77  1  0  0  0
 36 43  2  0  0  0
 36 78  1  0  0  0
 37 42  1  0  0  0
 37 79  1  0  0  0
 38 80  1  0  0  0
 38 81  1  0  0  0
 38 82  1  0  0  0
 39 83  1  0  0  0
 39 84  1  0  0  0
 39 85  1  0  0  0
 40 86  1  0  0  0
 40 87  1  0  0  0
 40 88  1  0  0  0
 41 89  1  0  0  0
 41 90  1  0  0  0
 41 91  1  0  0  0
 42 44  2  0  0  0
 42 92  1  0  0  0
 43 44  1  0  0  0
 43 93  1  0  0  0
 44 94  1  0  0  0
M  END
> <s_m_entry_id>
26322

> <s_m_entry_name>
dock_pv.146

> <s_m_Source_Path>
/home/csk/Desktop/cluster/DUD-E-result/reni

> <s_m_Source_File>
dock_pv.maegz

> <i_m_Source_File_Index>
146

> <chembl_id>
CHEMBL3143453

> <chembl_pref_name>
None

> <i_lp_mmshare_version>
53161

> <r_lp_tautomer_probability>
0.499999999999999

> <s_lp_Force_Field>
OPLS_2005

> <r_lp_Energy>
12.283247

> <b_lp_Chiralities_Consistent>
1

> <s_lp_Variant>
CHEMBL286_lig956-2

> <s_i_glide_gridfile>
glide-grid_3g6z

> <i_i_glide_lignum>
2562

> <i_i_glide_rotatable_bonds>
23

> <r_i_docking_score>
-7.51769521059969

> <r_i_glide_ligand_efficiency>
-0.170856709331811

> <r_i_glide_ligand_efficiency_sa>
-0.603183698607995

> <r_i_glide_ligand_efficiency_ln>
-1.57136229661588

> <r_i_glide_gscore>
-7.51769521059969

> <r_i_glide_lipo>
-3.23325995367199

> <r_i_glide_hbond>
-0.465487450351047

> <r_i_glide_metal>
0

> <r_i_glide_rewards>
-0.682772737330227

> <r_i_glide_evdw>
-51.4211196899414

> <r_i_glide_ecoul>
-9.08305263519287

> <r_i_glide_erotb>
0.81983959400893

> <r_i_glide_esite>
-0.0225007834793556

> <r_i_glide_emodel>
-77.8537349913457

> <r_i_glide_energy>
-60.5041723251343

> <r_i_glide_einternal>
15.8846006393433

> <i_i_glide_confnum>
53

> <i_i_glide_posenum>
101

> <r_i_glide_eff_state_penalty>
0

> <s_user_duplicate_titles>
CHEMBL286_lig956

> <i_f3d_flags>
0

> <s_m_subgroup_title>
dock_pv

> <s_m_subgroupid>
dock_pv

> <b_m_subgroup_collapsed>
1

$$$$
CHEMBL286_lig2451
                    3D
 Schrodinger Suite 2021-1.
 79 81  0  0  1  0            999 V2000
   -2.6160  -12.9560  -10.5345 C   0  0  0  0  0  0
   -3.6959  -12.3018   -9.6396 C   0  0  0  0  0  0
   -3.2742  -12.5283   -8.1825 C   0  0  0  0  0  0
   -1.7616  -12.7831   -8.2143 C   0  0  0  0  0  0
   -1.3462  -12.6945   -9.6895 C   0  0  0  0  0  0
   -9.0690  -18.3457   -7.7672 C   0  0  0  0  0  0
   -8.3716  -17.6421   -8.9555 C   0  0  0  0  0  0
   -6.8383  -17.5932   -8.8497 C   0  0  0  0  0  0
  -10.8156  -12.4629   -8.1585 C   0  0  0  0  0  0
  -12.0975  -12.5297   -7.6210 C   0  0  0  0  0  0
  -12.7776  -13.7445   -7.6007 C   0  0  0  0  0  0
  -12.1932  -14.8972   -8.1298 C   0  0  0  0  0  0
  -10.9126  -14.8300   -8.7314 C   0  0  0  0  0  0
  -10.2251  -13.6039   -8.7015 C   0  0  0  0  0  0
  -10.2624  -15.9763   -9.2697 N   0  0  0  0  0  0
   -8.8296  -16.1615   -8.9575 C   0  0  0  0  0  0
   -8.7977  -18.1918  -10.2448 N   0  0  2  0  0  0
  -10.2132  -18.0942  -10.5982 C   0  0  0  0  0  0
  -10.8253  -16.7169  -10.2731 C   0  0  0  0  0  0
  -11.8690  -16.4036  -10.8211 O   0  0  0  0  0  0
   -8.1634  -19.4058  -10.7673 C   0  0  0  0  0  0
   -7.6354  -19.1665  -12.2046 C   0  0  1  0  0  0
   -6.5483  -18.0362  -12.3859 C   0  0  2  0  0  0
   -7.1324  -20.4629  -12.6552 N   0  0  0  0  0  0
   -7.1016  -16.5673  -12.3935 C   0  0  0  0  0  0
   -5.8690  -18.2185  -13.6210 O   0  0  0  0  0  0
   -6.0747  -15.4142  -12.5646 C   0  0  2  0  0  0
   -5.1504  -15.1406  -11.3499 C   0  0  0  0  0  0
   -3.8505  -14.9499  -11.6210 N   0  0  0  0  0  0
   -5.6163  -15.0042  -10.2198 O   0  0  0  0  0  0
   -6.7259  -14.0976  -13.0642 C   0  0  0  0  0  0
  -13.0631  -16.3840   -7.9274 Cl  0  0  0  0  0  0
   -2.8172  -14.5075  -10.6823 C   0  0  0  0  0  0
   -7.4906  -13.2700  -12.0168 C   0  0  0  0  0  0
   -2.5135  -12.2504  -11.9240 C   0  0  0  0  0  0
   -3.7560  -12.1175  -12.5870 O   0  0  0  0  0  0
   -4.7031  -12.6510   -9.8555 H   0  0  0  0  0  0
   -3.7283  -11.2278   -9.8338 H   0  0  0  0  0  0
   -3.7945  -13.3949   -7.7710 H   0  0  0  0  0  0
   -3.5307  -11.6724   -7.5564 H   0  0  0  0  0  0
   -1.5397  -13.7751   -7.8175 H   0  0  0  0  0  0
   -1.2161  -12.0630   -7.6027 H   0  0  0  0  0  0
   -0.9691  -11.6883   -9.8832 H   0  0  0  0  0  0
   -0.5151  -13.3525   -9.9484 H   0  0  0  0  0  0
   -8.6145  -18.0630   -6.8210 H   0  0  0  0  0  0
  -10.1192  -18.0630   -7.6860 H   0  0  0  0  0  0
   -9.0263  -19.4313   -7.8563 H   0  0  0  0  0  0
   -6.4941  -16.9810   -8.0179 H   0  0  0  0  0  0
   -6.3842  -18.5793   -8.8210 H   0  0  0  0  0  0
   -6.4138  -17.1573   -9.7398 H   0  0  0  0  0  0
  -10.2811  -11.5240   -8.1580 H   0  0  0  0  0  0
  -12.5552  -11.6454   -7.2011 H   0  0  0  0  0  0
  -13.7568  -13.7975   -7.1478 H   0  0  0  0  0  0
   -9.2347  -13.5184   -9.1249 H   0  0  0  0  0  0
   -8.2674  -15.5777   -9.6848 H   0  0  0  0  0  0
   -8.5667  -15.6878   -8.0210 H   0  0  0  0  0  0
  -10.3502  -18.2512  -11.6700 H   0  0  0  0  0  0
  -10.8009  -18.8659  -10.1008 H   0  0  0  0  0  0
   -8.8885  -20.2221  -10.7710 H   0  0  0  0  0  0
   -7.3382  -19.7576  -10.1543 H   0  0  0  0  0  0
   -8.4928  -18.9144  -12.8210 H   0  0  0  0  0  0
   -5.7905  -18.1510  -11.6113 H   0  0  0  0  0  0
   -7.8964  -21.0901  -12.8661 H   0  0  0  0  0  0
   -6.6551  -20.3000  -13.5313 H   0  0  0  0  0  0
   -7.6990  -16.3622  -11.5174 H   0  0  0  0  0  0
   -7.8045  -16.4630  -13.2197 H   0  0  0  0  0  0
   -6.5054  -18.0630  -14.3356 H   0  0  0  0  0  0
   -5.4690  -15.7387  -13.4004 H   0  0  0  0  0  0
   -3.5623  -15.0651  -12.5906 H   0  0  0  0  0  0
   -5.9327  -13.4784  -13.4785 H   0  0  0  0  0  0
   -7.3870  -14.3078  -13.9069 H   0  0  0  0  0  0
   -1.8869  -14.9469  -11.0447 H   0  0  0  0  0  0
   -2.9770  -14.9700   -9.7058 H   0  0  0  0  0  0
   -7.9484  -12.3904  -12.4643 H   0  0  0  0  0  0
   -8.2690  -13.8626  -11.5410 H   0  0  0  0  0  0
   -6.8300  -12.9062  -11.2332 H   0  0  0  0  0  0
   -2.0568  -11.2635  -11.8398 H   0  0  0  0  0  0
   -1.8690  -12.8265  -12.5870 H   0  0  0  0  0  0
   -4.0412  -12.9982  -12.8507 H   0  0  0  0  0  0
  1  2  1  0  0  0
  1  5  1  0  0  0
  1 33  1  0  0  0
  1 35  1  0  0  0
  2  3  1  0  0  0
  2 37  1  0  0  0
  2 38  1  0  0  0
  3  4  1  0  0  0
  3 39  1  0  0  0
  3 40  1  0  0  0
  4  5  1  0  0  0
  4 41  1  0  0  0
  4 42  1  0  0  0
  5 43  1  0  0  0
  5 44  1  0  0  0
  6  7  1  0  0  0
  6 45  1  0  0  0
  6 46  1  0  0  0
  6 47  1  0  0  0
  7  8  1  0  0  0
  7 16  1  0  0  0
  7 17  1  0  0  0
  8 48  1  0  0  0
  8 49  1  0  0  0
  8 50  1  0  0  0
  9 10  2  0  0  0
  9 14  1  0  0  0
  9 51  1  0  0  0
 10 11  1  0  0  0
 10 52  1  0  0  0
 11 12  2  0  0  0
 11 53  1  0  0  0
 12 13  1  0  0  0
 12 32  1  0  0  0
 13 14  2  0  0  0
 13 15  1  0  0  0
 14 54  1  0  0  0
 15 16  1  0  0  0
 15 19  1  0  0  0
 16 55  1  0  0  0
 16 56  1  0  0  0
 17 18  1  0  0  0
 17 21  1  0  0  0
 18 19  1  0  0  0
 18 57  1  0  0  0
 18 58  1  0  0  0
 19 20  2  0  0  0
 21 22  1  0  0  0
 21 59  1  0  0  0
 21 60  1  0  0  0
 22 23  1  0  0  0
 22 24  1  0  0  0
 22 61  1  0  0  0
 23 25  1  0  0  0
 23 26  1  0  0  0
 23 62  1  0  0  0
 24 63  1  0  0  0
 24 64  1  0  0  0
 25 27  1  0  0  0
 25 65  1  0  0  0
 25 66  1  0  0  0
 26 67  1  0  0  0
 27 28  1  0  0  0
 27 31  1  0  0  0
 27 68  1  0  0  0
 28 29  1  0  0  0
 28 30  2  0  0  0
 29 33  1  0  0  0
 29 69  1  0  0  0
 31 34  1  0  0  0
 31 70  1  0  0  0
 31 71  1  0  0  0
 33 72  1  0  0  0
 33 73  1  0  0  0
 34 74  1  0  0  0
 34 75  1  0  0  0
 34 76  1  0  0  0
 35 36  1  0  0  0
 35 77  1  0  0  0
 35 78  1  0  0  0
 36 79  1  0  0  0
M  END
> <s_m_entry_id>
26323

> <s_m_entry_name>
dock_pv.147

> <s_m_Source_Path>
/home/csk/Desktop/cluster/DUD-E-result/reni

> <s_m_Source_File>
dock_pv.maegz

> <i_m_Source_File_Index>
147

> <chembl_id>
CHEMBL2387564

> <chembl_pref_name>
None

> <i_lp_mmshare_version>
53161

> <r_lp_tautomer_probability>
1

> <s_lp_Force_Field>
OPLS_2005

> <r_lp_Energy>
98.74091

> <b_lp_Chiralities_Consistent>
1

> <s_lp_Variant>
CHEMBL286_lig2451-1

> <s_i_glide_gridfile>
glide-grid_3g6z

> <i_i_glide_lignum>
6511

> <i_i_glide_rotatable_bonds>
14

> <r_i_docking_score>
-7.51577183325779

> <r_i_glide_ligand_efficiency>
-0.208771439812716

> <r_i_glide_ligand_efficiency_sa>
-0.689348105085142

> <r_i_glide_ligand_efficiency_ln>
-1.63973836132755

> <r_i_glide_gscore>
-7.51577183325779

> <r_i_glide_lipo>
-3.23530791064267

> <r_i_glide_hbond>
-0.581185022429855

> <r_i_glide_metal>
0

> <r_i_glide_rewards>
-1.27437361904031

> <r_i_glide_evdw>
-35.9780235290527

> <r_i_glide_ecoul>
-9.3328332901001

> <r_i_glide_erotb>
0.826808563940545

> <r_i_glide_esite>
-0.0528876751178567

> <r_i_glide_emodel>
-64.2144819138857

> <r_i_glide_energy>
-45.3108568191528

> <r_i_glide_einternal>
6.103346824646

> <i_i_glide_confnum>
35

> <i_i_glide_posenum>
8

> <r_i_glide_eff_state_penalty>
0

> <s_user_duplicate_titles>
CHEMBL286_lig2451

> <i_f3d_flags>
1

> <s_m_subgroup_title>
dock_pv

> <s_m_subgroupid>
dock_pv

> <b_m_subgroup_collapsed>
1

$$$$
CHEMBL286_lig1565
                    3D
 Schrodinger Suite 2021-1.
 70 73  0  0  1  0            999 V2000
   -6.8944  -18.6530  -11.7473 N   0  0  0  0  0  0
   -6.6795  -19.9868  -11.9927 C   0  0  0  0  0  0
   -7.9136  -18.2731  -10.8652 C   0  0  0  0  0  0
   -6.1580  -17.5269  -12.3975 C   0  0  2  0  0  0
   -4.7958  -12.7967   -8.1596 C   0  0  0  0  0  0
   -5.4690  -19.2631  -14.0210 N   0  0  2  0  0  0
  -12.1380  -11.7881   -7.3225 C   0  0  0  0  0  0
   -3.8708  -12.2135   -9.0292 C   0  0  0  0  0  0
   -7.3107  -20.9007  -11.4534 O   0  0  0  0  0  0
   -5.0455  -14.1685   -8.2254 C   0  0  0  0  0  0
  -10.8332  -11.9878   -7.8068 C   0  0  0  0  0  0
   -9.0278  -17.5894  -11.3550 C   0  0  0  0  0  0
   -7.7883  -18.5638   -9.5055 C   0  0  0  0  0  0
   -3.1965  -13.0044   -9.9603 C   0  0  0  0  0  0
   -5.5699  -20.3152  -13.0144 C   0  0  0  0  0  0
   -5.4574  -12.0350   -7.2576 F   0  0  0  0  0  0
   -4.3760  -14.9672   -9.1602 C   0  0  0  0  0  0
   -3.6272  -10.8842   -8.9754 F   0  0  0  0  0  0
   -5.1109  -17.9895  -13.4373 C   0  0  0  0  0  0
   -9.9210  -17.5194   -9.1135 C   0  0  0  0  0  0
   -4.6491  -17.0048  -10.5409 O   0  0  0  0  0  0
   -3.4435  -14.3761  -10.0218 C   0  0  0  0  0  0
   -8.7967  -18.1857   -8.6358 C   0  0  0  0  0  0
  -10.0325  -17.2077  -10.4762 C   0  0  0  0  0  0
  -10.5547  -13.1915   -8.4280 O   0  0  0  0  0  0
   -5.5940  -16.4427  -11.4515 C   0  0  0  0  0  0
  -12.8981  -16.4041   -7.2960 C   0  0  0  0  0  0
  -10.8768  -17.2401   -8.1719 O   0  0  0  0  0  0
  -13.2305  -12.8243   -7.5523 C   0  0  0  0  0  0
  -12.8634  -14.0488   -6.9326 O   0  0  0  0  0  0
  -12.4507  -10.6146   -6.6321 C   0  0  0  0  0  0
   -4.6568  -16.4694   -9.2141 C   0  0  0  0  0  0
  -12.0096  -16.4671   -8.5363 C   0  0  0  0  0  0
  -13.7336  -15.1377   -7.2095 C   0  0  0  0  0  0
   -9.8785  -10.9726   -7.6206 C   0  0  0  0  0  0
   -9.2215  -13.4997   -8.8220 C   0  0  0  0  0  0
  -11.4848   -9.6347   -6.4208 C   0  0  0  0  0  0
  -10.2042   -9.8068   -6.9299 C   0  0  0  0  0  0
   -6.9331  -17.0326  -12.9867 H   0  0  0  0  0  0
   -6.2879  -19.1544  -14.6223 H   0  0  0  0  0  0
   -5.7629  -14.6069   -7.5465 H   0  0  0  0  0  0
   -9.1220  -17.3679  -12.4111 H   0  0  0  0  0  0
   -6.9201  -19.0864   -9.1321 H   0  0  0  0  0  0
   -2.4827  -12.5553  -10.6355 H   0  0  0  0  0  0
   -4.6301  -20.4335  -12.4709 H   0  0  0  0  0  0
   -5.7962  -21.2680  -13.4958 H   0  0  0  0  0  0
   -4.1262  -18.0727  -12.9734 H   0  0  0  0  0  0
   -5.0383  -17.2620  -14.2408 H   0  0  0  0  0  0
   -2.9133  -14.9794  -10.7460 H   0  0  0  0  0  0
   -8.7187  -18.4216   -7.5862 H   0  0  0  0  0  0
  -10.8909  -16.6899  -10.8742 H   0  0  0  0  0  0
   -5.1169  -15.6461  -12.0244 H   0  0  0  0  0  0
   -6.4264  -15.9757  -10.9214 H   0  0  0  0  0  0
  -12.2685  -16.4640   -6.4144 H   0  0  0  0  0  0
  -13.5637  -17.2627   -7.2731 H   0  0  0  0  0  0
  -14.1884  -12.4787   -7.1579 H   0  0  0  0  0  0
  -13.3436  -12.9555   -8.6307 H   0  0  0  0  0  0
  -13.4510  -10.4533   -6.2561 H   0  0  0  0  0  0
   -5.6137  -16.7032   -8.7414 H   0  0  0  0  0  0
   -3.8932  -16.9845   -8.6300 H   0  0  0  0  0  0
  -12.5654  -16.9141   -9.3622 H   0  0  0  0  0  0
  -11.6848  -15.4717   -8.8451 H   0  0  0  0  0  0
  -14.4732  -15.2628   -6.4206 H   0  0  0  0  0  0
  -14.2688  -15.0163   -8.1436 H   0  0  0  0  0  0
   -8.8690  -11.0790   -7.9878 H   0  0  0  0  0  0
   -9.1869  -14.5301   -9.1735 H   0  0  0  0  0  0
   -8.8862  -12.8676   -9.6427 H   0  0  0  0  0  0
   -8.5115  -13.4118   -8.0003 H   0  0  0  0  0  0
  -11.7397   -8.7288   -5.8919 H   0  0  0  0  0  0
   -9.4690   -9.0325   -6.7847 H   0  0  0  0  0  0
  1  2  1  0  0  0
  1  3  1  0  0  0
  1  4  1  0  0  0
  2  9  2  0  0  0
  2 15  1  0  0  0
  3 12  2  0  0  0
  3 13  1  0  0  0
  4 19  1  0  0  0
  4 26  1  0  0  0
  4 39  1  0  0  0
  5 10  1  0  0  0
  5 16  1  0  0  0
  5  8  2  0  0  0
  6 19  1  0  0  0
  6 15  1  0  0  0
  6 40  1  0  0  0
  7 29  1  0  0  0
  7 11  2  0  0  0
  7 31  1  0  0  0
  8 14  1  0  0  0
  8 18  1  0  0  0
 10 17  2  0  0  0
 10 41  1  0  0  0
 11 25  1  0  0  0
 11 35  1  0  0  0
 12 24  1  0  0  0
 12 42  1  0  0  0
 13 23  2  0  0  0
 13 43  1  0  0  0
 14 22  2  0  0  0
 14 44  1  0  0  0
 15 45  1  0  0  0
 15 46  1  0  0  0
 17 32  1  0  0  0
 17 22  1  0  0  0
 19 47  1  0  0  0
 19 48  1  0  0  0
 20 23  1  0  0  0
 20 28  1  0  0  0
 20 24  2  0  0  0
 21 26  1  0  0  0
 21 32  1  0  0  0
 22 49  1  0  0  0
 23 50  1  0  0  0
 24 51  1  0  0  0
 25 36  1  0  0  0
 26 52  1  0  0  0
 26 53  1  0  0  0
 27 33  1  0  0  0
 27 34  1  0  0  0
 27 54  1  0  0  0
 27 55  1  0  0  0
 28 33  1  0  0  0
 29 30  1  0  0  0
 29 56  1  0  0  0
 29 57  1  0  0  0
 30 34  1  0  0  0
 31 37  2  0  0  0
 31 58  1  0  0  0
 32 59  1  0  0  0
 32 60  1  0  0  0
 33 61  1  0  0  0
 33 62  1  0  0  0
 34 63  1  0  0  0
 34 64  1  0  0  0
 35 38  2  0  0  0
 35 65  1  0  0  0
 36 66  1  0  0  0
 36 67  1  0  0  0
 36 68  1  0  0  0
 37 38  1  0  0  0
 37 69  1  0  0  0
 38 70  1  0  0  0
M  END
> <s_m_entry_id>
26325

> <s_m_entry_name>
dock_pv.149

> <s_m_Source_Path>
/home/csk/Desktop/cluster/DUD-E-result/reni

> <s_m_Source_File>
dock_pv.maegz

> <i_m_Source_File_Index>
149

> <chembl_id>
CHEMBL197198

> <chembl_pref_name>
None

> <i_lp_mmshare_version>
53161

> <r_lp_tautomer_probability>
1

> <s_lp_Force_Field>
OPLS_2005

> <r_lp_Energy>
57.302325

> <b_lp_Chiralities_Consistent>
1

> <s_lp_Variant>
CHEMBL286_lig1565-1

> <s_i_glide_gridfile>
glide-grid_3g6z

> <i_i_glide_lignum>
5269

> <i_i_glide_rotatable_bonds>
13

> <r_i_docking_score>
-7.49193993077558

> <r_i_glide_ligand_efficiency>
-0.197156313967778

> <r_i_glide_ligand_efficiency_sa>
-0.6628346780511

> <r_i_glide_ligand_efficiency_ln>
-1.61548263961906

> <r_i_glide_gscore>
-7.49193993077558

> <r_i_glide_lipo>
-3.90009593736913

> <r_i_glide_hbond>
-0.344607228742292

> <r_i_glide_metal>
0

> <r_i_glide_rewards>
-0.299740772806783

> <r_i_glide_evdw>
-43.5032653808594

> <r_i_glide_ecoul>
-10.2747678756714

> <r_i_glide_erotb>
0.816828067480555

> <r_i_glide_esite>
-0.0479456089442606

> <r_i_glide_emodel>
-75.2688713485782

> <r_i_glide_energy>
-53.7780332565308

> <r_i_glide_einternal>
8.22549915313721

> <i_i_glide_confnum>
53

> <i_i_glide_posenum>
333

> <r_i_glide_eff_state_penalty>
0

> <s_user_duplicate_titles>
CHEMBL286_lig1565,326760

> <i_f3d_flags>
0

> <s_m_subgroup_title>
dock_pv

> <s_m_subgroupid>
dock_pv

> <b_m_subgroup_collapsed>
1

$$$$
CHEMBL286_lig2907
                    3D
 Schrodinger Suite 2021-1.
 76 79  0  0  1  0            999 V2000
   -5.0507  -16.1936   -9.5587 C   0  0  0  0  0  0
   -4.4630  -17.1526  -10.3318 N   0  0  0  0  0  0
   -5.1315  -14.7252  -10.0505 C   0  0  0  0  0  0
   -5.5571  -16.4623   -8.4676 O   0  0  0  0  0  0
   -4.3297  -18.5473   -9.8556 C   0  0  0  0  0  0
   -5.1410  -19.6119  -10.6296 C   0  0  0  0  0  0
   -6.5918  -19.4355  -10.5819 N   0  0  0  0  0  0
   -7.1165  -19.5425   -9.2224 C   0  0  0  0  0  0
   -8.6290  -19.8273   -9.1825 C   0  0  0  0  0  0
   -9.4686  -18.8284   -9.8650 N   0  0  0  0  0  0
   -9.7928  -17.6599   -9.2456 C   0  0  0  0  0  0
  -10.6950  -16.6367   -9.9729 C   0  0  0  0  0  0
   -9.3744  -17.3861   -8.1161 O   0  0  0  0  0  0
  -11.3949  -15.6586   -9.0316 C   0  0  0  0  0  0
  -10.8551  -14.3868   -8.8195 C   0  0  0  0  0  0
  -11.4963  -13.4905   -7.9671 C   0  0  0  0  0  0
  -12.6655  -13.8748   -7.3121 C   0  0  0  0  0  0
  -13.1978  -15.1480   -7.5036 C   0  0  0  0  0  0
  -12.5624  -16.0412   -8.3626 C   0  0  0  0  0  0
   -5.1168  -13.6952   -8.9189 C   0  0  0  0  0  0
   -3.9276  -13.0334   -8.5934 C   0  0  0  0  0  0
   -3.9077  -12.1070   -7.5530 C   0  0  0  0  0  0
   -5.0737  -11.8459   -6.8353 C   0  0  0  0  0  0
   -6.2603  -12.5022   -7.1540 C   0  0  0  0  0  0
   -6.2824  -13.4324   -8.1898 C   0  0  0  0  0  0
   -3.7606  -16.8957  -11.6023 C   0  0  0  0  0  0
   -2.2406  -16.8770  -11.4578 C   0  0  0  0  0  0
   -9.9266  -19.2281  -11.2047 C   0  0  0  0  0  0
  -10.9830  -20.3311  -11.2209 C   0  0  0  0  0  0
   -1.5098  -18.0580  -11.6264 C   0  0  0  0  0  0
   -0.1218  -18.0425  -11.5147 C   0  0  0  0  0  0
    0.5330  -16.8452  -11.2319 C   0  0  0  0  0  0
   -0.1883  -15.6630  -11.0713 C   0  0  0  0  0  0
   -1.5741  -15.6759  -11.1982 C   0  0  0  0  0  0
  -12.3408  -19.9965  -11.2210 C   0  0  0  0  0  0
  -13.3058  -20.9844  -11.4109 C   0  0  0  0  0  0
  -12.9085  -22.3035  -11.6211 C   0  0  0  0  0  0
  -11.5590  -22.6478  -11.6129 C   0  0  0  0  0  0
  -10.5964  -21.6614  -11.4154 C   0  0  0  0  0  0
   -6.0605  -14.6159  -10.6105 H   0  0  0  0  0  0
   -4.3209  -14.4809  -10.7302 H   0  0  0  0  0  0
   -3.2759  -18.8251   -9.8495 H   0  0  0  0  0  0
   -4.6234  -18.6188   -8.8155 H   0  0  0  0  0  0
   -4.8707  -19.5647  -11.6839 H   0  0  0  0  0  0
   -4.8682  -20.6154  -10.2994 H   0  0  0  0  0  0
   -7.0606  -20.0726  -11.2102 H   0  0  0  0  0  0
   -6.5883  -20.3014   -8.6392 H   0  0  0  0  0  0
   -6.9502  -18.5735   -8.7575 H   0  0  0  0  0  0
   -8.8014  -20.8134   -9.6124 H   0  0  0  0  0  0
   -8.9453  -19.9168   -8.1423 H   0  0  0  0  0  0
  -10.0667  -16.0802  -10.6679 H   0  0  0  0  0  0
  -11.4664  -17.1344  -10.5555 H   0  0  0  0  0  0
   -9.9311  -14.0915   -9.2957 H   0  0  0  0  0  0
  -11.0852  -12.5050   -7.8055 H   0  0  0  0  0  0
  -13.1575  -13.1830   -6.6445 H   0  0  0  0  0  0
  -14.1018  -15.4425   -6.9900 H   0  0  0  0  0  0
  -12.9825  -17.0252   -8.5164 H   0  0  0  0  0  0
   -3.0199  -13.2397   -9.1422 H   0  0  0  0  0  0
   -2.9898  -11.5978   -7.2992 H   0  0  0  0  0  0
   -5.0535  -11.1343   -6.0214 H   0  0  0  0  0  0
   -7.1554  -12.3011   -6.5873 H   0  0  0  0  0  0
   -7.2004  -13.9552   -8.4202 H   0  0  0  0  0  0
   -4.0281  -17.6701  -12.3216 H   0  0  0  0  0  0
   -4.0891  -15.9769  -12.0839 H   0  0  0  0  0  0
  -10.2903  -18.3852  -11.7925 H   0  0  0  0  0  0
   -9.0619  -19.5738  -11.7709 H   0  0  0  0  0  0
   -2.0161  -18.9879  -11.8432 H   0  0  0  0  0  0
    0.4416  -18.9564  -11.6415 H   0  0  0  0  0  0
    1.6091  -16.8349  -11.1330 H   0  0  0  0  0  0
    0.3253  -14.7373  -10.8508 H   0  0  0  0  0  0
   -2.1217  -14.7530  -11.0844 H   0  0  0  0  0  0
  -12.6430  -18.9660  -11.1094 H   0  0  0  0  0  0
  -14.3572  -20.7343  -11.4304 H   0  0  0  0  0  0
  -13.6556  -23.0647  -11.7892 H   0  0  0  0  0  0
  -11.2578  -23.6720  -11.7886 H   0  0  0  0  0  0
   -9.5492  -21.9279  -11.4622 H   0  0  0  0  0  0
  1  3  1  0  0  0
  1  2  1  0  0  0
  1  4  2  0  0  0
  2 26  1  0  0  0
  2  5  1  0  0  0
  3 20  1  0  0  0
  3 40  1  0  0  0
  3 41  1  0  0  0
  5  6  1  0  0  0
  5 42  1  0  0  0
  5 43  1  0  0  0
  6  7  1  0  0  0
  6 44  1  0  0  0
  6 45  1  0  0  0
  7  8  1  0  0  0
  7 46  1  0  0  0
  8  9  1  0  0  0
  8 47  1  0  0  0
  8 48  1  0  0  0
  9 10  1  0  0  0
  9 49  1  0  0  0
  9 50  1  0  0  0
 10 11  1  0  0  0
 10 28  1  0  0  0
 11 12  1  0  0  0
 11 13  2  0  0  0
 12 14  1  0  0  0
 12 51  1  0  0  0
 12 52  1  0  0  0
 14 15  2  0  0  0
 14 19  1  0  0  0
 15 16  1  0  0  0
 15 53  1  0  0  0
 16 17  2  0  0  0
 16 54  1  0  0  0
 17 18  1  0  0  0
 17 55  1  0  0  0
 18 19  2  0  0  0
 18 56  1  0  0  0
 19 57  1  0  0  0
 20 21  2  0  0  0
 20 25  1  0  0  0
 21 22  1  0  0  0
 21 58  1  0  0  0
 22 23  2  0  0  0
 22 59  1  0  0  0
 23 24  1  0  0  0
 23 60  1  0  0  0
 24 25  2  0  0  0
 24 61  1  0  0  0
 25 62  1  0  0  0
 26 27  1  0  0  0
 26 63  1  0  0  0
 26 64  1  0  0  0
 27 30  2  0  0  0
 27 34  1  0  0  0
 28 29  1  0  0  0
 28 65  1  0  0  0
 28 66  1  0  0  0
 29 35  2  0  0  0
 29 39  1  0  0  0
 30 31  1  0  0  0
 30 67  1  0  0  0
 31 32  2  0  0  0
 31 68  1  0  0  0
 32 33  1  0  0  0
 32 69  1  0  0  0
 33 34  2  0  0  0
 33 70  1  0  0  0
 34 71  1  0  0  0
 35 36  1  0  0  0
 35 72  1  0  0  0
 36 37  2  0  0  0
 36 73  1  0  0  0
 37 38  1  0  0  0
 37 74  1  0  0  0
 38 39  2  0  0  0
 38 75  1  0  0  0
 39 76  1  0  0  0
M  END
> <s_m_entry_id>
26327

> <s_m_entry_name>
dock_pv.151

> <s_m_Source_Path>
/home/csk/Desktop/cluster/DUD-E-result/reni

> <s_m_Source_File>
dock_pv.maegz

> <i_m_Source_File_Index>
151

> <chembl_id>
CHEMBL489368

> <chembl_pref_name>
None

> <i_lp_mmshare_version>
53161

> <r_lp_tautomer_probability>
1

> <s_lp_Force_Field>
OPLS_2005

> <r_lp_Energy>
39.543141

> <b_lp_Chiralities_Consistent>
1

> <s_lp_Variant>
CHEMBL286_lig2907-1

> <s_i_glide_gridfile>
glide-grid_3g6z

> <i_i_glide_lignum>
7115

> <i_i_glide_rotatable_bonds>
16

> <r_i_docking_score>
-7.48351450784508

> <r_i_glide_ligand_efficiency>
-0.191884987380643

> <r_i_glide_ligand_efficiency_sa>
-0.650722564153212

> <r_i_glide_ligand_efficiency_ln>
-1.60467794267408

> <r_i_glide_gscore>
-7.48351450784508

> <r_i_glide_lipo>
-4.67575602108057

> <r_i_glide_hbond>
0

> <r_i_glide_metal>
0

> <r_i_glide_rewards>
-0.934482799442707

> <r_i_glide_evdw>
-49.4850311279297

> <r_i_glide_ecoul>
-2.07985925674438

> <r_i_glide_erotb>
0.912954757586338

> <r_i_glide_esite>
0

> <r_i_glide_emodel>
-71.2531621972961

> <r_i_glide_energy>
-51.5648903846741

> <r_i_glide_einternal>
5.47763776779175

> <i_i_glide_confnum>
40

> <i_i_glide_posenum>
363

> <r_i_glide_eff_state_penalty>
0

> <s_user_duplicate_titles>
CHEMBL286_lig2907

> <i_f3d_flags>
0

> <s_m_subgroup_title>
dock_pv

> <s_m_subgroupid>
dock_pv

> <b_m_subgroup_collapsed>
1

$$$$
CHEMBL286_lig508
                    3D
 Schrodinger Suite 2021-1.
 97101  0  0  1  0            999 V2000
  -10.8074  -20.4662  -10.9762 C   0  0  0  0  0  0
   -6.6514  -17.8114  -10.4958 C   0  0  0  0  0  0
   -5.3254  -15.4750   -8.7928 C   0  0  0  0  0  0
   -9.4667  -19.7805  -10.6425 C   0  0  0  0  0  0
   -5.4264  -15.6549  -10.1022 N   0  0  0  0  0  0
   -6.3251  -19.0299  -10.0488 N   0  0  0  0  0  0
   -5.4712  -16.8952  -10.8660 C   0  0  2  0  0  0
   -5.8562  -13.9317  -12.3356 N   0  0  0  0  0  0
   -5.3287  -14.0043   -8.3174 C   0  0  0  0  0  0
   -6.2884  -15.2059  -12.6640 C   0  0  0  0  0  0
   -7.1676  -20.0470   -9.4033 C   0  0  1  0  0  0
   -8.0162  -13.6580   -8.2970 C   0  0  0  0  0  0
   -2.7911  -13.4436   -8.1740 C   0  0  0  0  0  0
   -5.4590  -16.4426  -12.3377 C   0  0  0  0  0  0
   -4.0877  -13.7227   -7.4147 C   0  0  0  0  0  0
   -6.6387  -13.5794   -7.5785 C   0  0  0  0  0  0
   -7.8646  -13.6638  -13.2066 N   0  0  0  0  0  0
   -8.2830  -20.7120  -10.2758 C   0  0  2  0  0  0
   -6.8371  -13.0830  -12.6055 C   0  0  0  0  0  0
  -11.9038  -19.6673  -11.1471 N   0  0  0  0  0  0
   -1.8688  -14.4853   -8.5269 C   0  0  0  0  0  0
   -9.0100  -12.6302   -8.1024 C   0  0  0  0  0  0
   -7.5151  -15.0052  -13.2610 C   0  0  0  0  0  0
  -10.8522  -21.6953  -11.0720 O   0  0  0  0  0  0
   -5.2692  -16.4231   -8.0194 O   0  0  0  0  0  0
   -7.7946  -17.3863  -10.5898 O   0  0  0  0  0  0
   -6.2881  -21.1222   -8.6808 C   0  0  0  0  0  0
   -0.6953  -14.1356   -9.2681 C   0  0  0  0  0  0
  -10.3822  -12.9400   -8.4018 C   0  0  0  0  0  0
   -7.7457  -21.2658  -11.4627 O   0  0  0  0  0  0
  -13.0757  -20.2053  -11.7151 O   0  0  0  0  0  0
   -8.4318  -14.8862   -8.8217 C   0  0  0  0  0  0
   -2.5124  -12.1227   -8.5343 C   0  0  0  0  0  0
   -9.7595  -15.1808   -9.0816 C   0  0  0  0  0  0
   -1.3626  -11.7912   -9.2341 C   0  0  0  0  0  0
   -4.8472  -21.3917   -9.2177 C   0  0  0  0  0  0
  -11.9168  -18.2000  -11.1588 C   0  0  0  0  0  0
   -8.7378  -11.3038   -7.6209 C   0  0  0  0  0  0
   -2.0533  -15.8580   -8.1997 C   0  0  0  0  0  0
   -0.4580  -12.7787   -9.5952 C   0  0  0  0  0  0
  -10.7371  -14.2402   -8.8201 C   0  0  0  0  0  0
    0.2159  -15.1485   -9.6663 C   0  0  0  0  0  0
  -11.3882  -11.9670   -8.2175 C   0  0  0  0  0  0
  -13.8183  -21.0290  -10.8408 C   0  0  0  0  0  0
   -4.3358  -22.7781   -8.7753 C   0  0  0  0  0  0
   -3.8385  -20.2820   -8.8212 C   0  0  0  0  0  0
   -1.1435  -16.8340   -8.6039 C   0  0  0  0  0  0
   -9.7598  -10.3671   -7.4678 C   0  0  0  0  0  0
  -11.0714  -10.7015   -7.7523 C   0  0  0  0  0  0
   -0.0227  -16.4815   -9.3391 C   0  0  0  0  0  0
   -9.6379  -19.0960   -9.8102 H   0  0  0  0  0  0
   -9.1882  -19.1756  -11.5066 H   0  0  0  0  0  0
   -5.6660  -14.8585  -10.6673 H   0  0  0  0  0  0
   -5.3437  -19.2471  -10.0321 H   0  0  0  0  0  0
   -4.5504  -17.4414  -10.6487 H   0  0  0  0  0  0
   -5.2659  -13.3402   -9.1809 H   0  0  0  0  0  0
   -7.6880  -19.5168   -8.6056 H   0  0  0  0  0  0
   -4.4082  -16.1764  -12.4371 H   0  0  0  0  0  0
   -5.6853  -17.2584  -13.0298 H   0  0  0  0  0  0
   -3.9434  -14.5041   -6.6718 H   0  0  0  0  0  0
   -4.2759  -12.8428   -6.7974 H   0  0  0  0  0  0
   -6.7249  -14.1897   -6.6783 H   0  0  0  0  0  0
   -6.4736  -12.5697   -7.2136 H   0  0  0  0  0  0
   -4.9393  -13.6805  -12.0019 H   0  0  0  0  0  0
   -8.6926  -21.5387   -9.6988 H   0  0  0  0  0  0
   -6.7527  -12.0263  -12.4237 H   0  0  0  0  0  0
   -8.1972  -15.6626  -13.7628 H   0  0  0  0  0  0
   -6.2073  -20.8642   -7.6220 H   0  0  0  0  0  0
   -6.8399  -22.0607   -8.6475 H   0  0  0  0  0  0
   -6.9881  -21.8166  -11.2482 H   0  0  0  0  0  0
   -7.7757  -15.7259   -8.8691 H   0  0  0  0  0  0
   -3.2056  -11.3374   -8.2691 H   0  0  0  0  0  0
  -10.0299  -16.1685   -9.4226 H   0  0  0  0  0  0
   -1.1681  -10.7597   -9.4936 H   0  0  0  0  0  0
   -4.9011  -21.4302  -10.3075 H   0  0  0  0  0  0
  -12.1763  -17.8262  -10.1624 H   0  0  0  0  0  0
  -10.9588  -17.7567  -11.4447 H   0  0  0  0  0  0
  -12.6597  -17.7990  -11.8547 H   0  0  0  0  0  0
   -7.7346  -10.9891   -7.3945 H   0  0  0  0  0  0
   -2.8945  -16.1717   -7.6131 H   0  0  0  0  0  0
    0.4395  -12.5126  -10.1416 H   0  0  0  0  0  0
  -11.7747  -14.4663   -9.0010 H   0  0  0  0  0  0
    1.0971  -14.8812  -10.2320 H   0  0  0  0  0  0
  -12.4177  -12.2181   -8.4182 H   0  0  0  0  0  0
  -14.6308  -21.4664  -11.4071 H   0  0  0  0  0  0
  -13.2383  -21.8462  -10.4242 H   0  0  0  0  0  0
  -14.2648  -20.4619  -10.0281 H   0  0  0  0  0  0
   -4.2882  -22.8464   -7.6870 H   0  0  0  0  0  0
   -4.9807  -23.5865   -9.1279 H   0  0  0  0  0  0
   -3.3390  -22.9677   -9.1727 H   0  0  0  0  0  0
   -4.2295  -19.6518   -8.0223 H   0  0  0  0  0  0
   -2.8998  -20.6864   -8.4364 H   0  0  0  0  0  0
   -3.5828  -19.6288   -9.6612 H   0  0  0  0  0  0
   -1.3140  -17.8656   -8.3379 H   0  0  0  0  0  0
   -9.5279   -9.3653   -7.1273 H   0  0  0  0  0  0
  -11.8652   -9.9876   -7.6041 H   0  0  0  0  0  0
    0.6737  -17.2476   -9.6578 H   0  0  0  0  0  0
  1  4  1  0  0  0
  1 20  1  0  0  0
  1 24  2  0  0  0
  2  6  1  0  0  0
  2  7  1  0  0  0
  2 26  2  0  0  0
  3  5  1  0  0  0
  3  9  1  0  0  0
  3 25  2  0  0  0
  4 18  1  0  0  0
  4 51  1  0  0  0
  4 52  1  0  0  0
  5  7  1  0  0  0
  5 53  1  0  0  0
  6 11  1  0  0  0
  6 54  1  0  0  0
  7 14  1  0  0  0
  7 55  1  0  0  0
  8 10  1  0  0  0
  8 64  1  0  0  0
  8 19  1  0  0  0
  9 15  1  0  0  0
  9 16  1  0  0  0
  9 56  1  0  0  0
 10 23  2  0  0  0
 10 14  1  0  0  0
 11 18  1  0  0  0
 11 27  1  0  0  0
 11 57  1  0  0  0
 12 16  1  0  0  0
 12 22  1  0  0  0
 12 32  2  0  0  0
 13 15  1  0  0  0
 13 21  1  0  0  0
 13 33  2  0  0  0
 14 58  1  0  0  0
 14 59  1  0  0  0
 15 60  1  0  0  0
 15 61  1  0  0  0
 16 62  1  0  0  0
 16 63  1  0  0  0
 17 19  2  0  0  0
 17 23  1  0  0  0
 18 30  1  0  0  0
 18 65  1  0  0  0
 19 66  1  0  0  0
 20 31  1  0  0  0
 20 37  1  0  0  0
 21 28  2  0  0  0
 21 39  1  0  0  0
 22 29  2  0  0  0
 22 38  1  0  0  0
 23 67  1  0  0  0
 27 36  1  0  0  0
 27 68  1  0  0  0
 27 69  1  0  0  0
 28 42  1  0  0  0
 28 40  1  0  0  0
 29 43  1  0  0  0
 29 41  1  0  0  0
 30 70  1  0  0  0
 31 44  1  0  0  0
 32 34  1  0  0  0
 32 71  1  0  0  0
 33 35  1  0  0  0
 33 72  1  0  0  0
 34 41  2  0  0  0
 34 73  1  0  0  0
 35 40  2  0  0  0
 35 74  1  0  0  0
 36 45  1  0  0  0
 36 46  1  0  0  0
 36 75  1  0  0  0
 37 76  1  0  0  0
 37 77  1  0  0  0
 37 78  1  0  0  0
 38 48  2  0  0  0
 38 79  1  0  0  0
 39 47  2  0  0  0
 39 80  1  0  0  0
 40 81  1  0  0  0
 41 82  1  0  0  0
 42 50  2  0  0  0
 42 83  1  0  0  0
 43 49  2  0  0  0
 43 84  1  0  0  0
 44 85  1  0  0  0
 44 86  1  0  0  0
 44 87  1  0  0  0
 45 88  1  0  0  0
 45 89  1  0  0  0
 45 90  1  0  0  0
 46 91  1  0  0  0
 46 92  1  0  0  0
 46 93  1  0  0  0
 47 50  1  0  0  0
 47 94  1  0  0  0
 48 49  1  0  0  0
 48 95  1  0  0  0
 49 96  1  0  0  0
 50 97  1  0  0  0
M  END
> <s_m_entry_id>
26328

> <s_m_entry_name>
dock_pv.152

> <s_m_Source_Path>
/home/csk/Desktop/cluster/DUD-E-result/reni

> <s_m_Source_File>
dock_pv.maegz

> <i_m_Source_File_Index>
152

> <chembl_id>
CHEMBL127776

> <chembl_pref_name>
None

> <i_lp_mmshare_version>
53161

> <r_lp_tautomer_probability>
0.499999999999999

> <s_lp_Force_Field>
OPLS_2005

> <r_lp_Energy>
30.466265

> <b_lp_Chiralities_Consistent>
1

> <s_lp_Variant>
CHEMBL286_lig508-16

> <s_i_glide_gridfile>
glide-grid_3g6z

> <i_i_glide_lignum>
1200

> <i_i_glide_rotatable_bonds>
20

> <r_i_docking_score>
-7.48221927769716

> <r_i_glide_ligand_efficiency>
-0.149644385553943

> <r_i_glide_ligand_efficiency_sa>
-0.551294629256521

> <r_i_glide_ligand_efficiency_ln>
-1.52324597613422

> <r_i_glide_gscore>
-7.48221927769716

> <r_i_glide_lipo>
-3.80443516067886

> <r_i_glide_hbond>
-0.275871858436744

> <r_i_glide_metal>
0

> <r_i_glide_rewards>
-1.44119715600582

> <r_i_glide_evdw>
-39.0363235473633

> <r_i_glide_ecoul>
-3.22402215003967

> <r_i_glide_erotb>
0.485287505141825

> <r_i_glide_esite>
-0.0105831078434422

> <r_i_glide_emodel>
-27.3704106214237

> <r_i_glide_energy>
-42.260345697403

> <r_i_glide_einternal>
41.3055267333984

> <i_i_glide_confnum>
31

> <i_i_glide_posenum>
148

> <r_i_glide_eff_state_penalty>
0

> <s_user_duplicate_titles>
CHEMBL286_lig508

> <i_f3d_flags>
0

> <s_m_subgroup_title>
dock_pv

> <s_m_subgroupid>
dock_pv

> <b_m_subgroup_collapsed>
1

$$$$
CHEMBL286_lig2822
                    3D
 Schrodinger Suite 2021-1.
 82 85  0  0  1  0            999 V2000
   -5.8349  -18.0163  -13.2232 C   0  0  0  0  0  0
   -5.7623  -19.2474  -14.0208 N   0  0  1  0  0  0
   -6.0776  -20.4221  -13.2211 C   0  0  0  0  0  0
   -4.9671  -20.5719  -12.1541 C   0  0  1  0  0  0
   -5.0651  -19.4506  -11.1011 C   0  0  0  0  0  0
   -5.2430  -18.0520  -11.7690 C   0  0  2  0  0  0
   -5.7211  -16.9638  -10.8670 N   0  0  0  0  0  0
   -4.8809  -22.0046  -11.5624 C   0  0  0  0  0  0
   -5.8515  -22.7552  -11.7047 O   0  0  0  0  0  0
   -3.7211  -22.4498  -11.0028 N   0  0  0  0  0  0
   -7.0505  -16.9365  -10.5091 C   0  0  0  0  0  0
   -4.6801  -15.9915  -10.4500 C   0  0  0  0  0  0
   -3.3630  -16.5479   -9.8472 C   0  0  0  0  0  0
   -3.5989  -17.1837   -8.4673 C   0  0  0  0  0  0
   -2.3163  -15.4230   -9.7412 C   0  0  0  0  0  0
   -7.7592  -17.9200  -10.7240 O   0  0  0  0  0  0
   -3.6540  -23.7980  -10.4106 C   0  0  0  0  0  0
   -3.6973  -23.6126   -8.8770 C   0  0  0  0  0  0
   -2.6378  -22.7524   -8.4518 O   0  0  0  0  0  0
   -2.6894  -21.4549   -9.0458 C   0  0  0  0  0  0
   -2.6097  -21.5757  -10.5860 C   0  0  0  0  0  0
   -9.8690  -16.7908   -9.1635 C   0  0  0  0  0  0
  -10.7094  -17.0060  -10.4494 C   0  0  0  0  0  0
  -11.6179  -18.2379  -10.3669 C   0  0  0  0  0  0
  -12.2606  -18.6052  -11.7145 C   0  0  0  0  0  0
  -13.2131  -19.6633  -11.6210 O   0  0  0  0  0  0
  -12.6919  -20.9477  -11.2949 C   0  0  0  0  0  0
   -7.6771  -15.7284   -9.9236 C   0  0  0  0  0  0
   -8.9589  -15.6537   -9.3367 N   0  0  0  0  0  0
   -9.2665  -14.3245   -8.9975 C   0  0  0  0  0  0
   -8.1242  -13.6090   -9.3154 C   0  0  0  0  0  0
   -7.2344  -14.4144   -9.9889 C   0  0  0  0  0  0
  -10.5601  -13.7245   -8.4316 C   0  0  0  0  0  0
  -11.8087  -14.3718   -8.3924 C   0  0  0  0  0  0
  -12.9468  -13.7251   -7.9159 C   0  0  0  0  0  0
  -12.8697  -12.4029   -7.4983 C   0  0  0  0  0  0
  -11.6579  -11.7263   -7.5513 C   0  0  0  0  0  0
  -10.5204  -12.3837   -8.0123 C   0  0  0  0  0  0
   -6.8866  -17.7332  -13.1889 H   0  0  0  0  0  0
   -5.3288  -17.2407  -13.7990 H   0  0  0  0  0  0
   -6.4277  -19.1030  -14.7822 H   0  0  0  0  0  0
   -6.1752  -21.3082  -13.8503 H   0  0  0  0  0  0
   -7.0503  -20.2747  -12.7477 H   0  0  0  0  0  0
   -4.0205  -20.4990  -12.6926 H   0  0  0  0  0  0
   -5.9674  -19.6481  -10.5234 H   0  0  0  0  0  0
   -4.1741  -19.3980  -10.4822 H   0  0  0  0  0  0
   -4.2364  -17.7353  -12.0380 H   0  0  0  0  0  0
   -4.4560  -15.3644  -11.3148 H   0  0  0  0  0  0
   -5.0527  -15.3315   -9.6733 H   0  0  0  0  0  0
   -2.9277  -17.3010  -10.5027 H   0  0  0  0  0  0
   -4.0460  -16.4628   -7.7794 H   0  0  0  0  0  0
   -4.2687  -18.0393   -8.5339 H   0  0  0  0  0  0
   -2.6676  -17.5392   -8.0221 H   0  0  0  0  0  0
   -2.6479  -14.6244   -9.0757 H   0  0  0  0  0  0
   -1.3686  -15.8016   -9.3560 H   0  0  0  0  0  0
   -2.1134  -14.9781  -10.7166 H   0  0  0  0  0  0
   -2.6690  -24.1680  -10.6887 H   0  0  0  0  0  0
   -4.3532  -24.5240  -10.8293 H   0  0  0  0  0  0
   -4.6626  -23.2130   -8.5603 H   0  0  0  0  0  0
   -3.5977  -24.5796   -8.3828 H   0  0  0  0  0  0
   -3.5993  -20.9387   -8.7371 H   0  0  0  0  0  0
   -1.8685  -20.8423   -8.6732 H   0  0  0  0  0  0
   -2.4644  -20.6542  -11.1484 H   0  0  0  0  0  0
   -1.7162  -22.1504  -10.8360 H   0  0  0  0  0  0
   -9.2896  -17.6783   -8.9168 H   0  0  0  0  0  0
  -10.4626  -16.6580   -8.2625 H   0  0  0  0  0  0
  -11.3088  -16.1228  -10.6773 H   0  0  0  0  0  0
  -10.0459  -17.1154  -11.3089 H   0  0  0  0  0  0
  -11.0186  -19.0794  -10.0210 H   0  0  0  0  0  0
  -12.3903  -18.0597   -9.6208 H   0  0  0  0  0  0
  -12.7636  -17.7337  -12.1336 H   0  0  0  0  0  0
  -11.4768  -18.8626  -12.4208 H   0  0  0  0  0  0
  -13.5046  -21.6758  -11.2900 H   0  0  0  0  0  0
  -11.9500  -21.2840  -12.0189 H   0  0  0  0  0  0
  -12.2307  -20.9674  -10.3097 H   0  0  0  0  0  0
   -7.9742  -12.5506   -9.1763 H   0  0  0  0  0  0
   -6.3450  -14.0353  -10.4675 H   0  0  0  0  0  0
  -11.9643  -15.3715   -8.7463 H   0  0  0  0  0  0
  -13.8865  -14.2529   -7.8847 H   0  0  0  0  0  0
  -13.7512  -11.8965   -7.1366 H   0  0  0  0  0  0
  -11.5962  -10.6953   -7.2336 H   0  0  0  0  0  0
   -9.6012  -11.8201   -8.0213 H   0  0  0  0  0  0
  1  2  1  0  0  0
  1  6  1  0  0  0
  1 39  1  0  0  0
  1 40  1  0  0  0
  2  3  1  0  0  0
  2 41  1  0  0  0
  3  4  1  0  0  0
  3 42  1  0  0  0
  3 43  1  0  0  0
  4  5  1  0  0  0
  4  8  1  0  0  0
  4 44  1  0  0  0
  5  6  1  0  0  0
  5 45  1  0  0  0
  5 46  1  0  0  0
  6  7  1  0  0  0
  6 47  1  0  0  0
  7 11  1  0  0  0
  7 12  1  0  0  0
  8  9  2  0  0  0
  8 10  1  0  0  0
 10 17  1  0  0  0
 10 21  1  0  0  0
 11 16  2  0  0  0
 11 28  1  0  0  0
 12 13  1  0  0  0
 12 48  1  0  0  0
 12 49  1  0  0  0
 13 14  1  0  0  0
 13 15  1  0  0  0
 13 50  1  0  0  0
 14 51  1  0  0  0
 14 52  1  0  0  0
 14 53  1  0  0  0
 15 54  1  0  0  0
 15 55  1  0  0  0
 15 56  1  0  0  0
 17 18  1  0  0  0
 17 57  1  0  0  0
 17 58  1  0  0  0
 18 19  1  0  0  0
 18 59  1  0  0  0
 18 60  1  0  0  0
 19 20  1  0  0  0
 20 21  1  0  0  0
 20 61  1  0  0  0
 20 62  1  0  0  0
 21 63  1  0  0  0
 21 64  1  0  0  0
 22 29  1  0  0  0
 22 23  1  0  0  0
 22 65  1  0  0  0
 22 66  1  0  0  0
 23 24  1  0  0  0
 23 67  1  0  0  0
 23 68  1  0  0  0
 24 25  1  0  0  0
 24 69  1  0  0  0
 24 70  1  0  0  0
 25 26  1  0  0  0
 25 71  1  0  0  0
 25 72  1  0  0  0
 26 27  1  0  0  0
 27 73  1  0  0  0
 27 74  1  0  0  0
 27 75  1  0  0  0
 28 29  1  0  0  0
 28 32  2  0  0  0
 29 30  1  0  0  0
 30 31  2  0  0  0
 30 33  1  0  0  0
 31 32  1  0  0  0
 31 76  1  0  0  0
 32 77  1  0  0  0
 33 34  2  0  0  0
 33 38  1  0  0  0
 34 35  1  0  0  0
 34 78  1  0  0  0
 35 36  2  0  0  0
 35 79  1  0  0  0
 36 37  1  0  0  0
 36 80  1  0  0  0
 37 38  2  0  0  0
 37 81  1  0  0  0
 38 82  1  0  0  0
M  END
> <s_m_entry_id>
26329

> <s_m_entry_name>
dock_pv.153

> <s_m_Source_Path>
/home/csk/Desktop/cluster/DUD-E-result/reni

> <s_m_Source_File>
dock_pv.maegz

> <i_m_Source_File_Index>
153

> <chembl_id>
CHEMBL4128929

> <chembl_pref_name>
None

> <i_lp_mmshare_version>
53161

> <r_lp_tautomer_probability>
1

> <s_lp_Force_Field>
OPLS_2005

> <r_lp_Energy>
72.081391

> <b_lp_Chiralities_Consistent>
1

> <s_lp_Variant>
CHEMBL286_lig2822-1

> <s_i_glide_gridfile>
glide-grid_3g6z

> <i_i_glide_lignum>
6920

> <i_i_glide_rotatable_bonds>
13

> <r_i_docking_score>
-7.47269841560785

> <r_i_glide_ligand_efficiency>
-0.19664995830547

> <r_i_glide_ligand_efficiency_sa>
-0.661132322769389

> <r_i_glide_ligand_efficiency_ln>
-1.61133360292086

> <r_i_glide_gscore>
-7.47269841560785

> <r_i_glide_lipo>
-3.37206059186184

> <r_i_glide_hbond>
-0.675040838696622

> <r_i_glide_metal>
0

> <r_i_glide_rewards>
-0.724007102726939

> <r_i_glide_evdw>
-35.1848526000977

> <r_i_glide_ecoul>
-11.7489681243896

> <r_i_glide_erotb>
0.822212697684303

> <r_i_glide_esite>
-0.00221473134341839

> <r_i_glide_emodel>
-59.1259667684141

> <r_i_glide_energy>
-46.9338207244873

> <r_i_glide_einternal>
13.3841724395752

> <i_i_glide_confnum>
108

> <i_i_glide_posenum>
192

> <r_i_glide_eff_state_penalty>
0

> <s_user_duplicate_titles>
CHEMBL286_lig2822

> <i_f3d_flags>
0

> <s_m_subgroup_title>
dock_pv

> <s_m_subgroupid>
dock_pv

> <b_m_subgroup_collapsed>
1

$$$$
CHEMBL286_lig2048
                    3D
 Schrodinger Suite 2021-1.
 88 92  0  0  1  0            999 V2000
   -6.2367  -20.7993  -11.8058 C   0  0  0  0  0  0
   -6.1962  -19.5803  -12.7430 C   0  0  0  0  0  0
   -5.0692  -19.6910  -13.6055 O   0  0  0  0  0  0
   -5.0181  -21.1327  -11.2758 N   0  0  0  0  0  0
   -3.7650  -20.3744  -11.5613 C   0  0  1  0  0  0
   -3.8275  -19.5614  -12.9203 C   0  0  2  0  0  0
   -3.5398  -18.0757  -12.7652 C   0  0  0  0  0  0
   -3.1819  -17.4993  -11.6114 C   0  0  0  0  0  0
   -3.0231  -18.2293  -10.3661 C   0  0  0  0  0  0
   -3.2865  -19.5508  -10.3531 C   0  0  0  0  0  0
   -2.6073  -17.3931   -8.8373 S   0  0  0  0  0  0
   -3.1886  -15.6992   -9.1675 C   0  0  0  0  0  0
   -3.3893  -14.7172   -7.9892 C   0  0  2  0  0  0
   -3.9851  -13.4092   -8.3839 N   0  0  0  0  0  0
   -3.2195  -12.3308   -8.7615 C   0  0  0  0  0  0
   -1.6938  -12.3863   -8.4418 C   0  0  0  0  0  0
   -1.1708  -13.7026   -8.0498 N   0  0  1  0  0  0
   -2.0820  -14.4648   -7.2115 C   0  0  0  0  0  0
   -5.3990  -13.3385   -8.4562 C   0  0  0  0  0  0
   -6.1322  -14.0890   -9.3843 C   0  0  0  0  0  0
   -7.5221  -14.0541   -9.3728 C   0  0  0  0  0  0
   -8.2022  -13.2183   -8.4928 C   0  0  0  0  0  0
   -7.4663  -12.3990   -7.6210 C   0  0  0  0  0  0
   -6.0764  -12.4844   -7.5812 C   0  0  0  0  0  0
   -9.5796  -13.2728   -8.5710 O   0  0  0  0  0  0
  -10.4209  -12.2591   -8.0240 C   0  0  0  0  0  0
  -11.6999  -12.9142   -7.4645 C   0  0  0  0  0  0
  -12.5564  -13.6580   -8.5132 C   0  0  0  0  0  0
  -11.8715  -14.7521   -9.1143 O   0  0  0  0  0  0
  -11.8550  -15.9590   -8.3582 C   0  0  0  0  0  0
  -10.7462  -16.8747   -8.8689 C   0  0  0  0  0  0
   -9.7012  -17.2297   -8.0106 C   0  0  0  0  0  0
   -8.6747  -18.0638   -8.4400 C   0  0  0  0  0  0
   -8.6990  -18.5797   -9.7318 C   0  0  0  0  0  0
   -9.7506  -18.2619  -10.5876 C   0  0  0  0  0  0
  -10.7891  -17.4060  -10.1690 C   0  0  0  0  0  0
  -11.8656  -17.0634  -10.9632 O   0  0  0  0  0  0
  -12.0447  -17.7222  -12.2060 C   0  0  0  0  0  0
   -3.7007  -11.2922   -9.2204 O   0  0  0  0  0  0
   -4.9050  -22.3413  -10.4297 C   0  0  0  0  0  0
   -5.7255  -22.3622   -9.1160 C   0  0  0  0  0  0
   -7.2773  -21.4359  -11.6271 O   0  0  0  0  0  0
   -5.2906  -21.3301   -8.0682 C   0  0  0  0  0  0
   -3.9666  -21.6300   -7.6511 O   0  0  0  0  0  0
   -3.4714  -20.7750   -6.6325 C   0  0  0  0  0  0
   -7.1115  -19.5385  -13.3356 H   0  0  0  0  0  0
   -6.1559  -18.6667  -12.1443 H   0  0  0  0  0  0
   -3.0014  -21.1356  -11.7138 H   0  0  0  0  0  0
   -3.0629  -19.9454  -13.6007 H   0  0  0  0  0  0
   -3.6473  -17.4370  -13.6256 H   0  0  0  0  0  0
   -3.0038  -16.4377  -11.6481 H   0  0  0  0  0  0
   -3.1786  -20.0633   -9.4119 H   0  0  0  0  0  0
   -2.5369  -15.2419   -9.9174 H   0  0  0  0  0  0
   -4.1460  -15.8654   -9.6474 H   0  0  0  0  0  0
   -4.0711  -15.1868   -7.2769 H   0  0  0  0  0  0
   -1.5029  -11.6676   -7.6433 H   0  0  0  0  0  0
   -1.1503  -12.0236   -9.3154 H   0  0  0  0  0  0
   -0.8933  -14.2632   -8.8483 H   0  0  0  0  0  0
   -2.2894  -13.8820   -6.3127 H   0  0  0  0  0  0
   -1.6337  -15.4080   -6.8921 H   0  0  0  0  0  0
   -5.6646  -14.6848  -10.1479 H   0  0  0  0  0  0
   -8.0807  -14.6623  -10.0697 H   0  0  0  0  0  0
   -7.9220  -11.6999   -6.9410 H   0  0  0  0  0  0
   -5.5282  -11.8719   -6.8788 H   0  0  0  0  0  0
   -9.9668  -11.6623   -7.2410 H   0  0  0  0  0  0
  -10.6804  -11.5589   -8.8193 H   0  0  0  0  0  0
  -11.4412  -13.5893   -6.6496 H   0  0  0  0  0  0
  -12.3148  -12.1370   -7.0102 H   0  0  0  0  0  0
  -13.4980  -13.9987   -8.0733 H   0  0  0  0  0  0
  -12.8327  -12.9621   -9.3086 H   0  0  0  0  0  0
  -11.7120  -15.7644   -7.2934 H   0  0  0  0  0  0
  -12.8182  -16.4637   -8.4528 H   0  0  0  0  0  0
   -9.6831  -16.8630   -6.9957 H   0  0  0  0  0  0
   -7.8687  -18.3153   -7.7712 H   0  0  0  0  0  0
   -7.9090  -19.2359  -10.0666 H   0  0  0  0  0  0
   -9.7303  -18.6926  -11.5759 H   0  0  0  0  0  0
  -12.8512  -17.2627  -12.7790 H   0  0  0  0  0  0
  -11.1487  -17.6622  -12.8187 H   0  0  0  0  0  0
  -12.2895  -18.7729  -12.0522 H   0  0  0  0  0  0
   -3.8538  -22.4640  -10.1593 H   0  0  0  0  0  0
   -5.1517  -23.2142  -11.0357 H   0  0  0  0  0  0
   -5.6205  -23.3504   -8.6684 H   0  0  0  0  0  0
   -6.7898  -22.2631   -9.3166 H   0  0  0  0  0  0
   -5.9719  -21.3781   -7.2171 H   0  0  0  0  0  0
   -5.3546  -20.3218   -8.4772 H   0  0  0  0  0  0
   -2.4465  -21.0518   -6.3892 H   0  0  0  0  0  0
   -4.0621  -20.8609   -5.7193 H   0  0  0  0  0  0
   -3.4661  -19.7311   -6.9539 H   0  0  0  0  0  0
  1  2  1  0  0  0
  1  4  1  0  0  0
  1 42  2  0  0  0
  2  3  1  0  0  0
  2 46  1  0  0  0
  2 47  1  0  0  0
  3  6  1  0  0  0
  4  5  1  0  0  0
  4 40  1  0  0  0
  5  6  1  0  0  0
  5 10  1  0  0  0
  5 48  1  0  0  0
  6  7  1  0  0  0
  6 49  1  0  0  0
  7  8  2  0  0  0
  7 50  1  0  0  0
  8  9  1  0  0  0
  8 51  1  0  0  0
  9 11  1  0  0  0
  9 10  2  0  0  0
 10 52  1  0  0  0
 11 12  1  0  0  0
 12 13  1  0  0  0
 12 53  1  0  0  0
 12 54  1  0  0  0
 13 14  1  0  0  0
 13 18  1  0  0  0
 13 55  1  0  0  0
 14 19  1  0  0  0
 14 15  1  0  0  0
 15 16  1  0  0  0
 15 39  2  0  0  0
 16 17  1  0  0  0
 16 56  1  0  0  0
 16 57  1  0  0  0
 17 18  1  0  0  0
 17 58  1  0  0  0
 18 59  1  0  0  0
 18 60  1  0  0  0
 19 24  1  0  0  0
 19 20  2  0  0  0
 20 21  1  0  0  0
 20 61  1  0  0  0
 21 22  2  0  0  0
 21 62  1  0  0  0
 22 23  1  0  0  0
 22 25  1  0  0  0
 23 24  2  0  0  0
 23 63  1  0  0  0
 24 64  1  0  0  0
 25 26  1  0  0  0
 26 27  1  0  0  0
 26 65  1  0  0  0
 26 66  1  0  0  0
 27 28  1  0  0  0
 27 67  1  0  0  0
 27 68  1  0  0  0
 28 29  1  0  0  0
 28 69  1  0  0  0
 28 70  1  0  0  0
 29 30  1  0  0  0
 30 31  1  0  0  0
 30 71  1  0  0  0
 30 72  1  0  0  0
 31 32  2  0  0  0
 31 36  1  0  0  0
 32 33  1  0  0  0
 32 73  1  0  0  0
 33 34  2  0  0  0
 33 74  1  0  0  0
 34 35  1  0  0  0
 34 75  1  0  0  0
 35 36  2  0  0  0
 35 76  1  0  0  0
 36 37  1  0  0  0
 37 38  1  0  0  0
 38 77  1  0  0  0
 38 78  1  0  0  0
 38 79  1  0  0  0
 40 41  1  0  0  0
 40 80  1  0  0  0
 40 81  1  0  0  0
 41 43  1  0  0  0
 41 82  1  0  0  0
 41 83  1  0  0  0
 43 44  1  0  0  0
 43 84  1  0  0  0
 43 85  1  0  0  0
 44 45  1  0  0  0
 45 86  1  0  0  0
 45 87  1  0  0  0
 45 88  1  0  0  0
M  END
> <s_m_entry_id>
26330

> <s_m_entry_name>
dock_pv.154

> <s_m_Source_Path>
/home/csk/Desktop/cluster/DUD-E-result/reni

> <s_m_Source_File>
dock_pv.maegz

> <i_m_Source_File_Index>
154

> <chembl_id>
CHEMBL1276280

> <chembl_pref_name>
None

> <i_lp_mmshare_version>
53161

> <r_lp_tautomer_probability>
1

> <s_lp_Force_Field>
OPLS_2005

> <r_lp_Energy>
72.561914

> <b_lp_Chiralities_Consistent>
1

> <s_lp_Variant>
CHEMBL286_lig2048-3

> <s_i_glide_gridfile>
glide-grid_3g6z

> <i_i_glide_lignum>
5867

> <i_i_glide_rotatable_bonds>
16

> <r_i_docking_score>
-7.47244166857845

> <r_i_glide_ligand_efficiency>
-0.166054259301743

> <r_i_glide_ligand_efficiency_sa>
-0.590637282342975

> <r_i_glide_ligand_efficiency_ln>
-1.55460086587763

> <r_i_glide_gscore>
-7.47244166857845

> <r_i_glide_lipo>
-3.70632137527766

> <r_i_glide_hbond>
-0.32

> <r_i_glide_metal>
0

> <r_i_glide_rewards>
-0.636289230114306

> <r_i_glide_evdw>
-46.5920906066895

> <r_i_glide_ecoul>
-7.09643602371216

> <r_i_glide_erotb>
0.585450332734803

> <r_i_glide_esite>
-0.00121146202998782

> <r_i_glide_emodel>
-72.7622318023856

> <r_i_glide_energy>
-53.6885266304016

> <r_i_glide_einternal>
7.74495410919189

> <i_i_glide_confnum>
10

> <i_i_glide_posenum>
10

> <r_i_glide_eff_state_penalty>
0

> <s_user_duplicate_titles>
CHEMBL286_lig2048

> <i_f3d_flags>
0

> <s_m_subgroup_title>
dock_pv

> <s_m_subgroupid>
dock_pv

> <b_m_subgroup_collapsed>
1

$$$$
CHEMBL286_lig2918
                    3D
 Schrodinger Suite 2021-1.
 61 64  0  0  1  0            999 V2000
   -2.5964  -18.4653  -12.3439 N   0  0  0  0  0  0
   -2.0718  -18.2629  -10.9962 C   0  0  1  0  0  0
   -2.5441  -16.8427  -10.5317 C   0  0  0  0  0  0
   -4.0159  -16.4859  -10.8708 C   0  0  0  0  0  0
   -4.5590  -17.1698  -11.9355 N   0  0  0  0  0  0
   -3.9326  -18.1432  -12.6820 C   0  0  0  0  0  0
   -4.4837  -18.7803  -13.6210 N   0  0  0  0  0  0
   -4.6070  -15.6320  -10.2044 O   0  0  0  0  0  0
   -5.9657  -16.8101  -12.2565 C   0  0  0  0  0  0
   -7.0226  -17.6207  -11.5091 C   0  0  0  0  0  0
   -8.0607  -16.9503  -10.8643 C   0  0  0  0  0  0
   -9.0908  -17.6687  -10.2508 C   0  0  0  0  0  0
   -9.0554  -19.0710  -10.2489 C   0  0  0  0  0  0
   -8.0098  -19.7441  -10.8693 C   0  0  0  0  0  0
   -7.0022  -19.0220  -11.5029 C   0  0  0  0  0  0
   -2.4854  -19.4121   -9.9906 C   0  0  0  0  0  0
   -2.3988  -20.8260  -10.6123 C   0  0  0  0  0  0
   -3.8457  -19.2678   -9.2699 C   0  0  0  0  0  0
   -0.5321  -18.1888  -11.1454 C   0  0  0  0  0  0
  -10.1623  -16.9767   -9.6688 N   0  0  0  0  0  0
  -11.4599  -17.2628   -9.9403 C   0  0  0  0  0  0
  -12.2944  -16.2076   -9.2297 C   0  0  0  0  0  0
  -11.3714  -15.4853   -8.2671 C   0  0  1  0  0  0
  -10.0124  -15.7392   -8.8995 C   0  0  0  0  0  0
  -11.9059  -18.1843  -10.6234 O   0  0  0  0  0  0
  -11.7706  -14.0382   -7.9607 C   0  0  0  0  0  0
  -10.8508  -12.9829   -8.0238 C   0  0  0  0  0  0
  -11.2566  -11.6821   -7.7385 C   0  0  0  0  0  0
  -12.5794  -11.4406   -7.3825 C   0  0  0  0  0  0
  -13.5021  -12.4775   -7.3085 C   0  0  0  0  0  0
  -13.0951  -13.7753   -7.5923 C   0  0  0  0  0  0
   -2.2593  -19.3098  -12.7783 H   0  0  0  0  0  0
   -2.3845  -16.7081   -9.4605 H   0  0  0  0  0  0
   -1.9625  -16.0594  -11.0210 H   0  0  0  0  0  0
   -5.4334  -18.4639  -13.7802 H   0  0  0  0  0  0
   -6.1372  -15.7494  -12.0633 H   0  0  0  0  0  0
   -6.1620  -16.9020  -13.3270 H   0  0  0  0  0  0
   -8.0884  -15.8711  -10.8829 H   0  0  0  0  0  0
   -9.8431  -19.6417   -9.7773 H   0  0  0  0  0  0
   -7.9870  -20.8234  -10.8765 H   0  0  0  0  0  0
   -6.2208  -19.5777  -11.9913 H   0  0  0  0  0  0
   -1.7497  -19.3878   -9.1848 H   0  0  0  0  0  0
   -3.2053  -20.9978  -11.3265 H   0  0  0  0  0  0
   -2.4710  -21.5971   -9.8449 H   0  0  0  0  0  0
   -1.4616  -20.9849  -11.1414 H   0  0  0  0  0  0
   -4.6807  -19.2691   -9.9687 H   0  0  0  0  0  0
   -4.0089  -20.0923   -8.5751 H   0  0  0  0  0  0
   -3.9009  -18.3562   -8.6746 H   0  0  0  0  0  0
   -0.0448  -17.9957  -10.1877 H   0  0  0  0  0  0
   -0.1174  -19.1197  -11.5339 H   0  0  0  0  0  0
   -0.2199  -17.4042  -11.8371 H   0  0  0  0  0  0
  -12.6696  -15.5251   -9.9903 H   0  0  0  0  0  0
  -13.1483  -16.6611   -8.7269 H   0  0  0  0  0  0
  -11.3952  -16.0129   -7.3112 H   0  0  0  0  0  0
   -9.1666  -15.7338   -8.2137 H   0  0  0  0  0  0
   -9.7829  -14.9582   -9.6211 H   0  0  0  0  0  0
   -9.8183  -13.1551   -8.2910 H   0  0  0  0  0  0
  -10.5521  -10.8659   -7.7944 H   0  0  0  0  0  0
  -12.9010  -10.4400   -7.1587 H   0  0  0  0  0  0
  -14.5249  -12.2729   -7.0315 H   0  0  0  0  0  0
  -13.8154  -14.5779   -7.5284 H   0  0  0  0  0  0
  1  2  1  0  0  0
  1  6  1  0  0  0
  1 32  1  0  0  0
  2  3  1  0  0  0
  2 16  1  0  0  0
  2 19  1  0  0  0
  3  4  1  0  0  0
  3 33  1  0  0  0
  3 34  1  0  0  0
  4  5  1  0  0  0
  4  8  2  0  0  0
  5  6  1  0  0  0
  5  9  1  0  0  0
  6  7  2  0  0  0
  7 35  1  0  0  0
  9 10  1  0  0  0
  9 36  1  0  0  0
  9 37  1  0  0  0
 10 11  2  0  0  0
 10 15  1  0  0  0
 11 12  1  0  0  0
 11 38  1  0  0  0
 12 13  2  0  0  0
 12 20  1  0  0  0
 13 14  1  0  0  0
 13 39  1  0  0  0
 14 15  2  0  0  0
 14 40  1  0  0  0
 15 41  1  0  0  0
 16 17  1  0  0  0
 16 18  1  0  0  0
 16 42  1  0  0  0
 17 43  1  0  0  0
 17 44  1  0  0  0
 17 45  1  0  0  0
 18 46  1  0  0  0
 18 47  1  0  0  0
 18 48  1  0  0  0
 19 49  1  0  0  0
 19 50  1  0  0  0
 19 51  1  0  0  0
 20 21  1  0  0  0
 20 24  1  0  0  0
 21 22  1  0  0  0
 21 25  2  0  0  0
 22 23  1  0  0  0
 22 52  1  0  0  0
 22 53  1  0  0  0
 23 24  1  0  0  0
 23 26  1  0  0  0
 23 54  1  0  0  0
 24 55  1  0  0  0
 24 56  1  0  0  0
 26 27  2  0  0  0
 26 31  1  0  0  0
 27 28  1  0  0  0
 27 57  1  0  0  0
 28 29  2  0  0  0
 28 58  1  0  0  0
 29 30  1  0  0  0
 29 59  1  0  0  0
 30 31  2  0  0  0
 30 60  1  0  0  0
 31 61  1  0  0  0
M  END
> <s_m_entry_id>
26331

> <s_m_entry_name>
dock_pv.155

> <s_m_Source_Path>
/home/csk/Desktop/cluster/DUD-E-result/reni

> <s_m_Source_File>
dock_pv.maegz

> <i_m_Source_File_Index>
155

> <chembl_id>
CHEMBL3401342

> <chembl_pref_name>
None

> <i_lp_mmshare_version>
53161

> <r_lp_tautomer_probability>
0.5

> <s_lp_Force_Field>
OPLS_2005

> <r_lp_Energy>
58.386977

> <b_lp_Chiralities_Consistent>
1

> <s_lp_Variant>
CHEMBL286_lig2918-1

> <s_i_glide_gridfile>
glide-grid_3g6z

> <i_i_glide_lignum>
7134

> <i_i_glide_rotatable_bonds>
5

> <r_i_docking_score>
-7.44409410992648

> <r_i_glide_ligand_efficiency>
-0.240132068062145

> <r_i_glide_ligand_efficiency_sa>
-0.754346231765682

> <r_i_glide_ligand_efficiency_ln>
-1.67887135587502

> <r_i_glide_gscore>
-7.44409410992648

> <r_i_glide_lipo>
-2.70870083252346

> <r_i_glide_hbond>
-0.274553279781321

> <r_i_glide_metal>
0

> <r_i_glide_rewards>
-1.97759833042967

> <r_i_glide_evdw>
-38.3377304077148

> <r_i_glide_ecoul>
-6.72916126251221

> <r_i_glide_erotb>
0.451567998056149

> <r_i_glide_esite>
-0.00854895548560098

> <r_i_glide_emodel>
-62.6107120963527

> <r_i_glide_energy>
-45.0668916702271

> <r_i_glide_einternal>
5.71629047393799

> <i_i_glide_confnum>
94

> <i_i_glide_posenum>
343

> <r_i_glide_eff_state_penalty>
0

> <s_user_duplicate_titles>
CHEMBL286_lig2918

> <i_f3d_flags>
0

> <s_m_subgroup_title>
dock_pv

> <s_m_subgroupid>
dock_pv

> <b_m_subgroup_collapsed>
1

$$$$
CHEMBL286_lig1224
                    3D
 Schrodinger Suite 2021-1.
 90 93  0  0  1  0            999 V2000
   -2.5358  -19.7841   -9.1829 C   0  0  0  0  0  0
   -7.5424  -18.5403  -10.8504 C   0  0  0  0  0  0
   -4.0947  -17.2819  -10.2518 C   0  0  0  0  0  0
   -9.3675  -20.2201  -11.1837 C   0  0  1  0  0  0
  -10.6979  -19.4162  -10.9232 C   0  0  2  0  0  0
   -8.2201  -19.4059  -11.6184 N   0  0  0  0  0  0
   -5.3752  -17.6759  -10.2647 N   0  0  0  0  0  0
   -2.4619  -20.7573   -8.2324 N   0  0  0  0  0  0
   -6.1889  -18.0779  -11.4061 C   0  0  2  0  0  0
   -3.4048  -17.2997   -8.8636 C   0  0  1  0  0  0
  -12.0093  -20.2106  -11.2210 C   0  0  0  0  0  0
   -7.4684  -13.6657  -11.2367 N   0  0  0  0  0  0
   -3.9979  -14.8107   -8.0880 C   0  0  0  0  0  0
   -2.2079  -18.3070   -8.8349 C   0  0  0  0  0  0
   -6.6129  -15.5905  -12.0822 C   0  0  0  0  0  0
   -6.2974  -17.0014  -12.5106 C   0  0  0  0  0  0
   -2.9325  -15.8767   -8.4213 C   0  0  0  0  0  0
   -5.8692  -14.5117  -12.5222 N   0  0  0  0  0  0
   -6.4151  -13.4122  -12.0052 C   0  0  0  0  0  0
   -3.5804  -13.4617   -7.8146 C   0  0  0  0  0  0
   -7.6004  -15.0570  -11.2843 C   0  0  0  0  0  0
   -2.6732  -20.0595  -10.3771 O   0  0  0  0  0  0
   -3.4617  -16.9851  -11.2661 O   0  0  0  0  0  0
   -7.9057  -18.1715   -9.7308 O   0  0  0  0  0  0
   -8.9854  -21.1796  -10.0101 C   0  0  0  0  0  0
  -13.0475  -19.6630  -11.6199 O   0  0  0  0  0  0
   -4.5738  -12.4768   -7.4979 C   0  0  0  0  0  0
  -10.7647  -18.1729  -11.6215 O   0  0  0  0  0  0
  -11.8775  -21.5484  -11.0890 O   0  0  0  0  0  0
   -2.6105  -20.4874   -6.7865 C   0  0  0  0  0  0
   -2.3475  -22.1817   -8.6293 C   0  0  0  0  0  0
   -5.3597  -15.1262   -8.0007 C   0  0  0  0  0  0
   -6.3104  -14.1617   -7.7024 C   0  0  0  0  0  0
   -7.9957  -22.3429  -10.3076 C   0  0  0  0  0  0
   -2.2178  -13.0410   -7.8336 C   0  0  0  0  0  0
   -5.9366  -12.8499   -7.4564 C   0  0  0  0  0  0
   -4.1849  -11.1424   -7.2209 C   0  0  0  0  0  0
  -12.9199  -22.4209  -11.4960 C   0  0  0  0  0  0
   -6.5581  -21.8959  -10.6388 C   0  0  0  0  0  0
   -8.5313  -23.3272  -11.3669 C   0  0  0  0  0  0
   -3.8518  -21.2673   -6.2819 C   0  0  0  0  0  0
   -3.5838  -22.9497   -8.1154 C   0  0  0  0  0  0
   -1.8704  -11.7211   -7.5560 C   0  0  0  0  0  0
   -2.8445  -10.7803   -7.2492 C   0  0  0  0  0  0
   -3.7878  -22.7650   -6.6021 C   0  0  0  0  0  0
   -9.5635  -20.8768  -12.0211 H   0  0  0  0  0  0
  -10.6996  -19.1316   -9.8752 H   0  0  0  0  0  0
   -7.8679  -19.5894  -12.5477 H   0  0  0  0  0  0
   -5.8492  -17.8503   -9.3881 H   0  0  0  0  0  0
   -5.7111  -18.9588  -11.8400 H   0  0  0  0  0  0
   -4.1017  -17.6569   -8.1038 H   0  0  0  0  0  0
   -5.0307  -14.5547  -13.1003 H   0  0  0  0  0  0
   -1.4478  -17.9794   -9.5456 H   0  0  0  0  0  0
   -1.6920  -18.2536   -7.8762 H   0  0  0  0  0  0
   -5.3750  -16.9875  -13.0906 H   0  0  0  0  0  0
   -7.0690  -17.2951  -13.2208 H   0  0  0  0  0  0
   -2.2858  -15.4795   -9.2061 H   0  0  0  0  0  0
   -2.3221  -15.9818   -7.5228 H   0  0  0  0  0  0
   -6.0325  -12.4187  -12.1829 H   0  0  0  0  0  0
   -8.3931  -15.5626  -10.7523 H   0  0  0  0  0  0
   -8.6067  -20.5992   -9.1668 H   0  0  0  0  0  0
   -9.8899  -21.6371   -9.6209 H   0  0  0  0  0  0
  -10.7011  -18.3238  -12.5734 H   0  0  0  0  0  0
   -1.7127  -20.8551   -6.2863 H   0  0  0  0  0  0
   -2.7109  -19.4288   -6.5456 H   0  0  0  0  0  0
   -2.1989  -22.3256   -9.7071 H   0  0  0  0  0  0
   -1.4543  -22.5759   -8.1392 H   0  0  0  0  0  0
   -5.7172  -16.1287   -8.1610 H   0  0  0  0  0  0
   -7.3568  -14.4339   -7.6638 H   0  0  0  0  0  0
   -7.9245  -22.9089   -9.3770 H   0  0  0  0  0  0
   -1.4339  -13.7457   -8.0593 H   0  0  0  0  0  0
   -6.6863  -12.1089   -7.2233 H   0  0  0  0  0  0
   -4.9392  -10.4101   -6.9734 H   0  0  0  0  0  0
  -12.6901  -23.4419  -11.1915 H   0  0  0  0  0  0
  -13.8688  -22.1315  -11.0480 H   0  0  0  0  0  0
  -13.0398  -22.4101  -12.5802 H   0  0  0  0  0  0
   -6.4931  -21.4311  -11.6242 H   0  0  0  0  0  0
   -6.1827  -21.1795   -9.9038 H   0  0  0  0  0  0
   -5.8762  -22.7455  -10.6452 H   0  0  0  0  0  0
   -8.5408  -22.8846  -12.3649 H   0  0  0  0  0  0
   -7.9100  -24.2231  -11.4185 H   0  0  0  0  0  0
   -9.5476  -23.6498  -11.1339 H   0  0  0  0  0  0
   -3.9545  -21.1186   -5.2089 H   0  0  0  0  0  0
   -4.7619  -20.8615   -6.7266 H   0  0  0  0  0  0
   -4.4702  -22.6155   -8.6539 H   0  0  0  0  0  0
   -3.4711  -24.0094   -8.3448 H   0  0  0  0  0  0
   -0.8309  -11.4310   -7.5632 H   0  0  0  0  0  0
   -2.5594   -9.7631   -7.0295 H   0  0  0  0  0  0
   -4.7073  -23.2589   -6.2793 H   0  0  0  0  0  0
   -2.9654  -23.2297   -6.0543 H   0  0  0  0  0  0
  1  8  1  0  0  0
  1 14  1  0  0  0
  1 22  2  0  0  0
  2  9  1  0  0  0
  2  6  1  0  0  0
  2 24  2  0  0  0
  3 10  1  0  0  0
  3  7  1  0  0  0
  3 23  2  0  0  0
  4  6  1  0  0  0
  4  5  1  0  0  0
  4 25  1  0  0  0
  4 46  1  0  0  0
  5 11  1  0  0  0
  5 28  1  0  0  0
  5 47  1  0  0  0
  6 48  1  0  0  0
  7  9  1  0  0  0
  7 49  1  0  0  0
  8 30  1  0  0  0
  8 31  1  0  0  0
  9 16  1  0  0  0
  9 50  1  0  0  0
 10 14  1  0  0  0
 10 17  1  0  0  0
 10 51  1  0  0  0
 11 26  2  0  0  0
 11 29  1  0  0  0
 12 19  2  0  0  0
 12 21  1  0  0  0
 13 17  1  0  0  0
 13 20  2  0  0  0
 13 32  1  0  0  0
 14 53  1  0  0  0
 14 54  1  0  0  0
 15 21  2  0  0  0
 15 16  1  0  0  0
 15 18  1  0  0  0
 16 55  1  0  0  0
 16 56  1  0  0  0
 17 57  1  0  0  0
 17 58  1  0  0  0
 18 52  1  0  0  0
 18 19  1  0  0  0
 19 59  1  0  0  0
 20 27  1  0  0  0
 20 35  1  0  0  0
 21 60  1  0  0  0
 25 34  1  0  0  0
 25 61  1  0  0  0
 25 62  1  0  0  0
 27 37  1  0  0  0
 27 36  2  0  0  0
 28 63  1  0  0  0
 29 38  1  0  0  0
 30 41  1  0  0  0
 30 64  1  0  0  0
 30 65  1  0  0  0
 31 42  1  0  0  0
 31 66  1  0  0  0
 31 67  1  0  0  0
 32 33  2  0  0  0
 32 68  1  0  0  0
 33 36  1  0  0  0
 33 69  1  0  0  0
 34 39  1  0  0  0
 34 40  1  0  0  0
 34 70  1  0  0  0
 35 43  2  0  0  0
 35 71  1  0  0  0
 36 72  1  0  0  0
 37 44  2  0  0  0
 37 73  1  0  0  0
 38 74  1  0  0  0
 38 75  1  0  0  0
 38 76  1  0  0  0
 39 77  1  0  0  0
 39 78  1  0  0  0
 39 79  1  0  0  0
 40 80  1  0  0  0
 40 81  1  0  0  0
 40 82  1  0  0  0
 41 45  1  0  0  0
 41 83  1  0  0  0
 41 84  1  0  0  0
 42 45  1  0  0  0
 42 85  1  0  0  0
 42 86  1  0  0  0
 43 44  1  0  0  0
 43 87  1  0  0  0
 44 88  1  0  0  0
 45 89  1  0  0  0
 45 90  1  0  0  0
M  END
> <s_m_entry_id>
26332

> <s_m_entry_name>
dock_pv.156

> <s_m_Source_Path>
/home/csk/Desktop/cluster/DUD-E-result/reni

> <s_m_Source_File>
dock_pv.maegz

> <i_m_Source_File_Index>
156

> <chembl_id>
CHEMBL159336

> <chembl_pref_name>
None

> <i_lp_mmshare_version>
53161

> <r_lp_tautomer_probability>
0.499999999999999

> <s_lp_Force_Field>
OPLS_2005

> <r_lp_Energy>
45.185521

> <b_lp_Chiralities_Consistent>
1

> <s_lp_Variant>
CHEMBL286_lig1224-25

> <s_i_glide_gridfile>
glide-grid_3g6z

> <i_i_glide_lignum>
3985

> <i_i_glide_rotatable_bonds>
19

> <r_i_docking_score>
-7.43402368578837

> <r_i_glide_ligand_efficiency>
-0.165200526350853

> <r_i_glide_ligand_efficiency_sa>
-0.587600645329983

> <r_i_glide_ligand_efficiency_ln>
-1.54660821341413

> <r_i_glide_gscore>
-7.43402368578837

> <r_i_glide_lipo>
-2.84698791174315

> <r_i_glide_hbond>
-0.58272703639062

> <r_i_glide_metal>
0

> <r_i_glide_rewards>
-0.643553455197086

> <r_i_glide_evdw>
-47.5131874084473

> <r_i_glide_ecoul>
-10.0392293930054

> <r_i_glide_erotb>
0.582473839846423

> <r_i_glide_esite>
-0.0616853429307689

> <r_i_glide_emodel>
-69.9284089537233

> <r_i_glide_energy>
-57.5524168014526

> <r_i_glide_einternal>
22.7228126525879

> <i_i_glide_confnum>
88

> <i_i_glide_posenum>
325

> <r_i_glide_eff_state_penalty>
0

> <s_user_duplicate_titles>
CHEMBL286_lig1224

> <i_f3d_flags>
0

> <s_m_subgroup_title>
dock_pv

> <s_m_subgroupid>
dock_pv

> <b_m_subgroup_collapsed>
1

$$$$
CHEMBL286_lig1544
                    3D
 Schrodinger Suite 2021-1.
 86 90  0  0  1  0            999 V2000
   -3.0977  -14.4517   -9.7175 N   0  0  0  0  0  0
   -4.6351  -20.1986  -12.0253 C   0  0  0  0  0  0
   -2.8507  -13.9713  -10.9764 C   0  0  0  0  0  0
   -5.4694  -20.5225  -13.1053 N   0  0  0  0  0  0
   -2.4360  -15.6578   -9.1352 C   0  0  1  0  0  0
   -4.6935  -18.9259  -11.4382 C   0  0  0  0  0  0
   -4.0799  -13.8253   -8.9227 C   0  0  0  0  0  0
   -0.7416  -15.2607  -10.9870 N   0  0  2  0  0  0
   -3.7004  -21.1392  -11.5307 C   0  0  0  0  0  0
  -11.8596  -13.4620   -8.4031 C   0  0  0  0  0  0
   -3.3734  -12.9530  -11.4368 O   0  0  0  0  0  0
   -3.3657  -16.8190   -8.7212 C   0  0  0  0  0  0
  -13.1078  -13.8170   -7.8885 C   0  0  0  0  0  0
   -3.8696  -18.5643  -10.3766 C   0  0  0  0  0  0
   -5.4266  -14.1230   -9.1351 C   0  0  0  0  0  0
   -3.7110  -12.8934   -7.9490 C   0  0  0  0  0  0
   -2.8387  -20.7535  -10.4980 C   0  0  0  0  0  0
   -4.0664  -17.2921   -9.8738 O   0  0  0  0  0  0
   -1.8504  -14.7953  -11.8226 C   0  0  0  0  0  0
   -1.2139  -16.1732   -9.9574 C   0  0  0  0  0  0
   -6.0505  -12.4506   -7.4949 C   0  0  0  0  0  0
   -2.9175  -19.4875   -9.9235 C   0  0  0  0  0  0
   -6.6858  -19.7915  -13.4865 C   0  0  0  0  0  0
   -6.4063  -13.4452   -8.4199 C   0  0  0  0  0  0
   -4.6990  -12.2134   -7.2361 C   0  0  0  0  0  0
   -5.4230  -21.8585  -13.7286 C   0  0  0  0  0  0
  -14.0508  -12.8579   -7.6225 O   0  0  0  0  0  0
   -7.7848  -19.7977  -12.3969 C   0  0  0  0  0  0
   -9.1242  -10.4629   -6.6229 C   0  0  0  0  0  0
   -6.9674  -11.6652   -6.8209 O   0  0  0  0  0  0
  -11.4950  -11.9986   -8.5425 C   0  0  0  0  0  0
   -9.3716  -21.0573  -11.0645 O   0  0  0  0  0  0
   -4.0662  -22.5594  -13.5574 C   0  0  0  0  0  0
  -11.1707  -11.4828   -7.2627 O   0  0  0  0  0  0
   -3.6421  -22.5592  -12.0866 C   0  0  0  0  0  0
  -10.9590  -14.4608   -8.7880 C   0  0  0  0  0  0
   -8.2832  -21.1866  -11.9554 C   0  0  0  0  0  0
   -8.2192  -11.4072   -7.4510 C   0  0  0  0  0  0
  -10.4988  -10.2344   -7.2609 C   0  0  0  0  0  0
  -13.4338  -15.1632   -7.7149 C   0  0  0  0  0  0
  -14.0461  -12.3835   -6.2880 C   0  0  0  0  0  0
  -11.2999  -15.8057   -8.6418 C   0  0  0  0  0  0
  -12.5347  -16.1556   -8.1011 C   0  0  0  0  0  0
   -2.0058  -15.2499   -8.2197 H   0  0  0  0  0  0
   -5.3944  -18.1907  -11.8039 H   0  0  0  0  0  0
   -0.1861  -14.4908  -10.6364 H   0  0  0  0  0  0
   -4.1152  -16.4535   -8.0172 H   0  0  0  0  0  0
   -2.8210  -17.5671   -8.1526 H   0  0  0  0  0  0
   -5.7133  -14.8559   -9.8773 H   0  0  0  0  0  0
   -2.6701  -12.6685   -7.7736 H   0  0  0  0  0  0
   -2.1071  -21.4524  -10.1171 H   0  0  0  0  0  0
   -1.4736  -14.1689  -12.6349 H   0  0  0  0  0  0
   -2.3929  -15.6304  -12.2692 H   0  0  0  0  0  0
   -0.4035  -16.4579   -9.2845 H   0  0  0  0  0  0
   -1.4985  -17.0895  -10.4755 H   0  0  0  0  0  0
   -2.2238  -19.2622   -9.1295 H   0  0  0  0  0  0
   -7.0990  -20.1636  -14.4224 H   0  0  0  0  0  0
   -6.4095  -18.7615  -13.7139 H   0  0  0  0  0  0
   -7.4367  -13.6843   -8.6256 H   0  0  0  0  0  0
   -4.4162  -11.4657   -6.5077 H   0  0  0  0  0  0
   -6.0983  -22.4608  -13.1212 H   0  0  0  0  0  0
   -5.8626  -21.9148  -14.7258 H   0  0  0  0  0  0
   -8.6313  -19.2521  -12.8122 H   0  0  0  0  0  0
   -7.4765  -19.2039  -11.5378 H   0  0  0  0  0  0
   -9.2712  -10.8597   -5.6215 H   0  0  0  0  0  0
   -8.6687   -9.5052   -6.4565 H   0  0  0  0  0  0
  -12.3119  -11.4413   -8.9905 H   0  0  0  0  0  0
  -10.6577  -11.9066   -9.2210 H   0  0  0  0  0  0
  -10.0988  -20.6349  -11.5300 H   0  0  0  0  0  0
   -4.1175  -23.5770  -13.9435 H   0  0  0  0  0  0
   -3.3089  -22.0663  -14.1631 H   0  0  0  0  0  0
   -4.3145  -23.1965  -11.5085 H   0  0  0  0  0  0
   -2.6381  -22.9730  -11.9825 H   0  0  0  0  0  0
   -9.9944  -14.1989   -9.1983 H   0  0  0  0  0  0
   -7.4782  -21.7492  -11.4780 H   0  0  0  0  0  0
   -8.5795  -21.7817  -12.8209 H   0  0  0  0  0  0
   -8.0032  -10.9676   -8.4168 H   0  0  0  0  0  0
   -8.7554  -12.3409   -7.6211 H   0  0  0  0  0  0
  -11.0801   -9.5391   -6.6512 H   0  0  0  0  0  0
  -10.4085   -9.7787   -8.2506 H   0  0  0  0  0  0
  -14.4007  -15.4420   -7.3244 H   0  0  0  0  0  0
  -15.0216  -11.9660   -6.0525 H   0  0  0  0  0  0
  -13.8691  -13.1990   -5.5854 H   0  0  0  0  0  0
  -13.3107  -11.5992   -6.1234 H   0  0  0  0  0  0
  -10.6090  -16.5777   -8.9478 H   0  0  0  0  0  0
  -12.8100  -17.1948   -8.0143 H   0  0  0  0  0  0
  1  3  1  0  0  0
  1  5  1  0  0  0
  1  7  1  0  0  0
  2  6  2  0  0  0
  2  4  1  0  0  0
  2  9  1  0  0  0
  3 11  2  0  0  0
  3 19  1  0  0  0
  4 23  1  0  0  0
  4 26  1  0  0  0
  5 12  1  0  0  0
  5 20  1  0  0  0
  5 44  1  0  0  0
  6 14  1  0  0  0
  6 45  1  0  0  0
  7 15  2  0  0  0
  7 16  1  0  0  0
  8 20  1  0  0  0
  8 19  1  0  0  0
  8 46  1  0  0  0
  9 17  2  0  0  0
  9 35  1  0  0  0
 10 31  1  0  0  0
 10 13  2  0  0  0
 10 36  1  0  0  0
 12 18  1  0  0  0
 12 47  1  0  0  0
 12 48  1  0  0  0
 13 27  1  0  0  0
 13 40  1  0  0  0
 14 18  1  0  0  0
 14 22  2  0  0  0
 15 24  1  0  0  0
 15 49  1  0  0  0
 16 25  2  0  0  0
 16 50  1  0  0  0
 17 22  1  0  0  0
 17 51  1  0  0  0
 19 52  1  0  0  0
 19 53  1  0  0  0
 20 54  1  0  0  0
 20 55  1  0  0  0
 21 25  1  0  0  0
 21 30  1  0  0  0
 21 24  2  0  0  0
 22 56  1  0  0  0
 23 28  1  0  0  0
 23 57  1  0  0  0
 23 58  1  0  0  0
 24 59  1  0  0  0
 25 60  1  0  0  0
 26 33  1  0  0  0
 26 61  1  0  0  0
 26 62  1  0  0  0
 27 41  1  0  0  0
 28 37  1  0  0  0
 28 63  1  0  0  0
 28 64  1  0  0  0
 29 38  1  0  0  0
 29 39  1  0  0  0
 29 65  1  0  0  0
 29 66  1  0  0  0
 30 38  1  0  0  0
 31 34  1  0  0  0
 31 67  1  0  0  0
 31 68  1  0  0  0
 32 37  1  0  0  0
 32 69  1  0  0  0
 33 35  1  0  0  0
 33 70  1  0  0  0
 33 71  1  0  0  0
 34 39  1  0  0  0
 35 72  1  0  0  0
 35 73  1  0  0  0
 36 42  2  0  0  0
 36 74  1  0  0  0
 37 75  1  0  0  0
 37 76  1  0  0  0
 38 77  1  0  0  0
 38 78  1  0  0  0
 39 79  1  0  0  0
 39 80  1  0  0  0
 40 43  2  0  0  0
 40 81  1  0  0  0
 41 82  1  0  0  0
 41 83  1  0  0  0
 41 84  1  0  0  0
 42 43  1  0  0  0
 42 85  1  0  0  0
 43 86  1  0  0  0
M  END
> <s_m_entry_id>
26333

> <s_m_entry_name>
dock_pv.157

> <s_m_Source_Path>
/home/csk/Desktop/cluster/DUD-E-result/reni

> <s_m_Source_File>
dock_pv.maegz

> <i_m_Source_File_Index>
157

> <chembl_id>
CHEMBL372416

> <chembl_pref_name>
None

> <i_lp_mmshare_version>
53161

> <r_lp_tautomer_probability>
1

> <s_lp_Force_Field>
OPLS_2005

> <r_lp_Energy>
66.117777

> <b_lp_Chiralities_Consistent>
1

> <s_lp_Variant>
CHEMBL286_lig1544-1

> <s_i_glide_gridfile>
glide-grid_3g6z

> <i_i_glide_lignum>
5248

> <i_i_glide_rotatable_bonds>
16

> <r_i_docking_score>
-7.43207080963153

> <r_i_glide_ligand_efficiency>
-0.172838856037943

> <r_i_glide_ligand_efficiency_sa>
-0.605523312243623

> <r_i_glide_ligand_efficiency_ln>
-1.56096585504449

> <r_i_glide_gscore>
-7.43207080963153

> <r_i_glide_lipo>
-4.42566958528668

> <r_i_glide_hbond>
0

> <r_i_glide_metal>
0

> <r_i_glide_rewards>
-0.494833615932512

> <r_i_glide_evdw>
-45.8861885070801

> <r_i_glide_ecoul>
-5.96178865432739

> <r_i_glide_erotb>
0.735195715559301

> <r_i_glide_esite>
-0.0581856004685269

> <r_i_glide_emodel>
-64.0150648255371

> <r_i_glide_energy>
-51.8479771614075

> <r_i_glide_einternal>
21.5475807189941

> <i_i_glide_confnum>
74

> <i_i_glide_posenum>
206

> <r_i_glide_eff_state_penalty>
0

> <s_user_duplicate_titles>
CHEMBL286_lig1544,324900

> <i_f3d_flags>
0

> <s_m_subgroup_title>
dock_pv

> <s_m_subgroupid>
dock_pv

> <b_m_subgroup_collapsed>
1

$$$$
CHEMBL286_lig2807
                    3D
 Schrodinger Suite 2021-1.
 49 51  0  0  1  0            999 V2000
   -4.8696  -14.0082  -10.6799 C   0  0  0  0  0  0
   -5.1605  -13.7550   -9.3438 C   0  0  0  0  0  0
   -6.4201  -14.1114   -8.8447 C   0  0  0  0  0  0
   -7.3763  -14.7055   -9.7009 C   0  0  0  0  0  0
   -6.9823  -14.9138  -11.0417 C   0  0  0  0  0  0
   -5.7553  -14.5791  -11.5164 N   0  0  0  0  0  0
   -3.6319  -13.6852  -11.2210 N   0  0  0  0  0  0
   -6.6891  -13.8904   -7.3657 C   0  0  0  0  0  0
   -9.7298  -12.8630   -8.7083 N   0  0  0  0  0  0
  -10.9593  -12.3629   -8.3569 C   0  0  0  0  0  0
  -11.7946  -13.4402   -8.0932 C   0  0  0  0  0  0
  -11.0470  -14.6321   -8.4210 C   0  0  0  0  0  0
  -11.3409  -16.0066   -8.4209 C   0  0  0  0  0  0
  -10.3544  -16.9094   -8.8087 C   0  0  0  0  0  0
   -9.0878  -16.4819   -9.1920 C   0  0  0  0  0  0
   -8.7309  -15.1308   -9.2210 C   0  0  0  0  0  0
   -9.7354  -14.2275   -8.8210 C   0  0  0  0  0  0
  -13.2281  -13.4072   -7.6178 C   0  0  0  0  0  0
  -11.2198  -10.8628   -8.3945 C   0  0  0  0  0  0
  -10.1308   -9.9714   -7.7539 C   0  0  0  0  0  0
  -10.2046   -9.9295   -6.3344 O   0  0  0  0  0  0
  -11.1949   -9.0357   -5.8379 C   0  0  0  0  0  0
  -12.5608  -16.4590   -8.0503 F   0  0  0  0  0  0
   -7.8937  -15.5287  -12.1011 C   0  0  0  0  0  0
   -7.9865  -14.6962  -13.3850 C   0  0  0  0  0  0
   -4.4169  -13.3061   -8.7022 H   0  0  0  0  0  0
   -2.9103  -13.2790  -10.6465 H   0  0  0  0  0  0
   -3.4690  -13.9256  -12.1919 H   0  0  0  0  0  0
   -5.7867  -13.6190   -6.8170 H   0  0  0  0  0  0
   -7.4337  -13.1091   -7.2210 H   0  0  0  0  0  0
   -7.0685  -14.8097   -6.9212 H   0  0  0  0  0  0
   -8.9481  -12.2600   -8.9139 H   0  0  0  0  0  0
  -10.5762  -17.9645   -8.8221 H   0  0  0  0  0  0
   -8.3614  -17.2234   -9.4942 H   0  0  0  0  0  0
  -13.8690  -13.9450   -8.3120 H   0  0  0  0  0  0
  -13.3374  -13.8855   -6.6440 H   0  0  0  0  0  0
  -13.6261  -12.3970   -7.5248 H   0  0  0  0  0  0
  -12.2001  -10.6070   -7.9957 H   0  0  0  0  0  0
  -11.2674  -10.5919   -9.4495 H   0  0  0  0  0  0
  -10.1893   -8.9581   -8.1586 H   0  0  0  0  0  0
   -9.1366  -10.3277   -8.0210 H   0  0  0  0  0  0
  -11.0689   -8.9118   -4.7645 H   0  0  0  0  0  0
  -12.2032   -9.4083   -6.0210 H   0  0  0  0  0  0
  -11.1068   -8.0419   -6.2803 H   0  0  0  0  0  0
   -7.5295  -16.5292  -12.3391 H   0  0  0  0  0  0
   -8.9055  -15.6644  -11.7270 H   0  0  0  0  0  0
   -8.7441  -15.1354  -14.0210 H   0  0  0  0  0  0
   -8.2690  -13.6631  -13.1821 H   0  0  0  0  0  0
   -7.0465  -14.6895  -13.9380 H   0  0  0  0  0  0
  1  2  1  0  0  0
  1  6  2  0  0  0
  1  7  1  0  0  0
  2  3  2  0  0  0
  2 26  1  0  0  0
  3  4  1  0  0  0
  3  8  1  0  0  0
  4  5  2  0  0  0
  4 16  1  0  0  0
  5  6  1  0  0  0
  5 24  1  0  0  0
  7 27  1  0  0  0
  7 28  1  0  0  0
  8 29  1  0  0  0
  8 30  1  0  0  0
  8 31  1  0  0  0
  9 10  1  0  0  0
  9 17  1  0  0  0
  9 32  1  0  0  0
 10 11  2  0  0  0
 10 19  1  0  0  0
 11 12  1  0  0  0
 11 18  1  0  0  0
 12 13  1  0  0  0
 12 17  2  0  0  0
 13 14  2  0  0  0
 13 23  1  0  0  0
 14 15  1  0  0  0
 14 33  1  0  0  0
 15 16  2  0  0  0
 15 34  1  0  0  0
 16 17  1  0  0  0
 18 35  1  0  0  0
 18 36  1  0  0  0
 18 37  1  0  0  0
 19 20  1  0  0  0
 19 38  1  0  0  0
 19 39  1  0  0  0
 20 21  1  0  0  0
 20 40  1  0  0  0
 20 41  1  0  0  0
 21 22  1  0  0  0
 22 42  1  0  0  0
 22 43  1  0  0  0
 22 44  1  0  0  0
 24 25  1  0  0  0
 24 45  1  0  0  0
 24 46  1  0  0  0
 25 47  1  0  0  0
 25 48  1  0  0  0
 25 49  1  0  0  0
M  END
> <s_m_entry_id>
26334

> <s_m_entry_name>
dock_pv.158

> <s_m_Source_Path>
/home/csk/Desktop/cluster/DUD-E-result/reni

> <s_m_Source_File>
dock_pv.maegz

> <i_m_Source_File_Index>
158

> <chembl_id>
CHEMBL4075401

> <chembl_pref_name>
None

> <i_lp_mmshare_version>
53161

> <r_lp_tautomer_probability>
0.999999772200052

> <s_lp_Force_Field>
OPLS_2005

> <r_lp_Energy>
8.21961

> <b_lp_Chiralities_Consistent>
1

> <s_lp_Variant>
CHEMBL286_lig2807-1

> <s_i_glide_gridfile>
glide-grid_3g6z

> <i_i_glide_lignum>
6905

> <i_i_glide_rotatable_bonds>
5

> <r_i_docking_score>
-7.42236170140442

> <r_i_glide_ligand_efficiency>
-0.296894468056177

> <r_i_glide_ligand_efficiency_sa>
-0.868124690042072

> <r_i_glide_ligand_efficiency_ln>
-1.75932215346402

> <r_i_glide_gscore>
-7.42236170140442

> <r_i_glide_lipo>
-3.6540046585639

> <r_i_glide_hbond>
-0.171193531624163

> <r_i_glide_metal>
0

> <r_i_glide_rewards>
-2.18326532415657

> <r_i_glide_evdw>
-34.3099403381348

> <r_i_glide_ecoul>
-1.1117115020752

> <r_i_glide_erotb>
0.487686595103611

> <r_i_glide_esite>
-0.0193310399453767

> <r_i_glide_emodel>
-48.0952960688099

> <r_i_glide_energy>
-35.42165184021

> <r_i_glide_einternal>
4.27533149719238

> <i_i_glide_confnum>
13

> <i_i_glide_posenum>
247

> <r_i_glide_eff_state_penalty>
0

> <s_user_duplicate_titles>
CHEMBL286_lig2807

> <i_f3d_flags>
0

> <s_m_subgroup_title>
dock_pv

> <s_m_subgroupid>
dock_pv

> <b_m_subgroup_collapsed>
1

$$$$
CHEMBL286_lig508
                    3D
 Schrodinger Suite 2021-1.
 97101  0  0  1  0            999 V2000
  -10.1807  -21.0139  -10.8204 C   0  0  0  0  0  0
   -5.3395  -19.1071  -11.7751 C   0  0  0  0  0  0
   -4.3968  -16.5265  -10.3107 C   0  0  0  0  0  0
   -9.0199  -20.1126  -10.3248 C   0  0  0  0  0  0
   -4.1851  -16.8830  -11.5964 N   0  0  0  0  0  0
   -6.4080  -19.8176  -12.1898 N   0  0  0  0  0  0
   -5.0677  -17.7239  -12.4255 C   0  0  2  0  0  0
   -5.8692  -14.4661  -12.7119 N   0  0  0  0  0  0
   -3.2320  -15.8249   -9.5617 C   0  0  0  0  0  0
   -6.6376  -15.5779  -12.4095 C   0  0  0  0  0  0
   -6.8945  -21.0650  -11.5594 C   0  0  2  0  0  0
   -4.3995  -14.3194   -7.7877 C   0  0  0  0  0  0
   -0.6615  -15.9044   -9.1768 C   0  0  0  0  0  0
   -6.3343  -16.9636  -12.9395 C   0  0  0  0  0  0
   -1.8913  -16.5951   -9.7753 C   0  0  0  0  0  0
   -3.5493  -15.5636   -8.0542 C   0  0  0  0  0  0
   -7.4699  -13.7464  -11.3557 N   0  0  0  0  0  0
   -7.6093  -20.7594  -10.1919 C   0  0  2  0  0  0
   -6.3983  -13.4259  -12.0683 C   0  0  0  0  0  0
  -11.4022  -20.4432  -11.0158 N   0  0  0  0  0  0
   -0.1153  -16.2936   -7.9065 C   0  0  0  0  0  0
   -3.7890  -13.0306   -7.6235 C   0  0  0  0  0  0
   -7.6309  -15.1167  -11.5760 C   0  0  0  0  0  0
   -9.9701  -22.2147  -11.0174 O   0  0  0  0  0  0
   -5.4593  -16.7721   -9.7372 O   0  0  0  0  0  0
   -4.5524  -19.5285  -10.9266 O   0  0  0  0  0  0
   -5.8240  -22.2045  -11.4667 C   0  0  0  0  0  0
    1.0439  -15.6037   -7.4220 C   0  0  0  0  0  0
   -4.6258  -11.9094   -7.3201 C   0  0  0  0  0  0
   -7.6521  -21.8603   -9.2972 O   0  0  0  0  0  0
  -12.3821  -21.2641  -11.6210 O   0  0  0  0  0  0
   -5.7839  -14.4488   -7.6745 C   0  0  0  0  0  0
   -0.0688  -14.8626   -9.8947 C   0  0  0  0  0  0
   -6.5856  -13.3489   -7.4146 C   0  0  0  0  0  0
    1.0444  -14.1952   -9.4072 C   0  0  0  0  0  0
   -4.9110  -22.4422  -12.6979 C   0  0  0  0  0  0
  -11.6234  -18.9917  -11.1488 C   0  0  0  0  0  0
   -2.3854  -12.8041   -7.7318 C   0  0  0  0  0  0
   -0.6687  -17.3235   -7.0898 C   0  0  0  0  0  0
    1.6061  -14.5567   -8.1883 C   0  0  0  0  0  0
   -6.0251  -12.0953   -7.2211 C   0  0  0  0  0  0
    1.6081  -15.9778   -6.1744 C   0  0  0  0  0  0
   -4.0397  -10.6317   -7.1202 C   0  0  0  0  0  0
  -13.6921  -21.0848  -11.0940 C   0  0  0  0  0  0
   -5.7039  -22.6619  -13.9959 C   0  0  0  0  0  0
   -3.9416  -23.6123  -12.4450 C   0  0  0  0  0  0
   -0.0886  -17.6635   -5.8714 C   0  0  0  0  0  0
   -1.8458  -11.5376   -7.5321 C   0  0  0  0  0  0
   -2.6651  -10.4612   -7.2211 C   0  0  0  0  0  0
    1.0429  -16.9987   -5.4193 C   0  0  0  0  0  0
   -9.3063  -19.7315   -9.3453 H   0  0  0  0  0  0
   -8.9369  -19.2489  -10.9836 H   0  0  0  0  0  0
   -3.3079  -16.6360  -12.0276 H   0  0  0  0  0  0
   -6.9895  -19.4256  -12.9188 H   0  0  0  0  0  0
   -4.4739  -17.9597  -13.3093 H   0  0  0  0  0  0
   -3.1179  -14.8527  -10.0441 H   0  0  0  0  0  0
   -7.6553  -21.4487  -12.2406 H   0  0  0  0  0  0
   -6.2393  -16.8616  -14.0209 H   0  0  0  0  0  0
   -7.2479  -17.5392  -12.8055 H   0  0  0  0  0  0
   -1.6785  -16.6886  -10.8407 H   0  0  0  0  0  0
   -1.9679  -17.6312   -9.4480 H   0  0  0  0  0  0
   -4.0540  -16.4293   -7.6212 H   0  0  0  0  0  0
   -2.6566  -15.4845   -7.4412 H   0  0  0  0  0  0
   -5.0032  -14.4634  -13.2500 H   0  0  0  0  0  0
   -6.9864  -20.0412   -9.6570 H   0  0  0  0  0  0
   -5.9875  -12.4276  -12.1078 H   0  0  0  0  0  0
   -8.4361  -15.6650  -11.1100 H   0  0  0  0  0  0
   -5.1776  -22.0107  -10.6101 H   0  0  0  0  0  0
   -6.3413  -23.1375  -11.2373 H   0  0  0  0  0  0
   -6.7635  -22.2075   -9.1950 H   0  0  0  0  0  0
   -6.2524  -15.4144   -7.7897 H   0  0  0  0  0  0
   -0.4813  -14.5517  -10.8450 H   0  0  0  0  0  0
   -7.6551  -13.4710   -7.3446 H   0  0  0  0  0  0
    1.4741  -13.3889   -9.9853 H   0  0  0  0  0  0
   -4.2924  -21.5556  -12.8436 H   0  0  0  0  0  0
  -11.2584  -18.4546  -10.2709 H   0  0  0  0  0  0
  -11.0959  -18.6005  -12.0211 H   0  0  0  0  0  0
  -12.6691  -18.7143  -11.2642 H   0  0  0  0  0  0
   -1.7174  -13.6161   -7.9658 H   0  0  0  0  0  0
   -1.5518  -17.8584   -7.3984 H   0  0  0  0  0  0
    2.4718  -14.0304   -7.8181 H   0  0  0  0  0  0
   -6.6700  -11.2628   -6.9961 H   0  0  0  0  0  0
    2.4863  -15.4613   -5.8127 H   0  0  0  0  0  0
   -4.6648   -9.7868   -6.8716 H   0  0  0  0  0  0
  -14.2618  -21.9956  -11.2712 H   0  0  0  0  0  0
  -13.7222  -20.8817  -10.0236 H   0  0  0  0  0  0
  -14.2090  -20.2870  -11.6282 H   0  0  0  0  0  0
   -6.4037  -23.4949  -13.9112 H   0  0  0  0  0  0
   -6.2690  -21.7727  -14.2744 H   0  0  0  0  0  0
   -5.0276  -22.8737  -14.8203 H   0  0  0  0  0  0
   -4.4798  -24.5500  -12.3055 H   0  0  0  0  0  0
   -3.2523  -23.7476  -13.2790 H   0  0  0  0  0  0
   -3.3381  -23.4413  -11.5534 H   0  0  0  0  0  0
   -0.5210  -18.4538   -5.2736 H   0  0  0  0  0  0
   -0.7786  -11.3943   -7.6140 H   0  0  0  0  0  0
   -2.2340   -9.4826   -7.0602 H   0  0  0  0  0  0
    1.4854  -17.2775   -4.4735 H   0  0  0  0  0  0
  1  4  1  0  0  0
  1 20  1  0  0  0
  1 24  2  0  0  0
  2  6  1  0  0  0
  2  7  1  0  0  0
  2 26  2  0  0  0
  3  5  1  0  0  0
  3  9  1  0  0  0
  3 25  2  0  0  0
  4 18  1  0  0  0
  4 51  1  0  0  0
  4 52  1  0  0  0
  5  7  1  0  0  0
  5 53  1  0  0  0
  6 11  1  0  0  0
  6 54  1  0  0  0
  7 14  1  0  0  0
  7 55  1  0  0  0
  8 10  1  0  0  0
  8 64  1  0  0  0
  8 19  1  0  0  0
  9 15  1  0  0  0
  9 16  1  0  0  0
  9 56  1  0  0  0
 10 23  2  0  0  0
 10 14  1  0  0  0
 11 18  1  0  0  0
 11 27  1  0  0  0
 11 57  1  0  0  0
 12 16  1  0  0  0
 12 22  1  0  0  0
 12 32  2  0  0  0
 13 15  1  0  0  0
 13 21  1  0  0  0
 13 33  2  0  0  0
 14 58  1  0  0  0
 14 59  1  0  0  0
 15 60  1  0  0  0
 15 61  1  0  0  0
 16 62  1  0  0  0
 16 63  1  0  0  0
 17 19  2  0  0  0
 17 23  1  0  0  0
 18 30  1  0  0  0
 18 65  1  0  0  0
 19 66  1  0  0  0
 20 31  1  0  0  0
 20 37  1  0  0  0
 21 28  2  0  0  0
 21 39  1  0  0  0
 22 29  2  0  0  0
 22 38  1  0  0  0
 23 67  1  0  0  0
 27 36  1  0  0  0
 27 68  1  0  0  0
 27 69  1  0  0  0
 28 42  1  0  0  0
 28 40  1  0  0  0
 29 43  1  0  0  0
 29 41  1  0  0  0
 30 70  1  0  0  0
 31 44  1  0  0  0
 32 34  1  0  0  0
 32 71  1  0  0  0
 33 35  1  0  0  0
 33 72  1  0  0  0
 34 41  2  0  0  0
 34 73  1  0  0  0
 35 40  2  0  0  0
 35 74  1  0  0  0
 36 45  1  0  0  0
 36 46  1  0  0  0
 36 75  1  0  0  0
 37 76  1  0  0  0
 37 77  1  0  0  0
 37 78  1  0  0  0
 38 48  2  0  0  0
 38 79  1  0  0  0
 39 47  2  0  0  0
 39 80  1  0  0  0
 40 81  1  0  0  0
 41 82  1  0  0  0
 42 50  2  0  0  0
 42 83  1  0  0  0
 43 49  2  0  0  0
 43 84  1  0  0  0
 44 85  1  0  0  0
 44 86  1  0  0  0
 44 87  1  0  0  0
 45 88  1  0  0  0
 45 89  1  0  0  0
 45 90  1  0  0  0
 46 91  1  0  0  0
 46 92  1  0  0  0
 46 93  1  0  0  0
 47 50  1  0  0  0
 47 94  1  0  0  0
 48 49  1  0  0  0
 48 95  1  0  0  0
 49 96  1  0  0  0
 50 97  1  0  0  0
M  END
> <s_m_entry_id>
26335

> <s_m_entry_name>
dock_pv.159

> <s_m_Source_Path>
/home/csk/Desktop/cluster/DUD-E-result/reni

> <s_m_Source_File>
dock_pv.maegz

> <i_m_Source_File_Index>
159

> <chembl_id>
CHEMBL127776

> <chembl_pref_name>
None

> <i_lp_mmshare_version>
53161

> <r_lp_tautomer_probability>
0.499999999999999

> <s_lp_Force_Field>
OPLS_2005

> <r_lp_Energy>
35.935965

> <b_lp_Chiralities_Consistent>
1

> <s_lp_Variant>
CHEMBL286_lig508-14

> <s_i_glide_gridfile>
glide-grid_3g6z

> <i_i_glide_lignum>
1198

> <i_i_glide_rotatable_bonds>
20

> <r_i_docking_score>
-7.41745013159624

> <r_i_glide_ligand_efficiency>
-0.148349002631925

> <r_i_glide_ligand_efficiency_sa>
-0.546522397775227

> <r_i_glide_ligand_efficiency_ln>
-1.51006013681113

> <r_i_glide_gscore>
-7.41745013159624

> <r_i_glide_lipo>
-3.30378730773972

> <r_i_glide_hbond>
-0.32

> <r_i_glide_metal>
0

> <r_i_glide_rewards>
-0.49090344541649

> <r_i_glide_evdw>
-55.8614921569824

> <r_i_glide_ecoul>
-6.31550693511963

> <r_i_glide_erotb>
0.485287505141825

> <r_i_glide_esite>
-0.047646235464789

> <r_i_glide_emodel>
-85.0595476603511

> <r_i_glide_energy>
-62.1769990921021

> <r_i_glide_einternal>
12.3960037231445

> <i_i_glide_confnum>
31

> <i_i_glide_posenum>
398

> <r_i_glide_eff_state_penalty>
0

> <s_user_duplicate_titles>
CHEMBL286_lig508

> <i_f3d_flags>
0

> <s_m_subgroup_title>
dock_pv

> <s_m_subgroupid>
dock_pv

> <b_m_subgroup_collapsed>
1

$$$$
CHEMBL286_lig580
                    3D
 Schrodinger Suite 2021-1.
 87 88  0  0  1  0            999 V2000
   -9.0329  -17.6032  -10.7844 P   0  0  2  0  0  0
   -5.9435  -16.8801  -11.2521 C   0  0  0  0  0  0
   -5.1395  -17.3176  -12.2364 N   0  0  0  0  0  0
   -4.0665  -18.3148  -12.1098 C   0  0  2  0  0  0
   -7.0800  -15.9206  -11.6760 C   0  0  1  0  0  0
   -8.2803  -16.1519  -10.9273 O   0  0  0  0  0  0
   -4.6115  -19.7618  -11.8413 C   0  0  2  0  0  0
   -5.8917  -20.1622  -12.6596 C   0  0  2  0  0  0
   -8.6340  -18.4173   -9.6024 O   0  0  0  0  0  0
   -2.8868  -17.8036  -11.2158 C   0  0  0  0  0  0
   -5.8247  -17.2432  -10.0819 O   0  0  0  0  0  0
   -6.2928  -21.6617  -12.6075 C   0  0  0  0  0  0
   -8.7542  -18.3521  -12.1930 O   0  0  0  0  0  0
  -10.7950  -17.1089  -10.9654 C   0  0  0  0  0  0
   -4.8747  -19.9211  -10.4574 O   0  0  0  0  0  0
   -5.8646  -19.7159  -14.0135 O   0  0  0  0  0  0
   -1.5155  -18.5501  -11.2331 C   0  0  0  0  0  0
   -6.7028  -14.4302  -11.4588 C   0  0  0  0  0  0
  -11.5312  -15.2615   -8.2326 C   0  0  0  0  0  0
  -11.6410  -17.3806   -9.7148 C   0  0  0  0  0  0
   -5.6189  -22.6542  -13.6001 C   0  0  0  0  0  0
  -11.1624  -16.7301   -8.3961 C   0  0  0  0  0  0
  -12.7073  -14.9119   -7.5640 C   0  0  0  0  0  0
  -10.6599  -14.2660   -8.6769 C   0  0  0  0  0  0
   -1.1731  -19.2494  -12.5667 C   0  0  0  0  0  0
   -0.3680  -17.6249  -10.7271 C   0  0  0  0  0  0
   -5.5537  -13.9217  -12.3564 C   0  0  0  0  0  0
   -5.1451  -12.4648  -12.0719 C   0  0  0  0  0  0
   -6.2788  -24.0426  -13.5089 C   0  0  0  0  0  0
   -4.0943  -22.7844  -13.4276 C   0  0  0  0  0  0
   -4.0284  -11.9448  -12.9910 C   0  0  0  0  0  0
  -12.9903  -13.5714   -7.3076 C   0  0  0  0  0  0
  -10.9463  -12.9269   -8.4191 C   0  0  0  0  0  0
    0.2849  -19.6936  -12.7681 C   0  0  0  0  0  0
    1.0851  -18.0460  -11.0607 C   0  0  0  0  0  0
    1.2697  -18.5509  -12.4968 C   0  0  0  0  0  0
  -12.1103  -12.5836   -7.7377 C   0  0  0  0  0  0
   -5.2990  -16.9671  -13.1718 H   0  0  0  0  0  0
   -3.6829  -18.3402  -13.1302 H   0  0  0  0  0  0
   -7.3102  -16.0732  -12.7318 H   0  0  0  0  0  0
   -3.8265  -20.4746  -12.0628 H   0  0  0  0  0  0
   -6.7125  -19.6204  -12.1943 H   0  0  0  0  0  0
   -3.2246  -17.7167  -10.1836 H   0  0  0  0  0  0
   -2.7000  -16.7741  -11.5314 H   0  0  0  0  0  0
   -6.1734  -22.0290  -11.5880 H   0  0  0  0  0  0
   -7.3679  -21.7065  -12.7875 H   0  0  0  0  0  0
   -8.8210  -17.8330  -13.0333 H   0  0  0  0  0  0
  -10.8522  -16.0630  -11.2211 H   0  0  0  0  0  0
  -11.2162  -17.6514  -11.8115 H   0  0  0  0  0  0
   -5.3444  -19.1334  -10.1505 H   0  0  0  0  0  0
   -6.7573  -19.4602  -14.2804 H   0  0  0  0  0  0
   -1.5502  -19.3702  -10.5128 H   0  0  0  0  0  0
   -7.5855  -13.8136  -11.6444 H   0  0  0  0  0  0
   -6.4490  -14.2690  -10.4094 H   0  0  0  0  0  0
  -12.6682  -17.0826   -9.8976 H   0  0  0  0  0  0
  -11.6730  -18.4628   -9.6207 H   0  0  0  0  0  0
   -5.8002  -22.2909  -14.6147 H   0  0  0  0  0  0
  -11.5923  -17.2621   -7.5487 H   0  0  0  0  0  0
  -10.0895  -16.8472   -8.2492 H   0  0  0  0  0  0
  -13.3876  -15.6769   -7.2229 H   0  0  0  0  0  0
   -9.7496  -14.5287   -9.1977 H   0  0  0  0  0  0
   -1.3370  -18.4635  -13.2860 H   0  0  0  0  0  0
   -1.8706  -20.0429  -12.8256 H   0  0  0  0  0  0
   -0.4984  -17.3701   -9.6724 H   0  0  0  0  0  0
   -0.4707  -16.6763  -11.2607 H   0  0  0  0  0  0
   -4.6719  -14.5477  -12.2151 H   0  0  0  0  0  0
   -5.8517  -14.0307  -13.4022 H   0  0  0  0  0  0
   -6.0074  -11.8069  -12.1728 H   0  0  0  0  0  0
   -4.8152  -12.3765  -11.0356 H   0  0  0  0  0  0
   -6.1233  -24.4989  -12.5299 H   0  0  0  0  0  0
   -7.3535  -23.9839  -13.6784 H   0  0  0  0  0  0
   -5.8784  -24.7269  -14.2563 H   0  0  0  0  0  0
   -3.8329  -23.0066  -12.3927 H   0  0  0  0  0  0
   -3.6894  -23.5846  -14.0459 H   0  0  0  0  0  0
   -3.5774  -21.8759  -13.7276 H   0  0  0  0  0  0
   -3.8539  -10.8790  -12.8182 H   0  0  0  0  0  0
   -3.0928  -12.4749  -12.8156 H   0  0  0  0  0  0
   -4.2842  -12.0660  -14.0429 H   0  0  0  0  0  0
  -13.8715  -13.2945   -6.7556 H   0  0  0  0  0  0
  -10.2738  -12.1502   -8.7454 H   0  0  0  0  0  0
    0.4257  -20.0750  -13.7803 H   0  0  0  0  0  0
    0.4982  -20.5292  -12.0983 H   0  0  0  0  0  0
    1.7643  -17.2158  -10.8687 H   0  0  0  0  0  0
    1.3938  -18.8435  -10.3915 H   0  0  0  0  0  0
    1.1207  -17.7405  -13.2160 H   0  0  0  0  0  0
    2.2940  -18.9029  -12.6390 H   0  0  0  0  0  0
  -12.3297  -11.5444   -7.5383 H   0  0  0  0  0  0
  1  6  1  0  0  0
  1  9  2  0  0  0
  1 13  1  0  0  0
  1 14  1  0  0  0
  2  5  1  0  0  0
  2  3  1  0  0  0
  2 11  2  0  0  0
  3  4  1  0  0  0
  3 38  1  0  0  0
  4  7  1  0  0  0
  4 10  1  0  0  0
  4 39  1  0  0  0
  5  6  1  0  0  0
  5 18  1  0  0  0
  5 40  1  0  0  0
  7  8  1  0  0  0
  7 15  1  0  0  0
  7 41  1  0  0  0
  8 12  1  0  0  0
  8 16  1  0  0  0
  8 42  1  0  0  0
 10 17  1  0  0  0
 10 43  1  0  0  0
 10 44  1  0  0  0
 12 21  1  0  0  0
 12 45  1  0  0  0
 12 46  1  0  0  0
 13 47  1  0  0  0
 14 20  1  0  0  0
 14 48  1  0  0  0
 14 49  1  0  0  0
 15 50  1  0  0  0
 16 51  1  0  0  0
 17 25  1  0  0  0
 17 26  1  0  0  0
 17 52  1  0  0  0
 18 27  1  0  0  0
 18 53  1  0  0  0
 18 54  1  0  0  0
 19 22  1  0  0  0
 19 23  1  0  0  0
 19 24  2  0  0  0
 20 22  1  0  0  0
 20 55  1  0  0  0
 20 56  1  0  0  0
 21 29  1  0  0  0
 21 30  1  0  0  0
 21 57  1  0  0  0
 22 58  1  0  0  0
 22 59  1  0  0  0
 23 32  2  0  0  0
 23 60  1  0  0  0
 24 33  1  0  0  0
 24 61  1  0  0  0
 25 34  1  0  0  0
 25 62  1  0  0  0
 25 63  1  0  0  0
 26 35  1  0  0  0
 26 64  1  0  0  0
 26 65  1  0  0  0
 27 28  1  0  0  0
 27 66  1  0  0  0
 27 67  1  0  0  0
 28 31  1  0  0  0
 28 68  1  0  0  0
 28 69  1  0  0  0
 29 70  1  0  0  0
 29 71  1  0  0  0
 29 72  1  0  0  0
 30 73  1  0  0  0
 30 74  1  0  0  0
 30 75  1  0  0  0
 31 76  1  0  0  0
 31 77  1  0  0  0
 31 78  1  0  0  0
 32 37  1  0  0  0
 32 79  1  0  0  0
 33 37  2  0  0  0
 33 80  1  0  0  0
 34 36  1  0  0  0
 34 81  1  0  0  0
 34 82  1  0  0  0
 35 36  1  0  0  0
 35 83  1  0  0  0
 35 84  1  0  0  0
 36 85  1  0  0  0
 36 86  1  0  0  0
 37 87  1  0  0  0
M  END
> <s_m_entry_id>
26336

> <s_m_entry_name>
dock_pv.160

> <s_m_Source_Path>
/home/csk/Desktop/cluster/DUD-E-result/reni

> <s_m_Source_File>
dock_pv.maegz

> <i_m_Source_File_Index>
160

> <chembl_id>
CHEMBL144349

> <chembl_pref_name>
None

> <i_lp_mmshare_version>
53161

> <r_lp_tautomer_probability>
1

> <s_lp_Force_Field>
OPLS_2005

> <r_lp_Energy>
16.51034

> <b_lp_Chiralities_Consistent>
1

> <s_lp_Variant>
CHEMBL286_lig580-1

> <s_i_glide_gridfile>
glide-grid_3g6z

> <i_i_glide_lignum>
1628

> <i_i_glide_rotatable_bonds>
21

> <r_i_docking_score>
-7.39972845027273

> <r_i_glide_ligand_efficiency>
-0.199992660818182

> <r_i_glide_ligand_efficiency_sa>
-0.666419913745034

> <r_i_glide_ligand_efficiency_ln>
-1.60482762661659

> <r_i_glide_gscore>
-7.39972845027273

> <r_i_glide_lipo>
-3.73231160175397

> <r_i_glide_hbond>
-0.304

> <r_i_glide_metal>
0

> <r_i_glide_rewards>
-0.684301805824485

> <r_i_glide_evdw>
-40.5880012512207

> <r_i_glide_ecoul>
-10.8398494720459

> <r_i_glide_erotb>
0.99354799619118

> <r_i_glide_esite>
-0.0172855555175336

> <r_i_glide_emodel>
-68.1106231790057

> <r_i_glide_energy>
-51.4278507232666

> <r_i_glide_einternal>
15.9890813827515

> <i_i_glide_confnum>
154

> <i_i_glide_posenum>
261

> <r_i_glide_eff_state_penalty>
0

> <s_user_duplicate_titles>
CHEMBL286_lig580,243128

> <i_f3d_flags>
0

> <s_m_subgroup_title>
dock_pv

> <s_m_subgroupid>
dock_pv

> <b_m_subgroup_collapsed>
1

$$$$
CHEMBL286_lig2021
                    3D
 Schrodinger Suite 2021-1.
 49 51  0  0  1  0            999 V2000
   -9.8703  -18.5566  -10.4721 C   0  0  0  0  0  0
   -9.3807  -16.4136   -9.6423 C   0  0  1  0  0  0
  -10.0437  -17.1745  -10.6766 N   0  0  0  0  0  0
  -10.4646  -15.5833   -8.8871 C   0  0  0  0  0  0
  -11.5560  -16.2220   -8.2757 C   0  0  0  0  0  0
  -12.5368  -15.4937   -7.6108 C   0  0  0  0  0  0
  -12.4595  -14.1058   -7.5435 C   0  0  0  0  0  0
  -11.3824  -13.4517   -8.1513 C   0  0  0  0  0  0
  -10.4067  -14.1826   -8.8210 C   0  0  0  0  0  0
  -10.4034  -19.4171  -11.2203 N   0  0  0  0  0  0
   -9.0602  -18.6996   -9.3922 N   0  0  0  0  0  0
   -8.8299  -17.5340   -8.7465 C   0  0  0  0  0  0
   -8.5521  -19.9569   -8.8348 C   0  0  0  0  0  0
   -8.2739  -17.3684   -7.6585 O   0  0  0  0  0  0
   -8.1755  -15.5947  -10.2050 C   0  0  0  0  0  0
   -7.3518  -14.8610   -9.3303 C   0  0  0  0  0  0
   -6.2878  -14.0736   -9.8004 C   0  0  0  0  0  0
   -6.0175  -14.0656  -11.1721 C   0  0  0  0  0  0
   -6.7961  -14.8110  -12.0533 C   0  0  0  0  0  0
   -7.8664  -15.5641  -11.5772 C   0  0  0  0  0  0
  -13.4658  -13.4605   -6.8578 O   0  0  0  0  0  0
  -13.7768  -12.1143   -7.2001 C   0  0  0  0  0  0
  -14.3058  -12.0588   -8.4215 F   0  0  0  0  0  0
  -14.6694  -11.6604   -6.3258 F   0  0  0  0  0  0
   -5.4890  -13.2804   -8.9956 O   0  0  0  0  0  0
   -5.8054  -13.1027   -7.6168 C   0  0  0  0  0  0
   -5.0704  -11.8559   -7.0974 C   0  0  0  0  0  0
   -3.5503  -11.8950   -7.3068 C   0  0  0  0  0  0
   -2.9385  -10.8166   -6.8181 F   0  0  0  0  0  0
   -5.0008  -13.3172  -11.6600 F   0  0  0  0  0  0
  -11.6541  -17.2943   -8.3190 H   0  0  0  0  0  0
  -13.3671  -16.0078   -7.1488 H   0  0  0  0  0  0
  -11.2803  -12.3786   -8.1227 H   0  0  0  0  0  0
   -9.6106  -13.6269   -9.2896 H   0  0  0  0  0  0
  -10.1709  -20.3624  -10.9562 H   0  0  0  0  0  0
  -10.8802  -16.7404  -11.0356 H   0  0  0  0  0  0
   -8.6791  -20.7871   -9.5311 H   0  0  0  0  0  0
   -7.4868  -19.8762   -8.6177 H   0  0  0  0  0  0
   -9.0718  -20.2071   -7.9102 H   0  0  0  0  0  0
   -7.5689  -14.8966   -8.2737 H   0  0  0  0  0  0
   -6.5710  -14.7989  -13.1101 H   0  0  0  0  0  0
   -8.4487  -16.1217  -12.2982 H   0  0  0  0  0  0
  -12.9311  -11.4303   -7.1362 H   0  0  0  0  0  0
   -5.5141  -13.9888   -7.0510 H   0  0  0  0  0  0
   -6.8760  -12.9505   -7.4678 H   0  0  0  0  0  0
   -5.2817  -11.7283   -6.0349 H   0  0  0  0  0  0
   -5.4687  -10.9689   -7.5921 H   0  0  0  0  0  0
   -3.2974  -11.9465   -8.3671 H   0  0  0  0  0  0
   -3.1049  -12.7638   -6.8212 H   0  0  0  0  0  0
  1 11  1  0  0  0
  1 10  2  0  0  0
  1  3  1  0  0  0
  2  3  1  0  0  0
  2 12  1  0  0  0
  2 15  1  0  0  0
  2  4  1  0  0  0
  3 36  1  0  0  0
  4  9  1  0  0  0
  4  5  2  0  0  0
  5  6  1  0  0  0
  5 31  1  0  0  0
  6  7  2  0  0  0
  6 32  1  0  0  0
  7  8  1  0  0  0
  7 21  1  0  0  0
  8  9  2  0  0  0
  8 33  1  0  0  0
  9 34  1  0  0  0
 10 35  1  0  0  0
 11 12  1  0  0  0
 11 13  1  0  0  0
 12 14  2  0  0  0
 13 37  1  0  0  0
 13 38  1  0  0  0
 13 39  1  0  0  0
 15 16  2  0  0  0
 15 20  1  0  0  0
 16 17  1  0  0  0
 16 40  1  0  0  0
 17 18  2  0  0  0
 17 25  1  0  0  0
 18 19  1  0  0  0
 18 30  1  0  0  0
 19 20  2  0  0  0
 19 41  1  0  0  0
 20 42  1  0  0  0
 21 22  1  0  0  0
 22 23  1  0  0  0
 22 24  1  0  0  0
 22 43  1  0  0  0
 25 26  1  0  0  0
 26 27  1  0  0  0
 26 44  1  0  0  0
 26 45  1  0  0  0
 27 28  1  0  0  0
 27 46  1  0  0  0
 27 47  1  0  0  0
 28 29  1  0  0  0
 28 48  1  0  0  0
 28 49  1  0  0  0
M  END
> <s_m_entry_id>
26337

> <s_m_entry_name>
dock_pv.161

> <s_m_Source_Path>
/home/csk/Desktop/cluster/DUD-E-result/reni

> <s_m_Source_File>
dock_pv.maegz

> <i_m_Source_File_Index>
161

> <chembl_id>
CHEMBL1270029

> <chembl_pref_name>
None

> <i_lp_mmshare_version>
53161

> <r_lp_tautomer_probability>
0.499639836881432

> <s_lp_Force_Field>
OPLS_2005

> <r_lp_Energy>
34.614058

> <b_lp_Chiralities_Consistent>
1

> <s_lp_Variant>
CHEMBL286_lig2021-1

> <s_i_glide_gridfile>
glide-grid_3g6z

> <i_i_glide_lignum>
5820

> <i_i_glide_rotatable_bonds>
8

> <r_i_docking_score>
-7.39357174145818

> <r_i_glide_ligand_efficiency>
-0.246452391381939

> <r_i_glide_ligand_efficiency_sa>
-0.765784880803829

> <r_i_glide_ligand_efficiency_ln>
-1.67990005907572

> <r_i_glide_gscore>
-7.39357174145818

> <r_i_glide_lipo>
-3.34265137960966

> <r_i_glide_hbond>
0

> <r_i_glide_metal>
0

> <r_i_glide_rewards>
-2.43016761416036

> <r_i_glide_evdw>
-42.9505500793457

> <r_i_glide_ecoul>
-0.87220960855484

> <r_i_glide_erotb>
0.657767930591991

> <r_i_glide_esite>
-0.000161733029632554

> <r_i_glide_emodel>
-60.8367621865169

> <r_i_glide_energy>
-43.8227596879005

> <r_i_glide_einternal>
5.71469879150391

> <i_i_glide_confnum>
30

> <i_i_glide_posenum>
312

> <r_i_glide_eff_state_penalty>
0

> <s_user_duplicate_titles>
CHEMBL286_lig2021

> <i_f3d_flags>
0

> <s_m_subgroup_title>
dock_pv

> <s_m_subgroupid>
dock_pv

> <b_m_subgroup_collapsed>
1

$$$$
CHEMBL286_lig2920
                    3D
 Schrodinger Suite 2021-1.
 61 64  0  0  1  0            999 V2000
   -2.6528  -18.2962  -12.2837 N   0  0  0  0  0  0
   -2.2152  -17.8291  -10.9680 C   0  0  1  0  0  0
   -2.7402  -16.3599  -10.8514 C   0  0  0  0  0  0
   -4.2446  -16.2054  -11.1900 C   0  0  0  0  0  0
   -4.7035  -17.0744  -12.1542 N   0  0  0  0  0  0
   -3.9804  -18.0911  -12.7398 C   0  0  0  0  0  0
   -4.4469  -18.8629  -13.6210 N   0  0  0  0  0  0
   -4.9222  -15.3402  -10.6249 O   0  0  0  0  0  0
   -6.1285  -16.8916  -12.5273 C   0  0  0  0  0  0
   -7.1012  -17.6690  -11.6508 C   0  0  0  0  0  0
   -8.1156  -16.9806  -10.9907 C   0  0  0  0  0  0
   -9.0771  -17.6828  -10.2636 C   0  0  0  0  0  0
   -9.0019  -19.0792  -10.1670 C   0  0  0  0  0  0
   -7.9747  -19.7672  -10.8035 C   0  0  0  0  0  0
   -7.0325  -19.0652  -11.5469 C   0  0  0  0  0  0
   -2.7860  -18.7450   -9.8178 C   0  0  0  0  0  0
   -2.3028  -18.3578   -8.3999 C   0  0  0  0  0  0
   -2.5335  -20.2509  -10.0549 C   0  0  0  0  0  0
   -0.6704  -17.7631  -11.0078 C   0  0  0  0  0  0
  -10.1370  -16.9848   -9.6825 N   0  0  0  0  0  0
  -11.4300  -17.2635   -9.9713 C   0  0  0  0  0  0
  -12.2700  -16.2190   -9.2533 C   0  0  0  0  0  0
  -11.3508  -15.4959   -8.2870 C   0  0  1  0  0  0
   -9.9848  -15.7579   -8.9034 C   0  0  0  0  0  0
  -11.8695  -18.1767  -10.6704 O   0  0  0  0  0  0
  -11.7456  -14.0491   -7.9805 C   0  0  0  0  0  0
  -10.8162  -13.0016   -8.0268 C   0  0  0  0  0  0
  -11.2143  -11.6994   -7.7394 C   0  0  0  0  0  0
  -12.5396  -11.4496   -7.3977 C   0  0  0  0  0  0
  -13.4707  -12.4783   -7.3365 C   0  0  0  0  0  0
  -13.0696  -13.7785   -7.6205 C   0  0  0  0  0  0
   -7.9026  -21.1148  -10.7118 F   0  0  0  0  0  0
   -2.2598  -19.1865  -12.5527 H   0  0  0  0  0  0
   -2.5532  -15.9319   -9.8689 H   0  0  0  0  0  0
   -2.2266  -15.7079  -11.5596 H   0  0  0  0  0  0
   -5.3967  -18.6080  -13.8657 H   0  0  0  0  0  0
   -6.3937  -15.8324  -12.4945 H   0  0  0  0  0  0
   -6.3091  -17.1577  -13.5714 H   0  0  0  0  0  0
   -8.1835  -15.9078  -11.0902 H   0  0  0  0  0  0
   -9.7479  -19.6356   -9.6187 H   0  0  0  0  0  0
   -6.2706  -19.6339  -12.0521 H   0  0  0  0  0  0
   -3.8718  -18.6304   -9.8014 H   0  0  0  0  0  0
   -1.2241  -18.4748   -8.2906 H   0  0  0  0  0  0
   -2.7700  -18.9850   -7.6367 H   0  0  0  0  0  0
   -2.5564  -17.3297   -8.1419 H   0  0  0  0  0  0
   -1.4698  -20.4639  -10.1479 H   0  0  0  0  0  0
   -2.9231  -20.8538   -9.2341 H   0  0  0  0  0  0
   -3.0233  -20.6047  -10.9624 H   0  0  0  0  0  0
   -0.2584  -17.3261  -10.0971 H   0  0  0  0  0  0
   -0.2273  -18.7529  -11.1295 H   0  0  0  0  0  0
   -0.3124  -17.1582  -11.8419 H   0  0  0  0  0  0
  -12.6679  -15.5344  -10.0029 H   0  0  0  0  0  0
  -13.1162  -16.6840   -8.7470 H   0  0  0  0  0  0
  -11.3846  -16.0218   -7.3310 H   0  0  0  0  0  0
   -9.1490  -15.7615   -8.2079 H   0  0  0  0  0  0
   -9.7405  -14.9763   -9.6210 H   0  0  0  0  0  0
   -9.7833  -13.1819   -8.2828 H   0  0  0  0  0  0
  -10.5019  -10.8884   -7.7793 H   0  0  0  0  0  0
  -12.8574  -10.4492   -7.1674 H   0  0  0  0  0  0
  -14.4933  -12.2676   -7.0650 H   0  0  0  0  0  0
  -13.7968  -14.5747   -7.5650 H   0  0  0  0  0  0
  1  2  1  0  0  0
  1  6  1  0  0  0
  1 33  1  0  0  0
  2  3  1  0  0  0
  2 16  1  0  0  0
  2 19  1  0  0  0
  3  4  1  0  0  0
  3 34  1  0  0  0
  3 35  1  0  0  0
  4  5  1  0  0  0
  4  8  2  0  0  0
  5  6  1  0  0  0
  5  9  1  0  0  0
  6  7  2  0  0  0
  7 36  1  0  0  0
  9 10  1  0  0  0
  9 37  1  0  0  0
  9 38  1  0  0  0
 10 11  2  0  0  0
 10 15  1  0  0  0
 11 12  1  0  0  0
 11 39  1  0  0  0
 12 13  2  0  0  0
 12 20  1  0  0  0
 13 14  1  0  0  0
 13 40  1  0  0  0
 14 15  2  0  0  0
 14 32  1  0  0  0
 15 41  1  0  0  0
 16 17  1  0  0  0
 16 18  1  0  0  0
 16 42  1  0  0  0
 17 43  1  0  0  0
 17 44  1  0  0  0
 17 45  1  0  0  0
 18 46  1  0  0  0
 18 47  1  0  0  0
 18 48  1  0  0  0
 19 49  1  0  0  0
 19 50  1  0  0  0
 19 51  1  0  0  0
 20 21  1  0  0  0
 20 24  1  0  0  0
 21 22  1  0  0  0
 21 25  2  0  0  0
 22 23  1  0  0  0
 22 52  1  0  0  0
 22 53  1  0  0  0
 23 24  1  0  0  0
 23 26  1  0  0  0
 23 54  1  0  0  0
 24 55  1  0  0  0
 24 56  1  0  0  0
 26 27  2  0  0  0
 26 31  1  0  0  0
 27 28  1  0  0  0
 27 57  1  0  0  0
 28 29  2  0  0  0
 28 58  1  0  0  0
 29 30  1  0  0  0
 29 59  1  0  0  0
 30 31  2  0  0  0
 30 60  1  0  0  0
 31 61  1  0  0  0
M  END
> <s_m_entry_id>
26338

> <s_m_entry_name>
dock_pv.162

> <s_m_Source_Path>
/home/csk/Desktop/cluster/DUD-E-result/reni

> <s_m_Source_File>
dock_pv.maegz

> <i_m_Source_File_Index>
162

> <chembl_id>
CHEMBL3401344

> <chembl_pref_name>
None

> <i_lp_mmshare_version>
53161

> <r_lp_tautomer_probability>
0.5

> <s_lp_Force_Field>
OPLS_2005

> <r_lp_Energy>
58.094471

> <b_lp_Chiralities_Consistent>
1

> <s_lp_Variant>
CHEMBL286_lig2920-1

> <s_i_glide_gridfile>
glide-grid_3g6z

> <i_i_glide_lignum>
7136

> <i_i_glide_rotatable_bonds>
5

> <r_i_docking_score>
-7.38761483940971

> <r_i_glide_ligand_efficiency>
-0.230862963731554

> <r_i_glide_ligand_efficiency_sa>
-0.732944222129199

> <r_i_glide_ligand_efficiency_ln>
-1.65428834131865

> <r_i_glide_gscore>
-7.38761483940971

> <r_i_glide_lipo>
-2.64441932480113

> <r_i_glide_hbond>
-0.273538797246042

> <r_i_glide_metal>
0

> <r_i_glide_rewards>
-1.85868331291269

> <r_i_glide_evdw>
-37.8480186462402

> <r_i_glide_ecoul>
-7.43172740936279

> <r_i_glide_erotb>
0.418439651917378

> <r_i_glide_esite>
-0.0222530126508029

> <r_i_glide_emodel>
-63.5943907437722

> <r_i_glide_energy>
-45.279746055603

> <r_i_glide_einternal>
4.89725160598755

> <i_i_glide_confnum>
84

> <i_i_glide_posenum>
220

> <r_i_glide_eff_state_penalty>
0

> <s_user_duplicate_titles>
CHEMBL286_lig2920

> <i_f3d_flags>
0

> <s_m_subgroup_title>
dock_pv

> <s_m_subgroupid>
dock_pv

> <b_m_subgroup_collapsed>
1

$$$$
CHEMBL286_lig1398
                    3D
 Schrodinger Suite 2021-1.
103106  0  0  1  0            999 V2000
   -3.7222  -16.0629   -9.9729 N   0  0  0  0  0  0
   -5.0427  -16.3410   -9.4036 C   0  0  2  0  0  0
   -5.9513  -16.6334  -10.6275 C   0  0  0  0  0  0
   -2.5299  -16.1914   -9.3699 C   0  0  0  0  0  0
   -6.5219  -17.8510  -10.6872 N   0  0  0  0  0  0
   -1.2930  -16.0279  -10.2770 C   0  0  0  0  0  0
   -9.4576  -16.9110  -10.8720 C   0  0  0  0  0  0
   -7.4724  -18.2929  -11.7247 C   0  0  2  0  0  0
   -1.6273  -13.4249  -10.0205 C   0  0  0  0  0  0
    0.1636  -17.9699  -11.2083 C   0  0  0  0  0  0
  -10.8573  -16.8630  -10.2545 C   0  0  0  0  0  0
   -0.2206  -17.1252   -9.9968 C   0  0  0  0  0  0
   -0.6663  -14.6012  -10.2485 C   0  0  0  0  0  0
   -8.9336  -18.3308  -11.1936 C   0  0  1  0  0  0
   -1.6320  -12.6680   -8.7947 C   0  0  0  0  0  0
   -0.6337  -19.0965  -11.5998 C   0  0  0  0  0  0
   -5.7041  -15.2776   -8.5763 N   0  0  0  0  0  0
   -6.1318  -15.7604  -11.4794 O   0  0  0  0  0  0
  -10.9071  -16.4618   -8.9765 N   0  0  0  0  0  0
   -2.4011  -16.4607   -8.1759 O   0  0  0  0  0  0
   -7.0560  -19.6433  -12.3631 C   0  0  0  0  0  0
  -11.8489  -17.1510  -10.9255 O   0  0  0  0  0  0
   -0.1339  -19.9635  -12.6212 C   0  0  0  0  0  0
   -2.5630  -11.5854   -8.6620 C   0  0  0  0  0  0
  -12.1211  -16.1890   -8.2141 C   0  0  0  0  0  0
   -9.0071  -19.1625  -10.0394 O   0  0  0  0  0  0
    1.3612  -17.6964  -11.8720 C   0  0  0  0  0  0
   -2.5311  -13.0961  -11.0347 C   0  0  0  0  0  0
    1.8201  -18.5344  -12.8798 C   0  0  0  0  0  0
   -3.4453  -12.0638  -10.8801 C   0  0  0  0  0  0
   -5.5869  -19.7633  -12.8295 C   0  0  0  0  0  0
   -6.7942  -15.7969   -7.7518 C   0  0  0  0  0  0
   -4.8060  -14.5609   -7.6719 C   0  0  0  0  0  0
   -1.8680  -19.4379  -10.9793 C   0  0  0  0  0  0
   -0.7699  -12.9349   -7.6867 C   0  0  0  0  0  0
   -3.4682  -11.3121   -9.7108 C   0  0  0  0  0  0
    1.0988  -19.6627  -13.2470 C   0  0  0  0  0  0
  -12.6072  -14.7235   -8.3437 C   0  0  2  0  0  0
   -0.8607  -21.1312  -12.9709 C   0  0  0  0  0  0
   -2.5683  -10.7991   -7.4813 C   0  0  0  0  0  0
  -11.4882  -13.6761   -8.0885 C   0  0  0  0  0  0
   -5.1852  -18.6942  -13.8596 C   0  0  0  0  0  0
   -5.3154  -21.1790  -13.3680 C   0  0  0  0  0  0
  -13.8280  -14.4993   -7.4367 C   0  0  0  0  0  0
   -2.5434  -20.6022  -11.3218 C   0  0  0  0  0  0
   -0.7981  -12.1393   -6.5441 C   0  0  0  0  0  0
  -11.9168  -12.2100   -8.2708 C   0  0  0  0  0  0
   -2.0409  -21.4466  -12.3037 C   0  0  0  0  0  0
   -1.6835  -11.0721   -6.4444 C   0  0  0  0  0  0
   -3.7504  -15.7753  -10.9423 H   0  0  0  0  0  0
   -4.9385  -17.2621   -8.8224 H   0  0  0  0  0  0
   -6.3221  -18.5112   -9.9492 H   0  0  0  0  0  0
   -1.6543  -16.1797  -11.2984 H   0  0  0  0  0  0
   -8.7611  -16.3904  -10.2208 H   0  0  0  0  0  0
   -9.4688  -16.3211  -11.7867 H   0  0  0  0  0  0
   -7.4716  -17.5733  -12.5483 H   0  0  0  0  0  0
   -0.5132  -17.8149   -9.2035 H   0  0  0  0  0  0
    0.6860  -16.6856   -9.5780 H   0  0  0  0  0  0
    0.1773  -14.5454   -9.5680 H   0  0  0  0  0  0
   -0.1948  -14.4630  -11.2203 H   0  0  0  0  0  0
   -9.5774  -18.7726  -11.9578 H   0  0  0  0  0  0
  -10.0318  -16.3198   -8.4936 H   0  0  0  0  0  0
   -7.2460  -20.4413  -11.6442 H   0  0  0  0  0  0
   -7.7167  -19.8474  -13.2081 H   0  0  0  0  0  0
  -12.9198  -16.8831   -8.4864 H   0  0  0  0  0  0
  -11.8921  -16.4032   -7.1680 H   0  0  0  0  0  0
   -8.7470  -20.0513  -10.2887 H   0  0  0  0  0  0
    1.9570  -16.8451  -11.5797 H   0  0  0  0  0  0
   -2.5347  -13.6606  -11.9567 H   0  0  0  0  0  0
    2.7564  -18.3196  -13.3731 H   0  0  0  0  0  0
   -4.1395  -11.8418  -11.6765 H   0  0  0  0  0  0
   -4.9561  -19.6136  -11.9554 H   0  0  0  0  0  0
   -7.3280  -14.9711   -7.2800 H   0  0  0  0  0  0
   -7.5219  -16.3505   -8.3424 H   0  0  0  0  0  0
   -6.4312  -16.4619   -6.9688 H   0  0  0  0  0  0
   -5.3320  -13.7712   -7.1321 H   0  0  0  0  0  0
   -4.3601  -15.2352   -6.9395 H   0  0  0  0  0  0
   -4.0038  -14.0835   -8.2288 H   0  0  0  0  0  0
   -2.2809  -18.8100  -10.2061 H   0  0  0  0  0  0
   -0.0751  -13.7576   -7.7053 H   0  0  0  0  0  0
   -4.1770  -10.5037   -9.5994 H   0  0  0  0  0  0
    1.4770  -20.3179  -14.0190 H   0  0  0  0  0  0
  -12.9438  -14.5939   -9.3747 H   0  0  0  0  0  0
   -0.4743  -21.7896  -13.7349 H   0  0  0  0  0  0
   -3.2658   -9.9775   -7.3887 H   0  0  0  0  0  0
  -11.0814  -13.8032   -7.0845 H   0  0  0  0  0  0
  -10.6592  -13.8590   -8.7736 H   0  0  0  0  0  0
   -5.6849  -18.8625  -14.8133 H   0  0  0  0  0  0
   -5.4288  -17.6831  -13.5368 H   0  0  0  0  0  0
   -4.1068  -18.6995  -14.0204 H   0  0  0  0  0  0
   -5.9052  -21.3889  -14.2598 H   0  0  0  0  0  0
   -4.2658  -21.3132  -13.6210 H   0  0  0  0  0  0
   -5.5625  -21.9380  -12.6245 H   0  0  0  0  0  0
  -13.5533  -14.5489   -6.3822 H   0  0  0  0  0  0
  -14.2723  -13.5220   -7.6149 H   0  0  0  0  0  0
  -14.5979  -15.2520   -7.6193 H   0  0  0  0  0  0
   -3.4675  -20.8487  -10.8182 H   0  0  0  0  0  0
   -0.1313  -12.3565   -5.7225 H   0  0  0  0  0  0
  -11.0545  -11.5447   -8.2423 H   0  0  0  0  0  0
  -12.4164  -12.0603   -9.2263 H   0  0  0  0  0  0
  -12.5977  -11.8899   -7.4823 H   0  0  0  0  0  0
   -2.5765  -22.3491  -12.5551 H   0  0  0  0  0  0
   -1.6984  -10.4653   -5.5520 H   0  0  0  0  0  0
  1  2  1  0  0  0
  1  4  1  0  0  0
  1 50  1  0  0  0
  2  3  1  0  0  0
  2 17  1  0  0  0
  2 51  1  0  0  0
  3  5  1  0  0  0
  3 18  2  0  0  0
  4  6  1  0  0  0
  4 20  2  0  0  0
  5  8  1  0  0  0
  5 52  1  0  0  0
  6 12  1  0  0  0
  6 13  1  0  0  0
  6 53  1  0  0  0
  7 14  1  0  0  0
  7 11  1  0  0  0
  7 54  1  0  0  0
  7 55  1  0  0  0
  8 14  1  0  0  0
  8 21  1  0  0  0
  8 56  1  0  0  0
  9 13  1  0  0  0
  9 15  1  0  0  0
  9 28  2  0  0  0
 10 12  1  0  0  0
 10 16  1  0  0  0
 10 27  2  0  0  0
 11 19  1  0  0  0
 11 22  2  0  0  0
 12 57  1  0  0  0
 12 58  1  0  0  0
 13 59  1  0  0  0
 13 60  1  0  0  0
 14 26  1  0  0  0
 14 61  1  0  0  0
 15 24  1  0  0  0
 15 35  2  0  0  0
 16 23  1  0  0  0
 16 34  2  0  0  0
 17 32  1  0  0  0
 17 33  1  0  0  0
 19 25  1  0  0  0
 19 62  1  0  0  0
 21 31  1  0  0  0
 21 63  1  0  0  0
 21 64  1  0  0  0
 23 39  2  0  0  0
 23 37  1  0  0  0
 24 40  2  0  0  0
 24 36  1  0  0  0
 25 38  1  0  0  0
 25 65  1  0  0  0
 25 66  1  0  0  0
 26 67  1  0  0  0
 27 29  1  0  0  0
 27 68  1  0  0  0
 28 30  1  0  0  0
 28 69  1  0  0  0
 29 37  2  0  0  0
 29 70  1  0  0  0
 30 36  2  0  0  0
 30 71  1  0  0  0
 31 42  1  0  0  0
 31 43  1  0  0  0
 31 72  1  0  0  0
 32 73  1  0  0  0
 32 74  1  0  0  0
 32 75  1  0  0  0
 33 76  1  0  0  0
 33 77  1  0  0  0
 33 78  1  0  0  0
 34 45  1  0  0  0
 34 79  1  0  0  0
 35 46  1  0  0  0
 35 80  1  0  0  0
 36 81  1  0  0  0
 37 82  1  0  0  0
 38 41  1  0  0  0
 38 44  1  0  0  0
 38 83  1  0  0  0
 39 48  1  0  0  0
 39 84  1  0  0  0
 40 49  1  0  0  0
 40 85  1  0  0  0
 41 47  1  0  0  0
 41 86  1  0  0  0
 41 87  1  0  0  0
 42 88  1  0  0  0
 42 89  1  0  0  0
 42 90  1  0  0  0
 43 91  1  0  0  0
 43 92  1  0  0  0
 43 93  1  0  0  0
 44 94  1  0  0  0
 44 95  1  0  0  0
 44 96  1  0  0  0
 45 48  2  0  0  0
 45 97  1  0  0  0
 46 49  2  0  0  0
 46 98  1  0  0  0
 47 99  1  0  0  0
 47100  1  0  0  0
 47101  1  0  0  0
 48102  1  0  0  0
 49103  1  0  0  0
M  END
> <s_m_entry_id>
26339

> <s_m_entry_name>
dock_pv.163

> <s_m_Source_Path>
/home/csk/Desktop/cluster/DUD-E-result/reni

> <s_m_Source_File>
dock_pv.maegz

> <i_m_Source_File_Index>
163

> <chembl_id>
CHEMBL3350018

> <chembl_pref_name>
None

> <i_lp_mmshare_version>
53161

> <r_lp_tautomer_probability>
1

> <s_lp_Force_Field>
OPLS_2005

> <r_lp_Energy>
33.12585

> <b_lp_Chiralities_Consistent>
1

> <s_lp_Variant>
CHEMBL286_lig1398-1

> <s_i_glide_gridfile>
glide-grid_3g6z

> <i_i_glide_lignum>
4469

> <i_i_glide_rotatable_bonds>
21

> <r_i_docking_score>
-7.38652469282302

> <r_i_glide_ligand_efficiency>
-0.150745401894347

> <r_i_glide_ligand_efficiency_sa>
-0.551623509196086

> <r_i_glide_ligand_efficiency_ln>
-1.50997466028667

> <r_i_glide_gscore>
-7.38652469282302

> <r_i_glide_lipo>
-4.1481512444735

> <r_i_glide_hbond>
0

> <r_i_glide_metal>
0

> <r_i_glide_rewards>
-0.611211022507414

> <r_i_glide_evdw>
-60.5638656616211

> <r_i_glide_ecoul>
-1.02435612678528

> <r_i_glide_erotb>
0.558670371378557

> <r_i_glide_esite>
-0.00398609512181034

> <r_i_glide_emodel>
-82.9828694451951

> <r_i_glide_energy>
-61.5882217884064

> <r_i_glide_einternal>
13.6877222061157

> <i_i_glide_confnum>
8

> <i_i_glide_posenum>
364

> <r_i_glide_eff_state_penalty>
0

> <s_user_duplicate_titles>
CHEMBL286_lig1398

> <i_f3d_flags>
0

> <s_m_subgroup_title>
dock_pv

> <s_m_subgroupid>
dock_pv

> <b_m_subgroup_collapsed>
1

$$$$
CHEMBL286_lig1629
                    3D
 Schrodinger Suite 2021-1.
 91 92  0  0  1  0            999 V2000
   -8.8790  -14.0422   -8.8622 C   0  0  0  0  0  0
   -8.3995  -15.2144   -9.4635 C   0  0  0  0  0  0
   -7.0199  -15.4601   -9.4738 C   0  0  0  0  0  0
   -6.1317  -14.5565   -8.8989 C   0  0  0  0  0  0
   -6.5930  -13.3664   -8.3320 C   0  0  0  0  0  0
   -7.9681  -13.1170   -8.3284 C   0  0  0  0  0  0
   -5.6660  -12.3306   -7.6877 C   0  0  0  0  0  0
   -4.1235  -12.4287   -7.9251 C   0  0  1  0  0  0
   -3.7466  -12.2991   -9.4339 C   0  0  0  0  0  0
   -2.3241  -12.7775   -9.8687 C   0  0  1  0  0  0
   -2.2673  -14.2442  -10.4168 C   0  0  1  0  0  0
   -1.0953  -14.4728  -11.1854 O   0  0  0  0  0  0
   -2.2306  -15.3318   -9.3046 C   0  0  0  0  0  0
   -2.2604  -16.8118   -9.7906 C   0  0  2  0  0  0
   -3.6270  -17.1974  -10.3958 C   0  0  0  0  0  0
   -3.7923  -16.9521  -11.7066 N   0  0  0  0  0  0
   -4.5068  -17.6937   -9.6908 O   0  0  0  0  0  0
   -5.0023  -17.2201  -12.4879 C   0  0  0  0  0  0
   -4.7776  -18.2504  -13.6215 C   0  0  0  0  0  0
   -1.8691  -11.8141  -10.8625 N   0  0  0  0  0  0
   -3.3946  -11.4053   -6.9901 C   0  0  0  0  0  0
   -3.6096   -9.9206   -7.3470 C   0  0  0  0  0  0
   -1.8989  -11.6855   -6.7393 C   0  0  0  0  0  0
  -10.2523  -13.8894   -8.8210 O   0  0  0  0  0  0
  -10.8582  -12.7567   -8.2152 C   0  0  0  0  0  0
   -1.8299  -17.7831   -8.6681 C   0  0  0  0  0  0
   -9.3337  -16.0732  -10.0161 O   0  0  0  0  0  0
   -8.8936  -17.2265  -10.7283 C   0  0  0  0  0  0
  -12.3718  -13.0207   -8.1266 C   0  0  0  0  0  0
  -12.7757  -14.1062   -7.1026 C   0  0  0  0  0  0
  -12.0926  -15.3469   -7.2542 O   0  0  0  0  0  0
  -12.4309  -16.0973   -8.4137 C   0  0  0  0  0  0
   -5.0689  -19.6567  -13.3031 N   0  0  0  0  0  0
   -6.4940  -19.9372  -13.0632 C   0  0  0  0  0  0
   -6.7559  -21.4528  -12.9500 C   0  0  0  0  0  0
   -5.8432  -22.1299  -11.9149 C   0  0  0  0  0  0
   -4.3755  -21.7599  -12.1816 C   0  0  0  0  0  0
   -4.1801  -20.2346  -12.2879 C   0  0  0  0  0  0
   -6.6203  -16.3571   -9.9164 H   0  0  0  0  0  0
   -5.0835  -14.7948   -8.9175 H   0  0  0  0  0  0
   -8.3244  -12.2045   -7.8774 H   0  0  0  0  0  0
   -6.0110  -11.3460   -8.0068 H   0  0  0  0  0  0
   -5.8721  -12.3866   -6.6171 H   0  0  0  0  0  0
   -3.8299  -13.4169   -7.5770 H   0  0  0  0  0  0
   -4.4745  -12.8170  -10.0578 H   0  0  0  0  0  0
   -3.9171  -11.2562   -9.7055 H   0  0  0  0  0  0
   -1.6167  -12.7069   -9.0499 H   0  0  0  0  0  0
   -3.1181  -14.3965  -11.0836 H   0  0  0  0  0  0
   -0.9051  -13.6942  -11.7276 H   0  0  0  0  0  0
   -1.3183  -15.1752   -8.7246 H   0  0  0  0  0  0
   -3.0323  -15.1838   -8.5866 H   0  0  0  0  0  0
   -1.5148  -16.9298  -10.5783 H   0  0  0  0  0  0
   -3.0690  -16.4349  -12.1849 H   0  0  0  0  0  0
   -5.8482  -17.5032  -11.8612 H   0  0  0  0  0  0
   -5.3118  -16.2736  -12.9323 H   0  0  0  0  0  0
   -5.4858  -18.0159  -14.4188 H   0  0  0  0  0  0
   -3.7944  -18.1318  -14.0788 H   0  0  0  0  0  0
   -1.8919  -10.8838  -10.4730 H   0  0  0  0  0  0
   -0.9032  -11.9952  -11.1158 H   0  0  0  0  0  0
   -3.8686  -11.5304   -6.0206 H   0  0  0  0  0  0
   -3.1672   -9.6644   -8.3057 H   0  0  0  0  0  0
   -4.6661   -9.6631   -7.3883 H   0  0  0  0  0  0
   -3.1567   -9.2695   -6.6004 H   0  0  0  0  0  0
   -1.2668  -11.3044   -7.5407 H   0  0  0  0  0  0
   -1.5618  -11.1896   -5.8283 H   0  0  0  0  0  0
   -1.7009  -12.7513   -6.6168 H   0  0  0  0  0  0
  -10.6687  -11.8704   -8.8219 H   0  0  0  0  0  0
  -10.4602  -12.5685   -7.2210 H   0  0  0  0  0  0
   -1.8105  -18.8162   -9.0173 H   0  0  0  0  0  0
   -0.8289  -17.5507   -8.3057 H   0  0  0  0  0  0
   -2.5067  -17.7419   -7.8138 H   0  0  0  0  0  0
   -9.7620  -17.7665  -11.1062 H   0  0  0  0  0  0
   -8.2782  -16.9530  -11.5876 H   0  0  0  0  0  0
   -8.3338  -17.9081  -10.0851 H   0  0  0  0  0  0
  -12.7534  -13.2794   -9.1140 H   0  0  0  0  0  0
  -12.8742  -12.0924   -7.8567 H   0  0  0  0  0  0
  -13.8548  -14.2695   -7.1247 H   0  0  0  0  0  0
  -12.5530  -13.7428   -6.0979 H   0  0  0  0  0  0
  -11.8274  -17.0039   -8.4416 H   0  0  0  0  0  0
  -12.2337  -15.5527   -9.3376 H   0  0  0  0  0  0
  -13.4773  -16.3975   -8.3997 H   0  0  0  0  0  0
   -6.8476  -19.4110  -12.1770 H   0  0  0  0  0  0
   -7.0695  -19.5480  -13.9048 H   0  0  0  0  0  0
   -7.7979  -21.6132  -12.6732 H   0  0  0  0  0  0
   -6.6520  -21.9149  -13.9329 H   0  0  0  0  0  0
   -5.9737  -23.2123  -11.9436 H   0  0  0  0  0  0
   -6.1254  -21.8070  -10.9112 H   0  0  0  0  0  0
   -4.0003  -22.2443  -13.0838 H   0  0  0  0  0  0
   -3.7545  -22.1415  -11.3719 H   0  0  0  0  0  0
   -3.1462  -20.0332  -12.5742 H   0  0  0  0  0  0
   -4.3429  -19.7479  -11.3273 H   0  0  0  0  0  0
  1  2  2  0  0  0
  1  6  1  0  0  0
  1 24  1  0  0  0
  2  3  1  0  0  0
  2 27  1  0  0  0
  3  4  2  0  0  0
  3 39  1  0  0  0
  4  5  1  0  0  0
  4 40  1  0  0  0
  5  6  2  0  0  0
  5  7  1  0  0  0
  6 41  1  0  0  0
  7  8  1  0  0  0
  7 42  1  0  0  0
  7 43  1  0  0  0
  8  9  1  0  0  0
  8 21  1  0  0  0
  8 44  1  0  0  0
  9 10  1  0  0  0
  9 45  1  0  0  0
  9 46  1  0  0  0
 10 11  1  0  0  0
 10 20  1  0  0  0
 10 47  1  0  0  0
 11 12  1  0  0  0
 11 13  1  0  0  0
 11 48  1  0  0  0
 12 49  1  0  0  0
 13 14  1  0  0  0
 13 50  1  0  0  0
 13 51  1  0  0  0
 14 15  1  0  0  0
 14 26  1  0  0  0
 14 52  1  0  0  0
 15 16  1  0  0  0
 15 17  2  0  0  0
 16 18  1  0  0  0
 16 53  1  0  0  0
 18 19  1  0  0  0
 18 54  1  0  0  0
 18 55  1  0  0  0
 19 33  1  0  0  0
 19 56  1  0  0  0
 19 57  1  0  0  0
 20 58  1  0  0  0
 20 59  1  0  0  0
 21 22  1  0  0  0
 21 23  1  0  0  0
 21 60  1  0  0  0
 22 61  1  0  0  0
 22 62  1  0  0  0
 22 63  1  0  0  0
 23 64  1  0  0  0
 23 65  1  0  0  0
 23 66  1  0  0  0
 24 25  1  0  0  0
 25 29  1  0  0  0
 25 67  1  0  0  0
 25 68  1  0  0  0
 26 69  1  0  0  0
 26 70  1  0  0  0
 26 71  1  0  0  0
 27 28  1  0  0  0
 28 72  1  0  0  0
 28 73  1  0  0  0
 28 74  1  0  0  0
 29 30  1  0  0  0
 29 75  1  0  0  0
 29 76  1  0  0  0
 30 31  1  0  0  0
 30 77  1  0  0  0
 30 78  1  0  0  0
 31 32  1  0  0  0
 32 79  1  0  0  0
 32 80  1  0  0  0
 32 81  1  0  0  0
 33 34  1  0  0  0
 33 38  1  0  0  0
 34 35  1  0  0  0
 34 82  1  0  0  0
 34 83  1  0  0  0
 35 36  1  0  0  0
 35 84  1  0  0  0
 35 85  1  0  0  0
 36 37  1  0  0  0
 36 86  1  0  0  0
 36 87  1  0  0  0
 37 38  1  0  0  0
 37 88  1  0  0  0
 37 89  1  0  0  0
 38 90  1  0  0  0
 38 91  1  0  0  0
M  END
> <s_m_entry_id>
26340

> <s_m_entry_name>
dock_pv.164

> <s_m_Source_Path>
/home/csk/Desktop/cluster/DUD-E-result/reni

> <s_m_Source_File>
dock_pv.maegz

> <i_m_Source_File_Index>
164

> <chembl_id>
CHEMBL536522

> <chembl_pref_name>
None

> <i_lp_mmshare_version>
53161

> <r_lp_tautomer_probability>
1

> <s_lp_Force_Field>
OPLS_2005

> <r_lp_Energy>
47.029272

> <b_lp_Chiralities_Consistent>
1

> <s_lp_Variant>
CHEMBL286_lig1629-1

> <s_i_glide_gridfile>
glide-grid_3g6z

> <i_i_glide_lignum>
5335

> <i_i_glide_rotatable_bonds>
20

> <r_i_docking_score>
-7.38311327736816

> <r_i_glide_ligand_efficiency>
-0.194292454667583

> <r_i_glide_ligand_efficiency_sa>
-0.653206453526986

> <r_i_glide_ligand_efficiency_ln>
-1.59201641178862

> <r_i_glide_gscore>
-7.38311327736816

> <r_i_glide_lipo>
-3.42783993071068

> <r_i_glide_hbond>
-0.828816702582385

> <r_i_glide_metal>
0

> <r_i_glide_rewards>
-0.309040591788714

> <r_i_glide_evdw>
-37.5852012634277

> <r_i_glide_ecoul>
-13.4105806350708

> <r_i_glide_erotb>
1.07893546986489

> <r_i_glide_esite>
-0.00550436371926617

> <r_i_glide_emodel>
-67.0163186324618

> <r_i_glide_energy>
-50.9957818984985

> <r_i_glide_einternal>
13.7136001586914

> <i_i_glide_confnum>
48

> <i_i_glide_posenum>
198

> <r_i_glide_eff_state_penalty>
0

> <s_user_duplicate_titles>
CHEMBL286_lig1629,549632

> <i_f3d_flags>
0

> <s_m_subgroup_title>
dock_pv

> <s_m_subgroupid>
dock_pv

> <b_m_subgroup_collapsed>
1

$$$$
CHEMBL286_lig2473
                    3D
 Schrodinger Suite 2021-1.
 80 81  0  0  1  0            999 V2000
   -2.2167  -14.9005   -8.6644 C   0  0  0  0  0  0
   -2.7625  -14.1637   -9.9234 C   0  0  0  0  0  0
   -1.5569  -13.8730  -10.8578 C   0  0  0  0  0  0
   -8.9054  -19.4084   -9.1499 C   0  0  0  0  0  0
   -8.3362  -18.0299   -9.5812 C   0  0  0  0  0  0
   -6.9338  -17.7817   -9.0280 C   0  0  0  0  0  0
  -13.4691  -15.6539   -7.6203 C   0  0  0  0  0  0
  -13.1724  -14.3526   -7.2283 C   0  0  0  0  0  0
  -11.9791  -13.7624   -7.6342 C   0  0  0  0  0  0
  -11.0697  -14.4716   -8.4210 C   0  0  0  0  0  0
  -11.3585  -15.7965   -8.8161 C   0  0  0  0  0  0
  -12.5751  -16.3670   -8.4139 C   0  0  0  0  0  0
  -10.4584  -16.5799   -9.5817 N   0  0  0  0  0  0
   -9.1975  -16.9217   -8.9144 C   0  0  0  0  0  0
   -8.3789  -17.8425  -11.0391 N   0  0  2  0  0  0
   -9.7131  -17.7971  -11.6434 C   0  0  0  0  0  0
  -10.7803  -17.0475  -10.8213 C   0  0  0  0  0  0
  -11.8690  -16.8627  -11.3360 O   0  0  0  0  0  0
   -7.5178  -18.7240  -11.8539 C   0  0  0  0  0  0
   -6.1431  -18.1030  -12.2025 C   0  0  1  0  0  0
   -5.1826  -19.1650  -12.8046 C   0  0  2  0  0  0
   -6.2690  -16.9237  -13.0560 N   0  0  0  0  0  0
   -3.6971  -18.7414  -13.0048 C   0  0  0  0  0  0
   -5.7282  -19.6551  -14.0210 O   0  0  0  0  0  0
   -2.8158  -18.6485  -11.7122 C   0  0  2  0  0  0
   -3.2321  -17.4837  -10.7828 C   0  0  0  0  0  0
   -3.3012  -16.2546  -11.3221 N   0  0  0  0  0  0
   -3.5236  -17.7171   -9.6096 O   0  0  0  0  0  0
   -1.2710  -18.7403  -11.9918 C   0  0  0  0  0  0
   -9.6007  -13.6619   -8.8438 Cl  0  0  0  0  0  0
   -0.8401  -20.1531  -12.4532 C   0  0  0  0  0  0
   -0.3706  -18.3096  -10.8083 C   0  0  0  0  0  0
   -3.8191  -15.0561  -10.6515 C   0  0  0  0  0  0
   -3.4374  -12.8033   -9.5639 C   0  0  0  0  0  0
   -3.5113  -12.5309   -8.2346 O   0  0  0  0  0  0
   -3.8676  -12.0617  -10.4514 O   0  0  0  0  0  0
   -4.1030  -11.3221   -7.7759 C   0  0  0  0  0  0
   -1.6520  -15.7927   -8.9360 H   0  0  0  0  0  0
   -1.5394  -14.2752   -8.0815 H   0  0  0  0  0  0
   -3.0209  -15.2286   -8.0039 H   0  0  0  0  0  0
   -1.0164  -14.7852  -11.1094 H   0  0  0  0  0  0
   -1.8692  -13.4269  -11.8031 H   0  0  0  0  0  0
   -0.8313  -13.1945  -10.4083 H   0  0  0  0  0  0
   -9.0632  -19.4589   -8.0728 H   0  0  0  0  0  0
   -9.8658  -19.6236   -9.6194 H   0  0  0  0  0  0
   -8.2409  -20.2279   -9.4165 H   0  0  0  0  0  0
   -7.0275  -17.6170   -7.9634 H   0  0  0  0  0  0
   -6.2528  -18.6118   -9.2217 H   0  0  0  0  0  0
   -6.4850  -16.8766   -9.4399 H   0  0  0  0  0  0
  -14.3994  -16.1122   -7.3143 H   0  0  0  0  0  0
  -13.8669  -13.7993   -6.6147 H   0  0  0  0  0  0
  -11.7545  -12.7515   -7.3253 H   0  0  0  0  0  0
  -12.8321  -17.3698   -8.7231 H   0  0  0  0  0  0
   -8.6172  -16.0043   -8.9909 H   0  0  0  0  0  0
   -9.3166  -17.0799   -7.8421 H   0  0  0  0  0  0
   -9.6530  -17.2873  -12.6043 H   0  0  0  0  0  0
  -10.1050  -18.7960  -11.8439 H   0  0  0  0  0  0
   -7.9988  -19.0153  -12.7943 H   0  0  0  0  0  0
   -7.3435  -19.6577  -11.3198 H   0  0  0  0  0  0
   -5.7079  -17.7515  -11.2774 H   0  0  0  0  0  0
   -5.1702  -20.0248  -12.1321 H   0  0  0  0  0  0
   -5.3979  -16.6918  -13.5112 H   0  0  0  0  0  0
   -6.9630  -17.0913  -13.7816 H   0  0  0  0  0  0
   -3.6267  -17.8333  -13.6058 H   0  0  0  0  0  0
   -3.2416  -19.5103  -13.6211 H   0  0  0  0  0  0
   -6.2218  -18.9445  -14.4561 H   0  0  0  0  0  0
   -3.0469  -19.5425  -11.1276 H   0  0  0  0  0  0
   -3.0724  -16.1417  -12.2978 H   0  0  0  0  0  0
   -1.0395  -18.0632  -12.8118 H   0  0  0  0  0  0
   -1.0737  -20.9065  -11.7001 H   0  0  0  0  0  0
   -1.3155  -20.4570  -13.3846 H   0  0  0  0  0  0
    0.2347  -20.1993  -12.6324 H   0  0  0  0  0  0
   -0.6274  -18.8622   -9.9038 H   0  0  0  0  0  0
    0.6855  -18.4848  -11.0193 H   0  0  0  0  0  0
   -0.4690  -17.2466  -10.5860 H   0  0  0  0  0  0
   -4.6255  -15.3261   -9.9631 H   0  0  0  0  0  0
   -4.3084  -14.4849  -11.4443 H   0  0  0  0  0  0
   -4.0601  -11.2752   -6.6854 H   0  0  0  0  0  0
   -5.1498  -11.2598   -8.0772 H   0  0  0  0  0  0
   -3.5764  -10.4516   -8.1727 H   0  0  0  0  0  0
  1  2  1  0  0  0
  1 38  1  0  0  0
  1 39  1  0  0  0
  1 40  1  0  0  0
  2  3  1  0  0  0
  2 33  1  0  0  0
  2 34  1  0  0  0
  3 41  1  0  0  0
  3 42  1  0  0  0
  3 43  1  0  0  0
  4  5  1  0  0  0
  4 44  1  0  0  0
  4 45  1  0  0  0
  4 46  1  0  0  0
  5  6  1  0  0  0
  5 14  1  0  0  0
  5 15  1  0  0  0
  6 47  1  0  0  0
  6 48  1  0  0  0
  6 49  1  0  0  0
  7  8  2  0  0  0
  7 12  1  0  0  0
  7 50  1  0  0  0
  8  9  1  0  0  0
  8 51  1  0  0  0
  9 10  2  0  0  0
  9 52  1  0  0  0
 10 11  1  0  0  0
 10 30  1  0  0  0
 11 12  2  0  0  0
 11 13  1  0  0  0
 12 53  1  0  0  0
 13 14  1  0  0  0
 13 17  1  0  0  0
 14 54  1  0  0  0
 14 55  1  0  0  0
 15 16  1  0  0  0
 15 19  1  0  0  0
 16 17  1  0  0  0
 16 56  1  0  0  0
 16 57  1  0  0  0
 17 18  2  0  0  0
 19 20  1  0  0  0
 19 58  1  0  0  0
 19 59  1  0  0  0
 20 21  1  0  0  0
 20 22  1  0  0  0
 20 60  1  0  0  0
 21 23  1  0  0  0
 21 24  1  0  0  0
 21 61  1  0  0  0
 22 62  1  0  0  0
 22 63  1  0  0  0
 23 25  1  0  0  0
 23 64  1  0  0  0
 23 65  1  0  0  0
 24 66  1  0  0  0
 25 26  1  0  0  0
 25 29  1  0  0  0
 25 67  1  0  0  0
 26 27  1  0  0  0
 26 28  2  0  0  0
 27 33  1  0  0  0
 27 68  1  0  0  0
 29 31  1  0  0  0
 29 32  1  0  0  0
 29 69  1  0  0  0
 31 70  1  0  0  0
 31 71  1  0  0  0
 31 72  1  0  0  0
 32 73  1  0  0  0
 32 74  1  0  0  0
 32 75  1  0  0  0
 33 76  1  0  0  0
 33 77  1  0  0  0
 34 35  1  0  0  0
 34 36  2  0  0  0
 35 37  1  0  0  0
 37 78  1  0  0  0
 37 79  1  0  0  0
 37 80  1  0  0  0
M  END
> <s_m_entry_id>
26341

> <s_m_entry_name>
dock_pv.165

> <s_m_Source_Path>
/home/csk/Desktop/cluster/DUD-E-result/reni

> <s_m_Source_File>
dock_pv.maegz

> <i_m_Source_File_Index>
165

> <chembl_id>
CHEMBL2387542

> <chembl_pref_name>
None

> <i_lp_mmshare_version>
53161

> <r_lp_tautomer_probability>
1

> <s_lp_Force_Field>
OPLS_2005

> <r_lp_Energy>
77.683496

> <b_lp_Chiralities_Consistent>
1

> <s_lp_Variant>
CHEMBL286_lig2473-1

> <s_i_glide_gridfile>
glide-grid_3g6z

> <i_i_glide_lignum>
6533

> <i_i_glide_rotatable_bonds>
14

> <r_i_docking_score>
-7.37141018542372

> <r_i_glide_ligand_efficiency>
-0.199227302308749

> <r_i_glide_ligand_efficiency_sa>
-0.663869569398629

> <r_i_glide_ligand_efficiency_ln>
-1.59868605884515

> <r_i_glide_gscore>
-7.37141018542372

> <r_i_glide_lipo>
-2.98076742557125

> <r_i_glide_hbond>
-0.536863555021218

> <r_i_glide_metal>
0

> <r_i_glide_rewards>
-1.24413708460966

> <r_i_glide_evdw>
-39.6332054138184

> <r_i_glide_ecoul>
-9.33700752258301

> <r_i_glide_erotb>
0.782186816164839

> <r_i_glide_esite>
-0.00961753730805711

> <r_i_glide_emodel>
-62.5974721957011

> <r_i_glide_energy>
-48.9702129364014

> <r_i_glide_einternal>
8.82487106323242

> <i_i_glide_confnum>
3

> <i_i_glide_posenum>
89

> <r_i_glide_eff_state_penalty>
0

> <s_user_duplicate_titles>
CHEMBL286_lig2473

> <i_f3d_flags>
0

> <s_m_subgroup_title>
dock_pv

> <s_m_subgroupid>
dock_pv

> <b_m_subgroup_collapsed>
1

$$$$
CHEMBL286_lig1662
                    3D
 Schrodinger Suite 2021-1.
 90 91  0  0  1  0            999 V2000
  -10.6243  -14.2392   -8.7881 C   0  0  0  0  0  0
  -11.9791  -14.5075   -8.5231 C   0  0  0  0  0  0
  -12.4067  -15.8342   -8.4666 C   0  0  0  0  0  0
  -11.4994  -16.8629   -8.6738 C   0  0  0  0  0  0
  -10.1587  -16.6174   -8.9358 C   0  0  0  0  0  0
   -9.7324  -15.2920   -9.0124 C   0  0  0  0  0  0
   -9.1677  -17.7708   -9.0985 C   0  0  0  0  0  0
   -8.8000  -18.1441  -10.5643 C   0  0  1  0  0  0
   -7.4144  -18.8732  -10.5986 C   0  0  0  0  0  0
   -9.8919  -18.8826  -11.4097 C   0  0  0  0  0  0
  -11.2342  -18.1361  -11.5439 C   0  0  0  0  0  0
  -10.1428  -20.3564  -11.0258 C   0  0  0  0  0  0
  -12.8525  -13.4551   -8.3656 O   0  0  0  0  0  0
  -13.8681  -13.5860   -7.3810 C   0  0  0  0  0  0
  -10.1329  -12.9554   -8.8254 O   0  0  0  0  0  0
  -10.3069  -12.1595   -7.6712 C   0  0  0  0  0  0
  -11.2131  -10.9565   -7.9664 C   0  0  0  0  0  0
  -11.6090  -10.2744   -6.6591 C   0  0  0  0  0  0
  -10.3958   -9.7778   -6.1249 O   0  0  0  0  0  0
  -10.4772   -8.4630   -5.6338 C   0  0  0  0  0  0
   -6.5891  -18.6770  -11.9046 C   0  0  1  0  0  0
   -5.6212  -17.4464  -11.8662 C   0  0  2  0  0  0
   -5.8320  -19.9041  -12.1437 N   0  0  0  0  0  0
   -6.3262  -16.1312  -11.4599 C   0  0  0  0  0  0
   -5.0666  -17.2630  -13.1589 O   0  0  0  0  0  0
   -5.4422  -14.8526  -11.3040 C   0  0  2  0  0  0
   -5.5002  -14.3035   -9.8525 C   0  0  0  0  0  0
   -4.3550  -14.1819   -9.1611 N   0  0  0  0  0  0
   -6.5800  -13.9755   -9.3633 O   0  0  0  0  0  0
   -5.7945  -13.7647  -12.3744 C   0  0  0  0  0  0
   -4.2890  -13.5882   -7.8159 C   0  0  0  0  0  0
   -4.8007  -12.5823  -12.3672 C   0  0  0  0  0  0
   -7.2594  -13.2603  -12.3463 C   0  0  0  0  0  0
   -4.4959  -12.0476   -7.8270 C   0  0  2  0  0  0
   -3.4209  -11.4071   -8.5767 N   0  0  0  0  0  0
   -2.4698  -10.8233   -7.8412 C   0  0  0  0  0  0
   -3.0213  -10.7392   -6.4229 C   0  0  0  0  0  0
   -4.4103  -11.3641   -6.4680 C   0  0  0  0  0  0
   -1.3600  -10.4571   -8.2149 O   0  0  0  0  0  0
   -5.4647  -11.8224   -8.2768 H   0  0  0  0  0  0
  -13.4410  -16.0909   -8.3074 H   0  0  0  0  0  0
  -11.8683  -17.8617   -8.6819 H   0  0  0  0  0  0
   -8.6994  -15.0736   -9.2199 H   0  0  0  0  0  0
   -9.4716  -18.6551   -8.5402 H   0  0  0  0  0  0
   -8.2699  -17.4404   -8.5703 H   0  0  0  0  0  0
   -8.6839  -17.1922  -11.0744 H   0  0  0  0  0  0
   -7.5715  -19.9273  -10.3783 H   0  0  0  0  0  0
   -6.7848  -18.5497   -9.7682 H   0  0  0  0  0  0
   -9.4877  -18.8809  -12.4210 H   0  0  0  0  0  0
  -11.8992  -18.3561  -10.7167 H   0  0  0  0  0  0
  -11.1040  -17.0566  -11.6216 H   0  0  0  0  0  0
  -11.7823  -18.4601  -12.4213 H   0  0  0  0  0  0
  -10.3965  -20.4610   -9.9719 H   0  0  0  0  0  0
  -10.9647  -20.7793  -11.6049 H   0  0  0  0  0  0
   -9.2772  -20.9841  -11.2290 H   0  0  0  0  0  0
  -14.4347  -12.6578   -7.3296 H   0  0  0  0  0  0
  -14.5583  -14.3922   -7.6209 H   0  0  0  0  0  0
  -13.4367  -13.7707   -6.3959 H   0  0  0  0  0  0
  -10.6921  -12.7300   -6.8210 H   0  0  0  0  0  0
   -9.3206  -11.7791   -7.4036 H   0  0  0  0  0  0
  -10.6974  -10.2464   -8.6159 H   0  0  0  0  0  0
  -12.1113  -11.2407   -8.5079 H   0  0  0  0  0  0
  -12.3602   -9.5058   -6.8209 H   0  0  0  0  0  0
  -12.0593  -10.9890   -5.9730 H   0  0  0  0  0  0
   -9.4692   -8.0634   -5.6167 H   0  0  0  0  0  0
  -11.0624   -7.8012   -6.2766 H   0  0  0  0  0  0
  -10.8932   -8.4630   -4.6267 H   0  0  0  0  0  0
   -7.2757  -18.5556  -12.7445 H   0  0  0  0  0  0
   -4.8162  -17.6393  -11.1523 H   0  0  0  0  0  0
   -5.2206  -20.0923  -11.3624 H   0  0  0  0  0  0
   -6.4725  -20.6838  -12.2086 H   0  0  0  0  0  0
   -6.8340  -16.3139  -10.5155 H   0  0  0  0  0  0
   -7.1285  -15.9676  -12.1791 H   0  0  0  0  0  0
   -4.6266  -16.4078  -13.2003 H   0  0  0  0  0  0
   -4.4066  -15.1486  -11.4887 H   0  0  0  0  0  0
   -3.4864  -14.4785   -9.5828 H   0  0  0  0  0  0
   -5.6752  -14.2393  -13.3490 H   0  0  0  0  0  0
   -3.3192  -13.8306   -7.3804 H   0  0  0  0  0  0
   -5.0305  -14.0592   -7.1681 H   0  0  0  0  0  0
   -4.8850  -11.9849  -11.4613 H   0  0  0  0  0  0
   -3.7708  -12.9346  -12.4361 H   0  0  0  0  0  0
   -4.9695  -11.9209  -13.2159 H   0  0  0  0  0  0
   -7.5549  -12.8652  -11.3775 H   0  0  0  0  0  0
   -7.4067  -12.4637  -13.0706 H   0  0  0  0  0  0
   -7.9772  -14.0376  -12.6061 H   0  0  0  0  0  0
   -3.2987  -11.5729   -9.5646 H   0  0  0  0  0  0
   -2.3270  -11.2628   -5.7752 H   0  0  0  0  0  0
   -3.0541   -9.7068   -6.0740 H   0  0  0  0  0  0
   -4.6674  -12.0160   -5.6249 H   0  0  0  0  0  0
   -5.1278  -10.5409   -6.4394 H   0  0  0  0  0  0
  1  2  2  0  0  0
  1  6  1  0  0  0
  1 15  1  0  0  0
  2  3  1  0  0  0
  2 13  1  0  0  0
  3  4  2  0  0  0
  3 41  1  0  0  0
  4  5  1  0  0  0
  4 42  1  0  0  0
  5  6  2  0  0  0
  5  7  1  0  0  0
  6 43  1  0  0  0
  7  8  1  0  0  0
  7 44  1  0  0  0
  7 45  1  0  0  0
  8  9  1  0  0  0
  8 10  1  0  0  0
  8 46  1  0  0  0
  9 21  1  0  0  0
  9 47  1  0  0  0
  9 48  1  0  0  0
 10 11  1  0  0  0
 10 12  1  0  0  0
 10 49  1  0  0  0
 11 50  1  0  0  0
 11 51  1  0  0  0
 11 52  1  0  0  0
 12 53  1  0  0  0
 12 54  1  0  0  0
 12 55  1  0  0  0
 13 14  1  0  0  0
 14 56  1  0  0  0
 14 57  1  0  0  0
 14 58  1  0  0  0
 15 16  1  0  0  0
 16 17  1  0  0  0
 16 59  1  0  0  0
 16 60  1  0  0  0
 17 18  1  0  0  0
 17 61  1  0  0  0
 17 62  1  0  0  0
 18 19  1  0  0  0
 18 63  1  0  0  0
 18 64  1  0  0  0
 19 20  1  0  0  0
 20 65  1  0  0  0
 20 66  1  0  0  0
 20 67  1  0  0  0
 21 22  1  0  0  0
 21 23  1  0  0  0
 21 68  1  0  0  0
 22 24  1  0  0  0
 22 25  1  0  0  0
 22 69  1  0  0  0
 23 70  1  0  0  0
 23 71  1  0  0  0
 24 26  1  0  0  0
 24 72  1  0  0  0
 24 73  1  0  0  0
 25 74  1  0  0  0
 26 27  1  0  0  0
 26 30  1  0  0  0
 26 75  1  0  0  0
 27 28  1  0  0  0
 27 29  2  0  0  0
 28 31  1  0  0  0
 28 76  1  0  0  0
 30 32  1  0  0  0
 30 33  1  0  0  0
 30 77  1  0  0  0
 31 34  1  0  0  0
 31 78  1  0  0  0
 31 79  1  0  0  0
 32 80  1  0  0  0
 32 81  1  0  0  0
 32 82  1  0  0  0
 33 83  1  0  0  0
 33 84  1  0  0  0
 33 85  1  0  0  0
 34 35  1  0  0  0
 34 38  1  0  0  0
 34 40  1  0  0  0
 35 36  1  0  0  0
 35 86  1  0  0  0
 36 37  1  0  0  0
 36 39  2  0  0  0
 37 38  1  0  0  0
 37 87  1  0  0  0
 37 88  1  0  0  0
 38 89  1  0  0  0
 38 90  1  0  0  0
M  END
> <s_m_entry_id>
26342

> <s_m_entry_name>
dock_pv.166

> <s_m_Source_Path>
/home/csk/Desktop/cluster/DUD-E-result/reni

> <s_m_Source_File>
dock_pv.maegz

> <i_m_Source_File_Index>
166

> <chembl_id>
CHEMBL556783

> <chembl_pref_name>
None

> <i_lp_mmshare_version>
53161

> <r_lp_tautomer_probability>
1

> <s_lp_Force_Field>
OPLS_2005

> <r_lp_Energy>
44.102312

> <b_lp_Chiralities_Consistent>
1

> <s_lp_Variant>
CHEMBL286_lig1662-1

> <s_i_glide_gridfile>
glide-grid_3g6z

> <i_i_glide_lignum>
5370

> <i_i_glide_rotatable_bonds>
20

> <r_i_docking_score>
-7.36163339110965

> <r_i_glide_ligand_efficiency>
-0.188759830541273

> <r_i_glide_ligand_efficiency_sa>
-0.640124496531269

> <r_i_glide_ligand_efficiency_ln>
-1.57854317144476

> <r_i_glide_gscore>
-7.36163339110965

> <r_i_glide_lipo>
-4.12928904041872

> <r_i_glide_hbond>
-0.310821072508398

> <r_i_glide_metal>
0

> <r_i_glide_rewards>
-0.71394178098823

> <r_i_glide_evdw>
-44.2616386413574

> <r_i_glide_ecoul>
-6.36513423919678

> <r_i_glide_erotb>
0.960270570753084

> <r_i_glide_esite>
0

> <r_i_glide_emodel>
-57.6970935673572

> <r_i_glide_energy>
-50.6267728805542

> <r_i_glide_einternal>
17.2918071746826

> <i_i_glide_confnum>
135

> <i_i_glide_posenum>
388

> <r_i_glide_eff_state_penalty>
0

> <s_user_duplicate_titles>
CHEMBL286_lig1662,549862

> <i_f3d_flags>
0

> <s_m_subgroup_title>
dock_pv

> <s_m_subgroupid>
dock_pv

> <b_m_subgroup_collapsed>
1

$$$$
CHEMBL286_lig2101
                    3D
 Schrodinger Suite 2021-1.
 72 76  0  0  1  0            999 V2000
   -7.1509  -20.3516  -12.3567 C   0  0  0  0  0  0
   -5.7878  -20.9919  -12.6457 C   0  0  0  0  0  0
   -4.8320  -20.0198  -13.1855 N   0  0  1  0  0  0
   -4.7756  -18.6734  -12.5897 C   0  0  0  0  0  0
   -6.1072  -18.0878  -12.0156 C   0  0  1  0  0  0
   -6.9711  -19.2054  -11.3466 C   0  0  1  0  0  0
   -5.7362  -17.0934  -10.8711 C   0  0  0  0  0  0
   -6.1861  -15.8075  -10.8962 N   0  0  0  0  0  0
   -5.0709  -17.5277   -9.9238 O   0  0  0  0  0  0
   -6.7463  -15.1856  -12.1136 C   0  0  0  0  0  0
   -5.9402  -14.9247   -9.7318 C   0  0  0  0  0  0
   -8.2218  -15.3503  -12.4136 C   0  0  0  0  0  0
   -7.6954  -13.9977  -12.0382 C   0  0  0  0  0  0
   -4.8967  -13.8183   -9.8983 C   0  0  0  0  0  0
   -4.1885  -13.6581  -11.0890 C   0  0  0  0  0  0
   -3.3475  -12.5693  -11.2422 C   0  0  0  0  0  0
   -3.1120  -11.6634  -10.2651 N   0  0  0  0  0  0
   -8.3072  -18.6988  -10.7816 C   0  0  0  0  0  0
   -8.4204  -18.3021   -9.4858 C   0  0  0  0  0  0
   -9.5956  -17.6490   -8.9154 C   0  0  0  0  0  0
  -10.6524  -17.4812   -9.7913 N   0  0  0  0  0  0
  -10.5693  -17.9326  -11.0874 C   0  0  0  0  0  0
   -9.4832  -18.5230  -11.6208 C   0  0  0  0  0  0
   -9.5841  -17.2851   -7.7387 O   0  0  0  0  0  0
  -11.8684  -16.8408   -9.2816 C   0  0  0  0  0  0
   -2.7119  -12.3066  -12.5885 C   0  0  0  0  0  0
   -3.7080  -11.6611  -13.5753 C   0  0  0  0  0  0
   -3.2971  -11.7495  -15.0537 C   0  0  0  0  0  0
   -4.1466  -10.8981  -15.8085 O   0  0  0  0  0  0
   -4.1648  -11.2173  -17.1889 C   0  0  0  0  0  0
   -4.6708  -12.8868   -8.8353 C   0  0  0  0  0  0
   -3.7533  -11.8147   -9.0758 C   0  0  0  0  0  0
   -3.5021  -10.8642   -8.0586 C   0  0  0  0  0  0
   -4.1451  -10.9689   -6.8287 C   0  0  0  0  0  0
   -5.0368  -12.0074   -6.5896 C   0  0  0  0  0  0
   -5.3107  -12.9566   -7.5681 C   0  0  0  0  0  0
   -7.8332  -21.1080  -11.9655 H   0  0  0  0  0  0
   -7.5756  -20.0035  -13.2995 H   0  0  0  0  0  0
   -5.3637  -21.4119  -11.7324 H   0  0  0  0  0  0
   -5.9022  -21.8131  -13.3550 H   0  0  0  0  0  0
   -3.9036  -20.4233  -13.2174 H   0  0  0  0  0  0
   -4.3736  -17.9870  -13.3390 H   0  0  0  0  0  0
   -4.0166  -18.7632  -11.8103 H   0  0  0  0  0  0
   -6.6807  -17.6127  -12.8128 H   0  0  0  0  0  0
   -6.4228  -19.6424  -10.5074 H   0  0  0  0  0  0
   -6.0613  -15.2200  -12.9644 H   0  0  0  0  0  0
   -5.6561  -15.5060   -8.8531 H   0  0  0  0  0  0
   -6.8873  -14.4626   -9.4579 H   0  0  0  0  0  0
   -8.5220  -15.5406  -13.4437 H   0  0  0  0  0  0
   -8.8445  -15.8760  -11.6953 H   0  0  0  0  0  0
   -7.9786  -13.5744  -11.0755 H   0  0  0  0  0  0
   -7.6086  -13.2287  -12.8069 H   0  0  0  0  0  0
   -4.3067  -14.3365  -11.9201 H   0  0  0  0  0  0
   -7.5632  -18.3869   -8.8338 H   0  0  0  0  0  0
  -11.4734  -17.7552  -11.6536 H   0  0  0  0  0  0
   -9.4705  -18.8455  -12.6481 H   0  0  0  0  0  0
  -12.1889  -16.0457   -9.9571 H   0  0  0  0  0  0
  -12.6715  -17.5747   -9.2238 H   0  0  0  0  0  0
  -11.7529  -16.3979   -8.2910 H   0  0  0  0  0  0
   -1.8575  -11.6632  -12.4207 H   0  0  0  0  0  0
   -2.3181  -13.2448  -12.9826 H   0  0  0  0  0  0
   -4.6810  -12.1469  -13.4857 H   0  0  0  0  0  0
   -3.8692  -10.6235  -13.2830 H   0  0  0  0  0  0
   -2.2696  -11.4387  -15.2216 H   0  0  0  0  0  0
   -3.3714  -12.7869  -15.3820 H   0  0  0  0  0  0
   -4.7439  -10.4643  -17.7104 H   0  0  0  0  0  0
   -3.1651  -11.2495  -17.6240 H   0  0  0  0  0  0
   -4.6685  -12.1667  -17.3590 H   0  0  0  0  0  0
   -2.8072  -10.0606   -8.2444 H   0  0  0  0  0  0
   -3.9442  -10.2450   -6.0517 H   0  0  0  0  0  0
   -5.5037  -12.0796   -5.6218 H   0  0  0  0  0  0
   -6.0077  -13.7506   -7.3534 H   0  0  0  0  0  0
  1  6  1  0  0  0
  1  2  1  0  0  0
  1 37  1  0  0  0
  1 38  1  0  0  0
  2  3  1  0  0  0
  2 39  1  0  0  0
  2 40  1  0  0  0
  3  4  1  0  0  0
  3 41  1  0  0  0
  4  5  1  0  0  0
  4 42  1  0  0  0
  4 43  1  0  0  0
  5  6  1  0  0  0
  5  7  1  0  0  0
  5 44  1  0  0  0
  6 18  1  0  0  0
  6 45  1  0  0  0
  7  9  2  0  0  0
  7  8  1  0  0  0
  8 10  1  0  0  0
  8 11  1  0  0  0
 10 12  1  0  0  0
 10 13  1  0  0  0
 10 46  1  0  0  0
 11 14  1  0  0  0
 11 47  1  0  0  0
 11 48  1  0  0  0
 12 13  1  0  0  0
 12 49  1  0  0  0
 12 50  1  0  0  0
 13 51  1  0  0  0
 13 52  1  0  0  0
 14 31  1  0  0  0
 14 15  2  0  0  0
 15 16  1  0  0  0
 15 53  1  0  0  0
 16 26  1  0  0  0
 16 17  2  0  0  0
 17 32  1  0  0  0
 18 19  2  0  0  0
 18 23  1  0  0  0
 19 20  1  0  0  0
 19 54  1  0  0  0
 20 21  1  0  0  0
 20 24  2  0  0  0
 21 22  1  0  0  0
 21 25  1  0  0  0
 22 23  2  0  0  0
 22 55  1  0  0  0
 23 56  1  0  0  0
 25 57  1  0  0  0
 25 58  1  0  0  0
 25 59  1  0  0  0
 26 27  1  0  0  0
 26 60  1  0  0  0
 26 61  1  0  0  0
 27 28  1  0  0  0
 27 62  1  0  0  0
 27 63  1  0  0  0
 28 29  1  0  0  0
 28 64  1  0  0  0
 28 65  1  0  0  0
 29 30  1  0  0  0
 30 66  1  0  0  0
 30 67  1  0  0  0
 30 68  1  0  0  0
 31 32  1  0  0  0
 31 36  2  0  0  0
 32 33  2  0  0  0
 33 34  1  0  0  0
 33 69  1  0  0  0
 34 35  2  0  0  0
 34 70  1  0  0  0
 35 36  1  0  0  0
 35 71  1  0  0  0
 36 72  1  0  0  0
M  END
> <s_m_entry_id>
26343

> <s_m_entry_name>
dock_pv.167

> <s_m_Source_Path>
/home/csk/Desktop/cluster/DUD-E-result/reni

> <s_m_Source_File>
dock_pv.maegz

> <i_m_Source_File_Index>
167

> <chembl_id>
CHEMBL1796066

> <chembl_pref_name>
None

> <i_lp_mmshare_version>
53161

> <r_lp_tautomer_probability>
1

> <s_lp_Force_Field>
OPLS_2005

> <r_lp_Energy>
63.467916

> <b_lp_Chiralities_Consistent>
1

> <s_lp_Variant>
CHEMBL286_lig2101-1

> <s_i_glide_gridfile>
glide-grid_3g6z

> <i_i_glide_lignum>
6087

> <i_i_glide_rotatable_bonds>
10

> <r_i_docking_score>
-7.35619071186435

> <r_i_glide_ligand_efficiency>
-0.204338630885121

> <r_i_glide_ligand_efficiency_sa>
-0.674711292515455

> <r_i_glide_ligand_efficiency_ln>
-1.60492207202316

> <r_i_glide_gscore>
-7.35619071186435

> <r_i_glide_lipo>
-3.33671268609849

> <r_i_glide_hbond>
-0.608

> <r_i_glide_metal>
0

> <r_i_glide_rewards>
-0.362288358203754

> <r_i_glide_evdw>
-46.6560363769531

> <r_i_glide_ecoul>
-9.88475036621094

> <r_i_glide_erotb>
0.766655906078763

> <r_i_glide_esite>
-0.000331199861576319

> <r_i_glide_emodel>
-75.8919666570659

> <r_i_glide_energy>
-56.5407867431641

> <r_i_glide_einternal>
9.598388671875

> <i_i_glide_confnum>
132

> <i_i_glide_posenum>
38

> <r_i_glide_eff_state_penalty>
0

> <s_user_duplicate_titles>
CHEMBL286_lig2101

> <i_f3d_flags>
0

> <s_m_subgroup_title>
dock_pv

> <s_m_subgroupid>
dock_pv

> <b_m_subgroup_collapsed>
1

$$$$
CHEMBL286_lig261
                    3D
 Schrodinger Suite 2021-1.
 99102  0  0  1  0            999 V2000
   -2.2964  -14.5596   -7.8658 S   0  0  0  0  0  0
   -3.0072  -16.4797   -9.9707 C   0  0  2  0  0  0
   -3.9896  -17.5151  -10.5862 C   0  0  0  0  0  0
   -7.5746  -18.0498   -9.7769 C   0  0  0  0  0  0
   -8.7380  -18.1516  -10.4325 N   0  0  0  0  0  0
  -10.0731  -17.9695   -9.8427 C   0  0  2  0  0  0
   -5.1947  -17.6588  -10.0174 N   0  0  0  0  0  0
   -3.5575  -15.7048   -8.7302 C   0  0  0  0  0  0
   -6.3152  -18.3994  -10.5850 C   0  0  1  0  0  0
   -4.4521  -20.5960   -9.0336 N   0  0  0  0  0  0
  -11.1595  -18.6810  -10.7293 C   0  0  2  0  0  0
   -5.7132  -20.6663   -9.4291 C   0  0  0  0  0  0
   -6.0773  -19.9368  -10.7144 C   0  0  0  0  0  0
  -11.1171  -20.2541  -10.7864 C   0  0  2  0  0  0
   -5.6328  -22.0693   -7.2840 S   0  0  0  0  0  0
   -4.2478  -21.2653   -7.9327 C   0  0  0  0  0  0
   -1.2841  -14.0797   -8.8097 O   0  0  0  0  0  0
   -1.8697  -15.2018   -6.6186 O   0  0  0  0  0  0
   -3.2460  -13.1123   -7.3939 C   0  0  0  0  0  0
   -2.4423  -15.5519  -11.0927 C   0  0  0  0  0  0
   -6.5474  -21.4332   -8.6156 C   0  0  0  0  0  0
  -10.3574  -16.4478   -9.6140 C   0  0  0  0  0  0
   -3.6588  -18.1457  -11.5913 O   0  0  0  0  0  0
   -7.4765  -17.6957   -8.5991 O   0  0  0  0  0  0
   -9.7696  -20.8749  -11.2344 C   0  0  0  0  0  0
  -11.1003  -18.0906  -12.0200 O   0  0  0  0  0  0
   -3.2586  -14.3069  -11.4635 C   0  0  0  0  0  0
  -12.1568  -20.7623  -11.6207 O   0  0  0  0  0  0
  -11.1894  -16.0485   -8.3647 C   0  0  0  0  0  0
   -9.7908  -22.3538  -11.6983 C   0  0  0  0  0  0
   -4.6104  -13.2011   -7.1077 C   0  0  0  0  0  0
   -2.5879  -11.8848   -7.2703 C   0  0  0  0  0  0
   -4.6582  -14.3021  -11.5511 C   0  0  0  0  0  0
   -2.5480  -13.1750  -11.8472 C   0  0  0  0  0  0
  -13.4363  -20.9681  -11.0385 C   0  0  0  0  0  0
  -11.1562  -14.5097   -8.1357 C   0  0  0  0  0  0
  -12.6690  -16.4527   -8.4863 C   0  0  0  0  0  0
  -10.3872  -23.3168  -10.6497 C   0  0  0  0  0  0
   -8.3844  -22.8168  -12.1074 C   0  0  0  0  0  0
   -3.2766  -10.7700   -6.8001 C   0  0  0  0  0  0
   -5.2972  -12.0872   -6.6399 C   0  0  0  0  0  0
   -3.2062  -12.0803  -12.3936 C   0  0  0  0  0  0
   -5.3284  -13.1773  -12.0254 C   0  0  0  0  0  0
  -13.4760  -16.1040   -7.2286 C   0  0  0  0  0  0
  -11.9403  -14.0914   -6.8709 C   0  0  0  0  0  0
   -4.5900  -12.0730  -12.4409 C   0  0  0  0  0  0
  -13.3926  -14.5996   -6.8999 C   0  0  0  0  0  0
   -4.6177  -10.8876   -6.4447 C   0  0  0  0  0  0
   -2.1763  -17.0888   -9.6110 H   0  0  0  0  0  0
   -8.7278  -18.3852  -11.4177 H   0  0  0  0  0  0
  -10.0384  -18.4614   -8.8713 H   0  0  0  0  0  0
   -5.4211  -17.1585   -9.1691 H   0  0  0  0  0  0
   -3.9112  -16.3826   -7.9546 H   0  0  0  0  0  0
   -4.4037  -15.0922   -9.0243 H   0  0  0  0  0  0
   -6.4740  -18.0044  -11.5929 H   0  0  0  0  0  0
  -12.1512  -18.4256  -10.3798 H   0  0  0  0  0  0
   -6.9619  -20.3922  -11.1529 H   0  0  0  0  0  0
   -5.3073  -20.1145  -11.4650 H   0  0  0  0  0  0
  -11.2798  -20.6587   -9.7907 H   0  0  0  0  0  0
   -3.2845  -21.3233   -7.4473 H   0  0  0  0  0  0
   -1.4205  -15.2741  -10.8386 H   0  0  0  0  0  0
   -2.2946  -16.1011  -12.0222 H   0  0  0  0  0  0
   -7.6004  -21.6471   -8.7278 H   0  0  0  0  0  0
   -9.4120  -15.9087   -9.5543 H   0  0  0  0  0  0
  -10.8349  -16.0541  -10.5076 H   0  0  0  0  0  0
   -9.3304  -20.2666  -12.0205 H   0  0  0  0  0  0
   -9.0849  -20.7988  -10.3902 H   0  0  0  0  0  0
  -11.4577  -18.6932  -12.6894 H   0  0  0  0  0  0
  -10.7624  -16.5280   -7.4791 H   0  0  0  0  0  0
  -10.4131  -22.4097  -12.5924 H   0  0  0  0  0  0
   -5.1382  -14.1393   -7.1894 H   0  0  0  0  0  0
   -1.5366  -11.8073   -7.5036 H   0  0  0  0  0  0
   -5.2386  -15.1721  -11.2906 H   0  0  0  0  0  0
   -1.4720  -13.1859  -11.7715 H   0  0  0  0  0  0
  -14.1257  -21.3642  -11.7872 H   0  0  0  0  0  0
  -13.3973  -21.6746  -10.2165 H   0  0  0  0  0  0
  -13.8699  -20.0629  -10.6421 H   0  0  0  0  0  0
  -10.1329  -14.1366   -8.0643 H   0  0  0  0  0  0
  -11.5661  -14.0040   -9.0112 H   0  0  0  0  0  0
  -13.0690  -15.9575   -9.3639 H   0  0  0  0  0  0
  -12.7766  -17.5142   -8.6658 H   0  0  0  0  0  0
   -9.8192  -23.2930   -9.7174 H   0  0  0  0  0  0
  -11.4229  -23.0661  -10.4217 H   0  0  0  0  0  0
  -10.3882  -24.3444  -11.0209 H   0  0  0  0  0  0
   -7.7204  -22.8809  -11.2486 H   0  0  0  0  0  0
   -8.4104  -23.7971  -12.5813 H   0  0  0  0  0  0
   -7.9344  -22.1291  -12.8201 H   0  0  0  0  0  0
   -2.7654   -9.8285   -6.6708 H   0  0  0  0  0  0
   -6.3435  -12.1674   -6.3893 H   0  0  0  0  0  0
   -2.6607  -11.2483  -12.8119 H   0  0  0  0  0  0
   -6.4040  -13.1626  -12.0875 H   0  0  0  0  0  0
  -13.0816  -16.7111   -6.4214 H   0  0  0  0  0  0
  -14.5201  -16.4019   -7.3431 H   0  0  0  0  0  0
  -11.4666  -14.4916   -5.9723 H   0  0  0  0  0  0
  -11.9268  -13.0061   -6.7594 H   0  0  0  0  0  0
   -5.0691  -11.1910  -12.8207 H   0  0  0  0  0  0
  -13.8667  -14.3869   -5.9449 H   0  0  0  0  0  0
  -13.9457  -14.0294   -7.6461 H   0  0  0  0  0  0
   -5.1341  -10.0398   -6.0253 H   0  0  0  0  0  0
  1  8  1  0  0  0
  1 17  2  0  0  0
  1 18  2  0  0  0
  1 19  1  0  0  0
  2  8  1  0  0  0
  2  3  1  0  0  0
  2 20  1  0  0  0
  2 49  1  0  0  0
  3  7  1  0  0  0
  3 23  2  0  0  0
  4  9  1  0  0  0
  4  5  1  0  0  0
  4 24  2  0  0  0
  5  6  1  0  0  0
  5 50  1  0  0  0
  6 11  1  0  0  0
  6 22  1  0  0  0
  6 51  1  0  0  0
  7  9  1  0  0  0
  7 52  1  0  0  0
  8 53  1  0  0  0
  8 54  1  0  0  0
  9 13  1  0  0  0
  9 55  1  0  0  0
 10 12  1  0  0  0
 10 16  2  0  0  0
 11 14  1  0  0  0
 11 26  1  0  0  0
 11 56  1  0  0  0
 12 13  1  0  0  0
 12 21  2  0  0  0
 13 57  1  0  0  0
 13 58  1  0  0  0
 14 25  1  0  0  0
 14 28  1  0  0  0
 14 59  1  0  0  0
 15 21  1  0  0  0
 15 16  1  0  0  0
 16 60  1  0  0  0
 19 31  2  0  0  0
 19 32  1  0  0  0
 20 27  1  0  0  0
 20 61  1  0  0  0
 20 62  1  0  0  0
 21 63  1  0  0  0
 22 29  1  0  0  0
 22 64  1  0  0  0
 22 65  1  0  0  0
 25 30  1  0  0  0
 25 66  1  0  0  0
 25 67  1  0  0  0
 26 68  1  0  0  0
 27 33  2  0  0  0
 27 34  1  0  0  0
 28 35  1  0  0  0
 29 36  1  0  0  0
 29 37  1  0  0  0
 29 69  1  0  0  0
 30 38  1  0  0  0
 30 39  1  0  0  0
 30 70  1  0  0  0
 31 41  1  0  0  0
 31 71  1  0  0  0
 32 40  2  0  0  0
 32 72  1  0  0  0
 33 43  1  0  0  0
 33 73  1  0  0  0
 34 42  2  0  0  0
 34 74  1  0  0  0
 35 75  1  0  0  0
 35 76  1  0  0  0
 35 77  1  0  0  0
 36 45  1  0  0  0
 36 78  1  0  0  0
 36 79  1  0  0  0
 37 44  1  0  0  0
 37 80  1  0  0  0
 37 81  1  0  0  0
 38 82  1  0  0  0
 38 83  1  0  0  0
 38 84  1  0  0  0
 39 85  1  0  0  0
 39 86  1  0  0  0
 39 87  1  0  0  0
 40 48  1  0  0  0
 40 88  1  0  0  0
 41 48  2  0  0  0
 41 89  1  0  0  0
 42 46  1  0  0  0
 42 90  1  0  0  0
 43 46  2  0  0  0
 43 91  1  0  0  0
 44 47  1  0  0  0
 44 92  1  0  0  0
 44 93  1  0  0  0
 45 47  1  0  0  0
 45 94  1  0  0  0
 45 95  1  0  0  0
 46 96  1  0  0  0
 47 97  1  0  0  0
 47 98  1  0  0  0
 48 99  1  0  0  0
M  END
> <s_m_entry_id>
26344

> <s_m_entry_name>
dock_pv.168

> <s_m_Source_Path>
/home/csk/Desktop/cluster/DUD-E-result/reni

> <s_m_Source_File>
dock_pv.maegz

> <i_m_Source_File_Index>
168

> <chembl_id>
CHEMBL30968

> <chembl_pref_name>
None

> <i_lp_mmshare_version>
53161

> <r_lp_tautomer_probability>
1

> <s_lp_Force_Field>
OPLS_2005

> <r_lp_Energy>
25.246994

> <b_lp_Chiralities_Consistent>
1

> <s_lp_Variant>
CHEMBL286_lig261-2

> <s_i_glide_gridfile>
glide-grid_3g6z

> <i_i_glide_lignum>
410

> <i_i_glide_rotatable_bonds>
21

> <r_i_docking_score>
-7.33991720520558

> <r_i_glide_ligand_efficiency>
-0.152914941775116

> <r_i_glide_ligand_efficiency_sa>
-0.555729778585469

> <r_i_glide_ligand_efficiency_ln>
-1.50679825956054

> <r_i_glide_gscore>
-7.33991720520558

> <r_i_glide_lipo>
-4.32262595371119

> <r_i_glide_hbond>
0

> <r_i_glide_metal>
0

> <r_i_glide_rewards>
-0.806373276533312

> <r_i_glide_evdw>
-41.8374443054199

> <r_i_glide_ecoul>
-3.69679665565491

> <r_i_glide_erotb>
0.441717292611606

> <r_i_glide_esite>
-0.00624355395344937

> <r_i_glide_emodel>
-38.4385298869273

> <r_i_glide_energy>
-45.5342409610748

> <r_i_glide_einternal>
14.4446725845337

> <i_i_glide_confnum>
30

> <i_i_glide_posenum>
147

> <r_i_glide_eff_state_penalty>
0

> <s_user_duplicate_titles>
CHEMBL286_lig261

> <i_f3d_flags>
0

> <s_m_subgroup_title>
dock_pv

> <s_m_subgroupid>
dock_pv

> <b_m_subgroup_collapsed>
1

$$$$
CHEMBL286_lig2849
                    3D
 Schrodinger Suite 2021-1.
 82 85  0  0  1  0            999 V2000
  -10.2563  -18.3054  -10.5890 C   0  0  0  0  0  0
  -11.6916  -17.7612  -10.5776 C   0  0  0  0  0  0
  -11.7157  -16.2458  -10.3579 C   0  0  0  0  0  0
  -11.0869  -16.0073   -9.0624 N   0  0  0  0  0  0
   -9.6523  -16.2672   -9.0317 C   0  0  0  0  0  0
   -9.3231  -17.7039   -9.4855 C   0  0  2  0  0  0
   -7.7883  -17.9729   -9.7267 C   0  0  2  0  0  0
   -7.4832  -19.5187   -9.7284 C   0  0  0  0  0  0
   -8.1740  -20.3482   -8.8209 C   0  0  0  0  0  0
   -7.9766  -21.7202   -8.7585 C   0  0  0  0  0  0
   -7.0643  -22.3209   -9.6082 C   0  0  0  0  0  0
   -6.3317  -21.5451  -10.4967 C   0  0  0  0  0  0
   -6.5141  -20.1474  -10.5565 C   0  0  0  0  0  0
   -5.6250  -19.3935  -11.4633 C   0  0  0  0  0  0
   -4.3549  -19.0055  -11.0238 C   0  0  0  0  0  0
   -3.4680  -18.3704  -11.8918 C   0  0  0  0  0  0
   -3.8732  -18.1135  -13.2006 C   0  0  0  0  0  0
   -5.1504  -18.4528  -13.6328 C   0  0  0  0  0  0
   -6.0172  -19.1187  -12.7761 C   0  0  0  0  0  0
   -2.0766  -17.9713  -11.4231 C   0  0  0  0  0  0
   -1.0069  -19.0149  -11.7775 C   0  0  0  0  0  0
   -5.1829  -22.3663  -11.5061 Cl  0  0  0  0  0  0
   -6.8404  -17.2648   -8.6959 C   0  0  0  0  0  0
   -6.5515  -15.7320   -8.7232 C   0  0  0  0  0  0
   -5.8486  -15.2474   -7.4348 C   0  0  0  0  0  0
   -5.9013  -13.7951   -7.2560 N   0  0  0  0  0  0
   -4.7766  -12.9867   -7.2218 C   0  0  0  0  0  0
   -3.6089  -13.3511   -7.3750 O   0  0  0  0  0  0
   -5.1596  -11.7208   -6.9623 O   0  0  0  0  0  0
   -4.1874  -10.6915   -6.8219 C   0  0  0  0  0  0
   -7.5097  -17.3130  -10.9502 O   0  0  0  0  0  0
   -9.6404  -18.1997   -8.5748 H   0  0  0  0  0  0
  -11.7922  -15.6910   -7.9468 C   0  0  0  0  0  0
  -12.9607  -14.6841   -8.0811 C   0  0  2  0  0  0
  -12.6503  -13.5555   -9.0963 C   0  0  0  0  0  0
  -13.2810  -12.2648   -8.5720 C   0  0  1  0  0  0
  -14.0284  -12.6947   -7.3039 C   0  0  1  0  0  0
  -13.2787  -13.9202   -6.7815 C   0  0  0  0  0  0
  -14.2686  -11.6609   -6.3189 N   0  0  0  0  0  0
  -12.2734  -11.2668   -8.3503 O   0  0  0  0  0  0
  -11.4690  -16.0804   -6.8240 O   0  0  0  0  0  0
   -9.8689  -18.0045  -11.5642 H   0  0  0  0  0  0
  -10.2269  -19.3943  -10.6049 H   0  0  0  0  0  0
  -12.1872  -18.0072  -11.5179 H   0  0  0  0  0  0
  -12.2703  -18.2460   -9.7944 H   0  0  0  0  0  0
  -11.1309  -15.7440  -11.1225 H   0  0  0  0  0  0
  -12.6799  -15.7778  -10.4262 H   0  0  0  0  0  0
   -9.2334  -16.0626   -8.0481 H   0  0  0  0  0  0
   -9.2277  -15.5662   -9.7501 H   0  0  0  0  0  0
   -8.8799  -19.9620   -8.1092 H   0  0  0  0  0  0
   -8.5319  -22.3164   -8.0476 H   0  0  0  0  0  0
   -6.9109  -23.3893   -9.5668 H   0  0  0  0  0  0
   -4.0509  -19.2255  -10.0109 H   0  0  0  0  0  0
   -3.1934  -17.6631  -13.8996 H   0  0  0  0  0  0
   -5.4657  -18.2261  -14.6410 H   0  0  0  0  0  0
   -6.9959  -19.4115  -13.1322 H   0  0  0  0  0  0
   -2.0918  -17.8046  -10.3456 H   0  0  0  0  0  0
   -1.8203  -17.0041  -11.8583 H   0  0  0  0  0  0
   -0.0226  -18.6956  -11.4349 H   0  0  0  0  0  0
   -0.9459  -19.1724  -12.8547 H   0  0  0  0  0  0
   -1.2212  -19.9784  -11.3126 H   0  0  0  0  0  0
   -7.2105  -17.5251   -7.7058 H   0  0  0  0  0  0
   -5.8499  -17.6987   -8.8210 H   0  0  0  0  0  0
   -5.9216  -15.4994   -9.5827 H   0  0  0  0  0  0
   -7.4384  -15.1310   -8.8677 H   0  0  0  0  0  0
   -6.3516  -15.6699   -6.5640 H   0  0  0  0  0  0
   -4.8378  -15.6578   -7.3788 H   0  0  0  0  0  0
   -6.7972  -13.3617   -7.0896 H   0  0  0  0  0  0
   -4.6708   -9.7499   -6.5667 H   0  0  0  0  0  0
   -3.4766  -10.9301   -6.0294 H   0  0  0  0  0  0
   -3.6340  -10.5468   -7.7504 H   0  0  0  0  0  0
   -7.9540  -17.7700  -11.6679 H   0  0  0  0  0  0
  -13.8203  -15.2854   -8.3815 H   0  0  0  0  0  0
  -11.5734  -13.4133   -9.2045 H   0  0  0  0  0  0
  -13.0515  -13.7758  -10.0804 H   0  0  0  0  0  0
  -14.0606  -12.0314   -9.2914 H   0  0  0  0  0  0
  -15.0234  -13.0019   -7.6210 H   0  0  0  0  0  0
  -13.8688  -14.5064   -6.0834 H   0  0  0  0  0  0
  -12.3699  -13.6145   -6.2562 H   0  0  0  0  0  0
  -14.7308  -12.0574   -5.5151 H   0  0  0  0  0  0
  -13.3756  -11.3283   -5.9853 H   0  0  0  0  0  0
  -12.7006  -10.4080   -8.2396 H   0  0  0  0  0  0
  1  2  1  0  0  0
  1  6  1  0  0  0
  1 42  1  0  0  0
  1 43  1  0  0  0
  2  3  1  0  0  0
  2 44  1  0  0  0
  2 45  1  0  0  0
  3  4  1  0  0  0
  3 46  1  0  0  0
  3 47  1  0  0  0
  4  5  1  0  0  0
  4 33  1  0  0  0
  5  6  1  0  0  0
  5 48  1  0  0  0
  5 49  1  0  0  0
  6  7  1  0  0  0
  6 32  1  0  0  0
  7  8  1  0  0  0
  7 23  1  0  0  0
  7 31  1  0  0  0
  8  9  2  0  0  0
  8 13  1  0  0  0
  9 10  1  0  0  0
  9 50  1  0  0  0
 10 11  2  0  0  0
 10 51  1  0  0  0
 11 12  1  0  0  0
 11 52  1  0  0  0
 12 13  2  0  0  0
 12 22  1  0  0  0
 13 14  1  0  0  0
 14 15  2  0  0  0
 14 19  1  0  0  0
 15 16  1  0  0  0
 15 53  1  0  0  0
 16 17  2  0  0  0
 16 20  1  0  0  0
 17 18  1  0  0  0
 17 54  1  0  0  0
 18 19  2  0  0  0
 18 55  1  0  0  0
 19 56  1  0  0  0
 20 21  1  0  0  0
 20 57  1  0  0  0
 20 58  1  0  0  0
 21 59  1  0  0  0
 21 60  1  0  0  0
 21 61  1  0  0  0
 23 24  1  0  0  0
 23 62  1  0  0  0
 23 63  1  0  0  0
 24 25  1  0  0  0
 24 64  1  0  0  0
 24 65  1  0  0  0
 25 26  1  0  0  0
 25 66  1  0  0  0
 25 67  1  0  0  0
 26 27  1  0  0  0
 26 68  1  0  0  0
 27 28  2  0  0  0
 27 29  1  0  0  0
 29 30  1  0  0  0
 30 69  1  0  0  0
 30 70  1  0  0  0
 30 71  1  0  0  0
 31 72  1  0  0  0
 33 34  1  0  0  0
 33 41  2  0  0  0
 34 35  1  0  0  0
 34 38  1  0  0  0
 34 73  1  0  0  0
 35 36  1  0  0  0
 35 74  1  0  0  0
 35 75  1  0  0  0
 36 37  1  0  0  0
 36 40  1  0  0  0
 36 76  1  0  0  0
 37 38  1  0  0  0
 37 39  1  0  0  0
 37 77  1  0  0  0
 38 78  1  0  0  0
 38 79  1  0  0  0
 39 80  1  0  0  0
 39 81  1  0  0  0
 40 82  1  0  0  0
M  END
> <s_m_entry_id>
26345

> <s_m_entry_name>
dock_pv.169

> <s_m_Source_Path>
/home/csk/Desktop/cluster/DUD-E-result/reni

> <s_m_Source_File>
dock_pv.maegz

> <i_m_Source_File_Index>
169

> <chembl_id>
CHEMBL4210026

> <chembl_pref_name>
None

> <i_lp_mmshare_version>
53161

> <r_lp_tautomer_probability>
1

> <s_lp_Force_Field>
OPLS_2005

> <r_lp_Energy>
79.169863

> <b_lp_Chiralities_Consistent>
1

> <s_lp_Variant>
CHEMBL286_lig2849-2

> <s_i_glide_gridfile>
glide-grid_3g6z

> <i_i_glide_lignum>
6963

> <i_i_glide_rotatable_bonds>
14

> <r_i_docking_score>
-7.33237850711405

> <r_i_glide_ligand_efficiency>
-0.183309462677851

> <r_i_glide_ligand_efficiency_sa>
-0.626909543183846

> <r_i_glide_ligand_efficiency_ln>
-1.56378055330059

> <r_i_glide_gscore>
-7.33237850711405

> <r_i_glide_lipo>
-3.5351005441638

> <r_i_glide_hbond>
-0.32

> <r_i_glide_metal>
0

> <r_i_glide_rewards>
-1.07909704961185

> <r_i_glide_evdw>
-45.1762313842773

> <r_i_glide_ecoul>
-4.56372880935669

> <r_i_glide_erotb>
0.545189977278969

> <r_i_glide_esite>
0

> <r_i_glide_emodel>
-65.4998444869584

> <r_i_glide_energy>
-49.739960193634

> <r_i_glide_einternal>
13.2824249267578

> <i_i_glide_confnum>
251

> <i_i_glide_posenum>
338

> <r_i_glide_eff_state_penalty>
0

> <s_user_duplicate_titles>
CHEMBL286_lig2849

> <i_f3d_flags>
0

> <s_m_subgroup_title>
dock_pv

> <s_m_subgroupid>
dock_pv

> <b_m_subgroup_collapsed>
1

$$$$
CHEMBL286_lig2921
                    3D
 Schrodinger Suite 2021-1.
 61 64  0  0  1  0            999 V2000
   -2.5084  -18.3130  -11.9833 N   0  0  0  0  0  0
   -2.2321  -18.1947  -10.5531 C   0  0  1  0  0  0
   -2.7141  -16.7608  -10.1512 C   0  0  0  0  0  0
   -4.1445  -16.4185  -10.6405 C   0  0  0  0  0  0
   -4.5150  -17.0356  -11.8149 N   0  0  0  0  0  0
   -3.7583  -17.9396  -12.5305 C   0  0  0  0  0  0
   -4.1186  -18.4629  -13.6209 N   0  0  0  0  0  0
   -4.8449  -15.6311   -9.9993 O   0  0  0  0  0  0
   -5.8812  -16.6967  -12.2893 C   0  0  0  0  0  0
   -6.9748  -17.5715  -11.6865 C   0  0  0  0  0  0
   -7.9894  -16.9806  -10.9361 C   0  0  0  0  0  0
   -9.0503  -17.7519  -10.4473 C   0  0  0  0  0  0
   -9.0546  -19.1370  -10.6770 C   0  0  0  0  0  0
   -8.0369  -19.7321  -11.4152 C   0  0  0  0  0  0
   -7.0056  -18.9499  -11.9265 C   0  0  0  0  0  0
   -2.9850  -19.2985   -9.7103 C   0  0  0  0  0  0
   -2.5587  -19.3497   -8.2244 C   0  0  0  0  0  0
   -2.8979  -20.7187  -10.3166 C   0  0  0  0  0  0
   -0.6935  -18.2371  -10.4116 C   0  0  0  0  0  0
  -10.1117  -17.1174   -9.7747 N   0  0  0  0  0  0
  -11.4144  -17.3923  -10.0338 C   0  0  0  0  0  0
  -12.2467  -16.3664   -9.2837 C   0  0  0  0  0  0
  -11.3166  -15.6256   -8.3445 C   0  0  1  0  0  0
   -9.9552  -15.9106   -8.9587 C   0  0  0  0  0  0
  -11.8794  -18.2806  -10.7474 O   0  0  0  0  0  0
  -11.6838  -14.1554   -8.1025 C   0  0  0  0  0  0
  -10.7084  -13.1512   -8.0216 C   0  0  0  0  0  0
  -11.0735  -11.8225   -7.7991 C   0  0  0  0  0  0
  -12.4189  -11.4865   -7.6606 C   0  0  0  0  0  0
  -13.3991  -12.4721   -7.7440 C   0  0  0  0  0  0
  -13.0293  -13.8027   -7.9411 C   0  0  0  0  0  0
  -15.0682  -12.0518   -7.6216 Cl  0  0  0  0  0  0
   -2.1171  -19.1436  -12.3977 H   0  0  0  0  0  0
   -2.6709  -16.6040   -9.0734 H   0  0  0  0  0  0
   -2.0692  -15.9992  -10.5933 H   0  0  0  0  0  0
   -5.0173  -18.1096  -13.9258 H   0  0  0  0  0  0
   -6.1098  -15.6506  -12.0715 H   0  0  0  0  0  0
   -5.9603  -16.7423  -13.3787 H   0  0  0  0  0  0
   -7.9673  -15.9126  -10.7816 H   0  0  0  0  0  0
   -9.8571  -19.7564  -10.2985 H   0  0  0  0  0  0
   -8.0619  -20.7938  -11.6098 H   0  0  0  0  0  0
   -6.2463  -19.4261  -12.5244 H   0  0  0  0  0  0
   -4.0499  -19.0569   -9.7081 H   0  0  0  0  0  0
   -1.5225  -19.6730   -8.1126 H   0  0  0  0  0  0
   -3.1753  -20.0519   -7.6579 H   0  0  0  0  0  0
   -2.6612  -18.3843   -7.7322 H   0  0  0  0  0  0
   -1.8666  -21.0585  -10.3980 H   0  0  0  0  0  0
   -3.4317  -21.4465   -9.7064 H   0  0  0  0  0  0
   -3.3432  -20.7607  -11.3137 H   0  0  0  0  0  0
   -0.3741  -18.0487   -9.3869 H   0  0  0  0  0  0
   -0.2905  -19.2027  -10.7200 H   0  0  0  0  0  0
   -0.2042  -17.4897  -11.0374 H   0  0  0  0  0  0
  -12.6692  -15.6842  -10.0211 H   0  0  0  0  0  0
  -13.0739  -16.8402   -8.7575 H   0  0  0  0  0  0
  -11.3588  -16.1150   -7.3687 H   0  0  0  0  0  0
   -9.1249  -15.9410   -8.2522 H   0  0  0  0  0  0
   -9.7018  -15.1179   -9.6607 H   0  0  0  0  0  0
   -9.6613  -13.3874   -8.1205 H   0  0  0  0  0  0
  -10.3154  -11.0557   -7.7335 H   0  0  0  0  0  0
  -12.7045  -10.4620   -7.4969 H   0  0  0  0  0  0
  -13.8020  -14.5565   -7.9852 H   0  0  0  0  0  0
  1  2  1  0  0  0
  1  6  1  0  0  0
  1 33  1  0  0  0
  2  3  1  0  0  0
  2 16  1  0  0  0
  2 19  1  0  0  0
  3  4  1  0  0  0
  3 34  1  0  0  0
  3 35  1  0  0  0
  4  5  1  0  0  0
  4  8  2  0  0  0
  5  6  1  0  0  0
  5  9  1  0  0  0
  6  7  2  0  0  0
  7 36  1  0  0  0
  9 10  1  0  0  0
  9 37  1  0  0  0
  9 38  1  0  0  0
 10 11  2  0  0  0
 10 15  1  0  0  0
 11 12  1  0  0  0
 11 39  1  0  0  0
 12 13  2  0  0  0
 12 20  1  0  0  0
 13 14  1  0  0  0
 13 40  1  0  0  0
 14 15  2  0  0  0
 14 41  1  0  0  0
 15 42  1  0  0  0
 16 17  1  0  0  0
 16 18  1  0  0  0
 16 43  1  0  0  0
 17 44  1  0  0  0
 17 45  1  0  0  0
 17 46  1  0  0  0
 18 47  1  0  0  0
 18 48  1  0  0  0
 18 49  1  0  0  0
 19 50  1  0  0  0
 19 51  1  0  0  0
 19 52  1  0  0  0
 20 21  1  0  0  0
 20 24  1  0  0  0
 21 22  1  0  0  0
 21 25  2  0  0  0
 22 23  1  0  0  0
 22 53  1  0  0  0
 22 54  1  0  0  0
 23 24  1  0  0  0
 23 26  1  0  0  0
 23 55  1  0  0  0
 24 56  1  0  0  0
 24 57  1  0  0  0
 26 27  2  0  0  0
 26 31  1  0  0  0
 27 28  1  0  0  0
 27 58  1  0  0  0
 28 29  2  0  0  0
 28 59  1  0  0  0
 29 30  1  0  0  0
 29 60  1  0  0  0
 30 31  2  0  0  0
 30 32  1  0  0  0
 31 61  1  0  0  0
M  END
> <s_m_entry_id>
26346

> <s_m_entry_name>
dock_pv.170

> <s_m_Source_Path>
/home/csk/Desktop/cluster/DUD-E-result/reni

> <s_m_Source_File>
dock_pv.maegz

> <i_m_Source_File_Index>
170

> <chembl_id>
CHEMBL3401345

> <chembl_pref_name>
None

> <i_lp_mmshare_version>
53161

> <r_lp_tautomer_probability>
0.5

> <s_lp_Force_Field>
OPLS_2005

> <r_lp_Energy>
50.413341

> <b_lp_Chiralities_Consistent>
1

> <s_lp_Variant>
CHEMBL286_lig2921-2

> <s_i_glide_gridfile>
glide-grid_3g6z

> <i_i_glide_lignum>
7138

> <i_i_glide_rotatable_bonds>
5

> <r_i_docking_score>
-7.33132231860516

> <r_i_glide_ligand_efficiency>
-0.229103822456411

> <r_i_glide_ligand_efficiency_sa>
-0.727359296714207

> <r_i_glide_ligand_efficiency_ln>
-1.64168291143435

> <r_i_glide_gscore>
-7.33132231860516

> <r_i_glide_lipo>
-2.99574913014215

> <r_i_glide_hbond>
-0.187619215401466

> <r_i_glide_metal>
0

> <r_i_glide_rewards>
-1.61160042110575

> <r_i_glide_evdw>
-42.1040496826172

> <r_i_glide_ecoul>
-5.42248725891113

> <r_i_glide_erotb>
0.391241122219605

> <r_i_glide_esite>
-0.00901910120787549

> <r_i_glide_emodel>
-65.9618955354773

> <r_i_glide_energy>
-47.5265369415283

> <r_i_glide_einternal>
4.10466814041138

> <i_i_glide_confnum>
26

> <i_i_glide_posenum>
194

> <r_i_glide_eff_state_penalty>
0

> <s_user_duplicate_titles>
CHEMBL286_lig2921

> <i_f3d_flags>
0

> <s_m_subgroup_title>
dock_pv

> <s_m_subgroupid>
dock_pv

> <b_m_subgroup_collapsed>
1

$$$$
CHEMBL286_lig2921
                    3D
 Schrodinger Suite 2021-1.
 61 64  0  0  1  0            999 V2000
   -3.9716  -15.1161  -11.0849 N   0  0  0  0  0  0
   -4.3507  -13.7420  -10.7703 C   0  0  1  0  0  0
   -5.3302  -13.2706  -11.8951 C   0  0  0  0  0  0
   -6.4103  -14.2958  -12.3166 C   0  0  0  0  0  0
   -6.0664  -15.6153  -12.1346 N   0  0  0  0  0  0
   -4.8679  -16.0771  -11.6210 C   0  0  0  0  0  0
   -4.5206  -17.2897  -11.5804 N   0  0  0  0  0  0
   -7.4720  -13.8907  -12.7961 O   0  0  0  0  0  0
   -7.1047  -16.5901  -12.5706 C   0  0  0  0  0  0
   -7.8295  -17.2927  -11.4260 C   0  0  0  0  0  0
   -8.8573  -16.6601  -10.7146 C   0  0  0  0  0  0
   -9.4866  -17.2898   -9.6269 C   0  0  0  0  0  0
   -9.0514  -18.5885   -9.2910 C   0  0  0  0  0  0
   -8.0703  -19.2425  -10.0279 C   0  0  0  0  0  0
   -7.4702  -18.6009  -11.1020 C   0  0  0  0  0  0
   -4.9678  -13.5836   -9.3235 C   0  0  0  0  0  0
   -4.0363  -14.1093   -8.2051 C   0  0  0  0  0  0
   -6.3874  -14.1604   -9.1002 C   0  0  0  0  0  0
   -3.0687  -12.8881  -10.9452 C   0  0  0  0  0  0
  -10.5279  -16.6264   -8.9043 N   0  0  0  0  0  0
  -10.8373  -16.8630   -7.6030 C   0  0  0  0  0  0
  -12.0642  -16.0452   -7.2227 C   0  0  0  0  0  0
  -12.3450  -15.1114   -8.3742 C   0  0  2  0  0  0
  -11.4782  -15.6738   -9.4939 C   0  0  0  0  0  0
  -10.2690  -17.6193   -6.8210 O   0  0  0  0  0  0
  -12.1330  -13.6319   -8.0231 C   0  0  0  0  0  0
  -13.2272  -12.8470   -7.6385 C   0  0  0  0  0  0
  -13.0476  -11.5149   -7.2659 C   0  0  0  0  0  0
  -11.7726  -10.9527   -7.2709 C   0  0  0  0  0  0
  -10.6747  -11.7239   -7.6456 C   0  0  0  0  0  0
  -10.8541  -13.0571   -8.0210 C   0  0  0  0  0  0
   -9.0924  -11.0355   -7.6210 Cl  0  0  0  0  0  0
   -3.2279  -15.4984  -10.5224 H   0  0  0  0  0  0
   -5.8217  -12.3416  -11.6241 H   0  0  0  0  0  0
   -4.7910  -13.0638  -12.8209 H   0  0  0  0  0  0
   -5.2274  -17.8910  -11.9751 H   0  0  0  0  0  0
   -7.8688  -16.1406  -13.2087 H   0  0  0  0  0  0
   -6.6487  -17.3372  -13.2225 H   0  0  0  0  0  0
   -9.1277  -15.6630  -11.0036 H   0  0  0  0  0  0
   -9.4690  -19.1379   -8.4665 H   0  0  0  0  0  0
   -7.7725  -20.2466   -9.7634 H   0  0  0  0  0  0
   -6.7098  -19.1203  -11.6664 H   0  0  0  0  0  0
   -5.0659  -12.5109   -9.1486 H   0  0  0  0  0  0
   -3.8816  -15.1864   -8.2842 H   0  0  0  0  0  0
   -4.4567  -13.9166   -7.2169 H   0  0  0  0  0  0
   -3.0579  -13.6300   -8.2232 H   0  0  0  0  0  0
   -6.4252  -15.2343   -9.2840 H   0  0  0  0  0  0
   -6.7203  -14.0007   -8.0734 H   0  0  0  0  0  0
   -7.1319  -13.6777   -9.7321 H   0  0  0  0  0  0
   -3.2520  -11.8354  -10.7259 H   0  0  0  0  0  0
   -2.2612  -13.2210  -10.2933 H   0  0  0  0  0  0
   -2.6682  -12.9480  -11.9596 H   0  0  0  0  0  0
  -12.9094  -16.7064   -7.0295 H   0  0  0  0  0  0
  -11.8691  -15.5146   -6.2893 H   0  0  0  0  0  0
  -13.3917  -15.2070   -8.6714 H   0  0  0  0  0  0
  -11.0165  -14.8630  -10.0209 H   0  0  0  0  0  0
  -12.0928  -16.2487  -10.1889 H   0  0  0  0  0  0
  -14.2215  -13.2678   -7.6208 H   0  0  0  0  0  0
  -13.8926  -10.9129   -6.9691 H   0  0  0  0  0  0
  -11.6403   -9.9192   -6.9839 H   0  0  0  0  0  0
   -9.9917  -13.6468   -8.2956 H   0  0  0  0  0  0
  1  2  1  0  0  0
  1  6  1  0  0  0
  1 33  1  0  0  0
  2  3  1  0  0  0
  2 16  1  0  0  0
  2 19  1  0  0  0
  3  4  1  0  0  0
  3 34  1  0  0  0
  3 35  1  0  0  0
  4  5  1  0  0  0
  4  8  2  0  0  0
  5  6  1  0  0  0
  5  9  1  0  0  0
  6  7  2  0  0  0
  7 36  1  0  0  0
  9 10  1  0  0  0
  9 37  1  0  0  0
  9 38  1  0  0  0
 10 11  2  0  0  0
 10 15  1  0  0  0
 11 12  1  0  0  0
 11 39  1  0  0  0
 12 13  2  0  0  0
 12 20  1  0  0  0
 13 14  1  0  0  0
 13 40  1  0  0  0
 14 15  2  0  0  0
 14 41  1  0  0  0
 15 42  1  0  0  0
 16 17  1  0  0  0
 16 18  1  0  0  0
 16 43  1  0  0  0
 17 44  1  0  0  0
 17 45  1  0  0  0
 17 46  1  0  0  0
 18 47  1  0  0  0
 18 48  1  0  0  0
 18 49  1  0  0  0
 19 50  1  0  0  0
 19 51  1  0  0  0
 19 52  1  0  0  0
 20 21  1  0  0  0
 20 24  1  0  0  0
 21 22  1  0  0  0
 21 25  2  0  0  0
 22 23  1  0  0  0
 22 53  1  0  0  0
 22 54  1  0  0  0
 23 24  1  0  0  0
 23 26  1  0  0  0
 23 55  1  0  0  0
 24 56  1  0  0  0
 24 57  1  0  0  0
 26 27  2  0  0  0
 26 31  1  0  0  0
 27 28  1  0  0  0
 27 58  1  0  0  0
 28 29  2  0  0  0
 28 59  1  0  0  0
 29 30  1  0  0  0
 29 60  1  0  0  0
 30 31  2  0  0  0
 30 32  1  0  0  0
 31 61  1  0  0  0
M  END
> <s_m_entry_id>
26347

> <s_m_entry_name>
dock_pv.171

> <s_m_Source_Path>
/home/csk/Desktop/cluster/DUD-E-result/reni

> <s_m_Source_File>
dock_pv.maegz

> <i_m_Source_File_Index>
171

> <chembl_id>
CHEMBL3401345

> <chembl_pref_name>
None

> <i_lp_mmshare_version>
53161

> <r_lp_tautomer_probability>
0.5

> <s_lp_Force_Field>
OPLS_2005

> <r_lp_Energy>
49.551397

> <b_lp_Chiralities_Consistent>
1

> <s_lp_Variant>
CHEMBL286_lig2921-1

> <s_i_glide_gridfile>
glide-grid_3g6z

> <i_i_glide_lignum>
7137

> <i_i_glide_rotatable_bonds>
5

> <r_i_docking_score>
-7.30794406879713

> <r_i_glide_ligand_efficiency>
-0.22837325214991

> <r_i_glide_ligand_efficiency_sa>
-0.725039880570734

> <r_i_glide_ligand_efficiency_ln>
-1.63644788403531

> <r_i_glide_gscore>
-7.30794406879713

> <r_i_glide_lipo>
-3.30292327593378

> <r_i_glide_hbond>
0

> <r_i_glide_metal>
0

> <r_i_glide_rewards>
-2.16146328510986

> <r_i_glide_evdw>
-40.5743637084961

> <r_i_glide_ecoul>
-1.19661951065063

> <r_i_glide_erotb>
0.391241122219605

> <r_i_glide_esite>
-0.0265875179506972

> <r_i_glide_emodel>
-58.6450901114983

> <r_i_glide_energy>
-41.7709832191467

> <r_i_glide_einternal>
5.44293451309204

> <i_i_glide_confnum>
44

> <i_i_glide_posenum>
351

> <r_i_glide_eff_state_penalty>
0

> <s_user_duplicate_titles>
CHEMBL286_lig2921

> <i_f3d_flags>
0

> <s_m_subgroup_title>
dock_pv

> <s_m_subgroupid>
dock_pv

> <b_m_subgroup_collapsed>
1

$$$$
CHEMBL286_lig2436
                    3D
 Schrodinger Suite 2021-1.
 72 74  0  0  1  0            999 V2000
  -11.9090  -12.9920   -7.8361 C   0  0  0  0  0  0
  -10.9397  -13.8161   -8.4305 C   0  0  0  0  0  0
  -11.0700  -15.2141   -8.4221 C   0  0  0  0  0  0
  -12.2024  -15.7844   -7.8279 C   0  0  0  0  0  0
  -13.1646  -14.9689   -7.2300 C   0  0  0  0  0  0
  -13.0079  -13.5825   -7.2157 C   0  0  0  0  0  0
   -9.9209  -16.0857   -8.9446 C   0  0  0  0  0  0
  -10.1338  -16.6819  -10.2733 N   0  0  1  0  0  0
   -9.0027  -16.5975  -11.2282 C   0  0  0  0  0  0
   -7.5542  -16.8325  -10.6993 C   0  0  2  0  0  0
  -10.8340  -17.9803  -10.2638 C   0  0  0  0  0  0
   -9.8895  -19.1834  -10.0448 C   0  0  0  0  0  0
   -6.8297  -15.5681  -10.1655 C   0  0  2  0  0  0
   -5.6764  -15.3660  -11.1560 C   0  0  0  0  0  0
   -5.3308  -16.6942  -11.6233 N   0  0  1  0  0  0
   -6.6309  -17.3048  -11.8405 C   0  0  0  0  0  0
   -6.3368  -15.7086   -8.6979 C   0  0  0  0  0  0
   -5.7957  -14.4170   -8.0896 C   0  0  0  0  0  0
   -4.4314  -14.2850   -7.8188 C   0  0  0  0  0  0
   -3.9451  -13.1103   -7.2478 C   0  0  0  0  0  0
   -4.8229  -12.0696   -6.9510 C   0  0  0  0  0  0
   -6.1828  -12.1939   -7.2210 C   0  0  0  0  0  0
   -6.6700  -13.3687   -7.7893 C   0  0  0  0  0  0
  -13.8690  -12.8045   -6.4835 O   0  0  0  0  0  0
  -14.7308  -11.9268   -7.2074 C   0  0  0  0  0  0
  -11.8725  -11.6124   -7.7725 O   0  0  0  0  0  0
  -10.8858  -10.8643   -8.4443 C   0  0  0  0  0  0
   -9.6576  -10.6957   -7.5441 C   0  0  0  0  0  0
   -9.9885  -10.0626   -6.1901 C   0  0  0  0  0  0
  -10.4347   -8.7269   -6.3890 O   0  0  0  0  0  0
  -11.7842   -8.4866   -6.0191 C   0  0  0  0  0  0
  -11.6639  -18.1395  -11.5502 C   0  0  0  0  0  0
  -10.0625  -13.3808   -8.8846 H   0  0  0  0  0  0
  -12.3244  -16.8578   -7.7871 H   0  0  0  0  0  0
  -14.0187  -15.4146   -6.7442 H   0  0  0  0  0  0
   -9.6614  -16.8543   -8.2146 H   0  0  0  0  0  0
   -9.0682  -15.4175   -8.9769 H   0  0  0  0  0  0
   -9.0662  -15.6595  -11.7634 H   0  0  0  0  0  0
   -9.1772  -17.3173  -12.0266 H   0  0  0  0  0  0
   -7.5680  -17.6121   -9.9365 H   0  0  0  0  0  0
  -11.5517  -17.9810   -9.4466 H   0  0  0  0  0  0
  -10.4552  -20.1150  -10.0210 H   0  0  0  0  0  0
   -9.1631  -19.2892  -10.8495 H   0  0  0  0  0  0
   -9.3406  -19.0992   -9.1067 H   0  0  0  0  0  0
   -7.4781  -14.6915  -10.2264 H   0  0  0  0  0  0
   -5.9880  -14.7355  -11.9911 H   0  0  0  0  0  0
   -4.8139  -14.8789  -10.7000 H   0  0  0  0  0  0
   -4.8262  -16.6235  -12.4975 H   0  0  0  0  0  0
   -6.5368  -18.3917  -11.8571 H   0  0  0  0  0  0
   -7.0111  -16.9957  -12.8166 H   0  0  0  0  0  0
   -5.5800  -16.4927   -8.6367 H   0  0  0  0  0  0
   -7.1427  -16.0574   -8.0520 H   0  0  0  0  0  0
   -3.7486  -15.0920   -8.0449 H   0  0  0  0  0  0
   -2.8912  -13.0085   -7.0342 H   0  0  0  0  0  0
   -4.4465  -11.1608   -6.5025 H   0  0  0  0  0  0
   -6.8548  -11.3832   -6.9839 H   0  0  0  0  0  0
   -7.7258  -13.4699   -7.9900 H   0  0  0  0  0  0
  -15.2512  -11.2934   -6.4898 H   0  0  0  0  0  0
  -14.2185  -11.2632   -7.9017 H   0  0  0  0  0  0
  -15.4928  -12.4627   -7.7678 H   0  0  0  0  0  0
  -10.6690  -11.3169   -9.4058 H   0  0  0  0  0  0
  -11.3019   -9.8856   -8.6762 H   0  0  0  0  0  0
   -9.1833  -11.6627   -7.4019 H   0  0  0  0  0  0
   -8.9122  -10.0641   -8.0210 H   0  0  0  0  0  0
  -10.6825  -10.6779   -5.6148 H   0  0  0  0  0  0
   -9.0672  -10.0300   -5.6208 H   0  0  0  0  0  0
  -12.0988   -7.5193   -6.4099 H   0  0  0  0  0  0
  -12.4622   -9.2429   -6.4207 H   0  0  0  0  0  0
  -11.8866   -8.4623   -4.9338 H   0  0  0  0  0  0
  -12.3366  -18.9933  -11.4797 H   0  0  0  0  0  0
  -12.2688  -17.2544  -11.7462 H   0  0  0  0  0  0
  -11.0339  -18.3001  -12.4209 H   0  0  0  0  0  0
  1  2  2  0  0  0
  1  6  1  0  0  0
  1 26  1  0  0  0
  2  3  1  0  0  0
  2 33  1  0  0  0
  3  4  2  0  0  0
  3  7  1  0  0  0
  4  5  1  0  0  0
  4 34  1  0  0  0
  5  6  2  0  0  0
  5 35  1  0  0  0
  6 24  1  0  0  0
  7  8  1  0  0  0
  7 36  1  0  0  0
  7 37  1  0  0  0
  8  9  1  0  0  0
  8 11  1  0  0  0
  9 10  1  0  0  0
  9 38  1  0  0  0
  9 39  1  0  0  0
 10 13  1  0  0  0
 10 16  1  0  0  0
 10 40  1  0  0  0
 11 12  1  0  0  0
 11 32  1  0  0  0
 11 41  1  0  0  0
 12 42  1  0  0  0
 12 43  1  0  0  0
 12 44  1  0  0  0
 13 14  1  0  0  0
 13 17  1  0  0  0
 13 45  1  0  0  0
 14 15  1  0  0  0
 14 46  1  0  0  0
 14 47  1  0  0  0
 15 16  1  0  0  0
 15 48  1  0  0  0
 16 49  1  0  0  0
 16 50  1  0  0  0
 17 18  1  0  0  0
 17 51  1  0  0  0
 17 52  1  0  0  0
 18 19  2  0  0  0
 18 23  1  0  0  0
 19 20  1  0  0  0
 19 53  1  0  0  0
 20 21  2  0  0  0
 20 54  1  0  0  0
 21 22  1  0  0  0
 21 55  1  0  0  0
 22 23  2  0  0  0
 22 56  1  0  0  0
 23 57  1  0  0  0
 24 25  1  0  0  0
 25 58  1  0  0  0
 25 59  1  0  0  0
 25 60  1  0  0  0
 26 27  1  0  0  0
 27 28  1  0  0  0
 27 61  1  0  0  0
 27 62  1  0  0  0
 28 29  1  0  0  0
 28 63  1  0  0  0
 28 64  1  0  0  0
 29 30  1  0  0  0
 29 65  1  0  0  0
 29 66  1  0  0  0
 30 31  1  0  0  0
 31 67  1  0  0  0
 31 68  1  0  0  0
 31 69  1  0  0  0
 32 70  1  0  0  0
 32 71  1  0  0  0
 32 72  1  0  0  0
M  END
> <s_m_entry_id>
26348

> <s_m_entry_name>
dock_pv.172

> <s_m_Source_Path>
/home/csk/Desktop/cluster/DUD-E-result/reni

> <s_m_Source_File>
dock_pv.maegz

> <i_m_Source_File_Index>
172

> <chembl_id>
CHEMBL2322607

> <chembl_pref_name>
None

> <i_lp_mmshare_version>
53161

> <r_lp_tautomer_probability>
1

> <s_lp_Force_Field>
OPLS_2005

> <r_lp_Energy>
48.733759

> <b_lp_Chiralities_Consistent>
1

> <s_lp_Variant>
CHEMBL286_lig2436-3

> <s_i_glide_gridfile>
glide-grid_3g6z

> <i_i_glide_lignum>
6488

> <i_i_glide_rotatable_bonds>
13

> <r_i_docking_score>
-7.29900869495862

> <r_i_glide_ligand_efficiency>
-0.228094021717457

> <r_i_glide_ligand_efficiency_sa>
-0.724153379207322

> <r_i_glide_ligand_efficiency_ln>
-1.63444701026378

> <r_i_glide_gscore>
-7.29900869495862

> <r_i_glide_lipo>
-5.17640667218488

> <r_i_glide_hbond>
0

> <r_i_glide_metal>
0

> <r_i_glide_rewards>
-1.02137266523873

> <r_i_glide_evdw>
-47.2084655761719

> <r_i_glide_ecoul>
1.53781938552856

> <r_i_glide_erotb>
1.02852101344429

> <r_i_glide_esite>
0

> <r_i_glide_emodel>
-54.8782333879505

> <r_i_glide_energy>
-45.6706461906433

> <r_i_glide_einternal>
18.8597011566162

> <i_i_glide_confnum>
615

> <i_i_glide_posenum>
342

> <r_i_glide_eff_state_penalty>
0

> <s_user_duplicate_titles>
CHEMBL286_lig2436

> <i_f3d_flags>
0

> <s_m_subgroup_title>
dock_pv

> <s_m_subgroupid>
dock_pv

> <b_m_subgroup_collapsed>
1

$$$$
CHEMBL286_lig2848
                    3D
 Schrodinger Suite 2021-1.
 76 78  0  0  1  0            999 V2000
   -6.2307  -13.7324   -8.1478 C   0  0  0  0  0  0
   -4.9062  -13.3145   -7.4925 C   0  0  0  0  0  0
   -4.0456  -12.5172   -8.4891 C   0  0  0  0  0  0
   -3.8087  -13.3790   -9.6616 N   0  0  0  0  0  0
   -5.0366  -13.7232  -10.4196 C   0  0  0  0  0  0
   -6.0405  -14.4922   -9.4922 C   0  0  2  0  0  0
   -7.4025  -14.8977  -10.2009 C   0  0  2  0  0  0
   -8.2637  -15.8663   -9.3191 C   0  0  0  0  0  0
   -7.6008  -17.0671   -9.0146 C   0  0  0  0  0  0
   -8.1977  -18.1011   -8.3328 C   0  0  0  0  0  0
   -9.4669  -17.9408   -7.8380 C   0  0  0  0  0  0
  -10.1721  -16.7729   -8.0856 C   0  0  0  0  0  0
   -9.6077  -15.6962   -8.8211 C   0  0  0  0  0  0
  -10.4312  -14.4238   -8.8210 C   0  0  0  0  0  0
   -9.8861  -13.2158   -8.3609 C   0  0  0  0  0  0
  -10.6530  -12.0707   -8.1119 C   0  0  0  0  0  0
  -12.0279  -12.1305   -8.3439 C   0  0  0  0  0  0
  -12.6076  -13.3091   -8.8103 C   0  0  0  0  0  0
  -11.8207  -14.4401   -9.0546 C   0  0  0  0  0  0
   -9.9556  -10.8067   -7.5785 C   0  0  0  0  0  0
  -10.6690   -9.4769   -7.8478 C   0  0  0  0  0  0
  -11.3923  -16.6706   -7.5060 F   0  0  0  0  0  0
   -7.1710  -15.5184  -11.6328 C   0  0  0  0  0  0
   -6.1898  -16.7238  -11.7322 C   0  0  0  0  0  0
   -5.6243  -17.0072  -13.1285 C   0  0  0  0  0  0
   -4.3180  -17.6630  -13.0886 N   0  0  0  0  0  0
   -4.1401  -19.0055  -12.8211 C   0  0  0  0  0  0
   -5.0281  -19.8408  -12.6499 O   0  0  0  0  0  0
   -2.8222  -19.2709  -12.8204 O   0  0  0  0  0  0
   -2.3501  -20.5912  -12.5880 C   0  0  0  0  0  0
   -8.0194  -13.6631  -10.4860 O   0  0  0  0  0  0
   -5.5005  -15.3952   -9.2109 H   0  0  0  0  0  0
   -2.6686  -14.1193   -9.7231 C   0  0  0  0  0  0
   -1.8466  -14.1776   -8.8040 O   0  0  0  0  0  0
   -2.4321  -14.6885  -10.9203 N   0  0  0  0  0  0
   -1.1087  -15.0652  -11.4082 C   0  0  0  0  0  0
   -0.8637  -16.5806  -11.4118 C   0  0  0  0  0  0
    0.4263  -16.8640  -12.0184 N   0  0  0  0  0  0
   -6.7968  -12.8231   -8.3454 H   0  0  0  0  0  0
   -6.8314  -14.3176   -7.4505 H   0  0  0  0  0  0
   -5.1068  -12.7002   -6.6146 H   0  0  0  0  0  0
   -4.3605  -14.1866   -7.1284 H   0  0  0  0  0  0
   -4.5920  -11.6406   -8.8407 H   0  0  0  0  0  0
   -3.1246  -12.1071   -8.0734 H   0  0  0  0  0  0
   -4.8169  -14.2396  -11.3538 H   0  0  0  0  0  0
   -5.4692  -12.7895  -10.7652 H   0  0  0  0  0  0
   -6.5764  -17.2398   -9.2947 H   0  0  0  0  0  0
   -7.6465  -19.0059   -8.1333 H   0  0  0  0  0  0
   -9.8690  -18.7218   -7.2148 H   0  0  0  0  0  0
   -8.8460  -13.1872   -8.0961 H   0  0  0  0  0  0
  -12.6592  -11.2757   -8.1508 H   0  0  0  0  0  0
  -13.6740  -13.3407   -8.9523 H   0  0  0  0  0  0
  -12.3049  -15.3478   -9.3846 H   0  0  0  0  0  0
   -8.9602  -10.7521   -8.0209 H   0  0  0  0  0  0
   -9.7999  -10.8631   -6.5011 H   0  0  0  0  0  0
  -10.0206   -8.6304   -7.6162 H   0  0  0  0  0  0
  -11.5547   -9.3812   -7.2211 H   0  0  0  0  0  0
  -10.9690   -9.3900   -8.8900 H   0  0  0  0  0  0
   -8.1290  -15.8150  -12.0656 H   0  0  0  0  0  0
   -6.8040  -14.7377  -12.3024 H   0  0  0  0  0  0
   -5.3464  -16.5730  -11.0610 H   0  0  0  0  0  0
   -6.6831  -17.6405  -11.4107 H   0  0  0  0  0  0
   -6.3313  -17.5561  -13.7492 H   0  0  0  0  0  0
   -5.4717  -16.0543  -13.6215 H   0  0  0  0  0  0
   -3.4973  -17.0942  -13.2382 H   0  0  0  0  0  0
   -1.2605  -20.6061  -12.6142 H   0  0  0  0  0  0
   -2.6694  -20.9574  -11.6103 H   0  0  0  0  0  0
   -2.7149  -21.2786  -13.3528 H   0  0  0  0  0  0
   -8.8880  -13.8407  -10.8566 H   0  0  0  0  0  0
   -3.1438  -14.5971  -11.6304 H   0  0  0  0  0  0
   -1.0688  -14.6748  -12.4212 H   0  0  0  0  0  0
   -0.3188  -14.5527  -10.8510 H   0  0  0  0  0  0
   -0.8882  -16.9752  -10.3937 H   0  0  0  0  0  0
   -1.6425  -17.0890  -11.9802 H   0  0  0  0  0  0
    1.1559  -16.5124  -11.4122 H   0  0  0  0  0  0
    0.5607  -17.8669  -12.0516 H   0  0  0  0  0  0
  1  2  1  0  0  0
  1  6  1  0  0  0
  1 39  1  0  0  0
  1 40  1  0  0  0
  2  3  1  0  0  0
  2 41  1  0  0  0
  2 42  1  0  0  0
  3  4  1  0  0  0
  3 43  1  0  0  0
  3 44  1  0  0  0
  4  5  1  0  0  0
  4 33  1  0  0  0
  5  6  1  0  0  0
  5 45  1  0  0  0
  5 46  1  0  0  0
  6  7  1  0  0  0
  6 32  1  0  0  0
  7  8  1  0  0  0
  7 23  1  0  0  0
  7 31  1  0  0  0
  8  9  2  0  0  0
  8 13  1  0  0  0
  9 10  1  0  0  0
  9 47  1  0  0  0
 10 11  2  0  0  0
 10 48  1  0  0  0
 11 12  1  0  0  0
 11 49  1  0  0  0
 12 13  2  0  0  0
 12 22  1  0  0  0
 13 14  1  0  0  0
 14 15  2  0  0  0
 14 19  1  0  0  0
 15 16  1  0  0  0
 15 50  1  0  0  0
 16 17  2  0  0  0
 16 20  1  0  0  0
 17 18  1  0  0  0
 17 51  1  0  0  0
 18 19  2  0  0  0
 18 52  1  0  0  0
 19 53  1  0  0  0
 20 21  1  0  0  0
 20 54  1  0  0  0
 20 55  1  0  0  0
 21 56  1  0  0  0
 21 57  1  0  0  0
 21 58  1  0  0  0
 23 24  1  0  0  0
 23 59  1  0  0  0
 23 60  1  0  0  0
 24 25  1  0  0  0
 24 61  1  0  0  0
 24 62  1  0  0  0
 25 26  1  0  0  0
 25 63  1  0  0  0
 25 64  1  0  0  0
 26 27  1  0  0  0
 26 65  1  0  0  0
 27 28  2  0  0  0
 27 29  1  0  0  0
 29 30  1  0  0  0
 30 66  1  0  0  0
 30 67  1  0  0  0
 30 68  1  0  0  0
 31 69  1  0  0  0
 33 34  2  0  0  0
 33 35  1  0  0  0
 35 36  1  0  0  0
 35 70  1  0  0  0
 36 37  1  0  0  0
 36 71  1  0  0  0
 36 72  1  0  0  0
 37 38  1  0  0  0
 37 73  1  0  0  0
 37 74  1  0  0  0
 38 75  1  0  0  0
 38 76  1  0  0  0
M  END
> <s_m_entry_id>
26349

> <s_m_entry_name>
dock_pv.173

> <s_m_Source_Path>
/home/csk/Desktop/cluster/DUD-E-result/reni

> <s_m_Source_File>
dock_pv.maegz

> <i_m_Source_File_Index>
173

> <chembl_id>
CHEMBL4209674

> <chembl_pref_name>
None

> <i_lp_mmshare_version>
53161

> <r_lp_tautomer_probability>
1

> <s_lp_Force_Field>
OPLS_2005

> <r_lp_Energy>
45.982366

> <b_lp_Chiralities_Consistent>
1

> <s_lp_Variant>
CHEMBL286_lig2848-2

> <s_i_glide_gridfile>
glide-grid_3g6z

> <i_i_glide_lignum>
6961

> <i_i_glide_rotatable_bonds>
15

> <r_i_docking_score>
-7.29882699128077

> <r_i_glide_ligand_efficiency>
-0.19726559435894

> <r_i_glide_ligand_efficiency_sa>
-0.657332723309594

> <r_i_glide_ligand_efficiency_ln>
-1.58294446562704

> <r_i_glide_gscore>
-7.29882699128077

> <r_i_glide_lipo>
-3.85358917972097

> <r_i_glide_hbond>
-0.279324819135368

> <r_i_glide_metal>
0

> <r_i_glide_rewards>
-1.24899546427137

> <r_i_glide_evdw>
-36.2351875305176

> <r_i_glide_ecoul>
-6.18581438064575

> <r_i_glide_erotb>
0.852013972663605

> <r_i_glide_esite>
-0.0292999671939287

> <r_i_glide_emodel>
-52.5767162712934

> <r_i_glide_energy>
-42.4210019111633

> <r_i_glide_einternal>
8.62992382049561

> <i_i_glide_confnum>
212

> <i_i_glide_posenum>
14

> <r_i_glide_eff_state_penalty>
0

> <s_user_duplicate_titles>
CHEMBL286_lig2848

> <i_f3d_flags>
0

> <s_m_subgroup_title>
dock_pv

> <s_m_subgroupid>
dock_pv

> <b_m_subgroup_collapsed>
1

$$$$
CHEMBL286_lig1552
                    3D
 Schrodinger Suite 2021-1.
 74 77  0  0  1  0            999 V2000
   -7.4637  -18.1591  -11.4680 N   0  0  0  0  0  0
   -7.2246  -19.5009  -11.6131 C   0  0  0  0  0  0
   -8.5001  -17.7322  -10.6210 C   0  0  0  0  0  0
   -6.7328  -17.0740  -12.1886 C   0  0  2  0  0  0
   -5.8667  -18.9267  -13.6229 N   0  0  2  0  0  0
   -4.2364  -14.2053   -9.7004 C   0  0  0  0  0  0
  -11.7319  -11.7883   -7.4055 C   0  0  0  0  0  0
   -7.8719  -20.3784  -11.0336 O   0  0  0  0  0  0
  -11.2379  -10.5507   -6.9649 C   0  0  0  0  0  0
   -4.1860  -13.0354   -8.9181 C   0  0  0  0  0  0
   -9.7468  -17.3953  -11.1533 C   0  0  0  0  0  0
   -8.2550  -17.6137   -9.2519 C   0  0  0  0  0  0
   -6.0446  -19.8899  -12.5387 C   0  0  0  0  0  0
   -5.6028  -17.5905  -13.1182 C   0  0  0  0  0  0
   -5.3691  -16.3322  -10.3015 O   0  0  0  0  0  0
  -10.5131  -16.8110   -8.9264 C   0  0  0  0  0  0
  -10.7546  -16.9411  -10.3054 C   0  0  0  0  0  0
   -9.2619  -17.1502   -8.4149 C   0  0  0  0  0  0
   -4.9397  -13.0017   -7.7569 O   0  0  0  0  0  0
  -12.1436   -9.6657   -6.4177 O   0  0  0  0  0  0
   -5.1114  -15.3848   -9.2598 C   0  0  0  0  0  0
   -6.2497  -15.8806  -11.3319 C   0  0  0  0  0  0
  -13.6496  -15.7795   -7.2215 C   0  0  0  0  0  0
  -11.4412  -16.3634   -8.0081 O   0  0  0  0  0  0
  -13.2281  -12.0870   -7.2784 C   0  0  0  0  0  0
  -13.5626  -13.4285   -7.6243 O   0  0  0  0  0  0
  -10.8522  -12.7275   -7.9583 C   0  0  0  0  0  0
   -3.4632  -14.2956  -10.8661 C   0  0  0  0  0  0
  -12.7909  -16.1922   -8.4216 C   0  0  0  0  0  0
  -13.2777  -14.4113   -6.6344 C   0  0  0  0  0  0
   -9.8682  -10.2720   -7.0964 C   0  0  0  0  0  0
   -3.3769  -11.9656   -9.3461 C   0  0  0  0  0  0
  -11.7040   -8.3817   -5.9940 C   0  0  0  0  0  0
   -4.8646  -11.8593   -6.9076 C   0  0  0  0  0  0
   -9.4897  -12.4633   -8.0211 C   0  0  0  0  0  0
   -2.6688  -13.2286  -11.2757 C   0  0  0  0  0  0
   -8.9971  -11.2259   -7.6210 C   0  0  0  0  0  0
   -2.6231  -12.0649  -10.5141 C   0  0  0  0  0  0
   -7.4978  -16.6642  -12.8476 H   0  0  0  0  0  0
   -6.6345  -18.8984  -14.2949 H   0  0  0  0  0  0
   -9.9300  -17.4885  -12.2148 H   0  0  0  0  0  0
   -7.2856  -17.8668   -8.8451 H   0  0  0  0  0  0
   -5.1424  -19.9566  -11.9286 H   0  0  0  0  0  0
   -6.2350  -20.8815  -12.9554 H   0  0  0  0  0  0
   -4.6574  -17.6101  -12.5718 H   0  0  0  0  0  0
   -5.4798  -16.9047  -13.9574 H   0  0  0  0  0  0
  -11.7091  -16.6857  -10.7364 H   0  0  0  0  0  0
   -9.0727  -17.0551   -7.3573 H   0  0  0  0  0  0
   -6.0616  -15.0346   -8.8476 H   0  0  0  0  0  0
   -4.5910  -15.8991   -8.4510 H   0  0  0  0  0  0
   -5.7637  -15.1409  -11.9701 H   0  0  0  0  0  0
   -7.1179  -15.3810  -10.8957 H   0  0  0  0  0  0
  -13.5880  -16.5638   -6.4691 H   0  0  0  0  0  0
  -14.6927  -15.7375   -7.5267 H   0  0  0  0  0  0
  -13.5886  -11.8498   -6.2748 H   0  0  0  0  0  0
  -13.7521  -11.4226   -7.9672 H   0  0  0  0  0  0
  -11.2099  -13.6799   -8.3184 H   0  0  0  0  0  0
   -3.4763  -15.1931  -11.4675 H   0  0  0  0  0  0
  -13.1587  -17.1398   -8.8162 H   0  0  0  0  0  0
  -12.8652  -15.4475   -9.2149 H   0  0  0  0  0  0
  -12.2296  -14.4008   -6.3280 H   0  0  0  0  0  0
  -13.8676  -14.2086   -5.7406 H   0  0  0  0  0  0
   -9.4610   -9.3227   -6.7852 H   0  0  0  0  0  0
   -3.3126  -11.0486   -8.7810 H   0  0  0  0  0  0
  -12.5580   -7.8179   -5.6173 H   0  0  0  0  0  0
  -10.9749   -8.4625   -5.1860 H   0  0  0  0  0  0
  -11.2731   -7.8094   -6.8184 H   0  0  0  0  0  0
   -5.4718  -12.0305   -6.0211 H   0  0  0  0  0  0
   -3.8458  -11.6735   -6.5655 H   0  0  0  0  0  0
   -5.2416  -10.9641   -7.4055 H   0  0  0  0  0  0
   -8.8169  -13.2047   -8.4272 H   0  0  0  0  0  0
   -2.0810  -13.3079  -12.1799 H   0  0  0  0  0  0
   -7.9428  -11.0092   -7.7053 H   0  0  0  0  0  0
   -1.9973  -11.2437  -10.8336 H   0  0  0  0  0  0
  1  2  1  0  0  0
  1  3  1  0  0  0
  1  4  1  0  0  0
  2  8  2  0  0  0
  2 13  1  0  0  0
  3 11  1  0  0  0
  3 12  2  0  0  0
  4 14  1  0  0  0
  4 22  1  0  0  0
  4 39  1  0  0  0
  5 14  1  0  0  0
  5 13  1  0  0  0
  5 40  1  0  0  0
  6 21  1  0  0  0
  6 10  2  0  0  0
  6 28  1  0  0  0
  7 25  1  0  0  0
  7  9  2  0  0  0
  7 27  1  0  0  0
  9 20  1  0  0  0
  9 31  1  0  0  0
 10 19  1  0  0  0
 10 32  1  0  0  0
 11 17  2  0  0  0
 11 41  1  0  0  0
 12 18  1  0  0  0
 12 42  1  0  0  0
 13 43  1  0  0  0
 13 44  1  0  0  0
 14 45  1  0  0  0
 14 46  1  0  0  0
 15 22  1  0  0  0
 15 21  1  0  0  0
 16 18  2  0  0  0
 16 24  1  0  0  0
 16 17  1  0  0  0
 17 47  1  0  0  0
 18 48  1  0  0  0
 19 34  1  0  0  0
 20 33  1  0  0  0
 21 49  1  0  0  0
 21 50  1  0  0  0
 22 51  1  0  0  0
 22 52  1  0  0  0
 23 29  1  0  0  0
 23 30  1  0  0  0
 23 53  1  0  0  0
 23 54  1  0  0  0
 24 29  1  0  0  0
 25 26  1  0  0  0
 25 55  1  0  0  0
 25 56  1  0  0  0
 26 30  1  0  0  0
 27 35  2  0  0  0
 27 57  1  0  0  0
 28 36  2  0  0  0
 28 58  1  0  0  0
 29 59  1  0  0  0
 29 60  1  0  0  0
 30 61  1  0  0  0
 30 62  1  0  0  0
 31 37  2  0  0  0
 31 63  1  0  0  0
 32 38  2  0  0  0
 32 64  1  0  0  0
 33 65  1  0  0  0
 33 66  1  0  0  0
 33 67  1  0  0  0
 34 68  1  0  0  0
 34 69  1  0  0  0
 34 70  1  0  0  0
 35 37  1  0  0  0
 35 71  1  0  0  0
 36 38  1  0  0  0
 36 72  1  0  0  0
 37 73  1  0  0  0
 38 74  1  0  0  0
M  END
> <s_m_entry_id>
26350

> <s_m_entry_name>
dock_pv.174

> <s_m_Source_Path>
/home/csk/Desktop/cluster/DUD-E-result/reni

> <s_m_Source_File>
dock_pv.maegz

> <i_m_Source_File_Index>
174

> <chembl_id>
CHEMBL370778

> <chembl_pref_name>
None

> <i_lp_mmshare_version>
53161

> <r_lp_tautomer_probability>
1

> <s_lp_Force_Field>
OPLS_2005

> <r_lp_Energy>
61.485176

> <b_lp_Chiralities_Consistent>
1

> <s_lp_Variant>
CHEMBL286_lig1552-1

> <s_i_glide_gridfile>
glide-grid_3g6z

> <i_i_glide_lignum>
5256

> <i_i_glide_rotatable_bonds>
14

> <r_i_docking_score>
-7.29674626280325

> <r_i_glide_ligand_efficiency>
-0.192019638494822

> <r_i_glide_ligand_efficiency_sa>
-0.645565301459254

> <r_i_glide_ligand_efficiency_ln>
-1.57339314278826

> <r_i_glide_gscore>
-7.29674626280325

> <r_i_glide_lipo>
-4.32595882926778

> <r_i_glide_hbond>
-0.163894354217859

> <r_i_glide_metal>
0

> <r_i_glide_rewards>
-0.173648224334444

> <r_i_glide_evdw>
-49.8340950012207

> <r_i_glide_ecoul>
-6.65581464767456

> <r_i_glide_erotb>
0.909925570691665

> <r_i_glide_esite>
-0.0530934784626174

> <r_i_glide_emodel>
-80.5486925377623

> <r_i_glide_energy>
-56.4899096488953

> <r_i_glide_einternal>
4.31107330322266

> <i_i_glide_confnum>
25

> <i_i_glide_posenum>
188

> <r_i_glide_eff_state_penalty>
0

> <s_user_duplicate_titles>
CHEMBL286_lig1552,326733

> <i_f3d_flags>
0

> <s_m_subgroup_title>
dock_pv

> <s_m_subgroupid>
dock_pv

> <b_m_subgroup_collapsed>
1

$$$$
CHEMBL286_lig1568
                    3D
 Schrodinger Suite 2021-1.
 70 73  0  0  1  0            999 V2000
   -6.9601  -18.7518  -11.6626 N   0  0  0  0  0  0
   -7.0799  -20.0157  -12.1791 C   0  0  0  0  0  0
   -7.9017  -18.3012  -10.7272 C   0  0  0  0  0  0
   -5.8770  -17.7857  -12.0131 C   0  0  2  0  0  0
   -0.3661  -18.4366  -11.7747 C   0  0  0  0  0  0
   -5.6125  -19.2623  -14.0210 N   0  0  2  0  0  0
  -11.9898  -11.5530   -7.6595 C   0  0  0  0  0  0
    0.2908  -17.2040  -11.6616 C   0  0  0  0  0  0
   -7.9757  -20.8062  -11.8673 O   0  0  0  0  0  0
   -1.5216  -18.6773  -11.0283 C   0  0  0  0  0  0
  -10.6701  -11.8647   -8.0397 C   0  0  0  0  0  0
   -8.9994  -17.5534  -11.1561 C   0  0  0  0  0  0
   -7.7314  -18.6130   -9.3773 C   0  0  0  0  0  0
   -0.2212  -16.2227  -10.8105 C   0  0  0  0  0  0
   -6.0133  -20.4182  -13.2234 C   0  0  0  0  0  0
    0.2229  -19.6775  -12.8252 Cl  0  0  0  0  0  0
   -2.0295  -17.7002  -10.1665 C   0  0  0  0  0  0
    1.7268  -16.8631  -12.5653 Cl  0  0  0  0  0  0
   -4.9934  -18.2356  -13.2068 C   0  0  0  0  0  0
   -9.7684  -17.4233   -8.8617 C   0  0  0  0  0  0
   -4.3692  -18.3498  -10.1920 O   0  0  0  0  0  0
   -1.3746  -16.4694  -10.0642 C   0  0  0  0  0  0
   -9.9365  -17.1198  -10.2232 C   0  0  0  0  0  0
   -8.6667  -18.1682   -8.4519 C   0  0  0  0  0  0
  -10.4501  -12.9871   -8.8191 O   0  0  0  0  0  0
   -5.0026  -17.2574  -10.8553 C   0  0  0  0  0  0
  -12.4496  -15.7892   -6.8825 C   0  0  0  0  0  0
  -10.6333  -17.0458   -7.8573 O   0  0  0  0  0  0
  -13.2040  -12.3550   -8.1403 C   0  0  0  0  0  0
  -13.0594  -13.7643   -8.0268 O   0  0  0  0  0  0
  -12.2252  -10.4630   -6.8193 C   0  0  0  0  0  0
   -3.2830  -17.9865   -9.3450 C   0  0  0  0  0  0
  -11.7311  -16.2074   -8.1798 C   0  0  0  0  0  0
  -12.6892  -14.2783   -6.7531 C   0  0  0  0  0  0
   -9.6295  -11.0178   -7.6207 C   0  0  0  0  0  0
   -9.1241  -13.4937   -8.9768 C   0  0  0  0  0  0
  -11.1809   -9.6462   -6.3953 C   0  0  0  0  0  0
   -9.8827   -9.9176   -6.8048 C   0  0  0  0  0  0
   -6.4452  -16.9351  -12.3945 H   0  0  0  0  0  0
   -6.3516  -18.8789  -14.6180 H   0  0  0  0  0  0
   -2.0243  -19.6299  -11.1158 H   0  0  0  0  0  0
   -9.1326  -17.3259  -12.2061 H   0  0  0  0  0  0
   -6.8810  -19.1959   -9.0525 H   0  0  0  0  0  0
    0.2760  -15.2669  -10.7249 H   0  0  0  0  0  0
   -5.1600  -20.8435  -12.6930 H   0  0  0  0  0  0
   -6.4204  -21.1954  -13.8726 H   0  0  0  0  0  0
   -4.0523  -18.6401  -12.8278 H   0  0  0  0  0  0
   -4.7353  -17.3710  -13.8196 H   0  0  0  0  0  0
   -1.7560  -15.7012   -9.4067 H   0  0  0  0  0  0
  -10.7856  -16.5548  -10.5756 H   0  0  0  0  0  0
   -8.5504  -18.4033   -7.4070 H   0  0  0  0  0  0
   -4.2718  -16.5505  -11.2537 H   0  0  0  0  0  0
   -5.6101  -16.7046  -10.1367 H   0  0  0  0  0  0
  -11.8583  -16.1025   -6.0215 H   0  0  0  0  0  0
  -13.4000  -16.3215   -6.8209 H   0  0  0  0  0  0
  -14.1128  -12.0534   -7.6154 H   0  0  0  0  0  0
  -13.3715  -12.1335   -9.1938 H   0  0  0  0  0  0
  -13.2317  -10.2160   -6.5137 H   0  0  0  0  0  0
   -3.5502  -17.1524   -8.6921 H   0  0  0  0  0  0
   -3.0648  -18.8308   -8.6900 H   0  0  0  0  0  0
  -12.4279  -16.7241   -8.8432 H   0  0  0  0  0  0
  -11.3592  -15.3375   -8.7193 H   0  0  0  0  0  0
  -11.7683  -13.8189   -6.3923 H   0  0  0  0  0  0
  -13.4652  -14.0678   -6.0156 H   0  0  0  0  0  0
   -8.6072  -11.2039   -7.9108 H   0  0  0  0  0  0
   -9.1665  -14.4733   -9.4497 H   0  0  0  0  0  0
   -8.5107  -12.8631   -9.6178 H   0  0  0  0  0  0
   -8.6163  -13.6195   -8.0211 H   0  0  0  0  0  0
  -11.3822   -8.7934   -5.7639 H   0  0  0  0  0  0
   -9.0769   -9.2734   -6.4841 H   0  0  0  0  0  0
  1  2  1  0  0  0
  1  3  1  0  0  0
  1  4  1  0  0  0
  2  9  2  0  0  0
  2 15  1  0  0  0
  3 12  1  0  0  0
  3 13  2  0  0  0
  4 19  1  0  0  0
  4 26  1  0  0  0
  4 39  1  0  0  0
  5 10  1  0  0  0
  5 16  1  0  0  0
  5  8  2  0  0  0
  6 19  1  0  0  0
  6 15  1  0  0  0
  6 40  1  0  0  0
  7 29  1  0  0  0
  7 11  2  0  0  0
  7 31  1  0  0  0
  8 14  1  0  0  0
  8 18  1  0  0  0
 10 17  2  0  0  0
 10 41  1  0  0  0
 11 25  1  0  0  0
 11 35  1  0  0  0
 12 23  2  0  0  0
 12 42  1  0  0  0
 13 24  1  0  0  0
 13 43  1  0  0  0
 14 22  2  0  0  0
 14 44  1  0  0  0
 15 45  1  0  0  0
 15 46  1  0  0  0
 17 32  1  0  0  0
 17 22  1  0  0  0
 19 47  1  0  0  0
 19 48  1  0  0  0
 20 24  2  0  0  0
 20 28  1  0  0  0
 20 23  1  0  0  0
 21 26  1  0  0  0
 21 32  1  0  0  0
 22 49  1  0  0  0
 23 50  1  0  0  0
 24 51  1  0  0  0
 25 36  1  0  0  0
 26 52  1  0  0  0
 26 53  1  0  0  0
 27 33  1  0  0  0
 27 34  1  0  0  0
 27 54  1  0  0  0
 27 55  1  0  0  0
 28 33  1  0  0  0
 29 30  1  0  0  0
 29 56  1  0  0  0
 29 57  1  0  0  0
 30 34  1  0  0  0
 31 37  2  0  0  0
 31 58  1  0  0  0
 32 59  1  0  0  0
 32 60  1  0  0  0
 33 61  1  0  0  0
 33 62  1  0  0  0
 34 63  1  0  0  0
 34 64  1  0  0  0
 35 38  2  0  0  0
 35 65  1  0  0  0
 36 66  1  0  0  0
 36 67  1  0  0  0
 36 68  1  0  0  0
 37 38  1  0  0  0
 37 69  1  0  0  0
 38 70  1  0  0  0
M  END
> <s_m_entry_id>
26351

> <s_m_entry_name>
dock_pv.175

> <s_m_Source_Path>
/home/csk/Desktop/cluster/DUD-E-result/reni

> <s_m_Source_File>
dock_pv.maegz

> <i_m_Source_File_Index>
175

> <chembl_id>
CHEMBL195424

> <chembl_pref_name>
None

> <i_lp_mmshare_version>
53161

> <r_lp_tautomer_probability>
1

> <s_lp_Force_Field>
OPLS_2005

> <r_lp_Energy>
52.969369

> <b_lp_Chiralities_Consistent>
1

> <s_lp_Variant>
CHEMBL286_lig1568-1

> <s_i_glide_gridfile>
glide-grid_3g6z

> <i_i_glide_lignum>
5272

> <i_i_glide_rotatable_bonds>
13

> <r_i_docking_score>
-7.28988268252138

> <r_i_glide_ligand_efficiency>
-0.191839017961089

> <r_i_glide_ligand_efficiency_sa>
-0.644958059667616

> <r_i_glide_ligand_efficiency_ln>
-1.57191315297342

> <r_i_glide_gscore>
-7.28988268252138

> <r_i_glide_lipo>
-3.95971387470077

> <r_i_glide_hbond>
-0.411122606779111

> <r_i_glide_metal>
0

> <r_i_glide_rewards>
0.600084160849405

> <r_i_glide_evdw>
-48.795036315918

> <r_i_glide_ecoul>
-11.1916780471802

> <r_i_glide_erotb>
0.651427647245108

> <r_i_glide_esite>
-0.0520544862630839

> <r_i_glide_emodel>
-81.16743738541

> <r_i_glide_energy>
-59.9867143630981

> <r_i_glide_einternal>
8.73767566680908

> <i_i_glide_confnum>
63

> <i_i_glide_posenum>
320

> <r_i_glide_eff_state_penalty>
0

> <s_user_duplicate_titles>
CHEMBL286_lig1568,326754

> <i_f3d_flags>
0

> <s_m_subgroup_title>
dock_pv

> <s_m_subgroupid>
dock_pv

> <b_m_subgroup_collapsed>
1

$$$$
CHEMBL286_lig639
                    3D
 Schrodinger Suite 2021-1.
 91 94  0  0  1  0            999 V2000
  -10.3768  -20.2780  -10.5217 C   0  0  0  0  0  0
  -11.4978  -21.0160  -10.9462 N   0  0  0  0  0  0
  -10.7199  -18.9858  -10.8188 N   0  0  0  0  0  0
  -12.5763  -20.2435  -11.2216 C   0  0  0  0  0  0
   -9.8348  -17.8077  -10.6808 C   0  0  2  0  0  0
   -8.4512  -17.8937  -11.3663 C   0  0  0  0  0  0
  -12.1466  -18.8330  -11.1076 C   0  0  0  0  0  0
   -2.5014  -19.1739  -11.7008 C   0  0  0  0  0  0
   -2.5097  -18.3327  -10.4026 C   0  0  1  0  0  0
   -5.3997  -16.7375  -10.9326 C   0  0  0  0  0  0
   -2.8845  -16.8282  -10.6012 C   0  0  1  0  0  0
  -13.6510  -20.8734  -11.6211 N   0  0  0  0  0  0
   -4.1315  -16.6067  -11.3567 N   0  0  0  0  0  0
   -7.8228  -16.7195  -11.4765 N   0  0  0  0  0  0
   -6.4820  -16.5320  -12.0182 C   0  0  1  0  0  0
  -11.9456  -22.2826  -11.2215 C   0  0  0  0  0  0
  -13.2627  -22.1360  -11.6406 C   0  0  0  0  0  0
   -9.3521  -20.7450  -10.0253 O   0  0  0  0  0  0
   -2.3744  -20.4963  -11.4604 O   0  0  0  0  0  0
   -9.7245  -17.3433   -9.1974 C   0  0  0  0  0  0
   -7.9914  -18.9563  -11.7818 O   0  0  0  0  0  0
   -2.5965  -18.6659  -12.8208 O   0  0  0  0  0  0
   -2.7543  -16.0276   -9.2687 C   0  0  0  0  0  0
   -5.7235  -16.9687   -9.7669 O   0  0  0  0  0  0
   -6.4622  -15.1477  -12.7200 C   0  0  0  0  0  0
   -3.3701  -18.9680   -9.4578 O   0  0  0  0  0  0
  -10.6638  -16.2175   -8.7752 C   0  0  0  0  0  0
   -3.0820  -14.5125   -9.3046 C   0  0  0  0  0  0
   -2.3937  -21.4616  -12.5064 C   0  0  0  0  0  0
   -5.9280  -13.9402  -11.9176 C   0  0  0  0  0  0
  -10.2330  -14.8731   -8.8211 C   0  0  0  0  0  0
  -12.0016  -16.4744   -8.4149 C   0  0  0  0  0  0
   -2.9051  -13.8716   -7.9078 C   0  0  0  0  0  0
   -2.2357  -13.7143  -10.3281 C   0  0  0  0  0  0
   -2.7828  -22.7802  -11.8330 C   0  0  0  0  0  0
   -1.0315  -21.5436  -13.2199 C   0  0  0  0  0  0
   -6.7539  -13.6630  -10.6479 C   0  0  0  0  0  0
   -5.8090  -12.7010  -12.8036 C   0  0  0  0  0  0
  -12.8402  -15.4415   -8.0221 C   0  0  0  0  0  0
  -11.0823  -13.8487   -8.4212 C   0  0  0  0  0  0
   -2.6407  -12.2247  -10.3652 C   0  0  0  0  0  0
   -3.3339  -12.3892   -7.9034 C   0  0  0  0  0  0
   -2.5686  -11.5730   -8.9677 C   0  0  0  0  0  0
  -12.3804  -14.1327   -8.0195 C   0  0  0  0  0  0
  -10.3289  -17.0079  -11.2317 H   0  0  0  0  0  0
  -12.6660  -18.2882  -10.3232 H   0  0  0  0  0  0
  -12.2717  -18.2841  -12.0426 H   0  0  0  0  0  0
   -1.4985  -18.3841   -9.9968 H   0  0  0  0  0  0
   -2.1118  -16.4228  -11.2557 H   0  0  0  0  0  0
   -4.0057  -16.3819  -12.3346 H   0  0  0  0  0  0
   -8.2631  -15.8907  -11.1120 H   0  0  0  0  0  0
   -6.3155  -17.2895  -12.7876 H   0  0  0  0  0  0
  -11.2936  -23.1381  -11.1167 H   0  0  0  0  0  0
  -13.9223  -22.9264  -11.9641 H   0  0  0  0  0  0
   -9.8671  -18.1889   -8.5259 H   0  0  0  0  0  0
   -8.7115  -17.0017   -8.9738 H   0  0  0  0  0  0
   -1.7428  -16.1584   -8.8817 H   0  0  0  0  0  0
   -3.4064  -16.4906   -8.5252 H   0  0  0  0  0  0
   -5.8665  -15.2517  -13.6210 H   0  0  0  0  0  0
   -7.4560  -14.9139  -13.1080 H   0  0  0  0  0  0
   -3.1308  -19.8955   -9.3955 H   0  0  0  0  0  0
   -4.1315  -14.3978   -9.5635 H   0  0  0  0  0  0
   -3.1685  -21.2098  -13.2333 H   0  0  0  0  0  0
   -4.9054  -14.1545  -11.6206 H   0  0  0  0  0  0
   -9.2290  -14.6355   -9.1354 H   0  0  0  0  0  0
  -12.3783  -17.4843   -8.4212 H   0  0  0  0  0  0
   -1.8729  -13.9789   -7.5712 H   0  0  0  0  0  0
   -3.4951  -14.4240   -7.1741 H   0  0  0  0  0  0
   -2.3417  -14.1403  -11.3269 H   0  0  0  0  0  0
   -1.1747  -13.8147  -10.0943 H   0  0  0  0  0  0
   -2.6722  -23.6316  -12.5063 H   0  0  0  0  0  0
   -2.1622  -22.9321  -10.9484 H   0  0  0  0  0  0
   -3.8227  -22.7548  -11.5011 H   0  0  0  0  0  0
   -1.0513  -22.2909  -14.0119 H   0  0  0  0  0  0
   -0.7665  -20.5916  -13.6797 H   0  0  0  0  0  0
   -0.2340  -21.8099  -12.5262 H   0  0  0  0  0  0
   -7.5496  -12.9452  -10.8423 H   0  0  0  0  0  0
   -7.2200  -14.5488  -10.2351 H   0  0  0  0  0  0
   -6.1194  -13.2632   -9.8585 H   0  0  0  0  0  0
   -6.7847  -12.4630  -13.2208 H   0  0  0  0  0  0
   -5.4701  -11.8391  -12.2279 H   0  0  0  0  0  0
   -5.0808  -12.8593  -13.6043 H   0  0  0  0  0  0
  -13.8551  -15.6583   -7.7235 H   0  0  0  0  0  0
  -10.7334  -12.8260   -8.4285 H   0  0  0  0  0  0
   -2.0035  -11.6832  -11.0663 H   0  0  0  0  0  0
   -3.6565  -12.1386  -10.7465 H   0  0  0  0  0  0
   -3.1748  -11.9588   -6.9138 H   0  0  0  0  0  0
   -4.4072  -12.3232   -8.0916 H   0  0  0  0  0  0
   -1.5231  -11.4868   -8.6695 H   0  0  0  0  0  0
   -2.9569  -10.5544   -9.0095 H   0  0  0  0  0  0
  -13.0387  -13.3317   -7.7165 H   0  0  0  0  0  0
  1  2  1  0  0  0
  1  3  1  0  0  0
  1 18  2  0  0  0
  2  4  1  0  0  0
  2 16  1  0  0  0
  3  5  1  0  0  0
  3  7  1  0  0  0
  4 12  2  0  0  0
  4  7  1  0  0  0
  5  6  1  0  0  0
  5 20  1  0  0  0
  5 45  1  0  0  0
  6 14  1  0  0  0
  6 21  2  0  0  0
  7 46  1  0  0  0
  7 47  1  0  0  0
  8  9  1  0  0  0
  8 19  1  0  0  0
  8 22  2  0  0  0
  9 11  1  0  0  0
  9 26  1  0  0  0
  9 48  1  0  0  0
 10 15  1  0  0  0
 10 13  1  0  0  0
 10 24  2  0  0  0
 11 13  1  0  0  0
 11 23  1  0  0  0
 11 49  1  0  0  0
 12 17  1  0  0  0
 13 50  1  0  0  0
 14 15  1  0  0  0
 14 51  1  0  0  0
 15 25  1  0  0  0
 15 52  1  0  0  0
 16 17  2  0  0  0
 16 53  1  0  0  0
 17 54  1  0  0  0
 19 29  1  0  0  0
 20 27  1  0  0  0
 20 55  1  0  0  0
 20 56  1  0  0  0
 23 28  1  0  0  0
 23 57  1  0  0  0
 23 58  1  0  0  0
 25 30  1  0  0  0
 25 59  1  0  0  0
 25 60  1  0  0  0
 26 61  1  0  0  0
 27 31  2  0  0  0
 27 32  1  0  0  0
 28 33  1  0  0  0
 28 34  1  0  0  0
 28 62  1  0  0  0
 29 35  1  0  0  0
 29 36  1  0  0  0
 29 63  1  0  0  0
 30 37  1  0  0  0
 30 38  1  0  0  0
 30 64  1  0  0  0
 31 40  1  0  0  0
 31 65  1  0  0  0
 32 39  2  0  0  0
 32 66  1  0  0  0
 33 42  1  0  0  0
 33 67  1  0  0  0
 33 68  1  0  0  0
 34 41  1  0  0  0
 34 69  1  0  0  0
 34 70  1  0  0  0
 35 71  1  0  0  0
 35 72  1  0  0  0
 35 73  1  0  0  0
 36 74  1  0  0  0
 36 75  1  0  0  0
 36 76  1  0  0  0
 37 77  1  0  0  0
 37 78  1  0  0  0
 37 79  1  0  0  0
 38 80  1  0  0  0
 38 81  1  0  0  0
 38 82  1  0  0  0
 39 44  1  0  0  0
 39 83  1  0  0  0
 40 44  2  0  0  0
 40 84  1  0  0  0
 41 43  1  0  0  0
 41 85  1  0  0  0
 41 86  1  0  0  0
 42 43  1  0  0  0
 42 87  1  0  0  0
 42 88  1  0  0  0
 43 89  1  0  0  0
 43 90  1  0  0  0
 44 91  1  0  0  0
M  END
> <s_m_entry_id>
26353

> <s_m_entry_name>
dock_pv.177

> <s_m_Source_Path>
/home/csk/Desktop/cluster/DUD-E-result/reni

> <s_m_Source_File>
dock_pv.maegz

> <i_m_Source_File_Index>
177

> <chembl_id>
CHEMBL354179

> <chembl_pref_name>
None

> <i_lp_mmshare_version>
53161

> <r_lp_tautomer_probability>
1

> <s_lp_Force_Field>
OPLS_2005

> <r_lp_Energy>
37.489784

> <b_lp_Chiralities_Consistent>
1

> <s_lp_Variant>
CHEMBL286_lig639-4

> <s_i_glide_gridfile>
glide-grid_3g6z

> <i_i_glide_lignum>
1814

> <i_i_glide_rotatable_bonds>
18

> <r_i_docking_score>
-7.2735767666808

> <r_i_glide_ligand_efficiency>
-0.165308562879109

> <r_i_glide_ligand_efficiency_sa>
-0.58359680903926

> <r_i_glide_ligand_efficiency_ln>
-1.52033621642287

> <r_i_glide_gscore>
-7.2735767666808

> <r_i_glide_lipo>
-3.75705499177821

> <r_i_glide_hbond>
-0.104499138211891

> <r_i_glide_metal>
0

> <r_i_glide_rewards>
-1.11537252006456

> <r_i_glide_evdw>
-51.1985702514648

> <r_i_glide_ecoul>
-2.17219042778015

> <r_i_glide_erotb>
0.668285649339404

> <r_i_glide_esite>
-0.0791786892252777

> <r_i_glide_emodel>
-70.5919860752646

> <r_i_glide_energy>
-53.370760679245

> <r_i_glide_einternal>
14.6417608261108

> <i_i_glide_confnum>
16

> <i_i_glide_posenum>
251

> <r_i_glide_eff_state_penalty>
0

> <s_user_duplicate_titles>
CHEMBL286_lig639

> <i_f3d_flags>
0

> <s_m_subgroup_title>
dock_pv

> <s_m_subgroupid>
dock_pv

> <b_m_subgroup_collapsed>
1

$$$$
CHEMBL286_lig2465
                    3D
 Schrodinger Suite 2021-1.
 71 73  0  0  1  0            999 V2000
   -8.5495  -19.2506   -9.0449 C   0  0  0  0  0  0
   -8.1873  -17.8020   -9.4795 C   0  0  0  0  0  0
   -6.8009  -17.3910   -8.9534 C   0  0  0  0  0  0
  -13.4651  -15.5000   -7.5924 C   0  0  0  0  0  0
  -13.1721  -14.1825   -7.2496 C   0  0  0  0  0  0
  -11.9786  -13.6066   -7.6691 C   0  0  0  0  0  0
  -11.0599  -14.3439   -8.4188 C   0  0  0  0  0  0
  -11.3440  -15.6821   -8.7640 C   0  0  0  0  0  0
  -12.5609  -16.2429   -8.3465 C   0  0  0  0  0  0
  -10.4317  -16.4875   -9.4940 N   0  0  0  0  0  0
   -9.2000  -16.8577   -8.7670 C   0  0  0  0  0  0
   -8.2922  -17.6435  -10.9422 N   0  0  2  0  0  0
   -9.6524  -17.7557  -11.5004 C   0  0  0  0  0  0
  -10.7591  -17.0184  -10.7071 C   0  0  0  0  0  0
  -11.8684  -16.8641  -11.2202 O   0  0  0  0  0  0
   -7.3484  -18.4380  -11.7705 C   0  0  0  0  0  0
   -5.9846  -17.7462  -12.0672 C   0  0  1  0  0  0
   -4.9737  -18.7077  -12.7569 C   0  0  2  0  0  0
   -6.1778  -16.5147  -12.8211 N   0  0  0  0  0  0
   -3.5198  -18.1887  -12.9283 C   0  0  0  0  0  0
   -5.4723  -19.1070  -14.0208 O   0  0  0  0  0  0
   -2.6756  -18.0792  -11.6125 C   0  0  2  0  0  0
   -2.6735  -16.6178  -11.0860 C   0  0  0  0  0  0
   -3.4700  -16.3451  -10.0306 N   0  0  0  0  0  0
   -1.9386  -15.7884  -11.6210 O   0  0  0  0  0  0
   -1.2313  -18.6794  -11.7789 C   0  0  0  0  0  0
   -9.5780  -13.5498   -8.8354 Cl  0  0  0  0  0  0
   -1.2491  -20.2052  -12.0479 C   0  0  0  0  0  0
   -0.2792  -18.4136  -10.5886 C   0  0  0  0  0  0
   -3.7797  -15.0938   -9.4611 C   0  0  0  0  0  0
   -4.3941  -15.1043   -8.2027 C   0  0  0  0  0  0
   -4.7730  -13.8872   -7.6305 C   0  0  0  0  0  0
   -4.5647  -12.6881   -8.2304 N   0  0  0  0  0  0
   -3.9575  -12.6857   -9.4421 C   0  0  0  0  0  0
   -3.5597  -13.8547  -10.0927 C   0  0  0  0  0  0
   -8.6694  -19.3247   -7.9695 H   0  0  0  0  0  0
   -9.4818  -19.5972   -9.4882 H   0  0  0  0  0  0
   -7.7806  -19.9701   -9.3265 H   0  0  0  0  0  0
   -6.8109  -17.2625   -7.8719 H   0  0  0  0  0  0
   -6.0381  -18.1278   -9.2149 H   0  0  0  0  0  0
   -6.4958  -16.4319   -9.3734 H   0  0  0  0  0  0
  -14.3956  -15.9476   -7.2725 H   0  0  0  0  0  0
  -13.8678  -13.6038   -6.6601 H   0  0  0  0  0  0
  -11.7543  -12.5849   -7.3953 H   0  0  0  0  0  0
  -12.8127  -17.2622   -8.6064 H   0  0  0  0  0  0
   -8.6854  -15.9018   -8.7351 H   0  0  0  0  0  0
   -9.3522  -17.1051   -7.7156 H   0  0  0  0  0  0
   -9.6600  -17.3214  -12.5000 H   0  0  0  0  0  0
   -9.9612  -18.7950  -11.6237 H   0  0  0  0  0  0
   -7.7977  -18.7043  -12.7284 H   0  0  0  0  0  0
   -7.1483  -19.3922  -11.2888 H   0  0  0  0  0  0
   -5.5270  -17.4475  -11.1339 H   0  0  0  0  0  0
   -4.9204  -19.6240  -12.1648 H   0  0  0  0  0  0
   -6.9049  -15.9722  -12.3702 H   0  0  0  0  0  0
   -5.3381  -15.9495  -12.8346 H   0  0  0  0  0  0
   -3.5105  -17.2628  -13.4983 H   0  0  0  0  0  0
   -3.0254  -18.8730  -13.6180 H   0  0  0  0  0  0
   -6.0184  -18.3847  -14.3673 H   0  0  0  0  0  0
   -3.1557  -18.6955  -10.8442 H   0  0  0  0  0  0
   -3.8798  -17.1338   -9.5559 H   0  0  0  0  0  0
   -0.7734  -18.2029  -12.6502 H   0  0  0  0  0  0
   -1.7056  -20.7515  -11.2210 H   0  0  0  0  0  0
   -1.7871  -20.4767  -12.9544 H   0  0  0  0  0  0
   -0.2371  -20.5941  -12.1685 H   0  0  0  0  0  0
   -0.6711  -18.8366   -9.6641 H   0  0  0  0  0  0
    0.7015  -18.8559  -10.7648 H   0  0  0  0  0  0
   -0.1001  -17.3517  -10.4239 H   0  0  0  0  0  0
   -4.5803  -16.0310   -7.6737 H   0  0  0  0  0  0
   -5.2743  -13.8587   -6.6750 H   0  0  0  0  0  0
   -3.8114  -11.7198   -9.9048 H   0  0  0  0  0  0
   -3.1158  -13.7760  -11.0720 H   0  0  0  0  0  0
  1  2  1  0  0  0
  1 36  1  0  0  0
  1 37  1  0  0  0
  1 38  1  0  0  0
  2  3  1  0  0  0
  2 11  1  0  0  0
  2 12  1  0  0  0
  3 39  1  0  0  0
  3 40  1  0  0  0
  3 41  1  0  0  0
  4  5  2  0  0  0
  4  9  1  0  0  0
  4 42  1  0  0  0
  5  6  1  0  0  0
  5 43  1  0  0  0
  6  7  2  0  0  0
  6 44  1  0  0  0
  7  8  1  0  0  0
  7 27  1  0  0  0
  8  9  2  0  0  0
  8 10  1  0  0  0
  9 45  1  0  0  0
 10 11  1  0  0  0
 10 14  1  0  0  0
 11 46  1  0  0  0
 11 47  1  0  0  0
 12 13  1  0  0  0
 12 16  1  0  0  0
 13 14  1  0  0  0
 13 48  1  0  0  0
 13 49  1  0  0  0
 14 15  2  0  0  0
 16 17  1  0  0  0
 16 50  1  0  0  0
 16 51  1  0  0  0
 17 18  1  0  0  0
 17 19  1  0  0  0
 17 52  1  0  0  0
 18 20  1  0  0  0
 18 21  1  0  0  0
 18 53  1  0  0  0
 19 54  1  0  0  0
 19 55  1  0  0  0
 20 22  1  0  0  0
 20 56  1  0  0  0
 20 57  1  0  0  0
 21 58  1  0  0  0
 22 23  1  0  0  0
 22 26  1  0  0  0
 22 59  1  0  0  0
 23 24  1  0  0  0
 23 25  2  0  0  0
 24 30  1  0  0  0
 24 60  1  0  0  0
 26 28  1  0  0  0
 26 29  1  0  0  0
 26 61  1  0  0  0
 28 62  1  0  0  0
 28 63  1  0  0  0
 28 64  1  0  0  0
 29 65  1  0  0  0
 29 66  1  0  0  0
 29 67  1  0  0  0
 30 31  2  0  0  0
 30 35  1  0  0  0
 31 32  1  0  0  0
 31 68  1  0  0  0
 32 33  2  0  0  0
 32 69  1  0  0  0
 33 34  1  0  0  0
 34 35  2  0  0  0
 34 70  1  0  0  0
 35 71  1  0  0  0
M  END
> <s_m_entry_id>
26354

> <s_m_entry_name>
dock_pv.178

> <s_m_Source_Path>
/home/csk/Desktop/cluster/DUD-E-result/reni

> <s_m_Source_File>
dock_pv.maegz

> <i_m_Source_File_Index>
178

> <chembl_id>
CHEMBL2387550

> <chembl_pref_name>
None

> <i_lp_mmshare_version>
53161

> <r_lp_tautomer_probability>
1

> <s_lp_Force_Field>
OPLS_2005

> <r_lp_Energy>
76.74023

> <b_lp_Chiralities_Consistent>
1

> <s_lp_Variant>
CHEMBL286_lig2465-1

> <s_i_glide_gridfile>
glide-grid_3g6z

> <i_i_glide_lignum>
6525

> <i_i_glide_rotatable_bonds>
11

> <r_i_docking_score>
-7.25221414020062

> <r_i_glide_ligand_efficiency>
-0.207206118291446

> <r_i_glide_ligand_efficiency_sa>
-0.677784952004848

> <r_i_glide_ligand_efficiency_ln>
-1.59202195799489

> <r_i_glide_gscore>
-7.25221414020062

> <r_i_glide_lipo>
-2.98315493676506

> <r_i_glide_hbond>
-0.381569178231923

> <r_i_glide_metal>
0

> <r_i_glide_rewards>
-1.18044432866682

> <r_i_glide_evdw>
-41.3844718933105

> <r_i_glide_ecoul>
-8.57517242431641

> <r_i_glide_erotb>
0.648453761776161

> <r_i_glide_esite>
0

> <r_i_glide_emodel>
-64.6977002253262

> <r_i_glide_energy>
-49.959644317627

> <r_i_glide_einternal>
12.6677331924438

> <i_i_glide_confnum>
43

> <i_i_glide_posenum>
152

> <r_i_glide_eff_state_penalty>
0

> <s_user_duplicate_titles>
CHEMBL286_lig2465

> <i_f3d_flags>
0

> <s_m_subgroup_title>
dock_pv

> <s_m_subgroupid>
dock_pv

> <b_m_subgroup_collapsed>
1

$$$$
CHEMBL286_lig639
                    3D
 Schrodinger Suite 2021-1.
 91 94  0  0  1  0            999 V2000
   -8.8642  -19.2680   -9.3990 C   0  0  0  0  0  0
   -9.1768  -20.5104   -9.9840 N   0  0  0  0  0  0
   -9.7028  -18.3856  -10.0229 N   0  0  0  0  0  0
  -10.2444  -20.4583  -10.8214 C   0  0  0  0  0  0
   -9.7583  -16.9286   -9.7332 C   0  0  2  0  0  0
   -8.3879  -16.2086   -9.8892 C   0  0  0  0  0  0
  -10.7108  -19.0460  -10.8520 C   0  0  0  0  0  0
   -4.5308  -20.8733  -10.9597 C   0  0  0  0  0  0
   -3.9073  -20.1408  -12.1714 C   0  0  2  0  0  0
   -5.1591  -17.3862  -10.8258 C   0  0  0  0  0  0
   -3.2978  -18.7222  -11.8902 C   0  0  1  0  0  0
  -10.6017  -21.5963  -11.3628 N   0  0  0  0  0  0
   -4.2982  -17.6429  -11.8269 N   0  0  0  0  0  0
   -7.5082  -16.7614  -10.7374 N   0  0  0  0  0  0
   -6.1739  -16.2491  -11.0380 C   0  0  2  0  0  0
   -8.8106  -21.8318  -10.0236 C   0  0  0  0  0  0
   -9.7105  -22.4484  -10.8875 C   0  0  0  0  0  0
   -8.0223  -19.0664   -8.5255 O   0  0  0  0  0  0
   -3.5965  -21.2660  -10.0631 O   0  0  0  0  0  0
  -10.3752  -16.7115   -8.3220 C   0  0  0  0  0  0
   -8.1612  -15.1748   -9.2618 O   0  0  0  0  0  0
   -5.7449  -21.0784  -10.8614 O   0  0  0  0  0  0
   -2.2403  -18.6595  -10.7448 C   0  0  0  0  0  0
   -5.1776  -18.0009   -9.7623 O   0  0  0  0  0  0
   -6.1946  -15.6738  -12.4704 C   0  0  0  0  0  0
   -4.8725  -20.0622  -13.2204 O   0  0  0  0  0  0
  -11.4328  -15.6249   -8.1518 C   0  0  0  0  0  0
   -1.4123  -17.3496  -10.6905 C   0  0  0  0  0  0
   -3.9462  -21.9098   -8.8397 C   0  0  0  0  0  0
   -7.0471  -14.3982  -12.6170 C   0  0  0  0  0  0
  -11.1586  -14.2643   -8.4216 C   0  0  0  0  0  0
  -12.6933  -15.9648   -7.6203 C   0  0  0  0  0  0
   -0.9179  -17.0350   -9.2586 C   0  0  0  0  0  0
   -0.1764  -17.4080  -11.6184 C   0  0  0  0  0  0
   -4.5284  -20.9013   -7.8317 C   0  0  0  0  0  0
   -2.6751  -22.5820   -8.3015 C   0  0  0  0  0  0
   -7.7801  -14.4065  -13.9528 C   0  0  0  0  0  0
   -6.2096  -13.1265  -12.4229 C   0  0  0  0  0  0
  -13.6269  -14.9779   -7.3525 C   0  0  0  0  0  0
  -12.1130  -13.2915   -8.1596 C   0  0  0  0  0  0
    0.5748  -16.0629  -11.6184 C   0  0  0  0  0  0
   -0.1754  -15.6838   -9.2007 C   0  0  0  0  0  0
    1.0047  -15.6493  -10.1956 C   0  0  0  0  0  0
  -13.3417  -13.6448   -7.6207 C   0  0  0  0  0  0
  -10.4189  -16.4815  -10.4763 H   0  0  0  0  0  0
  -11.7021  -18.9154  -10.4213 H   0  0  0  0  0  0
  -10.7157  -18.6246  -11.8569 H   0  0  0  0  0  0
   -3.1039  -20.7855  -12.5281 H   0  0  0  0  0  0
   -2.7399  -18.4905  -12.8007 H   0  0  0  0  0  0
   -4.3691  -17.0649  -12.6526 H   0  0  0  0  0  0
   -7.7535  -17.6249  -11.1993 H   0  0  0  0  0  0
   -5.8931  -15.4586  -10.3401 H   0  0  0  0  0  0
   -7.9603  -22.1876   -9.4594 H   0  0  0  0  0  0
   -9.7164  -23.4919  -11.1676 H   0  0  0  0  0  0
  -10.8044  -17.6466   -7.9611 H   0  0  0  0  0  0
   -9.5790  -16.4953   -7.6161 H   0  0  0  0  0  0
   -1.5624  -19.5110  -10.8264 H   0  0  0  0  0  0
   -2.7477  -18.7981   -9.7893 H   0  0  0  0  0  0
   -5.1903  -15.4472  -12.8204 H   0  0  0  0  0  0
   -6.5642  -16.4492  -13.1447 H   0  0  0  0  0  0
   -5.6881  -19.7160  -12.8411 H   0  0  0  0  0  0
   -2.0389  -16.5118  -11.0040 H   0  0  0  0  0  0
   -4.6840  -22.6876   -9.0413 H   0  0  0  0  0  0
   -7.8279  -14.3793  -11.8583 H   0  0  0  0  0  0
  -10.2045  -13.9565   -8.8152 H   0  0  0  0  0  0
  -12.9435  -16.9880   -7.3985 H   0  0  0  0  0  0
   -0.2729  -17.8349   -8.8974 H   0  0  0  0  0  0
   -1.7632  -17.0205   -8.5685 H   0  0  0  0  0  0
   -0.4760  -17.6706  -12.6326 H   0  0  0  0  0  0
    0.4840  -18.2242  -11.3141 H   0  0  0  0  0  0
   -4.7579  -21.3793   -6.8792 H   0  0  0  0  0  0
   -3.8327  -20.0834   -7.6377 H   0  0  0  0  0  0
   -5.4550  -20.4633   -8.2031 H   0  0  0  0  0  0
   -2.8690  -23.0996   -7.3624 H   0  0  0  0  0  0
   -2.2916  -23.3201   -9.0074 H   0  0  0  0  0  0
   -1.8835  -21.8525   -8.1231 H   0  0  0  0  0  0
   -7.0689  -14.4629  -14.7771 H   0  0  0  0  0  0
   -8.4509  -15.2626  -14.0205 H   0  0  0  0  0  0
   -8.4035  -13.5228  -14.0624 H   0  0  0  0  0  0
   -5.4684  -13.0124  -13.2160 H   0  0  0  0  0  0
   -6.8434  -12.2396  -12.4211 H   0  0  0  0  0  0
   -5.6763  -13.1479  -11.4711 H   0  0  0  0  0  0
  -14.5859  -15.2629   -6.9440 H   0  0  0  0  0  0
  -11.8935  -12.2541   -8.3651 H   0  0  0  0  0  0
    1.4470  -16.1211  -12.2720 H   0  0  0  0  0  0
   -0.0787  -15.2870  -12.0209 H   0  0  0  0  0  0
    0.1839  -15.4966   -8.1880 H   0  0  0  0  0  0
   -0.8709  -14.8747   -9.4319 H   0  0  0  0  0  0
    1.7904  -16.3207   -9.8461 H   0  0  0  0  0  0
    1.4430  -14.6516  -10.2167 H   0  0  0  0  0  0
  -14.0774  -12.8820   -7.4119 H   0  0  0  0  0  0
  1  2  1  0  0  0
  1  3  1  0  0  0
  1 18  2  0  0  0
  2  4  1  0  0  0
  2 16  1  0  0  0
  3  5  1  0  0  0
  3  7  1  0  0  0
  4 12  2  0  0  0
  4  7  1  0  0  0
  5  6  1  0  0  0
  5 20  1  0  0  0
  5 45  1  0  0  0
  6 14  1  0  0  0
  6 21  2  0  0  0
  7 46  1  0  0  0
  7 47  1  0  0  0
  8  9  1  0  0  0
  8 19  1  0  0  0
  8 22  2  0  0  0
  9 11  1  0  0  0
  9 26  1  0  0  0
  9 48  1  0  0  0
 10 15  1  0  0  0
 10 13  1  0  0  0
 10 24  2  0  0  0
 11 13  1  0  0  0
 11 23  1  0  0  0
 11 49  1  0  0  0
 12 17  1  0  0  0
 13 50  1  0  0  0
 14 15  1  0  0  0
 14 51  1  0  0  0
 15 25  1  0  0  0
 15 52  1  0  0  0
 16 17  2  0  0  0
 16 53  1  0  0  0
 17 54  1  0  0  0
 19 29  1  0  0  0
 20 27  1  0  0  0
 20 55  1  0  0  0
 20 56  1  0  0  0
 23 28  1  0  0  0
 23 57  1  0  0  0
 23 58  1  0  0  0
 25 30  1  0  0  0
 25 59  1  0  0  0
 25 60  1  0  0  0
 26 61  1  0  0  0
 27 31  2  0  0  0
 27 32  1  0  0  0
 28 33  1  0  0  0
 28 34  1  0  0  0
 28 62  1  0  0  0
 29 35  1  0  0  0
 29 36  1  0  0  0
 29 63  1  0  0  0
 30 37  1  0  0  0
 30 38  1  0  0  0
 30 64  1  0  0  0
 31 40  1  0  0  0
 31 65  1  0  0  0
 32 39  2  0  0  0
 32 66  1  0  0  0
 33 42  1  0  0  0
 33 67  1  0  0  0
 33 68  1  0  0  0
 34 41  1  0  0  0
 34 69  1  0  0  0
 34 70  1  0  0  0
 35 71  1  0  0  0
 35 72  1  0  0  0
 35 73  1  0  0  0
 36 74  1  0  0  0
 36 75  1  0  0  0
 36 76  1  0  0  0
 37 77  1  0  0  0
 37 78  1  0  0  0
 37 79  1  0  0  0
 38 80  1  0  0  0
 38 81  1  0  0  0
 38 82  1  0  0  0
 39 44  1  0  0  0
 39 83  1  0  0  0
 40 44  2  0  0  0
 40 84  1  0  0  0
 41 43  1  0  0  0
 41 85  1  0  0  0
 41 86  1  0  0  0
 42 43  1  0  0  0
 42 87  1  0  0  0
 42 88  1  0  0  0
 43 89  1  0  0  0
 43 90  1  0  0  0
 44 91  1  0  0  0
M  END
> <s_m_entry_id>
26355

> <s_m_entry_name>
dock_pv.179

> <s_m_Source_Path>
/home/csk/Desktop/cluster/DUD-E-result/reni

> <s_m_Source_File>
dock_pv.maegz

> <i_m_Source_File_Index>
179

> <chembl_id>
CHEMBL354179

> <chembl_pref_name>
None

> <i_lp_mmshare_version>
53161

> <r_lp_tautomer_probability>
1

> <s_lp_Force_Field>
OPLS_2005

> <r_lp_Energy>
41.962329

> <b_lp_Chiralities_Consistent>
1

> <s_lp_Variant>
CHEMBL286_lig639-1

> <s_i_glide_gridfile>
glide-grid_3g6z

> <i_i_glide_lignum>
1811

> <i_i_glide_rotatable_bonds>
18

> <r_i_docking_score>
-7.23530078070835

> <r_i_glide_ligand_efficiency>
-0.164438654107008

> <r_i_glide_ligand_efficiency_sa>
-0.58052572805766

> <r_i_glide_ligand_efficiency_ln>
-1.51233570036868

> <r_i_glide_gscore>
-7.23530078070835

> <r_i_glide_lipo>
-3.67129034299197

> <r_i_glide_hbond>
0

> <r_i_glide_metal>
0

> <r_i_glide_rewards>
-1.09606389908532

> <r_i_glide_evdw>
-46.1636962890625

> <r_i_glide_ecoul>
-5.46765947341919

> <r_i_glide_erotb>
0.668285649339404

> <r_i_glide_esite>
-0.00789845250445677

> <r_i_glide_emodel>
-66.1876969936907

> <r_i_glide_energy>
-51.6313557624817

> <r_i_glide_einternal>
16.8257942199707

> <i_i_glide_confnum>
10

> <i_i_glide_posenum>
264

> <r_i_glide_eff_state_penalty>
0

> <s_user_duplicate_titles>
CHEMBL286_lig639

> <i_f3d_flags>
0

> <s_m_subgroup_title>
dock_pv

> <s_m_subgroupid>
dock_pv

> <b_m_subgroup_collapsed>
1

$$$$
CHEMBL286_lig646
                    3D
 Schrodinger Suite 2021-1.
 97101  0  0  1  0            999 V2000
    0.4717  -15.7812   -9.9195 C   0  0  0  0  0  0
   -4.9249  -17.4248   -9.8119 C   0  0  0  0  0  0
   -3.0201  -14.8150   -9.5906 C   0  0  0  0  0  0
    0.7508  -17.0716  -10.4053 N   0  0  0  0  0  0
   -3.5553  -15.6738   -8.6995 N   0  0  0  0  0  0
   -6.0025  -18.2321   -9.8131 N   0  0  0  0  0  0
   -0.8155  -15.4281  -10.1663 O   0  0  0  0  0  0
   -4.8868  -16.3013   -8.7527 C   0  0  1  0  0  0
   -7.2068  -13.1992   -8.0626 N   0  0  0  0  0  0
   -1.5323  -14.4597   -9.3966 C   0  0  1  0  0  0
   -6.0897  -14.0418   -8.0775 C   0  0  0  0  0  0
   -6.2238  -19.2691  -10.8347 C   0  0  1  0  0  0
   -6.0452  -15.2805   -8.9519 C   0  0  0  0  0  0
   -5.6785  -12.3428   -6.7121 N   0  0  0  0  0  0
   -6.8914  -12.2077   -7.2401 C   0  0  0  0  0  0
    1.2666  -15.0567   -9.3169 O   0  0  0  0  0  0
  -13.0581  -20.2795  -11.4526 N   0  0  0  0  0  0
   -5.1450  -13.5102   -7.2210 C   0  0  0  0  0  0
  -11.7596  -20.1313  -11.0738 C   0  0  0  0  0  0
   -3.9867  -17.5610  -10.5990 O   0  0  0  0  0  0
   -3.6533  -14.3510  -10.5397 O   0  0  0  0  0  0
   -1.1891  -12.9968   -9.7973 C   0  0  0  0  0  0
   -6.6649  -20.6377  -10.2382 C   0  0  0  0  0  0
    1.4710  -18.7454  -12.4731 O   0  0  0  0  0  0
   -7.1127  -18.7164  -11.9980 C   0  0  2  0  0  0
  -11.1983  -18.4639  -10.8210 S   0  0  0  0  0  0
   -8.6390  -18.9576  -11.9209 C   0  0  0  0  0  0
   -1.8492  -11.9557   -8.8953 C   0  0  0  0  0  0
   -9.3803  -18.4281  -10.6762 C   0  0  0  0  0  0
   -0.2839  -17.9447  -10.9954 C   0  0  0  0  0  0
    2.1408  -17.5573  -10.4374 C   0  0  0  0  0  0
   -6.6687  -19.2629  -13.2246 O   0  0  0  0  0  0
   -5.8517  -21.1700   -9.0269 C   0  0  0  0  0  0
  -13.5044  -21.5312  -11.7265 C   0  0  0  0  0  0
    2.4551  -17.8802  -11.9171 C   0  0  0  0  0  0
    0.1581  -18.1950  -12.4463 C   0  0  0  0  0  0
  -10.9053  -21.2276  -10.9024 C   0  0  0  0  0  0
   -3.0712  -11.3841   -9.2623 C   0  0  0  0  0  0
   -1.2432  -11.5957   -7.6889 C   0  0  0  0  0  0
   -6.4213  -22.5171   -8.5221 C   0  0  0  0  0  0
   -4.3437  -21.3578   -9.3255 C   0  0  0  0  0  0
  -12.6923  -22.6631  -11.6467 C   0  0  0  0  0  0
  -11.3743  -22.5030  -11.2209 C   0  0  0  0  0  0
   -1.8586  -10.6702   -6.8501 C   0  0  0  0  0  0
   -3.6889  -10.4632   -8.4214 C   0  0  0  0  0  0
   -3.5769  -21.7953   -8.0587 C   0  0  0  0  0  0
   -5.7030  -22.9828   -7.2371 C   0  0  0  0  0  0
   -4.1747  -23.0819   -7.4461 C   0  0  0  0  0  0
   -3.0786  -10.1084   -7.2204 C   0  0  0  0  0  0
   -2.9607  -16.0329   -7.9681 H   0  0  0  0  0  0
   -6.7326  -18.0902   -9.1327 H   0  0  0  0  0  0
   -5.0273  -16.7680   -7.7791 H   0  0  0  0  0  0
   -1.2919  -14.5779   -8.3361 H   0  0  0  0  0  0
   -5.2574  -19.5037  -11.2899 H   0  0  0  0  0  0
   -6.0651  -14.9373   -9.9873 H   0  0  0  0  0  0
   -6.9962  -15.7940   -8.8077 H   0  0  0  0  0  0
   -5.2241  -11.7040   -6.0744 H   0  0  0  0  0  0
   -7.5504  -11.3794   -7.0266 H   0  0  0  0  0  0
   -4.1554  -13.8393   -6.9462 H   0  0  0  0  0  0
   -0.1106  -12.8397   -9.7740 H   0  0  0  0  0  0
   -1.4688  -12.8108  -10.8346 H   0  0  0  0  0  0
   -7.7021  -20.5814   -9.9193 H   0  0  0  0  0  0
   -6.6498  -21.3815  -11.0373 H   0  0  0  0  0  0
   -6.9419  -17.6432  -12.0984 H   0  0  0  0  0  0
   -8.8115  -20.0242  -12.0328 H   0  0  0  0  0  0
   -9.1185  -18.5033  -12.7868 H   0  0  0  0  0  0
   -9.1073  -17.3839  -10.5204 H   0  0  0  0  0  0
   -9.0908  -18.9482   -9.7652 H   0  0  0  0  0  0
   -0.2318  -18.8732  -10.4267 H   0  0  0  0  0  0
   -1.3096  -17.5775  -10.9287 H   0  0  0  0  0  0
    2.8521  -16.8436  -10.0205 H   0  0  0  0  0  0
    2.1499  -18.4628   -9.8336 H   0  0  0  0  0  0
   -7.1727  -18.8302  -13.9317 H   0  0  0  0  0  0
   -5.9425  -20.4633   -8.2019 H   0  0  0  0  0  0
  -14.5400  -21.6183  -12.0212 H   0  0  0  0  0  0
    2.5196  -16.9691  -12.5148 H   0  0  0  0  0  0
    3.4295  -18.3640  -11.9930 H   0  0  0  0  0  0
    0.1310  -17.2678  -13.0202 H   0  0  0  0  0  0
   -0.5353  -18.8814  -12.9323 H   0  0  0  0  0  0
   -9.8964  -21.1109  -10.5431 H   0  0  0  0  0  0
   -3.5488  -11.6651  -10.1906 H   0  0  0  0  0  0
   -0.2992  -12.0357   -7.4020 H   0  0  0  0  0  0
   -7.4903  -22.4126   -8.3204 H   0  0  0  0  0  0
   -6.3553  -23.2758   -9.3066 H   0  0  0  0  0  0
   -4.2052  -22.0768  -10.1374 H   0  0  0  0  0  0
   -3.9101  -20.4298   -9.7013 H   0  0  0  0  0  0
  -13.0827  -23.6412  -11.8919 H   0  0  0  0  0  0
  -10.7255  -23.3616  -11.1257 H   0  0  0  0  0  0
   -1.3937  -10.3916   -5.9150 H   0  0  0  0  0  0
   -4.6358  -10.0274   -8.7031 H   0  0  0  0  0  0
   -3.6083  -20.9900   -7.3199 H   0  0  0  0  0  0
   -2.5216  -21.9515   -8.2959 H   0  0  0  0  0  0
   -5.9156  -22.2808   -6.4271 H   0  0  0  0  0  0
   -6.0976  -23.9488   -6.9189 H   0  0  0  0  0  0
   -3.6842  -23.3057   -6.4982 H   0  0  0  0  0  0
   -3.9563  -23.9239   -8.1063 H   0  0  0  0  0  0
   -3.5549   -9.3917   -6.5694 H   0  0  0  0  0  0
  1  4  1  0  0  0
  1  7  1  0  0  0
  1 16  2  0  0  0
  2  8  1  0  0  0
  2  6  1  0  0  0
  2 20  2  0  0  0
  3 10  1  0  0  0
  3  5  1  0  0  0
  3 21  2  0  0  0
  4 30  1  0  0  0
  4 31  1  0  0  0
  5  8  1  0  0  0
  5 50  1  0  0  0
  6 12  1  0  0  0
  6 51  1  0  0  0
  7 10  1  0  0  0
  8 13  1  0  0  0
  8 52  1  0  0  0
  9 11  1  0  0  0
  9 15  2  0  0  0
 10 22  1  0  0  0
 10 53  1  0  0  0
 11 13  1  0  0  0
 11 18  2  0  0  0
 12 23  1  0  0  0
 12 25  1  0  0  0
 12 54  1  0  0  0
 13 55  1  0  0  0
 13 56  1  0  0  0
 14 18  1  0  0  0
 14 15  1  0  0  0
 14 57  1  0  0  0
 15 58  1  0  0  0
 17 19  2  0  0  0
 17 34  1  0  0  0
 18 59  1  0  0  0
 19 26  1  0  0  0
 19 37  1  0  0  0
 22 28  1  0  0  0
 22 60  1  0  0  0
 22 61  1  0  0  0
 23 33  1  0  0  0
 23 62  1  0  0  0
 23 63  1  0  0  0
 24 35  1  0  0  0
 24 36  1  0  0  0
 25 27  1  0  0  0
 25 32  1  0  0  0
 25 64  1  0  0  0
 26 29  1  0  0  0
 27 29  1  0  0  0
 27 65  1  0  0  0
 27 66  1  0  0  0
 28 38  2  0  0  0
 28 39  1  0  0  0
 29 67  1  0  0  0
 29 68  1  0  0  0
 30 36  1  0  0  0
 30 69  1  0  0  0
 30 70  1  0  0  0
 31 35  1  0  0  0
 31 71  1  0  0  0
 31 72  1  0  0  0
 32 73  1  0  0  0
 33 40  1  0  0  0
 33 41  1  0  0  0
 33 74  1  0  0  0
 34 42  2  0  0  0
 34 75  1  0  0  0
 35 76  1  0  0  0
 35 77  1  0  0  0
 36 78  1  0  0  0
 36 79  1  0  0  0
 37 43  2  0  0  0
 37 80  1  0  0  0
 38 45  1  0  0  0
 38 81  1  0  0  0
 39 44  2  0  0  0
 39 82  1  0  0  0
 40 47  1  0  0  0
 40 83  1  0  0  0
 40 84  1  0  0  0
 41 46  1  0  0  0
 41 85  1  0  0  0
 41 86  1  0  0  0
 42 43  1  0  0  0
 42 87  1  0  0  0
 43 88  1  0  0  0
 44 49  1  0  0  0
 44 89  1  0  0  0
 45 49  2  0  0  0
 45 90  1  0  0  0
 46 48  1  0  0  0
 46 91  1  0  0  0
 46 92  1  0  0  0
 47 48  1  0  0  0
 47 93  1  0  0  0
 47 94  1  0  0  0
 48 95  1  0  0  0
 48 96  1  0  0  0
 49 97  1  0  0  0
M  END
> <s_m_entry_id>
26356

> <s_m_entry_name>
dock_pv.180

> <s_m_Source_Path>
/home/csk/Desktop/cluster/DUD-E-result/reni

> <s_m_Source_File>
dock_pv.maegz

> <i_m_Source_File_Index>
180

> <chembl_id>
CHEMBL118172

> <chembl_pref_name>
None

> <i_lp_mmshare_version>
53161

> <r_lp_tautomer_probability>
0.499999999999999

> <s_lp_Force_Field>
OPLS_2005

> <r_lp_Energy>
32.863878

> <b_lp_Chiralities_Consistent>
1

> <s_lp_Variant>
CHEMBL286_lig646-1

> <s_i_glide_gridfile>
glide-grid_3g6z

> <i_i_glide_lignum>
1836

> <i_i_glide_rotatable_bonds>
21

> <r_i_docking_score>
-7.22642169354561

> <r_i_glide_ligand_efficiency>
-0.147477993745829

> <r_i_glide_ligand_efficiency_sa>
-0.539667063916747

> <r_i_glide_ligand_efficiency_ln>
-1.47724594387424

> <r_i_glide_gscore>
-7.22642169354561

> <r_i_glide_lipo>
-3.31481652744237

> <r_i_glide_hbond>
-0.439724838443625

> <r_i_glide_metal>
0

> <r_i_glide_rewards>
-0.396436179073034

> <r_i_glide_evdw>
-57.1408653259277

> <r_i_glide_ecoul>
-4.76891660690308

> <r_i_glide_erotb>
0.49693660874527

> <r_i_glide_esite>
0

> <r_i_glide_emodel>
-82.268568476157

> <r_i_glide_energy>
-61.9097819328308

> <r_i_glide_einternal>
14.2057132720947

> <i_i_glide_confnum>
22

> <i_i_glide_posenum>
155

> <r_i_glide_eff_state_penalty>
0

> <s_user_duplicate_titles>
CHEMBL286_lig646

> <i_f3d_flags>
0

> <s_m_subgroup_title>
dock_pv

> <s_m_subgroupid>
dock_pv

> <b_m_subgroup_collapsed>
1

$$$$
CHEMBL286_lig2776
                    3D
 Schrodinger Suite 2021-1.
 62 65  0  0  1  0            999 V2000
  -13.1946  -21.5722  -11.8546 C   0  0  0  0  0  0
  -13.8692  -20.3437  -11.6218 O   0  0  0  0  0  0
  -13.4690  -19.2633  -12.4636 C   0  0  0  0  0  0
  -12.1362  -18.6420  -12.0209 C   0  0  0  0  0  0
  -12.2689  -18.1816  -10.6924 O   0  0  0  0  0  0
  -11.2889  -17.2309  -10.3414 C   0  0  0  0  0  0
  -11.6835  -16.5843   -9.0052 C   0  0  0  0  0  0
  -10.9498  -15.3406   -8.8160 N   0  0  0  0  0  0
   -9.6336  -15.3200   -9.0736 N   0  0  0  0  0  0
   -9.1924  -14.0986   -8.9115 C   0  0  0  0  0  0
   -7.7496  -13.7425   -9.2873 C   0  0  1  0  0  0
   -6.9042  -13.2904   -8.0769 C   0  0  0  0  0  0
   -7.0808  -14.7109  -10.2177 N   0  0  0  0  0  0
   -7.3094  -14.3602  -11.6334 C   0  0  0  0  0  0
   -6.7591  -13.0670  -12.1965 C   0  0  0  0  0  0
   -6.2140  -14.3774  -12.6840 C   0  0  0  0  0  0
   -6.6210  -15.9317   -9.7848 C   0  0  0  0  0  0
   -6.5583  -16.1953   -8.5801 O   0  0  0  0  0  0
   -6.1570  -17.0662  -10.7434 C   0  0  1  0  0  0
   -7.2199  -17.5126  -11.7903 C   0  0  0  0  0  0
   -6.6662  -18.3964  -12.8189 N   0  0  2  0  0  0
   -5.3930  -17.9090  -13.3487 C   0  0  0  0  0  0
   -4.3819  -17.6178  -12.2198 C   0  0  0  0  0  0
   -4.9141  -16.6603  -11.3114 O   0  0  0  0  0  0
  -10.2614  -13.2634   -8.4210 C   0  0  0  0  0  0
  -10.4069  -11.9237   -8.0210 C   0  0  0  0  0  0
  -11.6633  -11.4700   -7.6205 C   0  0  0  0  0  0
  -12.7651  -12.3205   -7.6013 C   0  0  0  0  0  0
  -12.6652  -13.6612   -7.9745 C   0  0  0  0  0  0
  -11.4029  -14.1121   -8.3803 C   0  0  0  0  0  0
  -13.6216  -22.3467  -11.2206 H   0  0  0  0  0  0
  -13.3120  -21.9009  -12.8882 H   0  0  0  0  0  0
  -12.1312  -21.5030  -11.6225 H   0  0  0  0  0  0
  -14.2160  -18.4729  -12.4210 H   0  0  0  0  0  0
  -13.4692  -19.5546  -13.5131 H   0  0  0  0  0  0
  -11.8993  -17.8211  -12.7005 H   0  0  0  0  0  0
  -11.3135  -19.3573  -12.0211 H   0  0  0  0  0  0
  -11.2239  -16.4550  -11.1095 H   0  0  0  0  0  0
  -10.3120  -17.7143  -10.2695 H   0  0  0  0  0  0
  -11.4722  -17.2484   -8.1666 H   0  0  0  0  0  0
  -12.7504  -16.3616   -8.9943 H   0  0  0  0  0  0
   -7.8691  -12.8450   -9.8847 H   0  0  0  0  0  0
   -7.2980  -12.3707   -7.6451 H   0  0  0  0  0  0
   -6.8943  -14.0378   -7.2834 H   0  0  0  0  0  0
   -5.8714  -13.0973   -8.3677 H   0  0  0  0  0  0
   -8.3088  -14.6397  -11.9644 H   0  0  0  0  0  0
   -7.4202  -12.4678  -12.8210 H   0  0  0  0  0  0
   -6.0658  -12.4629  -11.6212 H   0  0  0  0  0  0
   -5.1799  -14.5931  -12.4210 H   0  0  0  0  0  0
   -6.4681  -14.7256  -13.6850 H   0  0  0  0  0  0
   -5.9544  -17.9301  -10.1051 H   0  0  0  0  0  0
   -7.6780  -16.6781  -12.3125 H   0  0  0  0  0  0
   -8.0498  -18.0082  -11.2862 H   0  0  0  0  0  0
   -7.3447  -18.4585  -13.5813 H   0  0  0  0  0  0
   -5.5684  -17.0089  -13.9389 H   0  0  0  0  0  0
   -4.9873  -18.6529  -14.0327 H   0  0  0  0  0  0
   -3.4632  -17.2144  -12.6453 H   0  0  0  0  0  0
   -4.1083  -18.5337  -11.6929 H   0  0  0  0  0  0
   -9.5670  -11.2473   -8.0192 H   0  0  0  0  0  0
  -11.7893  -10.4406   -7.3165 H   0  0  0  0  0  0
  -13.7221  -11.9289   -7.2838 H   0  0  0  0  0  0
  -13.5245  -14.3134   -7.9454 H   0  0  0  0  0  0
  1  2  1  0  0  0
  1 31  1  0  0  0
  1 32  1  0  0  0
  1 33  1  0  0  0
  2  3  1  0  0  0
  3  4  1  0  0  0
  3 34  1  0  0  0
  3 35  1  0  0  0
  4  5  1  0  0  0
  4 36  1  0  0  0
  4 37  1  0  0  0
  5  6  1  0  0  0
  6  7  1  0  0  0
  6 38  1  0  0  0
  6 39  1  0  0  0
  7  8  1  0  0  0
  7 40  1  0  0  0
  7 41  1  0  0  0
  8  9  1  0  0  0
  8 30  1  0  0  0
  9 10  2  0  0  0
 10 11  1  0  0  0
 10 25  1  0  0  0
 11 12  1  0  0  0
 11 13  1  0  0  0
 11 42  1  0  0  0
 12 43  1  0  0  0
 12 44  1  0  0  0
 12 45  1  0  0  0
 13 14  1  0  0  0
 13 17  1  0  0  0
 14 15  1  0  0  0
 14 16  1  0  0  0
 14 46  1  0  0  0
 15 16  1  0  0  0
 15 47  1  0  0  0
 15 48  1  0  0  0
 16 49  1  0  0  0
 16 50  1  0  0  0
 17 18  2  0  0  0
 17 19  1  0  0  0
 19 20  1  0  0  0
 19 24  1  0  0  0
 19 51  1  0  0  0
 20 21  1  0  0  0
 20 52  1  0  0  0
 20 53  1  0  0  0
 21 22  1  0  0  0
 21 54  1  0  0  0
 22 23  1  0  0  0
 22 55  1  0  0  0
 22 56  1  0  0  0
 23 24  1  0  0  0
 23 57  1  0  0  0
 23 58  1  0  0  0
 25 26  2  0  0  0
 25 30  1  0  0  0
 26 27  1  0  0  0
 26 59  1  0  0  0
 27 28  2  0  0  0
 27 60  1  0  0  0
 28 29  1  0  0  0
 28 61  1  0  0  0
 29 30  2  0  0  0
 29 62  1  0  0  0
M  END
> <s_m_entry_id>
26357

> <s_m_entry_name>
dock_pv.181

> <s_m_Source_Path>
/home/csk/Desktop/cluster/DUD-E-result/reni

> <s_m_Source_File>
dock_pv.maegz

> <i_m_Source_File_Index>
181

> <chembl_id>
CHEMBL4108760

> <chembl_pref_name>
None

> <i_lp_mmshare_version>
53161

> <r_lp_tautomer_probability>
1

> <s_lp_Force_Field>
OPLS_2005

> <r_lp_Energy>
53.22276

> <b_lp_Chiralities_Consistent>
1

> <s_lp_Variant>
CHEMBL286_lig2776-1

> <s_i_glide_gridfile>
glide-grid_3g6z

> <i_i_glide_lignum>
6874

> <i_i_glide_rotatable_bonds>
11

> <r_i_docking_score>
-7.22618768317114

> <r_i_glide_ligand_efficiency>
-0.240872922772371

> <r_i_glide_ligand_efficiency_sa>
-0.748448174593886

> <r_i_glide_ligand_efficiency_ln>
-1.64186857723752

> <r_i_glide_gscore>
-7.22618768317114

> <r_i_glide_lipo>
-3.61025575968886

> <r_i_glide_hbond>
-0.497165019558421

> <r_i_glide_metal>
0

> <r_i_glide_rewards>
-1.62873605306165

> <r_i_glide_evdw>
-34.4710655212402

> <r_i_glide_ecoul>
-6.03530883789062

> <r_i_glide_erotb>
1.13881875088339

> <r_i_glide_esite>
0

> <r_i_glide_emodel>
-51.8490744124331

> <r_i_glide_energy>
-40.5063743591309

> <r_i_glide_einternal>
10.8799247741699

> <i_i_glide_confnum>
136

> <i_i_glide_posenum>
100

> <r_i_glide_eff_state_penalty>
0

> <s_user_duplicate_titles>
CHEMBL286_lig2776

> <i_f3d_flags>
0

> <s_m_subgroup_title>
dock_pv

> <s_m_subgroupid>
dock_pv

> <b_m_subgroup_collapsed>
1

$$$$
CHEMBL286_lig1224
                    3D
 Schrodinger Suite 2021-1.
 90 93  0  0  1  0            999 V2000
  -10.4602  -16.8629   -8.5888 C   0  0  0  0  0  0
   -5.2788  -15.5082  -10.4418 C   0  0  0  0  0  0
   -7.5053  -17.6152  -10.0396 C   0  0  0  0  0  0
   -4.0585  -13.7379   -9.1354 C   0  0  1  0  0  0
   -5.2123  -13.2308   -8.1935 C   0  0  2  0  0  0
   -4.2900  -15.1091   -9.6248 N   0  0  0  0  0  0
   -6.5911  -17.5266  -11.0171 N   0  0  0  0  0  0
  -11.4717  -16.0143   -8.2548 N   0  0  0  0  0  0
   -5.2464  -16.9946  -10.8412 C   0  0  1  0  0  0
   -8.9273  -18.0341  -10.4736 C   0  0  2  0  0  0
   -4.8227  -12.0952   -7.2034 C   0  0  0  0  0  0
   -1.6427  -19.5436  -11.5862 N   0  0  0  0  0  0
   -8.1789  -20.5531   -9.9883 C   0  0  0  0  0  0
  -10.0108  -16.9769  -10.0691 C   0  0  0  0  0  0
   -3.4014  -18.2877  -12.0675 C   0  0  0  0  0  0
   -4.4464  -17.2053  -12.1427 C   0  0  0  0  0  0
   -9.3050  -19.5169  -10.1450 C   0  0  0  0  0  0
   -3.4814  -19.4619  -12.8204 N   0  0  0  0  0  0
   -2.4085  -20.1644  -12.4806 C   0  0  0  0  0  0
   -7.3362  -20.9373  -11.0845 C   0  0  0  0  0  0
   -2.2485  -18.3300  -11.3071 C   0  0  0  0  0  0
   -9.8687  -17.5295   -7.7353 O   0  0  0  0  0  0
   -7.2465  -17.3552   -8.8640 O   0  0  0  0  0  0
   -6.1662  -14.7716  -10.8719 O   0  0  0  0  0  0
   -3.7622  -12.7725  -10.3337 C   0  0  0  0  0  0
   -5.2503  -12.0631   -6.0462 O   0  0  0  0  0  0
   -6.3012  -21.9015  -10.8477 C   0  0  0  0  0  0
   -5.7701  -14.3047   -7.4296 O   0  0  0  0  0  0
   -3.9667  -11.1842   -7.7111 O   0  0  0  0  0  0
  -12.2738  -15.2701   -9.2489 C   0  0  0  0  0  0
  -11.9562  -15.9641   -6.8561 C   0  0  0  0  0  0
   -7.9862  -21.1396   -8.7348 C   0  0  0  0  0  0
   -6.9823  -22.0707   -8.5167 C   0  0  0  0  0  0
   -2.4460  -12.9643  -11.1525 C   0  0  0  0  0  0
   -7.4648  -20.4091  -12.3990 C   0  0  0  0  0  0
   -6.1405  -22.4502   -9.5538 C   0  0  0  0  0  0
   -5.4543  -22.2961  -11.9143 C   0  0  0  0  0  0
   -3.4655  -10.1297   -6.9003 C   0  0  0  0  0  0
   -2.6703  -12.4648  -12.5973 C   0  0  0  0  0  0
   -1.8263  -14.3833  -11.1336 C   0  0  0  0  0  0
  -12.3362  -13.7918   -8.8123 C   0  0  0  0  0  0
  -12.0651  -14.4866   -6.4254 C   0  0  0  0  0  0
   -6.5963  -20.7960  -13.4124 C   0  0  0  0  0  0
   -5.6143  -21.7516  -13.1819 C   0  0  0  0  0  0
  -12.8950  -13.6371   -7.3937 C   0  0  0  0  0  0
   -3.1526  -13.8041   -8.5296 H   0  0  0  0  0  0
   -6.0238  -12.8532   -8.8156 H   0  0  0  0  0  0
   -3.6294  -15.8053   -9.3119 H   0  0  0  0  0  0
   -6.8589  -17.7491  -11.9650 H   0  0  0  0  0  0
   -4.7712  -17.5495  -10.0274 H   0  0  0  0  0  0
   -8.9278  -17.9788  -11.5629 H   0  0  0  0  0  0
   -0.7896  -19.9038  -11.1760 H   0  0  0  0  0  0
   -9.6633  -15.9943  -10.3808 H   0  0  0  0  0  0
  -10.8939  -17.1848  -10.6725 H   0  0  0  0  0  0
   -5.1085  -17.4151  -12.9863 H   0  0  0  0  0  0
   -3.9386  -16.2896  -12.4213 H   0  0  0  0  0  0
  -10.0004  -19.8952  -10.8957 H   0  0  0  0  0  0
   -9.8689  -19.5346   -9.2217 H   0  0  0  0  0  0
   -2.1918  -21.1437  -12.8798 H   0  0  0  0  0  0
   -1.8358  -17.6238  -10.6044 H   0  0  0  0  0  0
   -4.6174  -12.8167  -11.0097 H   0  0  0  0  0  0
   -3.7701  -11.7349  -10.0115 H   0  0  0  0  0  0
   -6.0021  -15.0259   -8.0262 H   0  0  0  0  0  0
  -11.8979  -15.3331  -10.2687 H   0  0  0  0  0  0
  -13.2794  -15.6894   -9.2213 H   0  0  0  0  0  0
  -12.9396  -16.4343   -6.8199 H   0  0  0  0  0  0
  -11.2871  -16.4618   -6.1537 H   0  0  0  0  0  0
   -8.6200  -20.8607   -7.9058 H   0  0  0  0  0  0
   -6.8512  -22.4953   -7.5329 H   0  0  0  0  0  0
   -1.6906  -12.3157  -10.7044 H   0  0  0  0  0  0
   -8.2392  -19.6965  -12.6334 H   0  0  0  0  0  0
   -5.3573  -23.1728   -9.3731 H   0  0  0  0  0  0
   -4.6760  -23.0234  -11.7372 H   0  0  0  0  0  0
   -2.7656   -9.5186   -7.4743 H   0  0  0  0  0  0
   -4.2754   -9.4876   -6.5565 H   0  0  0  0  0  0
   -2.9447  -10.5177   -6.0212 H   0  0  0  0  0  0
   -3.5889  -12.8631  -13.0284 H   0  0  0  0  0  0
   -2.7444  -11.3806  -12.6366 H   0  0  0  0  0  0
   -1.8691  -12.7620  -13.2690 H   0  0  0  0  0  0
   -2.4905  -15.1132  -11.5709 H   0  0  0  0  0  0
   -0.8960  -14.4636  -11.6945 H   0  0  0  0  0  0
   -1.5921  -14.7027  -10.1173 H   0  0  0  0  0  0
  -11.3399  -13.3512   -8.8635 H   0  0  0  0  0  0
  -12.9512  -13.2289   -9.5150 H   0  0  0  0  0  0
  -12.4871  -14.4558   -5.4226 H   0  0  0  0  0  0
  -11.0693  -14.0512   -6.3462 H   0  0  0  0  0  0
   -6.7053  -20.3639  -14.3957 H   0  0  0  0  0  0
   -4.9592  -22.0595  -13.9813 H   0  0  0  0  0  0
  -13.9376  -13.9536   -7.3699 H   0  0  0  0  0  0
  -12.8791  -12.5916   -7.0853 H   0  0  0  0  0  0
  1  8  1  0  0  0
  1 14  1  0  0  0
  1 22  2  0  0  0
  2  9  1  0  0  0
  2  6  1  0  0  0
  2 24  2  0  0  0
  3 10  1  0  0  0
  3  7  1  0  0  0
  3 23  2  0  0  0
  4  6  1  0  0  0
  4  5  1  0  0  0
  4 25  1  0  0  0
  4 46  1  0  0  0
  5 11  1  0  0  0
  5 28  1  0  0  0
  5 47  1  0  0  0
  6 48  1  0  0  0
  7  9  1  0  0  0
  7 49  1  0  0  0
  8 30  1  0  0  0
  8 31  1  0  0  0
  9 16  1  0  0  0
  9 50  1  0  0  0
 10 14  1  0  0  0
 10 17  1  0  0  0
 10 51  1  0  0  0
 11 26  2  0  0  0
 11 29  1  0  0  0
 12 21  1  0  0  0
 12 19  1  0  0  0
 12 52  1  0  0  0
 13 17  1  0  0  0
 13 20  2  0  0  0
 13 32  1  0  0  0
 14 53  1  0  0  0
 14 54  1  0  0  0
 15 16  1  0  0  0
 15 18  1  0  0  0
 15 21  2  0  0  0
 16 55  1  0  0  0
 16 56  1  0  0  0
 17 57  1  0  0  0
 17 58  1  0  0  0
 18 19  2  0  0  0
 19 59  1  0  0  0
 20 27  1  0  0  0
 20 35  1  0  0  0
 21 60  1  0  0  0
 25 34  1  0  0  0
 25 61  1  0  0  0
 25 62  1  0  0  0
 27 37  1  0  0  0
 27 36  2  0  0  0
 28 63  1  0  0  0
 29 38  1  0  0  0
 30 41  1  0  0  0
 30 64  1  0  0  0
 30 65  1  0  0  0
 31 42  1  0  0  0
 31 66  1  0  0  0
 31 67  1  0  0  0
 32 33  2  0  0  0
 32 68  1  0  0  0
 33 36  1  0  0  0
 33 69  1  0  0  0
 34 39  1  0  0  0
 34 40  1  0  0  0
 34 70  1  0  0  0
 35 43  2  0  0  0
 35 71  1  0  0  0
 36 72  1  0  0  0
 37 44  2  0  0  0
 37 73  1  0  0  0
 38 74  1  0  0  0
 38 75  1  0  0  0
 38 76  1  0  0  0
 39 77  1  0  0  0
 39 78  1  0  0  0
 39 79  1  0  0  0
 40 80  1  0  0  0
 40 81  1  0  0  0
 40 82  1  0  0  0
 41 45  1  0  0  0
 41 83  1  0  0  0
 41 84  1  0  0  0
 42 45  1  0  0  0
 42 85  1  0  0  0
 42 86  1  0  0  0
 43 44  1  0  0  0
 43 87  1  0  0  0
 44 88  1  0  0  0
 45 89  1  0  0  0
 45 90  1  0  0  0
M  END
> <s_m_entry_id>
26358

> <s_m_entry_name>
dock_pv.182

> <s_m_Source_Path>
/home/csk/Desktop/cluster/DUD-E-result/reni

> <s_m_Source_File>
dock_pv.maegz

> <i_m_Source_File_Index>
182

> <chembl_id>
CHEMBL159336

> <chembl_pref_name>
None

> <i_lp_mmshare_version>
53161

> <r_lp_tautomer_probability>
0.499999999999999

> <s_lp_Force_Field>
OPLS_2005

> <r_lp_Energy>
47.821428

> <b_lp_Chiralities_Consistent>
1

> <s_lp_Variant>
CHEMBL286_lig1224-5

> <s_i_glide_gridfile>
glide-grid_3g6z

> <i_i_glide_lignum>
3965

> <i_i_glide_rotatable_bonds>
19

> <r_i_docking_score>
-7.22414107958374

> <r_i_glide_ligand_efficiency>
-0.160536468435194

> <r_i_glide_ligand_efficiency_sa>
-0.571011088979074

> <r_i_glide_ligand_efficiency_ln>
-1.50294327820153

> <r_i_glide_gscore>
-7.22414107958374

> <r_i_glide_lipo>
-2.7693662405886

> <r_i_glide_hbond>
-0.0285537272208809

> <r_i_glide_metal>
0

> <r_i_glide_rewards>
-1.86215792094389

> <r_i_glide_evdw>
-51.6506385803223

> <r_i_glide_ecoul>
-3.7033109664917

> <r_i_glide_erotb>
0.582473839846423

> <r_i_glide_esite>
-0.00850845668692655

> <r_i_glide_emodel>
-75.1130140532972

> <r_i_glide_energy>
-55.353949546814

> <r_i_glide_einternal>
10.5901079177856

> <i_i_glide_confnum>
9

> <i_i_glide_posenum>
239

> <r_i_glide_eff_state_penalty>
0

> <s_user_duplicate_titles>
CHEMBL286_lig1224

> <i_f3d_flags>
0

> <s_m_subgroup_title>
dock_pv

> <s_m_subgroupid>
dock_pv

> <b_m_subgroup_collapsed>
1

$$$$
CHEMBL286_lig1339
                    3D
 Schrodinger Suite 2021-1.
102104  0  0  1  0            999 V2000
   -5.3345  -13.6635   -8.6769 C   0  0  0  0  0  0
   -8.8030  -18.3658  -10.7583 C   0  0  0  0  0  0
   -7.7583  -15.7796   -9.2530 C   0  0  0  0  0  0
   -6.5555  -13.6646   -9.2374 N   0  0  0  0  0  0
   -8.0860  -15.9406  -10.5548 N   0  0  0  0  0  0
   -8.5561  -19.5899  -11.2524 N   0  0  0  0  0  0
   -3.5478  -11.8429   -8.7000 N   0  0  0  0  0  0
   -6.4326  -22.4169   -8.3046 C   0  0  0  0  0  0
   -7.9711  -17.1858  -11.3407 C   0  0  1  0  0  0
   -7.0274  -21.6404   -9.4987 C   0  0  0  0  0  0
   -7.7357  -14.3423   -8.6988 C   0  0  1  0  0  0
   -5.0674  -20.7319  -12.7847 N   0  0  0  0  0  0
   -4.2450  -12.9033   -9.4574 C   0  0  1  0  0  0
   -5.1245  -22.7252   -8.3085 N   0  0  0  0  0  0
   -4.1712  -23.6681  -10.4011 C   0  0  0  0  0  0
   -4.1580  -22.4925   -9.3883 C   0  0  2  0  0  0
   -9.1158  -20.8882  -10.8461 C   0  0  1  0  0  0
   -6.0055  -18.7287  -12.2847 C   0  0  0  0  0  0
   -6.4504  -17.4510  -11.6012 C   0  0  0  0  0  0
   -6.6153  -19.2629  -13.4116 N   0  0  0  0  0  0
   -6.0583  -20.4573  -13.6212 C   0  0  0  0  0  0
   -4.1518  -10.9307   -7.9103 C   0  0  0  0  0  0
   -8.5611  -21.3927   -9.4694 C   0  0  2  0  0  0
   -5.0224  -19.6265  -11.9356 C   0  0  0  0  0  0
   -5.0561  -14.1959   -7.6030 O   0  0  0  0  0  0
   -9.6588  -18.1616   -9.8976 O   0  0  0  0  0  0
   -7.4081  -16.6950   -8.5077 O   0  0  0  0  0  0
   -8.9815  -13.4482   -8.9660 C   0  0  0  0  0  0
   -7.1350  -22.7547   -7.3561 O   0  0  0  0  0  0
   -4.2783  -24.8317  -10.0196 O   0  0  0  0  0  0
  -10.6681  -20.9593  -10.9904 C   0  0  0  0  0  0
   -3.5475  -10.0636   -7.2812 O   0  0  0  0  0  0
   -4.0582  -23.3611  -11.6929 N   0  0  0  0  0  0
   -2.7034  -22.2960   -8.8385 C   0  0  1  0  0  0
  -10.3694  -13.8332   -8.4496 C   0  0  0  0  0  0
   -8.8500  -20.4632   -8.4382 O   0  0  0  0  0  0
   -2.1025  -11.9011   -8.9080 C   0  0  0  0  0  0
   -3.0938  -13.8234   -9.9028 C   0  0  0  0  0  0
   -1.9104  -12.8826  -10.0595 C   0  0  0  0  0  0
  -11.2300  -22.2192  -11.7003 C   0  0  0  0  0  0
   -2.5315  -20.9720   -8.0466 C   0  0  0  0  0  0
   -2.0932  -23.5025   -8.0838 C   0  0  0  0  0  0
  -10.9952  -15.0466   -8.8205 C   0  0  0  0  0  0
  -11.1041  -12.9162   -7.6606 C   0  0  0  0  0  0
  -12.7663  -22.1457  -11.8069 C   0  0  0  0  0  0
  -10.7945  -23.5491  -11.0551 C   0  0  0  0  0  0
   -3.1127  -20.9383   -6.6226 C   0  0  0  0  0  0
  -12.3842  -13.2321   -7.2231 C   0  0  0  0  0  0
  -12.2726  -15.3464   -8.3697 C   0  0  0  0  0  0
  -12.9646  -14.4432   -7.5724 C   0  0  0  0  0  0
   -6.6766  -13.2337  -10.1401 H   0  0  0  0  0  0
   -8.3763  -15.1309  -11.0821 H   0  0  0  0  0  0
   -7.8239  -19.6417  -11.9509 H   0  0  0  0  0  0
   -8.4340  -16.9785  -12.3065 H   0  0  0  0  0  0
   -6.5147  -20.6817   -9.5810 H   0  0  0  0  0  0
   -6.7821  -22.2025  -10.3998 H   0  0  0  0  0  0
   -7.6151  -14.4200   -7.6211 H   0  0  0  0  0  0
   -7.3390  -18.8075  -13.9802 H   0  0  0  0  0  0
   -4.6702  -12.4267  -10.3415 H   0  0  0  0  0  0
   -4.7623  -23.2372   -7.5187 H   0  0  0  0  0  0
   -4.4294  -21.5796   -9.9164 H   0  0  0  0  0  0
   -8.7160  -21.5602  -11.6073 H   0  0  0  0  0  0
   -6.0478  -16.6244  -12.1906 H   0  0  0  0  0  0
   -5.9127  -17.4159  -10.6516 H   0  0  0  0  0  0
   -6.3583  -21.1217  -14.4210 H   0  0  0  0  0  0
   -5.2472  -11.0377   -7.8830 H   0  0  0  0  0  0
   -9.0618  -22.3276   -9.2171 H   0  0  0  0  0  0
   -4.3169  -19.5744  -11.1175 H   0  0  0  0  0  0
   -8.7510  -12.4787   -8.5217 H   0  0  0  0  0  0
   -9.0696  -13.2636  -10.0302 H   0  0  0  0  0  0
  -11.1364  -20.8453  -10.0157 H   0  0  0  0  0  0
  -11.0165  -20.0940  -11.5571 H   0  0  0  0  0  0
   -4.0564  -24.1052  -12.3719 H   0  0  0  0  0  0
   -4.0606  -22.3963  -12.0079 H   0  0  0  0  0  0
   -2.0621  -22.1605   -9.7125 H   0  0  0  0  0  0
   -8.9631  -19.5901   -8.8419 H   0  0  0  0  0  0
   -1.6345  -12.2798   -7.9974 H   0  0  0  0  0  0
   -1.6713  -10.9241   -9.1332 H   0  0  0  0  0  0
   -2.8695  -14.5637   -9.1316 H   0  0  0  0  0  0
   -3.3171  -14.3631  -10.8254 H   0  0  0  0  0  0
   -0.9431  -13.3876  -10.0506 H   0  0  0  0  0  0
   -1.9962  -12.3518  -11.0085 H   0  0  0  0  0  0
  -10.8379  -22.2249  -12.7186 H   0  0  0  0  0  0
   -2.9699  -20.1534   -8.6191 H   0  0  0  0  0  0
   -1.4700  -20.7365   -7.9813 H   0  0  0  0  0  0
   -2.6983  -23.7993   -7.2273 H   0  0  0  0  0  0
   -1.9896  -24.3754   -8.7297 H   0  0  0  0  0  0
   -1.0941  -23.2672   -7.7171 H   0  0  0  0  0  0
  -10.4963  -15.7568   -9.4614 H   0  0  0  0  0  0
  -10.6756  -11.9623   -7.3864 H   0  0  0  0  0  0
  -13.2322  -22.0997  -10.8232 H   0  0  0  0  0  0
  -13.0890  -21.2634  -12.3587 H   0  0  0  0  0  0
  -13.1735  -23.0165  -12.3240 H   0  0  0  0  0  0
  -11.1144  -23.6149  -10.0174 H   0  0  0  0  0  0
  -11.2212  -24.4027  -11.5856 H   0  0  0  0  0  0
   -9.7123  -23.6763  -11.0796 H   0  0  0  0  0  0
   -2.7362  -20.0712   -6.0778 H   0  0  0  0  0  0
   -2.8465  -21.8211   -6.0405 H   0  0  0  0  0  0
   -4.1990  -20.8580   -6.6308 H   0  0  0  0  0  0
  -12.9293  -12.5311   -6.6072 H   0  0  0  0  0  0
  -12.7336  -16.2847   -8.6491 H   0  0  0  0  0  0
  -13.9590  -14.6861   -7.2271 H   0  0  0  0  0  0
  1  4  1  0  0  0
  1 13  1  0  0  0
  1 25  2  0  0  0
  2  9  1  0  0  0
  2  6  1  0  0  0
  2 26  2  0  0  0
  3 11  1  0  0  0
  3  5  1  0  0  0
  3 27  2  0  0  0
  4 11  1  0  0  0
  4 51  1  0  0  0
  5  9  1  0  0  0
  5 52  1  0  0  0
  6 17  1  0  0  0
  6 53  1  0  0  0
  7 13  1  0  0  0
  7 22  1  0  0  0
  7 37  1  0  0  0
  8 10  1  0  0  0
  8 14  1  0  0  0
  8 29  2  0  0  0
  9 19  1  0  0  0
  9 54  1  0  0  0
 10 23  1  0  0  0
 10 55  1  0  0  0
 10 56  1  0  0  0
 11 28  1  0  0  0
 11 57  1  0  0  0
 12 21  2  0  0  0
 12 24  1  0  0  0
 13 38  1  0  0  0
 13 59  1  0  0  0
 14 16  1  0  0  0
 14 60  1  0  0  0
 15 16  1  0  0  0
 15 30  2  0  0  0
 15 33  1  0  0  0
 16 34  1  0  0  0
 16 61  1  0  0  0
 17 23  1  0  0  0
 17 31  1  0  0  0
 17 62  1  0  0  0
 18 24  2  0  0  0
 18 19  1  0  0  0
 18 20  1  0  0  0
 19 63  1  0  0  0
 19 64  1  0  0  0
 20 58  1  0  0  0
 20 21  1  0  0  0
 21 65  1  0  0  0
 22 32  2  0  0  0
 22 66  1  0  0  0
 23 36  1  0  0  0
 23 67  1  0  0  0
 24 68  1  0  0  0
 28 35  1  0  0  0
 28 69  1  0  0  0
 28 70  1  0  0  0
 31 40  1  0  0  0
 31 71  1  0  0  0
 31 72  1  0  0  0
 33 73  1  0  0  0
 33 74  1  0  0  0
 34 41  1  0  0  0
 34 42  1  0  0  0
 34 75  1  0  0  0
 35 43  1  0  0  0
 35 44  2  0  0  0
 36 76  1  0  0  0
 37 39  1  0  0  0
 37 77  1  0  0  0
 37 78  1  0  0  0
 38 39  1  0  0  0
 38 79  1  0  0  0
 38 80  1  0  0  0
 39 81  1  0  0  0
 39 82  1  0  0  0
 40 45  1  0  0  0
 40 46  1  0  0  0
 40 83  1  0  0  0
 41 47  1  0  0  0
 41 84  1  0  0  0
 41 85  1  0  0  0
 42 86  1  0  0  0
 42 87  1  0  0  0
 42 88  1  0  0  0
 43 49  2  0  0  0
 43 89  1  0  0  0
 44 48  1  0  0  0
 44 90  1  0  0  0
 45 91  1  0  0  0
 45 92  1  0  0  0
 45 93  1  0  0  0
 46 94  1  0  0  0
 46 95  1  0  0  0
 46 96  1  0  0  0
 47 97  1  0  0  0
 47 98  1  0  0  0
 47 99  1  0  0  0
 48 50  2  0  0  0
 48100  1  0  0  0
 49 50  1  0  0  0
 49101  1  0  0  0
 50102  1  0  0  0
M  END
> <s_m_entry_id>
26359

> <s_m_entry_name>
dock_pv.183

> <s_m_Source_Path>
/home/csk/Desktop/cluster/DUD-E-result/reni

> <s_m_Source_File>
dock_pv.maegz

> <i_m_Source_File_Index>
183

> <chembl_id>
CHEMBL329982

> <chembl_pref_name>
None

> <i_lp_mmshare_version>
53161

> <r_lp_tautomer_probability>
0.499999999999999

> <s_lp_Force_Field>
OPLS_2005

> <r_lp_Energy>
24.964796

> <b_lp_Chiralities_Consistent>
1

> <s_lp_Variant>
CHEMBL286_lig1339-14

> <s_i_glide_gridfile>
glide-grid_3g6z

> <i_i_glide_lignum>
4358

> <i_i_glide_rotatable_bonds>
25

> <r_i_docking_score>
-7.22053225368231

> <r_i_glide_ligand_efficiency>
-0.144410645073646

> <r_i_glide_ligand_efficiency_sa>
-0.532013364496541

> <r_i_glide_ligand_efficiency_ln>
-1.46997118004193

> <r_i_glide_gscore>
-7.22053225368231

> <r_i_glide_lipo>
-3.14566786117715

> <r_i_glide_hbond>
-0.204676480081314

> <r_i_glide_metal>
0

> <r_i_glide_rewards>
-0.377064166131294

> <r_i_glide_evdw>
-58.4265213012695

> <r_i_glide_ecoul>
-6.59498167037964

> <r_i_glide_erotb>
0.62051429247986

> <r_i_glide_esite>
-0.203064723151992

> <r_i_glide_emodel>
-81.734762523663

> <r_i_glide_energy>
-65.0215029716492

> <r_i_glide_einternal>
21.313009262085

> <i_i_glide_confnum>
11

> <i_i_glide_posenum>
91

> <r_i_glide_eff_state_penalty>
0

> <s_user_duplicate_titles>
CHEMBL286_lig1339

> <i_f3d_flags>
0

> <s_m_subgroup_title>
dock_pv

> <s_m_subgroupid>
dock_pv

> <b_m_subgroup_collapsed>
1

$$$$
CHEMBL286_lig1146
                    3D
 Schrodinger Suite 2021-1.
105108  0  0  1  0            999 V2000
  -10.8481  -16.3923   -9.1121 C   0  0  0  0  0  0
  -11.8344  -15.8202   -8.3761 N   0  0  0  0  0  0
   -4.9047  -19.0257  -10.6753 C   0  0  0  0  0  0
   -7.9850  -17.8506   -9.8357 C   0  0  0  0  0  0
   -9.7800  -16.8205   -8.4206 N   0  0  0  0  0  0
   -4.4622  -20.1801  -11.1907 N   0  0  0  0  0  0
   -3.3450  -20.9678  -10.6457 C   0  0  2  0  0  0
   -6.8081  -17.6119  -10.3989 N   0  0  0  0  0  0
   -6.0914  -18.3750  -11.3969 C   0  0  1  0  0  0
   -5.2127  -15.2639  -11.6228 N   0  0  0  0  0  0
   -8.4127  -16.6823   -8.9270 C   0  0  1  0  0  0
   -2.1070  -20.9944  -11.5974 C   0  0  2  0  0  0
   -5.9876  -15.9775  -12.4262 C   0  0  0  0  0  0
   -5.6573  -17.4664  -12.5928 C   0  0  0  0  0  0
   -1.4734  -19.6203  -11.9885 C   0  0  2  0  0  0
  -13.1545  -13.6777   -7.0920 N   0  0  0  0  0  0
   -7.0630  -13.6488  -12.4156 S   0  0  0  0  0  0
   -5.6272  -14.0304  -11.5301 C   0  0  0  0  0  0
  -10.8892  -16.4657  -10.3437 O   0  0  0  0  0  0
   -7.0704  -15.2890  -12.9721 C   0  0  0  0  0  0
   -3.8443  -22.3885  -10.2713 C   0  0  0  0  0  0
   -4.4179  -18.4847   -9.6782 O   0  0  0  0  0  0
   -8.6610  -18.8700   -9.9892 O   0  0  0  0  0  0
  -11.9135  -15.8304   -6.8986 C   0  0  0  0  0  0
  -12.9218  -15.1025   -9.0578 C   0  0  0  0  0  0
   -7.3809  -16.4295   -7.7875 C   0  0  0  0  0  0
   -1.0656  -18.7071  -10.8028 C   0  0  0  0  0  0
  -12.9406  -13.6567   -8.5352 C   0  0  0  0  0  0
  -12.0594  -14.3740   -6.3956 C   0  0  0  0  0  0
   -6.4997  -15.1960   -7.9740 C   0  0  0  0  0  0
   -2.4227  -21.6905  -12.7965 O   0  0  0  0  0  0
   -2.3444  -18.8767  -12.8203 O   0  0  0  0  0  0
   -4.8500  -12.9346   -8.0079 C   0  0  0  0  0  0
   -7.0668  -13.9232   -8.0205 C   0  0  0  0  0  0
   -5.1100  -15.3354   -8.0026 C   0  0  0  0  0  0
   -4.2947  -14.2121   -8.0243 C   0  0  0  0  0  0
   -6.2469  -12.7992   -8.0208 C   0  0  0  0  0  0
   -4.9345  -22.4325   -9.1663 C   0  0  0  0  0  0
   -3.9621  -11.8739   -7.9795 O   0  0  0  0  0  0
  -13.3870  -12.3257   -6.5984 C   0  0  0  0  0  0
   -0.3817  -17.3616  -11.1740 C   0  0  0  0  0  0
   -4.4614  -10.5525   -7.8099 C   0  0  0  0  0  0
   -5.9444  -23.5837   -9.3978 C   0  0  0  0  0  0
   -4.3267  -22.5928   -7.7487 C   0  0  0  0  0  0
    0.9335  -17.5498  -11.9605 C   0  0  0  0  0  0
   -0.1384  -16.5077   -9.9189 C   0  0  0  0  0  0
   -5.4127  -22.5764   -6.6504 C   0  0  0  0  0  0
   -7.0785  -23.5461   -8.3510 C   0  0  0  0  0  0
   -6.5109  -23.6304   -6.9164 C   0  0  0  0  0  0
   -9.8797  -17.1237   -7.4687 H   0  0  0  0  0  0
   -4.9030  -20.5524  -12.0203 H   0  0  0  0  0  0
   -2.9949  -20.5217   -9.7127 H   0  0  0  0  0  0
   -6.3368  -16.7521  -10.1469 H   0  0  0  0  0  0
   -6.7382  -19.1694  -11.7734 H   0  0  0  0  0  0
   -8.4424  -15.8089   -9.5807 H   0  0  0  0  0  0
   -1.3369  -21.5921  -11.1125 H   0  0  0  0  0  0
   -4.6010  -17.5854  -12.8369 H   0  0  0  0  0  0
   -6.1682  -17.8246  -13.4849 H   0  0  0  0  0  0
   -0.5782  -19.8454  -12.5732 H   0  0  0  0  0  0
   -5.1186  -13.2810  -10.9419 H   0  0  0  0  0  0
   -7.8463  -15.6635  -13.6234 H   0  0  0  0  0  0
   -2.9968  -23.0054   -9.9719 H   0  0  0  0  0  0
   -4.2286  -22.8583  -11.1777 H   0  0  0  0  0  0
  -12.8027  -16.3981   -6.6187 H   0  0  0  0  0  0
  -11.0705  -16.3112   -6.4087 H   0  0  0  0  0  0
  -12.8227  -15.1012  -10.1443 H   0  0  0  0  0  0
  -13.8645  -15.5903   -8.8147 H   0  0  0  0  0  0
   -7.8682  -16.3778   -6.8214 H   0  0  0  0  0  0
   -6.6969  -17.2622   -7.6725 H   0  0  0  0  0  0
   -1.9457  -18.4788  -10.2085 H   0  0  0  0  0  0
   -0.4106  -19.2594  -10.1412 H   0  0  0  0  0  0
  -11.9954  -13.1600   -8.7615 H   0  0  0  0  0  0
  -13.7354  -13.0927   -9.0236 H   0  0  0  0  0  0
  -11.1166  -13.8366   -6.5608 H   0  0  0  0  0  0
  -12.2508  -14.4188   -5.3235 H   0  0  0  0  0  0
   -2.2312  -21.0914  -13.5323 H   0  0  0  0  0  0
   -2.0714  -17.9570  -12.8014 H   0  0  0  0  0  0
   -8.1368  -13.8063   -8.0216 H   0  0  0  0  0  0
   -4.6564  -16.3150   -7.9663 H   0  0  0  0  0  0
   -3.2222  -14.3340   -8.0189 H   0  0  0  0  0  0
   -6.7138  -11.8230   -8.0182 H   0  0  0  0  0  0
   -5.5085  -21.5006   -9.1697 H   0  0  0  0  0  0
  -12.4709  -11.7392   -6.5328 H   0  0  0  0  0  0
  -14.0897  -11.7838   -7.2331 H   0  0  0  0  0  0
  -13.8608  -12.3633   -5.6199 H   0  0  0  0  0  0
   -1.0622  -16.7927  -11.8081 H   0  0  0  0  0  0
   -3.6343   -9.8508   -7.7079 H   0  0  0  0  0  0
   -5.0566  -10.2403   -8.6664 H   0  0  0  0  0  0
   -5.0641  -10.4748   -6.9056 H   0  0  0  0  0  0
   -5.4298  -24.5504   -9.3944 H   0  0  0  0  0  0
   -6.3719  -23.4965  -10.4000 H   0  0  0  0  0  0
   -3.5923  -21.8020   -7.5647 H   0  0  0  0  0  0
   -3.7524  -23.5218   -7.7013 H   0  0  0  0  0  0
    1.6413  -18.1633  -11.4025 H   0  0  0  0  0  0
    0.7652  -18.0331  -12.9225 H   0  0  0  0  0  0
    1.4172  -16.5954  -12.1654 H   0  0  0  0  0  0
    0.5422  -17.0001   -9.2221 H   0  0  0  0  0  0
    0.2960  -15.5414  -10.1743 H   0  0  0  0  0  0
   -1.0745  -16.3104   -9.3896 H   0  0  0  0  0  0
   -4.9609  -22.7523   -5.6712 H   0  0  0  0  0  0
   -5.8634  -21.5802   -6.6034 H   0  0  0  0  0  0
   -7.7787  -24.3661   -8.5272 H   0  0  0  0  0  0
   -7.6509  -22.6229   -8.4615 H   0  0  0  0  0  0
   -6.0984  -24.6304   -6.7613 H   0  0  0  0  0  0
   -7.3220  -23.5250   -6.1909 H   0  0  0  0  0  0
  1  2  1  0  0  0
  1  5  1  0  0  0
  1 19  2  0  0  0
  2 24  1  0  0  0
  2 25  1  0  0  0
  3  9  1  0  0  0
  3  6  1  0  0  0
  3 22  2  0  0  0
  4 11  1  0  0  0
  4  8  1  0  0  0
  4 23  2  0  0  0
  5 11  1  0  0  0
  5 50  1  0  0  0
  6  7  1  0  0  0
  6 51  1  0  0  0
  7 12  1  0  0  0
  7 21  1  0  0  0
  7 52  1  0  0  0
  8  9  1  0  0  0
  8 53  1  0  0  0
  9 14  1  0  0  0
  9 54  1  0  0  0
 10 13  1  0  0  0
 10 18  2  0  0  0
 11 26  1  0  0  0
 11 55  1  0  0  0
 12 15  1  0  0  0
 12 31  1  0  0  0
 12 56  1  0  0  0
 13 14  1  0  0  0
 13 20  2  0  0  0
 14 57  1  0  0  0
 14 58  1  0  0  0
 15 27  1  0  0  0
 15 32  1  0  0  0
 15 59  1  0  0  0
 16 28  1  0  0  0
 16 40  1  0  0  0
 16 29  1  0  0  0
 17 20  1  0  0  0
 17 18  1  0  0  0
 18 60  1  0  0  0
 20 61  1  0  0  0
 21 38  1  0  0  0
 21 62  1  0  0  0
 21 63  1  0  0  0
 24 29  1  0  0  0
 24 64  1  0  0  0
 24 65  1  0  0  0
 25 28  1  0  0  0
 25 66  1  0  0  0
 25 67  1  0  0  0
 26 30  1  0  0  0
 26 68  1  0  0  0
 26 69  1  0  0  0
 27 41  1  0  0  0
 27 70  1  0  0  0
 27 71  1  0  0  0
 28 72  1  0  0  0
 28 73  1  0  0  0
 29 74  1  0  0  0
 29 75  1  0  0  0
 30 34  2  0  0  0
 30 35  1  0  0  0
 31 76  1  0  0  0
 32 77  1  0  0  0
 33 36  1  0  0  0
 33 39  1  0  0  0
 33 37  2  0  0  0
 34 37  1  0  0  0
 34 78  1  0  0  0
 35 36  2  0  0  0
 35 79  1  0  0  0
 36 80  1  0  0  0
 37 81  1  0  0  0
 38 43  1  0  0  0
 38 44  1  0  0  0
 38 82  1  0  0  0
 39 42  1  0  0  0
 40 83  1  0  0  0
 40 84  1  0  0  0
 40 85  1  0  0  0
 41 45  1  0  0  0
 41 46  1  0  0  0
 41 86  1  0  0  0
 42 87  1  0  0  0
 42 88  1  0  0  0
 42 89  1  0  0  0
 43 48  1  0  0  0
 43 90  1  0  0  0
 43 91  1  0  0  0
 44 47  1  0  0  0
 44 92  1  0  0  0
 44 93  1  0  0  0
 45 94  1  0  0  0
 45 95  1  0  0  0
 45 96  1  0  0  0
 46 97  1  0  0  0
 46 98  1  0  0  0
 46 99  1  0  0  0
 47 49  1  0  0  0
 47100  1  0  0  0
 47101  1  0  0  0
 48 49  1  0  0  0
 48102  1  0  0  0
 48103  1  0  0  0
 49104  1  0  0  0
 49105  1  0  0  0
M  END
> <s_m_entry_id>
26360

> <s_m_entry_name>
dock_pv.184

> <s_m_Source_Path>
/home/csk/Desktop/cluster/DUD-E-result/reni

> <s_m_Source_File>
dock_pv.maegz

> <i_m_Source_File_Index>
184

> <chembl_id>
CHEMBL140721

> <chembl_pref_name>
None

> <i_lp_mmshare_version>
53161

> <r_lp_tautomer_probability>
1

> <s_lp_Force_Field>
OPLS_2005

> <r_lp_Energy>
56.91062

> <b_lp_Chiralities_Consistent>
1

> <s_lp_Variant>
CHEMBL286_lig1146-1

> <s_i_glide_gridfile>
glide-grid_3g6z

> <i_i_glide_lignum>
3639

> <i_i_glide_rotatable_bonds>
22

> <r_i_docking_score>
-7.21468433255681

> <r_i_glide_ligand_efficiency>
-0.147238455766465

> <r_i_glide_ligand_efficiency_sa>
-0.538790521222233

> <r_i_glide_ligand_efficiency_ln>
-1.47484655872239

> <r_i_glide_gscore>
-7.21468433255681

> <r_i_glide_lipo>
-4.22669126035406

> <r_i_glide_hbond>
0

> <r_i_glide_metal>
0

> <r_i_glide_rewards>
-0.751649853288927

> <r_i_glide_evdw>
-55.6674995422363

> <r_i_glide_ecoul>
0.1626206189394

> <r_i_glide_erotb>
0.522877360959913

> <r_i_glide_esite>
-0.000238695602825197

> <r_i_glide_emodel>
-47.5372802968108

> <r_i_glide_energy>
-55.5048789232969

> <r_i_glide_einternal>
31.8217334747314

> <i_i_glide_confnum>
27

> <i_i_glide_posenum>
5

> <r_i_glide_eff_state_penalty>
0

> <s_user_duplicate_titles>
CHEMBL286_lig1146

> <i_f3d_flags>
0

> <s_m_subgroup_title>
dock_pv

> <s_m_subgroupid>
dock_pv

> <b_m_subgroup_collapsed>
1

$$$$
CHEMBL286_lig563
                    3D
 Schrodinger Suite 2021-1.
 81 85  0  0  1  0            999 V2000
   -5.3004  -14.1191   -8.0287 N   0  0  0  0  0  0
   -4.3500  -13.1759   -7.6160 C   0  0  0  0  0  0
   -4.5671  -15.2617   -8.2439 C   0  0  0  0  0  0
   -3.1120  -13.7203   -7.6726 N   0  0  0  0  0  0
   -6.1541  -11.6423   -7.2625 N   0  0  0  0  0  0
   -6.6396  -13.8227   -8.1009 C   0  0  0  0  0  0
   -3.2790  -15.0233   -8.0985 N   0  0  0  0  0  0
   -7.0596  -12.5393   -7.7326 C   0  0  0  0  0  0
   -4.8259  -11.9218   -7.2147 C   0  0  0  0  0  0
   -5.1745  -16.6158   -8.5135 C   0  0  0  0  0  0
   -4.9247  -17.2039   -9.9026 C   0  0  0  0  0  0
   -6.0662  -17.9248  -12.0250 C   0  0  2  0  0  0
   -6.0247  -17.4620  -10.6320 N   0  0  0  0  0  0
   -5.5313  -19.3804  -12.2341 C   0  0  1  0  0  0
   -8.4913  -12.0710   -7.8122 C   0  0  0  0  0  0
   -5.4120  -16.8753  -12.9737 C   0  0  0  0  0  0
   -3.7758  -17.4084  -10.2937 O   0  0  0  0  0  0
   -6.3562  -20.5472  -11.5996 C   0  0  0  0  0  0
   -5.4687  -19.6659  -13.6214 O   0  0  0  0  0  0
   -3.9349  -10.8094   -6.6736 C   0  0  0  0  0  0
   -5.9962  -15.4390  -12.9575 C   0  0  0  0  0  0
   -8.9325  -10.8631   -7.2210 C   0  0  0  0  0  0
   -9.4753  -12.8719   -8.4209 C   0  0  0  0  0  0
   -6.3257  -20.5965  -10.0533 C   0  0  0  0  0  0
   -7.8364  -20.5979  -12.0683 C   0  0  0  0  0  0
   -7.5170  -15.3904  -12.8320 C   0  0  0  0  0  0
   -5.3723  -14.4645  -11.9328 C   0  0  0  0  0  0
   -3.2037   -9.9718   -7.7400 C   0  0  0  0  0  0
   -2.2416  -10.7621   -8.6453 C   0  0  0  0  0  0
  -10.8199  -12.5023   -8.4206 C   0  0  0  0  0  0
  -10.2698  -10.4751   -7.2452 C   0  0  0  0  0  0
   -8.5341  -21.8821  -11.5825 C   0  0  0  0  0  0
   -6.9894  -21.8872   -9.5249 C   0  0  0  0  0  0
   -5.8672  -13.0274  -12.1936 C   0  0  0  0  0  0
   -8.0003  -13.9940  -13.1889 C   0  0  0  0  0  0
  -11.2115  -11.2998   -7.8455 C   0  0  0  0  0  0
   -7.4157  -12.9636  -12.1968 C   0  0  0  0  0  0
   -8.4361  -22.0402  -10.0499 C   0  0  0  0  0  0
   -7.2920  -14.6120   -8.4385 H   0  0  0  0  0  0
   -6.2330  -16.6658   -8.2554 H   0  0  0  0  0  0
   -4.6684  -17.2629   -7.8182 H   0  0  0  0  0  0
   -7.1138  -17.9506  -12.3206 H   0  0  0  0  0  0
   -6.9189  -17.2649  -10.2147 H   0  0  0  0  0  0
   -4.5029  -19.4349  -11.8731 H   0  0  0  0  0  0
   -4.3341  -16.8341  -12.8045 H   0  0  0  0  0  0
   -5.5120  -17.2204  -14.0034 H   0  0  0  0  0  0
   -5.8882  -21.4769  -11.9338 H   0  0  0  0  0  0
   -6.2962  -19.3794  -14.0247 H   0  0  0  0  0  0
   -4.5180  -10.1498   -6.0260 H   0  0  0  0  0  0
   -3.1923  -11.2619   -6.0213 H   0  0  0  0  0  0
   -5.8292  -15.0163  -13.9392 H   0  0  0  0  0  0
   -8.2696  -10.2208   -6.6731 H   0  0  0  0  0  0
   -9.2185  -13.8073   -8.8888 H   0  0  0  0  0  0
   -6.7970  -19.7165   -9.6189 H   0  0  0  0  0  0
   -5.2896  -20.5580   -9.7116 H   0  0  0  0  0  0
   -7.8706  -20.5834  -13.1585 H   0  0  0  0  0  0
   -8.3844  -19.7085  -11.7550 H   0  0  0  0  0  0
   -7.9319  -16.0601  -13.5702 H   0  0  0  0  0  0
   -7.8790  -15.7414  -11.8653 H   0  0  0  0  0  0
   -5.5733  -14.7715  -10.9108 H   0  0  0  0  0  0
   -4.2858  -14.4858  -12.0212 H   0  0  0  0  0  0
   -3.9129   -9.4270   -8.3651 H   0  0  0  0  0  0
   -2.6354   -9.2003   -7.2205 H   0  0  0  0  0  0
   -1.6638  -10.0880   -9.2807 H   0  0  0  0  0  0
   -1.5327  -11.3507   -8.0594 H   0  0  0  0  0  0
   -2.7805  -11.4411   -9.3070 H   0  0  0  0  0  0
  -11.5596  -13.1489   -8.8679 H   0  0  0  0  0  0
  -10.5767   -9.5466   -6.7838 H   0  0  0  0  0  0
   -9.5798  -21.8782  -11.8975 H   0  0  0  0  0  0
   -8.0767  -22.7448  -12.0702 H   0  0  0  0  0  0
   -6.9903  -21.8908   -8.4344 H   0  0  0  0  0  0
   -6.3960  -22.7494   -9.8297 H   0  0  0  0  0  0
   -5.4861  -12.6838  -13.1589 H   0  0  0  0  0  0
   -5.4424  -12.3577  -11.4481 H   0  0  0  0  0  0
   -7.7132  -13.7504  -14.2098 H   0  0  0  0  0  0
   -9.0690  -14.0472  -13.2202 H   0  0  0  0  0  0
  -12.2525  -11.0057   -7.8533 H   0  0  0  0  0  0
   -7.7542  -11.9549  -12.4218 H   0  0  0  0  0  0
   -7.7865  -13.1789  -11.1925 H   0  0  0  0  0  0
   -9.0721  -21.2948   -9.5707 H   0  0  0  0  0  0
   -8.8345  -23.0120   -9.7604 H   0  0  0  0  0  0
  1  2  1  0  0  0
  1  3  1  0  0  0
  1  6  1  0  0  0
  2  4  2  0  0  0
  2  9  1  0  0  0
  3  7  2  0  0  0
  3 10  1  0  0  0
  4  7  1  0  0  0
  5  8  1  0  0  0
  5  9  2  0  0  0
  6  8  2  0  0  0
  6 39  1  0  0  0
  8 15  1  0  0  0
  9 20  1  0  0  0
 10 11  1  0  0  0
 10 40  1  0  0  0
 10 41  1  0  0  0
 11 13  1  0  0  0
 11 17  2  0  0  0
 12 13  1  0  0  0
 12 14  1  0  0  0
 12 16  1  0  0  0
 12 42  1  0  0  0
 13 43  1  0  0  0
 14 18  1  0  0  0
 14 19  1  0  0  0
 14 44  1  0  0  0
 15 22  2  0  0  0
 15 23  1  0  0  0
 16 21  1  0  0  0
 16 45  1  0  0  0
 16 46  1  0  0  0
 18 24  1  0  0  0
 18 25  1  0  0  0
 18 47  1  0  0  0
 19 48  1  0  0  0
 20 28  1  0  0  0
 20 49  1  0  0  0
 20 50  1  0  0  0
 21 26  1  0  0  0
 21 27  1  0  0  0
 21 51  1  0  0  0
 22 31  1  0  0  0
 22 52  1  0  0  0
 23 30  2  0  0  0
 23 53  1  0  0  0
 24 33  1  0  0  0
 24 54  1  0  0  0
 24 55  1  0  0  0
 25 32  1  0  0  0
 25 56  1  0  0  0
 25 57  1  0  0  0
 26 35  1  0  0  0
 26 58  1  0  0  0
 26 59  1  0  0  0
 27 34  1  0  0  0
 27 60  1  0  0  0
 27 61  1  0  0  0
 28 29  1  0  0  0
 28 62  1  0  0  0
 28 63  1  0  0  0
 29 64  1  0  0  0
 29 65  1  0  0  0
 29 66  1  0  0  0
 30 36  1  0  0  0
 30 67  1  0  0  0
 31 36  2  0  0  0
 31 68  1  0  0  0
 32 38  1  0  0  0
 32 69  1  0  0  0
 32 70  1  0  0  0
 33 38  1  0  0  0
 33 71  1  0  0  0
 33 72  1  0  0  0
 34 37  1  0  0  0
 34 73  1  0  0  0
 34 74  1  0  0  0
 35 37  1  0  0  0
 35 75  1  0  0  0
 35 76  1  0  0  0
 36 77  1  0  0  0
 37 78  1  0  0  0
 37 79  1  0  0  0
 38 80  1  0  0  0
 38 81  1  0  0  0
M  END
> <s_m_entry_id>
26361

> <s_m_entry_name>
dock_pv.185

> <s_m_Source_Path>
/home/csk/Desktop/cluster/DUD-E-result/reni

> <s_m_Source_File>
dock_pv.maegz

> <i_m_Source_File_Index>
185

> <chembl_id>
CHEMBL76896

> <chembl_pref_name>
None

> <i_lp_mmshare_version>
53161

> <r_lp_tautomer_probability>
1

> <s_lp_Force_Field>
OPLS_2005

> <r_lp_Energy>
28.271891

> <b_lp_Chiralities_Consistent>
1

> <s_lp_Variant>
CHEMBL286_lig563-2

> <s_i_glide_gridfile>
glide-grid_3g6z

> <i_i_glide_lignum>
1599

> <i_i_glide_rotatable_bonds>
12

> <r_i_docking_score>
-7.21120415253851

> <r_i_glide_ligand_efficiency>
-0.189768530329961

> <r_i_glide_ligand_efficiency_sa>
-0.637997131180121

> <r_i_glide_ligand_efficiency_ln>
-1.55494774742125

> <r_i_glide_gscore>
-7.21120415253851

> <r_i_glide_lipo>
-3.94566077472314

> <r_i_glide_hbond>
-0.32

> <r_i_glide_metal>
0

> <r_i_glide_rewards>
-1.01547948432618

> <r_i_glide_evdw>
-29.6766166687012

> <r_i_glide_ecoul>
-7.05264806747437

> <r_i_glide_erotb>
0.612903282895412

> <r_i_glide_esite>
-0.00123913282837884

> <r_i_glide_emodel>
-44.7472765717147

> <r_i_glide_energy>
-36.7292647361755

> <r_i_glide_einternal>
15.7171144485474

> <i_i_glide_confnum>
27

> <i_i_glide_posenum>
181

> <r_i_glide_eff_state_penalty>
0

> <s_user_duplicate_titles>
CHEMBL286_lig563

> <i_f3d_flags>
0

> <s_m_subgroup_title>
dock_pv

> <s_m_subgroupid>
dock_pv

> <b_m_subgroup_collapsed>
1

$$$$
CHEMBL286_lig2480
                    3D
 Schrodinger Suite 2021-1.
 74 75  0  0  1  0            999 V2000
   -8.4921  -18.8905   -8.6763 C   0  0  0  0  0  0
   -7.9954  -17.5440   -9.2607 C   0  0  0  0  0  0
   -6.6302  -17.0973   -8.6895 C   0  0  0  0  0  0
  -13.3539  -15.5954   -7.6149 C   0  0  0  0  0  0
  -13.1561  -14.2741   -7.2204 C   0  0  0  0  0  0
  -12.0253  -13.5845   -7.6373 C   0  0  0  0  0  0
  -11.0594  -14.2188   -8.4186 C   0  0  0  0  0  0
  -11.2299  -15.5700   -8.7943 C   0  0  0  0  0  0
  -12.3995  -16.2358   -8.3990 C   0  0  0  0  0  0
  -10.2333  -16.2969   -9.5012 N   0  0  0  0  0  0
   -8.9563  -16.4295   -8.7893 C   0  0  0  0  0  0
   -8.0081  -17.6089  -10.7302 N   0  0  2  0  0  0
   -9.3041  -17.5884  -11.4417 C   0  0  0  0  0  0
  -10.4856  -16.9004  -10.6985 C   0  0  0  0  0  0
  -11.5988  -16.8767  -11.2212 O   0  0  0  0  0  0
   -7.0870  -18.6032  -11.3211 C   0  0  0  0  0  0
   -6.2069  -18.0469  -12.4676 C   0  0  1  0  0  0
   -5.2989  -16.8513  -12.0172 C   0  0  2  0  0  0
   -5.4615  -19.1761  -13.0331 N   0  0  0  0  0  0
   -5.8707  -15.4796  -12.4687 C   0  0  0  0  0  0
   -3.9427  -16.9562  -12.4181 O   0  0  0  0  0  0
   -5.1278  -14.2248  -11.9060 C   0  0  2  0  0  0
   -5.5736  -13.8909  -10.4720 C   0  0  0  0  0  0
   -4.6215  -13.5031   -9.6090 N   0  0  0  0  0  0
   -6.7676  -13.9303  -10.1683 O   0  0  0  0  0  0
   -5.2831  -12.9797  -12.8215 C   0  0  0  0  0  0
   -9.6660  -13.2777   -8.8265 Cl  0  0  0  0  0  0
   -4.3243  -11.8160  -12.5142 C   0  0  0  0  0  0
   -4.8936  -12.9837   -8.2663 C   0  0  0  0  0  0
   -3.8234  -11.9853   -7.7502 C   0  0  0  0  0  0
   -3.5428  -10.8575   -8.7736 C   0  0  0  0  0  0
   -2.5057  -12.7368   -7.4559 C   0  0  0  0  0  0
   -4.3410  -11.3254   -6.4570 C   0  0  0  0  0  0
   -8.7172  -18.8078   -7.6175 H   0  0  0  0  0  0
   -9.4054  -19.2338   -9.1644 H   0  0  0  0  0  0
   -7.7559  -19.6837   -8.8032 H   0  0  0  0  0  0
   -6.6847  -16.8651   -7.6231 H   0  0  0  0  0  0
   -5.8391  -17.8264   -8.8421 H   0  0  0  0  0  0
   -6.2894  -16.1809   -9.1601 H   0  0  0  0  0  0
  -14.2421  -16.1250   -7.3034 H   0  0  0  0  0  0
  -13.8689  -13.7732   -6.5870 H   0  0  0  0  0  0
  -11.8854  -12.5589   -7.3301 H   0  0  0  0  0  0
  -12.5651  -17.2629   -8.6858 H   0  0  0  0  0  0
   -8.4464  -15.4896   -8.9937 H   0  0  0  0  0  0
   -9.0881  -16.4638   -7.7083 H   0  0  0  0  0  0
   -9.1878  -17.1168  -12.4197 H   0  0  0  0  0  0
   -9.6613  -18.6034  -11.6320 H   0  0  0  0  0  0
   -7.6502  -19.4629  -11.6864 H   0  0  0  0  0  0
   -6.4111  -19.0049  -10.5655 H   0  0  0  0  0  0
   -6.8561  -17.7009  -13.2669 H   0  0  0  0  0  0
   -5.2158  -16.8722  -10.9368 H   0  0  0  0  0  0
   -4.7615  -19.4678  -12.3648 H   0  0  0  0  0  0
   -6.0921  -19.9521  -13.1762 H   0  0  0  0  0  0
   -6.9327  -15.4295  -12.2215 H   0  0  0  0  0  0
   -5.8683  -15.4578  -13.5598 H   0  0  0  0  0  0
   -3.8682  -16.5436  -13.2846 H   0  0  0  0  0  0
   -4.0619  -14.4535  -11.8899 H   0  0  0  0  0  0
   -3.6575  -13.5354   -9.9014 H   0  0  0  0  0  0
   -5.0689  -13.2629  -13.8492 H   0  0  0  0  0  0
   -6.3173  -12.6268  -12.8187 H   0  0  0  0  0  0
   -4.4601  -11.0026  -13.2275 H   0  0  0  0  0  0
   -4.4974  -11.4124  -11.5207 H   0  0  0  0  0  0
   -3.2828  -12.1389  -12.5715 H   0  0  0  0  0  0
   -4.9947  -13.8260   -7.5801 H   0  0  0  0  0  0
   -5.8658  -12.4819   -8.2598 H   0  0  0  0  0  0
   -2.8944  -10.0856   -8.3559 H   0  0  0  0  0  0
   -4.4640  -10.3647   -9.0876 H   0  0  0  0  0  0
   -3.0496  -11.2290   -9.6727 H   0  0  0  0  0  0
   -2.6640  -13.5622   -6.7604 H   0  0  0  0  0  0
   -2.0741  -13.1649   -8.3631 H   0  0  0  0  0  0
   -1.7527  -12.0802   -7.0179 H   0  0  0  0  0  0
   -4.6691  -12.0632   -5.7215 H   0  0  0  0  0  0
   -3.5691  -10.6966   -6.0094 H   0  0  0  0  0  0
   -5.1933  -10.6772   -6.6552 H   0  0  0  0  0  0
  1  2  1  0  0  0
  1 34  1  0  0  0
  1 35  1  0  0  0
  1 36  1  0  0  0
  2  3  1  0  0  0
  2 11  1  0  0  0
  2 12  1  0  0  0
  3 37  1  0  0  0
  3 38  1  0  0  0
  3 39  1  0  0  0
  4  5  2  0  0  0
  4  9  1  0  0  0
  4 40  1  0  0  0
  5  6  1  0  0  0
  5 41  1  0  0  0
  6  7  2  0  0  0
  6 42  1  0  0  0
  7  8  1  0  0  0
  7 27  1  0  0  0
  8  9  2  0  0  0
  8 10  1  0  0  0
  9 43  1  0  0  0
 10 11  1  0  0  0
 10 14  1  0  0  0
 11 44  1  0  0  0
 11 45  1  0  0  0
 12 13  1  0  0  0
 12 16  1  0  0  0
 13 14  1  0  0  0
 13 46  1  0  0  0
 13 47  1  0  0  0
 14 15  2  0  0  0
 16 17  1  0  0  0
 16 48  1  0  0  0
 16 49  1  0  0  0
 17 18  1  0  0  0
 17 19  1  0  0  0
 17 50  1  0  0  0
 18 20  1  0  0  0
 18 21  1  0  0  0
 18 51  1  0  0  0
 19 52  1  0  0  0
 19 53  1  0  0  0
 20 22  1  0  0  0
 20 54  1  0  0  0
 20 55  1  0  0  0
 21 56  1  0  0  0
 22 23  1  0  0  0
 22 26  1  0  0  0
 22 57  1  0  0  0
 23 24  1  0  0  0
 23 25  2  0  0  0
 24 29  1  0  0  0
 24 58  1  0  0  0
 26 28  1  0  0  0
 26 59  1  0  0  0
 26 60  1  0  0  0
 28 61  1  0  0  0
 28 62  1  0  0  0
 28 63  1  0  0  0
 29 30  1  0  0  0
 29 64  1  0  0  0
 29 65  1  0  0  0
 30 31  1  0  0  0
 30 32  1  0  0  0
 30 33  1  0  0  0
 31 66  1  0  0  0
 31 67  1  0  0  0
 31 68  1  0  0  0
 32 69  1  0  0  0
 32 70  1  0  0  0
 32 71  1  0  0  0
 33 72  1  0  0  0
 33 73  1  0  0  0
 33 74  1  0  0  0
M  END
> <s_m_entry_id>
26362

> <s_m_entry_name>
dock_pv.186

> <s_m_Source_Path>
/home/csk/Desktop/cluster/DUD-E-result/reni

> <s_m_Source_File>
dock_pv.maegz

> <i_m_Source_File_Index>
186

> <chembl_id>
CHEMBL2387447

> <chembl_pref_name>
None

> <i_lp_mmshare_version>
53161

> <r_lp_tautomer_probability>
1

> <s_lp_Force_Field>
OPLS_2005

> <r_lp_Energy>
74.475127

> <b_lp_Chiralities_Consistent>
1

> <s_lp_Variant>
CHEMBL286_lig2480-1

> <s_i_glide_gridfile>
glide-grid_3g6z

> <i_i_glide_lignum>
6540

> <i_i_glide_rotatable_bonds>
12

> <r_i_docking_score>
-7.20199379923993

> <r_i_glide_ligand_efficiency>
-0.218242236340604

> <r_i_glide_ligand_efficiency_sa>
-0.700019464501675

> <r_i_glide_ligand_efficiency_ln>
-1.60168613102278

> <r_i_glide_gscore>
-7.20199379923993

> <r_i_glide_lipo>
-3.62442013324833

> <r_i_glide_hbond>
-0.349851434773809

> <r_i_glide_metal>
0

> <r_i_glide_rewards>
-1.27765773974474

> <r_i_glide_evdw>
-39.9614067077637

> <r_i_glide_ecoul>
-4.93867301940918

> <r_i_glide_erotb>
0.788806796826508

> <r_i_glide_esite>
0

> <r_i_glide_emodel>
-55.4233640820089

> <r_i_glide_energy>
-44.9000797271729

> <r_i_glide_einternal>
14.2395648956299

> <i_i_glide_confnum>
84

> <i_i_glide_posenum>
373

> <r_i_glide_eff_state_penalty>
0

> <s_user_duplicate_titles>
CHEMBL286_lig2480

> <i_f3d_flags>
0

> <s_m_subgroup_title>
dock_pv

> <s_m_subgroupid>
dock_pv

> <b_m_subgroup_collapsed>
1

$$$$
CHEMBL286_lig2871
                    3D
 Schrodinger Suite 2021-1.
 78 81  0  0  1  0            999 V2000
   -4.6370  -18.1615  -11.1185 C   0  0  0  0  0  0
   -3.3609  -18.9453  -10.7523 C   0  0  0  0  0  0
   -3.5273  -20.4480  -11.0215 C   0  0  0  0  0  0
   -4.6605  -20.8756  -10.1891 N   0  0  0  0  0  0
   -5.9546  -20.4061  -10.7177 C   0  0  0  0  0  0
   -6.0038  -18.8360  -10.7387 C   0  0  2  0  0  0
   -7.2454  -18.2328  -11.5086 C   0  0  2  0  0  0
   -7.2284  -16.6602  -11.4868 C   0  0  0  0  0  0
   -6.5357  -16.0198  -12.5355 C   0  0  0  0  0  0
   -6.4185  -14.6399  -12.6169 C   0  0  0  0  0  0
   -6.9857  -13.8469  -11.6357 C   0  0  0  0  0  0
   -7.6801  -14.4324  -10.5845 C   0  0  0  0  0  0
   -7.8386  -15.8280  -10.4950 C   0  0  0  0  0  0
   -8.6985  -16.3186   -9.3765 C   0  0  0  0  0  0
  -10.0470  -15.9297   -9.2967 C   0  0  0  0  0  0
  -10.8973  -16.3928   -8.2972 C   0  0  0  0  0  0
  -10.3866  -17.2630   -7.3453 C   0  0  0  0  0  0
   -9.0580  -17.6628   -7.4049 C   0  0  0  0  0  0
   -8.2007  -17.1483   -8.3731 C   0  0  0  0  0  0
  -12.3571  -15.9655   -8.2549 C   0  0  0  0  0  0
  -12.5878  -14.7210   -7.3861 C   0  0  0  0  0  0
   -8.2146  -13.6196   -9.6418 F   0  0  0  0  0  0
   -8.6003  -18.8964  -11.0960 C   0  0  0  0  0  0
   -9.8809  -18.2970  -11.7297 C   0  0  0  0  0  0
  -11.1919  -18.7961  -11.0870 C   0  0  0  0  0  0
  -11.2955  -20.2542  -11.0418 N   0  0  0  0  0  0
  -12.4883  -20.9298  -11.2211 C   0  0  0  0  0  0
  -13.5918  -20.4194  -11.4266 O   0  0  0  0  0  0
  -12.2432  -22.2487  -11.2217 O   0  0  0  0  0  0
  -13.1659  -23.1394  -11.8356 C   0  0  0  0  0  0
   -7.0689  -18.7546  -12.8210 O   0  0  0  0  0  0
   -6.1135  -18.6030   -9.6845 H   0  0  0  0  0  0
   -4.5326  -21.2397   -8.8823 C   0  0  0  0  0  0
   -5.5060  -21.2945   -8.1243 O   0  0  0  0  0  0
   -3.1570  -21.7536   -8.3657 C   0  0  1  0  0  0
   -2.6238  -20.8942   -7.1958 C   0  0  0  0  0  0
   -2.4916  -21.7476   -6.0209 N   0  0  2  0  0  0
   -3.4047  -22.8546   -6.2231 C   0  0  0  0  0  0
   -3.2989  -23.1435   -7.7156 C   0  0  0  0  0  0
   -4.5998  -18.1220  -12.2078 H   0  0  0  0  0  0
   -4.5861  -17.1219  -10.7916 H   0  0  0  0  0  0
   -2.5196  -18.5614  -11.3308 H   0  0  0  0  0  0
   -3.0989  -18.7758   -9.7071 H   0  0  0  0  0  0
   -3.8090  -20.6196  -12.0616 H   0  0  0  0  0  0
   -2.6275  -21.0529  -10.9353 H   0  0  0  0  0  0
   -6.7970  -20.8802  -10.2098 H   0  0  0  0  0  0
   -6.0156  -20.7880  -11.7379 H   0  0  0  0  0  0
   -6.0602  -16.5934  -13.3181 H   0  0  0  0  0  0
   -5.8732  -14.1897  -13.4339 H   0  0  0  0  0  0
   -6.8914  -12.7745  -11.6923 H   0  0  0  0  0  0
  -10.4654  -15.2630  -10.0210 H   0  0  0  0  0  0
  -11.0197  -17.6421   -6.5624 H   0  0  0  0  0  0
   -8.6782  -18.3308   -6.6587 H   0  0  0  0  0  0
   -7.1584  -17.4142   -8.3485 H   0  0  0  0  0  0
  -12.9675  -16.7952   -7.8941 H   0  0  0  0  0  0
  -12.7052  -15.7782   -9.2713 H   0  0  0  0  0  0
  -13.6438  -14.4494   -7.3682 H   0  0  0  0  0  0
  -12.0320  -13.8634   -7.7664 H   0  0  0  0  0  0
  -12.2713  -14.8914   -6.3563 H   0  0  0  0  0  0
   -8.5780  -19.9579  -11.3509 H   0  0  0  0  0  0
   -8.7027  -18.9253  -10.0175 H   0  0  0  0  0  0
   -9.8807  -17.2124  -11.6645 H   0  0  0  0  0  0
   -9.8693  -18.4630  -12.8040 H   0  0  0  0  0  0
  -11.2362  -18.4682  -10.0487 H   0  0  0  0  0  0
  -12.0391  -18.3384  -11.6035 H   0  0  0  0  0  0
  -10.4700  -20.7953  -10.8373 H   0  0  0  0  0  0
  -13.0035  -24.1559  -11.4778 H   0  0  0  0  0  0
  -14.1995  -22.8623  -11.6213 H   0  0  0  0  0  0
  -13.0345  -23.1353  -12.9181 H   0  0  0  0  0  0
   -7.7145  -18.3457  -13.4263 H   0  0  0  0  0  0
   -2.3919  -21.8567   -9.1289 H   0  0  0  0  0  0
   -1.6874  -20.3987   -7.4583 H   0  0  0  0  0  0
   -3.3025  -20.0718   -6.9562 H   0  0  0  0  0  0
   -2.6727  -21.2628   -5.1447 H   0  0  0  0  0  0
   -4.4216  -22.5814   -5.9377 H   0  0  0  0  0  0
   -3.0867  -23.7062   -5.6201 H   0  0  0  0  0  0
   -4.1578  -23.7159   -8.0705 H   0  0  0  0  0  0
   -2.4303  -23.7730   -7.9162 H   0  0  0  0  0  0
  1  2  1  0  0  0
  1  6  1  0  0  0
  1 40  1  0  0  0
  1 41  1  0  0  0
  2  3  1  0  0  0
  2 42  1  0  0  0
  2 43  1  0  0  0
  3  4  1  0  0  0
  3 44  1  0  0  0
  3 45  1  0  0  0
  4  5  1  0  0  0
  4 33  1  0  0  0
  5  6  1  0  0  0
  5 46  1  0  0  0
  5 47  1  0  0  0
  6  7  1  0  0  0
  6 32  1  0  0  0
  7  8  1  0  0  0
  7 23  1  0  0  0
  7 31  1  0  0  0
  8  9  2  0  0  0
  8 13  1  0  0  0
  9 10  1  0  0  0
  9 48  1  0  0  0
 10 11  2  0  0  0
 10 49  1  0  0  0
 11 12  1  0  0  0
 11 50  1  0  0  0
 12 13  2  0  0  0
 12 22  1  0  0  0
 13 14  1  0  0  0
 14 15  2  0  0  0
 14 19  1  0  0  0
 15 16  1  0  0  0
 15 51  1  0  0  0
 16 17  2  0  0  0
 16 20  1  0  0  0
 17 18  1  0  0  0
 17 52  1  0  0  0
 18 19  2  0  0  0
 18 53  1  0  0  0
 19 54  1  0  0  0
 20 21  1  0  0  0
 20 55  1  0  0  0
 20 56  1  0  0  0
 21 57  1  0  0  0
 21 58  1  0  0  0
 21 59  1  0  0  0
 23 24  1  0  0  0
 23 60  1  0  0  0
 23 61  1  0  0  0
 24 25  1  0  0  0
 24 62  1  0  0  0
 24 63  1  0  0  0
 25 26  1  0  0  0
 25 64  1  0  0  0
 25 65  1  0  0  0
 26 27  1  0  0  0
 26 66  1  0  0  0
 27 28  2  0  0  0
 27 29  1  0  0  0
 29 30  1  0  0  0
 30 67  1  0  0  0
 30 68  1  0  0  0
 30 69  1  0  0  0
 31 70  1  0  0  0
 33 34  2  0  0  0
 33 35  1  0  0  0
 35 36  1  0  0  0
 35 39  1  0  0  0
 35 71  1  0  0  0
 36 37  1  0  0  0
 36 72  1  0  0  0
 36 73  1  0  0  0
 37 38  1  0  0  0
 37 74  1  0  0  0
 38 39  1  0  0  0
 38 75  1  0  0  0
 38 76  1  0  0  0
 39 77  1  0  0  0
 39 78  1  0  0  0
M  END
> <s_m_entry_id>
26363

> <s_m_entry_name>
dock_pv.187

> <s_m_Source_Path>
/home/csk/Desktop/cluster/DUD-E-result/reni

> <s_m_Source_File>
dock_pv.maegz

> <i_m_Source_File_Index>
187

> <chembl_id>
CHEMBL4209602

> <chembl_pref_name>
None

> <i_lp_mmshare_version>
53161

> <r_lp_tautomer_probability>
1

> <s_lp_Force_Field>
OPLS_2005

> <r_lp_Energy>
64.154323

> <b_lp_Chiralities_Consistent>
1

> <s_lp_Variant>
CHEMBL286_lig2871-4

> <s_i_glide_gridfile>
glide-grid_3g6z

> <i_i_glide_lignum>
7019

> <i_i_glide_rotatable_bonds>
13

> <r_i_docking_score>
-7.19947859103913

> <r_i_glide_ligand_efficiency>
-0.189459962922082

> <r_i_glide_ligand_efficiency_sa>
-0.636959735144752

> <r_i_glide_ligand_efficiency_ln>
-1.55241937143091

> <r_i_glide_gscore>
-7.19947859103913

> <r_i_glide_lipo>
-2.81542561450833

> <r_i_glide_hbond>
-0.650797348567467

> <r_i_glide_metal>
0

> <r_i_glide_rewards>
-1.16893361585913

> <r_i_glide_evdw>
-33.8891296386719

> <r_i_glide_ecoul>
-10.7654790878296

> <r_i_glide_erotb>
0.744956333003838

> <r_i_glide_esite>
0

> <r_i_glide_emodel>
-60.9445277500929

> <r_i_glide_energy>
-44.6546087265015

> <r_i_glide_einternal>
6.30379867553711

> <i_i_glide_confnum>
102

> <i_i_glide_posenum>
151

> <r_i_glide_eff_state_penalty>
0

> <s_user_duplicate_titles>
CHEMBL286_lig2871

> <i_f3d_flags>
0

> <s_m_subgroup_title>
dock_pv

> <s_m_subgroupid>
dock_pv

> <b_m_subgroup_collapsed>
1

$$$$
CHEMBL286_lig1553
                    3D
 Schrodinger Suite 2021-1.
 74 77  0  0  1  0            999 V2000
   -3.5515  -17.9935  -11.2447 N   0  0  0  0  0  0
   -2.7472  -18.9499  -11.8045 C   0  0  0  0  0  0
   -4.9513  -18.1314  -11.3075 C   0  0  0  0  0  0
   -3.0598  -16.7412  -10.5960 C   0  0  2  0  0  0
   -0.8283  -17.3876  -11.5603 N   0  0  2  0  0  0
  -12.0734  -14.2218   -8.2091 C   0  0  0  0  0  0
   -3.1715  -19.9227  -12.4362 O   0  0  0  0  0  0
  -10.8541  -13.5535   -8.4167 C   0  0  0  0  0  0
   -5.7168  -17.2454  -12.0683 C   0  0  0  0  0  0
   -5.5745  -19.1083  -10.5252 C   0  0  0  0  0  0
   -1.2271  -18.7952  -11.5455 C   0  0  0  0  0  0
   -1.5118  -16.6236  -10.5317 C   0  0  0  0  0  0
   -7.7409  -18.2828  -11.2161 C   0  0  0  0  0  0
   -3.3901  -15.0071   -8.9713 O   0  0  0  0  0  0
   -2.5626  -12.4347   -8.2830 C   0  0  0  0  0  0
   -7.1073  -17.3216  -12.0207 C   0  0  0  0  0  0
   -6.9620  -19.1801  -10.4843 C   0  0  0  0  0  0
   -2.2464  -11.0720   -8.1368 C   0  0  0  0  0  0
   -3.7207  -12.9742   -7.7051 C   0  0  0  0  0  0
   -9.7679  -14.3114   -8.8213 O   0  0  0  0  0  0
   -3.6978  -16.3688   -9.2361 C   0  0  0  0  0  0
  -11.4233  -17.8132  -11.3603 C   0  0  0  0  0  0
   -9.1081  -18.4071  -11.0695 O   0  0  0  0  0  0
   -1.1337  -10.4656   -8.6897 O   0  0  0  0  0  0
  -12.1680  -15.7350   -8.3760 C   0  0  0  0  0  0
  -11.8676  -16.0980   -9.7175 O   0  0  0  0  0  0
   -4.2661  -10.7877   -6.8220 C   0  0  0  0  0  0
  -13.2036  -13.5067   -7.7944 C   0  0  0  0  0  0
   -4.0581  -14.4554   -7.8432 C   0  0  0  0  0  0
   -9.9726  -17.4999  -11.7473 C   0  0  0  0  0  0
  -11.7393  -17.5010   -9.8927 C   0  0  0  0  0  0
  -10.7944  -12.1703   -8.1723 C   0  0  0  0  0  0
   -3.1067  -10.2657   -7.3886 C   0  0  0  0  0  0
   -4.5756  -12.1370   -6.9788 C   0  0  0  0  0  0
   -8.4974  -13.6934   -8.9927 C   0  0  0  0  0  0
   -0.2807  -11.2264   -9.5394 C   0  0  0  0  0  0
  -13.1365  -12.1300   -7.5936 C   0  0  0  0  0  0
  -11.9297  -11.4624   -7.7758 C   0  0  0  0  0  0
   -3.3858  -15.9703  -11.2957 H   0  0  0  0  0  0
   -0.9289  -16.9710  -12.4744 H   0  0  0  0  0  0
   -5.2438  -16.4898  -12.6788 H   0  0  0  0  0  0
   -4.9888  -19.7897   -9.9269 H   0  0  0  0  0  0
   -0.9821  -19.2634  -10.5858 H   0  0  0  0  0  0
   -0.6716  -19.3364  -12.3167 H   0  0  0  0  0  0
   -1.1611  -16.9878   -9.5612 H   0  0  0  0  0  0
   -1.2194  -15.5737  -10.5974 H   0  0  0  0  0  0
   -1.9095  -13.0873   -8.8432 H   0  0  0  0  0  0
   -7.6786  -16.6276  -12.6164 H   0  0  0  0  0  0
   -7.4448  -19.9247   -9.8658 H   0  0  0  0  0  0
   -4.7809  -16.4825   -9.2813 H   0  0  0  0  0  0
   -3.3348  -17.0200   -8.4379 H   0  0  0  0  0  0
  -11.6149  -18.8661  -11.5593 H   0  0  0  0  0  0
  -12.1033  -17.2565  -12.0048 H   0  0  0  0  0  0
  -11.4600  -16.1922   -7.6790 H   0  0  0  0  0  0
  -13.1652  -16.0935   -8.1128 H   0  0  0  0  0  0
   -4.9182  -10.1446   -6.2475 H   0  0  0  0  0  0
  -14.1382  -14.0162   -7.6215 H   0  0  0  0  0  0
   -5.1399  -14.5627   -7.9629 H   0  0  0  0  0  0
   -3.7608  -14.9742   -6.9288 H   0  0  0  0  0  0
   -9.8692  -17.6344  -12.8207 H   0  0  0  0  0  0
   -9.7307  -16.4645  -11.5050 H   0  0  0  0  0  0
  -10.9532  -17.9015   -9.2485 H   0  0  0  0  0  0
  -12.6688  -17.9943   -9.6183 H   0  0  0  0  0  0
   -9.8725  -11.6244   -8.2890 H   0  0  0  0  0  0
   -2.8723   -9.2234   -7.2461 H   0  0  0  0  0  0
   -5.4731  -12.5328   -6.5226 H   0  0  0  0  0  0
   -7.7650  -14.4552   -9.2599 H   0  0  0  0  0  0
   -8.5128  -12.9612   -9.8002 H   0  0  0  0  0  0
   -8.1526  -13.2150   -8.0745 H   0  0  0  0  0  0
    0.5292  -10.5928   -9.8983 H   0  0  0  0  0  0
    0.1719  -12.0616   -9.0069 H   0  0  0  0  0  0
   -0.8146  -11.6066  -10.4112 H   0  0  0  0  0  0
  -14.0133  -11.5812   -7.2834 H   0  0  0  0  0  0
  -11.8720  -10.3975   -7.6065 H   0  0  0  0  0  0
  1  2  1  0  0  0
  1  3  1  0  0  0
  1  4  1  0  0  0
  2  7  2  0  0  0
  2 11  1  0  0  0
  3  9  1  0  0  0
  3 10  2  0  0  0
  4 12  1  0  0  0
  4 21  1  0  0  0
  4 39  1  0  0  0
  5 12  1  0  0  0
  5 11  1  0  0  0
  5 40  1  0  0  0
  6 25  1  0  0  0
  6  8  2  0  0  0
  6 28  1  0  0  0
  8 20  1  0  0  0
  8 32  1  0  0  0
  9 16  2  0  0  0
  9 41  1  0  0  0
 10 17  1  0  0  0
 10 42  1  0  0  0
 11 43  1  0  0  0
 11 44  1  0  0  0
 12 45  1  0  0  0
 12 46  1  0  0  0
 13 17  2  0  0  0
 13 23  1  0  0  0
 13 16  1  0  0  0
 14 21  1  0  0  0
 14 29  1  0  0  0
 15 19  2  0  0  0
 15 18  1  0  0  0
 15 47  1  0  0  0
 16 48  1  0  0  0
 17 49  1  0  0  0
 18 24  1  0  0  0
 18 33  2  0  0  0
 19 29  1  0  0  0
 19 34  1  0  0  0
 20 35  1  0  0  0
 21 50  1  0  0  0
 21 51  1  0  0  0
 22 30  1  0  0  0
 22 31  1  0  0  0
 22 52  1  0  0  0
 22 53  1  0  0  0
 23 30  1  0  0  0
 24 36  1  0  0  0
 25 26  1  0  0  0
 25 54  1  0  0  0
 25 55  1  0  0  0
 26 31  1  0  0  0
 27 34  2  0  0  0
 27 33  1  0  0  0
 27 56  1  0  0  0
 28 37  2  0  0  0
 28 57  1  0  0  0
 29 58  1  0  0  0
 29 59  1  0  0  0
 30 60  1  0  0  0
 30 61  1  0  0  0
 31 62  1  0  0  0
 31 63  1  0  0  0
 32 38  2  0  0  0
 32 64  1  0  0  0
 33 65  1  0  0  0
 34 66  1  0  0  0
 35 67  1  0  0  0
 35 68  1  0  0  0
 35 69  1  0  0  0
 36 70  1  0  0  0
 36 71  1  0  0  0
 36 72  1  0  0  0
 37 38  1  0  0  0
 37 73  1  0  0  0
 38 74  1  0  0  0
M  END
> <s_m_entry_id>
26364

> <s_m_entry_name>
dock_pv.188

> <s_m_Source_Path>
/home/csk/Desktop/cluster/DUD-E-result/reni

> <s_m_Source_File>
dock_pv.maegz

> <i_m_Source_File_Index>
188

> <chembl_id>
CHEMBL363620

> <chembl_pref_name>
None

> <i_lp_mmshare_version>
53161

> <r_lp_tautomer_probability>
1

> <s_lp_Force_Field>
OPLS_2005

> <r_lp_Energy>
59.479665

> <b_lp_Chiralities_Consistent>
1

> <s_lp_Variant>
CHEMBL286_lig1553-1

> <s_i_glide_gridfile>
glide-grid_3g6z

> <i_i_glide_lignum>
5257

> <i_i_glide_rotatable_bonds>
14

> <r_i_docking_score>
-7.19824748494121

> <r_i_glide_ligand_efficiency>
-0.18942756539319

> <r_i_glide_ligand_efficiency_sa>
-0.636850815449506

> <r_i_glide_ligand_efficiency_ln>
-1.55215390874073

> <r_i_glide_gscore>
-7.19824748494121

> <r_i_glide_lipo>
-4.423205832765

> <r_i_glide_hbond>
-0.0800406849525273

> <r_i_glide_metal>
0

> <r_i_glide_rewards>
-0.708394681855313

> <r_i_glide_evdw>
-49.1448097229004

> <r_i_glide_ecoul>
-2.92860913276672

> <r_i_glide_erotb>
0.909925570691665

> <r_i_glide_esite>
0

> <r_i_glide_emodel>
-70.7556989697987

> <r_i_glide_energy>
-52.0734188556671

> <r_i_glide_einternal>
7.71988487243652

> <i_i_glide_confnum>
79

> <i_i_glide_posenum>
226

> <r_i_glide_eff_state_penalty>
0

> <s_user_duplicate_titles>
CHEMBL286_lig1553,326734

> <i_f3d_flags>
0

> <s_m_subgroup_title>
dock_pv

> <s_m_subgroupid>
dock_pv

> <b_m_subgroup_collapsed>
1

$$$$
CHEMBL286_lig2435
                    3D
 Schrodinger Suite 2021-1.
 72 75  0  0  1  0            999 V2000
   -7.7998  -20.0481   -9.6809 C   0  0  0  0  0  0
   -8.6967  -19.0381   -9.3227 C   0  0  0  0  0  0
   -9.3620  -18.2943  -10.3030 C   0  0  0  0  0  0
   -9.1391  -18.6094  -11.6435 C   0  0  0  0  0  0
   -8.2227  -19.5885  -12.0121 C   0  0  0  0  0  0
   -7.5300  -20.3176  -11.0349 C   0  0  0  0  0  0
  -10.3422  -17.1959   -9.9565 C   0  0  0  0  0  0
   -9.9037  -16.0630   -9.3004 N   0  0  0  0  0  0
   -8.4371  -15.8109   -9.2155 C   0  0  0  0  0  0
   -7.7215  -14.9944  -10.3431 C   0  0  1  0  0  0
  -10.8056  -15.0425   -8.8104 C   0  0  0  0  0  0
  -10.3471  -13.7312   -8.5560 C   0  0  0  0  0  0
  -11.1893  -12.7498   -8.0413 C   0  0  0  0  0  0
  -12.5119  -13.0538   -7.7504 C   0  0  0  0  0  0
  -12.9894  -14.3416   -7.9523 C   0  0  0  0  0  0
  -12.1505  -15.3206   -8.4776 C   0  0  0  0  0  0
  -13.5632  -11.8374   -7.1226 Cl  0  0  0  0  0  0
   -6.2086  -15.3347  -10.3853 C   0  0  1  0  0  0
   -6.1073  -16.1891  -11.6519 C   0  0  0  0  0  0
   -7.0549  -15.6233  -12.5943 N   0  0  2  0  0  0
   -8.2084  -15.2558  -11.7913 C   0  0  0  0  0  0
   -5.2356  -14.1193  -10.4196 C   0  0  0  0  0  0
   -5.0935  -13.2666   -9.1483 C   0  0  0  0  0  0
   -5.7816  -13.5561   -7.9628 C   0  0  0  0  0  0
   -5.6833  -12.7043   -6.8636 C   0  0  0  0  0  0
   -4.8736  -11.5741   -6.9348 C   0  0  0  0  0  0
   -4.1554  -11.2920   -8.0948 C   0  0  0  0  0  0
   -4.2628  -12.1389   -9.1978 C   0  0  0  0  0  0
   -6.5895  -21.2917  -11.3299 O   0  0  0  0  0  0
   -6.3057  -21.6032  -12.6917 C   0  0  0  0  0  0
   -7.1875  -20.7427   -8.6686 O   0  0  0  0  0  0
   -7.5825  -22.1052   -8.5508 C   0  0  0  0  0  0
   -7.2427  -22.6084   -7.1426 C   0  0  0  0  0  0
   -5.7473  -22.4639   -6.7922 C   0  0  0  0  0  0
   -5.4548  -22.8686   -5.4639 O   0  0  0  0  0  0
   -5.5004  -24.2700   -5.2236 C   0  0  0  0  0  0
  -11.4995  -17.3794  -10.3334 O   0  0  0  0  0  0
   -8.8695  -18.8364   -8.2756 H   0  0  0  0  0  0
   -9.6675  -18.0780  -12.4239 H   0  0  0  0  0  0
   -8.0587  -19.7552  -13.0660 H   0  0  0  0  0  0
   -8.2466  -15.3258   -8.2609 H   0  0  0  0  0  0
   -7.8949  -16.7430   -9.0898 H   0  0  0  0  0  0
   -7.8283  -13.9254  -10.1483 H   0  0  0  0  0  0
   -9.3325  -13.4356   -8.7491 H   0  0  0  0  0  0
  -10.8137  -11.7493   -7.8691 H   0  0  0  0  0  0
  -14.0088  -14.5886   -7.6954 H   0  0  0  0  0  0
  -12.5767  -16.3055   -8.5719 H   0  0  0  0  0  0
   -5.8911  -15.9576   -9.5457 H   0  0  0  0  0  0
   -6.3483  -17.2332  -11.4370 H   0  0  0  0  0  0
   -5.0957  -16.1867  -12.0679 H   0  0  0  0  0  0
   -7.3237  -16.3101  -13.2941 H   0  0  0  0  0  0
   -8.9211  -16.0675  -11.8667 H   0  0  0  0  0  0
   -8.6552  -14.3732  -12.2471 H   0  0  0  0  0  0
   -4.2346  -14.4790  -10.6611 H   0  0  0  0  0  0
   -5.5170  -13.4587  -11.2422 H   0  0  0  0  0  0
   -6.4003  -14.4340   -7.8756 H   0  0  0  0  0  0
   -6.2361  -12.9236   -5.9630 H   0  0  0  0  0  0
   -4.8011  -10.9148   -6.0836 H   0  0  0  0  0  0
   -3.5266  -10.4145   -8.1421 H   0  0  0  0  0  0
   -3.7176  -11.9030  -10.1020 H   0  0  0  0  0  0
   -5.5415  -22.3819  -12.7290 H   0  0  0  0  0  0
   -7.1872  -21.9815  -13.2137 H   0  0  0  0  0  0
   -5.9175  -20.7359  -13.2251 H   0  0  0  0  0  0
   -7.0727  -22.7170   -9.2976 H   0  0  0  0  0  0
   -8.6566  -22.2226   -8.7219 H   0  0  0  0  0  0
   -7.5569  -23.6504   -7.0639 H   0  0  0  0  0  0
   -7.8494  -22.0658   -6.4218 H   0  0  0  0  0  0
   -5.4596  -21.4173   -6.8677 H   0  0  0  0  0  0
   -5.1251  -23.0057   -7.5034 H   0  0  0  0  0  0
   -5.1511  -24.4768   -4.2099 H   0  0  0  0  0  0
   -4.8544  -24.8175   -5.9144 H   0  0  0  0  0  0
   -6.5182  -24.6600   -5.3070 H   0  0  0  0  0  0
  1  2  2  0  0  0
  1  6  1  0  0  0
  1 31  1  0  0  0
  2  3  1  0  0  0
  2 38  1  0  0  0
  3  4  2  0  0  0
  3  7  1  0  0  0
  4  5  1  0  0  0
  4 39  1  0  0  0
  5  6  2  0  0  0
  5 40  1  0  0  0
  6 29  1  0  0  0
  7  8  1  0  0  0
  7 37  2  0  0  0
  8  9  1  0  0  0
  8 11  1  0  0  0
  9 10  1  0  0  0
  9 41  1  0  0  0
  9 42  1  0  0  0
 10 18  1  0  0  0
 10 21  1  0  0  0
 10 43  1  0  0  0
 11 12  2  0  0  0
 11 16  1  0  0  0
 12 13  1  0  0  0
 12 44  1  0  0  0
 13 14  2  0  0  0
 13 45  1  0  0  0
 14 15  1  0  0  0
 14 17  1  0  0  0
 15 16  2  0  0  0
 15 46  1  0  0  0
 16 47  1  0  0  0
 18 19  1  0  0  0
 18 22  1  0  0  0
 18 48  1  0  0  0
 19 20  1  0  0  0
 19 49  1  0  0  0
 19 50  1  0  0  0
 20 21  1  0  0  0
 20 51  1  0  0  0
 21 52  1  0  0  0
 21 53  1  0  0  0
 22 23  1  0  0  0
 22 54  1  0  0  0
 22 55  1  0  0  0
 23 24  2  0  0  0
 23 28  1  0  0  0
 24 25  1  0  0  0
 24 56  1  0  0  0
 25 26  2  0  0  0
 25 57  1  0  0  0
 26 27  1  0  0  0
 26 58  1  0  0  0
 27 28  2  0  0  0
 27 59  1  0  0  0
 28 60  1  0  0  0
 29 30  1  0  0  0
 30 61  1  0  0  0
 30 62  1  0  0  0
 30 63  1  0  0  0
 31 32  1  0  0  0
 32 33  1  0  0  0
 32 64  1  0  0  0
 32 65  1  0  0  0
 33 34  1  0  0  0
 33 66  1  0  0  0
 33 67  1  0  0  0
 34 35  1  0  0  0
 34 68  1  0  0  0
 34 69  1  0  0  0
 35 36  1  0  0  0
 36 70  1  0  0  0
 36 71  1  0  0  0
 36 72  1  0  0  0
M  END
> <s_m_entry_id>
26365

> <s_m_entry_name>
dock_pv.189

> <s_m_Source_Path>
/home/csk/Desktop/cluster/DUD-E-result/reni

> <s_m_Source_File>
dock_pv.maegz

> <i_m_Source_File_Index>
189

> <chembl_id>
CHEMBL2322608

> <chembl_pref_name>
None

> <i_lp_mmshare_version>
53161

> <r_lp_tautomer_probability>
1

> <s_lp_Force_Field>
OPLS_2005

> <r_lp_Energy>
66.085002

> <b_lp_Chiralities_Consistent>
1

> <s_lp_Variant>
CHEMBL286_lig2435-2

> <s_i_glide_gridfile>
glide-grid_3g6z

> <i_i_glide_lignum>
6483

> <i_i_glide_rotatable_bonds>
13

> <r_i_docking_score>
-7.19547969968066

> <r_i_glide_ligand_efficiency>
-0.194472424315694

> <r_i_glide_ligand_efficiency_sa>
-0.648025261067329

> <r_i_glide_ligand_efficiency_ln>
-1.56053086088324

> <r_i_glide_gscore>
-7.19547969968066

> <r_i_glide_lipo>
-4.18453949325098

> <r_i_glide_hbond>
-0.147803094679632

> <r_i_glide_metal>
0

> <r_i_glide_rewards>
-0.863294266720786

> <r_i_glide_evdw>
-46.4520072937012

> <r_i_glide_ecoul>
-3.36120915412903

> <r_i_glide_erotb>
0.826938892775145

> <r_i_glide_esite>
0

> <r_i_glide_emodel>
-63.4543689408734

> <r_i_glide_energy>
-49.8132164478302

> <r_i_glide_einternal>
15.2331590652466

> <i_i_glide_confnum>
219

> <i_i_glide_posenum>
306

> <r_i_glide_eff_state_penalty>
0

> <s_user_duplicate_titles>
CHEMBL286_lig2435

> <i_f3d_flags>
0

> <s_m_subgroup_title>
dock_pv

> <s_m_subgroupid>
dock_pv

> <b_m_subgroup_collapsed>
1

$$$$
CHEMBL286_lig1028
                    3D
 Schrodinger Suite 2021-1.
101104  0  0  1  0            999 V2000
   -1.5550  -16.0825  -10.4014 C   0  0  0  0  0  0
   -7.2582  -16.9675   -9.6232 C   0  0  0  0  0  0
   -4.7457  -15.0622  -10.3092 C   0  0  0  0  0  0
   -8.4480  -17.0683  -10.2259 N   0  0  0  0  0  0
   -9.6786  -17.6965   -9.7133 C   0  0  2  0  0  0
   -2.3238  -15.3726   -9.5538 N   0  0  0  0  0  0
   -0.6885  -16.9458   -9.7987 N   0  0  0  0  0  0
   -4.8857  -16.3856  -10.1546 N   0  0  0  0  0  0
   -6.0645  -17.1370  -10.5736 C   0  0  1  0  0  0
   -3.4318  -19.7516  -10.7907 N   0  0  0  0  0  0
  -10.6036  -17.9797  -10.9645 C   0  0  2  0  0  0
   -4.4240  -18.9682  -11.3935 C   0  0  0  0  0  0
   -3.3967  -14.4185   -9.8997 C   0  0  1  0  0  0
   -5.7145  -18.6354  -10.6847 C   0  0  0  0  0  0
  -11.8003  -18.9649  -10.8011 C   0  0  2  0  0  0
   -2.7507  -19.1754  -12.8195 N   0  0  0  0  0  0
   -2.4711  -19.8427  -11.6991 C   0  0  0  0  0  0
   -1.6999  -16.0254  -11.6210 O   0  0  0  0  0  0
   -4.0005  -18.6034  -12.6565 C   0  0  0  0  0  0
  -10.2297  -17.0130   -8.3949 C   0  0  0  0  0  0
   -7.0751  -16.8630   -8.4115 O   0  0  0  0  0  0
   -5.6433  -14.3439  -10.7573 O   0  0  0  0  0  0
  -11.4844  -20.4608  -10.4211 C   0  0  0  0  0  0
   -2.9421  -13.3155  -10.8992 C   0  0  0  0  0  0
    2.0966  -16.7618   -9.5691 O   0  0  0  0  0  0
   -9.7967  -18.4877  -12.0210 O   0  0  0  0  0  0
  -12.6682  -18.8647  -11.9217 O   0  0  0  0  0  0
   -3.5551  -11.9251  -10.6191 C   0  0  0  0  0  0
   -0.0804  -16.6636   -8.4777 C   0  0  0  0  0  0
    0.1651  -17.8100  -10.6337 C   0  0  0  0  0  0
   -3.0432  -11.3033   -9.3234 C   0  0  0  0  0  0
  -11.5385  -16.1733   -8.3363 C   0  0  0  0  0  0
  -11.1084  -21.5412  -11.4663 C   0  0  0  0  0  0
    1.2629  -15.9442   -8.7452 C   0  0  0  0  0  0
    1.5108  -17.0729  -10.8316 C   0  0  0  0  0  0
   -3.9371  -10.9951   -8.2963 C   0  0  0  0  0  0
   -1.6712  -11.0666   -9.1577 C   0  0  0  0  0  0
  -11.8618  -15.6512   -6.9048 C   0  0  0  0  0  0
  -11.4542  -14.9252   -9.2224 C   0  0  0  0  0  0
  -12.3501  -22.0958  -12.2022 C   0  0  0  0  0  0
  -10.3570  -22.7131  -10.8107 C   0  0  0  0  0  0
   -1.1969  -10.5314   -7.9629 C   0  0  0  0  0  0
   -3.4632  -10.4593   -7.1013 C   0  0  0  0  0  0
  -12.8003  -14.1932   -9.2371 C   0  0  0  0  0  0
  -13.2024  -14.8840   -6.8311 C   0  0  0  0  0  0
  -13.2429  -13.7273   -7.8410 C   0  0  0  0  0  0
   -2.0944  -10.2333   -6.9402 C   0  0  0  0  0  0
   -8.4088  -17.0975  -11.2364 H   0  0  0  0  0  0
   -9.3462  -18.6861   -9.3927 H   0  0  0  0  0  0
   -2.1565  -15.4764   -8.5665 H   0  0  0  0  0  0
   -4.1162  -16.9257   -9.7792 H   0  0  0  0  0  0
   -6.3404  -16.7814  -11.5685 H   0  0  0  0  0  0
  -10.9933  -17.0298  -11.3229 H   0  0  0  0  0  0
   -3.5952  -13.9448   -8.9405 H   0  0  0  0  0  0
   -5.6597  -19.0728   -9.6858 H   0  0  0  0  0  0
   -6.5179  -19.1648  -11.1988 H   0  0  0  0  0  0
  -12.4010  -18.5473  -10.0034 H   0  0  0  0  0  0
   -2.1502  -19.0902  -13.6266 H   0  0  0  0  0  0
   -1.5543  -20.3919  -11.5394 H   0  0  0  0  0  0
   -4.4694  -17.9888  -13.4138 H   0  0  0  0  0  0
   -9.4531  -16.3548   -8.0197 H   0  0  0  0  0  0
  -10.3011  -17.7854   -7.6269 H   0  0  0  0  0  0
  -10.7448  -20.4834   -9.6218 H   0  0  0  0  0  0
  -12.4076  -20.8631  -10.0214 H   0  0  0  0  0  0
   -1.8551  -13.2279  -10.8637 H   0  0  0  0  0  0
   -3.1439  -13.6118  -11.9316 H   0  0  0  0  0  0
  -10.0323  -18.0692  -12.8589 H   0  0  0  0  0  0
  -12.1313  -18.8637  -12.7234 H   0  0  0  0  0  0
   -3.3208  -11.2664  -11.4516 H   0  0  0  0  0  0
   -4.6468  -11.9861  -10.6085 H   0  0  0  0  0  0
   -0.7319  -16.2033   -7.7345 H   0  0  0  0  0  0
    0.1261  -17.6513   -8.0609 H   0  0  0  0  0  0
    0.3178  -18.7042  -10.0313 H   0  0  0  0  0  0
   -0.3109  -18.1657  -11.5487 H   0  0  0  0  0  0
  -12.3739  -16.7966   -8.6569 H   0  0  0  0  0  0
  -10.4024  -21.1322  -12.1674 H   0  0  0  0  0  0
    1.7676  -15.7376   -7.8016 H   0  0  0  0  0  0
    1.1013  -14.9704   -9.2139 H   0  0  0  0  0  0
    2.1937  -17.6970  -11.4036 H   0  0  0  0  0  0
    1.3732  -16.1622  -11.4178 H   0  0  0  0  0  0
   -4.9983  -11.1751   -8.4105 H   0  0  0  0  0  0
   -0.9751  -11.3015   -9.9492 H   0  0  0  0  0  0
  -11.0694  -15.0039   -6.5534 H   0  0  0  0  0  0
  -11.8643  -16.4636   -6.1893 H   0  0  0  0  0  0
  -11.2360  -15.2694  -10.2208 H   0  0  0  0  0  0
  -10.6251  -14.2736   -8.9431 H   0  0  0  0  0  0
  -12.9007  -22.7995  -11.5781 H   0  0  0  0  0  0
  -13.0698  -21.3208  -12.4576 H   0  0  0  0  0  0
  -12.0678  -22.6243  -13.1131 H   0  0  0  0  0  0
  -10.9594  -23.2022  -10.0476 H   0  0  0  0  0  0
  -10.0817  -23.4669  -11.5474 H   0  0  0  0  0  0
   -9.4378  -22.3776  -10.3361 H   0  0  0  0  0  0
   -0.1377  -10.3581   -7.8281 H   0  0  0  0  0  0
   -4.1484  -10.2173   -6.3023 H   0  0  0  0  0  0
  -12.8897  -13.3774   -9.9547 H   0  0  0  0  0  0
  -13.4690  -14.9579   -9.6000 H   0  0  0  0  0  0
  -13.3489  -14.4631   -5.8342 H   0  0  0  0  0  0
  -14.0324  -15.5691   -7.0213 H   0  0  0  0  0  0
  -12.5804  -12.9299   -7.5001 H   0  0  0  0  0  0
  -14.2503  -13.2968   -7.8737 H   0  0  0  0  0  0
   -1.7281   -9.8092   -6.0154 H   0  0  0  0  0  0
  1  6  1  0  0  0
  1  7  1  0  0  0
  1 18  2  0  0  0
  2  9  1  0  0  0
  2  4  1  0  0  0
  2 21  2  0  0  0
  3 13  1  0  0  0
  3  8  1  0  0  0
  3 22  2  0  0  0
  4  5  1  0  0  0
  4 48  1  0  0  0
  5 11  1  0  0  0
  5 20  1  0  0  0
  5 49  1  0  0  0
  6 13  1  0  0  0
  6 50  1  0  0  0
  7 29  1  0  0  0
  7 30  1  0  0  0
  8  9  1  0  0  0
  8 51  1  0  0  0
  9 14  1  0  0  0
  9 52  1  0  0  0
 10 12  1  0  0  0
 10 17  2  0  0  0
 11 15  1  0  0  0
 11 26  1  0  0  0
 11 53  1  0  0  0
 12 14  1  0  0  0
 12 19  2  0  0  0
 13 24  1  0  0  0
 13 54  1  0  0  0
 14 55  1  0  0  0
 14 56  1  0  0  0
 15 23  1  0  0  0
 15 27  1  0  0  0
 15 57  1  0  0  0
 16 19  1  0  0  0
 16 17  1  0  0  0
 16 58  1  0  0  0
 17 59  1  0  0  0
 19 60  1  0  0  0
 20 32  1  0  0  0
 20 61  1  0  0  0
 20 62  1  0  0  0
 23 33  1  0  0  0
 23 63  1  0  0  0
 23 64  1  0  0  0
 24 28  1  0  0  0
 24 65  1  0  0  0
 24 66  1  0  0  0
 25 35  1  0  0  0
 25 34  1  0  0  0
 26 67  1  0  0  0
 27 68  1  0  0  0
 28 31  1  0  0  0
 28 69  1  0  0  0
 28 70  1  0  0  0
 29 34  1  0  0  0
 29 71  1  0  0  0
 29 72  1  0  0  0
 30 35  1  0  0  0
 30 73  1  0  0  0
 30 74  1  0  0  0
 31 36  2  0  0  0
 31 37  1  0  0  0
 32 38  1  0  0  0
 32 39  1  0  0  0
 32 75  1  0  0  0
 33 40  1  0  0  0
 33 41  1  0  0  0
 33 76  1  0  0  0
 34 77  1  0  0  0
 34 78  1  0  0  0
 35 79  1  0  0  0
 35 80  1  0  0  0
 36 43  1  0  0  0
 36 81  1  0  0  0
 37 42  2  0  0  0
 37 82  1  0  0  0
 38 45  1  0  0  0
 38 83  1  0  0  0
 38 84  1  0  0  0
 39 44  1  0  0  0
 39 85  1  0  0  0
 39 86  1  0  0  0
 40 87  1  0  0  0
 40 88  1  0  0  0
 40 89  1  0  0  0
 41 90  1  0  0  0
 41 91  1  0  0  0
 41 92  1  0  0  0
 42 47  1  0  0  0
 42 93  1  0  0  0
 43 47  2  0  0  0
 43 94  1  0  0  0
 44 46  1  0  0  0
 44 95  1  0  0  0
 44 96  1  0  0  0
 45 46  1  0  0  0
 45 97  1  0  0  0
 45 98  1  0  0  0
 46 99  1  0  0  0
 46100  1  0  0  0
 47101  1  0  0  0
M  END
> <s_m_entry_id>
26366

> <s_m_entry_name>
dock_pv.190

> <s_m_Source_Path>
/home/csk/Desktop/cluster/DUD-E-result/reni

> <s_m_Source_File>
dock_pv.maegz

> <i_m_Source_File_Index>
190

> <chembl_id>
CHEMBL307917

> <chembl_pref_name>
None

> <i_lp_mmshare_version>
53161

> <r_lp_tautomer_probability>
0.499999999999999

> <s_lp_Force_Field>
OPLS_2005

> <r_lp_Energy>
51.160057

> <b_lp_Chiralities_Consistent>
1

> <s_lp_Variant>
CHEMBL286_lig1028-1

> <s_i_glide_gridfile>
glide-grid_3g6z

> <i_i_glide_lignum>
2876

> <i_i_glide_rotatable_bonds>
22

> <r_i_docking_score>
-7.18354799029937

> <r_i_glide_ligand_efficiency>
-0.152841446602114

> <r_i_glide_ligand_efficiency_sa>
-0.55157819791595

> <r_i_glide_ligand_efficiency_ln>
-1.48109884073767

> <r_i_glide_gscore>
-7.18354799029937

> <r_i_glide_lipo>
-4.062357222934

> <r_i_glide_hbond>
0

> <r_i_glide_metal>
0

> <r_i_glide_rewards>
-0.5199686421895

> <r_i_glide_evdw>
-41.7426300048828

> <r_i_glide_ecoul>
-7.35777044296265

> <r_i_glide_erotb>
0.589983661588

> <r_i_glide_esite>
-0.000408720075337861

> <r_i_glide_emodel>
-40.9120548535392

> <r_i_glide_energy>
-49.1004004478455

> <r_i_glide_einternal>
26.5952224731445

> <i_i_glide_confnum>
36

> <i_i_glide_posenum>
38

> <r_i_glide_eff_state_penalty>
0

> <s_user_duplicate_titles>
CHEMBL286_lig1028

> <i_f3d_flags>
0

> <s_m_subgroup_title>
dock_pv

> <s_m_subgroupid>
dock_pv

> <b_m_subgroup_collapsed>
1

$$$$
CHEMBL286_lig2442
                    3D
 Schrodinger Suite 2021-1.
 84 88  0  0  1  0            999 V2000
   -6.5704  -23.3147  -10.4915 C   0  0  1  0  0  0
   -5.5835  -23.1677   -9.2798 C   0  0  2  0  0  0
   -8.0446  -23.0132  -10.0478 C   0  0  1  0  0  0
   -6.0684  -24.0193   -8.0790 C   0  0  0  0  0  0
   -8.4282  -23.8699   -8.8102 C   0  0  0  0  0  0
   -7.4878  -23.6580   -7.6021 C   0  0  2  0  0  0
   -8.0902  -21.5300   -9.5530 C   0  0  0  0  0  0
   -7.0990  -21.2593   -8.3885 C   0  0  2  0  0  0
   -5.6573  -21.6811   -8.7994 C   0  0  0  0  0  0
   -7.5137  -22.1640   -7.2144 C   0  0  0  0  0  0
   -6.0334  -14.4632   -9.0920 C   0  0  0  0  0  0
   -6.7175  -15.0320  -10.3624 C   0  0  0  0  0  0
   -6.1901  -14.3429  -11.6464 C   0  0  0  0  0  0
  -11.1115  -12.6174   -7.9706 C   0  0  0  0  0  0
  -12.3752  -13.1963   -7.9196 C   0  0  0  0  0  0
  -12.5519  -14.5104   -8.3452 C   0  0  0  0  0  0
  -11.4760  -15.2607   -8.8244 C   0  0  0  0  0  0
  -10.1743  -14.7060   -8.8211 C   0  0  0  0  0  0
  -10.0262  -13.3631   -8.4210 C   0  0  0  0  0  0
   -9.0158  -15.3981   -9.2809 N   0  0  0  0  0  0
   -8.2344  -14.7171  -10.3428 C   0  0  0  0  0  0
   -6.6626  -16.5016  -10.4428 N   0  0  2  0  0  0
   -7.3068  -17.2269   -9.3304 C   0  0  0  0  0  0
   -8.6500  -16.6364   -8.8209 C   0  0  0  0  0  0
   -9.2750  -17.2555   -7.9555 O   0  0  0  0  0  0
   -5.3444  -17.1025  -10.7415 C   0  0  0  0  0  0
   -5.2879  -17.9322  -12.0578 C   0  0  1  0  0  0
   -6.1901  -19.2051  -12.1367 C   0  0  2  0  0  0
   -5.4750  -17.0883  -13.2221 N   0  0  0  0  0  0
   -5.9201  -20.1433  -13.3514 C   0  0  0  0  0  0
   -7.5722  -18.8791  -12.1629 O   0  0  0  0  0  0
   -4.7842  -21.2186  -13.2211 C   0  0  2  0  0  0
   -5.0769  -22.4220  -12.2945 C   0  0  0  0  0  0
   -6.2095  -22.3940  -11.5769 N   0  0  0  0  0  0
   -4.2741  -23.3546  -12.2300 O   0  0  0  0  0  0
   -3.3405  -20.6460  -13.0480 C   0  0  0  0  0  0
   -2.8105  -20.4772  -11.6045 C   0  0  0  0  0  0
   -7.8690  -24.4639   -6.5128 O   0  0  0  0  0  0
  -11.8479  -16.8209   -9.4841 Cl  0  0  0  0  0  0
  -10.9371  -11.3349   -7.5824 F   0  0  0  0  0  0
   -6.5181  -24.3285  -10.8908 H   0  0  0  0  0  0
   -4.5631  -23.4439   -9.5536 H   0  0  0  0  0  0
   -8.7461  -23.1719  -10.8716 H   0  0  0  0  0  0
   -6.0338  -25.0749   -8.3516 H   0  0  0  0  0  0
   -5.3662  -23.9197   -7.2463 H   0  0  0  0  0  0
   -9.4610  -23.6659   -8.5243 H   0  0  0  0  0  0
   -8.4221  -24.9219   -9.0968 H   0  0  0  0  0  0
   -9.1017  -21.2828   -9.2258 H   0  0  0  0  0  0
   -7.9093  -20.8340  -10.3698 H   0  0  0  0  0  0
   -7.1182  -20.2073   -8.1031 H   0  0  0  0  0  0
   -5.2673  -21.0067   -9.5612 H   0  0  0  0  0  0
   -4.9812  -21.5411   -7.9498 H   0  0  0  0  0  0
   -6.8205  -21.9949   -6.3929 H   0  0  0  0  0  0
   -8.4985  -21.8674   -6.8474 H   0  0  0  0  0  0
   -6.0567  -13.3739   -9.0798 H   0  0  0  0  0  0
   -6.4981  -14.8093   -8.1685 H   0  0  0  0  0  0
   -4.9864  -14.7621   -9.0423 H   0  0  0  0  0  0
   -6.3327  -13.2630  -11.6117 H   0  0  0  0  0  0
   -5.1249  -14.5082  -11.8001 H   0  0  0  0  0  0
   -6.6989  -14.7045  -12.5417 H   0  0  0  0  0  0
  -13.2191  -12.6193   -7.5695 H   0  0  0  0  0  0
  -13.5374  -14.9505   -8.3328 H   0  0  0  0  0  0
   -9.0576  -12.8865   -8.4188 H   0  0  0  0  0  0
   -8.6688  -15.0378  -11.2933 H   0  0  0  0  0  0
   -8.3838  -13.6396  -10.3202 H   0  0  0  0  0  0
   -7.4932  -18.2638   -9.6111 H   0  0  0  0  0  0
   -6.6466  -17.2670   -8.4623 H   0  0  0  0  0  0
   -5.0140  -17.7520   -9.9306 H   0  0  0  0  0  0
   -4.5756  -16.3297  -10.7999 H   0  0  0  0  0  0
   -4.2593  -18.2656  -12.1393 H   0  0  0  0  0  0
   -6.0327  -19.7641  -11.2171 H   0  0  0  0  0  0
   -6.4204  -16.7325  -13.2150 H   0  0  0  0  0  0
   -4.8675  -16.2776  -13.1902 H   0  0  0  0  0  0
   -5.7792  -19.5375  -14.2489 H   0  0  0  0  0  0
   -6.8386  -20.6899  -13.5869 H   0  0  0  0  0  0
   -7.7798  -18.4618  -13.0097 H   0  0  0  0  0  0
   -4.7906  -21.7041  -14.1957 H   0  0  0  0  0  0
   -6.8116  -21.5905  -11.6875 H   0  0  0  0  0  0
   -2.6469  -21.3090  -13.5698 H   0  0  0  0  0  0
   -3.2450  -19.7014  -13.5929 H   0  0  0  0  0  0
   -1.8581  -19.9492  -11.6025 H   0  0  0  0  0  0
   -3.4969  -19.9231  -10.9663 H   0  0  0  0  0  0
   -2.6339  -21.4421  -11.1268 H   0  0  0  0  0  0
   -8.5423  -23.9724   -6.0210 H   0  0  0  0  0  0
  1  2  1  0  0  0
  1  3  1  0  0  0
  1 34  1  0  0  0
  1 41  1  0  0  0
  2  4  1  0  0  0
  2  9  1  0  0  0
  2 42  1  0  0  0
  3  5  1  0  0  0
  3  7  1  0  0  0
  3 43  1  0  0  0
  4  6  1  0  0  0
  4 44  1  0  0  0
  4 45  1  0  0  0
  5  6  1  0  0  0
  5 46  1  0  0  0
  5 47  1  0  0  0
  6 10  1  0  0  0
  6 38  1  0  0  0
  7  8  1  0  0  0
  7 48  1  0  0  0
  7 49  1  0  0  0
  8 10  1  0  0  0
  8  9  1  0  0  0
  8 50  1  0  0  0
  9 51  1  0  0  0
  9 52  1  0  0  0
 10 53  1  0  0  0
 10 54  1  0  0  0
 11 12  1  0  0  0
 11 55  1  0  0  0
 11 56  1  0  0  0
 11 57  1  0  0  0
 12 13  1  0  0  0
 12 21  1  0  0  0
 12 22  1  0  0  0
 13 58  1  0  0  0
 13 59  1  0  0  0
 13 60  1  0  0  0
 14 15  2  0  0  0
 14 19  1  0  0  0
 14 40  1  0  0  0
 15 16  1  0  0  0
 15 61  1  0  0  0
 16 17  2  0  0  0
 16 62  1  0  0  0
 17 18  1  0  0  0
 17 39  1  0  0  0
 18 19  2  0  0  0
 18 20  1  0  0  0
 19 63  1  0  0  0
 20 21  1  0  0  0
 20 24  1  0  0  0
 21 64  1  0  0  0
 21 65  1  0  0  0
 22 23  1  0  0  0
 22 26  1  0  0  0
 23 24  1  0  0  0
 23 66  1  0  0  0
 23 67  1  0  0  0
 24 25  2  0  0  0
 26 27  1  0  0  0
 26 68  1  0  0  0
 26 69  1  0  0  0
 27 28  1  0  0  0
 27 29  1  0  0  0
 27 70  1  0  0  0
 28 30  1  0  0  0
 28 31  1  0  0  0
 28 71  1  0  0  0
 29 72  1  0  0  0
 29 73  1  0  0  0
 30 32  1  0  0  0
 30 74  1  0  0  0
 30 75  1  0  0  0
 31 76  1  0  0  0
 32 33  1  0  0  0
 32 36  1  0  0  0
 32 77  1  0  0  0
 33 34  1  0  0  0
 33 35  2  0  0  0
 34 78  1  0  0  0
 36 37  1  0  0  0
 36 79  1  0  0  0
 36 80  1  0  0  0
 37 81  1  0  0  0
 37 82  1  0  0  0
 37 83  1  0  0  0
 38 84  1  0  0  0
M  END
> <s_m_entry_id>
26367

> <s_m_entry_name>
dock_pv.191

> <s_m_Source_Path>
/home/csk/Desktop/cluster/DUD-E-result/reni

> <s_m_Source_File>
dock_pv.maegz

> <i_m_Source_File_Index>
191

> <chembl_id>
CHEMBL2387573

> <chembl_pref_name>
None

> <i_lp_mmshare_version>
53161

> <r_lp_tautomer_probability>
1

> <s_lp_Force_Field>
OPLS_2005

> <r_lp_Energy>
91.412418

> <b_lp_Chiralities_Consistent>
1

> <s_lp_Variant>
CHEMBL286_lig2442-1

> <s_i_glide_gridfile>
glide-grid_3g6z

> <i_i_glide_lignum>
6501

> <i_i_glide_rotatable_bonds>
12

> <r_i_docking_score>
-7.18348155627133

> <r_i_glide_ligand_efficiency>
-0.179587038906783

> <r_i_glide_ligand_efficiency_sa>
-0.614179032975772

> <r_i_glide_ligand_efficiency_ln>
-1.53202521552749

> <r_i_glide_gscore>
-7.18348155627133

> <r_i_glide_lipo>
-2.67488242894873

> <r_i_glide_hbond>
-0.660090961088724

> <r_i_glide_metal>
0

> <r_i_glide_rewards>
-1.27013698144015

> <r_i_glide_evdw>
-35.8184013366699

> <r_i_glide_ecoul>
-8.3257417678833

> <r_i_glide_erotb>
0.462006611101576

> <r_i_glide_esite>
-0.000596463879309774

> <r_i_glide_emodel>
-55.3528691200898

> <r_i_glide_energy>
-44.1441431045532

> <r_i_glide_einternal>
11.6023950576782

> <i_i_glide_confnum>
109

> <i_i_glide_posenum>
93

> <r_i_glide_eff_state_penalty>
0

> <s_user_duplicate_titles>
CHEMBL286_lig2442

> <i_f3d_flags>
0

> <s_m_subgroup_title>
dock_pv

> <s_m_subgroupid>
dock_pv

> <b_m_subgroup_collapsed>
1

$$$$
CHEMBL286_lig306
                    3D
 Schrodinger Suite 2021-1.
 92 93  0  0  1  0            999 V2000
   -4.0480  -12.9521   -9.7495 C   0  0  2  0  0  0
   -3.4754  -12.3239   -8.4427 C   0  0  0  0  0  0
   -6.4796  -18.5632  -11.6858 C   0  0  0  0  0  0
   -3.5264  -14.3842  -10.0990 C   0  0  1  0  0  0
   -5.4139  -15.6650  -11.1101 C   0  0  0  0  0  0
   -4.2729  -14.9676  -11.2210 N   0  0  0  0  0  0
   -6.8007  -17.4188  -12.3093 N   0  0  0  0  0  0
   -7.5165  -19.7028  -11.8011 C   0  0  1  0  0  0
   -6.0986  -21.2766  -13.1269 C   0  0  0  0  0  0
   -6.8778  -20.9954  -12.0705 N   0  0  0  0  0  0
   -5.9576  -16.2273  -12.4377 C   0  0  1  0  0  0
   -2.0040  -14.4464  -10.3995 C   0  0  0  0  0  0
   -5.4363  -18.7594  -11.0577 O   0  0  0  0  0  0
   -6.0194  -15.8373  -10.0498 O   0  0  0  0  0  0
   -8.4000  -19.8094  -10.5328 C   0  0  0  0  0  0
   -5.8691  -20.4652  -14.0210 O   0  0  0  0  0  0
   -3.5712  -13.2096   -7.4478 F   0  0  0  0  0  0
   -2.1778  -12.0374   -8.5810 F   0  0  0  0  0  0
   -5.4864  -22.6848  -13.1890 C   0  0  0  0  0  0
   -3.8691  -12.0822  -10.8633 O   0  0  0  0  0  0
   -9.3047  -18.6045  -10.2945 C   0  0  0  0  0  0
   -4.2522  -11.0383   -8.0516 C   0  0  0  0  0  0
  -11.0339  -16.4628   -9.7928 C   0  0  0  0  0  0
   -3.7557  -10.4319   -6.8212 N   0  0  0  0  0  0
  -10.3734  -18.3508  -11.1553 C   0  0  0  0  0  0
   -9.0859  -17.7742   -9.1923 C   0  0  0  0  0  0
   -9.9494  -16.7127   -8.9403 C   0  0  0  0  0  0
  -11.2320  -17.2863  -10.9012 C   0  0  0  0  0  0
   -1.4546  -15.8083  -10.9071 C   0  0  0  0  0  0
  -11.9427  -15.4372   -9.6205 O   0  0  0  0  0  0
   -6.6710  -15.1451  -13.2810 C   0  0  0  0  0  0
   -4.0906  -22.8368  -12.5200 C   0  0  0  0  0  0
  -11.7701  -14.5239   -8.5431 C   0  0  0  0  0  0
    0.0339  -15.6801  -11.2881 C   0  0  0  0  0  0
   -1.6208  -16.9543   -9.8819 C   0  0  0  0  0  0
   -7.8730  -14.4043  -12.6611 C   0  0  0  0  0  0
   -4.1049  -22.5525  -11.0044 C   0  0  0  0  0  0
   -2.9810  -22.0285  -13.2213 C   0  0  0  0  0  0
   -7.5218  -13.3226  -11.6253 C   0  0  0  0  0  0
   -1.0986  -18.2919  -10.4467 C   0  0  0  0  0  0
    0.6015  -16.9930  -11.8657 C   0  0  0  0  0  0
    0.3715  -18.1795  -10.9080 C   0  0  0  0  0  0
   -5.1257  -13.0412   -9.6077 H   0  0  0  0  0  0
   -3.6874  -15.0071   -9.2145 H   0  0  0  0  0  0
   -3.8591  -14.8857  -12.1425 H   0  0  0  0  0  0
   -7.6473  -17.4006  -12.8688 H   0  0  0  0  0  0
   -8.1582  -19.4938  -12.6599 H   0  0  0  0  0  0
   -7.0111  -21.7047  -11.3662 H   0  0  0  0  0  0
   -5.0915  -16.5599  -13.0118 H   0  0  0  0  0  0
   -1.7647  -13.6838  -11.1435 H   0  0  0  0  0  0
   -1.4475  -14.1678   -9.5044 H   0  0  0  0  0  0
   -7.7726  -19.9869   -9.6574 H   0  0  0  0  0  0
   -9.0430  -20.6888  -10.5956 H   0  0  0  0  0  0
   -6.1904  -23.3905  -12.7468 H   0  0  0  0  0  0
   -5.4177  -22.9623  -14.2429 H   0  0  0  0  0  0
   -4.1149  -12.5651  -11.6577 H   0  0  0  0  0  0
   -4.1760  -10.3001   -8.8496 H   0  0  0  0  0  0
   -5.3127  -11.2633   -7.9312 H   0  0  0  0  0  0
   -4.2768   -9.5964   -6.5904 H   0  0  0  0  0  0
   -3.8698  -11.0619   -6.0360 H   0  0  0  0  0  0
  -10.5461  -18.9735  -12.0202 H   0  0  0  0  0  0
   -8.2531  -17.9545   -8.5271 H   0  0  0  0  0  0
   -9.7639  -16.0968   -8.0759 H   0  0  0  0  0  0
  -12.0560  -17.0946  -11.5701 H   0  0  0  0  0  0
   -1.9887  -16.0959  -11.8146 H   0  0  0  0  0  0
   -5.9365  -14.4164  -13.6268 H   0  0  0  0  0  0
   -7.0490  -15.6249  -14.1813 H   0  0  0  0  0  0
   -3.8163  -23.8880  -12.6310 H   0  0  0  0  0  0
  -12.5631  -13.7759   -8.5803 H   0  0  0  0  0  0
  -10.8173  -13.9986   -8.6167 H   0  0  0  0  0  0
  -11.8305  -15.0255   -7.5760 H   0  0  0  0  0  0
    0.1307  -14.8714  -12.0123 H   0  0  0  0  0  0
    0.6191  -15.3598  -10.4239 H   0  0  0  0  0  0
   -1.1041  -16.7022   -8.9541 H   0  0  0  0  0  0
   -2.6688  -17.0607   -9.5983 H   0  0  0  0  0  0
   -8.4030  -13.9107  -13.4801 H   0  0  0  0  0  0
   -8.5906  -15.1174  -12.2439 H   0  0  0  0  0  0
   -4.3212  -21.5049  -10.7897 H   0  0  0  0  0  0
   -4.8536  -23.1587  -10.4935 H   0  0  0  0  0  0
   -3.1397  -22.7829  -10.5539 H   0  0  0  0  0  0
   -3.1482  -20.9527  -13.1431 H   0  0  0  0  0  0
   -2.0046  -22.2408  -12.7857 H   0  0  0  0  0  0
   -2.9201  -22.2810  -14.2816 H   0  0  0  0  0  0
   -8.2689  -12.5311  -11.6226 H   0  0  0  0  0  0
   -7.4873  -13.7278  -10.6153 H   0  0  0  0  0  0
   -6.5575  -12.8613  -11.8397 H   0  0  0  0  0  0
   -1.7249  -18.6007  -11.2857 H   0  0  0  0  0  0
   -1.1953  -19.0751   -9.6942 H   0  0  0  0  0  0
    0.1300  -17.2147  -12.8220 H   0  0  0  0  0  0
    1.6679  -16.8830  -12.0699 H   0  0  0  0  0  0
    0.6836  -19.1106  -11.3822 H   0  0  0  0  0  0
    1.0133  -18.0619  -10.0337 H   0  0  0  0  0  0
  1  2  1  0  0  0
  1  4  1  0  0  0
  1 20  1  0  0  0
  1 43  1  0  0  0
  2 17  1  0  0  0
  2 18  1  0  0  0
  2 22  1  0  0  0
  3  7  1  0  0  0
  3  8  1  0  0  0
  3 13  2  0  0  0
  4  6  1  0  0  0
  4 12  1  0  0  0
  4 44  1  0  0  0
  5  6  1  0  0  0
  5 11  1  0  0  0
  5 14  2  0  0  0
  6 45  1  0  0  0
  7 11  1  0  0  0
  7 46  1  0  0  0
  8 10  1  0  0  0
  8 15  1  0  0  0
  8 47  1  0  0  0
  9 10  1  0  0  0
  9 16  2  0  0  0
  9 19  1  0  0  0
 10 48  1  0  0  0
 11 31  1  0  0  0
 11 49  1  0  0  0
 12 29  1  0  0  0
 12 50  1  0  0  0
 12 51  1  0  0  0
 15 21  1  0  0  0
 15 52  1  0  0  0
 15 53  1  0  0  0
 19 32  1  0  0  0
 19 54  1  0  0  0
 19 55  1  0  0  0
 20 56  1  0  0  0
 21 25  2  0  0  0
 21 26  1  0  0  0
 22 24  1  0  0  0
 22 57  1  0  0  0
 22 58  1  0  0  0
 23 27  1  0  0  0
 23 28  2  0  0  0
 23 30  1  0  0  0
 24 59  1  0  0  0
 24 60  1  0  0  0
 25 28  1  0  0  0
 25 61  1  0  0  0
 26 27  2  0  0  0
 26 62  1  0  0  0
 27 63  1  0  0  0
 28 64  1  0  0  0
 29 34  1  0  0  0
 29 35  1  0  0  0
 29 65  1  0  0  0
 30 33  1  0  0  0
 31 36  1  0  0  0
 31 66  1  0  0  0
 31 67  1  0  0  0
 32 37  1  0  0  0
 32 38  1  0  0  0
 32 68  1  0  0  0
 33 69  1  0  0  0
 33 70  1  0  0  0
 33 71  1  0  0  0
 34 41  1  0  0  0
 34 72  1  0  0  0
 34 73  1  0  0  0
 35 40  1  0  0  0
 35 74  1  0  0  0
 35 75  1  0  0  0
 36 39  1  0  0  0
 36 76  1  0  0  0
 36 77  1  0  0  0
 37 78  1  0  0  0
 37 79  1  0  0  0
 37 80  1  0  0  0
 38 81  1  0  0  0
 38 82  1  0  0  0
 38 83  1  0  0  0
 39 84  1  0  0  0
 39 85  1  0  0  0
 39 86  1  0  0  0
 40 42  1  0  0  0
 40 87  1  0  0  0
 40 88  1  0  0  0
 41 42  1  0  0  0
 41 89  1  0  0  0
 41 90  1  0  0  0
 42 91  1  0  0  0
 42 92  1  0  0  0
M  END
> <s_m_entry_id>
26368

> <s_m_entry_name>
dock_pv.192

> <s_m_Source_Path>
/home/csk/Desktop/cluster/DUD-E-result/reni

> <s_m_Source_File>
dock_pv.maegz

> <i_m_Source_File_Index>
192

> <chembl_id>
CHEMBL545343

> <chembl_pref_name>
None

> <i_lp_mmshare_version>
53161

> <r_lp_tautomer_probability>
1

> <s_lp_Force_Field>
OPLS_2005

> <r_lp_Energy>
23.059763

> <b_lp_Chiralities_Consistent>
1

> <s_lp_Variant>
CHEMBL286_lig306-1

> <s_i_glide_gridfile>
glide-grid_3g6z

> <i_i_glide_lignum>
503

> <i_i_glide_rotatable_bonds>
21

> <r_i_docking_score>
-7.17747578655879

> <r_i_glide_ligand_efficiency>
-0.170892280632352

> <r_i_glide_ligand_efficiency_sa>
-0.594026120143378

> <r_i_glide_ligand_efficiency_ln>
-1.51498022548045

> <r_i_glide_gscore>
-7.17747578655879

> <r_i_glide_lipo>
-2.9045233043427

> <r_i_glide_hbond>
-0.67185475446314

> <r_i_glide_metal>
0

> <r_i_glide_rewards>
-0.340371163034902

> <r_i_glide_evdw>
-48.3161010742188

> <r_i_glide_ecoul>
-9.85600471496582

> <r_i_glide_erotb>
0.769852443223542

> <r_i_glide_esite>
-0.136373246985787

> <r_i_glide_emodel>
-77.384295350325

> <r_i_glide_energy>
-58.1721057891846

> <r_i_glide_einternal>
12.4059705734253

> <i_i_glide_confnum>
64

> <i_i_glide_posenum>
61

> <r_i_glide_eff_state_penalty>
0

> <s_user_duplicate_titles>
CHEMBL286_lig306

> <i_f3d_flags>
0

> <s_m_subgroup_title>
dock_pv

> <s_m_subgroupid>
dock_pv

> <b_m_subgroup_collapsed>
1

$$$$
CHEMBL286_lig1644
                    3D
 Schrodinger Suite 2021-1.
 82 83  0  0  1  0            999 V2000
  -10.8604  -18.9188  -10.6051 C   0  0  0  0  0  0
  -11.5260  -20.1243  -10.8984 C   0  0  0  0  0  0
  -10.8201  -21.3372  -10.8264 C   0  0  0  0  0  0
   -9.4896  -21.3615  -10.4274 C   0  0  0  0  0  0
   -8.8234  -20.1761  -10.1305 C   0  0  0  0  0  0
   -9.5071  -18.9608  -10.2226 C   0  0  0  0  0  0
   -7.3573  -20.2017   -9.7136 C   0  0  0  0  0  0
   -6.3833  -19.8207  -10.8658 C   0  0  1  0  0  0
   -5.4008  -18.6976  -10.4278 C   0  0  0  0  0  0
   -4.5699  -18.0326  -11.5593 C   0  0  1  0  0  0
   -5.3613  -17.3997  -12.7543 C   0  0  1  0  0  0
   -5.7692  -18.4428  -13.6218 O   0  0  0  0  0  0
   -6.5806  -16.4773  -12.4345 C   0  0  0  0  0  0
   -6.3441  -14.9393  -12.4269 C   0  0  2  0  0  0
   -5.4369  -14.4586  -11.2775 C   0  0  0  0  0  0
   -4.2494  -13.9354  -11.6209 N   0  0  0  0  0  0
   -5.7992  -14.5853  -10.1061 O   0  0  0  0  0  0
   -3.2475  -13.4066  -10.6993 C   0  0  0  0  0  0
   -3.5224  -11.9529  -10.2698 C   0  0  0  0  0  0
   -2.4560  -11.3507   -9.3360 C   0  0  0  0  0  0
   -1.0644  -11.1915   -9.9742 C   0  0  0  0  0  0
   -3.6629  -17.0740  -10.9523 N   0  0  0  0  0  0
   -5.6743  -21.0303  -11.5654 C   0  0  0  0  0  0
   -6.6468  -21.9307  -12.3611 C   0  0  0  0  0  0
   -4.7725  -21.8761  -10.6407 C   0  0  0  0  0  0
  -11.6237  -17.7668  -10.6762 O   0  0  0  0  0  0
  -11.0859  -16.4650  -10.4113 C   0  0  0  0  0  0
   -7.6838  -14.1699  -12.4120 C   0  0  0  0  0  0
  -12.8721  -20.0565  -11.2226 O   0  0  0  0  0  0
  -13.5824  -21.2457  -11.5545 C   0  0  0  0  0  0
  -11.6322  -15.8484   -9.1215 C   0  0  0  0  0  0
  -11.1358  -14.6137   -8.6936 C   0  0  0  0  0  0
  -11.6891  -13.9759   -7.5863 C   0  0  0  0  0  0
  -12.7231  -14.5876   -6.8845 C   0  0  0  0  0  0
  -13.2108  -15.8285   -7.2820 C   0  0  0  0  0  0
  -12.6643  -16.4581   -8.4002 C   0  0  0  0  0  0
  -11.2926  -22.2791  -11.0521 H   0  0  0  0  0  0
   -8.9823  -22.3082  -10.3439 H   0  0  0  0  0  0
   -8.9641  -18.0674   -9.9676 H   0  0  0  0  0  0
   -7.1175  -21.1743   -9.2879 H   0  0  0  0  0  0
   -7.2596  -19.5173   -8.8699 H   0  0  0  0  0  0
   -7.0034  -19.3546  -11.6332 H   0  0  0  0  0  0
   -4.7240  -19.0994   -9.6726 H   0  0  0  0  0  0
   -5.9595  -17.9176   -9.9086 H   0  0  0  0  0  0
   -3.8997  -18.7864  -11.9720 H   0  0  0  0  0  0
   -4.6540  -16.8627  -13.3798 H   0  0  0  0  0  0
   -6.3648  -18.0826  -14.2964 H   0  0  0  0  0  0
   -7.0857  -16.7964  -11.5244 H   0  0  0  0  0  0
   -7.3219  -16.6331  -13.2170 H   0  0  0  0  0  0
   -5.8690  -14.6828  -13.3751 H   0  0  0  0  0  0
   -3.9853  -13.9724  -12.6010 H   0  0  0  0  0  0
   -2.2777  -13.4660  -11.1937 H   0  0  0  0  0  0
   -3.1417  -14.0472   -9.8221 H   0  0  0  0  0  0
   -4.4835  -11.9171   -9.7568 H   0  0  0  0  0  0
   -3.6298  -11.3219  -11.1532 H   0  0  0  0  0  0
   -2.3718  -11.9589   -8.4338 H   0  0  0  0  0  0
   -2.8006  -10.3736   -8.9984 H   0  0  0  0  0  0
   -0.3820  -10.6806   -9.2940 H   0  0  0  0  0  0
   -1.1045  -10.6131  -10.8970 H   0  0  0  0  0  0
   -0.6201  -12.1584  -10.2098 H   0  0  0  0  0  0
   -3.1585  -16.5782  -11.6732 H   0  0  0  0  0  0
   -4.1998  -16.3711  -10.4573 H   0  0  0  0  0  0
   -5.0147  -20.6182  -12.3258 H   0  0  0  0  0  0
   -7.2534  -22.5518  -11.7066 H   0  0  0  0  0  0
   -7.3179  -21.3395  -12.9890 H   0  0  0  0  0  0
   -6.1011  -22.6059  -13.0219 H   0  0  0  0  0  0
   -5.3460  -22.4238   -9.8944 H   0  0  0  0  0  0
   -4.2111  -22.6110  -11.2181 H   0  0  0  0  0  0
   -4.0403  -21.2576  -10.1204 H   0  0  0  0  0  0
  -10.0041  -16.3745  -10.4677 H   0  0  0  0  0  0
  -11.4709  -15.8523  -11.2209 H   0  0  0  0  0  0
   -7.5296  -13.0907  -12.4608 H   0  0  0  0  0  0
   -8.3063  -14.4427  -13.2655 H   0  0  0  0  0  0
   -8.2535  -14.3808  -11.5037 H   0  0  0  0  0  0
  -14.6412  -21.0143  -11.6700 H   0  0  0  0  0  0
  -13.2278  -21.6679  -12.4962 H   0  0  0  0  0  0
  -13.4990  -22.0004  -10.7750 H   0  0  0  0  0  0
  -10.3286  -14.1285   -9.2217 H   0  0  0  0  0  0
  -11.3092  -13.0165   -7.2654 H   0  0  0  0  0  0
  -13.1492  -14.0925   -6.0247 H   0  0  0  0  0  0
  -14.0273  -16.2994   -6.7581 H   0  0  0  0  0  0
  -13.0701  -17.4038   -8.7256 H   0  0  0  0  0  0
  1  2  2  0  0  0
  1  6  1  0  0  0
  1 26  1  0  0  0
  2  3  1  0  0  0
  2 29  1  0  0  0
  3  4  2  0  0  0
  3 37  1  0  0  0
  4  5  1  0  0  0
  4 38  1  0  0  0
  5  6  2  0  0  0
  5  7  1  0  0  0
  6 39  1  0  0  0
  7  8  1  0  0  0
  7 40  1  0  0  0
  7 41  1  0  0  0
  8  9  1  0  0  0
  8 23  1  0  0  0
  8 42  1  0  0  0
  9 10  1  0  0  0
  9 43  1  0  0  0
  9 44  1  0  0  0
 10 11  1  0  0  0
 10 22  1  0  0  0
 10 45  1  0  0  0
 11 12  1  0  0  0
 11 13  1  0  0  0
 11 46  1  0  0  0
 12 47  1  0  0  0
 13 14  1  0  0  0
 13 48  1  0  0  0
 13 49  1  0  0  0
 14 15  1  0  0  0
 14 28  1  0  0  0
 14 50  1  0  0  0
 15 16  1  0  0  0
 15 17  2  0  0  0
 16 18  1  0  0  0
 16 51  1  0  0  0
 18 19  1  0  0  0
 18 52  1  0  0  0
 18 53  1  0  0  0
 19 20  1  0  0  0
 19 54  1  0  0  0
 19 55  1  0  0  0
 20 21  1  0  0  0
 20 56  1  0  0  0
 20 57  1  0  0  0
 21 58  1  0  0  0
 21 59  1  0  0  0
 21 60  1  0  0  0
 22 61  1  0  0  0
 22 62  1  0  0  0
 23 24  1  0  0  0
 23 25  1  0  0  0
 23 63  1  0  0  0
 24 64  1  0  0  0
 24 65  1  0  0  0
 24 66  1  0  0  0
 25 67  1  0  0  0
 25 68  1  0  0  0
 25 69  1  0  0  0
 26 27  1  0  0  0
 27 31  1  0  0  0
 27 70  1  0  0  0
 27 71  1  0  0  0
 28 72  1  0  0  0
 28 73  1  0  0  0
 28 74  1  0  0  0
 29 30  1  0  0  0
 30 75  1  0  0  0
 30 76  1  0  0  0
 30 77  1  0  0  0
 31 32  2  0  0  0
 31 36  1  0  0  0
 32 33  1  0  0  0
 32 78  1  0  0  0
 33 34  2  0  0  0
 33 79  1  0  0  0
 34 35  1  0  0  0
 34 80  1  0  0  0
 35 36  2  0  0  0
 35 81  1  0  0  0
 36 82  1  0  0  0
M  END
> <s_m_entry_id>
26369

> <s_m_entry_name>
dock_pv.193

> <s_m_Source_Path>
/home/csk/Desktop/cluster/DUD-E-result/reni

> <s_m_Source_File>
dock_pv.maegz

> <i_m_Source_File_Index>
193

> <chembl_id>
CHEMBL540886

> <chembl_pref_name>
None

> <i_lp_mmshare_version>
53161

> <r_lp_tautomer_probability>
1

> <s_lp_Force_Field>
OPLS_2005

> <r_lp_Energy>
40.067317

> <b_lp_Chiralities_Consistent>
1

> <s_lp_Variant>
CHEMBL286_lig1644-1

> <s_i_glide_gridfile>
glide-grid_3g6z

> <i_i_glide_lignum>
5350

> <i_i_glide_rotatable_bonds>
18

> <r_i_docking_score>
-7.17394677588043

> <r_i_glide_ligand_efficiency>
-0.199276299330012

> <r_i_glide_ligand_efficiency_sa>
-0.657995842030668

> <r_i_glide_ligand_efficiency_ln>
-1.56516136885361

> <r_i_glide_gscore>
-7.17394677588043

> <r_i_glide_lipo>
-3.48167041092006

> <r_i_glide_hbond>
-0.715396797144587

> <r_i_glide_metal>
0

> <r_i_glide_rewards>
-0.59220512938091

> <r_i_glide_evdw>
-41.9298553466797

> <r_i_glide_ecoul>
-9.33742332458496

> <r_i_glide_erotb>
1.14881447584031

> <r_i_glide_esite>
-0.0363826482534509

> <r_i_glide_emodel>
-69.4026067232367

> <r_i_glide_energy>
-51.2672786712646

> <r_i_glide_einternal>
10.3343362808228

> <i_i_glide_confnum>
87

> <i_i_glide_posenum>
398

> <r_i_glide_eff_state_penalty>
0

> <s_user_duplicate_titles>
CHEMBL286_lig1644

> <i_f3d_flags>
0

> <s_m_subgroup_title>
dock_pv

> <s_m_subgroupid>
dock_pv

> <b_m_subgroup_collapsed>
1

$$$$
CHEMBL286_lig1537
                    3D
 Schrodinger Suite 2021-1.
 72 76  0  0  1  0            999 V2000
   -8.5568  -18.3350  -10.1320 N   0  0  0  0  0  0
   -8.0082  -19.5501   -9.7981 C   0  0  0  0  0  0
   -9.7790  -18.1731  -10.9783 C   0  0  2  0  0  0
   -7.8788  -17.1452   -9.7743 C   0  0  0  0  0  0
  -11.5692  -13.5567   -8.1824 C   0  0  0  0  0  0
   -9.7389  -20.6488  -11.2209 N   0  0  1  0  0  0
  -11.0134  -14.7149   -8.7737 C   0  0  0  0  0  0
  -10.9356  -12.3638   -8.3604 N   0  0  0  0  0  0
   -1.9604  -10.5612   -8.1120 C   0  0  0  0  0  0
   -6.9258  -19.6809   -9.2222 O   0  0  0  0  0  0
  -10.7333  -17.0144  -10.6014 C   0  0  0  0  0  0
   -2.1190  -11.2622   -9.3181 C   0  0  0  0  0  0
  -12.7781  -13.6672   -7.4292 C   0  0  0  0  0  0
  -11.6467  -15.9566   -8.6478 C   0  0  0  0  0  0
   -7.4627  -16.2291  -10.7482 C   0  0  0  0  0  0
   -7.6741  -16.8601   -8.4208 C   0  0  0  0  0  0
  -11.1702  -17.1078   -9.2421 O   0  0  0  0  0  0
  -13.3668  -14.9427   -7.2634 C   0  0  0  0  0  0
   -8.8830  -20.8009  -10.0496 C   0  0  0  0  0  0
  -10.5940  -19.4798  -11.1253 C   0  0  0  0  0  0
   -6.6977  -14.7309   -9.0049 C   0  0  0  0  0  0
  -12.7958  -16.0600   -7.8696 C   0  0  0  0  0  0
   -7.0689  -15.6731   -8.0384 C   0  0  0  0  0  0
   -6.8717  -15.0273  -10.3592 C   0  0  0  0  0  0
   -3.3926  -11.3437   -9.8577 O   0  0  0  0  0  0
   -5.8084  -11.6030   -7.2470 C   0  0  0  0  0  0
   -6.1483  -13.5105   -8.6838 O   0  0  0  0  0  0
   -3.1608   -9.9432   -7.4141 C   0  0  0  0  0  0
   -3.6578  -10.8250   -6.4210 O   0  0  0  0  0  0
  -11.5007  -11.2508   -7.8335 C   0  0  0  0  0  0
   -0.6922  -10.4195   -7.5376 C   0  0  0  0  0  0
   -6.6686  -12.8332   -7.5398 C   0  0  0  0  0  0
   -4.3736  -11.9727   -6.8591 C   0  0  0  0  0  0
   -0.9874  -11.8357   -9.9101 C   0  0  0  0  0  0
  -13.3349  -12.4778   -6.8849 C   0  0  0  0  0  0
   -3.6096  -12.0990  -11.0448 C   0  0  0  0  0  0
  -12.6896  -11.2630   -7.1062 C   0  0  0  0  0  0
    0.4235  -10.9820   -8.1501 C   0  0  0  0  0  0
    0.2742  -11.6956   -9.3351 C   0  0  0  0  0  0
   -9.4000  -17.9285  -11.9709 H   0  0  0  0  0  0
   -9.2265  -20.6877  -12.0935 H   0  0  0  0  0  0
  -10.0774  -14.6174   -9.3002 H   0  0  0  0  0  0
  -10.2281  -16.0763  -10.8219 H   0  0  0  0  0  0
  -11.6132  -17.0201  -11.2484 H   0  0  0  0  0  0
   -7.6056  -16.4353  -11.7995 H   0  0  0  0  0  0
   -7.9878  -17.5615   -7.6601 H   0  0  0  0  0  0
  -14.2687  -15.0448   -6.6816 H   0  0  0  0  0  0
   -8.2366  -21.6703  -10.1744 H   0  0  0  0  0  0
   -9.4732  -20.9705   -9.1514 H   0  0  0  0  0  0
  -11.2254  -19.4132  -12.0072 H   0  0  0  0  0  0
  -11.2528  -19.6065  -10.2668 H   0  0  0  0  0  0
  -13.2809  -17.0194   -7.7653 H   0  0  0  0  0  0
   -6.9095  -15.5017   -6.9861 H   0  0  0  0  0  0
   -6.5602  -14.3142  -11.1075 H   0  0  0  0  0  0
   -6.2553  -11.0497   -6.4225 H   0  0  0  0  0  0
   -5.8091  -10.9359   -8.1070 H   0  0  0  0  0  0
   -2.8332   -9.0385   -6.8998 H   0  0  0  0  0  0
   -3.9296   -9.6247   -8.1161 H   0  0  0  0  0  0
  -10.9840  -10.3192   -8.0138 H   0  0  0  0  0  0
   -0.5722   -9.8795   -6.6098 H   0  0  0  0  0  0
   -6.6719  -13.4509   -6.6415 H   0  0  0  0  0  0
   -7.7003  -12.5320   -7.7328 H   0  0  0  0  0  0
   -3.8564  -12.5139   -7.6483 H   0  0  0  0  0  0
   -4.4148  -12.6623   -6.0213 H   0  0  0  0  0  0
   -1.0698  -12.4043  -10.8208 H   0  0  0  0  0  0
  -14.2520  -12.5131   -6.3163 H   0  0  0  0  0  0
   -4.6669  -12.0633  -11.3079 H   0  0  0  0  0  0
   -3.0450  -11.6932  -11.8862 H   0  0  0  0  0  0
   -3.3437  -13.1476  -10.9064 H   0  0  0  0  0  0
  -13.0988  -10.3424   -6.7172 H   0  0  0  0  0  0
    1.3995  -10.8747   -7.7004 H   0  0  0  0  0  0
    1.1328  -12.1436   -9.8149 H   0  0  0  0  0  0
  1  2  1  0  0  0
  1  3  1  0  0  0
  1  4  1  0  0  0
  2 10  2  0  0  0
  2 19  1  0  0  0
  3 11  1  0  0  0
  3 20  1  0  0  0
  3 40  1  0  0  0
  4 15  2  0  0  0
  4 16  1  0  0  0
  5  7  2  0  0  0
  5  8  1  0  0  0
  5 13  1  0  0  0
  6 20  1  0  0  0
  6 19  1  0  0  0
  6 41  1  0  0  0
  7 14  1  0  0  0
  7 42  1  0  0  0
  8 30  2  0  0  0
  9 28  1  0  0  0
  9 12  2  0  0  0
  9 31  1  0  0  0
 11 17  1  0  0  0
 11 43  1  0  0  0
 11 44  1  0  0  0
 12 25  1  0  0  0
 12 34  1  0  0  0
 13 18  2  0  0  0
 13 35  1  0  0  0
 14 17  1  0  0  0
 14 22  2  0  0  0
 15 24  1  0  0  0
 15 45  1  0  0  0
 16 23  2  0  0  0
 16 46  1  0  0  0
 18 22  1  0  0  0
 18 47  1  0  0  0
 19 48  1  0  0  0
 19 49  1  0  0  0
 20 50  1  0  0  0
 20 51  1  0  0  0
 21 23  1  0  0  0
 21 27  1  0  0  0
 21 24  2  0  0  0
 22 52  1  0  0  0
 23 53  1  0  0  0
 24 54  1  0  0  0
 25 36  1  0  0  0
 26 32  1  0  0  0
 26 33  1  0  0  0
 26 55  1  0  0  0
 26 56  1  0  0  0
 27 32  1  0  0  0
 28 29  1  0  0  0
 28 57  1  0  0  0
 28 58  1  0  0  0
 29 33  1  0  0  0
 30 37  1  0  0  0
 30 59  1  0  0  0
 31 38  2  0  0  0
 31 60  1  0  0  0
 32 61  1  0  0  0
 32 62  1  0  0  0
 33 63  1  0  0  0
 33 64  1  0  0  0
 34 39  2  0  0  0
 34 65  1  0  0  0
 35 37  2  0  0  0
 35 66  1  0  0  0
 36 67  1  0  0  0
 36 68  1  0  0  0
 36 69  1  0  0  0
 37 70  1  0  0  0
 38 39  1  0  0  0
 38 71  1  0  0  0
 39 72  1  0  0  0
M  END
> <s_m_entry_id>
26370

> <s_m_entry_name>
dock_pv.194

> <s_m_Source_Path>
/home/csk/Desktop/cluster/DUD-E-result/reni

> <s_m_Source_File>
dock_pv.maegz

> <i_m_Source_File_Index>
194

> <chembl_id>
CHEMBL371782

> <chembl_pref_name>
None

> <i_lp_mmshare_version>
53161

> <r_lp_tautomer_probability>
1

> <s_lp_Force_Field>
OPLS_2005

> <r_lp_Energy>
59.926384

> <b_lp_Chiralities_Consistent>
1

> <s_lp_Variant>
CHEMBL286_lig1537-1

> <s_i_glide_gridfile>
glide-grid_3g6z

> <i_i_glide_lignum>
5241

> <i_i_glide_rotatable_bonds>
12

> <r_i_docking_score>
-7.17104719468182

> <r_i_glide_ligand_efficiency>
-0.183873004991841

> <r_i_glide_ligand_efficiency_sa>
-0.62355223782826

> <r_i_glide_ligand_efficiency_ln>
-1.53767608081972

> <r_i_glide_gscore>
-7.17104719468182

> <r_i_glide_lipo>
-4.90913706692864

> <r_i_glide_hbond>
0

> <r_i_glide_metal>
0

> <r_i_glide_rewards>
-0.0889746205862665

> <r_i_glide_evdw>
-52.1349334716797

> <r_i_glide_ecoul>
-2.53372073173523

> <r_i_glide_erotb>
0.813869276177362

> <r_i_glide_esite>
0

> <r_i_glide_emodel>
-70.1895885300272

> <r_i_glide_energy>
-54.6686542034149

> <r_i_glide_einternal>
11.4629211425781

> <i_i_glide_confnum>
29

> <i_i_glide_posenum>
45

> <r_i_glide_eff_state_penalty>
0

> <s_user_duplicate_titles>
CHEMBL286_lig1537,325353

> <i_f3d_flags>
0

> <s_m_subgroup_title>
dock_pv

> <s_m_subgroupid>
dock_pv

> <b_m_subgroup_collapsed>
1

$$$$
CHEMBL286_lig2580
                    3D
 Schrodinger Suite 2021-1.
 76 78  0  0  1  0            999 V2000
   -7.3808  -13.1496   -8.1544 C   0  0  0  0  0  0
   -6.1129  -12.8743   -7.6202 C   0  0  0  0  0  0
   -5.0832  -13.8192   -7.7490 C   0  0  0  0  0  0
   -5.2977  -15.0033   -8.4479 C   0  0  0  0  0  0
   -6.5336  -15.2451   -9.0526 C   0  0  0  0  0  0
   -7.5845  -14.3422   -8.8630 C   0  0  0  0  0  0
   -5.9516  -11.6614   -6.9834 O   0  0  0  0  0  0
   -4.6431  -11.1512   -6.7657 C   0  0  0  0  0  0
   -8.3515  -12.1757   -7.9979 O   0  0  0  0  0  0
   -9.7225  -12.4646   -8.2598 C   0  0  0  0  0  0
  -10.5589  -11.1864   -8.0220 C   0  0  0  0  0  0
  -11.6646  -11.3502   -6.9658 C   0  0  0  0  0  0
  -12.4901  -12.4799   -7.2208 O   0  0  0  0  0  0
  -13.3721  -12.3491   -8.3240 C   0  0  0  0  0  0
   -6.7298  -16.4715   -9.8945 C   0  0  0  0  0  0
   -6.8661  -16.3349  -11.2481 N   0  0  0  0  0  0
   -6.8200  -17.5516   -9.3085 O   0  0  0  0  0  0
   -6.5654  -15.1465  -12.1003 C   0  0  0  0  0  0
   -5.3224  -14.3058  -11.7384 C   0  0  0  0  0  0
   -7.7951  -14.2515  -12.3578 C   0  0  0  0  0  0
   -7.4772  -17.4348  -12.0216 C   0  0  0  0  0  0
   -6.5171  -18.4729  -12.6709 C   0  0  2  0  0  0
   -6.1185  -19.6395  -11.7526 C   0  0  2  0  0  0
   -4.6130  -19.8069  -11.9940 C   0  0  0  0  0  0
   -4.2722  -19.0939  -13.2193 N   0  0  1  0  0  0
   -5.1812  -17.9602  -13.2292 C   0  0  0  0  0  0
   -6.8156  -20.8102  -12.1926 O   0  0  0  0  0  0
   -7.7224  -21.4296  -11.4093 C   0  0  0  0  0  0
   -8.3552  -22.4146  -12.1507 N   0  0  0  0  0  0
   -7.9422  -21.1609  -10.2262 O   0  0  0  0  0  0
   -9.3884  -23.2947  -11.6021 C   0  0  0  0  0  0
  -10.8168  -22.7922  -11.7988 C   0  0  0  0  0  0
  -11.7060  -23.5075  -12.6082 C   0  0  0  0  0  0
  -13.0339  -23.0993  -12.7143 C   0  0  0  0  0  0
  -13.4705  -21.9721  -12.0204 C   0  0  0  0  0  0
  -12.5894  -21.2505  -11.2202 C   0  0  0  0  0  0
  -11.2641  -21.6615  -11.1088 C   0  0  0  0  0  0
   -4.1105  -13.6457   -7.3190 H   0  0  0  0  0  0
   -4.4855  -15.7099   -8.5550 H   0  0  0  0  0  0
   -8.5463  -14.5650   -9.3007 H   0  0  0  0  0  0
   -4.7060  -10.1273   -6.3975 H   0  0  0  0  0  0
   -4.1063  -11.7335   -6.0215 H   0  0  0  0  0  0
   -4.0626  -11.1338   -7.6904 H   0  0  0  0  0  0
  -10.0537  -13.2663   -7.6039 H   0  0  0  0  0  0
   -9.8693  -12.8280   -9.2764 H   0  0  0  0  0  0
  -10.9986  -10.8482   -8.9609 H   0  0  0  0  0  0
   -9.9097  -10.3665   -7.7146 H   0  0  0  0  0  0
  -12.2682  -10.4448   -6.8791 H   0  0  0  0  0  0
  -11.1989  -11.4939   -5.9908 H   0  0  0  0  0  0
  -13.8690  -13.3040   -8.4821 H   0  0  0  0  0  0
  -12.8494  -12.1048   -9.2492 H   0  0  0  0  0  0
  -14.1348  -11.5912   -8.1402 H   0  0  0  0  0  0
   -6.3126  -15.5520  -13.0809 H   0  0  0  0  0  0
   -5.1018  -13.5996  -12.5399 H   0  0  0  0  0  0
   -5.4664  -13.6901  -10.8551 H   0  0  0  0  0  0
   -4.4365  -14.9255  -11.6050 H   0  0  0  0  0  0
   -7.5254  -13.3977  -12.9802 H   0  0  0  0  0  0
   -8.5809  -14.7803  -12.8983 H   0  0  0  0  0  0
   -8.2036  -13.8418  -11.4373 H   0  0  0  0  0  0
   -8.2236  -17.9669  -11.4263 H   0  0  0  0  0  0
   -8.0565  -16.9744  -12.8208 H   0  0  0  0  0  0
   -7.0690  -18.8798  -13.5205 H   0  0  0  0  0  0
   -6.3205  -19.4176  -10.7056 H   0  0  0  0  0  0
   -4.0793  -19.3204  -11.1739 H   0  0  0  0  0  0
   -4.2924  -20.8499  -11.9873 H   0  0  0  0  0  0
   -3.3152  -18.7650  -13.1794 H   0  0  0  0  0  0
   -5.3026  -17.5657  -14.2403 H   0  0  0  0  0  0
   -4.7703  -17.1498  -12.6261 H   0  0  0  0  0  0
   -8.1521  -22.4627  -13.1420 H   0  0  0  0  0  0
   -9.2673  -24.2801  -12.0521 H   0  0  0  0  0  0
   -9.2313  -23.4372  -10.5295 H   0  0  0  0  0  0
  -11.3788  -24.3939  -13.1370 H   0  0  0  0  0  0
  -13.7261  -23.6627  -13.3222 H   0  0  0  0  0  0
  -14.5024  -21.6621  -12.0884 H   0  0  0  0  0  0
  -12.9308  -20.3777  -10.6827 H   0  0  0  0  0  0
  -10.5913  -21.1108  -10.4692 H   0  0  0  0  0  0
  1  2  2  0  0  0
  1  6  1  0  0  0
  1  9  1  0  0  0
  2  3  1  0  0  0
  2  7  1  0  0  0
  3  4  2  0  0  0
  3 38  1  0  0  0
  4  5  1  0  0  0
  4 39  1  0  0  0
  5  6  2  0  0  0
  5 15  1  0  0  0
  6 40  1  0  0  0
  7  8  1  0  0  0
  8 41  1  0  0  0
  8 42  1  0  0  0
  8 43  1  0  0  0
  9 10  1  0  0  0
 10 11  1  0  0  0
 10 44  1  0  0  0
 10 45  1  0  0  0
 11 12  1  0  0  0
 11 46  1  0  0  0
 11 47  1  0  0  0
 12 13  1  0  0  0
 12 48  1  0  0  0
 12 49  1  0  0  0
 13 14  1  0  0  0
 14 50  1  0  0  0
 14 51  1  0  0  0
 14 52  1  0  0  0
 15 16  1  0  0  0
 15 17  2  0  0  0
 16 18  1  0  0  0
 16 21  1  0  0  0
 18 19  1  0  0  0
 18 20  1  0  0  0
 18 53  1  0  0  0
 19 54  1  0  0  0
 19 55  1  0  0  0
 19 56  1  0  0  0
 20 57  1  0  0  0
 20 58  1  0  0  0
 20 59  1  0  0  0
 21 22  1  0  0  0
 21 60  1  0  0  0
 21 61  1  0  0  0
 22 23  1  0  0  0
 22 26  1  0  0  0
 22 62  1  0  0  0
 23 24  1  0  0  0
 23 27  1  0  0  0
 23 63  1  0  0  0
 24 25  1  0  0  0
 24 64  1  0  0  0
 24 65  1  0  0  0
 25 26  1  0  0  0
 25 66  1  0  0  0
 26 67  1  0  0  0
 26 68  1  0  0  0
 27 28  1  0  0  0
 28 29  1  0  0  0
 28 30  2  0  0  0
 29 31  1  0  0  0
 29 69  1  0  0  0
 31 32  1  0  0  0
 31 70  1  0  0  0
 31 71  1  0  0  0
 32 33  2  0  0  0
 32 37  1  0  0  0
 33 34  1  0  0  0
 33 72  1  0  0  0
 34 35  2  0  0  0
 34 73  1  0  0  0
 35 36  1  0  0  0
 35 74  1  0  0  0
 36 37  2  0  0  0
 36 75  1  0  0  0
 37 76  1  0  0  0
M  END
> <s_m_entry_id>
26371

> <s_m_entry_name>
dock_pv.195

> <s_m_Source_Path>
/home/csk/Desktop/cluster/DUD-E-result/reni

> <s_m_Source_File>
dock_pv.maegz

> <i_m_Source_File_Index>
195

> <chembl_id>
CHEMBL3403996

> <chembl_pref_name>
None

> <i_lp_mmshare_version>
53161

> <r_lp_tautomer_probability>
1

> <s_lp_Force_Field>
OPLS_2005

> <r_lp_Energy>
59.438237

> <b_lp_Chiralities_Consistent>
1

> <s_lp_Variant>
CHEMBL286_lig2580-1

> <s_i_glide_gridfile>
glide-grid_3g6z

> <i_i_glide_lignum>
6645

> <i_i_glide_rotatable_bonds>
16

> <r_i_docking_score>
-7.16800706821764

> <r_i_glide_ligand_efficiency>
-0.193729920762639

> <r_i_glide_ligand_efficiency_sa>
-0.645551074505893

> <r_i_glide_ligand_efficiency_ln>
-1.55457269116877

> <r_i_glide_gscore>
-7.16800706821764

> <r_i_glide_lipo>
-3.82851193795611

> <r_i_glide_hbond>
-0.476367216255414

> <r_i_glide_metal>
0

> <r_i_glide_rewards>
-0.0710525341355063

> <r_i_glide_evdw>
-47.4190635681152

> <r_i_glide_ecoul>
-8.79061222076416

> <r_i_glide_erotb>
0.932818070289495

> <r_i_glide_esite>
-0.0353484386397122

> <r_i_glide_emodel>
-69.1899355767727

> <r_i_glide_energy>
-56.2096757888794

> <r_i_glide_einternal>
17.343807220459

> <i_i_glide_confnum>
75

> <i_i_glide_posenum>
161

> <r_i_glide_eff_state_penalty>
0

> <s_user_duplicate_titles>
CHEMBL286_lig2580

> <i_f3d_flags>
0

> <s_m_subgroup_title>
dock_pv

> <s_m_subgroupid>
dock_pv

> <b_m_subgroup_collapsed>
1

$$$$
CHEMBL286_lig1223
                    3D
 Schrodinger Suite 2021-1.
 95 97  0  0  1  0            999 V2000
   -7.6433  -20.0582  -11.2393 C   0  0  0  0  0  0
   -4.7287  -20.2185  -12.4211 C   0  0  0  0  0  0
   -3.1384  -20.8457   -9.5233 C   0  0  0  0  0  0
   -5.5197  -21.0744  -11.7500 N   0  0  0  0  0  0
   -8.2714  -19.1601  -12.0169 N   0  0  0  0  0  0
   -6.9556  -21.2256  -11.9695 C   0  0  1  0  0  0
   -9.4968  -22.9801  -12.8209 N   0  0  0  0  0  0
   -2.8047  -20.9046  -10.8677 N   0  0  0  0  0  0
   -3.3238  -19.9161  -11.8362 C   0  0  1  0  0  0
   -8.8673  -22.9200  -11.5929 C   0  0  0  0  0  0
   -8.6579  -17.7951  -11.6134 C   0  0  2  0  0  0
   -7.3997  -22.6039  -11.4331 C   0  0  0  0  0  0
  -11.0648  -23.4355  -11.3090 N   0  0  0  0  0  0
  -10.7796  -23.2857  -12.5963 C   0  0  0  0  0  0
   -2.5488  -21.8845   -8.8875 O   0  0  0  0  0  0
   -7.4032  -16.8623  -11.5573 C   0  0  2  0  0  0
   -9.8448  -23.2051  -10.6669 C   0  0  0  0  0  0
   -3.8731  -20.0095   -8.9960 O   0  0  0  0  0  0
   -5.0735  -19.6630  -13.4659 O   0  0  0  0  0  0
   -7.5318  -19.9763  -10.0163 O   0  0  0  0  0  0
   -2.2521  -19.6131  -12.9130 C   0  0  0  0  0  0
   -9.6094  -17.7112  -10.3784 C   0  0  0  0  0  0
   -7.8596  -14.7417   -9.6567 S   0  0  0  0  0  0
   -7.6766  -15.3487  -11.3663 C   0  0  0  0  0  0
   -2.6437  -22.1569   -7.4797 C   0  0  0  0  0  0
   -0.9090  -19.0863  -12.4200 C   0  0  0  0  0  0
   -6.6656  -16.9816  -12.7656 O   0  0  0  0  0  0
   -6.1526  -14.3175   -9.1748 C   0  0  0  0  0  0
  -11.0356  -18.3088  -10.5299 C   0  0  0  0  0  0
   -4.0999  -22.4823   -7.0680 C   0  0  0  0  0  0
   -2.0733  -20.9933   -6.6339 C   0  0  0  0  0  0
   -1.7618  -23.4055   -7.2830 C   0  0  0  0  0  0
   -0.8417  -17.9254  -11.6204 C   0  0  0  0  0  0
    0.2939  -19.7097  -12.8215 C   0  0  0  0  0  0
   -6.1882  -13.5824   -7.8162 C   0  0  0  0  0  0
   -5.2075  -15.5449   -9.1624 C   0  0  0  0  0  0
  -11.0620  -19.8423  -10.6907 C   0  0  0  0  0  0
  -11.8623  -17.6057  -11.6227 C   0  0  0  0  0  0
    1.5146  -19.1844  -12.4222 C   0  0  0  0  0  0
    0.3912  -17.4183  -11.2291 C   0  0  0  0  0  0
   -3.8143  -15.2198   -8.5869 C   0  0  0  0  0  0
   -4.7779  -13.2515   -7.2943 C   0  0  0  0  0  0
    1.5640  -18.0471  -11.6288 C   0  0  0  0  0  0
   -3.8986  -14.5136   -7.2211 C   0  0  0  0  0  0
   -5.1764  -21.4558  -10.8805 H   0  0  0  0  0  0
   -8.2705  -19.3124  -13.0160 H   0  0  0  0  0  0
   -7.1680  -21.1717  -13.0367 H   0  0  0  0  0  0
   -2.1836  -21.6361  -11.1859 H   0  0  0  0  0  0
   -3.4701  -18.9725  -11.3086 H   0  0  0  0  0  0
   -9.2551  -17.4015  -12.4250 H   0  0  0  0  0  0
   -6.8389  -23.3864  -11.9420 H   0  0  0  0  0  0
   -7.1517  -22.6902  -10.3739 H   0  0  0  0  0  0
   -9.0691  -22.8281  -13.7365 H   0  0  0  0  0  0
  -11.5117  -23.4064  -13.3810 H   0  0  0  0  0  0
   -6.7594  -17.2195  -10.7549 H   0  0  0  0  0  0
   -9.7617  -23.2604   -9.5946 H   0  0  0  0  0  0
   -2.6401  -18.8742  -13.6183 H   0  0  0  0  0  0
   -2.0744  -20.5153  -13.4996 H   0  0  0  0  0  0
   -9.1288  -18.1270   -9.4940 H   0  0  0  0  0  0
   -9.7660  -16.6618  -10.1320 H   0  0  0  0  0  0
   -6.8705  -14.7601  -11.8108 H   0  0  0  0  0  0
   -8.5654  -15.0667  -11.9296 H   0  0  0  0  0  0
   -7.2649  -17.2630  -13.4762 H   0  0  0  0  0  0
   -5.7931  -13.6180   -9.9318 H   0  0  0  0  0  0
  -11.5509  -18.0812   -9.5978 H   0  0  0  0  0  0
   -4.5231  -23.2649   -7.6990 H   0  0  0  0  0  0
   -4.1516  -22.8248   -6.0354 H   0  0  0  0  0  0
   -4.7522  -21.6125   -7.1522 H   0  0  0  0  0  0
   -1.0740  -20.7170   -6.9700 H   0  0  0  0  0  0
   -2.6933  -20.0980   -6.6934 H   0  0  0  0  0  0
   -2.0046  -21.2645   -5.5791 H   0  0  0  0  0  0
   -0.7314  -23.2154   -7.5859 H   0  0  0  0  0  0
   -1.7442  -23.7250   -6.2391 H   0  0  0  0  0  0
   -2.1194  -24.2462   -7.8787 H   0  0  0  0  0  0
   -1.7431  -17.4163  -11.3145 H   0  0  0  0  0  0
    0.2739  -20.5930  -13.4440 H   0  0  0  0  0  0
   -6.7700  -12.6625   -7.9000 H   0  0  0  0  0  0
   -6.6948  -14.2073   -7.0786 H   0  0  0  0  0  0
   -5.6549  -16.3470   -8.5727 H   0  0  0  0  0  0
   -5.0721  -15.9264  -10.1727 H   0  0  0  0  0  0
  -10.7144  -20.1611  -11.6695 H   0  0  0  0  0  0
  -10.4218  -20.3366   -9.9603 H   0  0  0  0  0  0
  -12.0715  -20.2406  -10.5713 H   0  0  0  0  0  0
  -11.3949  -17.6628  -12.6001 H   0  0  0  0  0  0
  -12.8451  -18.0626  -11.7240 H   0  0  0  0  0  0
  -12.0014  -16.5482  -11.3936 H   0  0  0  0  0  0
    2.4285  -19.6630  -12.7312 H   0  0  0  0  0  0
    0.4374  -16.5345  -10.6085 H   0  0  0  0  0  0
   -3.2721  -14.5826   -9.2896 H   0  0  0  0  0  0
   -3.2296  -16.1367   -8.4964 H   0  0  0  0  0  0
   -4.3073  -12.5174   -7.9512 H   0  0  0  0  0  0
   -4.8450  -12.7797   -6.3160 H   0  0  0  0  0  0
    2.5209  -17.6519  -11.3215 H   0  0  0  0  0  0
   -2.8992  -14.2561   -6.8678 H   0  0  0  0  0  0
   -4.3138  -15.2011   -6.4791 H   0  0  0  0  0  0
  1  5  1  0  0  0
  1  6  1  0  0  0
  1 20  2  0  0  0
  2  4  1  0  0  0
  2  9  1  0  0  0
  2 19  2  0  0  0
  3  8  1  0  0  0
  3 15  1  0  0  0
  3 18  2  0  0  0
  4  6  1  0  0  0
  4 45  1  0  0  0
  5 11  1  0  0  0
  5 46  1  0  0  0
  6 12  1  0  0  0
  6 47  1  0  0  0
  7 10  1  0  0  0
  7 53  1  0  0  0
  7 14  1  0  0  0
  8  9  1  0  0  0
  8 48  1  0  0  0
  9 21  1  0  0  0
  9 49  1  0  0  0
 10 17  2  0  0  0
 10 12  1  0  0  0
 11 16  1  0  0  0
 11 22  1  0  0  0
 11 50  1  0  0  0
 12 51  1  0  0  0
 12 52  1  0  0  0
 13 14  2  0  0  0
 13 17  1  0  0  0
 14 54  1  0  0  0
 15 25  1  0  0  0
 16 24  1  0  0  0
 16 27  1  0  0  0
 16 55  1  0  0  0
 17 56  1  0  0  0
 21 26  1  0  0  0
 21 57  1  0  0  0
 21 58  1  0  0  0
 22 29  1  0  0  0
 22 59  1  0  0  0
 22 60  1  0  0  0
 23 24  1  0  0  0
 23 28  1  0  0  0
 24 61  1  0  0  0
 24 62  1  0  0  0
 25 30  1  0  0  0
 25 31  1  0  0  0
 25 32  1  0  0  0
 26 33  1  0  0  0
 26 34  2  0  0  0
 27 63  1  0  0  0
 28 35  1  0  0  0
 28 36  1  0  0  0
 28 64  1  0  0  0
 29 37  1  0  0  0
 29 38  1  0  0  0
 29 65  1  0  0  0
 30 66  1  0  0  0
 30 67  1  0  0  0
 30 68  1  0  0  0
 31 69  1  0  0  0
 31 70  1  0  0  0
 31 71  1  0  0  0
 32 72  1  0  0  0
 32 73  1  0  0  0
 32 74  1  0  0  0
 33 40  2  0  0  0
 33 75  1  0  0  0
 34 39  1  0  0  0
 34 76  1  0  0  0
 35 42  1  0  0  0
 35 77  1  0  0  0
 35 78  1  0  0  0
 36 41  1  0  0  0
 36 79  1  0  0  0
 36 80  1  0  0  0
 37 81  1  0  0  0
 37 82  1  0  0  0
 37 83  1  0  0  0
 38 84  1  0  0  0
 38 85  1  0  0  0
 38 86  1  0  0  0
 39 43  2  0  0  0
 39 87  1  0  0  0
 40 43  1  0  0  0
 40 88  1  0  0  0
 41 44  1  0  0  0
 41 89  1  0  0  0
 41 90  1  0  0  0
 42 44  1  0  0  0
 42 91  1  0  0  0
 42 92  1  0  0  0
 43 93  1  0  0  0
 44 94  1  0  0  0
 44 95  1  0  0  0
M  END
> <s_m_entry_id>
26372

> <s_m_entry_name>
dock_pv.196

> <s_m_Source_Path>
/home/csk/Desktop/cluster/DUD-E-result/reni

> <s_m_Source_File>
dock_pv.maegz

> <i_m_Source_File_Index>
196

> <chembl_id>
CHEMBL3350696

> <chembl_pref_name>
None

> <i_lp_mmshare_version>
53161

> <r_lp_tautomer_probability>
0.499999999999999

> <s_lp_Force_Field>
OPLS_2005

> <r_lp_Energy>
21.063298

> <b_lp_Chiralities_Consistent>
1

> <s_lp_Variant>
CHEMBL286_lig1223-2

> <s_i_glide_gridfile>
glide-grid_3g6z

> <i_i_glide_lignum>
3960

> <i_i_glide_rotatable_bonds>
21

> <r_i_docking_score>
-7.15926269625944

> <r_i_glide_ligand_efficiency>
-0.162710515824078

> <r_i_glide_ligand_efficiency_sa>
-0.574424797955002

> <r_i_glide_ligand_efficiency_ln>
-1.49644208195736

> <r_i_glide_gscore>
-7.15926269625944

> <r_i_glide_lipo>
-2.34089917691445

> <r_i_glide_hbond>
-0.586266045298323

> <r_i_glide_metal>
0

> <r_i_glide_rewards>
-0.272883863510279

> <r_i_glide_evdw>
-46.6578636169434

> <r_i_glide_ecoul>
-14.4522180557251

> <r_i_glide_erotb>
0.661017672605955

> <r_i_glide_esite>
-0.119505393936406

> <r_i_glide_emodel>
-82.4036290558485

> <r_i_glide_energy>
-61.1100816726685

> <r_i_glide_einternal>
12.386923789978

> <i_i_glide_confnum>
104

> <i_i_glide_posenum>
264

> <r_i_glide_eff_state_penalty>
0

> <s_user_duplicate_titles>
CHEMBL286_lig1223

> <i_f3d_flags>
0

> <s_m_subgroup_title>
dock_pv

> <s_m_subgroupid>
dock_pv

> <b_m_subgroup_collapsed>
1

$$$$
CHEMBL286_lig2830
                    3D
 Schrodinger Suite 2021-1.
 78 81  0  0  1  0            999 V2000
   -4.9984  -15.7135  -11.0600 C   0  0  0  0  0  0
   -4.2069  -16.4849  -12.0206 N   0  0  1  0  0  0
   -4.9792  -17.5657  -12.6157 C   0  0  0  0  0  0
   -5.3185  -18.5580  -11.4816 C   0  0  1  0  0  0
   -6.3640  -17.9405  -10.5259 C   0  0  0  0  0  0
   -5.9225  -16.5081  -10.0724 C   0  0  2  0  0  0
   -6.9680  -15.6998   -9.3843 N   0  0  0  0  0  0
   -5.6241  -19.9869  -11.9985 C   0  0  0  0  0  0
   -6.7548  -20.4377  -11.8091 O   0  0  0  0  0  0
   -4.7053  -20.6600  -12.7492 N   0  0  0  0  0  0
   -8.1218  -15.3783  -10.0293 C   0  0  0  0  0  0
   -6.6504  -15.2075   -8.0294 C   0  0  0  0  0  0
   -6.3612  -13.6839   -7.9518 C   0  0  0  0  0  0
   -5.2528  -13.2228   -8.9060 C   0  0  0  0  0  0
   -5.9846  -13.2766   -6.5340 C   0  0  0  0  0  0
   -8.2653  -15.5126  -11.2466 O   0  0  0  0  0  0
   -3.2530  -20.4189  -12.6261 C   0  0  0  0  0  0
   -2.7069  -21.4838  -11.6418 C   0  0  0  0  0  0
   -3.0261  -22.7990  -12.1111 O   0  0  0  0  0  0
   -4.4319  -23.0253  -12.2752 C   0  0  0  0  0  0
   -5.0261  -22.0036  -13.2753 C   0  0  0  0  0  0
  -10.2511  -17.3701   -9.2555 C   0  0  0  0  0  0
  -11.0308  -17.5078  -10.5750 C   0  0  0  0  0  0
  -10.6723  -18.7488  -11.3948 C   0  0  0  0  0  0
  -11.4391  -20.0258  -11.0365 C   0  0  0  0  0  0
  -12.8302  -19.7912  -11.2209 O   0  0  0  0  0  0
  -13.6285  -20.9444  -11.0425 C   0  0  0  0  0  0
   -9.2897  -15.0340   -9.2371 C   0  0  0  0  0  0
  -10.2496  -15.9640   -8.8657 N   0  0  0  0  0  0
   -9.7228  -13.7858   -8.8205 C   0  0  0  0  0  0
  -11.0234  -13.9281   -8.2465 C   0  0  0  0  0  0
  -11.3379  -15.3181   -8.2948 C   0  0  0  0  0  0
  -12.5623  -15.8116   -7.8283 C   0  0  0  0  0  0
  -13.4527  -14.8919   -7.2834 C   0  0  0  0  0  0
  -13.1593  -13.5320   -7.2194 C   0  0  0  0  0  0
  -11.9527  -13.0335   -7.7005 C   0  0  0  0  0  0
   -5.5940  -15.0032  -11.6297 H   0  0  0  0  0  0
   -4.2621  -15.1479  -10.4933 H   0  0  0  0  0  0
   -3.8729  -15.8475  -12.7472 H   0  0  0  0  0  0
   -5.8995  -17.1593  -13.0456 H   0  0  0  0  0  0
   -4.4352  -18.0121  -13.4501 H   0  0  0  0  0  0
   -4.4264  -18.7542  -10.8852 H   0  0  0  0  0  0
   -6.4947  -18.5494   -9.6286 H   0  0  0  0  0  0
   -7.2826  -17.8301  -11.1053 H   0  0  0  0  0  0
   -5.2038  -16.7071   -9.2760 H   0  0  0  0  0  0
   -7.4675  -15.4648   -7.3564 H   0  0  0  0  0  0
   -5.7888  -15.7426   -7.6304 H   0  0  0  0  0  0
   -7.2572  -13.1303   -8.1949 H   0  0  0  0  0  0
   -4.3438  -13.8074   -8.7796 H   0  0  0  0  0  0
   -5.5679  -13.2684   -9.9498 H   0  0  0  0  0  0
   -4.9924  -12.1836   -8.6891 H   0  0  0  0  0  0
   -4.9571  -13.6257   -6.4212 H   0  0  0  0  0  0
   -5.9823  -12.1933   -6.4053 H   0  0  0  0  0  0
   -6.6688  -13.7061   -5.7915 H   0  0  0  0  0  0
   -2.8514  -20.6306  -13.6199 H   0  0  0  0  0  0
   -2.9462  -19.3895  -12.4346 H   0  0  0  0  0  0
   -3.1078  -21.3287  -10.6412 H   0  0  0  0  0  0
   -1.6248  -21.3817  -11.5424 H   0  0  0  0  0  0
   -4.9352  -22.9746  -11.3085 H   0  0  0  0  0  0
   -4.5934  -24.0427  -12.6364 H   0  0  0  0  0  0
   -6.0729  -22.1490  -13.5580 H   0  0  0  0  0  0
   -4.4812  -22.0795  -14.2212 H   0  0  0  0  0  0
  -10.6707  -17.9613   -8.4521 H   0  0  0  0  0  0
   -9.2221  -17.7148   -9.3536 H   0  0  0  0  0  0
  -10.8214  -16.6412  -11.2057 H   0  0  0  0  0  0
  -12.1030  -17.4635  -10.3901 H   0  0  0  0  0  0
   -9.5959  -18.9225  -11.3848 H   0  0  0  0  0  0
  -10.9071  -18.4978  -12.4187 H   0  0  0  0  0  0
  -11.2120  -20.3341  -10.0211 H   0  0  0  0  0  0
  -11.1024  -20.8347  -11.6852 H   0  0  0  0  0  0
  -14.6690  -20.7073  -11.2588 H   0  0  0  0  0  0
  -13.5661  -21.2653  -10.0068 H   0  0  0  0  0  0
  -13.3253  -21.7697  -11.6943 H   0  0  0  0  0  0
   -9.1935  -12.8639   -8.9722 H   0  0  0  0  0  0
  -12.8214  -16.8572   -7.8856 H   0  0  0  0  0  0
  -14.3933  -15.2645   -6.9078 H   0  0  0  0  0  0
  -13.8729  -12.8465   -6.7897 H   0  0  0  0  0  0
  -11.7412  -11.9757   -7.6458 H   0  0  0  0  0  0
  1  2  1  0  0  0
  1  6  1  0  0  0
  1 37  1  0  0  0
  1 38  1  0  0  0
  2  3  1  0  0  0
  2 39  1  0  0  0
  3  4  1  0  0  0
  3 40  1  0  0  0
  3 41  1  0  0  0
  4  5  1  0  0  0
  4  8  1  0  0  0
  4 42  1  0  0  0
  5  6  1  0  0  0
  5 43  1  0  0  0
  5 44  1  0  0  0
  6  7  1  0  0  0
  6 45  1  0  0  0
  7 11  1  0  0  0
  7 12  1  0  0  0
  8  9  2  0  0  0
  8 10  1  0  0  0
 10 17  1  0  0  0
 10 21  1  0  0  0
 11 16  2  0  0  0
 11 28  1  0  0  0
 12 13  1  0  0  0
 12 46  1  0  0  0
 12 47  1  0  0  0
 13 14  1  0  0  0
 13 15  1  0  0  0
 13 48  1  0  0  0
 14 49  1  0  0  0
 14 50  1  0  0  0
 14 51  1  0  0  0
 15 52  1  0  0  0
 15 53  1  0  0  0
 15 54  1  0  0  0
 17 18  1  0  0  0
 17 55  1  0  0  0
 17 56  1  0  0  0
 18 19  1  0  0  0
 18 57  1  0  0  0
 18 58  1  0  0  0
 19 20  1  0  0  0
 20 21  1  0  0  0
 20 59  1  0  0  0
 20 60  1  0  0  0
 21 61  1  0  0  0
 21 62  1  0  0  0
 22 29  1  0  0  0
 22 23  1  0  0  0
 22 63  1  0  0  0
 22 64  1  0  0  0
 23 24  1  0  0  0
 23 65  1  0  0  0
 23 66  1  0  0  0
 24 25  1  0  0  0
 24 67  1  0  0  0
 24 68  1  0  0  0
 25 26  1  0  0  0
 25 69  1  0  0  0
 25 70  1  0  0  0
 26 27  1  0  0  0
 27 71  1  0  0  0
 27 72  1  0  0  0
 27 73  1  0  0  0
 28 29  1  0  0  0
 28 30  2  0  0  0
 29 32  1  0  0  0
 30 31  1  0  0  0
 30 74  1  0  0  0
 31 32  2  0  0  0
 31 36  1  0  0  0
 32 33  1  0  0  0
 33 34  2  0  0  0
 33 75  1  0  0  0
 34 35  1  0  0  0
 34 76  1  0  0  0
 35 36  2  0  0  0
 35 77  1  0  0  0
 36 78  1  0  0  0
M  END
> <s_m_entry_id>
26373

> <s_m_entry_name>
dock_pv.197

> <s_m_Source_Path>
/home/csk/Desktop/cluster/DUD-E-result/reni

> <s_m_Source_File>
dock_pv.maegz

> <i_m_Source_File_Index>
197

> <chembl_id>
CHEMBL4129207

> <chembl_pref_name>
None

> <i_lp_mmshare_version>
53161

> <r_lp_tautomer_probability>
1

> <s_lp_Force_Field>
OPLS_2005

> <r_lp_Energy>
67.248554

> <b_lp_Chiralities_Consistent>
1

> <s_lp_Variant>
CHEMBL286_lig2830-1

> <s_i_glide_gridfile>
glide-grid_3g6z

> <i_i_glide_lignum>
6928

> <i_i_glide_rotatable_bonds>
12

> <r_i_docking_score>
-7.15181860131013

> <r_i_glide_ligand_efficiency>
-0.19866162781417

> <r_i_glide_ligand_efficiency_sa>
-0.655966241405816

> <r_i_glide_ligand_efficiency_ln>
-1.56033359899656

> <r_i_glide_gscore>
-7.15181860131013

> <r_i_glide_lipo>
-3.48406548203757

> <r_i_glide_hbond>
-0.608

> <r_i_glide_metal>
0

> <r_i_glide_rewards>
-0.99939449300877

> <r_i_glide_evdw>
-37.0925216674805

> <r_i_glide_ecoul>
-6.63582229614258

> <r_i_glide_erotb>
0.820701700304955

> <r_i_glide_esite>
-0.0310608987733362

> <r_i_glide_emodel>
-51.6349122121549

> <r_i_glide_energy>
-43.728343963623

> <r_i_glide_einternal>
17.6754245758057

> <i_i_glide_confnum>
86

> <i_i_glide_posenum>
241

> <r_i_glide_eff_state_penalty>
0

> <s_user_duplicate_titles>
CHEMBL286_lig2830

> <i_f3d_flags>
0

> <s_m_subgroup_title>
dock_pv

> <s_m_subgroupid>
dock_pv

> <b_m_subgroup_collapsed>
1

$$$$
CHEMBL286_lig2805
                    3D
 Schrodinger Suite 2021-1.
 46 48  0  0  1  0            999 V2000
   -5.0757  -13.9332  -10.9979 C   0  0  0  0  0  0
   -5.2852  -13.6798   -9.6453 C   0  0  0  0  0  0
   -6.4915  -14.0837   -9.0587 C   0  0  0  0  0  0
   -7.4716  -14.7310   -9.8443 C   0  0  0  0  0  0
   -7.1532  -14.9505  -11.2049 C   0  0  0  0  0  0
   -5.9858  -14.5579  -11.7698 N   0  0  0  0  0  0
   -3.8929  -13.5593  -11.6209 N   0  0  0  0  0  0
   -8.0686  -15.6634  -12.1899 C   0  0  0  0  0  0
   -6.6756  -13.8608   -7.5648 C   0  0  0  0  0  0
   -9.7827  -12.9183   -8.7190 N   0  0  0  0  0  0
  -11.0096  -12.4358   -8.3359 C   0  0  0  0  0  0
  -11.8231  -13.5267   -8.0513 C   0  0  0  0  0  0
  -11.0691  -14.7064   -8.4012 C   0  0  0  0  0  0
  -11.3535  -16.0820   -8.3978 C   0  0  0  0  0  0
  -10.3691  -16.9776   -8.8127 C   0  0  0  0  0  0
   -9.1218  -16.5342   -9.2373 C   0  0  0  0  0  0
   -8.7809  -15.1796   -9.2743 C   0  0  0  0  0  0
   -9.7725  -14.2859   -8.8211 C   0  0  0  0  0  0
  -13.2402  -13.5200   -7.5263 C   0  0  0  0  0  0
  -11.2926  -10.9400   -8.3835 C   0  0  0  0  0  0
  -10.2053  -10.0273   -7.7696 C   0  0  0  0  0  0
  -10.2795   -9.9442   -6.3525 O   0  0  0  0  0  0
  -11.2734   -9.0398   -5.8849 C   0  0  0  0  0  0
   -4.5220  -13.1901   -9.0589 H   0  0  0  0  0  0
   -3.1380  -13.1615  -11.0845 H   0  0  0  0  0  0
   -3.7584  -13.8668  -12.5802 H   0  0  0  0  0  0
   -9.1030  -15.6636  -11.8681 H   0  0  0  0  0  0
   -8.0412  -15.1890  -13.1719 H   0  0  0  0  0  0
   -7.7548  -16.7001  -12.3131 H   0  0  0  0  0  0
   -5.7317  -13.6420   -7.0641 H   0  0  0  0  0  0
   -7.3735  -13.0473   -7.3705 H   0  0  0  0  0  0
   -7.0680  -14.7653   -7.1020 H   0  0  0  0  0  0
   -9.0184  -12.3055   -8.9569 H   0  0  0  0  0  0
  -12.3228  -16.4422   -8.0844 H   0  0  0  0  0  0
  -10.5732  -18.0382   -8.8284 H   0  0  0  0  0  0
   -8.4013  -17.2653   -9.5761 H   0  0  0  0  0  0
  -13.8692  -14.1919   -8.1055 H   0  0  0  0  0  0
  -13.2818  -13.8616   -6.4917 H   0  0  0  0  0  0
  -13.7021  -12.5336   -7.5589 H   0  0  0  0  0  0
  -12.2695  -10.6975   -7.9699 H   0  0  0  0  0  0
  -11.3613  -10.6810   -9.4403 H   0  0  0  0  0  0
  -10.2649   -9.0265   -8.2036 H   0  0  0  0  0  0
   -9.2088  -10.3890   -8.0202 H   0  0  0  0  0  0
  -11.1583   -8.9015   -4.8133 H   0  0  0  0  0  0
  -12.2813   -9.4115   -6.0699 H   0  0  0  0  0  0
  -11.1766   -8.0535   -6.3424 H   0  0  0  0  0  0
  1  2  1  0  0  0
  1  6  2  0  0  0
  1  7  1  0  0  0
  2  3  2  0  0  0
  2 24  1  0  0  0
  3  4  1  0  0  0
  3  9  1  0  0  0
  4  5  2  0  0  0
  4 17  1  0  0  0
  5  6  1  0  0  0
  5  8  1  0  0  0
  7 25  1  0  0  0
  7 26  1  0  0  0
  8 27  1  0  0  0
  8 28  1  0  0  0
  8 29  1  0  0  0
  9 30  1  0  0  0
  9 31  1  0  0  0
  9 32  1  0  0  0
 10 11  1  0  0  0
 10 18  1  0  0  0
 10 33  1  0  0  0
 11 12  2  0  0  0
 11 20  1  0  0  0
 12 13  1  0  0  0
 12 19  1  0  0  0
 13 14  1  0  0  0
 13 18  2  0  0  0
 14 15  2  0  0  0
 14 34  1  0  0  0
 15 16  1  0  0  0
 15 35  1  0  0  0
 16 17  2  0  0  0
 16 36  1  0  0  0
 17 18  1  0  0  0
 19 37  1  0  0  0
 19 38  1  0  0  0
 19 39  1  0  0  0
 20 21  1  0  0  0
 20 40  1  0  0  0
 20 41  1  0  0  0
 21 22  1  0  0  0
 21 42  1  0  0  0
 21 43  1  0  0  0
 22 23  1  0  0  0
 23 44  1  0  0  0
 23 45  1  0  0  0
 23 46  1  0  0  0
M  END
> <s_m_entry_id>
26374

> <s_m_entry_name>
dock_pv.198

> <s_m_Source_Path>
/home/csk/Desktop/cluster/DUD-E-result/reni

> <s_m_Source_File>
dock_pv.maegz

> <i_m_Source_File_Index>
198

> <chembl_id>
CHEMBL4071636

> <chembl_pref_name>
None

> <i_lp_mmshare_version>
53161

> <r_lp_tautomer_probability>
0.999999772200052

> <s_lp_Force_Field>
OPLS_2005

> <r_lp_Energy>
9.191923

> <b_lp_Chiralities_Consistent>
1

> <s_lp_Variant>
CHEMBL286_lig2805-1

> <s_i_glide_gridfile>
glide-grid_3g6z

> <i_i_glide_lignum>
6903

> <i_i_glide_rotatable_bonds>
4

> <r_i_docking_score>
-7.14623617473851

> <r_i_glide_ligand_efficiency>
-0.310705920640805

> <r_i_glide_ligand_efficiency_sa>
-0.883606307231252

> <r_i_glide_ligand_efficiency_ln>
-1.72802470553883

> <r_i_glide_gscore>
-7.14623617473851

> <r_i_glide_lipo>
-3.44714957314892

> <r_i_glide_hbond>
-0.32

> <r_i_glide_metal>
0

> <r_i_glide_rewards>
-1.99566522681504

> <r_i_glide_evdw>
-31.3034934997559

> <r_i_glide_ecoul>
-2.5090000629425

> <r_i_glide_erotb>
0.580237554491011

> <r_i_glide_esite>
-0.0221342448363932

> <r_i_glide_emodel>
-45.5567023014278

> <r_i_glide_energy>
-33.8124935626984

> <r_i_glide_einternal>
3.89131355285645

> <i_i_glide_confnum>
35

> <i_i_glide_posenum>
212

> <r_i_glide_eff_state_penalty>
0

> <s_user_duplicate_titles>
CHEMBL286_lig2805

> <i_f3d_flags>
0

> <s_m_subgroup_title>
dock_pv

> <s_m_subgroupid>
dock_pv

> <b_m_subgroup_collapsed>
1

$$$$
CHEMBL286_lig1536
                    3D
 Schrodinger Suite 2021-1.
 73 77  0  0  1  0            999 V2000
   -3.7794  -19.3437  -11.6700 N   0  0  0  0  0  0
   -3.3352  -20.6242  -11.8841 C   0  0  0  0  0  0
   -2.8940  -18.1343  -11.6907 C   0  0  1  0  0  0
   -5.1595  -19.0993  -11.4699 C   0  0  0  0  0  0
   -1.1469  -19.7066  -12.5831 N   0  0  2  0  0  0
  -12.0918  -13.9244   -8.1687 C   0  0  0  0  0  0
   -4.0326  -13.3858   -8.5738 C   0  0  0  0  0  0
   -4.0801  -21.6024  -11.9915 O   0  0  0  0  0  0
   -3.7397  -14.6315   -9.1859 C   0  0  0  0  0  0
   -3.0991  -17.1150  -10.5434 C   0  0  0  0  0  0
  -10.8271  -13.3340   -8.3445 C   0  0  0  0  0  0
   -3.4036  -12.2017   -9.0669 C   0  0  0  0  0  0
   -5.8390  -18.1771  -12.2730 C   0  0  0  0  0  0
   -5.8374  -19.7268  -10.4126 C   0  0  0  0  0  0
   -2.4977  -15.8784  -10.9197 O   0  0  0  0  0  0
   -2.5277  -12.3012  -10.1744 C   0  0  0  0  0  0
   -2.8521  -14.7107  -10.2704 C   0  0  0  0  0  0
   -1.8044  -20.8183  -11.9046 C   0  0  0  0  0  0
   -1.3861  -18.4529  -11.8903 C   0  0  0  0  0  0
   -7.8615  -18.5350  -10.9835 C   0  0  0  0  0  0
   -2.2685  -13.5417  -10.7509 C   0  0  0  0  0  0
   -7.1747  -17.8878  -12.0206 C   0  0  0  0  0  0
   -7.1797  -19.4476  -10.1799 C   0  0  0  0  0  0
   -9.8009  -14.1356   -8.8182 O   0  0  0  0  0  0
  -11.4526  -17.6981  -11.1429 C   0  0  0  0  0  0
   -9.1926  -18.3351  -10.6864 O   0  0  0  0  0  0
  -12.2779  -15.4266   -8.3283 C   0  0  0  0  0  0
  -11.8671  -15.8589   -9.6198 O   0  0  0  0  0  0
  -13.1796  -13.1434   -7.7561 C   0  0  0  0  0  0
   -4.9232  -13.2846   -7.4771 C   0  0  0  0  0  0
   -9.9837  -17.5044  -11.5318 C   0  0  0  0  0  0
  -11.7606  -17.2714   -9.7013 C   0  0  0  0  0  0
  -10.6694  -11.9757   -8.0212 C   0  0  0  0  0  0
   -3.6618  -10.9646   -8.4265 C   0  0  0  0  0  0
   -8.4749  -13.6245   -8.8913 C   0  0  0  0  0  0
  -13.0165  -11.7878   -7.4877 C   0  0  0  0  0  0
   -5.1564  -12.0555   -6.8669 C   0  0  0  0  0  0
  -11.7559  -11.2086   -7.6033 C   0  0  0  0  0  0
   -4.5149  -10.9063   -7.3264 C   0  0  0  0  0  0
   -3.2038  -17.6211  -12.6001 H   0  0  0  0  0  0
   -1.3279  -19.6749  -13.5770 H   0  0  0  0  0  0
   -4.2104  -15.5133   -8.7790 H   0  0  0  0  0  0
   -4.1677  -16.9685  -10.3834 H   0  0  0  0  0  0
   -2.6765  -17.4774   -9.6048 H   0  0  0  0  0  0
   -5.3439  -17.6726  -13.0904 H   0  0  0  0  0  0
   -5.3242  -20.4258   -9.7702 H   0  0  0  0  0  0
   -2.0489  -11.4147  -10.5643 H   0  0  0  0  0  0
   -1.4693  -20.8991  -10.8703 H   0  0  0  0  0  0
   -1.5526  -21.7613  -12.3937 H   0  0  0  0  0  0
   -0.9037  -18.5226  -10.9150 H   0  0  0  0  0  0
   -0.8972  -17.6368  -12.4201 H   0  0  0  0  0  0
   -1.5907  -13.6074  -11.5888 H   0  0  0  0  0  0
   -7.6683  -17.1665  -12.6551 H   0  0  0  0  0  0
   -7.6985  -19.9432   -9.3736 H   0  0  0  0  0  0
  -11.7027  -18.7517  -11.2689 H   0  0  0  0  0  0
  -12.0919  -17.1517  -11.8369 H   0  0  0  0  0  0
  -11.6803  -15.9086   -7.5515 H   0  0  0  0  0  0
  -13.3188  -15.7162   -8.1602 H   0  0  0  0  0  0
  -14.1547  -13.5875   -7.6212 H   0  0  0  0  0  0
   -5.4159  -14.1716   -7.1053 H   0  0  0  0  0  0
   -9.8686  -17.7939  -12.5755 H   0  0  0  0  0  0
   -9.6875  -16.4580  -11.4336 H   0  0  0  0  0  0
  -10.9941  -17.6461   -9.0195 H   0  0  0  0  0  0
  -12.6918  -17.7289   -9.3850 H   0  0  0  0  0  0
   -9.7081  -11.4898   -8.0847 H   0  0  0  0  0  0
   -3.1815  -10.0675   -8.7862 H   0  0  0  0  0  0
   -7.7968  -14.4391   -9.1480 H   0  0  0  0  0  0
   -8.3770  -12.8640   -9.6657 H   0  0  0  0  0  0
   -8.1366  -13.2125   -7.9400 H   0  0  0  0  0  0
  -13.8562  -11.1901   -7.1684 H   0  0  0  0  0  0
   -5.8272  -11.9958   -6.0220 H   0  0  0  0  0  0
  -11.6263  -10.1599   -7.3708 H   0  0  0  0  0  0
   -4.6725   -9.9621   -6.8269 H   0  0  0  0  0  0
  1  2  1  0  0  0
  1  3  1  0  0  0
  1  4  1  0  0  0
  2  8  2  0  0  0
  2 18  1  0  0  0
  3 10  1  0  0  0
  3 19  1  0  0  0
  3 40  1  0  0  0
  4 13  2  0  0  0
  4 14  1  0  0  0
  5 19  1  0  0  0
  5 18  1  0  0  0
  5 41  1  0  0  0
  6 27  1  0  0  0
  6 11  2  0  0  0
  6 29  1  0  0  0
  7  9  2  0  0  0
  7 30  1  0  0  0
  7 12  1  0  0  0
  9 17  1  0  0  0
  9 42  1  0  0  0
 10 15  1  0  0  0
 10 43  1  0  0  0
 10 44  1  0  0  0
 11 24  1  0  0  0
 11 33  1  0  0  0
 12 16  2  0  0  0
 12 34  1  0  0  0
 13 22  1  0  0  0
 13 45  1  0  0  0
 14 23  2  0  0  0
 14 46  1  0  0  0
 15 17  1  0  0  0
 16 21  1  0  0  0
 16 47  1  0  0  0
 17 21  2  0  0  0
 18 48  1  0  0  0
 18 49  1  0  0  0
 19 50  1  0  0  0
 19 51  1  0  0  0
 20 23  1  0  0  0
 20 26  1  0  0  0
 20 22  2  0  0  0
 21 52  1  0  0  0
 22 53  1  0  0  0
 23 54  1  0  0  0
 24 35  1  0  0  0
 25 31  1  0  0  0
 25 32  1  0  0  0
 25 55  1  0  0  0
 25 56  1  0  0  0
 26 31  1  0  0  0
 27 28  1  0  0  0
 27 57  1  0  0  0
 27 58  1  0  0  0
 28 32  1  0  0  0
 29 36  2  0  0  0
 29 59  1  0  0  0
 30 37  2  0  0  0
 30 60  1  0  0  0
 31 61  1  0  0  0
 31 62  1  0  0  0
 32 63  1  0  0  0
 32 64  1  0  0  0
 33 38  2  0  0  0
 33 65  1  0  0  0
 34 39  2  0  0  0
 34 66  1  0  0  0
 35 67  1  0  0  0
 35 68  1  0  0  0
 35 69  1  0  0  0
 36 38  1  0  0  0
 36 70  1  0  0  0
 37 39  1  0  0  0
 37 71  1  0  0  0
 38 72  1  0  0  0
 39 73  1  0  0  0
M  END
> <s_m_entry_id>
26375

> <s_m_entry_name>
dock_pv.199

> <s_m_Source_Path>
/home/csk/Desktop/cluster/DUD-E-result/reni

> <s_m_Source_File>
dock_pv.maegz

> <i_m_Source_File_Index>
199

> <chembl_id>
CHEMBL371426

> <chembl_pref_name>
None

> <i_lp_mmshare_version>
53161

> <r_lp_tautomer_probability>
1

> <s_lp_Force_Field>
OPLS_2005

> <r_lp_Energy>
60.223578

> <b_lp_Chiralities_Consistent>
1

> <s_lp_Variant>
CHEMBL286_lig1536-1

> <s_i_glide_gridfile>
glide-grid_3g6z

> <i_i_glide_lignum>
5240

> <i_i_glide_rotatable_bonds>
12

> <r_i_docking_score>
-7.14620705028753

> <r_i_glide_ligand_efficiency>
-0.183236078212501

> <r_i_glide_ligand_efficiency_sa>
-0.621392284448435

> <r_i_glide_ligand_efficiency_ln>
-1.53234964873216

> <r_i_glide_gscore>
-7.14620705028753

> <r_i_glide_lipo>
-4.61288074740815

> <r_i_glide_hbond>
0

> <r_i_glide_metal>
0

> <r_i_glide_rewards>
-0.595898304481775

> <r_i_glide_evdw>
-51.2683868408203

> <r_i_glide_ecoul>
-1.2712709903717

> <r_i_glide_erotb>
0.816681992199166

> <r_i_glide_esite>
0

> <r_i_glide_emodel>
-72.5980036921563

> <r_i_glide_energy>
-52.539657831192

> <r_i_glide_einternal>
4.2760181427002

> <i_i_glide_confnum>
40

> <i_i_glide_posenum>
96

> <r_i_glide_eff_state_penalty>
0

> <s_user_duplicate_titles>
CHEMBL286_lig1536,325574

> <i_f3d_flags>
0

> <s_m_subgroup_title>
dock_pv

> <s_m_subgroupid>
dock_pv

> <b_m_subgroup_collapsed>
1

$$$$
CHEMBL286_lig2448
                    3D
 Schrodinger Suite 2021-1.
 84 88  0  0  1  0            999 V2000
   -1.8621  -14.1804   -9.3888 C   0  0  1  0  0  0
   -2.7221  -12.9645   -9.8665 C   0  0  2  0  0  0
   -1.5418  -14.0647   -7.8678 C   0  0  1  0  0  0
   -2.0103  -11.6301   -9.5031 C   0  0  0  0  0  0
   -0.8797  -12.6870   -7.5689 C   0  0  0  0  0  0
   -1.7412  -11.4722   -7.9917 C   0  0  2  0  0  0
   -2.8922  -14.0625   -7.0900 C   0  0  0  0  0  0
   -3.8172  -12.8796   -7.5108 C   0  0  2  0  0  0
   -4.0516  -12.9696   -9.0474 C   0  0  0  0  0  0
   -3.0837  -11.5425   -7.2336 C   0  0  0  0  0  0
   -8.2653  -17.8382   -7.9500 C   0  0  0  0  0  0
   -7.7026  -16.8776   -9.0224 C   0  0  0  0  0  0
   -6.2323  -16.4715   -8.7505 C   0  0  0  0  0  0
  -11.0092  -12.2806   -8.0211 C   0  0  0  0  0  0
  -12.2861  -12.5365   -7.5362 C   0  0  0  0  0  0
  -12.7863  -13.8337   -7.5685 C   0  0  0  0  0  0
  -12.0304  -14.8789   -8.1036 C   0  0  0  0  0  0
  -10.7533  -14.6275   -8.6654 C   0  0  0  0  0  0
  -10.2522  -13.3140   -8.5684 C   0  0  0  0  0  0
   -9.9138  -15.6484   -9.2287 N   0  0  0  0  0  0
   -8.4576  -15.5306   -8.9889 C   0  0  0  0  0  0
   -7.9208  -17.3923  -10.3806 N   0  0  2  0  0  0
   -9.3336  -17.5315  -10.8042 C   0  0  0  0  0  0
  -10.3359  -16.4717  -10.2450 C   0  0  0  0  0  0
  -11.4872  -16.4649  -10.6825 O   0  0  0  0  0  0
   -7.1672  -18.6179  -10.7189 C   0  0  0  0  0  0
   -6.6432  -18.6535  -12.1881 C   0  0  1  0  0  0
   -5.0824  -18.6368  -12.2774 C   0  0  2  0  0  0
   -7.1523  -19.8769  -12.8147 N   0  0  0  0  0  0
   -4.3739  -17.3274  -11.8101 C   0  0  0  0  0  0
   -4.6777  -18.8617  -13.6206 O   0  0  0  0  0  0
   -3.0448  -17.5186  -11.0032 C   0  0  2  0  0  0
   -2.3012  -16.1723  -10.7969 C   0  0  0  0  0  0
   -2.5392  -15.4596   -9.6836 N   0  0  0  0  0  0
   -1.4721  -15.7954  -11.6210 O   0  0  0  0  0  0
   -2.0935  -18.5887  -11.6260 C   0  0  0  0  0  0
  -12.7013  -16.4635   -7.9394 Cl  0  0  0  0  0  0
   -0.8078  -18.8619  -10.8260 C   0  0  0  0  0  0
   -1.0607  -10.2611   -7.7285 O   0  0  0  0  0  0
   -0.9043  -14.1478   -9.9141 H   0  0  0  0  0  0
   -2.9151  -13.0178  -10.9379 H   0  0  0  0  0  0
   -0.9021  -14.8857   -7.5426 H   0  0  0  0  0  0
   -1.0744  -11.5630  -10.0582 H   0  0  0  0  0  0
   -2.6083  -10.7925   -9.8594 H   0  0  0  0  0  0
   -0.6500  -12.6212   -6.5050 H   0  0  0  0  0  0
    0.0922  -12.6500   -8.0655 H   0  0  0  0  0  0
   -2.6743  -14.0630   -6.0209 H   0  0  0  0  0  0
   -3.4223  -15.0025   -7.2422 H   0  0  0  0  0  0
   -4.7649  -12.9174   -6.9694 H   0  0  0  0  0  0
   -4.6436  -13.8526   -9.2851 H   0  0  0  0  0  0
   -4.6667  -12.1306   -9.3723 H   0  0  0  0  0  0
   -3.7176  -10.7093   -7.5414 H   0  0  0  0  0  0
   -2.9182  -11.3836   -6.1681 H   0  0  0  0  0  0
   -8.1155  -17.4418   -6.9482 H   0  0  0  0  0  0
   -9.3320  -18.0269   -8.0629 H   0  0  0  0  0  0
   -7.7828  -18.8105   -8.0209 H   0  0  0  0  0  0
   -6.1146  -16.0480   -7.7528 H   0  0  0  0  0  0
   -5.5323  -17.2998   -8.8203 H   0  0  0  0  0  0
   -5.8928  -15.7186   -9.4613 H   0  0  0  0  0  0
  -10.6078  -11.2782   -7.9846 H   0  0  0  0  0  0
  -12.8734  -11.7365   -7.1111 H   0  0  0  0  0  0
  -13.7609  -14.0396   -7.1518 H   0  0  0  0  0  0
   -9.2710  -13.0686   -8.9484 H   0  0  0  0  0  0
   -8.0391  -14.8262   -9.7094 H   0  0  0  0  0  0
   -8.2735  -15.0630   -8.0216 H   0  0  0  0  0  0
   -9.3926  -17.5099  -11.8932 H   0  0  0  0  0  0
   -9.7429  -18.4968  -10.5010 H   0  0  0  0  0  0
   -7.7908  -19.4912  -10.5083 H   0  0  0  0  0  0
   -6.3155  -18.7592  -10.0549 H   0  0  0  0  0  0
   -7.0385  -17.8026  -12.7510 H   0  0  0  0  0  0
   -4.7367  -19.4755  -11.6743 H   0  0  0  0  0  0
   -7.0051  -20.6909  -12.2338 H   0  0  0  0  0  0
   -8.1442  -19.7956  -12.9868 H   0  0  0  0  0  0
   -5.0706  -16.7647  -11.1923 H   0  0  0  0  0  0
   -4.2037  -16.6751  -12.6707 H   0  0  0  0  0  0
   -5.3513  -18.4637  -14.1841 H   0  0  0  0  0  0
   -3.3254  -17.8890  -10.0162 H   0  0  0  0  0  0
   -3.2629  -15.7560   -9.0479 H   0  0  0  0  0  0
   -2.6017  -19.5471  -11.7206 H   0  0  0  0  0  0
   -1.8296  -18.3025  -12.6447 H   0  0  0  0  0  0
   -0.2359  -19.6610  -11.2942 H   0  0  0  0  0  0
   -0.1538  -17.9894  -10.7751 H   0  0  0  0  0  0
   -1.0422  -19.1643   -9.8043 H   0  0  0  0  0  0
   -0.1439  -10.4686   -7.5370 H   0  0  0  0  0  0
  1  2  1  0  0  0
  1  3  1  0  0  0
  1 34  1  0  0  0
  1 40  1  0  0  0
  2  4  1  0  0  0
  2  9  1  0  0  0
  2 41  1  0  0  0
  3  5  1  0  0  0
  3  7  1  0  0  0
  3 42  1  0  0  0
  4  6  1  0  0  0
  4 43  1  0  0  0
  4 44  1  0  0  0
  5  6  1  0  0  0
  5 45  1  0  0  0
  5 46  1  0  0  0
  6 10  1  0  0  0
  6 39  1  0  0  0
  7  8  1  0  0  0
  7 47  1  0  0  0
  7 48  1  0  0  0
  8 10  1  0  0  0
  8  9  1  0  0  0
  8 49  1  0  0  0
  9 50  1  0  0  0
  9 51  1  0  0  0
 10 52  1  0  0  0
 10 53  1  0  0  0
 11 12  1  0  0  0
 11 54  1  0  0  0
 11 55  1  0  0  0
 11 56  1  0  0  0
 12 13  1  0  0  0
 12 21  1  0  0  0
 12 22  1  0  0  0
 13 57  1  0  0  0
 13 58  1  0  0  0
 13 59  1  0  0  0
 14 15  2  0  0  0
 14 19  1  0  0  0
 14 60  1  0  0  0
 15 16  1  0  0  0
 15 61  1  0  0  0
 16 17  2  0  0  0
 16 62  1  0  0  0
 17 18  1  0  0  0
 17 37  1  0  0  0
 18 19  2  0  0  0
 18 20  1  0  0  0
 19 63  1  0  0  0
 20 21  1  0  0  0
 20 24  1  0  0  0
 21 64  1  0  0  0
 21 65  1  0  0  0
 22 23  1  0  0  0
 22 26  1  0  0  0
 23 24  1  0  0  0
 23 66  1  0  0  0
 23 67  1  0  0  0
 24 25  2  0  0  0
 26 27  1  0  0  0
 26 68  1  0  0  0
 26 69  1  0  0  0
 27 28  1  0  0  0
 27 29  1  0  0  0
 27 70  1  0  0  0
 28 30  1  0  0  0
 28 31  1  0  0  0
 28 71  1  0  0  0
 29 72  1  0  0  0
 29 73  1  0  0  0
 30 32  1  0  0  0
 30 74  1  0  0  0
 30 75  1  0  0  0
 31 76  1  0  0  0
 32 33  1  0  0  0
 32 36  1  0  0  0
 32 77  1  0  0  0
 33 34  1  0  0  0
 33 35  2  0  0  0
 34 78  1  0  0  0
 36 38  1  0  0  0
 36 79  1  0  0  0
 36 80  1  0  0  0
 38 81  1  0  0  0
 38 82  1  0  0  0
 38 83  1  0  0  0
 39 84  1  0  0  0
M  END
> <s_m_entry_id>
26376

> <s_m_entry_name>
dock_pv.200

> <s_m_Source_Path>
/home/csk/Desktop/cluster/DUD-E-result/reni

> <s_m_Source_File>
dock_pv.maegz

> <i_m_Source_File_Index>
200

> <chembl_id>
CHEMBL2387567

> <chembl_pref_name>
None

> <i_lp_mmshare_version>
53161

> <r_lp_tautomer_probability>
1

> <s_lp_Force_Field>
OPLS_2005

> <r_lp_Energy>
92.093614

> <b_lp_Chiralities_Consistent>
1

> <s_lp_Variant>
CHEMBL286_lig2448-1

> <s_i_glide_gridfile>
glide-grid_3g6z

> <i_i_glide_lignum>
6508

> <i_i_glide_rotatable_bonds>
12

> <r_i_docking_score>
-7.13316440923083

> <r_i_glide_ligand_efficiency>
-0.182901651518739

> <r_i_glide_ligand_efficiency_sa>
-0.620258172819086

> <r_i_glide_ligand_efficiency_ln>
-1.52955293625222

> <r_i_glide_gscore>
-7.13316440923083

> <r_i_glide_lipo>
-3.31579986787623

> <r_i_glide_hbond>
-0.314931895862493

> <r_i_glide_metal>
0

> <r_i_glide_rewards>
-1.0829165406329

> <r_i_glide_evdw>
-38.7938537597656

> <r_i_glide_ecoul>
-6.62251091003418

> <r_i_glide_erotb>
0.513553219634209

> <r_i_glide_esite>
0

> <r_i_glide_emodel>
-56.8668620157415

> <r_i_glide_energy>
-45.4163646697998

> <r_i_glide_einternal>
11.4776668548584

> <i_i_glide_confnum>
26

> <i_i_glide_posenum>
352

> <r_i_glide_eff_state_penalty>
0

> <s_user_duplicate_titles>
CHEMBL286_lig2448,CHEMBL286_lig2521

> <i_f3d_flags>
0

> <s_m_subgroup_title>
dock_pv

> <s_m_subgroupid>
dock_pv

> <b_m_subgroup_collapsed>
1

$$$$
CHEMBL286_lig2923
                    3D
 Schrodinger Suite 2021-1.
 61 64  0  0  1  0            999 V2000
   -3.0979  -18.6369  -12.1204 N   0  0  0  0  0  0
   -2.6560  -18.3833  -10.7506 C   0  0  1  0  0  0
   -3.1690  -16.9612  -10.3447 C   0  0  0  0  0  0
   -4.6063  -16.6076  -10.8004 C   0  0  0  0  0  0
   -5.0529  -17.2745  -11.9183 N   0  0  0  0  0  0
   -4.3743  -18.2563  -12.6098 C   0  0  0  0  0  0
   -4.8235  -18.8629  -13.6210 N   0  0  0  0  0  0
   -5.2503  -15.7588  -10.1770 O   0  0  0  0  0  0
   -6.4185  -16.8805  -12.3567 C   0  0  0  0  0  0
   -7.5528  -17.5850  -11.6211 C   0  0  0  0  0  0
   -8.4291  -16.8562  -10.8142 C   0  0  0  0  0  0
   -9.5540  -17.4979  -10.2830 C   0  0  0  0  0  0
   -9.8028  -18.8184  -10.5007 N   0  0  0  0  0  0
   -8.9206  -19.5250  -11.2463 C   0  0  0  0  0  0
   -7.7952  -18.9469  -11.8292 C   0  0  0  0  0  0
   -3.1325  -19.5166   -9.7579 C   0  0  0  0  0  0
   -4.6599  -19.7327   -9.6359 C   0  0  0  0  0  0
   -2.5240  -19.4088   -8.3403 C   0  0  0  0  0  0
   -1.1120  -18.2966  -10.8417 C   0  0  0  0  0  0
  -10.4861  -16.8182   -9.4932 N   0  0  0  0  0  0
  -11.9238  -17.0626   -9.5479 C   0  0  0  0  0  0
  -12.6427  -15.9519   -8.7853 C   0  0  0  0  0  0
  -11.5548  -15.2028   -8.0225 C   0  0  1  0  0  0
  -10.3285  -15.4998   -8.8918 C   0  0  0  0  0  0
  -11.8692  -13.7350   -7.7095 C   0  0  0  0  0  0
  -13.1379  -13.4068   -7.2209 C   0  0  0  0  0  0
  -13.4686  -12.0844   -6.9449 C   0  0  0  0  0  0
  -12.5219  -11.0866   -7.1505 C   0  0  0  0  0  0
  -11.2598  -11.3919   -7.6515 C   0  0  0  0  0  0
  -10.9350  -12.7152   -7.9355 C   0  0  0  0  0  0
   -2.7483  -19.4968  -12.5136 H   0  0  0  0  0  0
   -3.0965  -16.7963   -9.2702 H   0  0  0  0  0  0
   -2.5536  -16.1859  -10.8037 H   0  0  0  0  0  0
   -5.7349  -18.5169  -13.9021 H   0  0  0  0  0  0
   -6.5531  -15.8021  -12.2476 H   0  0  0  0  0  0
   -6.5587  -17.0350  -13.4278 H   0  0  0  0  0  0
   -8.2618  -15.8032  -10.6461 H   0  0  0  0  0  0
   -9.1480  -20.5689  -11.4051 H   0  0  0  0  0  0
   -7.1537  -19.5394  -12.4631 H   0  0  0  0  0  0
   -2.7428  -20.4519  -10.1648 H   0  0  0  0  0  0
   -5.1658  -18.8608   -9.2223 H   0  0  0  0  0  0
   -4.8848  -20.5711   -8.9763 H   0  0  0  0  0  0
   -5.1214  -19.9713  -10.5927 H   0  0  0  0  0  0
   -2.8322  -18.4982   -7.8292 H   0  0  0  0  0  0
   -2.8346  -20.2457   -7.7138 H   0  0  0  0  0  0
   -1.4359  -19.4300   -8.3589 H   0  0  0  0  0  0
   -0.6643  -17.9502   -9.9101 H   0  0  0  0  0  0
   -0.6705  -19.2646  -11.0817 H   0  0  0  0  0  0
   -0.7853  -17.6044  -11.6207 H   0  0  0  0  0  0
  -12.2269  -17.0026  -10.5950 H   0  0  0  0  0  0
  -12.1975  -18.0629   -9.2210 H   0  0  0  0  0  0
  -13.0686  -15.2656   -9.5188 H   0  0  0  0  0  0
  -13.4627  -16.2921   -8.1515 H   0  0  0  0  0  0
  -11.3857  -15.6630   -7.0472 H   0  0  0  0  0  0
   -9.3561  -15.4048   -8.4209 H   0  0  0  0  0  0
  -10.2131  -14.7174   -9.6210 H   0  0  0  0  0  0
  -13.8690  -14.1805   -7.0443 H   0  0  0  0  0  0
  -14.4460  -11.8344   -6.5590 H   0  0  0  0  0  0
  -12.7718  -10.0630   -6.9182 H   0  0  0  0  0  0
  -10.5372  -10.6052   -7.8155 H   0  0  0  0  0  0
   -9.9475  -12.9341   -8.3136 H   0  0  0  0  0  0
  1  2  1  0  0  0
  1  6  1  0  0  0
  1 31  1  0  0  0
  2  3  1  0  0  0
  2 16  1  0  0  0
  2 19  1  0  0  0
  3  4  1  0  0  0
  3 32  1  0  0  0
  3 33  1  0  0  0
  4  5  1  0  0  0
  4  8  2  0  0  0
  5  6  1  0  0  0
  5  9  1  0  0  0
  6  7  2  0  0  0
  7 34  1  0  0  0
  9 10  1  0  0  0
  9 35  1  0  0  0
  9 36  1  0  0  0
 10 11  2  0  0  0
 10 15  1  0  0  0
 11 12  1  0  0  0
 11 37  1  0  0  0
 12 13  2  0  0  0
 12 20  1  0  0  0
 13 14  1  0  0  0
 14 15  2  0  0  0
 14 38  1  0  0  0
 15 39  1  0  0  0
 16 17  1  0  0  0
 16 18  1  0  0  0
 16 40  1  0  0  0
 17 41  1  0  0  0
 17 42  1  0  0  0
 17 43  1  0  0  0
 18 44  1  0  0  0
 18 45  1  0  0  0
 18 46  1  0  0  0
 19 47  1  0  0  0
 19 48  1  0  0  0
 19 49  1  0  0  0
 20 21  1  0  0  0
 20 24  1  0  0  0
 21 22  1  0  0  0
 21 50  1  0  0  0
 21 51  1  0  0  0
 22 23  1  0  0  0
 22 52  1  0  0  0
 22 53  1  0  0  0
 23 24  1  0  0  0
 23 25  1  0  0  0
 23 54  1  0  0  0
 24 55  1  0  0  0
 24 56  1  0  0  0
 25 26  2  0  0  0
 25 30  1  0  0  0
 26 27  1  0  0  0
 26 57  1  0  0  0
 27 28  2  0  0  0
 27 58  1  0  0  0
 28 29  1  0  0  0
 28 59  1  0  0  0
 29 30  2  0  0  0
 29 60  1  0  0  0
 30 61  1  0  0  0
M  END
> <s_m_entry_id>
26377

> <s_m_entry_name>
dock_pv.201

> <s_m_Source_Path>
/home/csk/Desktop/cluster/DUD-E-result/reni

> <s_m_Source_File>
dock_pv.maegz

> <i_m_Source_File_Index>
201

> <chembl_id>
CHEMBL3401347

> <chembl_pref_name>
None

> <i_lp_mmshare_version>
53161

> <r_lp_tautomer_probability>
0.5

> <s_lp_Force_Field>
OPLS_2005

> <r_lp_Energy>
51.662068

> <b_lp_Chiralities_Consistent>
1

> <s_lp_Variant>
CHEMBL286_lig2923-1

> <s_i_glide_gridfile>
glide-grid_3g6z

> <i_i_glide_lignum>
7140

> <i_i_glide_rotatable_bonds>
5

> <r_i_docking_score>
-7.12990084124927

> <r_i_glide_ligand_efficiency>
-0.237663361374976

> <r_i_glide_ligand_efficiency_sa>
-0.73847532110135

> <r_i_glide_ligand_efficiency_ln>
-1.6199911576237

> <r_i_glide_gscore>
-7.12990084124927

> <r_i_glide_lipo>
-2.86174654109382

> <r_i_glide_hbond>
-0.32

> <r_i_glide_metal>
0

> <r_i_glide_rewards>
-1.58743413149664

> <r_i_glide_evdw>
-37.5046539306641

> <r_i_glide_ecoul>
-6.40635633468628

> <r_i_glide_erotb>
0.478018696732048

> <r_i_glide_esite>
-0.00255271865471444

> <r_i_glide_emodel>
-57.90540857899

> <r_i_glide_energy>
-43.9110102653503

> <r_i_glide_einternal>
8.35696411132812

> <i_i_glide_confnum>
15

> <i_i_glide_posenum>
250

> <r_i_glide_eff_state_penalty>
0

> <s_user_duplicate_titles>
CHEMBL286_lig2923

> <i_f3d_flags>
0

> <s_m_subgroup_title>
dock_pv

> <s_m_subgroupid>
dock_pv

> <b_m_subgroup_collapsed>
1

$$$$
CHEMBL286_lig2884
                    3D
 Schrodinger Suite 2021-1.
 48 49  0  0  1  0            999 V2000
  -11.4690  -17.8140  -11.4839 P   0  0  2  0  0  0
   -8.7522  -18.2399  -11.2038 C   0  0  1  0  0  0
   -7.6534  -17.1566  -11.1538 C   0  0  0  0  0  0
   -9.8646  -17.7406  -12.0210 N   0  0  1  0  0  0
   -7.0961  -16.7992  -12.3286 N   0  0  0  0  0  0
   -6.3843  -14.3669  -12.1668 C   0  0  0  0  0  0
   -6.0182  -15.8255  -12.5407 C   0  0  1  0  0  0
  -11.7097  -16.3563  -10.8062 O   0  0  0  0  0  0
  -11.8509  -19.0058  -10.6866 O   0  0  0  0  0  0
   -8.2425  -19.6254  -11.6703 C   0  0  0  0  0  0
   -7.3185  -16.7039  -10.0584 O   0  0  0  0  0  0
   -7.4690  -14.0068  -11.7577 O   0  0  0  0  0  0
  -12.3482  -17.6630  -12.8210 O   0  0  0  0  0  0
   -5.3249  -13.5439  -12.4210 O   0  0  0  0  0  0
  -11.7071  -16.0173   -9.4840 C   0  0  0  0  0  0
   -7.3483  -20.3399  -10.6697 C   0  0  0  0  0  0
   -4.7216  -16.3246  -11.8535 C   0  0  0  0  0  0
   -5.9511  -20.1433  -10.6850 C   0  0  0  0  0  0
   -7.9266  -21.0592   -9.6014 C   0  0  0  0  0  0
  -11.1628  -16.8361   -8.4995 C   0  0  0  0  0  0
  -12.2836  -14.7968   -9.1383 C   0  0  0  0  0  0
   -7.1179  -21.6241   -8.6239 C   0  0  0  0  0  0
   -5.1593  -20.7132   -9.6963 C   0  0  0  0  0  0
  -12.3744  -14.4144   -7.8040 C   0  0  0  0  0  0
  -11.2577  -16.4630   -7.1695 C   0  0  0  0  0  0
   -5.7396  -21.4555   -8.6749 C   0  0  0  0  0  0
  -11.8690  -15.2595   -6.8212 C   0  0  0  0  0  0
   -9.1227  -18.3722  -10.1871 H   0  0  0  0  0  0
   -9.6699  -17.6629  -13.0249 H   0  0  0  0  0  0
   -7.4801  -17.2133  -13.1725 H   0  0  0  0  0  0
   -5.8690  -15.8245  -13.6209 H   0  0  0  0  0  0
   -7.7261  -19.5486  -12.6291 H   0  0  0  0  0  0
   -9.0970  -20.2779  -11.8543 H   0  0  0  0  0  0
  -11.9442  -18.0631  -13.6446 H   0  0  0  0  0  0
   -4.6054  -14.0013  -12.8733 H   0  0  0  0  0  0
   -3.8731  -15.6623  -12.0210 H   0  0  0  0  0  0
   -4.8400  -16.4074  -10.7727 H   0  0  0  0  0  0
   -4.4384  -17.3078  -12.2297 H   0  0  0  0  0  0
   -5.4945  -19.5474  -11.4616 H   0  0  0  0  0  0
   -8.9996  -21.1721   -9.5408 H   0  0  0  0  0  0
  -10.6775  -17.7616   -8.7531 H   0  0  0  0  0  0
  -12.6702  -14.1541   -9.9138 H   0  0  0  0  0  0
   -7.5637  -22.1836   -7.8143 H   0  0  0  0  0  0
   -4.0889  -20.5691   -9.7155 H   0  0  0  0  0  0
  -12.8274  -13.4715   -7.5343 H   0  0  0  0  0  0
  -10.8240  -17.1033   -6.4210 H   0  0  0  0  0  0
   -5.1162  -21.8898   -7.9070 H   0  0  0  0  0  0
  -11.9125  -14.9610   -5.7836 H   0  0  0  0  0  0
  1  4  1  0  0  0
  1  8  1  0  0  0
  1  9  2  0  0  0
  1 13  1  0  0  0
  2  4  1  0  0  0
  2  3  1  0  0  0
  2 10  1  0  0  0
  2 28  1  0  0  0
  3  5  1  0  0  0
  3 11  2  0  0  0
  4 29  1  0  0  0
  5  7  1  0  0  0
  5 30  1  0  0  0
  6  7  1  0  0  0
  6 12  2  0  0  0
  6 14  1  0  0  0
  7 17  1  0  0  0
  7 31  1  0  0  0
  8 15  1  0  0  0
 10 16  1  0  0  0
 10 32  1  0  0  0
 10 33  1  0  0  0
 13 34  1  0  0  0
 14 35  1  0  0  0
 15 20  2  0  0  0
 15 21  1  0  0  0
 16 18  1  0  0  0
 16 19  2  0  0  0
 17 36  1  0  0  0
 17 37  1  0  0  0
 17 38  1  0  0  0
 18 23  2  0  0  0
 18 39  1  0  0  0
 19 22  1  0  0  0
 19 40  1  0  0  0
 20 25  1  0  0  0
 20 41  1  0  0  0
 21 24  2  0  0  0
 21 42  1  0  0  0
 22 26  2  0  0  0
 22 43  1  0  0  0
 23 26  1  0  0  0
 23 44  1  0  0  0
 24 27  1  0  0  0
 24 45  1  0  0  0
 25 27  2  0  0  0
 25 46  1  0  0  0
 26 47  1  0  0  0
 27 48  1  0  0  0
M  END
> <s_m_entry_id>
26378

> <s_m_entry_name>
dock_pv.202

> <s_m_Source_Path>
/home/csk/Desktop/cluster/DUD-E-result/reni

> <s_m_Source_File>
dock_pv.maegz

> <i_m_Source_File_Index>
202

> <chembl_id>
CHEMBL331117

> <chembl_pref_name>
None

> <i_lp_mmshare_version>
53161

> <r_lp_tautomer_probability>
1

> <s_lp_Force_Field>
OPLS_2005

> <r_lp_Energy>
-0.079373

> <b_lp_Chiralities_Consistent>
1

> <s_lp_Variant>
CHEMBL286_lig2884-2

> <s_i_glide_gridfile>
glide-grid_3g6z

> <i_i_glide_lignum>
7050

> <i_i_glide_rotatable_bonds>
12

> <r_i_docking_score>
-7.12898235857162

> <r_i_glide_ligand_efficiency>
-0.264036383650801

> <r_i_glide_ligand_efficiency_sa>
-0.792109150082181

> <r_i_glide_ligand_efficiency_ln>
-1.65950956261579

> <r_i_glide_gscore>
-7.12898235857162

> <r_i_glide_lipo>
-1.9688556968156

> <r_i_glide_hbond>
-0.333949814980617

> <r_i_glide_metal>
0

> <r_i_glide_rewards>
-1.34658828632585

> <r_i_glide_evdw>
-24.7149448394775

> <r_i_glide_ecoul>
-20.7379722595215

> <r_i_glide_erotb>
1.01466479928108

> <r_i_glide_esite>
-0.147810278828525

> <r_i_glide_emodel>
-64.9875537239037

> <r_i_glide_energy>
-45.452917098999

> <r_i_glide_einternal>
8.48243141174316

> <i_i_glide_confnum>
162

> <i_i_glide_posenum>
303

> <r_i_glide_eff_state_penalty>
0

> <s_user_duplicate_titles>
CHEMBL286_lig2884

> <i_f3d_flags>
0

> <s_m_subgroup_title>
dock_pv

> <s_m_subgroupid>
dock_pv

> <b_m_subgroup_collapsed>
1

$$$$
CHEMBL286_lig1556
                    3D
 Schrodinger Suite 2021-1.
 74 77  0  0  1  0            999 V2000
   -6.5300  -18.4440  -11.3014 N   0  0  0  0  0  0
   -5.5215  -19.2196  -10.7837 C   0  0  0  0  0  0
   -1.6774  -12.3803   -8.0995 C   0  0  0  0  0  0
   -7.6513  -18.0825  -10.5158 C   0  0  0  0  0  0
   -6.5262  -17.9048  -12.6961 C   0  0  2  0  0  0
   -4.8101  -19.6645  -13.1165 N   0  0  2  0  0  0
   -2.8860  -13.0146   -8.5185 O   0  0  0  0  0  0
  -10.4792  -12.2775   -8.0198 C   0  0  0  0  0  0
   -5.5269  -19.6809   -9.6392 O   0  0  0  0  0  0
  -10.0775  -11.0740   -7.4210 C   0  0  0  0  0  0
   -3.3223  -12.8841   -9.8233 C   0  0  0  0  0  0
   -8.9416  -18.3190  -11.0019 C   0  0  0  0  0  0
   -7.4823  -17.4124   -9.2973 C   0  0  0  0  0  0
   -1.4877  -12.6967   -6.8209 F   0  0  0  0  0  0
   -0.6184  -12.8239   -8.7820 F   0  0  0  0  0  0
   -1.7656  -11.0506   -8.1783 F   0  0  0  0  0  0
   -4.3388  -19.5237  -11.7383 C   0  0  0  0  0  0
   -4.4952  -13.5658  -10.1628 C   0  0  0  0  0  0
   -5.3566  -18.4023  -13.5834 C   0  0  0  0  0  0
   -9.8783  -17.1847   -9.0761 C   0  0  0  0  0  0
   -5.8817  -15.6513  -12.0089 O   0  0  0  0  0  0
   -8.5923  -16.9802   -8.5804 C   0  0  0  0  0  0
  -10.0475  -17.8668  -10.2914 C   0  0  0  0  0  0
   -5.0183  -13.4947  -11.4570 C   0  0  0  0  0  0
  -11.0429  -10.2057   -6.9494 O   0  0  0  0  0  0
   -6.7744  -16.3853  -12.8344 C   0  0  0  0  0  0
  -13.2207  -16.0979   -7.8547 C   0  0  0  0  0  0
  -10.9172  -16.6808   -8.3200 O   0  0  0  0  0  0
  -11.9475  -12.6432   -8.0842 C   0  0  0  0  0  0
  -12.0747  -13.9980   -7.6778 O   0  0  0  0  0  0
   -3.1855  -12.0626  -12.1046 C   0  0  0  0  0  0
   -9.5210  -13.1993   -8.4702 C   0  0  0  0  0  0
   -6.2537  -14.2886  -11.8376 C   0  0  0  0  0  0
   -2.6675  -12.1330  -10.8133 C   0  0  0  0  0  0
  -12.2414  -16.7584   -8.8358 C   0  0  0  0  0  0
  -13.3025  -14.5823   -8.0422 C   0  0  0  0  0  0
   -8.7055  -10.8630   -7.2209 C   0  0  0  0  0  0
   -4.3676  -12.7217  -12.4194 C   0  0  0  0  0  0
  -10.6558   -8.8695   -6.6771 C   0  0  0  0  0  0
   -8.1611  -12.9556   -8.2837 C   0  0  0  0  0  0
   -7.7549  -11.8008   -7.6211 C   0  0  0  0  0  0
   -7.3877  -18.3989  -13.1408 H   0  0  0  0  0  0
   -5.4594  -20.4354  -13.2215 H   0  0  0  0  0  0
   -9.0983  -18.8286  -11.9421 H   0  0  0  0  0  0
   -6.4933  -17.2097   -8.9124 H   0  0  0  0  0  0
   -3.6058  -18.7195  -11.6520 H   0  0  0  0  0  0
   -3.8480  -20.4426  -11.4178 H   0  0  0  0  0  0
   -4.9927  -14.1695   -9.4189 H   0  0  0  0  0  0
   -4.5587  -17.6557  -13.5895 H   0  0  0  0  0  0
   -5.6967  -18.5052  -14.6121 H   0  0  0  0  0  0
   -8.4515  -16.4629   -7.6440 H   0  0  0  0  0  0
  -11.0261  -18.0496  -10.7078 H   0  0  0  0  0  0
   -6.6624  -16.0680  -13.8724 H   0  0  0  0  0  0
   -7.8055  -16.1690  -12.5489 H   0  0  0  0  0  0
  -12.9486  -16.3429   -6.8283 H   0  0  0  0  0  0
  -14.2142  -16.5176   -8.0075 H   0  0  0  0  0  0
  -12.5567  -12.0333   -7.4127 H   0  0  0  0  0  0
  -12.2982  -12.4675   -9.1015 H   0  0  0  0  0  0
   -2.6711  -11.4938  -12.8654 H   0  0  0  0  0  0
   -9.8336  -14.1236   -8.9347 H   0  0  0  0  0  0
   -6.6887  -13.8676  -12.7476 H   0  0  0  0  0  0
   -7.0167  -14.2055  -11.0607 H   0  0  0  0  0  0
   -1.7496  -11.6039  -10.6109 H   0  0  0  0  0  0
  -12.5308  -17.7947   -8.9885 H   0  0  0  0  0  0
  -12.2931  -16.2725   -9.8128 H   0  0  0  0  0  0
  -14.1200  -14.1505   -7.4632 H   0  0  0  0  0  0
  -13.4691  -14.3789   -9.0979 H   0  0  0  0  0  0
   -8.3547  -10.0275   -6.6481 H   0  0  0  0  0  0
   -4.7458  -12.6714  -13.4301 H   0  0  0  0  0  0
  -11.5265   -8.2771   -6.3956 H   0  0  0  0  0  0
   -9.9131   -8.7883   -5.8811 H   0  0  0  0  0  0
  -10.2385   -8.4528   -7.5907 H   0  0  0  0  0  0
   -7.4307  -13.6820   -8.6074 H   0  0  0  0  0  0
   -6.7075  -11.6291   -7.4247 H   0  0  0  0  0  0
  1  2  1  0  0  0
  1  4  1  0  0  0
  1  5  1  0  0  0
  2  9  2  0  0  0
  2 17  1  0  0  0
  3  7  1  0  0  0
  3 14  1  0  0  0
  3 15  1  0  0  0
  3 16  1  0  0  0
  4 12  2  0  0  0
  4 13  1  0  0  0
  5 19  1  0  0  0
  5 26  1  0  0  0
  5 42  1  0  0  0
  6 19  1  0  0  0
  6 17  1  0  0  0
  6 43  1  0  0  0
  7 11  1  0  0  0
  8 29  1  0  0  0
  8 10  2  0  0  0
  8 32  1  0  0  0
 10 25  1  0  0  0
 10 37  1  0  0  0
 11 18  1  0  0  0
 11 34  2  0  0  0
 12 23  1  0  0  0
 12 44  1  0  0  0
 13 22  2  0  0  0
 13 45  1  0  0  0
 17 46  1  0  0  0
 17 47  1  0  0  0
 18 24  2  0  0  0
 18 48  1  0  0  0
 19 49  1  0  0  0
 19 50  1  0  0  0
 20 22  1  0  0  0
 20 28  1  0  0  0
 20 23  2  0  0  0
 21 26  1  0  0  0
 21 33  1  0  0  0
 22 51  1  0  0  0
 23 52  1  0  0  0
 24 33  1  0  0  0
 24 38  1  0  0  0
 25 39  1  0  0  0
 26 53  1  0  0  0
 26 54  1  0  0  0
 27 35  1  0  0  0
 27 36  1  0  0  0
 27 55  1  0  0  0
 27 56  1  0  0  0
 28 35  1  0  0  0
 29 30  1  0  0  0
 29 57  1  0  0  0
 29 58  1  0  0  0
 30 36  1  0  0  0
 31 38  2  0  0  0
 31 34  1  0  0  0
 31 59  1  0  0  0
 32 40  2  0  0  0
 32 60  1  0  0  0
 33 61  1  0  0  0
 33 62  1  0  0  0
 34 63  1  0  0  0
 35 64  1  0  0  0
 35 65  1  0  0  0
 36 66  1  0  0  0
 36 67  1  0  0  0
 37 41  2  0  0  0
 37 68  1  0  0  0
 38 69  1  0  0  0
 39 70  1  0  0  0
 39 71  1  0  0  0
 39 72  1  0  0  0
 40 41  1  0  0  0
 40 73  1  0  0  0
 41 74  1  0  0  0
M  END
> <s_m_entry_id>
26379

> <s_m_entry_name>
dock_pv.203

> <s_m_Source_Path>
/home/csk/Desktop/cluster/DUD-E-result/reni

> <s_m_Source_File>
dock_pv.maegz

> <i_m_Source_File_Index>
203

> <chembl_id>
CHEMBL197457

> <chembl_pref_name>
None

> <i_lp_mmshare_version>
53161

> <r_lp_tautomer_probability>
1

> <s_lp_Force_Field>
OPLS_2005

> <r_lp_Energy>
57.722811

> <b_lp_Chiralities_Consistent>
1

> <s_lp_Variant>
CHEMBL286_lig1556-1

> <s_i_glide_gridfile>
glide-grid_3g6z

> <i_i_glide_lignum>
5260

> <i_i_glide_rotatable_bonds>
15

> <r_i_docking_score>
-7.12339078918898

> <r_i_glide_ligand_efficiency>
-0.173741238760707

> <r_i_glide_ligand_efficiency_sa>
-0.599097534118524

> <r_i_glide_ligand_efficiency_ln>
-1.51125106148416

> <r_i_glide_gscore>
-7.12339078918898

> <r_i_glide_lipo>
-3.91050821408356

> <r_i_glide_hbond>
-0.32

> <r_i_glide_metal>
0

> <r_i_glide_rewards>
-0.585310906397416

> <r_i_glide_evdw>
-40.3409271240234

> <r_i_glide_ecoul>
-6.67474365234375

> <r_i_glide_erotb>
0.727410840703577

> <r_i_glide_esite>
-0.0167246053588517

> <r_i_glide_emodel>
-61.0731450560276

> <r_i_glide_energy>
-47.0156707763672

> <r_i_glide_einternal>
10.2478103637695

> <i_i_glide_confnum>
28

> <i_i_glide_posenum>
17

> <r_i_glide_eff_state_penalty>
0

> <s_user_duplicate_titles>
CHEMBL286_lig1556,326750

> <i_f3d_flags>
0

> <s_m_subgroup_title>
dock_pv

> <s_m_subgroupid>
dock_pv

> <b_m_subgroup_collapsed>
1

$$$$
CHEMBL286_lig2615
                    3D
 Schrodinger Suite 2021-1.
 92 93  0  0  1  0            999 V2000
   -3.5538  -15.6198  -11.4114 N   0  0  0  0  0  0
   -9.8499  -16.3015   -9.1999 C   0  0  0  0  0  0
   -8.5552  -15.8884   -8.8542 C   0  0  0  0  0  0
   -7.5781  -16.8575   -8.5910 C   0  0  0  0  0  0
   -7.8468  -18.2067   -8.7972 C   0  0  0  0  0  0
   -9.0731  -18.6181   -9.3101 C   0  0  0  0  0  0
  -10.0852  -17.6630   -9.4747 C   0  0  0  0  0  0
  -10.8106  -15.3040   -9.2269 O   0  0  0  0  0  0
  -12.2015  -15.6013   -9.3273 C   0  0  0  0  0  0
  -12.8240  -15.6670   -7.9213 C   0  0  0  0  0  0
  -12.7372  -14.3391   -7.1473 C   0  0  0  0  0  0
  -13.4697  -13.3391   -7.8453 O   0  0  0  0  0  0
  -13.4362  -12.0678   -7.2150 C   0  0  0  0  0  0
   -8.3136  -14.5246   -8.7981 O   0  0  0  0  0  0
   -7.0415  -14.0546   -8.3616 C   0  0  0  0  0  0
   -9.3118  -20.0954   -9.6517 C   0  0  0  0  0  0
   -8.8499  -20.5402  -11.0645 C   0  0  1  0  0  0
   -7.3089  -20.4860  -11.2541 C   0  0  0  0  0  0
   -9.4460  -21.9174  -11.5170 C   0  0  0  0  0  0
  -10.9879  -21.9209  -11.5810 C   0  0  0  0  0  0
   -8.9651  -23.1309  -10.6876 C   0  0  0  0  0  0
   -6.8671  -20.0969  -12.6883 C   0  0  1  0  0  0
   -5.9210  -18.8574  -12.7030 C   0  0  2  0  0  0
   -6.2554  -21.2708  -13.2974 N   0  0  0  0  0  0
   -6.6311  -17.5598  -12.2228 C   0  0  0  0  0  0
   -5.4626  -18.6334  -14.0210 O   0  0  0  0  0  0
   -5.8023  -16.2352  -12.2214 C   0  0  2  0  0  0
   -4.6853  -16.2913  -11.1487 C   0  0  0  0  0  0
   -6.7053  -14.9499  -12.1027 C   0  0  0  0  0  0
   -7.7279  -14.8190  -13.2533 C   0  0  0  0  0  0
   -5.9191  -13.6176  -12.0093 C   0  0  0  0  0  0
   -4.8457  -16.9180  -10.1007 O   0  0  0  0  0  0
   -2.3938  -15.5035  -10.5223 C   0  0  2  0  0  0
   -2.0886  -14.0069  -10.3003 C   0  0  0  0  0  0
   -1.2142  -16.3575  -11.0139 C   0  0  0  0  0  0
    0.0827  -15.8359  -11.1175 C   0  0  0  0  0  0
    1.1153  -16.6190  -11.6214 C   0  0  0  0  0  0
    0.8613  -17.9250  -12.0236 C   0  0  0  0  0  0
   -0.4123  -18.4701  -11.8977 C   0  0  0  0  0  0
   -1.4450  -17.6898  -11.3881 C   0  0  0  0  0  0
    2.1306  -18.8630  -12.7055 Cl  0  0  0  0  0  0
   -3.4717  -15.1687  -12.3147 H   0  0  0  0  0  0
   -6.5906  -16.5811   -8.2544 H   0  0  0  0  0  0
   -7.0688  -18.9274   -8.5970 H   0  0  0  0  0  0
  -11.0487  -18.0122   -9.8068 H   0  0  0  0  0  0
  -12.6617  -14.7885   -9.8888 H   0  0  0  0  0  0
  -12.4245  -16.4933   -9.9072 H   0  0  0  0  0  0
  -13.8696  -15.9633   -8.0069 H   0  0  0  0  0  0
  -12.3346  -16.4548   -7.3489 H   0  0  0  0  0  0
  -13.1524  -14.4642   -6.1460 H   0  0  0  0  0  0
  -11.6938  -14.0394   -7.0292 H   0  0  0  0  0  0
  -14.0054  -11.3525   -7.8090 H   0  0  0  0  0  0
  -13.8819  -12.1044   -6.2195 H   0  0  0  0  0  0
  -12.4165  -11.6894   -7.1283 H   0  0  0  0  0  0
   -7.0345  -12.9654   -8.3902 H   0  0  0  0  0  0
   -6.8348  -14.3593   -7.3352 H   0  0  0  0  0  0
   -6.2336  -14.4058   -9.0051 H   0  0  0  0  0  0
  -10.3793  -20.2749   -9.6211 H   0  0  0  0  0  0
   -8.8745  -20.7251   -8.8756 H   0  0  0  0  0  0
   -9.2774  -19.7915  -11.7354 H   0  0  0  0  0  0
   -6.8370  -21.4081  -10.9161 H   0  0  0  0  0  0
   -6.8691  -19.7784  -10.5644 H   0  0  0  0  0  0
   -9.1069  -22.0795  -12.5423 H   0  0  0  0  0  0
  -11.4369  -22.0160  -10.5905 H   0  0  0  0  0  0
  -11.3717  -21.0037  -12.0205 H   0  0  0  0  0  0
  -11.3551  -22.7561  -12.1813 H   0  0  0  0  0  0
   -9.2150  -23.0229   -9.6328 H   0  0  0  0  0  0
   -9.4319  -24.0524  -11.0383 H   0  0  0  0  0  0
   -7.8902  -23.2883  -10.7627 H   0  0  0  0  0  0
   -7.7406  -19.8526  -13.2964 H   0  0  0  0  0  0
   -5.0532  -19.0582  -12.0731 H   0  0  0  0  0  0
   -6.9532  -21.9989  -13.3802 H   0  0  0  0  0  0
   -5.9991  -21.0336  -14.2429 H   0  0  0  0  0  0
   -7.0398  -17.7021  -11.2297 H   0  0  0  0  0  0
   -7.5192  -17.4408  -12.8211 H   0  0  0  0  0  0
   -6.1988  -18.3260  -14.5722 H   0  0  0  0  0  0
   -5.3095  -16.1673  -13.1912 H   0  0  0  0  0  0
   -7.2839  -15.0391  -11.1842 H   0  0  0  0  0  0
   -7.2345  -14.8612  -14.2243 H   0  0  0  0  0  0
   -8.4918  -15.5957  -13.2217 H   0  0  0  0  0  0
   -8.2681  -13.8731  -13.2020 H   0  0  0  0  0  0
   -5.2346  -13.5001  -12.8495 H   0  0  0  0  0  0
   -6.5899  -12.7572  -12.0169 H   0  0  0  0  0  0
   -5.3369  -13.5465  -11.0907 H   0  0  0  0  0  0
   -2.6380  -15.8977   -9.5312 H   0  0  0  0  0  0
   -1.3137  -13.8590   -9.5469 H   0  0  0  0  0  0
   -1.7679  -13.5189  -11.2224 H   0  0  0  0  0  0
   -2.9739  -13.4767   -9.9453 H   0  0  0  0  0  0
    0.3070  -14.8187  -10.8291 H   0  0  0  0  0  0
    2.1092  -16.2081  -11.7155 H   0  0  0  0  0  0
   -0.6011  -19.4886  -12.2027 H   0  0  0  0  0  0
   -2.4330  -18.1196  -11.3038 H   0  0  0  0  0  0
  1 28  1  0  0  0
  1 33  1  0  0  0
  1 42  1  0  0  0
  2  3  2  0  0  0
  2  7  1  0  0  0
  2  8  1  0  0  0
  3  4  1  0  0  0
  3 14  1  0  0  0
  4  5  2  0  0  0
  4 43  1  0  0  0
  5  6  1  0  0  0
  5 44  1  0  0  0
  6  7  2  0  0  0
  6 16  1  0  0  0
  7 45  1  0  0  0
  8  9  1  0  0  0
  9 10  1  0  0  0
  9 46  1  0  0  0
  9 47  1  0  0  0
 10 11  1  0  0  0
 10 48  1  0  0  0
 10 49  1  0  0  0
 11 12  1  0  0  0
 11 50  1  0  0  0
 11 51  1  0  0  0
 12 13  1  0  0  0
 13 52  1  0  0  0
 13 53  1  0  0  0
 13 54  1  0  0  0
 14 15  1  0  0  0
 15 55  1  0  0  0
 15 56  1  0  0  0
 15 57  1  0  0  0
 16 17  1  0  0  0
 16 58  1  0  0  0
 16 59  1  0  0  0
 17 18  1  0  0  0
 17 19  1  0  0  0
 17 60  1  0  0  0
 18 22  1  0  0  0
 18 61  1  0  0  0
 18 62  1  0  0  0
 19 20  1  0  0  0
 19 21  1  0  0  0
 19 63  1  0  0  0
 20 64  1  0  0  0
 20 65  1  0  0  0
 20 66  1  0  0  0
 21 67  1  0  0  0
 21 68  1  0  0  0
 21 69  1  0  0  0
 22 23  1  0  0  0
 22 24  1  0  0  0
 22 70  1  0  0  0
 23 25  1  0  0  0
 23 26  1  0  0  0
 23 71  1  0  0  0
 24 72  1  0  0  0
 24 73  1  0  0  0
 25 27  1  0  0  0
 25 74  1  0  0  0
 25 75  1  0  0  0
 26 76  1  0  0  0
 27 28  1  0  0  0
 27 29  1  0  0  0
 27 77  1  0  0  0
 28 32  2  0  0  0
 29 30  1  0  0  0
 29 31  1  0  0  0
 29 78  1  0  0  0
 30 79  1  0  0  0
 30 80  1  0  0  0
 30 81  1  0  0  0
 31 82  1  0  0  0
 31 83  1  0  0  0
 31 84  1  0  0  0
 33 34  1  0  0  0
 33 35  1  0  0  0
 33 85  1  0  0  0
 34 86  1  0  0  0
 34 87  1  0  0  0
 34 88  1  0  0  0
 35 36  2  0  0  0
 35 40  1  0  0  0
 36 37  1  0  0  0
 36 89  1  0  0  0
 37 38  2  0  0  0
 37 90  1  0  0  0
 38 39  1  0  0  0
 38 41  1  0  0  0
 39 40  2  0  0  0
 39 91  1  0  0  0
 40 92  1  0  0  0
M  END
> <s_m_entry_id>
26380

> <s_m_entry_name>
dock_pv.204

> <s_m_Source_Path>
/home/csk/Desktop/cluster/DUD-E-result/reni

> <s_m_Source_File>
dock_pv.maegz

> <i_m_Source_File_Index>
204

> <chembl_id>
CHEMBL3633123

> <chembl_pref_name>
None

> <i_lp_mmshare_version>
53161

> <r_lp_tautomer_probability>
1

> <s_lp_Force_Field>
OPLS_2005

> <r_lp_Energy>
38.403404

> <b_lp_Chiralities_Consistent>
1

> <s_lp_Variant>
CHEMBL286_lig2615-1

> <s_i_glide_gridfile>
glide-grid_3g6z

> <i_i_glide_lignum>
6680

> <i_i_glide_rotatable_bonds>
20

> <r_i_docking_score>
-7.12170011647083

> <r_i_glide_ligand_efficiency>
-0.173700002840752

> <r_i_glide_ligand_efficiency_sa>
-0.598955343708589

> <r_i_glide_ligand_efficiency_ln>
-1.51089237964071

> <r_i_glide_gscore>
-7.12170011647083

> <r_i_glide_lipo>
-3.11692452201954

> <r_i_glide_hbond>
-0.723375516451275

> <r_i_glide_metal>
0

> <r_i_glide_rewards>
2.08911034388563e-06

> <r_i_glide_evdw>
-49.679370880127

> <r_i_glide_ecoul>
-9.90524005889893

> <r_i_glide_erotb>
0.72994254363513

> <r_i_glide_esite>
-0.0415901579043005

> <r_i_glide_emodel>
-79.5065932005979

> <r_i_glide_energy>
-59.5846109390259

> <r_i_glide_einternal>
13.5677833557129

> <i_i_glide_confnum>
66

> <i_i_glide_posenum>
249

> <r_i_glide_eff_state_penalty>
0

> <s_user_duplicate_titles>
CHEMBL286_lig2615

> <i_f3d_flags>
0

> <s_m_subgroup_title>
dock_pv

> <s_m_subgroupid>
dock_pv

> <b_m_subgroup_collapsed>
1

$$$$
CHEMBL286_lig2019
                    3D
 Schrodinger Suite 2021-1.
 48 50  0  0  1  0            999 V2000
   -9.7605  -18.6374  -10.4470 C   0  0  0  0  0  0
   -9.3884  -16.4516   -9.6760 C   0  0  1  0  0  0
  -10.0262  -17.2751  -10.6793 N   0  0  0  0  0  0
  -10.4844  -15.5929   -8.9681 C   0  0  0  0  0  0
  -11.6558  -16.1995   -8.4831 C   0  0  0  0  0  0
  -12.6683  -15.4470   -7.8957 C   0  0  0  0  0  0
  -12.5413  -14.0663   -7.7717 C   0  0  0  0  0  0
  -11.3744  -13.4466   -8.2334 C   0  0  0  0  0  0
  -10.3637  -14.2015   -8.8210 C   0  0  0  0  0  0
  -10.1784  -19.5354  -11.2209 N   0  0  0  0  0  0
   -9.0692  -18.7193   -9.2810 N   0  0  0  0  0  0
   -8.8457  -17.5163   -8.7075 C   0  0  0  0  0  0
   -8.6192  -19.9434   -8.6119 C   0  0  0  0  0  0
   -8.3081  -17.2866   -7.6212 O   0  0  0  0  0  0
   -8.1755  -15.6656  -10.2715 C   0  0  0  0  0  0
   -7.3197  -14.9451   -9.4201 C   0  0  0  0  0  0
   -6.2262  -14.2340   -9.9160 C   0  0  0  0  0  0
   -5.9528  -14.2452  -11.2842 C   0  0  0  0  0  0
   -6.7761  -14.9634  -12.1483 C   0  0  0  0  0  0
   -7.8738  -15.6645  -11.6489 C   0  0  0  0  0  0
  -13.6132  -13.3947   -7.2211 O   0  0  0  0  0  0
  -13.4950  -12.0102   -6.9069 C   0  0  0  0  0  0
  -13.5677  -11.2715   -8.0114 F   0  0  0  0  0  0
  -14.4965  -11.6629   -6.1003 F   0  0  0  0  0  0
   -5.3969  -13.4690   -8.9998 C   0  0  0  0  0  0
   -4.7571  -12.8043   -8.2007 C   0  0  0  0  0  0
   -4.0398  -11.9815   -7.2201 C   0  0  0  0  0  0
   -3.7537  -10.6907   -7.7365 O   0  0  0  0  0  0
   -3.1718   -9.8304   -6.7729 C   0  0  0  0  0  0
  -11.7991  -17.2643   -8.5827 H   0  0  0  0  0  0
  -13.5683  -15.9358   -7.5523 H   0  0  0  0  0  0
  -11.2423  -12.3772   -8.1738 H   0  0  0  0  0  0
   -9.5063  -13.6654   -9.1946 H   0  0  0  0  0  0
  -10.6695  -19.1413  -12.0112 H   0  0  0  0  0  0
  -10.0888  -16.8334  -11.5843 H   0  0  0  0  0  0
   -8.8867  -20.8306   -9.1875 H   0  0  0  0  0  0
   -7.5353  -19.9372   -8.4924 H   0  0  0  0  0  0
   -9.0700  -20.0339   -7.6227 H   0  0  0  0  0  0
   -7.5194  -14.9278   -8.3570 H   0  0  0  0  0  0
   -5.1075  -13.7029  -11.6855 H   0  0  0  0  0  0
   -6.5615  -14.9809  -13.2077 H   0  0  0  0  0  0
   -8.4775  -16.2085  -12.3605 H   0  0  0  0  0  0
  -12.5725  -11.7688   -6.3775 H   0  0  0  0  0  0
   -3.1206  -12.5043   -6.9530 H   0  0  0  0  0  0
   -4.6684  -11.9193   -6.3297 H   0  0  0  0  0  0
   -2.9545   -8.8640   -7.2215 H   0  0  0  0  0  0
   -2.2375  -10.2347   -6.3801 H   0  0  0  0  0  0
   -3.8616   -9.6625   -5.9458 H   0  0  0  0  0  0
  1 11  1  0  0  0
  1 10  2  0  0  0
  1  3  1  0  0  0
  2  3  1  0  0  0
  2 12  1  0  0  0
  2 15  1  0  0  0
  2  4  1  0  0  0
  3 35  1  0  0  0
  4  9  1  0  0  0
  4  5  2  0  0  0
  5  6  1  0  0  0
  5 30  1  0  0  0
  6  7  2  0  0  0
  6 31  1  0  0  0
  7  8  1  0  0  0
  7 21  1  0  0  0
  8  9  2  0  0  0
  8 32  1  0  0  0
  9 33  1  0  0  0
 10 34  1  0  0  0
 11 12  1  0  0  0
 11 13  1  0  0  0
 12 14  2  0  0  0
 13 36  1  0  0  0
 13 37  1  0  0  0
 13 38  1  0  0  0
 15 16  2  0  0  0
 15 20  1  0  0  0
 16 17  1  0  0  0
 16 39  1  0  0  0
 17 18  2  0  0  0
 17 25  1  0  0  0
 18 19  1  0  0  0
 18 40  1  0  0  0
 19 20  2  0  0  0
 19 41  1  0  0  0
 20 42  1  0  0  0
 21 22  1  0  0  0
 22 23  1  0  0  0
 22 24  1  0  0  0
 22 43  1  0  0  0
 25 26  3  0  0  0
 26 27  1  0  0  0
 27 28  1  0  0  0
 27 44  1  0  0  0
 27 45  1  0  0  0
 28 29  1  0  0  0
 29 46  1  0  0  0
 29 47  1  0  0  0
 29 48  1  0  0  0
M  END
> <s_m_entry_id>
26382

> <s_m_entry_name>
dock_pv.206

> <s_m_Source_Path>
/home/csk/Desktop/cluster/DUD-E-result/reni

> <s_m_Source_File>
dock_pv.maegz

> <i_m_Source_File_Index>
206

> <chembl_id>
CHEMBL1271346

> <chembl_pref_name>
None

> <i_lp_mmshare_version>
53161

> <r_lp_tautomer_probability>
0.499639836881432

> <s_lp_Force_Field>
OPLS_2005

> <r_lp_Energy>
29.723459

> <b_lp_Chiralities_Consistent>
1

> <s_lp_Variant>
CHEMBL286_lig2019-2

> <s_i_glide_gridfile>
glide-grid_3g6z

> <i_i_glide_lignum>
5817

> <i_i_glide_rotatable_bonds>
7

> <r_i_docking_score>
-7.11124463132931

> <r_i_glide_ligand_efficiency>
-0.245215332114804

> <r_i_glide_ligand_efficiency_sa>
-0.753379189926838

> <r_i_glide_ligand_efficiency_ln>
-1.62829469496948

> <r_i_glide_gscore>
-7.11124463132931

> <r_i_glide_lipo>
-3.34164097151957

> <r_i_glide_hbond>
0

> <r_i_glide_metal>
0

> <r_i_glide_rewards>
-2.09652936890843

> <r_i_glide_evdw>
-39.5176620483398

> <r_i_glide_ecoul>
-2.07582759857178

> <r_i_glide_erotb>
0.614182951301454

> <r_i_glide_esite>
0

> <r_i_glide_emodel>
-57.6143293801882

> <r_i_glide_energy>
-41.5934896469116

> <r_i_glide_einternal>
3.37651705741882

> <i_i_glide_confnum>
4

> <i_i_glide_posenum>
284

> <r_i_glide_eff_state_penalty>
0

> <s_user_duplicate_titles>
CHEMBL286_lig2019

> <i_f3d_flags>
0

> <s_m_subgroup_title>
dock_pv

> <s_m_subgroupid>
dock_pv

> <b_m_subgroup_collapsed>
1

$$$$
CHEMBL286_lig2751
                    3D
 Schrodinger Suite 2021-1.
 60 63  0  0  1  0            999 V2000
  -13.5787  -21.3602  -11.4092 C   0  0  0  0  0  0
  -12.9269  -20.1028  -11.4704 O   0  0  0  0  0  0
  -11.5565  -20.1609  -11.0790 C   0  0  0  0  0  0
  -10.8418  -18.8293  -11.3701 C   0  0  0  0  0  0
  -11.6329  -17.5560  -11.0168 C   0  0  0  0  0  0
  -11.5831  -17.1975   -9.5210 C   0  0  0  0  0  0
  -10.5857  -16.1670   -9.2666 N   0  0  0  0  0  0
   -9.2276  -16.3000   -9.4703 C   0  0  0  0  0  0
   -8.5525  -15.1178   -9.2209 C   0  0  0  0  0  0
   -7.0612  -14.8047   -9.3101 C   0  0  1  0  0  0
   -6.3178  -15.1602   -8.0037 C   0  0  0  0  0  0
   -6.4293  -15.2962  -10.5608 N   0  0  0  0  0  0
   -6.2404  -14.2614  -11.6013 C   0  0  0  0  0  0
   -7.0264  -14.3701  -12.9007 C   0  0  0  0  0  0
   -7.3361  -13.2624  -11.9408 C   0  0  0  0  0  0
   -6.0488  -16.5965  -10.7532 C   0  0  0  0  0  0
   -6.2684  -17.4825   -9.9239 O   0  0  0  0  0  0
   -5.3349  -17.0000  -12.0666 C   0  0  2  0  0  0
   -6.2667  -17.5252  -13.1565 C   0  0  0  0  0  0
   -5.7001  -18.8942  -13.5070 C   0  0  0  0  0  0
   -4.2787  -18.7822  -13.2207 N   0  0  2  0  0  0
   -4.2532  -18.0863  -11.9380 C   0  0  0  0  0  0
   -9.5790  -14.2002   -8.8210 C   0  0  0  0  0  0
   -9.5882  -12.8630   -8.4206 C   0  0  0  0  0  0
  -10.8000  -12.2855   -8.0386 C   0  0  0  0  0  0
  -10.8406  -11.0009   -7.6207 F   0  0  0  0  0  0
  -11.9649  -13.0499   -8.0861 C   0  0  0  0  0  0
  -12.0127  -14.3504   -8.4785 N   0  0  0  0  0  0
  -10.8292  -14.8830   -8.8210 C   0  0  0  0  0  0
  -14.6424  -21.2362  -11.6138 H   0  0  0  0  0  0
  -13.4693  -21.8070  -10.4211 H   0  0  0  0  0  0
  -13.1736  -22.0517  -12.1496 H   0  0  0  0  0  0
  -11.4748  -20.4050  -10.0214 H   0  0  0  0  0  0
  -11.0383  -20.9573  -11.6169 H   0  0  0  0  0  0
   -9.8678  -18.8351  -10.8841 H   0  0  0  0  0  0
  -10.6047  -18.7793  -12.4210 H   0  0  0  0  0  0
  -11.2590  -16.7281  -11.6210 H   0  0  0  0  0  0
  -12.6664  -17.6603  -11.3426 H   0  0  0  0  0  0
  -12.5593  -16.8481   -9.1806 H   0  0  0  0  0  0
  -11.3335  -18.0627   -8.9187 H   0  0  0  0  0  0
   -8.8290  -17.2465   -9.8008 H   0  0  0  0  0  0
   -6.9829  -13.7182   -9.3667 H   0  0  0  0  0  0
   -6.6761  -14.5510   -7.1731 H   0  0  0  0  0  0
   -6.4601  -16.2030   -7.7202 H   0  0  0  0  0  0
   -5.2461  -14.9843   -8.0983 H   0  0  0  0  0  0
   -5.2096  -13.9065  -11.6633 H   0  0  0  0  0  0
   -6.5093  -14.1387  -13.8318 H   0  0  0  0  0  0
   -7.7662  -15.1631  -13.0226 H   0  0  0  0  0  0
   -8.2684  -13.2870  -11.3801 H   0  0  0  0  0  0
   -7.0565  -12.2515  -12.2343 H   0  0  0  0  0  0
   -4.8269  -16.1287  -12.4777 H   0  0  0  0  0  0
   -7.2993  -17.6394  -12.8208 H   0  0  0  0  0  0
   -6.2690  -16.8688  -14.0224 H   0  0  0  0  0  0
   -6.1682  -19.6828  -12.9135 H   0  0  0  0  0  0
   -5.8686  -19.1252  -14.5599 H   0  0  0  0  0  0
   -3.8827  -18.1427  -13.8988 H   0  0  0  0  0  0
   -3.2627  -17.6566  -11.7801 H   0  0  0  0  0  0
   -4.4548  -18.7912  -11.1281 H   0  0  0  0  0  0
   -8.6635  -12.3129   -8.3474 H   0  0  0  0  0  0
  -12.9066  -12.6081   -7.7950 H   0  0  0  0  0  0
  1  2  1  0  0  0
  1 30  1  0  0  0
  1 31  1  0  0  0
  1 32  1  0  0  0
  2  3  1  0  0  0
  3  4  1  0  0  0
  3 33  1  0  0  0
  3 34  1  0  0  0
  4  5  1  0  0  0
  4 35  1  0  0  0
  4 36  1  0  0  0
  5  6  1  0  0  0
  5 37  1  0  0  0
  5 38  1  0  0  0
  6  7  1  0  0  0
  6 39  1  0  0  0
  6 40  1  0  0  0
  7  8  1  0  0  0
  7 29  1  0  0  0
  8  9  2  0  0  0
  8 41  1  0  0  0
  9 10  1  0  0  0
  9 23  1  0  0  0
 10 11  1  0  0  0
 10 12  1  0  0  0
 10 42  1  0  0  0
 11 43  1  0  0  0
 11 44  1  0  0  0
 11 45  1  0  0  0
 12 13  1  0  0  0
 12 16  1  0  0  0
 13 14  1  0  0  0
 13 15  1  0  0  0
 13 46  1  0  0  0
 14 15  1  0  0  0
 14 47  1  0  0  0
 14 48  1  0  0  0
 15 49  1  0  0  0
 15 50  1  0  0  0
 16 17  2  0  0  0
 16 18  1  0  0  0
 18 19  1  0  0  0
 18 22  1  0  0  0
 18 51  1  0  0  0
 19 20  1  0  0  0
 19 52  1  0  0  0
 19 53  1  0  0  0
 20 21  1  0  0  0
 20 54  1  0  0  0
 20 55  1  0  0  0
 21 22  1  0  0  0
 21 56  1  0  0  0
 22 57  1  0  0  0
 22 58  1  0  0  0
 23 24  2  0  0  0
 23 29  1  0  0  0
 24 25  1  0  0  0
 24 59  1  0  0  0
 25 26  1  0  0  0
 25 27  2  0  0  0
 27 28  1  0  0  0
 27 60  1  0  0  0
 28 29  2  0  0  0
M  END
> <s_m_entry_id>
26383

> <s_m_entry_name>
dock_pv.207

> <s_m_Source_Path>
/home/csk/Desktop/cluster/DUD-E-result/reni

> <s_m_Source_File>
dock_pv.maegz

> <i_m_Source_File_Index>
207

> <chembl_id>
CHEMBL3914750

> <chembl_pref_name>
None

> <i_lp_mmshare_version>
53161

> <r_lp_tautomer_probability>
1

> <s_lp_Force_Field>
OPLS_2005

> <r_lp_Energy>
55.24102

> <b_lp_Chiralities_Consistent>
1

> <s_lp_Variant>
CHEMBL286_lig2751-2

> <s_i_glide_gridfile>
glide-grid_3g6z

> <i_i_glide_lignum>
6837

> <i_i_glide_rotatable_bonds>
10

> <r_i_docking_score>
-7.10898464011038

> <r_i_glide_ligand_efficiency>
-0.245137401383116

> <r_i_glide_ligand_efficiency_sa>
-0.753139762028906

> <r_i_glide_ligand_efficiency_ln>
-1.62777721428878

> <r_i_glide_gscore>
-7.10898464011038

> <r_i_glide_lipo>
-2.98627708313886

> <r_i_glide_hbond>
-0.501044921744816

> <r_i_glide_metal>
0

> <r_i_glide_rewards>
-2.09727891852516

> <r_i_glide_evdw>
-33.7459030151367

> <r_i_glide_ecoul>
-6.17995595932007

> <r_i_glide_erotb>
1.09017412910924

> <r_i_glide_esite>
-0.000269301155932364

> <r_i_glide_emodel>
-53.2669995149544

> <r_i_glide_energy>
-39.9258589744568

> <r_i_glide_einternal>
8.2374963760376

> <i_i_glide_confnum>
71

> <i_i_glide_posenum>
317

> <r_i_glide_eff_state_penalty>
0

> <s_user_duplicate_titles>
CHEMBL286_lig2751

> <i_f3d_flags>
0

> <s_m_subgroup_title>
dock_pv

> <s_m_subgroupid>
dock_pv

> <b_m_subgroup_collapsed>
1

$$$$
CHEMBL286_lig2022
                    3D
 Schrodinger Suite 2021-1.
 46 48  0  0  1  0            999 V2000
  -10.1968  -18.2675  -10.7847 C   0  0  0  0  0  0
   -9.4809  -16.2863   -9.7459 C   0  0  1  0  0  0
  -10.2550  -16.8633  -10.8201 N   0  0  0  0  0  0
  -10.4873  -15.4830   -8.8638 C   0  0  0  0  0  0
  -11.5085  -16.1455   -8.1588 C   0  0  0  0  0  0
  -12.4735  -15.4358   -7.4535 C   0  0  0  0  0  0
  -12.4557  -14.0434   -7.4381 C   0  0  0  0  0  0
  -11.4335  -13.3680   -8.1144 C   0  0  0  0  0  0
  -10.4690  -14.0808   -8.8209 C   0  0  0  0  0  0
  -10.8123  -18.9794  -11.6174 N   0  0  0  0  0  0
   -9.4198  -18.6074   -9.7232 N   0  0  0  0  0  0
   -8.9632  -17.5421   -9.0284 C   0  0  0  0  0  0
   -9.0700  -19.9680   -9.2972 C   0  0  0  0  0  0
   -8.2688  -17.5455   -8.0096 O   0  0  0  0  0  0
   -8.2382  -15.5040  -10.2801 C   0  0  0  0  0  0
   -7.4156  -14.7870   -9.3909 C   0  0  0  0  0  0
   -6.2975  -14.0647   -9.8428 C   0  0  0  0  0  0
   -5.9879  -14.0812  -11.2060 C   0  0  0  0  0  0
   -6.7621  -14.8167  -12.0968 C   0  0  0  0  0  0
   -7.8688  -15.5247  -11.6396 C   0  0  0  0  0  0
  -13.4664  -13.4198   -6.7359 O   0  0  0  0  0  0
  -13.8909  -12.1158   -7.1256 C   0  0  0  0  0  0
  -13.0064  -11.1660   -6.8213 F   0  0  0  0  0  0
  -14.2484  -12.0618   -8.4095 F   0  0  0  0  0  0
   -5.4671  -13.3163   -9.0308 O   0  0  0  0  0  0
   -5.7534  -13.1705   -7.6438 C   0  0  0  0  0  0
   -4.7547  -12.1661   -7.0498 C   0  0  0  0  0  0
   -4.8973  -10.9340   -7.5376 F   0  0  0  0  0  0
   -3.4876  -12.5428   -7.2191 F   0  0  0  0  0  0
   -4.9236  -13.3869  -11.6715 F   0  0  0  0  0  0
  -11.5787  -17.2231   -8.1781 H   0  0  0  0  0  0
  -13.2582  -15.9641   -6.9326 H   0  0  0  0  0  0
  -11.3783  -12.2905   -8.1182 H   0  0  0  0  0  0
   -9.7211  -13.5143   -9.3527 H   0  0  0  0  0  0
  -11.2954  -18.4396  -12.3239 H   0  0  0  0  0  0
  -10.3144  -16.2891  -11.6470 H   0  0  0  0  0  0
   -9.7769  -20.7008   -9.6955 H   0  0  0  0  0  0
   -8.0728  -20.2280   -9.6588 H   0  0  0  0  0  0
   -9.0723  -20.0644   -8.2090 H   0  0  0  0  0  0
   -7.6624  -14.7984   -8.3398 H   0  0  0  0  0  0
   -6.5007  -14.8414  -13.1448 H   0  0  0  0  0  0
   -8.4330  -16.0855  -12.3724 H   0  0  0  0  0  0
  -14.7862  -11.8655   -6.5566 H   0  0  0  0  0  0
   -5.6588  -14.1345   -7.1422 H   0  0  0  0  0  0
   -6.7713  -12.8066   -7.4900 H   0  0  0  0  0  0
   -4.9094  -12.0802   -5.9759 H   0  0  0  0  0  0
  1 11  1  0  0  0
  1 10  2  0  0  0
  1  3  1  0  0  0
  2  3  1  0  0  0
  2 12  1  0  0  0
  2 15  1  0  0  0
  2  4  1  0  0  0
  3 36  1  0  0  0
  4  9  1  0  0  0
  4  5  2  0  0  0
  5  6  1  0  0  0
  5 31  1  0  0  0
  6  7  2  0  0  0
  6 32  1  0  0  0
  7  8  1  0  0  0
  7 21  1  0  0  0
  8  9  2  0  0  0
  8 33  1  0  0  0
  9 34  1  0  0  0
 10 35  1  0  0  0
 11 12  1  0  0  0
 11 13  1  0  0  0
 12 14  2  0  0  0
 13 37  1  0  0  0
 13 38  1  0  0  0
 13 39  1  0  0  0
 15 16  2  0  0  0
 15 20  1  0  0  0
 16 17  1  0  0  0
 16 40  1  0  0  0
 17 18  2  0  0  0
 17 25  1  0  0  0
 18 19  1  0  0  0
 18 30  1  0  0  0
 19 20  2  0  0  0
 19 41  1  0  0  0
 20 42  1  0  0  0
 21 22  1  0  0  0
 22 23  1  0  0  0
 22 24  1  0  0  0
 22 43  1  0  0  0
 25 26  1  0  0  0
 26 27  1  0  0  0
 26 44  1  0  0  0
 26 45  1  0  0  0
 27 28  1  0  0  0
 27 29  1  0  0  0
 27 46  1  0  0  0
M  END
> <s_m_entry_id>
26384

> <s_m_entry_name>
dock_pv.208

> <s_m_Source_Path>
/home/csk/Desktop/cluster/DUD-E-result/reni

> <s_m_Source_File>
dock_pv.maegz

> <i_m_Source_File_Index>
208

> <chembl_id>
CHEMBL1270339

> <chembl_pref_name>
None

> <i_lp_mmshare_version>
53161

> <r_lp_tautomer_probability>
0.499639836881432

> <s_lp_Force_Field>
OPLS_2005

> <r_lp_Energy>
30.312177

> <b_lp_Chiralities_Consistent>
1

> <s_lp_Variant>
CHEMBL286_lig2022-2

> <s_i_glide_gridfile>
glide-grid_3g6z

> <i_i_glide_lignum>
5823

> <i_i_glide_rotatable_bonds>
7

> <r_i_docking_score>
-7.10660859678188

> <r_i_glide_ligand_efficiency>
-0.236886953226063

> <r_i_glide_ligand_efficiency_sa>
-0.736062840465895

> <r_i_glide_ligand_efficiency_ln>
-1.61469890589138

> <r_i_glide_gscore>
-7.10660859678188

> <r_i_glide_lipo>
-3.01841517820587

> <r_i_glide_hbond>
-0.0621338758297959

> <r_i_glide_metal>
0

> <r_i_glide_rewards>
-2.48239267835821

> <r_i_glide_evdw>
-37.2370376586914

> <r_i_glide_ecoul>
-1.4376847743988

> <r_i_glide_erotb>
0.539012483767557

> <r_i_glide_esite>
-0.0051747490611642

> <r_i_glide_emodel>
-54.4225105446227

> <r_i_glide_energy>
-38.6747224330902

> <r_i_glide_einternal>
3.02722692489624

> <i_i_glide_confnum>
103

> <i_i_glide_posenum>
38

> <r_i_glide_eff_state_penalty>
0

> <s_user_duplicate_titles>
CHEMBL286_lig2022

> <i_f3d_flags>
0

> <s_m_subgroup_title>
dock_pv

> <s_m_subgroupid>
dock_pv

> <b_m_subgroup_collapsed>
1

$$$$
CHEMBL286_lig243
                    3D
 Schrodinger Suite 2021-1.
 91 92  0  0  1  0            999 V2000
  -11.4780  -15.7136   -8.9680 S   0  0  0  0  0  0
  -11.5449  -17.4530   -9.6849 C   0  0  0  0  0  0
   -7.2621  -17.0013  -11.5209 C   0  0  0  0  0  0
   -4.8297  -15.8166   -9.7430 C   0  0  0  0  0  0
   -1.0826  -15.8423  -10.6196 C   0  0  0  0  0  0
   -5.1921  -15.7222  -11.0371 N   0  0  0  0  0  0
   -6.5722  -15.6270  -11.5064 C   0  0  1  0  0  0
   -8.5204  -17.0288  -11.0488 N   0  0  0  0  0  0
   -2.4467  -15.5618  -10.5588 N   0  0  0  0  0  0
   -3.3150  -15.8751   -9.3923 C   0  0  1  0  0  0
  -10.9328  -17.5033  -11.1104 C   0  0  1  0  0  0
   -9.4901  -18.1134  -11.2594 C   0  0  2  0  0  0
  -10.0617  -15.3637   -8.8211 O   0  0  0  0  0  0
  -12.3566  -14.8630   -9.7673 O   0  0  0  0  0  0
   -0.5981  -16.3025   -9.4379 O   0  0  0  0  0  0
   -0.3952  -15.6629  -11.6214 O   0  0  0  0  0  0
   -6.6783  -17.9657  -12.0148 O   0  0  0  0  0  0
   -5.6525  -15.8664   -8.8263 O   0  0  0  0  0  0
  -12.2599  -15.8212   -7.2393 C   0  0  0  0  0  0
   -2.9943  -14.9724   -8.1517 C   0  0  0  0  0  0
   -9.1213  -19.3855  -10.4142 C   0  0  0  0  0  0
    0.7840  -16.2962   -9.0545 C   0  0  0  0  0  0
  -11.8703  -18.0622  -12.0141 O   0  0  0  0  0  0
   -3.2899  -13.4805   -8.2370 C   0  0  0  0  0  0
   -6.5624  -14.9989  -12.9169 C   0  0  0  0  0  0
   -9.4455  -20.7824  -11.0101 C   0  0  0  0  0  0
   -7.8690  -14.8629  -13.4353 O   0  0  0  0  0  0
    1.6164  -17.2631   -9.9272 C   0  0  0  0  0  0
    0.7484  -16.7644   -7.5866 C   0  0  0  0  0  0
    1.3769  -14.8672   -9.1041 C   0  0  0  0  0  0
  -13.7301  -16.2665   -7.3699 C   0  0  0  0  0  0
  -12.1497  -14.4350   -6.5751 C   0  0  0  0  0  0
   -2.4522  -12.6195   -8.9796 C   0  0  0  0  0  0
   -4.4527  -12.9537   -7.6346 C   0  0  0  0  0  0
   -8.7012  -21.8967  -10.2325 C   0  0  0  0  0  0
  -10.9502  -21.1406  -11.0297 C   0  0  0  0  0  0
   -4.7214  -11.5956   -7.7152 C   0  0  0  0  0  0
   -2.7473  -11.2643   -9.0598 C   0  0  0  0  0  0
  -11.2055  -22.5103  -11.6929 C   0  0  0  0  0  0
   -8.9103  -23.2863  -10.8711 C   0  0  0  0  0  0
  -10.4090  -23.6319  -10.9970 C   0  0  0  0  0  0
   -3.8704  -10.7535   -8.4206 C   0  0  0  0  0  0
  -12.5918  -17.7442   -9.6680 H   0  0  0  0  0  0
  -11.0146  -18.0569   -8.9677 H   0  0  0  0  0  0
   -4.4887  -15.7518  -11.7588 H   0  0  0  0  0  0
   -7.1179  -14.9581  -10.8376 H   0  0  0  0  0  0
   -8.8772  -16.1905  -10.6101 H   0  0  0  0  0  0
   -2.8405  -15.0361  -11.3247 H   0  0  0  0  0  0
   -3.1234  -16.9138   -9.1160 H   0  0  0  0  0  0
  -10.8969  -16.4760  -11.4771 H   0  0  0  0  0  0
   -9.3819  -18.3969  -12.3110 H   0  0  0  0  0  0
  -11.6787  -16.5572   -6.6847 H   0  0  0  0  0  0
   -1.9477  -15.0563   -7.8681 H   0  0  0  0  0  0
   -3.5284  -15.3674   -7.2849 H   0  0  0  0  0  0
   -8.0384  -19.3845  -10.2868 H   0  0  0  0  0  0
   -9.4692  -19.3283   -9.3883 H   0  0  0  0  0  0
  -11.5113  -18.0635  -12.9175 H   0  0  0  0  0  0
   -6.0910  -14.0150  -12.8957 H   0  0  0  0  0  0
   -5.9824  -15.6121  -13.6095 H   0  0  0  0  0  0
   -9.0751  -20.8124  -12.0339 H   0  0  0  0  0  0
   -8.1840  -15.7397  -13.6922 H   0  0  0  0  0  0
    1.7572  -16.8815  -10.9383 H   0  0  0  0  0  0
    2.6081  -17.4296   -9.5049 H   0  0  0  0  0  0
    1.1275  -18.2313  -10.0228 H   0  0  0  0  0  0
    0.2976  -16.0098   -6.9407 H   0  0  0  0  0  0
    0.1434  -17.6627   -7.4632 H   0  0  0  0  0  0
    1.7463  -16.9740   -7.2016 H   0  0  0  0  0  0
    0.7475  -14.1577   -8.5655 H   0  0  0  0  0  0
    2.3662  -14.8355   -8.6506 H   0  0  0  0  0  0
    1.4737  -14.4973  -10.1249 H   0  0  0  0  0  0
  -14.2620  -16.2744   -6.4210 H   0  0  0  0  0  0
  -14.2692  -15.5827   -8.0210 H   0  0  0  0  0  0
  -13.8252  -17.2634   -7.7951 H   0  0  0  0  0  0
  -12.4559  -14.4629   -5.5297 H   0  0  0  0  0  0
  -11.1290  -14.0547   -6.6049 H   0  0  0  0  0  0
  -12.7740  -13.6998   -7.0834 H   0  0  0  0  0  0
   -1.5751  -13.0069   -9.4784 H   0  0  0  0  0  0
   -5.1286  -13.6020   -7.0946 H   0  0  0  0  0  0
   -7.6331  -21.6763  -10.2008 H   0  0  0  0  0  0
   -9.0144  -21.8997   -9.1888 H   0  0  0  0  0  0
  -11.3557  -21.1169  -10.0210 H   0  0  0  0  0  0
  -11.5190  -20.3907  -11.5638 H   0  0  0  0  0  0
   -5.6025  -11.1965   -7.2348 H   0  0  0  0  0  0
   -2.1017  -10.6055   -9.6216 H   0  0  0  0  0  0
  -10.9241  -22.4642  -12.7460 H   0  0  0  0  0  0
  -12.2706  -22.7434  -11.6741 H   0  0  0  0  0  0
   -8.4477  -23.3061  -11.8601 H   0  0  0  0  0  0
   -8.4020  -24.0493  -10.2785 H   0  0  0  0  0  0
  -10.5301  -24.5668  -11.5436 H   0  0  0  0  0  0
  -10.8245  -23.8059  -10.0035 H   0  0  0  0  0  0
   -4.0916   -9.6985   -8.4851 H   0  0  0  0  0  0
  1  2  1  0  0  0
  1 13  2  0  0  0
  1 14  2  0  0  0
  1 19  1  0  0  0
  2 11  1  0  0  0
  2 43  1  0  0  0
  2 44  1  0  0  0
  3  8  1  0  0  0
  3  7  1  0  0  0
  3 17  2  0  0  0
  4  6  1  0  0  0
  4 10  1  0  0  0
  4 18  2  0  0  0
  5  9  1  0  0  0
  5 15  1  0  0  0
  5 16  2  0  0  0
  6  7  1  0  0  0
  6 45  1  0  0  0
  7 25  1  0  0  0
  7 46  1  0  0  0
  8 12  1  0  0  0
  8 47  1  0  0  0
  9 10  1  0  0  0
  9 48  1  0  0  0
 10 20  1  0  0  0
 10 49  1  0  0  0
 11 12  1  0  0  0
 11 23  1  0  0  0
 11 50  1  0  0  0
 12 21  1  0  0  0
 12 51  1  0  0  0
 15 22  1  0  0  0
 19 31  1  0  0  0
 19 32  1  0  0  0
 19 52  1  0  0  0
 20 24  1  0  0  0
 20 53  1  0  0  0
 20 54  1  0  0  0
 21 26  1  0  0  0
 21 55  1  0  0  0
 21 56  1  0  0  0
 22 28  1  0  0  0
 22 29  1  0  0  0
 22 30  1  0  0  0
 23 57  1  0  0  0
 24 33  2  0  0  0
 24 34  1  0  0  0
 25 27  1  0  0  0
 25 58  1  0  0  0
 25 59  1  0  0  0
 26 35  1  0  0  0
 26 36  1  0  0  0
 26 60  1  0  0  0
 27 61  1  0  0  0
 28 62  1  0  0  0
 28 63  1  0  0  0
 28 64  1  0  0  0
 29 65  1  0  0  0
 29 66  1  0  0  0
 29 67  1  0  0  0
 30 68  1  0  0  0
 30 69  1  0  0  0
 30 70  1  0  0  0
 31 71  1  0  0  0
 31 72  1  0  0  0
 31 73  1  0  0  0
 32 74  1  0  0  0
 32 75  1  0  0  0
 32 76  1  0  0  0
 33 38  1  0  0  0
 33 77  1  0  0  0
 34 37  2  0  0  0
 34 78  1  0  0  0
 35 40  1  0  0  0
 35 79  1  0  0  0
 35 80  1  0  0  0
 36 39  1  0  0  0
 36 81  1  0  0  0
 36 82  1  0  0  0
 37 42  1  0  0  0
 37 83  1  0  0  0
 38 42  2  0  0  0
 38 84  1  0  0  0
 39 41  1  0  0  0
 39 85  1  0  0  0
 39 86  1  0  0  0
 40 41  1  0  0  0
 40 87  1  0  0  0
 40 88  1  0  0  0
 41 89  1  0  0  0
 41 90  1  0  0  0
 42 91  1  0  0  0
M  END
> <s_m_entry_id>
26385

> <s_m_entry_name>
dock_pv.209

> <s_m_Source_Path>
/home/csk/Desktop/cluster/DUD-E-result/reni

> <s_m_Source_File>
dock_pv.maegz

> <i_m_Source_File_Index>
209

> <chembl_id>
CHEMBL3142205

> <chembl_pref_name>
None

> <i_lp_mmshare_version>
53161

> <r_lp_tautomer_probability>
1

> <s_lp_Force_Field>
OPLS_2005

> <r_lp_Energy>
9.016728

> <b_lp_Chiralities_Consistent>
1

> <s_lp_Variant>
CHEMBL286_lig243-1

> <s_i_glide_gridfile>
glide-grid_3g6z

> <i_i_glide_lignum>
383

> <i_i_glide_rotatable_bonds>
21

> <r_i_docking_score>
-7.10274980165851

> <r_i_glide_ligand_efficiency>
-0.169113090515679

> <r_i_glide_ligand_efficiency_sa>
-0.587841607899208

> <r_i_glide_ligand_efficiency_ln>
-1.49920749523098

> <r_i_glide_gscore>
-7.10274980165851

> <r_i_glide_lipo>
-3.06150866450965

> <r_i_glide_hbond>
-0.664232057216973

> <r_i_glide_metal>
0

> <r_i_glide_rewards>
-0.0645111402174455

> <r_i_glide_evdw>
-48.5376205444336

> <r_i_glide_ecoul>
-10.2932319641113

> <r_i_glide_erotb>
0.718129401542283

> <r_i_glide_esite>
-0.0597615194183455

> <r_i_glide_emodel>
-73.016925365865

> <r_i_glide_energy>
-58.8308525085449

> <r_i_glide_einternal>
16.8299160003662

> <i_i_glide_confnum>
28

> <i_i_glide_posenum>
175

> <r_i_glide_eff_state_penalty>
0

> <s_user_duplicate_titles>
CHEMBL286_lig243

> <i_f3d_flags>
0

> <s_m_subgroup_title>
dock_pv

> <s_m_subgroupid>
dock_pv

> <b_m_subgroup_collapsed>
1

$$$$
CHEMBL286_lig2804
                    3D
 Schrodinger Suite 2021-1.
 46 48  0  0  1  0            999 V2000
   -5.0134  -13.7581  -10.8502 C   0  0  0  0  0  0
   -5.9472  -14.2362  -11.7583 C   0  0  0  0  0  0
   -7.1978  -14.6502  -11.2939 C   0  0  0  0  0  0
   -7.4922  -14.5753   -9.9086 C   0  0  0  0  0  0
   -6.4817  -14.0606   -9.0618 C   0  0  0  0  0  0
   -5.2656  -13.6644   -9.5282 N   0  0  0  0  0  0
   -3.7590  -13.3590  -11.2916 N   0  0  0  0  0  0
   -8.1758  -15.1730  -12.3458 C   0  0  0  0  0  0
   -9.7950  -12.8632   -8.5577 N   0  0  0  0  0  0
  -10.9982  -12.4494   -8.0436 C   0  0  0  0  0  0
  -11.8042  -13.5682   -7.8826 C   0  0  0  0  0  0
  -11.0694  -14.6857   -8.4207 C   0  0  0  0  0  0
  -11.3650  -16.0495   -8.5703 C   0  0  0  0  0  0
  -10.3916  -16.8986   -9.0868 C   0  0  0  0  0  0
   -9.1445  -16.4151   -9.4658 C   0  0  0  0  0  0
   -8.8017  -15.0617   -9.3742 C   0  0  0  0  0  0
   -9.7853  -14.2146   -8.8210 C   0  0  0  0  0  0
  -13.1888  -13.6358   -7.2799 C   0  0  0  0  0  0
  -11.2417  -10.9752   -7.7785 C   0  0  0  0  0  0
  -10.3778  -10.5166   -6.7462 O   0  0  0  0  0  0
  -10.5366   -9.1340   -6.4567 C   0  0  0  0  0  0
   -6.6544  -13.9548   -7.5400 C   0  0  0  0  0  0
   -5.7686  -12.9214   -6.8165 C   0  0  0  0  0  0
   -5.7028  -14.2957  -12.8095 H   0  0  0  0  0  0
   -3.5027  -13.5383  -12.2539 H   0  0  0  0  0  0
   -3.0743  -13.0765  -10.6068 H   0  0  0  0  0  0
   -7.6742  -15.9093  -12.9748 H   0  0  0  0  0  0
   -9.0636  -15.6629  -11.9532 H   0  0  0  0  0  0
   -8.4899  -14.3624  -13.0045 H   0  0  0  0  0  0
   -9.0383  -12.2152   -8.7191 H   0  0  0  0  0  0
  -12.3299  -16.4378   -8.2781 H   0  0  0  0  0  0
  -10.6071  -17.9497   -9.2089 H   0  0  0  0  0  0
   -8.4282  -17.1094   -9.8830 H   0  0  0  0  0  0
  -13.9214  -13.9432   -8.0207 H   0  0  0  0  0  0
  -13.2362  -14.3624   -6.4684 H   0  0  0  0  0  0
  -13.5224  -12.6812   -6.8692 H   0  0  0  0  0  0
  -11.0705  -10.3979   -8.6894 H   0  0  0  0  0  0
  -12.2790  -10.8016   -7.4900 H   0  0  0  0  0  0
   -9.8745   -8.8544   -5.6383 H   0  0  0  0  0  0
  -10.2841   -8.5125   -7.3174 H   0  0  0  0  0  0
  -11.5575   -8.9035   -6.1478 H   0  0  0  0  0  0
   -7.6766  -13.6781   -7.3118 H   0  0  0  0  0  0
   -6.5024  -14.9442   -7.1078 H   0  0  0  0  0  0
   -6.0396  -12.8630   -5.7625 H   0  0  0  0  0  0
   -4.7113  -13.1841   -6.8746 H   0  0  0  0  0  0
   -5.8932  -11.9244   -7.2417 H   0  0  0  0  0  0
  1  2  1  0  0  0
  1  6  2  0  0  0
  1  7  1  0  0  0
  2  3  2  0  0  0
  2 24  1  0  0  0
  3  4  1  0  0  0
  3  8  1  0  0  0
  4  5  2  0  0  0
  4 16  1  0  0  0
  5  6  1  0  0  0
  5 22  1  0  0  0
  7 25  1  0  0  0
  7 26  1  0  0  0
  8 27  1  0  0  0
  8 28  1  0  0  0
  8 29  1  0  0  0
  9 10  1  0  0  0
  9 17  1  0  0  0
  9 30  1  0  0  0
 10 11  2  0  0  0
 10 19  1  0  0  0
 11 12  1  0  0  0
 11 18  1  0  0  0
 12 13  1  0  0  0
 12 17  2  0  0  0
 13 14  2  0  0  0
 13 31  1  0  0  0
 14 15  1  0  0  0
 14 32  1  0  0  0
 15 16  2  0  0  0
 15 33  1  0  0  0
 16 17  1  0  0  0
 18 34  1  0  0  0
 18 35  1  0  0  0
 18 36  1  0  0  0
 19 20  1  0  0  0
 19 37  1  0  0  0
 19 38  1  0  0  0
 20 21  1  0  0  0
 21 39  1  0  0  0
 21 40  1  0  0  0
 21 41  1  0  0  0
 22 23  1  0  0  0
 22 42  1  0  0  0
 22 43  1  0  0  0
 23 44  1  0  0  0
 23 45  1  0  0  0
 23 46  1  0  0  0
M  END
> <s_m_entry_id>
26386

> <s_m_entry_name>
dock_pv.210

> <s_m_Source_Path>
/home/csk/Desktop/cluster/DUD-E-result/reni

> <s_m_Source_File>
dock_pv.maegz

> <i_m_Source_File_Index>
210

> <chembl_id>
CHEMBL4100169

> <chembl_pref_name>
None

> <i_lp_mmshare_version>
53161

> <r_lp_tautomer_probability>
0.999999772200052

> <s_lp_Force_Field>
OPLS_2005

> <r_lp_Energy>
10.133387

> <b_lp_Chiralities_Consistent>
1

> <s_lp_Variant>
CHEMBL286_lig2804-1

> <s_i_glide_gridfile>
glide-grid_3g6z

> <i_i_glide_lignum>
6902

> <i_i_glide_rotatable_bonds>
4

> <r_i_docking_score>
-7.10119200757984

> <r_i_glide_ligand_efficiency>
-0.308747478590428

> <r_i_glide_ligand_efficiency_sa>
-0.878036758558053

> <r_i_glide_ligand_efficiency_ln>
-1.71713261748194

> <r_i_glide_gscore>
-7.10119200757984

> <r_i_glide_lipo>
-3.47123198954338

> <r_i_glide_hbond>
-0.0640901456666126

> <r_i_glide_metal>
0

> <r_i_glide_rewards>
-1.99085096306099

> <r_i_glide_evdw>
-32.338809967041

> <r_i_glide_ecoul>
-2.2785313129425

> <r_i_glide_erotb>
0.386825036327341

> <r_i_glide_esite>
-0.00312375034277719

> <r_i_glide_emodel>
-46.7607887904778

> <r_i_glide_energy>
-34.6173412799835

> <r_i_glide_einternal>
2.07282972335815

> <i_i_glide_confnum>
6

> <i_i_glide_posenum>
48

> <r_i_glide_eff_state_penalty>
0

> <s_user_duplicate_titles>
CHEMBL286_lig2804

> <i_f3d_flags>
0

> <s_m_subgroup_title>
dock_pv

> <s_m_subgroupid>
dock_pv

> <b_m_subgroup_collapsed>
1

$$$$
CHEMBL286_lig1224
                    3D
 Schrodinger Suite 2021-1.
 90 93  0  0  1  0            999 V2000
  -10.6683  -15.7310   -8.4213 C   0  0  0  0  0  0
   -7.0262  -18.9282  -10.6742 C   0  0  0  0  0  0
   -7.4161  -16.2099   -8.8934 C   0  0  0  0  0  0
   -9.0565  -20.2374   -9.9839 C   0  0  2  0  0  0
  -10.0667  -19.6594  -11.0545 C   0  0  1  0  0  0
   -7.9359  -19.3076   -9.7563 N   0  0  0  0  0  0
   -6.7598  -16.5750  -10.0096 N   0  0  0  0  0  0
  -11.4690  -14.9335   -7.6676 N   0  0  0  0  0  0
   -6.0373  -17.8277  -10.2334 C   0  0  2  0  0  0
   -8.1826  -14.8873   -8.9234 C   0  0  2  0  0  0
  -11.4602  -20.3386  -11.2179 C   0  0  0  0  0  0
   -2.6661  -20.4989  -11.7077 N   0  0  0  0  0  0
   -6.1589  -13.2666   -8.8214 C   0  0  0  0  0  0
   -9.6521  -15.0884   -9.4000 C   0  0  0  0  0  0
   -3.9801  -18.6506  -11.6204 C   0  0  0  0  0  0
   -4.9362  -17.5344  -11.2774 C   0  0  0  0  0  0
   -7.4081  -13.7272   -9.6073 C   0  0  0  0  0  0
   -3.2946  -18.6832  -12.8216 N   0  0  0  0  0  0
   -2.5430  -19.7878  -12.8203 C   0  0  0  0  0  0
   -4.8275  -13.3705   -9.3531 C   0  0  0  0  0  0
   -3.5765  -19.7751  -10.9345 C   0  0  0  0  0  0
  -10.7747  -16.9582   -8.4430 O   0  0  0  0  0  0
   -7.4692  -16.8850   -7.8745 O   0  0  0  0  0  0
   -6.9646  -19.3937  -11.8106 O   0  0  0  0  0  0
   -8.5643  -21.7014  -10.2555 C   0  0  0  0  0  0
  -12.5230  -19.7019  -11.2207 O   0  0  0  0  0  0
   -3.7401  -12.8298   -8.5869 C   0  0  0  0  0  0
  -10.2736  -18.2563  -10.8838 O   0  0  0  0  0  0
  -11.3871  -21.6696  -11.4157 O   0  0  0  0  0  0
  -11.2674  -13.4793   -7.4749 C   0  0  0  0  0  0
  -12.5170  -15.5104   -6.8212 C   0  0  0  0  0  0
   -6.3553  -12.6347   -7.5897 C   0  0  0  0  0  0
   -5.2937  -12.1214   -6.8591 C   0  0  0  0  0  0
   -7.5913  -22.3891   -9.2522 C   0  0  0  0  0  0
   -4.5154  -13.9619  -10.6116 C   0  0  0  0  0  0
   -3.9979  -12.2135   -7.3408 C   0  0  0  0  0  0
   -2.4165  -12.9057   -9.0891 C   0  0  0  0  0  0
  -12.5625  -22.4369  -11.6440 C   0  0  0  0  0  0
   -8.1509  -22.4843   -7.8193 C   0  0  0  0  0  0
   -6.1512  -21.8427   -9.2625 C   0  0  0  0  0  0
  -12.5514  -12.7802   -7.9621 C   0  0  0  0  0  0
  -13.8346  -14.8673   -7.2928 C   0  0  0  0  0  0
   -3.2032  -14.0206  -11.0709 C   0  0  0  0  0  0
   -2.1618  -13.4955  -10.3200 C   0  0  0  0  0  0
  -13.7893  -13.3205   -7.2215 C   0  0  0  0  0  0
   -9.5728  -20.2693   -9.0284 H   0  0  0  0  0  0
   -9.5782  -19.7561  -12.0209 H   0  0  0  0  0  0
   -7.9198  -18.8243   -8.8677 H   0  0  0  0  0  0
   -6.8237  -15.9747  -10.8180 H   0  0  0  0  0  0
   -5.5649  -18.1448   -9.3026 H   0  0  0  0  0  0
   -8.2310  -14.5215   -7.9196 H   0  0  0  0  0  0
   -3.3575  -17.9928  -13.5584 H   0  0  0  0  0  0
  -10.0473  -14.1063   -9.6210 H   0  0  0  0  0  0
   -9.6710  -15.6631  -10.3299 H   0  0  0  0  0  0
   -5.3874  -17.1786  -12.2042 H   0  0  0  0  0  0
   -4.3166  -16.7197  -10.9060 H   0  0  0  0  0  0
   -8.0654  -12.8631   -9.6427 H   0  0  0  0  0  0
   -7.2159  -13.9294  -10.6567 H   0  0  0  0  0  0
   -1.8960  -20.0767  -13.6366 H   0  0  0  0  0  0
   -3.8694  -20.1146   -9.9534 H   0  0  0  0  0  0
   -9.4241  -22.3665  -10.2996 H   0  0  0  0  0  0
   -8.1221  -21.7435  -11.2502 H   0  0  0  0  0  0
  -10.5268  -18.0606   -9.9723 H   0  0  0  0  0  0
  -11.1648  -13.3171   -6.4016 H   0  0  0  0  0  0
  -10.3470  -13.0695   -7.8891 H   0  0  0  0  0  0
  -12.5427  -16.6028   -6.8277 H   0  0  0  0  0  0
  -12.2691  -15.2057   -5.8040 H   0  0  0  0  0  0
   -7.3537  -12.5215   -7.1947 H   0  0  0  0  0  0
   -5.4689  -11.6316   -5.9137 H   0  0  0  0  0  0
   -7.4973  -23.4192   -9.6049 H   0  0  0  0  0  0
   -5.2829  -14.3811  -11.2402 H   0  0  0  0  0  0
   -3.1795  -11.8013   -6.7679 H   0  0  0  0  0  0
   -1.6015  -12.4921   -8.5121 H   0  0  0  0  0  0
  -12.3087  -23.4971  -11.6905 H   0  0  0  0  0  0
  -13.2927  -22.2966  -10.8444 H   0  0  0  0  0  0
  -13.0293  -22.1574  -12.5901 H   0  0  0  0  0  0
   -8.3657  -21.5017   -7.4012 H   0  0  0  0  0  0
   -9.0684  -23.0688   -7.7927 H   0  0  0  0  0  0
   -7.4466  -22.9785   -7.1509 H   0  0  0  0  0  0
   -6.0754  -20.8860   -8.7490 H   0  0  0  0  0  0
   -5.4690  -22.5243   -8.7529 H   0  0  0  0  0  0
   -5.7860  -21.7179  -10.2832 H   0  0  0  0  0  0
  -12.4656  -11.7057   -7.8027 H   0  0  0  0  0  0
  -12.6604  -12.9077   -9.0407 H   0  0  0  0  0  0
  -14.0094  -15.1973   -8.3150 H   0  0  0  0  0  0
  -14.6671  -15.2630   -6.7111 H   0  0  0  0  0  0
   -2.9904  -14.4827  -12.0209 H   0  0  0  0  0  0
   -1.1510  -13.5446  -10.6982 H   0  0  0  0  0  0
  -14.6953  -12.8703   -7.6287 H   0  0  0  0  0  0
  -13.7472  -13.0118   -6.1772 H   0  0  0  0  0  0
  1  8  1  0  0  0
  1 14  1  0  0  0
  1 22  2  0  0  0
  2  9  1  0  0  0
  2  6  1  0  0  0
  2 24  2  0  0  0
  3 10  1  0  0  0
  3  7  1  0  0  0
  3 23  2  0  0  0
  4  6  1  0  0  0
  4  5  1  0  0  0
  4 25  1  0  0  0
  4 46  1  0  0  0
  5 11  1  0  0  0
  5 28  1  0  0  0
  5 47  1  0  0  0
  6 48  1  0  0  0
  7  9  1  0  0  0
  7 49  1  0  0  0
  8 30  1  0  0  0
  8 31  1  0  0  0
  9 16  1  0  0  0
  9 50  1  0  0  0
 10 14  1  0  0  0
 10 17  1  0  0  0
 10 51  1  0  0  0
 11 26  2  0  0  0
 11 29  1  0  0  0
 12 19  2  0  0  0
 12 21  1  0  0  0
 13 17  1  0  0  0
 13 20  2  0  0  0
 13 32  1  0  0  0
 14 53  1  0  0  0
 14 54  1  0  0  0
 15 21  2  0  0  0
 15 16  1  0  0  0
 15 18  1  0  0  0
 16 55  1  0  0  0
 16 56  1  0  0  0
 17 57  1  0  0  0
 17 58  1  0  0  0
 18 52  1  0  0  0
 18 19  1  0  0  0
 19 59  1  0  0  0
 20 27  1  0  0  0
 20 35  1  0  0  0
 21 60  1  0  0  0
 25 34  1  0  0  0
 25 61  1  0  0  0
 25 62  1  0  0  0
 27 37  1  0  0  0
 27 36  2  0  0  0
 28 63  1  0  0  0
 29 38  1  0  0  0
 30 41  1  0  0  0
 30 64  1  0  0  0
 30 65  1  0  0  0
 31 42  1  0  0  0
 31 66  1  0  0  0
 31 67  1  0  0  0
 32 33  2  0  0  0
 32 68  1  0  0  0
 33 36  1  0  0  0
 33 69  1  0  0  0
 34 39  1  0  0  0
 34 40  1  0  0  0
 34 70  1  0  0  0
 35 43  2  0  0  0
 35 71  1  0  0  0
 36 72  1  0  0  0
 37 44  2  0  0  0
 37 73  1  0  0  0
 38 74  1  0  0  0
 38 75  1  0  0  0
 38 76  1  0  0  0
 39 77  1  0  0  0
 39 78  1  0  0  0
 39 79  1  0  0  0
 40 80  1  0  0  0
 40 81  1  0  0  0
 40 82  1  0  0  0
 41 45  1  0  0  0
 41 83  1  0  0  0
 41 84  1  0  0  0
 42 45  1  0  0  0
 42 85  1  0  0  0
 42 86  1  0  0  0
 43 44  1  0  0  0
 43 87  1  0  0  0
 44 88  1  0  0  0
 45 89  1  0  0  0
 45 90  1  0  0  0
M  END
> <s_m_entry_id>
26387

> <s_m_entry_name>
dock_pv.211

> <s_m_Source_Path>
/home/csk/Desktop/cluster/DUD-E-result/reni

> <s_m_Source_File>
dock_pv.maegz

> <i_m_Source_File_Index>
211

> <chembl_id>
CHEMBL159336

> <chembl_pref_name>
None

> <i_lp_mmshare_version>
53161

> <r_lp_tautomer_probability>
0.499999999999999

> <s_lp_Force_Field>
OPLS_2005

> <r_lp_Energy>
43.024092

> <b_lp_Chiralities_Consistent>
1

> <s_lp_Variant>
CHEMBL286_lig1224-20

> <s_i_glide_gridfile>
glide-grid_3g6z

> <i_i_glide_lignum>
3980

> <i_i_glide_rotatable_bonds>
19

> <r_i_docking_score>
-7.0988024910912

> <r_i_glide_ligand_efficiency>
-0.157751166468693

> <r_i_glide_ligand_efficiency_sa>
-0.561104067076015

> <r_i_glide_ligand_efficiency_ln>
-1.47686726625784

> <r_i_glide_gscore>
-7.0988024910912

> <r_i_glide_lipo>
-3.29381778457118

> <r_i_glide_hbond>
-0.301783544823084

> <r_i_glide_metal>
0

> <r_i_glide_rewards>
-1.71787024467785

> <r_i_glide_evdw>
-41.0113830566406

> <r_i_glide_ecoul>
-2.08284735679626

> <r_i_glide_erotb>
0.582473839846423

> <r_i_glide_esite>
-0.00480850051403558

> <r_i_glide_emodel>
-48.9119204888067

> <r_i_glide_energy>
-43.0942304134369

> <r_i_glide_einternal>
16.0422210693359

> <i_i_glide_confnum>
170

> <i_i_glide_posenum>
106

> <r_i_glide_eff_state_penalty>
0

> <s_user_duplicate_titles>
CHEMBL286_lig1224,CHEMBL286_lig1224

> <i_f3d_flags>
0

> <s_m_subgroup_title>
dock_pv

> <s_m_subgroupid>
dock_pv

> <b_m_subgroup_collapsed>
1

$$$$
CHEMBL286_lig570
                    3D
 Schrodinger Suite 2021-1.
 87 88  0  0  1  0            999 V2000
  -11.2370  -18.5543  -11.1181 P   0  0  2  0  0  0
   -7.6589  -19.1814  -10.4340 C   0  0  0  0  0  0
   -6.9808  -18.5326  -11.3971 N   0  0  0  0  0  0
   -8.9604  -19.8887  -10.8538 C   0  0  1  0  0  0
   -9.7464  -18.9792  -11.6211 O   0  0  0  0  0  0
   -5.8024  -14.0452  -11.2774 C   0  0  0  0  0  0
   -5.7506  -17.7382  -11.2412 C   0  0  2  0  0  0
   -6.5694  -15.9080  -12.9562 C   0  0  0  0  0  0
   -5.4624  -16.9049  -12.5288 C   0  0  2  0  0  0
   -6.9735  -14.7622  -11.9856 C   0  0  1  0  0  0
  -12.1280  -19.7061  -10.8210 O   0  0  0  0  0  0
   -7.2997  -19.2138   -9.2573 O   0  0  0  0  0  0
   -4.5282  -18.5908  -10.7883 C   0  0  0  0  0  0
   -5.5786  -14.2332  -10.0805 O   0  0  0  0  0  0
  -11.7656  -17.6630  -12.3551 O   0  0  0  0  0  0
   -5.0902  -13.1840  -12.0212 N   0  0  0  0  0  0
  -10.8127  -17.3142   -9.7981 C   0  0  0  0  0  0
   -5.2580  -17.7887  -13.6210 O   0  0  0  0  0  0
   -3.3010  -17.7422  -10.3473 C   0  0  0  0  0  0
   -8.7119  -21.1634  -11.6807 C   0  0  0  0  0  0
  -12.0274  -14.2367   -8.6753 C   0  0  0  0  0  0
  -11.9581  -16.8756   -8.8570 C   0  0  0  0  0  0
   -8.0871  -15.1897  -11.0105 C   0  0  0  0  0  0
  -12.6312  -15.5323   -9.2170 C   0  0  0  0  0  0
   -4.0533  -12.2828  -11.5235 C   0  0  0  0  0  0
  -10.6528  -14.0905   -8.5024 C   0  0  0  0  0  0
  -12.8692  -13.1482   -8.4205 C   0  0  0  0  0  0
   -2.7028  -18.2290   -9.0050 C   0  0  0  0  0  0
   -2.1671  -17.7574  -11.4023 C   0  0  0  0  0  0
   -2.7461  -12.9721  -11.0842 C   0  0  0  0  0  0
   -1.6696  -11.9919  -10.5774 C   0  0  0  0  0  0
   -2.0322  -11.2638   -9.2733 C   0  0  0  0  0  0
  -12.3449  -11.9237   -8.0223 C   0  0  0  0  0  0
  -10.1236  -12.8617   -8.1228 C   0  0  0  0  0  0
   -1.5870  -17.2762   -8.5271 C   0  0  0  0  0  0
   -1.0275  -16.7978  -11.0010 C   0  0  0  0  0  0
   -0.4754  -17.1281   -9.5929 C   0  0  0  0  0  0
  -10.9683  -11.7824   -7.8837 C   0  0  0  0  0  0
   -7.3911  -18.5254  -12.3207 H   0  0  0  0  0  0
   -9.4816  -20.1846   -9.9404 H   0  0  0  0  0  0
   -5.9372  -17.0286  -10.4375 H   0  0  0  0  0  0
   -7.4687  -16.4631  -13.2212 H   0  0  0  0  0  0
   -6.2648  -15.4357  -13.8907 H   0  0  0  0  0  0
   -4.5404  -16.3373  -12.4029 H   0  0  0  0  0  0
   -7.4377  -13.9987  -12.6135 H   0  0  0  0  0  0
   -4.8326  -19.2214   -9.9515 H   0  0  0  0  0  0
   -4.2581  -19.3008  -11.5749 H   0  0  0  0  0  0
  -11.5769  -18.0616  -13.2392 H   0  0  0  0  0  0
   -5.2570  -13.1732  -13.0178 H   0  0  0  0  0  0
  -10.0200  -17.7505   -9.1911 H   0  0  0  0  0  0
  -10.3836  -16.4521  -10.2894 H   0  0  0  0  0  0
   -5.9839  -17.6738  -14.2512 H   0  0  0  0  0  0
   -3.6157  -16.7056  -10.2021 H   0  0  0  0  0  0
   -8.1073  -21.8871  -11.1288 H   0  0  0  0  0  0
   -9.6536  -21.6502  -11.9310 H   0  0  0  0  0  0
   -8.1979  -20.9466  -12.6193 H   0  0  0  0  0  0
  -12.7176  -17.6566   -8.8464 H   0  0  0  0  0  0
  -11.5991  -16.8272   -7.8262 H   0  0  0  0  0  0
   -8.4905  -14.3301  -10.4733 H   0  0  0  0  0  0
   -8.8953  -15.6633  -11.5657 H   0  0  0  0  0  0
   -7.7552  -15.8974  -10.2548 H   0  0  0  0  0  0
  -12.6694  -15.4419  -10.3018 H   0  0  0  0  0  0
  -13.6419  -15.5786   -8.8173 H   0  0  0  0  0  0
   -4.4557  -11.6779  -10.7101 H   0  0  0  0  0  0
   -3.8288  -11.5600  -12.3073 H   0  0  0  0  0  0
   -9.9778  -14.9129   -8.6878 H   0  0  0  0  0  0
  -13.9335  -13.2372   -8.5526 H   0  0  0  0  0  0
   -3.4854  -18.2706   -8.2442 H   0  0  0  0  0  0
   -2.3431  -19.2592   -9.0931 H   0  0  0  0  0  0
   -1.8014  -18.7747  -11.5527 H   0  0  0  0  0  0
   -2.5668  -17.4721  -12.3762 H   0  0  0  0  0  0
   -2.3423  -13.5315  -11.9314 H   0  0  0  0  0  0
   -2.9526  -13.7119  -10.3091 H   0  0  0  0  0  0
   -1.4389  -11.2621  -11.3562 H   0  0  0  0  0  0
   -0.7457  -12.5514  -10.4189 H   0  0  0  0  0  0
   -1.1947  -10.6629   -8.9213 H   0  0  0  0  0  0
   -2.2867  -11.9699   -8.4838 H   0  0  0  0  0  0
   -2.8796  -10.5919   -9.4054 H   0  0  0  0  0  0
  -13.0008  -11.0850   -7.8376 H   0  0  0  0  0  0
   -9.0559  -12.7446   -8.0221 H   0  0  0  0  0  0
   -2.0117  -16.2942   -8.2995 H   0  0  0  0  0  0
   -1.1588  -17.6437   -7.5927 H   0  0  0  0  0  0
   -1.3946  -15.7705  -11.0146 H   0  0  0  0  0  0
   -0.2238  -16.8441  -11.7369 H   0  0  0  0  0  0
    0.2416  -16.3643   -9.2845 H   0  0  0  0  0  0
    0.0856  -18.0620   -9.6391 H   0  0  0  0  0  0
  -10.5559  -10.8277   -7.5918 H   0  0  0  0  0  0
  1  5  1  0  0  0
  1 11  2  0  0  0
  1 15  1  0  0  0
  1 17  1  0  0  0
  2  4  1  0  0  0
  2  3  1  0  0  0
  2 12  2  0  0  0
  3  7  1  0  0  0
  3 39  1  0  0  0
  4  5  1  0  0  0
  4 20  1  0  0  0
  4 40  1  0  0  0
  6 10  1  0  0  0
  6 14  2  0  0  0
  6 16  1  0  0  0
  7  9  1  0  0  0
  7 13  1  0  0  0
  7 41  1  0  0  0
  8  9  1  0  0  0
  8 10  1  0  0  0
  8 42  1  0  0  0
  8 43  1  0  0  0
  9 18  1  0  0  0
  9 44  1  0  0  0
 10 23  1  0  0  0
 10 45  1  0  0  0
 13 19  1  0  0  0
 13 46  1  0  0  0
 13 47  1  0  0  0
 15 48  1  0  0  0
 16 25  1  0  0  0
 16 49  1  0  0  0
 17 22  1  0  0  0
 17 50  1  0  0  0
 17 51  1  0  0  0
 18 52  1  0  0  0
 19 28  1  0  0  0
 19 29  1  0  0  0
 19 53  1  0  0  0
 20 54  1  0  0  0
 20 55  1  0  0  0
 20 56  1  0  0  0
 21 24  1  0  0  0
 21 26  2  0  0  0
 21 27  1  0  0  0
 22 24  1  0  0  0
 22 57  1  0  0  0
 22 58  1  0  0  0
 23 59  1  0  0  0
 23 60  1  0  0  0
 23 61  1  0  0  0
 24 62  1  0  0  0
 24 63  1  0  0  0
 25 30  1  0  0  0
 25 64  1  0  0  0
 25 65  1  0  0  0
 26 34  1  0  0  0
 26 66  1  0  0  0
 27 33  2  0  0  0
 27 67  1  0  0  0
 28 35  1  0  0  0
 28 68  1  0  0  0
 28 69  1  0  0  0
 29 36  1  0  0  0
 29 70  1  0  0  0
 29 71  1  0  0  0
 30 31  1  0  0  0
 30 72  1  0  0  0
 30 73  1  0  0  0
 31 32  1  0  0  0
 31 74  1  0  0  0
 31 75  1  0  0  0
 32 76  1  0  0  0
 32 77  1  0  0  0
 32 78  1  0  0  0
 33 38  1  0  0  0
 33 79  1  0  0  0
 34 38  2  0  0  0
 34 80  1  0  0  0
 35 37  1  0  0  0
 35 81  1  0  0  0
 35 82  1  0  0  0
 36 37  1  0  0  0
 36 83  1  0  0  0
 36 84  1  0  0  0
 37 85  1  0  0  0
 37 86  1  0  0  0
 38 87  1  0  0  0
M  END
> <s_m_entry_id>
26388

> <s_m_entry_name>
dock_pv.212

> <s_m_Source_Path>
/home/csk/Desktop/cluster/DUD-E-result/reni

> <s_m_Source_File>
dock_pv.maegz

> <i_m_Source_File_Index>
212

> <chembl_id>
CHEMBL146460

> <chembl_pref_name>
None

> <i_lp_mmshare_version>
53161

> <r_lp_tautomer_probability>
1

> <s_lp_Force_Field>
OPLS_2005

> <r_lp_Energy>
8.016797

> <b_lp_Chiralities_Consistent>
1

> <s_lp_Variant>
CHEMBL286_lig570-1

> <s_i_glide_gridfile>
glide-grid_3g6z

> <i_i_glide_lignum>
1608

> <i_i_glide_rotatable_bonds>
21

> <r_i_docking_score>
-7.09639647200396

> <r_i_glide_ligand_efficiency>
-0.186747275579052

> <r_i_glide_ligand_efficiency_sa>
-0.627839747022206

> <r_i_glide_ligand_efficiency_ln>
-1.53019183419821

> <r_i_glide_gscore>
-7.09639647200396

> <r_i_glide_lipo>
-3.23941723466901

> <r_i_glide_hbond>
-0.0986630784292683

> <r_i_glide_metal>
0

> <r_i_glide_rewards>
-0.737506093949773

> <r_i_glide_evdw>
-41.9492721557617

> <r_i_glide_ecoul>
-12.7779598236084

> <r_i_glide_erotb>
1.0151324177254

> <r_i_glide_esite>
-0.0217849013519676

> <r_i_glide_emodel>
-65.3930034507468

> <r_i_glide_energy>
-54.7272319793701

> <r_i_glide_einternal>
15.5971765518188

> <i_i_glide_confnum>
31

> <i_i_glide_posenum>
261

> <r_i_glide_eff_state_penalty>
0

> <s_user_duplicate_titles>
CHEMBL286_lig570,243067

> <i_f3d_flags>
0

> <s_m_subgroup_title>
dock_pv

> <s_m_subgroupid>
dock_pv

> <b_m_subgroup_collapsed>
1

$$$$
CHEMBL286_lig491
                    3D
 Schrodinger Suite 2021-1.
 80 85  0  0  1  0            999 V2000
   -7.8375  -20.6915  -11.7478 C   0  0  2  0  0  0
  -10.8145  -23.7448  -12.8595 N   0  0  0  0  0  0
   -9.7482  -22.3158  -11.5780 N   0  0  0  0  0  0
  -11.0387  -21.9787  -11.4709 N   0  0  0  0  0  0
   -7.2705  -19.4461  -11.0081 C   0  0  2  0  0  0
  -11.6055  -22.8711  -12.2543 C   0  0  0  0  0  0
   -9.6368  -23.3893  -12.4163 C   0  0  0  0  0  0
   -8.7211  -21.5914  -10.8338 C   0  0  0  0  0  0
   -5.7759  -20.7053  -13.2336 N   0  0  1  0  0  0
   -8.3510  -18.5723  -10.3498 C   0  0  0  0  0  0
   -5.5222  -13.9842   -8.9620 C   0  0  0  0  0  0
   -5.7570  -17.5737  -11.1711 O   0  0  0  0  0  0
   -6.3284  -18.6387  -11.9311 C   0  0  1  0  0  0
   -5.8210  -15.0366   -9.8617 C   0  0  0  0  0  0
   -4.3567  -13.1889   -9.1815 C   0  0  0  0  0  0
   -8.3867  -18.4335   -8.9623 C   0  0  0  0  0  0
   -9.3093  -17.9163  -11.1290 C   0  0  0  0  0  0
   -6.6841  -21.4983  -12.4047 C   0  0  0  0  0  0
   -3.5289  -13.4768  -10.2967 C   0  0  0  0  0  0
   -4.9852  -15.3031  -10.9502 C   0  0  0  0  0  0
   -5.3243  -16.4354  -11.9120 C   0  0  0  0  0  0
  -10.3395  -17.0098   -9.1268 C   0  0  0  0  0  0
   -3.8507  -14.5205  -11.1631 C   0  0  0  0  0  0
  -10.2904  -17.1402  -10.5169 C   0  0  0  0  0  0
   -9.3694  -17.6633   -8.3501 C   0  0  0  0  0  0
   -5.2252  -19.5447  -12.5260 C   0  0  0  0  0  0
  -12.1297  -14.7315   -6.9236 C   0  0  0  0  0  0
  -11.3620  -16.2211   -8.6308 O   0  0  0  0  0  0
  -12.0845  -11.3729   -7.5798 C   0  0  0  0  0  0
  -13.8516  -13.0401   -7.3759 O   0  0  0  0  0  0
   -6.3495  -13.6997   -7.8491 C   0  0  0  0  0  0
  -11.6576  -16.1549   -7.2346 C   0  0  0  0  0  0
  -13.4663  -14.3912   -7.6037 C   0  0  0  0  0  0
  -13.2650  -12.0709   -8.2389 C   0  0  0  0  0  0
   -4.0624  -12.1307   -8.2824 C   0  0  0  0  0  0
  -10.7823  -11.5862   -8.0351 C   0  0  0  0  0  0
  -12.3144  -10.4623   -6.5521 C   0  0  0  0  0  0
   -6.0305  -12.6576   -6.9830 C   0  0  0  0  0  0
   -4.9001  -11.8773   -7.1993 C   0  0  0  0  0  0
  -11.2601   -9.7234   -6.0208 C   0  0  0  0  0  0
   -9.7254  -10.8612   -7.4927 C   0  0  0  0  0  0
   -9.9671   -9.9313   -6.4874 C   0  0  0  0  0  0
   -8.4289  -20.2747  -12.5622 H   0  0  0  0  0  0
   -6.6629  -19.8262  -10.1839 H   0  0  0  0  0  0
  -12.6747  -22.8891  -12.4099 H   0  0  0  0  0  0
   -8.6764  -23.8278  -12.6521 H   0  0  0  0  0  0
   -8.1150  -22.3218  -10.2951 H   0  0  0  0  0  0
   -9.2267  -21.0101  -10.0616 H   0  0  0  0  0  0
   -5.0323  -21.3134  -13.5523 H   0  0  0  0  0  0
   -6.9176  -18.2075  -12.7444 H   0  0  0  0  0  0
   -6.7035  -15.6386   -9.6960 H   0  0  0  0  0  0
   -7.6523  -18.9302   -8.3488 H   0  0  0  0  0  0
   -9.2977  -18.0067  -12.2072 H   0  0  0  0  0  0
   -6.1100  -22.0229  -11.6394 H   0  0  0  0  0  0
   -7.1012  -22.2811  -13.0369 H   0  0  0  0  0  0
   -2.6450  -12.8821  -10.4753 H   0  0  0  0  0  0
   -4.4563  -16.6998  -12.5170 H   0  0  0  0  0  0
   -6.1071  -16.0812  -12.5854 H   0  0  0  0  0  0
   -3.2127  -14.7166  -12.0145 H   0  0  0  0  0  0
  -11.0280  -16.6389  -11.1264 H   0  0  0  0  0  0
   -9.3440  -17.6029   -7.2755 H   0  0  0  0  0  0
   -4.6203  -18.9710  -13.2300 H   0  0  0  0  0  0
   -4.5505  -19.8844  -11.7373 H   0  0  0  0  0  0
  -11.3527  -14.0410   -7.2405 H   0  0  0  0  0  0
  -12.2300  -14.5926   -5.8461 H   0  0  0  0  0  0
   -7.2311  -14.3004   -7.6732 H   0  0  0  0  0  0
  -10.8246  -16.3858   -6.5782 H   0  0  0  0  0  0
  -12.4485  -16.8636   -6.9953 H   0  0  0  0  0  0
  -14.2464  -15.0276   -7.1836 H   0  0  0  0  0  0
  -13.4436  -14.6189   -8.6708 H   0  0  0  0  0  0
  -14.0281  -11.3144   -8.4192 H   0  0  0  0  0  0
  -13.0014  -12.4717   -9.2217 H   0  0  0  0  0  0
   -3.1839  -11.5241   -8.4432 H   0  0  0  0  0  0
  -10.5923  -12.3026   -8.8219 H   0  0  0  0  0  0
  -13.3201  -10.2882   -6.1985 H   0  0  0  0  0  0
   -6.6671  -12.4635   -6.1332 H   0  0  0  0  0  0
   -4.6679  -11.0730   -6.5146 H   0  0  0  0  0  0
  -11.4442   -8.9925   -5.2475 H   0  0  0  0  0  0
   -8.7164  -11.0212   -7.8461 H   0  0  0  0  0  0
   -9.1494   -9.3680   -6.0659 H   0  0  0  0  0  0
  1  5  1  0  0  0
  1  8  1  0  0  0
  1 18  1  0  0  0
  1 43  1  0  0  0
  2  7  2  0  0  0
  2  6  1  0  0  0
  3  8  1  0  0  0
  3  4  1  0  0  0
  3  7  1  0  0  0
  4  6  2  0  0  0
  5 10  1  0  0  0
  5 13  1  0  0  0
  5 44  1  0  0  0
  6 45  1  0  0  0
  7 46  1  0  0  0
  8 47  1  0  0  0
  8 48  1  0  0  0
  9 18  1  0  0  0
  9 26  1  0  0  0
  9 49  1  0  0  0
 10 16  2  0  0  0
 10 17  1  0  0  0
 11 14  2  0  0  0
 11 31  1  0  0  0
 11 15  1  0  0  0
 12 13  1  0  0  0
 12 21  1  0  0  0
 13 26  1  0  0  0
 13 50  1  0  0  0
 14 20  1  0  0  0
 14 51  1  0  0  0
 15 19  2  0  0  0
 15 35  1  0  0  0
 16 25  1  0  0  0
 16 52  1  0  0  0
 17 24  2  0  0  0
 17 53  1  0  0  0
 18 54  1  0  0  0
 18 55  1  0  0  0
 19 23  1  0  0  0
 19 56  1  0  0  0
 20 21  1  0  0  0
 20 23  2  0  0  0
 21 57  1  0  0  0
 21 58  1  0  0  0
 22 24  1  0  0  0
 22 28  1  0  0  0
 22 25  2  0  0  0
 23 59  1  0  0  0
 24 60  1  0  0  0
 25 61  1  0  0  0
 26 62  1  0  0  0
 26 63  1  0  0  0
 27 32  1  0  0  0
 27 33  1  0  0  0
 27 64  1  0  0  0
 27 65  1  0  0  0
 28 32  1  0  0  0
 29 34  1  0  0  0
 29 36  2  0  0  0
 29 37  1  0  0  0
 30 33  1  0  0  0
 30 34  1  0  0  0
 31 38  2  0  0  0
 31 66  1  0  0  0
 32 67  1  0  0  0
 32 68  1  0  0  0
 33 69  1  0  0  0
 33 70  1  0  0  0
 34 71  1  0  0  0
 34 72  1  0  0  0
 35 39  2  0  0  0
 35 73  1  0  0  0
 36 41  1  0  0  0
 36 74  1  0  0  0
 37 40  2  0  0  0
 37 75  1  0  0  0
 38 39  1  0  0  0
 38 76  1  0  0  0
 39 77  1  0  0  0
 40 42  1  0  0  0
 40 78  1  0  0  0
 41 42  2  0  0  0
 41 79  1  0  0  0
 42 80  1  0  0  0
M  END
> <s_m_entry_id>
26389

> <s_m_entry_name>
dock_pv.213

> <s_m_Source_Path>
/home/csk/Desktop/cluster/DUD-E-result/reni

> <s_m_Source_File>
dock_pv.maegz

> <i_m_Source_File_Index>
213

> <chembl_id>
CHEMBL31881

> <chembl_pref_name>
None

> <i_lp_mmshare_version>
53161

> <r_lp_tautomer_probability>
1

> <s_lp_Force_Field>
OPLS_2005

> <r_lp_Energy>
43.631701

> <b_lp_Chiralities_Consistent>
1

> <s_lp_Variant>
CHEMBL286_lig491-1

> <s_i_glide_gridfile>
glide-grid_3g6z

> <i_i_glide_lignum>
1106

> <i_i_glide_rotatable_bonds>
13

> <r_i_docking_score>
-7.09194829325205

> <r_i_glide_ligand_efficiency>
-0.168855911744096

> <r_i_glide_ligand_efficiency_sa>
-0.586947647637802

> <r_i_glide_ligand_efficiency_ln>
-1.49692757508526

> <r_i_glide_gscore>
-7.09194829325205

> <r_i_glide_lipo>
-4.67304290239238

> <r_i_glide_hbond>
-0.0951103490021153

> <r_i_glide_metal>
0

> <r_i_glide_rewards>
0.123059876582593

> <r_i_glide_evdw>
-56.4625205993652

> <r_i_glide_ecoul>
-2.02248883247375

> <r_i_glide_erotb>
0.70601886818148

> <r_i_glide_esite>
-0.0263744317823002

> <r_i_glide_emodel>
-77.4429225583527

> <r_i_glide_energy>
-58.485009431839

> <r_i_glide_einternal>
10.8191747665405

> <i_i_glide_confnum>
39

> <i_i_glide_posenum>
144

> <r_i_glide_eff_state_penalty>
0

> <s_user_duplicate_titles>
CHEMBL286_lig491,43297

> <i_f3d_flags>
0

> <s_m_subgroup_title>
dock_pv

> <s_m_subgroupid>
dock_pv

> <b_m_subgroup_collapsed>
1

$$$$
CHEMBL286_lig65
                    3D
 Schrodinger Suite 2021-1.
105107  0  0  1  0            999 V2000
  -12.6809  -15.5054   -7.6000 S   0  0  0  0  0  0
   -6.2963  -16.1022   -9.0234 C   0  0  0  0  0  0
   -6.3295  -17.9711  -11.5974 C   0  0  0  0  0  0
   -3.7752  -19.8982  -12.5950 C   0  0  0  0  0  0
   -5.4179  -17.8666  -10.6096 N   0  0  0  0  0  0
   -6.4111  -14.7706   -8.9664 N   0  0  0  0  0  0
  -11.9547  -14.1570   -8.4650 N   0  0  2  0  0  0
   -5.1052  -16.6673   -9.8297 C   0  0  1  0  0  0
   -1.9793  -14.8710  -11.2939 N   0  0  0  0  0  0
   -5.0942  -20.1194  -12.2442 N   0  0  0  0  0  0
   -6.1665  -19.1656  -12.5763 C   0  0  1  0  0  0
   -9.8025  -12.8750   -8.4170 C   0  0  0  0  0  0
   -2.8223  -15.6009  -10.4729 C   0  0  0  0  0  0
  -11.1601  -13.1619   -7.7008 C   0  0  1  0  0  0
   -7.3616  -13.9909   -8.1690 C   0  0  2  0  0  0
   -4.3097  -15.6673  -10.7290 C   0  0  0  0  0  0
   -0.6904  -15.7270   -9.6918 N   0  0  0  0  0  0
   -0.7469  -14.9770  -10.7846 C   0  0  0  0  0  0
   -8.7857  -13.9805   -8.8341 C   0  0  1  0  0  0
  -11.8674  -15.7950   -6.4210 O   0  0  0  0  0  0
  -14.1119  -15.2513   -7.4577 O   0  0  0  0  0  0
   -3.0665  -20.9417  -12.1385 O   0  0  0  0  0  0
   -2.0087  -16.1401   -9.4982 C   0  0  0  0  0  0
   -3.3261  -18.9368  -13.2212 O   0  0  0  0  0  0
   -7.0299  -16.8834   -8.4198 O   0  0  0  0  0  0
   -7.2097  -17.1358  -11.8096 O   0  0  0  0  0  0
   -7.4655  -19.9246  -12.9685 C   0  0  0  0  0  0
   -6.7636  -12.5833   -7.8181 C   0  0  0  0  0  0
   -1.6939  -21.2224  -12.4188 C   0  0  0  0  0  0
  -12.4559  -16.9098   -8.7909 C   0  0  0  0  0  0
  -12.0176  -11.8710   -7.4689 C   0  0  0  0  0  0
   -7.8527  -21.1583  -12.1715 C   0  0  0  0  0  0
   -9.4006  -15.2536   -8.8210 O   0  0  0  0  0  0
   -5.2322  -12.3487   -8.0072 C   0  0  0  0  0  0
   -1.4851  -21.6266  -13.8948 C   0  0  0  0  0  0
   -1.4615  -22.4542  -11.5317 C   0  0  0  0  0  0
   -0.7409  -20.0715  -12.0294 C   0  0  0  0  0  0
  -11.3141  -10.8238   -6.5792 C   0  0  0  0  0  0
  -13.4383  -12.1489   -6.9170 C   0  0  0  0  0  0
   -8.7801  -21.0535  -11.1163 C   0  0  0  0  0  0
   -7.2259  -22.3983  -12.4212 C   0  0  0  0  0  0
   -4.8464  -10.8670   -7.7916 C   0  0  0  0  0  0
   -4.3766  -13.1807   -7.0321 C   0  0  0  0  0  0
   -7.5609  -23.5106  -11.6634 C   0  0  0  0  0  0
   -9.1156  -22.1855  -10.3867 C   0  0  0  0  0  0
   -2.8718  -13.0273   -7.3367 C   0  0  0  0  0  0
   -3.3542  -10.6271   -8.1109 C   0  0  0  0  0  0
   -8.5083  -23.4070  -10.6510 C   0  0  0  0  0  0
   -2.4423  -11.5481   -7.2715 C   0  0  0  0  0  0
   -4.7576  -18.6237  -10.5060 H   0  0  0  0  0  0
   -5.7221  -14.2313   -9.4613 H   0  0  0  0  0  0
  -12.5908  -13.7105   -9.1345 H   0  0  0  0  0  0
   -4.4521  -17.0257   -9.0359 H   0  0  0  0  0  0
   -5.3271  -20.9460  -11.7134 H   0  0  0  0  0  0
   -5.8866  -18.6484  -13.4983 H   0  0  0  0  0  0
   -9.3025  -12.0720   -7.8877 H   0  0  0  0  0  0
  -10.0575  -12.4629   -9.3703 H   0  0  0  0  0  0
  -10.9561  -13.5764   -6.7138 H   0  0  0  0  0  0
   -7.4524  -14.5121   -7.2203 H   0  0  0  0  0  0
   -4.4369  -15.9190  -11.7841 H   0  0  0  0  0  0
   -4.6702  -14.6422  -10.6724 H   0  0  0  0  0  0
   -2.2435  -14.3725  -12.1355 H   0  0  0  0  0  0
    0.1118  -14.4697  -11.1996 H   0  0  0  0  0  0
   -8.5901  -13.8038   -9.8974 H   0  0  0  0  0  0
   -2.2637  -16.7721   -8.6607 H   0  0  0  0  0  0
   -7.4067  -20.2191  -14.0162 H   0  0  0  0  0  0
   -8.3206  -19.2558  -12.9265 H   0  0  0  0  0  0
   -7.2659  -11.8399   -8.4208 H   0  0  0  0  0  0
   -7.0438  -12.3225   -6.7991 H   0  0  0  0  0  0
  -13.1742  -17.6631   -8.4832 H   0  0  0  0  0  0
  -12.6699  -16.5605   -9.8006 H   0  0  0  0  0  0
  -11.4386  -17.2840   -8.7208 H   0  0  0  0  0  0
  -12.1654  -11.3985   -8.4413 H   0  0  0  0  0  0
  -10.3510  -15.0984   -8.9036 H   0  0  0  0  0  0
   -4.9582  -12.6097   -9.0294 H   0  0  0  0  0  0
   -1.6354  -20.7980  -14.5816 H   0  0  0  0  0  0
   -0.4722  -21.9949  -14.0377 H   0  0  0  0  0  0
   -2.1706  -22.4203  -14.1953 H   0  0  0  0  0  0
   -1.5659  -22.2066  -10.4729 H   0  0  0  0  0  0
   -2.2080  -23.2207  -11.7524 H   0  0  0  0  0  0
   -0.4613  -22.8627  -11.6780 H   0  0  0  0  0  0
   -0.9629  -19.6832  -11.0361 H   0  0  0  0  0  0
    0.2982  -20.4009  -12.0291 H   0  0  0  0  0  0
   -0.8106  -19.2330  -12.7258 H   0  0  0  0  0  0
  -11.0197  -11.2485   -5.6177 H   0  0  0  0  0  0
  -10.4270  -10.4075   -7.0544 H   0  0  0  0  0  0
  -11.9701   -9.9739   -6.3800 H   0  0  0  0  0  0
  -13.4078  -12.7760   -6.0253 H   0  0  0  0  0  0
  -13.9534  -11.2254   -6.6509 H   0  0  0  0  0  0
  -14.0614  -12.6454   -7.6563 H   0  0  0  0  0  0
   -9.2463  -20.1050  -10.8943 H   0  0  0  0  0  0
   -6.5021  -22.4918  -13.2211 H   0  0  0  0  0  0
   -5.4668  -10.2261   -8.4225 H   0  0  0  0  0  0
   -5.0790  -10.5567   -6.7694 H   0  0  0  0  0  0
   -4.6133  -12.8622   -6.0208 H   0  0  0  0  0  0
   -4.6514  -14.2332   -7.0706 H   0  0  0  0  0  0
   -7.0939  -24.4615  -11.8686 H   0  0  0  0  0  0
   -9.8658  -22.1128   -9.6210 H   0  0  0  0  0  0
   -2.6583  -13.4248   -8.3284 H   0  0  0  0  0  0
   -2.2855  -13.6258   -6.6400 H   0  0  0  0  0  0
   -3.1736  -10.7952   -9.1745 H   0  0  0  0  0  0
   -3.0983   -9.5888   -7.9108 H   0  0  0  0  0  0
   -8.7761  -24.2768  -10.0719 H   0  0  0  0  0  0
   -1.4041  -11.4499   -7.5972 H   0  0  0  0  0  0
   -2.4605  -11.2191   -6.2302 H   0  0  0  0  0  0
  1  7  1  0  0  0
  1 20  2  0  0  0
  1 21  2  0  0  0
  1 30  1  0  0  0
  2  6  1  0  0  0
  2  8  1  0  0  0
  2 25  2  0  0  0
  3  5  1  0  0  0
  3 11  1  0  0  0
  3 26  2  0  0  0
  4 10  1  0  0  0
  4 22  1  0  0  0
  4 24  2  0  0  0
  5  8  1  0  0  0
  5 50  1  0  0  0
  6 15  1  0  0  0
  6 51  1  0  0  0
  7 14  1  0  0  0
  7 52  1  0  0  0
  8 16  1  0  0  0
  8 53  1  0  0  0
  9 13  1  0  0  0
  9 62  1  0  0  0
  9 18  1  0  0  0
 10 11  1  0  0  0
 10 54  1  0  0  0
 11 27  1  0  0  0
 11 55  1  0  0  0
 12 14  1  0  0  0
 12 19  1  0  0  0
 12 56  1  0  0  0
 12 57  1  0  0  0
 13 23  2  0  0  0
 13 16  1  0  0  0
 14 31  1  0  0  0
 14 58  1  0  0  0
 15 19  1  0  0  0
 15 28  1  0  0  0
 15 59  1  0  0  0
 16 60  1  0  0  0
 16 61  1  0  0  0
 17 18  2  0  0  0
 17 23  1  0  0  0
 18 63  1  0  0  0
 19 33  1  0  0  0
 19 64  1  0  0  0
 22 29  1  0  0  0
 23 65  1  0  0  0
 27 32  1  0  0  0
 27 66  1  0  0  0
 27 67  1  0  0  0
 28 34  1  0  0  0
 28 68  1  0  0  0
 28 69  1  0  0  0
 29 35  1  0  0  0
 29 36  1  0  0  0
 29 37  1  0  0  0
 30 70  1  0  0  0
 30 71  1  0  0  0
 30 72  1  0  0  0
 31 38  1  0  0  0
 31 39  1  0  0  0
 31 73  1  0  0  0
 32 40  1  0  0  0
 32 41  2  0  0  0
 33 74  1  0  0  0
 34 42  1  0  0  0
 34 43  1  0  0  0
 34 75  1  0  0  0
 35 76  1  0  0  0
 35 77  1  0  0  0
 35 78  1  0  0  0
 36 79  1  0  0  0
 36 80  1  0  0  0
 36 81  1  0  0  0
 37 82  1  0  0  0
 37 83  1  0  0  0
 37 84  1  0  0  0
 38 85  1  0  0  0
 38 86  1  0  0  0
 38 87  1  0  0  0
 39 88  1  0  0  0
 39 89  1  0  0  0
 39 90  1  0  0  0
 40 45  2  0  0  0
 40 91  1  0  0  0
 41 44  1  0  0  0
 41 92  1  0  0  0
 42 47  1  0  0  0
 42 93  1  0  0  0
 42 94  1  0  0  0
 43 46  1  0  0  0
 43 95  1  0  0  0
 43 96  1  0  0  0
 44 48  2  0  0  0
 44 97  1  0  0  0
 45 48  1  0  0  0
 45 98  1  0  0  0
 46 49  1  0  0  0
 46 99  1  0  0  0
 46100  1  0  0  0
 47 49  1  0  0  0
 47101  1  0  0  0
 47102  1  0  0  0
 48103  1  0  0  0
 49104  1  0  0  0
 49105  1  0  0  0
M  END
> <s_m_entry_id>
26390

> <s_m_entry_name>
dock_pv.214

> <s_m_Source_Path>
/home/csk/Desktop/cluster/DUD-E-result/reni

> <s_m_Source_File>
dock_pv.maegz

> <i_m_Source_File_Index>
214

> <chembl_id>
CHEMBL49882

> <chembl_pref_name>
None

> <i_lp_mmshare_version>
53161

> <r_lp_tautomer_probability>
0.499999999999999

> <s_lp_Force_Field>
OPLS_2005

> <r_lp_Energy>
17.357301

> <b_lp_Chiralities_Consistent>
1

> <s_lp_Variant>
CHEMBL286_lig65-2

> <s_i_glide_gridfile>
glide-grid_3g6z

> <i_i_glide_lignum>
110

> <i_i_glide_rotatable_bonds>
23

> <r_i_docking_score>
-7.09031756413654

> <r_i_glide_ligand_efficiency>
-0.144700358451766

> <r_i_glide_ligand_efficiency_sa>
-0.529502847238009

> <r_i_glide_ligand_efficiency_ln>
-1.44942314558755

> <r_i_glide_gscore>
-7.09031756413654

> <r_i_glide_lipo>
-4.17992500253898

> <r_i_glide_hbond>
-0.0441821768275467

> <r_i_glide_metal>
0

> <r_i_glide_rewards>
-0.0343621525258957

> <r_i_glide_evdw>
-52.8433685302734

> <r_i_glide_ecoul>
-4.37352228164673

> <r_i_glide_erotb>
0.513897770902118

> <r_i_glide_esite>
-0.0475492343855567

> <r_i_glide_emodel>
-41.7268067655315

> <r_i_glide_energy>
-57.2168908119202

> <r_i_glide_einternal>
41.1718711853027

> <i_i_glide_confnum>
12

> <i_i_glide_posenum>
28

> <r_i_glide_eff_state_penalty>
0

> <s_user_duplicate_titles>
CHEMBL286_lig65

> <i_f3d_flags>
0

> <s_m_subgroup_title>
dock_pv

> <s_m_subgroupid>
dock_pv

> <b_m_subgroup_collapsed>
1

$$$$
CHEMBL286_lig1655
                    3D
 Schrodinger Suite 2021-1.
 87 88  0  0  1  0            999 V2000
   -9.7036  -16.2911   -9.1918 C   0  0  0  0  0  0
   -8.4280  -15.8135   -8.8493 C   0  0  0  0  0  0
   -7.3870  -16.7278   -8.6579 C   0  0  0  0  0  0
   -7.5739  -18.0824   -8.9096 C   0  0  0  0  0  0
   -8.8006  -18.5589   -9.3627 C   0  0  0  0  0  0
   -9.8716  -17.6631   -9.4685 C   0  0  0  0  0  0
   -8.9755  -20.0363   -9.7260 C   0  0  0  0  0  0
   -8.5324  -20.4203  -11.1697 C   0  0  1  0  0  0
   -6.9868  -20.4180  -11.3653 C   0  0  0  0  0  0
   -9.1815  -21.7494  -11.6801 C   0  0  0  0  0  0
  -10.7224  -21.6962  -11.6929 C   0  0  0  0  0  0
   -8.7228  -23.0234  -10.9395 C   0  0  0  0  0  0
   -8.2693  -14.4416   -8.7211 O   0  0  0  0  0  0
   -7.0115  -13.9151   -8.3131 C   0  0  0  0  0  0
  -10.7151  -15.3440   -9.2210 O   0  0  0  0  0  0
  -12.0895  -15.7046   -9.3405 C   0  0  0  0  0  0
  -12.7374  -15.7334   -7.9438 C   0  0  0  0  0  0
  -12.7203  -14.3685   -7.2332 C   0  0  0  0  0  0
  -13.4647  -13.4314   -8.0017 O   0  0  0  0  0  0
  -13.5004  -12.1313   -7.4287 C   0  0  0  0  0  0
   -6.5012  -19.9852  -12.7801 C   0  0  1  0  0  0
   -5.5735  -18.7288  -12.7312 C   0  0  2  0  0  0
   -5.8320  -21.1254  -13.4038 N   0  0  0  0  0  0
   -6.3226  -17.4641  -12.2334 C   0  0  0  0  0  0
   -5.0692  -18.4456  -14.0210 O   0  0  0  0  0  0
   -5.5381  -16.1160  -12.2464 C   0  0  2  0  0  0
   -4.3809  -16.1062  -11.2154 C   0  0  0  0  0  0
   -3.2014  -15.6006  -11.6210 N   0  0  0  0  0  0
   -4.5721  -16.4937  -10.0633 O   0  0  0  0  0  0
   -6.4762  -14.8586  -12.1241 C   0  0  0  0  0  0
   -7.5329  -14.7643  -13.2497 C   0  0  0  0  0  0
   -5.7241  -13.5052  -12.0553 C   0  0  0  0  0  0
   -2.0708  -15.3051  -10.7347 C   0  0  0  0  0  0
   -1.3013  -16.5345  -10.2017 C   0  0  0  0  0  0
   -0.3402  -17.1498  -11.2013 C   0  0  0  0  0  0
    0.7410  -16.5161  -11.6212 N   0  0  0  0  0  0
    1.3929  -17.4141  -12.4394 N   0  0  0  0  0  0
    0.6146  -18.4947  -12.4204 N   0  0  3  0  0  0
   -0.4831  -18.3693  -11.6696 N   0  0  0  0  0  0
   -6.4056  -16.4021   -8.3492 H   0  0  0  0  0  0
   -6.7337  -18.7494   -8.8207 H   0  0  0  0  0  0
  -10.8204  -18.0638   -9.7797 H   0  0  0  0  0  0
  -10.0310  -20.2642   -9.6207 H   0  0  0  0  0  0
   -8.4689  -20.6575   -8.9862 H   0  0  0  0  0  0
   -8.9297  -19.6269  -11.8074 H   0  0  0  0  0  0
   -6.5567  -21.3707  -11.0578 H   0  0  0  0  0  0
   -6.5230  -19.7599  -10.6422 H   0  0  0  0  0  0
   -8.8742  -21.8620  -12.7240 H   0  0  0  0  0  0
  -11.1505  -21.8772  -10.7054 H   0  0  0  0  0  0
  -11.0710  -20.7178  -12.0181 H   0  0  0  0  0  0
  -11.1381  -22.4457  -12.3666 H   0  0  0  0  0  0
   -8.9201  -22.9578   -9.8682 H   0  0  0  0  0  0
   -9.2476  -23.9020  -11.3156 H   0  0  0  0  0  0
   -7.6613  -23.2254  -11.0723 H   0  0  0  0  0  0
   -7.0790  -12.8299   -8.2641 H   0  0  0  0  0  0
   -6.7342  -14.2744   -7.3216 H   0  0  0  0  0  0
   -6.2173  -14.1655   -9.0184 H   0  0  0  0  0  0
  -12.5705  -14.9358   -9.9464 H   0  0  0  0  0  0
  -12.2690  -16.6297   -9.8831 H   0  0  0  0  0  0
  -13.7671  -16.0796   -8.0255 H   0  0  0  0  0  0
  -12.2229  -16.4718   -7.3287 H   0  0  0  0  0  0
  -13.1629  -14.4622   -6.2411 H   0  0  0  0  0  0
  -11.6917  -14.0258   -7.0991 H   0  0  0  0  0  0
  -14.1085  -11.4757   -8.0540 H   0  0  0  0  0  0
  -13.9437  -12.1442   -6.4299 H   0  0  0  0  0  0
  -12.5002  -11.6984   -7.3606 H   0  0  0  0  0  0
   -7.3625  -19.7499  -13.4138 H   0  0  0  0  0  0
   -4.7229  -18.9265  -12.0768 H   0  0  0  0  0  0
   -5.0701  -21.4374  -12.8155 H   0  0  0  0  0  0
   -6.4811  -21.8985  -13.4797 H   0  0  0  0  0  0
   -6.6899  -17.6298  -11.2301 H   0  0  0  0  0  0
   -7.2315  -17.3814  -12.8214 H   0  0  0  0  0  0
   -5.8105  -18.2307  -14.6096 H   0  0  0  0  0  0
   -5.0693  -16.0605  -13.2211 H   0  0  0  0  0  0
   -3.1348  -15.2842  -12.5867 H   0  0  0  0  0  0
   -7.0307  -14.9534  -11.1906 H   0  0  0  0  0  0
   -7.0683  -14.7750  -14.2340 H   0  0  0  0  0  0
   -8.2623  -15.5731  -13.2155 H   0  0  0  0  0  0
   -8.1136  -13.8452  -13.1754 H   0  0  0  0  0  0
   -5.0809  -13.3583  -12.9234 H   0  0  0  0  0  0
   -6.4203  -12.6667  -12.0219 H   0  0  0  0  0  0
   -5.1019  -13.4237  -11.1628 H   0  0  0  0  0  0
   -2.4319  -14.7126   -9.8921 H   0  0  0  0  0  0
   -1.3892  -14.6374  -11.2644 H   0  0  0  0  0  0
   -2.0085  -17.2731   -9.8192 H   0  0  0  0  0  0
   -0.7390  -16.2268   -9.3212 H   0  0  0  0  0  0
    0.8401  -19.3417  -12.9231 H   0  0  0  0  0  0
  1  2  2  0  0  0
  1  6  1  0  0  0
  1 15  1  0  0  0
  2  3  1  0  0  0
  2 13  1  0  0  0
  3  4  2  0  0  0
  3 40  1  0  0  0
  4  5  1  0  0  0
  4 41  1  0  0  0
  5  6  2  0  0  0
  5  7  1  0  0  0
  6 42  1  0  0  0
  7  8  1  0  0  0
  7 43  1  0  0  0
  7 44  1  0  0  0
  8  9  1  0  0  0
  8 10  1  0  0  0
  8 45  1  0  0  0
  9 21  1  0  0  0
  9 46  1  0  0  0
  9 47  1  0  0  0
 10 11  1  0  0  0
 10 12  1  0  0  0
 10 48  1  0  0  0
 11 49  1  0  0  0
 11 50  1  0  0  0
 11 51  1  0  0  0
 12 52  1  0  0  0
 12 53  1  0  0  0
 12 54  1  0  0  0
 13 14  1  0  0  0
 14 55  1  0  0  0
 14 56  1  0  0  0
 14 57  1  0  0  0
 15 16  1  0  0  0
 16 17  1  0  0  0
 16 58  1  0  0  0
 16 59  1  0  0  0
 17 18  1  0  0  0
 17 60  1  0  0  0
 17 61  1  0  0  0
 18 19  1  0  0  0
 18 62  1  0  0  0
 18 63  1  0  0  0
 19 20  1  0  0  0
 20 64  1  0  0  0
 20 65  1  0  0  0
 20 66  1  0  0  0
 21 22  1  0  0  0
 21 23  1  0  0  0
 21 67  1  0  0  0
 22 24  1  0  0  0
 22 25  1  0  0  0
 22 68  1  0  0  0
 23 69  1  0  0  0
 23 70  1  0  0  0
 24 26  1  0  0  0
 24 71  1  0  0  0
 24 72  1  0  0  0
 25 73  1  0  0  0
 26 27  1  0  0  0
 26 30  1  0  0  0
 26 74  1  0  0  0
 27 28  1  0  0  0
 27 29  2  0  0  0
 28 33  1  0  0  0
 28 75  1  0  0  0
 30 31  1  0  0  0
 30 32  1  0  0  0
 30 76  1  0  0  0
 31 77  1  0  0  0
 31 78  1  0  0  0
 31 79  1  0  0  0
 32 80  1  0  0  0
 32 81  1  0  0  0
 32 82  1  0  0  0
 33 34  1  0  0  0
 33 83  1  0  0  0
 33 84  1  0  0  0
 34 85  1  0  0  0
 34 86  1  0  0  0
 34 35  1  0  0  0
 35 36  1  0  0  0
 35 39  2  0  0  0
 36 37  2  0  0  0
 37 38  1  0  0  0
 38 87  1  0  0  0
 38 39  1  0  0  0
M  END
> <s_m_entry_id>
26391

> <s_m_entry_name>
dock_pv.215

> <s_m_Source_Path>
/home/csk/Desktop/cluster/DUD-E-result/reni

> <s_m_Source_File>
dock_pv.maegz

> <i_m_Source_File_Index>
215

> <chembl_id>
CHEMBL537223

> <chembl_pref_name>
None

> <i_lp_mmshare_version>
53161

> <r_lp_tautomer_probability>
0.2

> <s_lp_Force_Field>
OPLS_2005

> <r_lp_Energy>
34.642544

> <b_lp_Chiralities_Consistent>
1

> <s_lp_Variant>
CHEMBL286_lig1655-2

> <s_i_glide_gridfile>
glide-grid_3g6z

> <i_i_glide_lignum>
5362

> <i_i_glide_rotatable_bonds>
21

> <r_i_docking_score>
-7.08892045036457

> <r_i_glide_ligand_efficiency>
-0.181767191034989

> <r_i_glide_ligand_efficiency_sa>
-0.616410977449644

> <r_i_glide_ligand_efficiency_ln>
-1.52006577553183

> <r_i_glide_gscore>
-7.08892045036457

> <r_i_glide_lipo>
-2.72336495126107

> <r_i_glide_hbond>
-0.69664275164858

> <r_i_glide_metal>
0

> <r_i_glide_rewards>
-0.158076037056432

> <r_i_glide_evdw>
-47.1914558410645

> <r_i_glide_ecoul>
-14.2832384109497

> <r_i_glide_erotb>
1.03241024343243

> <r_i_glide_esite>
-0.0411884001352472

> <r_i_glide_emodel>
-82.7055513633241

> <r_i_glide_energy>
-61.4746942520142

> <r_i_glide_einternal>
11.6822891235352

> <i_i_glide_confnum>
97

> <i_i_glide_posenum>
328

> <r_i_glide_eff_state_penalty>
0

> <s_user_duplicate_titles>
CHEMBL286_lig1655,549865

> <i_f3d_flags>
0

> <s_m_subgroup_title>
dock_pv

> <s_m_subgroupid>
dock_pv

> <b_m_subgroup_collapsed>
1

$$$$
CHEMBL286_lig2511
                    3D
 Schrodinger Suite 2021-1.
 74 77  0  0  1  0            999 V2000
   -9.0065  -14.5988   -9.2238 C   0  0  0  0  0  0
   -7.6889  -13.8481   -9.3767 C   0  0  0  0  0  0
   -6.7072  -14.4855  -10.2851 N   0  0  0  0  0  0
   -5.6179  -15.1361   -9.7741 C   0  0  0  0  0  0
   -4.7190  -16.0201  -10.6857 C   0  0  2  0  0  0
   -5.3201  -15.0517   -8.5783 O   0  0  0  0  0  0
   -5.3905  -17.3030  -11.2109 C   0  0  0  0  0  0
   -4.4463  -17.8715  -12.3168 C   0  0  1  0  0  0
   -2.9664  -18.0075  -11.8190 C   0  0  0  0  0  0
   -2.4541  -16.8013  -11.1496 N   0  0  1  0  0  0
   -3.3385  -16.3496  -10.0742 C   0  0  0  0  0  0
   -5.0041  -19.2479  -12.7588 C   0  0  0  0  0  0
   -7.1233  -14.5513  -11.7038 C   0  0  0  0  0  0
   -7.4693  -13.2975  -12.4850 C   0  0  0  0  0  0
   -6.2093  -14.0400  -12.8059 C   0  0  0  0  0  0
   -6.3124  -19.3154  -13.0632 N   0  0  0  0  0  0
   -7.0725  -20.5377  -13.3280 C   0  0  0  0  0  0
   -7.6986  -21.1829  -12.0608 C   0  0  0  0  0  0
   -6.6556  -21.6294  -11.0143 C   0  0  0  0  0  0
   -8.6200  -22.3654  -12.4207 C   0  0  0  0  0  0
   -9.3103  -15.8935   -9.6112 C   0  0  0  0  0  0
  -10.6502  -16.1704   -9.4431 N   0  0  0  0  0  0
  -10.2398  -14.0639   -8.7086 C   0  0  0  0  0  0
  -11.2392  -15.0818   -8.8208 C   0  0  0  0  0  0
  -12.5504  -14.8859   -8.3606 C   0  0  0  0  0  0
  -12.8587  -13.6416   -7.8116 C   0  0  0  0  0  0
  -11.9086  -12.6307   -7.7075 C   0  0  0  0  0  0
  -10.6012  -12.8278   -8.1449 C   0  0  0  0  0  0
  -11.3533  -17.4100   -9.7773 C   0  0  0  0  0  0
  -10.6050  -18.3687  -10.7380 C   0  0  0  0  0  0
  -11.2823  -19.7424  -10.9188 C   0  0  0  0  0  0
  -12.6678  -19.6134  -11.2211 O   0  0  0  0  0  0
  -13.3370  -20.8603  -11.3531 C   0  0  0  0  0  0
   -4.2710  -20.2359  -12.8205 O   0  0  0  0  0  0
   -7.2632  -13.6501   -8.3925 H   0  0  0  0  0  0
   -7.8894  -12.8615   -9.7819 H   0  0  0  0  0  0
   -4.5097  -15.3352  -11.5011 H   0  0  0  0  0  0
   -6.3418  -17.0540  -11.6789 H   0  0  0  0  0  0
   -5.4545  -18.0005  -10.3707 H   0  0  0  0  0  0
   -4.4974  -17.2229  -13.1924 H   0  0  0  0  0  0
   -2.9019  -18.7964  -11.0646 H   0  0  0  0  0  0
   -2.3013  -18.2789  -12.6409 H   0  0  0  0  0  0
   -1.5303  -16.9834  -10.7814 H   0  0  0  0  0  0
   -3.4303  -17.1622   -9.3504 H   0  0  0  0  0  0
   -2.9092  -15.5018   -9.5374 H   0  0  0  0  0  0
   -7.7449  -15.4203  -11.9199 H   0  0  0  0  0  0
   -8.2693  -13.3421  -13.2204 H   0  0  0  0  0  0
   -7.3938  -12.3178  -12.0208 H   0  0  0  0  0  0
   -5.2630  -13.5538  -12.5620 H   0  0  0  0  0  0
   -6.1484  -14.6242  -13.7224 H   0  0  0  0  0  0
   -6.8340  -18.4554  -13.1667 H   0  0  0  0  0  0
   -6.4601  -21.2692  -13.8603 H   0  0  0  0  0  0
   -7.8677  -20.2611  -14.0195 H   0  0  0  0  0  0
   -8.3230  -20.4243  -11.5858 H   0  0  0  0  0  0
   -5.9382  -22.3300  -11.4454 H   0  0  0  0  0  0
   -7.1305  -22.1211  -10.1635 H   0  0  0  0  0  0
   -6.0961  -20.7828  -10.6163 H   0  0  0  0  0  0
   -8.0657  -23.1619  -12.9221 H   0  0  0  0  0  0
   -9.0818  -22.7966  -11.5299 H   0  0  0  0  0  0
   -9.4320  -22.0627  -13.0851 H   0  0  0  0  0  0
   -8.6569  -16.6273  -10.0576 H   0  0  0  0  0  0
  -13.3010  -15.6600   -8.4214 H   0  0  0  0  0  0
  -13.8624  -13.4566   -7.4559 H   0  0  0  0  0  0
  -12.1903  -11.6812   -7.2753 H   0  0  0  0  0  0
   -9.8702  -12.0420   -8.0287 H   0  0  0  0  0  0
  -11.5890  -17.8857   -8.8344 H   0  0  0  0  0  0
  -12.3028  -17.1372  -10.2307 H   0  0  0  0  0  0
  -10.5027  -17.8937  -11.7149 H   0  0  0  0  0  0
   -9.5944  -18.5590  -10.3801 H   0  0  0  0  0  0
  -10.7752  -20.2871  -11.7130 H   0  0  0  0  0  0
  -11.1477  -20.3414  -10.0210 H   0  0  0  0  0  0
  -14.3837  -20.6903  -11.6080 H   0  0  0  0  0  0
  -12.9007  -21.4760  -12.1409 H   0  0  0  0  0  0
  -13.3078  -21.4246  -10.4210 H   0  0  0  0  0  0
  1  2  1  0  0  0
  1 21  2  0  0  0
  1 23  1  0  0  0
  2  3  1  0  0  0
  2 35  1  0  0  0
  2 36  1  0  0  0
  3  4  1  0  0  0
  3 13  1  0  0  0
  4  5  1  0  0  0
  4  6  2  0  0  0
  5  7  1  0  0  0
  5 11  1  0  0  0
  5 37  1  0  0  0
  7  8  1  0  0  0
  7 38  1  0  0  0
  7 39  1  0  0  0
  8  9  1  0  0  0
  8 12  1  0  0  0
  8 40  1  0  0  0
  9 10  1  0  0  0
  9 41  1  0  0  0
  9 42  1  0  0  0
 10 11  1  0  0  0
 10 43  1  0  0  0
 11 44  1  0  0  0
 11 45  1  0  0  0
 12 16  1  0  0  0
 12 34  2  0  0  0
 13 14  1  0  0  0
 13 15  1  0  0  0
 13 46  1  0  0  0
 14 15  1  0  0  0
 14 47  1  0  0  0
 14 48  1  0  0  0
 15 49  1  0  0  0
 15 50  1  0  0  0
 16 17  1  0  0  0
 16 51  1  0  0  0
 17 18  1  0  0  0
 17 52  1  0  0  0
 17 53  1  0  0  0
 18 19  1  0  0  0
 18 20  1  0  0  0
 18 54  1  0  0  0
 19 55  1  0  0  0
 19 56  1  0  0  0
 19 57  1  0  0  0
 20 58  1  0  0  0
 20 59  1  0  0  0
 20 60  1  0  0  0
 21 22  1  0  0  0
 21 61  1  0  0  0
 22 24  1  0  0  0
 22 29  1  0  0  0
 23 24  2  0  0  0
 23 28  1  0  0  0
 24 25  1  0  0  0
 25 26  2  0  0  0
 25 62  1  0  0  0
 26 27  1  0  0  0
 26 63  1  0  0  0
 27 28  2  0  0  0
 27 64  1  0  0  0
 28 65  1  0  0  0
 29 30  1  0  0  0
 29 66  1  0  0  0
 29 67  1  0  0  0
 30 31  1  0  0  0
 30 68  1  0  0  0
 30 69  1  0  0  0
 31 32  1  0  0  0
 31 70  1  0  0  0
 31 71  1  0  0  0
 32 33  1  0  0  0
 33 72  1  0  0  0
 33 73  1  0  0  0
 33 74  1  0  0  0
M  END
> <s_m_entry_id>
26392

> <s_m_entry_name>
dock_pv.216

> <s_m_Source_Path>
/home/csk/Desktop/cluster/DUD-E-result/reni

> <s_m_Source_File>
dock_pv.maegz

> <i_m_Source_File_Index>
216

> <chembl_id>
CHEMBL3318934

> <chembl_pref_name>
None

> <i_lp_mmshare_version>
53161

> <r_lp_tautomer_probability>
1

> <s_lp_Force_Field>
OPLS_2005

> <r_lp_Energy>
53.346151

> <b_lp_Chiralities_Consistent>
1

> <s_lp_Variant>
CHEMBL286_lig2511-1

> <s_i_glide_gridfile>
glide-grid_3g6z

> <i_i_glide_lignum>
6572

> <i_i_glide_rotatable_bonds>
13

> <r_i_docking_score>
-7.08769565287622

> <r_i_glide_ligand_efficiency>
-0.2084616368493

> <r_i_glide_ligand_efficiency_sa>
-0.67533477805679

> <r_i_glide_ligand_efficiency_ln>
-1.56587077284951

> <r_i_glide_gscore>
-7.08769565287622

> <r_i_glide_lipo>
-3.3433460082516

> <r_i_glide_hbond>
-0.471280166540801

> <r_i_glide_metal>
0

> <r_i_glide_rewards>
-1.24028800495921

> <r_i_glide_evdw>
-40.253002166748

> <r_i_glide_ecoul>
-6.11163377761841

> <r_i_glide_erotb>
1.01133812184523

> <r_i_glide_esite>
-0.114724419989678

> <r_i_glide_emodel>
-62.5178579257156

> <r_i_glide_energy>
-46.3646359443665

> <r_i_glide_einternal>
8.7462682723999

> <i_i_glide_confnum>
22

> <i_i_glide_posenum>
139

> <r_i_glide_eff_state_penalty>
0

> <s_user_duplicate_titles>
CHEMBL286_lig2511

> <i_f3d_flags>
0

> <s_m_subgroup_title>
dock_pv

> <s_m_subgroupid>
dock_pv

> <b_m_subgroup_collapsed>
1

$$$$
CHEMBL286_lig2445
                    3D
 Schrodinger Suite 2021-1.
 87 91  0  0  1  0            999 V2000
   -3.1971  -11.8229   -8.7870 C   0  0  0  0  0  0
   -2.2033  -12.2649   -9.8911 C   0  0  1  0  0  0
   -3.1957  -12.7995   -7.5837 C   0  0  2  0  0  0
   -0.7853  -12.3353   -9.2620 C   0  0  0  0  0  0
   -1.7539  -12.8681   -7.0157 C   0  0  0  0  0  0
   -0.7232  -13.3339   -8.0774 C   0  0  1  0  0  0
   -3.5728  -14.2101   -8.1028 C   0  0  0  0  0  0
   -2.5888  -14.7291   -9.1928 C   0  0  1  0  0  0
   -2.6046  -13.6898  -10.3587 C   0  0  0  0  0  0
   -1.1606  -14.7370   -8.5700 C   0  0  0  0  0  0
   -8.2700  -18.6099   -8.6058 C   0  0  0  0  0  0
   -7.7929  -17.3687   -9.3980 C   0  0  0  0  0  0
   -6.3949  -16.8877   -8.9630 C   0  0  0  0  0  0
  -13.2141  -15.9445   -7.6211 C   0  0  0  0  0  0
  -13.1246  -14.6280   -7.1821 C   0  0  0  0  0  0
  -12.0664  -13.8279   -7.5932 C   0  0  0  0  0  0
  -11.0686  -14.3428   -8.4213 C   0  0  0  0  0  0
  -11.1267  -15.6905   -8.8520 C   0  0  0  0  0  0
  -12.2331  -16.4632   -8.4623 C   0  0  0  0  0  0
  -10.0940  -16.2798   -9.6335 N   0  0  0  0  0  0
   -8.7247  -16.1623   -9.0945 C   0  0  0  0  0  0
   -7.8953  -17.7021  -10.8255 N   0  0  3  0  0  0
   -9.0483  -17.2625  -11.6419 C   0  0  0  0  0  0
  -10.3238  -16.9758  -10.7913 C   0  0  0  0  0  0
  -11.4506  -17.2481  -11.2202 O   0  0  0  0  0  0
   -6.9677  -18.6791  -11.4362 C   0  0  0  0  0  0
   -6.3123  -18.1887  -12.7639 C   0  0  1  0  0  0
   -4.9342  -17.4663  -12.7014 C   0  0  2  0  0  0
   -6.2418  -19.2803  -13.7334 N   0  0  0  0  0  0
   -3.6926  -18.3151  -12.2728 C   0  0  0  0  0  0
   -5.0590  -16.2323  -12.0215 O   0  0  0  0  0  0
   -3.1999  -18.2129  -10.7943 C   0  0  2  0  0  0
   -2.4779  -16.8654  -10.5510 C   0  0  0  0  0  0
   -3.0195  -16.0636   -9.6171 N   0  0  0  0  0  0
   -1.4733  -16.5790  -11.2032 O   0  0  0  0  0  0
   -2.3522  -19.4285  -10.2814 C   0  0  0  0  0  0
   -9.7778  -13.2631   -8.8218 Cl  0  0  0  0  0  0
    0.5646  -13.3717   -7.5018 O   0  0  0  0  0  0
   -3.0477  -20.7943  -10.4837 C   0  0  0  0  0  0
   -1.9704  -19.2940   -8.7857 C   0  0  0  0  0  0
   -4.2019  -11.7464   -9.2028 H   0  0  0  0  0  0
   -2.9452  -10.8163   -8.4494 H   0  0  0  0  0  0
   -2.2153  -11.5688  -10.7301 H   0  0  0  0  0  0
   -3.8984  -12.4647   -6.8209 H   0  0  0  0  0  0
   -0.0584  -12.6216  -10.0213 H   0  0  0  0  0  0
   -0.4806  -11.3415   -8.9274 H   0  0  0  0  0  0
   -1.4672  -11.8930   -6.6183 H   0  0  0  0  0  0
   -1.7283  -13.5452   -6.1611 H   0  0  0  0  0  0
   -3.6120  -14.9074   -7.2644 H   0  0  0  0  0  0
   -4.5889  -14.1852   -8.5029 H   0  0  0  0  0  0
   -3.5938  -13.6644  -10.8194 H   0  0  0  0  0  0
   -1.9249  -13.9999  -11.1527 H   0  0  0  0  0  0
   -0.4386  -15.0989   -9.3019 H   0  0  0  0  0  0
   -1.1166  -15.4541   -7.7487 H   0  0  0  0  0  0
   -8.3338  -18.4216   -7.5409 H   0  0  0  0  0  0
   -9.2557  -18.9405   -8.9243 H   0  0  0  0  0  0
   -7.5977  -19.4534   -8.7489 H   0  0  0  0  0  0
   -6.4010  -16.4584   -7.9599 H   0  0  0  0  0  0
   -5.6822  -17.7010   -8.9536 H   0  0  0  0  0  0
   -6.0170  -16.1184   -9.6313 H   0  0  0  0  0  0
  -14.0472  -16.5612   -7.3134 H   0  0  0  0  0  0
  -13.8687  -14.2216   -6.5170 H   0  0  0  0  0  0
  -12.0115  -12.8050   -7.2463 H   0  0  0  0  0  0
  -12.3275  -17.4858   -8.7952 H   0  0  0  0  0  0
   -8.2822  -15.2735   -9.5438 H   0  0  0  0  0  0
   -8.7415  -15.9780   -8.0213 H   0  0  0  0  0  0
   -8.7983  -16.3710  -12.2203 H   0  0  0  0  0  0
   -9.3243  -18.0367  -12.3605 H   0  0  0  0  0  0
   -7.5594  -19.5744  -11.6255 H   0  0  0  0  0  0
   -6.1969  -18.9970  -10.7373 H   0  0  0  0  0  0
   -6.9895  -17.4724  -13.2210 H   0  0  0  0  0  0
   -4.7362  -17.1785  -13.7336 H   0  0  0  0  0  0
   -7.1212  -19.7777  -13.7056 H   0  0  0  0  0  0
   -6.2658  -18.8224  -14.6425 H   0  0  0  0  0  0
   -2.8573  -18.0723  -12.9347 H   0  0  0  0  0  0
   -3.9141  -19.3471  -12.5264 H   0  0  0  0  0  0
   -4.3242  -15.6720  -12.2957 H   0  0  0  0  0  0
   -4.0992  -18.2313  -10.1909 H   0  0  0  0  0  0
   -3.8570  -16.3986   -9.1667 H   0  0  0  0  0  0
   -1.4223  -19.4597  -10.8539 H   0  0  0  0  0  0
    1.1888  -13.6436   -8.1802 H   0  0  0  0  0  0
   -4.0502  -20.8036  -10.0534 H   0  0  0  0  0  0
   -3.1337  -21.0646  -11.5357 H   0  0  0  0  0  0
   -2.4802  -21.6017  -10.0182 H   0  0  0  0  0  0
   -2.8505  -19.1406   -8.1556 H   0  0  0  0  0  0
   -1.4690  -20.1867   -8.4139 H   0  0  0  0  0  0
   -1.2921  -18.4575   -8.6108 H   0  0  0  0  0  0
  1  2  1  0  0  0
  1  3  1  0  0  0
  1 41  1  0  0  0
  1 42  1  0  0  0
  2  4  1  0  0  0
  2  9  1  0  0  0
  2 43  1  0  0  0
  3  5  1  0  0  0
  3  7  1  0  0  0
  3 44  1  0  0  0
  4  6  1  0  0  0
  4 45  1  0  0  0
  4 46  1  0  0  0
  5  6  1  0  0  0
  5 47  1  0  0  0
  5 48  1  0  0  0
  6 10  1  0  0  0
  6 38  1  0  0  0
  7  8  1  0  0  0
  7 49  1  0  0  0
  7 50  1  0  0  0
  8 10  1  0  0  0
  8  9  1  0  0  0
  8 34  1  0  0  0
  9 51  1  0  0  0
  9 52  1  0  0  0
 10 53  1  0  0  0
 10 54  1  0  0  0
 11 12  1  0  0  0
 11 55  1  0  0  0
 11 56  1  0  0  0
 11 57  1  0  0  0
 12 13  1  0  0  0
 12 21  1  0  0  0
 12 22  1  0  0  0
 13 58  1  0  0  0
 13 59  1  0  0  0
 13 60  1  0  0  0
 14 15  2  0  0  0
 14 19  1  0  0  0
 14 61  1  0  0  0
 15 16  1  0  0  0
 15 62  1  0  0  0
 16 17  2  0  0  0
 16 63  1  0  0  0
 17 18  1  0  0  0
 17 37  1  0  0  0
 18 19  2  0  0  0
 18 20  1  0  0  0
 19 64  1  0  0  0
 20 21  1  0  0  0
 20 24  1  0  0  0
 21 65  1  0  0  0
 21 66  1  0  0  0
 22 23  1  0  0  0
 22 26  1  0  0  0
 23 24  1  0  0  0
 23 67  1  0  0  0
 23 68  1  0  0  0
 24 25  2  0  0  0
 26 27  1  0  0  0
 26 69  1  0  0  0
 26 70  1  0  0  0
 27 28  1  0  0  0
 27 29  1  0  0  0
 27 71  1  0  0  0
 28 30  1  0  0  0
 28 31  1  0  0  0
 28 72  1  0  0  0
 29 73  1  0  0  0
 29 74  1  0  0  0
 30 32  1  0  0  0
 30 75  1  0  0  0
 30 76  1  0  0  0
 31 77  1  0  0  0
 32 33  1  0  0  0
 32 36  1  0  0  0
 32 78  1  0  0  0
 33 34  1  0  0  0
 33 35  2  0  0  0
 34 79  1  0  0  0
 36 39  1  0  0  0
 36 40  1  0  0  0
 36 80  1  0  0  0
 38 81  1  0  0  0
 39 82  1  0  0  0
 39 83  1  0  0  0
 39 84  1  0  0  0
 40 85  1  0  0  0
 40 86  1  0  0  0
 40 87  1  0  0  0
M  END
> <s_m_entry_id>
26393

> <s_m_entry_name>
dock_pv.217

> <s_m_Source_Path>
/home/csk/Desktop/cluster/DUD-E-result/reni

> <s_m_Source_File>
dock_pv.maegz

> <i_m_Source_File_Index>
217

> <chembl_id>
CHEMBL2387570

> <chembl_pref_name>
None

> <i_lp_mmshare_version>
53161

> <r_lp_tautomer_probability>
1

> <s_lp_Force_Field>
OPLS_2005

> <r_lp_Energy>
92.075604

> <b_lp_Chiralities_Consistent>
1

> <s_lp_Variant>
CHEMBL286_lig2445-1

> <s_i_glide_gridfile>
glide-grid_3g6z

> <i_i_glide_lignum>
6505

> <i_i_glide_rotatable_bonds>
12

> <r_i_docking_score>
-7.08631737448705

> <r_i_glide_ligand_efficiency>
-0.177157934362176

> <r_i_glide_ligand_efficiency_sa>
-0.605871612299505

> <r_i_glide_ligand_efficiency_ln>
-1.51130295496713

> <r_i_glide_gscore>
-7.08631737448705

> <r_i_glide_lipo>
-3.02002559623275

> <r_i_glide_hbond>
-0.324776563630059

> <r_i_glide_metal>
0

> <r_i_glide_rewards>
-1.04928563229388

> <r_i_glide_evdw>
-42.3932609558105

> <r_i_glide_ecoul>
-6.96993017196655

> <r_i_glide_erotb>
0.472922991255153

> <r_i_glide_esite>
0

> <r_i_glide_emodel>
-60.5709644883503

> <r_i_glide_energy>
-49.3631911277771

> <r_i_glide_einternal>
14.0746984481812

> <i_i_glide_confnum>
8

> <i_i_glide_posenum>
57

> <r_i_glide_eff_state_penalty>
0

> <s_user_duplicate_titles>
CHEMBL286_lig2445

> <i_f3d_flags>
0

> <s_m_subgroup_title>
dock_pv

> <s_m_subgroupid>
dock_pv

> <b_m_subgroup_collapsed>
1

$$$$
CHEMBL286_lig552
                    3D
 Schrodinger Suite 2021-1.
 94 99  0  0  1  0            999 V2000
   -8.3183  -16.9990   -9.5246 N   0  0  0  0  0  0
   -7.1937  -16.1739   -9.6773 C   0  0  0  0  0  0
   -7.8494  -18.2779   -9.7733 C   0  0  0  0  0  0
   -6.1203  -16.9175  -10.0175 N   0  0  0  0  0  0
   -6.5686  -18.2123  -10.0882 N   0  0  0  0  0  0
   -8.5641  -14.2816   -9.1124 N   0  0  0  0  0  0
   -8.7127  -19.5540   -9.7780 C   0  0  2  0  0  0
   -7.3529  -14.7977   -9.4588 C   0  0  0  0  0  0
   -9.5396  -16.4824   -9.1697 C   0  0  0  0  0  0
   -9.6485  -15.1004   -8.9431 C   0  0  0  0  0  0
   -7.9182  -20.8157   -9.3598 C   0  0  0  0  0  0
   -6.8460  -21.0924  -10.1160 N   0  0  0  0  0  0
   -5.6689  -21.9058   -9.8000 C   0  0  2  0  0  0
  -11.7527  -20.7264  -10.9392 N   0  0  0  0  0  0
  -10.4210  -20.8570  -11.2205 C   0  0  0  0  0  0
   -9.4319  -19.7088  -11.1487 C   0  0  0  0  0  0
  -11.4629  -22.8295  -11.6135 N   0  0  0  0  0  0
  -12.3328  -21.9329  -11.2210 C   0  0  0  0  0  0
   -4.9063  -21.3451   -8.5360 C   0  0  1  0  0  0
   -6.1866  -13.8197   -9.5905 C   0  0  0  0  0  0
   -8.2157  -21.4453   -8.3463 O   0  0  0  0  0  0
  -10.9171  -14.4468   -8.4445 C   0  0  0  0  0  0
  -10.3052  -22.1884  -11.6122 C   0  0  0  0  0  0
   -4.8276  -21.9999  -11.1119 C   0  0  0  0  0  0
   -3.9455  -22.2662   -7.7342 C   0  0  0  0  0  0
   -4.2360  -20.1229   -8.7867 O   0  0  0  0  0  0
   -4.4913  -20.6251  -11.7621 C   0  0  0  0  0  0
   -5.9491  -12.8631   -8.3935 C   0  0  0  0  0  0
  -10.9938  -13.0518   -8.2578 C   0  0  0  0  0  0
  -12.0516  -15.2101   -8.1138 C   0  0  0  0  0  0
   -4.6357  -23.5254   -7.1665 C   0  0  0  0  0  0
   -2.6502  -22.6971   -8.4688 C   0  0  0  0  0  0
   -2.9837  -20.4105  -12.0017 C   0  0  0  0  0  0
   -5.2536  -20.3479  -13.0711 C   0  0  0  0  0  0
   -4.6702  -12.0245   -8.5932 C   0  0  0  0  0  0
   -5.8851  -13.5887   -7.0343 C   0  0  0  0  0  0
  -12.1527  -12.4459   -7.7858 C   0  0  0  0  0  0
  -13.2069  -14.6095   -7.6203 C   0  0  0  0  0  0
   -3.7092  -24.2440   -6.1693 C   0  0  0  0  0  0
   -1.6730  -23.3791   -7.4936 C   0  0  0  0  0  0
   -2.7241  -18.9271  -12.3186 C   0  0  0  0  0  0
   -5.0465  -18.8726  -13.4902 C   0  0  0  0  0  0
   -3.5537  -18.4566  -13.5305 C   0  0  0  0  0  0
   -2.3394  -24.5901   -6.8015 C   0  0  0  0  0  0
  -13.2560  -13.2272   -7.4670 C   0  0  0  0  0  0
   -9.4689  -19.4368   -9.0074 H   0  0  0  0  0  0
  -10.3428  -17.1932   -9.0593 H   0  0  0  0  0  0
   -6.7667  -20.5610  -10.9722 H   0  0  0  0  0  0
   -6.0437  -22.9040   -9.5650 H   0  0  0  0  0  0
   -9.9468  -18.7768  -11.3902 H   0  0  0  0  0  0
   -8.7004  -19.8166  -11.9570 H   0  0  0  0  0  0
  -12.2154  -19.8877  -10.6234 H   0  0  0  0  0  0
  -13.3984  -22.0685  -11.1084 H   0  0  0  0  0  0
   -5.6659  -21.0730   -7.8023 H   0  0  0  0  0  0
   -5.2718  -14.3907   -9.7542 H   0  0  0  0  0  0
   -6.3384  -13.2639  -10.5152 H   0  0  0  0  0  0
   -9.3919  -22.6740  -11.9213 H   0  0  0  0  0  0
   -3.9247  -22.5788  -10.9505 H   0  0  0  0  0  0
   -5.3898  -22.6058  -11.8285 H   0  0  0  0  0  0
   -3.6235  -21.6735   -6.8721 H   0  0  0  0  0  0
   -4.8615  -19.5112   -9.1890 H   0  0  0  0  0  0
   -4.8006  -19.8315  -11.0888 H   0  0  0  0  0  0
   -6.8008  -12.1826   -8.3433 H   0  0  0  0  0  0
  -10.1472  -12.4176   -8.4687 H   0  0  0  0  0  0
  -12.0564  -16.2823   -8.2231 H   0  0  0  0  0  0
   -5.5464  -23.2325   -6.6403 H   0  0  0  0  0  0
   -4.9725  -24.1901   -7.9641 H   0  0  0  0  0  0
   -2.8632  -23.3462   -9.3135 H   0  0  0  0  0  0
   -2.1609  -21.8202   -8.8933 H   0  0  0  0  0  0
   -2.4399  -20.6544  -11.0879 H   0  0  0  0  0  0
   -2.5966  -21.0988  -12.7528 H   0  0  0  0  0  0
   -4.9937  -21.0794  -13.8387 H   0  0  0  0  0  0
   -6.3214  -20.5069  -12.9123 H   0  0  0  0  0  0
   -3.7782  -12.6484   -8.5720 H   0  0  0  0  0  0
   -4.6662  -11.4943   -9.5441 H   0  0  0  0  0  0
   -4.5662  -11.2747   -7.8092 H   0  0  0  0  0  0
   -5.0444  -14.2835   -6.9897 H   0  0  0  0  0  0
   -5.7727  -12.8682   -6.2210 H   0  0  0  0  0  0
   -6.7921  -14.1578   -6.8320 H   0  0  0  0  0  0
  -12.1932  -11.3733   -7.6560 H   0  0  0  0  0  0
  -14.0645  -15.2147   -7.3673 H   0  0  0  0  0  0
   -3.5534  -23.6057   -5.2976 H   0  0  0  0  0  0
   -4.1892  -25.1472   -5.7956 H   0  0  0  0  0  0
   -1.3402  -22.6618   -6.7408 H   0  0  0  0  0  0
   -0.7784  -23.7057   -8.0243 H   0  0  0  0  0  0
   -2.9798  -18.3140  -11.4490 H   0  0  0  0  0  0
   -1.6634  -18.7597  -12.5026 H   0  0  0  0  0  0
   -5.5631  -18.2305  -12.7787 H   0  0  0  0  0  0
   -5.5254  -18.6776  -14.4496 H   0  0  0  0  0  0
   -3.4875  -17.3708  -13.6141 H   0  0  0  0  0  0
   -3.0743  -18.8469  -14.4179 H   0  0  0  0  0  0
   -1.6697  -24.9962   -6.0464 H   0  0  0  0  0  0
   -2.4831  -25.3680   -7.5485 H   0  0  0  0  0  0
  -14.1551  -12.7581   -7.0952 H   0  0  0  0  0  0
  1  2  1  0  0  0
  1  3  1  0  0  0
  1  9  1  0  0  0
  2  4  2  0  0  0
  2  8  1  0  0  0
  3  5  2  0  0  0
  3  7  1  0  0  0
  4  5  1  0  0  0
  6 10  1  0  0  0
  6  8  2  0  0  0
  7 11  1  0  0  0
  7 16  1  0  0  0
  7 46  1  0  0  0
  8 20  1  0  0  0
  9 10  2  0  0  0
  9 47  1  0  0  0
 10 22  1  0  0  0
 11 12  1  0  0  0
 11 21  2  0  0  0
 12 13  1  0  0  0
 12 48  1  0  0  0
 13 19  1  0  0  0
 13 24  1  0  0  0
 13 49  1  0  0  0
 14 15  1  0  0  0
 14 52  1  0  0  0
 14 18  1  0  0  0
 15 23  2  0  0  0
 15 16  1  0  0  0
 16 50  1  0  0  0
 16 51  1  0  0  0
 17 18  2  0  0  0
 17 23  1  0  0  0
 18 53  1  0  0  0
 19 25  1  0  0  0
 19 26  1  0  0  0
 19 54  1  0  0  0
 20 28  1  0  0  0
 20 55  1  0  0  0
 20 56  1  0  0  0
 22 29  2  0  0  0
 22 30  1  0  0  0
 23 57  1  0  0  0
 24 27  1  0  0  0
 24 58  1  0  0  0
 24 59  1  0  0  0
 25 31  1  0  0  0
 25 32  1  0  0  0
 25 60  1  0  0  0
 26 61  1  0  0  0
 27 33  1  0  0  0
 27 34  1  0  0  0
 27 62  1  0  0  0
 28 35  1  0  0  0
 28 36  1  0  0  0
 28 63  1  0  0  0
 29 37  1  0  0  0
 29 64  1  0  0  0
 30 38  2  0  0  0
 30 65  1  0  0  0
 31 39  1  0  0  0
 31 66  1  0  0  0
 31 67  1  0  0  0
 32 40  1  0  0  0
 32 68  1  0  0  0
 32 69  1  0  0  0
 33 41  1  0  0  0
 33 70  1  0  0  0
 33 71  1  0  0  0
 34 42  1  0  0  0
 34 72  1  0  0  0
 34 73  1  0  0  0
 35 74  1  0  0  0
 35 75  1  0  0  0
 35 76  1  0  0  0
 36 77  1  0  0  0
 36 78  1  0  0  0
 36 79  1  0  0  0
 37 45  2  0  0  0
 37 80  1  0  0  0
 38 45  1  0  0  0
 38 81  1  0  0  0
 39 44  1  0  0  0
 39 82  1  0  0  0
 39 83  1  0  0  0
 40 44  1  0  0  0
 40 84  1  0  0  0
 40 85  1  0  0  0
 41 43  1  0  0  0
 41 86  1  0  0  0
 41 87  1  0  0  0
 42 43  1  0  0  0
 42 88  1  0  0  0
 42 89  1  0  0  0
 43 90  1  0  0  0
 43 91  1  0  0  0
 44 92  1  0  0  0
 44 93  1  0  0  0
 45 94  1  0  0  0
M  END
> <s_m_entry_id>
26394

> <s_m_entry_name>
dock_pv.218

> <s_m_Source_Path>
/home/csk/Desktop/cluster/DUD-E-result/reni

> <s_m_Source_File>
dock_pv.maegz

> <i_m_Source_File_Index>
218

> <chembl_id>
CHEMBL307388

> <chembl_pref_name>
None

> <i_lp_mmshare_version>
53161

> <r_lp_tautomer_probability>
0.499999999999999

> <s_lp_Force_Field>
OPLS_2005

> <r_lp_Energy>
35.401676

> <b_lp_Chiralities_Consistent>
1

> <s_lp_Variant>
CHEMBL286_lig552-7

> <s_i_glide_gridfile>
glide-grid_3g6z

> <i_i_glide_lignum>
1561

> <i_i_glide_rotatable_bonds>
14

> <r_i_docking_score>
-7.08575196290516

> <r_i_glide_ligand_efficiency>
-0.157461154731226

> <r_i_glide_ligand_efficiency_sa>
-0.560072526270101

> <r_i_glide_ligand_efficiency_ln>
-1.47415217481678

> <r_i_glide_gscore>
-7.08575196290516

> <r_i_glide_lipo>
-3.89610874158966

> <r_i_glide_hbond>
0

> <r_i_glide_metal>
0

> <r_i_glide_rewards>
-1.37972150104937

> <r_i_glide_evdw>
-44.6699333190918

> <r_i_glide_ecoul>
-0.087850883603096

> <r_i_glide_erotb>
0.436752578228931

> <r_i_glide_esite>
0

> <r_i_glide_emodel>
-42.4743860660252

> <r_i_glide_energy>
-44.7577842026949

> <r_i_glide_einternal>
22.5983180999756

> <i_i_glide_confnum>
38

> <i_i_glide_posenum>
361

> <r_i_glide_eff_state_penalty>
0

> <s_user_duplicate_titles>
CHEMBL286_lig552

> <i_f3d_flags>
0

> <s_m_subgroup_title>
dock_pv

> <s_m_subgroupid>
dock_pv

> <b_m_subgroup_collapsed>
1

$$$$
CHEMBL286_lig2017
                    3D
 Schrodinger Suite 2021-1.
 53 55  0  0  1  0            999 V2000
   -5.8453  -18.7404  -11.5953 C   0  0  0  0  0  0
   -7.1137  -17.0339  -10.6020 C   0  0  1  0  0  0
   -6.5180  -18.3392  -10.4224 N   0  0  0  0  0  0
   -6.5015  -15.9691   -9.6450 C   0  0  0  0  0  0
   -5.4984  -16.2797   -8.7149 C   0  0  0  0  0  0
   -5.0406  -15.3238   -7.8113 C   0  0  0  0  0  0
   -5.5647  -14.0363   -7.8170 C   0  0  0  0  0  0
   -6.5293  -13.7081   -8.7779 C   0  0  0  0  0  0
   -6.9697  -14.6506   -9.6937 C   0  0  0  0  0  0
   -5.2701  -19.8567  -11.6874 N   0  0  0  0  0  0
   -5.9537  -17.7257  -12.4895 N   0  0  0  0  0  0
   -6.6958  -16.6855  -12.0426 C   0  0  0  0  0  0
   -5.3969  -17.7170  -13.8424 C   0  0  0  0  0  0
   -6.9911  -15.6482  -12.6434 O   0  0  0  0  0  0
   -8.6638  -17.1956  -10.4981 C   0  0  0  0  0  0
   -9.4238  -16.5228   -9.5193 C   0  0  0  0  0  0
  -10.8161  -16.6290   -9.4790 C   0  0  0  0  0  0
  -11.4692  -17.4746  -10.3717 C   0  0  0  0  0  0
  -10.7393  -18.1859  -11.3174 C   0  0  0  0  0  0
   -9.3553  -18.0393  -11.3878 C   0  0  0  0  0  0
   -5.1005  -13.1699   -6.8436 O   0  0  0  0  0  0
   -5.4860  -11.8002   -6.8895 C   0  0  0  0  0  0
   -4.9920  -11.1753   -7.9589 F   0  0  0  0  0  0
   -6.8096  -11.6629   -6.8217 F   0  0  0  0  0  0
  -11.5892  -15.8137   -8.5552 C   0  0  0  0  0  0
  -12.2353  -15.0446   -7.8585 C   0  0  0  0  0  0
  -13.0050  -14.0374   -7.1041 C   0  0  0  0  0  0
  -12.2984  -12.6782   -6.9103 C   0  0  0  0  0  0
  -11.9101  -11.9338   -8.2076 C   0  0  0  0  0  0
  -11.2379  -10.5791   -7.9398 C   0  0  0  0  0  0
  -10.0639  -10.6858   -7.3183 F   0  0  0  0  0  0
   -5.0697  -17.2673   -8.6602 H   0  0  0  0  0  0
   -4.2862  -15.5929   -7.0887 H   0  0  0  0  0  0
   -6.9777  -12.7324   -8.8189 H   0  0  0  0  0  0
   -7.7279  -14.3690  -10.4113 H   0  0  0  0  0  0
   -5.3506  -20.4005  -10.8420 H   0  0  0  0  0  0
   -7.0702  -18.9373   -9.8270 H   0  0  0  0  0  0
   -4.3088  -17.6803  -13.8099 H   0  0  0  0  0  0
   -5.7032  -18.6140  -14.3812 H   0  0  0  0  0  0
   -5.7478  -16.8647  -14.4207 H   0  0  0  0  0  0
   -8.9488  -15.8846   -8.7914 H   0  0  0  0  0  0
  -12.5441  -17.5722  -10.3462 H   0  0  0  0  0  0
  -11.2458  -18.8323  -12.0190 H   0  0  0  0  0  0
   -8.8229  -18.5780  -12.1588 H   0  0  0  0  0  0
   -5.0709  -11.2888   -6.0214 H   0  0  0  0  0  0
  -13.2466  -14.4630   -6.1293 H   0  0  0  0  0  0
  -13.9526  -13.8954   -7.6242 H   0  0  0  0  0  0
  -11.4075  -12.8224   -6.2977 H   0  0  0  0  0  0
  -12.9566  -12.0323   -6.3273 H   0  0  0  0  0  0
  -12.8014  -11.7776   -8.8145 H   0  0  0  0  0  0
  -11.2362  -12.5479   -8.8061 H   0  0  0  0  0  0
  -11.8681   -9.9480   -7.3123 H   0  0  0  0  0  0
  -11.0555  -10.0439   -8.8727 H   0  0  0  0  0  0
  1 11  1  0  0  0
  1 10  2  0  0  0
  1  3  1  0  0  0
  2  3  1  0  0  0
  2 12  1  0  0  0
  2 15  1  0  0  0
  2  4  1  0  0  0
  3 37  1  0  0  0
  4  9  1  0  0  0
  4  5  2  0  0  0
  5  6  1  0  0  0
  5 32  1  0  0  0
  6  7  2  0  0  0
  6 33  1  0  0  0
  7  8  1  0  0  0
  7 21  1  0  0  0
  8  9  2  0  0  0
  8 34  1  0  0  0
  9 35  1  0  0  0
 10 36  1  0  0  0
 11 12  1  0  0  0
 11 13  1  0  0  0
 12 14  2  0  0  0
 13 38  1  0  0  0
 13 39  1  0  0  0
 13 40  1  0  0  0
 15 16  2  0  0  0
 15 20  1  0  0  0
 16 17  1  0  0  0
 16 41  1  0  0  0
 17 18  2  0  0  0
 17 25  1  0  0  0
 18 19  1  0  0  0
 18 42  1  0  0  0
 19 20  2  0  0  0
 19 43  1  0  0  0
 20 44  1  0  0  0
 21 22  1  0  0  0
 22 23  1  0  0  0
 22 24  1  0  0  0
 22 45  1  0  0  0
 25 26  3  0  0  0
 26 27  1  0  0  0
 27 28  1  0  0  0
 27 46  1  0  0  0
 27 47  1  0  0  0
 28 29  1  0  0  0
 28 48  1  0  0  0
 28 49  1  0  0  0
 29 30  1  0  0  0
 29 50  1  0  0  0
 29 51  1  0  0  0
 30 31  1  0  0  0
 30 52  1  0  0  0
 30 53  1  0  0  0
M  END
> <s_m_entry_id>
26395

> <s_m_entry_name>
dock_pv.219

> <s_m_Source_Path>
/home/csk/Desktop/cluster/DUD-E-result/reni

> <s_m_Source_File>
dock_pv.maegz

> <i_m_Source_File_Index>
219

> <chembl_id>
CHEMBL1271142

> <chembl_pref_name>
None

> <i_lp_mmshare_version>
53161

> <r_lp_tautomer_probability>
0.499639836881432

> <s_lp_Force_Field>
OPLS_2005

> <r_lp_Energy>
25.726005

> <b_lp_Chiralities_Consistent>
1

> <s_lp_Variant>
CHEMBL286_lig2017-2

> <s_i_glide_gridfile>
glide-grid_3g6z

> <i_i_glide_lignum>
5813

> <i_i_glide_rotatable_bonds>
9

> <r_i_docking_score>
-7.08411057596335

> <r_i_glide_ligand_efficiency>
-0.228519695998818

> <r_i_glide_ligand_efficiency_sa>
-0.717867350879333

> <r_i_glide_ligand_efficiency_ln>
-1.59768403679593

> <r_i_glide_gscore>
-7.08411057596335

> <r_i_glide_lipo>
-3.26461848465422

> <r_i_glide_hbond>
0

> <r_i_glide_metal>
0

> <r_i_glide_rewards>
-2.238633444606

> <r_i_glide_evdw>
-40.6169586181641

> <r_i_glide_ecoul>
-1.62239050865173

> <r_i_glide_erotb>
0.754317601384004

> <r_i_glide_esite>
-0.0609697408811692

> <r_i_glide_emodel>
-59.9973459961773

> <r_i_glide_energy>
-42.2393491268158

> <r_i_glide_einternal>
1.94615209102631

> <i_i_glide_confnum>
20

> <i_i_glide_posenum>
268

> <r_i_glide_eff_state_penalty>
0

> <s_user_duplicate_titles>
CHEMBL286_lig2017,CHEMBL286_lig2017

> <i_f3d_flags>
0

> <s_m_subgroup_title>
dock_pv

> <s_m_subgroupid>
dock_pv

> <b_m_subgroup_collapsed>
1

$$$$
CHEMBL286_lig2772
                    3D
 Schrodinger Suite 2021-1.
 62 65  0  0  1  0            999 V2000
  -10.1212   -9.4967   -7.6140 C   0  0  0  0  0  0
  -10.1266  -10.8638   -7.2220 O   0  0  0  0  0  0
  -11.2362  -11.2583   -6.4174 C   0  0  0  0  0  0
  -12.5651  -11.3001   -7.1770 C   0  0  0  0  0  0
  -12.5271  -12.1258   -8.4786 C   0  0  0  0  0  0
  -12.2503  -13.5357   -8.2155 N   0  0  0  0  0  0
  -13.2417  -14.2984   -7.7138 N   0  0  0  0  0  0
  -12.8126  -15.5326   -7.6848 C   0  0  0  0  0  0
  -13.7044  -16.6572   -7.2219 C   0  0  0  0  0  0
  -11.4742  -15.6097   -8.1741 C   0  0  0  0  0  0
  -10.5615  -16.6392   -8.4246 C   0  0  0  0  0  0
   -9.3096  -16.3213   -8.9403 C   0  0  0  0  0  0
   -8.9185  -14.9956   -9.1529 C   0  0  0  0  0  0
   -9.7899  -13.9373   -8.8258 C   0  0  0  0  0  0
  -11.0916  -14.2710   -8.4212 C   0  0  0  0  0  0
   -7.5254  -14.6881   -9.7246 C   0  0  1  0  0  0
   -6.4989  -14.4904   -8.5846 C   0  0  0  0  0  0
   -7.0878  -15.5501  -10.8759 N   0  0  0  0  0  0
   -7.6629  -15.1259  -12.1678 C   0  0  0  0  0  0
   -7.4690  -13.6974  -12.6605 C   0  0  0  0  0  0
   -6.7483  -14.8156  -13.3416 C   0  0  0  0  0  0
   -6.4243  -16.7457  -10.7334 C   0  0  0  0  0  0
   -6.0380  -17.1314   -9.6266 O   0  0  0  0  0  0
   -6.1712  -17.7029  -11.9485 C   0  0  1  0  0  0
   -4.8207  -18.4721  -11.7598 C   0  0  0  0  0  0
   -4.6195  -19.5180  -12.7686 N   0  0  2  0  0  0
   -5.7535  -20.4395  -12.7196 C   0  0  0  0  0  0
   -7.0680  -19.6834  -13.0049 C   0  0  0  0  0  0
   -7.3145  -18.6289  -12.0163 N   0  0  2  0  0  0
   -9.1643   -9.2641   -8.0798 H   0  0  0  0  0  0
  -10.2392   -8.8270   -6.7607 H   0  0  0  0  0  0
  -10.9046   -9.2846   -8.3407 H   0  0  0  0  0  0
  -11.0691  -12.2573   -6.0215 H   0  0  0  0  0  0
  -11.3104  -10.6000   -5.5521 H   0  0  0  0  0  0
  -13.3379  -11.6962   -6.5159 H   0  0  0  0  0  0
  -12.8771  -10.2845   -7.3823 H   0  0  0  0  0  0
  -13.4947  -12.0635   -8.9801 H   0  0  0  0  0  0
  -11.7908  -11.7469   -9.1949 H   0  0  0  0  0  0
  -13.8696  -17.3690   -8.0255 H   0  0  0  0  0  0
  -13.2433  -17.2260   -6.4209 H   0  0  0  0  0  0
  -14.6792  -16.3204   -6.8666 H   0  0  0  0  0  0
  -10.8320  -17.6624   -8.2488 H   0  0  0  0  0  0
   -8.6282  -17.1305   -9.1545 H   0  0  0  0  0  0
   -9.4998  -12.9078   -8.9697 H   0  0  0  0  0  0
   -7.6058  -13.6848  -10.1395 H   0  0  0  0  0  0
   -6.7636  -13.6286   -7.9704 H   0  0  0  0  0  0
   -6.4501  -15.3506   -7.9165 H   0  0  0  0  0  0
   -5.4984  -14.3126   -8.9793 H   0  0  0  0  0  0
   -8.6161  -15.6110  -12.3901 H   0  0  0  0  0  0
   -8.2694  -13.2145  -13.2135 H   0  0  0  0  0  0
   -6.8825  -12.9875  -12.0766 H   0  0  0  0  0  0
   -5.6703  -14.8925  -13.2093 H   0  0  0  0  0  0
   -7.0692  -15.1270  -14.3343 H   0  0  0  0  0  0
   -6.1110  -17.1390  -12.8726 H   0  0  0  0  0  0
   -3.9763  -17.7818  -11.7962 H   0  0  0  0  0  0
   -4.7690  -18.9425  -10.7755 H   0  0  0  0  0  0
   -3.7623  -20.0132  -12.5582 H   0  0  0  0  0  0
   -5.6005  -21.2353  -13.4492 H   0  0  0  0  0  0
   -5.7942  -20.9328  -11.7468 H   0  0  0  0  0  0
   -7.0467  -19.2621  -14.0106 H   0  0  0  0  0  0
   -7.9127  -20.3716  -13.0010 H   0  0  0  0  0  0
   -8.1227  -18.1185  -12.3534 H   0  0  0  0  0  0
  1  2  1  0  0  0
  1 30  1  0  0  0
  1 31  1  0  0  0
  1 32  1  0  0  0
  2  3  1  0  0  0
  3  4  1  0  0  0
  3 33  1  0  0  0
  3 34  1  0  0  0
  4  5  1  0  0  0
  4 35  1  0  0  0
  4 36  1  0  0  0
  5  6  1  0  0  0
  5 37  1  0  0  0
  5 38  1  0  0  0
  6  7  1  0  0  0
  6 15  1  0  0  0
  7  8  2  0  0  0
  8  9  1  0  0  0
  8 10  1  0  0  0
  9 39  1  0  0  0
  9 40  1  0  0  0
  9 41  1  0  0  0
 10 11  2  0  0  0
 10 15  1  0  0  0
 11 12  1  0  0  0
 11 42  1  0  0  0
 12 13  2  0  0  0
 12 43  1  0  0  0
 13 14  1  0  0  0
 13 16  1  0  0  0
 14 15  2  0  0  0
 14 44  1  0  0  0
 16 17  1  0  0  0
 16 18  1  0  0  0
 16 45  1  0  0  0
 17 46  1  0  0  0
 17 47  1  0  0  0
 17 48  1  0  0  0
 18 19  1  0  0  0
 18 22  1  0  0  0
 19 20  1  0  0  0
 19 21  1  0  0  0
 19 49  1  0  0  0
 20 21  1  0  0  0
 20 50  1  0  0  0
 20 51  1  0  0  0
 21 52  1  0  0  0
 21 53  1  0  0  0
 22 23  2  0  0  0
 22 24  1  0  0  0
 24 25  1  0  0  0
 24 29  1  0  0  0
 24 54  1  0  0  0
 25 26  1  0  0  0
 25 55  1  0  0  0
 25 56  1  0  0  0
 26 27  1  0  0  0
 26 57  1  0  0  0
 27 28  1  0  0  0
 27 58  1  0  0  0
 27 59  1  0  0  0
 28 29  1  0  0  0
 28 60  1  0  0  0
 28 61  1  0  0  0
 29 62  1  0  0  0
M  END
> <s_m_entry_id>
26396

> <s_m_entry_name>
dock_pv.220

> <s_m_Source_Path>
/home/csk/Desktop/cluster/DUD-E-result/reni

> <s_m_Source_File>
dock_pv.maegz

> <i_m_Source_File_Index>
220

> <chembl_id>
CHEMBL4107073

> <chembl_pref_name>
None

> <i_lp_mmshare_version>
53161

> <r_lp_tautomer_probability>
1

> <s_lp_Force_Field>
OPLS_2005

> <r_lp_Energy>
65.352738

> <b_lp_Chiralities_Consistent>
1

> <s_lp_Variant>
CHEMBL286_lig2772-1

> <s_i_glide_gridfile>
glide-grid_3g6z

> <i_i_glide_lignum>
6870

> <i_i_glide_rotatable_bonds>
9

> <r_i_docking_score>
-7.08081475281426

> <r_i_glide_ligand_efficiency>
-0.244166025959112

> <r_i_glide_ligand_efficiency_sa>
-0.75015538897303

> <r_i_glide_ligand_efficiency_ln>
-1.62132702442467

> <r_i_glide_gscore>
-7.08081475281426

> <r_i_glide_lipo>
-3.5798125509483

> <r_i_glide_hbond>
-0.144289756604653

> <r_i_glide_metal>
0

> <r_i_glide_rewards>
-1.6721959206102

> <r_i_glide_evdw>
-38.5947456359863

> <r_i_glide_ecoul>
-4.89867544174194

> <r_i_glide_erotb>
0.982077244792949

> <r_i_glide_esite>
-0.00205517138344193

> <r_i_glide_emodel>
-56.5119703108572

> <r_i_glide_energy>
-43.4934210777283

> <r_i_glide_einternal>
3.08155202865601

> <i_i_glide_confnum>
25

> <i_i_glide_posenum>
294

> <r_i_glide_eff_state_penalty>
0

> <s_user_duplicate_titles>
CHEMBL286_lig2772

> <i_f3d_flags>
0

> <s_m_subgroup_title>
dock_pv

> <s_m_subgroupid>
dock_pv

> <b_m_subgroup_collapsed>
1

$$$$
CHEMBL286_lig2004
                    3D
 Schrodinger Suite 2021-1.
 59 63  0  0  1  0            999 V2000
   -9.9164  -20.4411  -10.8427 C   0  0  0  0  0  0
  -11.1622  -19.8133  -10.8211 C   0  0  0  0  0  0
  -11.2677  -18.4638  -10.4212 C   0  0  0  0  0  0
   -8.7535  -19.7509  -10.5495 C   0  0  0  0  0  0
   -9.8630  -16.5382   -9.4367 N   0  0  0  0  0  0
   -8.4814  -16.3298   -9.4140 C   0  0  0  0  0  0
   -7.7998  -17.4181   -9.9862 C   0  0  0  0  0  0
   -8.8168  -18.3951  -10.2088 C   0  0  0  0  0  0
  -10.0912  -17.7822  -10.0411 C   0  0  0  0  0  0
  -10.8440  -15.6733   -8.8380 C   0  0  0  0  0  0
  -12.0015  -16.2065   -8.2548 C   0  0  0  0  0  0
  -12.9531  -15.3860   -7.6547 C   0  0  0  0  0  0
  -12.7625  -14.0091   -7.6383 C   0  0  0  0  0  0
  -11.6307  -13.4513   -8.2225 C   0  0  0  0  0  0
  -10.6822  -14.2778   -8.8208 C   0  0  0  0  0  0
   -6.3716  -17.5789  -10.1757 C   0  0  0  0  0  0
   -5.9102  -17.9920  -11.3918 N   0  0  0  0  0  0
   -5.6229  -17.3962   -9.2211 O   0  0  0  0  0  0
   -6.7143  -18.1393  -12.6201 C   0  0  0  0  0  0
   -6.5624  -19.5840  -13.1657 C   0  0  0  0  0  0
   -5.1796  -20.0634  -13.2211 N   0  0  0  0  0  0
   -4.4028  -19.7951  -12.0135 C   0  0  0  0  0  0
   -4.4826  -18.3195  -11.5634 C   0  0  0  0  0  0
   -7.9995  -15.1609   -8.8649 O   0  0  0  0  0  0
   -6.7694  -14.6485   -9.1907 C   0  0  0  0  0  0
   -6.5303  -14.1802  -10.4860 C   0  0  0  0  0  0
   -5.2823  -13.6627  -10.8222 C   0  0  0  0  0  0
   -4.2735  -13.5958   -9.8623 C   0  0  0  0  0  0
   -4.5106  -14.0510   -8.5644 C   0  0  0  0  0  0
   -5.7599  -14.5748   -8.2194 C   0  0  0  0  0  0
   -5.9825  -15.1356   -6.8224 C   0  0  0  0  0  0
   -5.0587  -13.2035  -12.0725 F   0  0  0  0  0  0
  -12.3931  -20.5976  -11.2209 C   0  0  0  0  0  0
  -12.2294  -21.9464  -11.3324 O   0  0  0  0  0  0
  -13.4712  -20.0633  -11.4447 O   0  0  0  0  0  0
   -9.8251  -21.4810  -11.1250 H   0  0  0  0  0  0
  -12.2345  -17.9829  -10.3666 H   0  0  0  0  0  0
   -7.8016  -20.2561  -10.5884 H   0  0  0  0  0  0
  -12.1728  -17.2630   -8.2300 H   0  0  0  0  0  0
  -13.8355  -15.8162   -7.2037 H   0  0  0  0  0  0
  -13.4967  -13.3695   -7.1710 H   0  0  0  0  0  0
  -11.4879  -12.3803   -8.2150 H   0  0  0  0  0  0
   -9.8280  -13.8010   -9.2747 H   0  0  0  0  0  0
   -6.3247  -17.4462  -13.3675 H   0  0  0  0  0  0
   -7.7630  -17.8751  -12.4956 H   0  0  0  0  0  0
   -7.0746  -20.2911  -12.5206 H   0  0  0  0  0  0
   -7.0491  -19.6769  -14.1403 H   0  0  0  0  0  0
   -5.1845  -21.0591  -13.4085 H   0  0  0  0  0  0
   -4.7994  -20.4389  -11.2264 H   0  0  0  0  0  0
   -3.3683  -20.1027  -12.1718 H   0  0  0  0  0  0
   -3.8968  -18.1748  -10.6539 H   0  0  0  0  0  0
   -4.0407  -17.6682  -12.3184 H   0  0  0  0  0  0
   -7.3092  -14.2272  -11.2324 H   0  0  0  0  0  0
   -3.3078  -13.1936  -10.1294 H   0  0  0  0  0  0
   -3.7193  -14.0088   -7.8309 H   0  0  0  0  0  0
   -5.0835  -15.6311   -6.4542 H   0  0  0  0  0  0
   -6.2690  -14.3445   -6.1298 H   0  0  0  0  0  0
   -6.7553  -15.9049   -6.8186 H   0  0  0  0  0  0
  -13.0529  -22.3459  -11.6196 H   0  0  0  0  0  0
  1  4  1  0  0  0
  1  2  2  0  0  0
  1 36  1  0  0  0
  2  3  1  0  0  0
  2 33  1  0  0  0
  3  9  2  0  0  0
  3 37  1  0  0  0
  4  8  2  0  0  0
  4 38  1  0  0  0
  5  6  1  0  0  0
  5  9  1  0  0  0
  5 10  1  0  0  0
  6 24  1  0  0  0
  6  7  2  0  0  0
  7  8  1  0  0  0
  7 16  1  0  0  0
  8  9  1  0  0  0
 10 11  2  0  0  0
 10 15  1  0  0  0
 11 12  1  0  0  0
 11 39  1  0  0  0
 12 13  2  0  0  0
 12 40  1  0  0  0
 13 14  1  0  0  0
 13 41  1  0  0  0
 14 15  2  0  0  0
 14 42  1  0  0  0
 15 43  1  0  0  0
 16 17  1  0  0  0
 16 18  2  0  0  0
 17 19  1  0  0  0
 17 23  1  0  0  0
 19 20  1  0  0  0
 19 44  1  0  0  0
 19 45  1  0  0  0
 20 21  1  0  0  0
 20 46  1  0  0  0
 20 47  1  0  0  0
 21 22  1  0  0  0
 21 48  1  0  0  0
 22 23  1  0  0  0
 22 49  1  0  0  0
 22 50  1  0  0  0
 23 51  1  0  0  0
 23 52  1  0  0  0
 24 25  1  0  0  0
 25 26  2  0  0  0
 25 30  1  0  0  0
 26 27  1  0  0  0
 26 53  1  0  0  0
 27 28  2  0  0  0
 27 32  1  0  0  0
 28 29  1  0  0  0
 28 54  1  0  0  0
 29 30  2  0  0  0
 29 55  1  0  0  0
 30 31  1  0  0  0
 31 56  1  0  0  0
 31 57  1  0  0  0
 31 58  1  0  0  0
 33 34  1  0  0  0
 33 35  2  0  0  0
 34 59  1  0  0  0
M  END
> <s_m_entry_id>
26397

> <s_m_entry_name>
dock_pv.221

> <s_m_Source_Path>
/home/csk/Desktop/cluster/DUD-E-result/reni

> <s_m_Source_File>
dock_pv.maegz

> <i_m_Source_File_Index>
221

> <chembl_id>
CHEMBL1270073

> <chembl_pref_name>
None

> <i_lp_mmshare_version>
53161

> <r_lp_tautomer_probability>
1

> <s_lp_Force_Field>
OPLS_2005

> <r_lp_Energy>
56.011673

> <b_lp_Chiralities_Consistent>
1

> <s_lp_Variant>
CHEMBL286_lig2004-1

> <s_i_glide_gridfile>
glide-grid_3g6z

> <i_i_glide_lignum>
5797

> <i_i_glide_rotatable_bonds>
7

> <r_i_docking_score>
-7.07957674294766

> <r_i_glide_ligand_efficiency>
-0.202273621227076

> <r_i_glide_ligand_efficiency_sa>
-0.661650427051604

> <r_i_glide_ligand_efficiency_ln>
-1.55412421781727

> <r_i_glide_gscore>
-7.07957674294766

> <r_i_glide_lipo>
-2.58180475753689

> <r_i_glide_hbond>
-0.608

> <r_i_glide_metal>
0

> <r_i_glide_rewards>
-1.0610517135714

> <r_i_glide_evdw>
-39.2339401245117

> <r_i_glide_ecoul>
-9.31938171386719

> <r_i_glide_erotb>
0.541341545918351

> <r_i_glide_esite>
-0.0104575544520657

> <r_i_glide_emodel>
-62.495400063454

> <r_i_glide_energy>
-48.5533218383789

> <r_i_glide_einternal>
9.65222358703613

> <i_i_glide_confnum>
134

> <i_i_glide_posenum>
135

> <r_i_glide_eff_state_penalty>
0

> <s_user_duplicate_titles>
CHEMBL286_lig2004

> <i_f3d_flags>
0

> <s_m_subgroup_title>
dock_pv

> <s_m_subgroupid>
dock_pv

> <b_m_subgroup_collapsed>
1

$$$$
CHEMBL286_lig560
                    3D
 Schrodinger Suite 2021-1.
 80 84  0  0  1  0            999 V2000
   -6.6927  -14.4650   -8.1331 N   0  0  0  0  0  0
   -5.6812  -13.6469   -7.6074 C   0  0  0  0  0  0
   -6.1397  -15.7219   -8.2160 C   0  0  0  0  0  0
   -4.5462  -14.3705   -7.4834 N   0  0  0  0  0  0
   -7.2772  -11.8548   -7.5157 N   0  0  0  0  0  0
   -7.9391  -13.9772   -8.4206 C   0  0  0  0  0  0
   -4.8670  -15.6620   -7.8682 N   0  0  0  0  0  0
   -8.2459  -12.6742   -8.0219 C   0  0  0  0  0  0
   -6.0077  -12.3112   -7.3219 C   0  0  0  0  0  0
   -6.9121  -16.9658   -8.6624 C   0  0  0  0  0  0
   -6.2350  -17.7601   -9.7846 C   0  0  0  0  0  0
   -6.5014  -18.2635  -12.2230 C   0  0  2  0  0  0
   -6.9793  -17.9139  -10.8899 N   0  0  0  0  0  0
   -9.6580  -12.1516   -8.0210 C   0  0  0  0  0  0
   -6.0759  -19.7553  -12.4586 C   0  0  1  0  0  0
   -5.4783  -17.2038  -12.7552 C   0  0  0  0  0  0
   -5.0781  -18.1678   -9.6793 O   0  0  0  0  0  0
  -12.0442  -12.5501   -8.3458 N   0  0  0  0  0  0
   -7.1006  -20.8728  -12.0329 C   0  0  0  0  0  0
   -5.8698  -19.8524  -13.8665 O   0  0  0  0  0  0
  -10.7475  -12.9469   -8.4216 C   0  0  0  0  0  0
   -5.0141  -11.2932   -6.7672 C   0  0  0  0  0  0
   -5.9091  -15.7057  -12.7392 C   0  0  0  0  0  0
   -9.9686  -10.8609   -7.5482 C   0  0  0  0  0  0
  -12.2988  -11.3135   -7.8619 C   0  0  0  0  0  0
   -6.7710  -22.2677  -12.6488 C   0  0  0  0  0  0
   -7.2026  -21.1026  -10.4970 C   0  0  0  0  0  0
   -7.4356  -15.4899  -12.8232 C   0  0  0  0  0  0
   -5.3590  -14.8560  -11.5846 C   0  0  0  0  0  0
   -4.3242  -10.4415   -7.8529 C   0  0  0  0  0  0
  -11.2914  -10.4421   -7.4587 C   0  0  0  0  0  0
   -3.3777  -11.2244   -8.7810 C   0  0  0  0  0  0
   -7.8595  -23.3139  -12.3422 C   0  0  0  0  0  0
   -8.3043  -22.1189  -10.1299 C   0  0  0  0  0  0
   -7.8243  -14.0541  -13.0826 C   0  0  0  0  0  0
   -5.7822  -13.3739  -11.7061 C   0  0  0  0  0  0
   -8.0777  -23.4773  -10.8247 C   0  0  0  0  0  0
   -7.3066  -13.1815  -11.9309 C   0  0  0  0  0  0
   -8.6541  -14.6772   -8.8184 H   0  0  0  0  0  0
   -7.9150  -16.6953   -8.9861 H   0  0  0  0  0  0
   -7.1047  -17.6302   -7.8284 H   0  0  0  0  0  0
   -7.4043  -18.1380  -12.8209 H   0  0  0  0  0  0
   -7.9320  -17.5889  -10.8592 H   0  0  0  0  0  0
   -5.1120  -19.9376  -11.9818 H   0  0  0  0  0  0
   -4.5319  -17.3113  -12.2241 H   0  0  0  0  0  0
   -5.2397  -17.4392  -13.7916 H   0  0  0  0  0  0
   -8.0881  -20.5845  -12.3999 H   0  0  0  0  0  0
   -6.6567  -19.5388  -14.3241 H   0  0  0  0  0  0
  -10.6095  -13.9416   -8.8092 H   0  0  0  0  0  0
   -5.5157  -10.6314   -6.0621 H   0  0  0  0  0  0
   -4.2627  -11.8102   -6.1626 H   0  0  0  0  0  0
   -5.4693  -15.2612  -13.6213 H   0  0  0  0  0  0
   -9.1883  -10.1815   -7.2325 H   0  0  0  0  0  0
  -13.3358  -11.0135   -7.8153 H   0  0  0  0  0  0
   -5.7862  -22.6043  -12.3165 H   0  0  0  0  0  0
   -6.6651  -22.2083  -13.7323 H   0  0  0  0  0  0
   -7.4368  -20.1868   -9.9715 H   0  0  0  0  0  0
   -6.2313  -21.4054  -10.0987 H   0  0  0  0  0  0
   -7.8232  -16.0342  -13.6650 H   0  0  0  0  0  0
   -7.9740  -15.8702  -11.9539 H   0  0  0  0  0  0
   -5.6978  -15.2546  -10.6439 H   0  0  0  0  0  0
   -4.2726  -14.9415  -11.5431 H   0  0  0  0  0  0
   -5.0736   -9.9360   -8.4638 H   0  0  0  0  0  0
   -3.7557   -9.6507   -7.3667 H   0  0  0  0  0  0
  -11.5274   -9.4532   -7.0881 H   0  0  0  0  0  0
   -2.9004  -10.5718   -9.5123 H   0  0  0  0  0  0
   -2.5865  -11.7167   -8.2178 H   0  0  0  0  0  0
   -3.9168  -11.9920   -9.3322 H   0  0  0  0  0  0
   -7.5864  -24.2794  -12.7762 H   0  0  0  0  0  0
   -8.7958  -23.0216  -12.8199 H   0  0  0  0  0  0
   -8.3378  -22.2538   -9.0504 H   0  0  0  0  0  0
   -9.2752  -21.7163  -10.4231 H   0  0  0  0  0  0
   -7.4111  -13.7038  -14.0206 H   0  0  0  0  0  0
   -8.9024  -14.0587  -13.2198 H   0  0  0  0  0  0
   -5.2459  -12.8970  -12.5283 H   0  0  0  0  0  0
   -5.4693  -12.8626  -10.8003 H   0  0  0  0  0  0
   -7.2045  -23.9694  -10.3926 H   0  0  0  0  0  0
   -8.9215  -24.1399  -10.6369 H   0  0  0  0  0  0
   -7.5299  -12.1350  -12.1382 H   0  0  0  0  0  0
   -7.8513  -13.4264  -11.0205 H   0  0  0  0  0  0
  1  2  1  0  0  0
  1  3  1  0  0  0
  1  6  1  0  0  0
  2  4  2  0  0  0
  2  9  1  0  0  0
  3  7  2  0  0  0
  3 10  1  0  0  0
  4  7  1  0  0  0
  5  8  1  0  0  0
  5  9  2  0  0  0
  6  8  2  0  0  0
  6 39  1  0  0  0
  8 14  1  0  0  0
  9 22  1  0  0  0
 10 11  1  0  0  0
 10 40  1  0  0  0
 10 41  1  0  0  0
 11 13  1  0  0  0
 11 17  2  0  0  0
 12 13  1  0  0  0
 12 15  1  0  0  0
 12 16  1  0  0  0
 12 42  1  0  0  0
 13 43  1  0  0  0
 14 21  2  0  0  0
 14 24  1  0  0  0
 15 19  1  0  0  0
 15 20  1  0  0  0
 15 44  1  0  0  0
 16 23  1  0  0  0
 16 45  1  0  0  0
 16 46  1  0  0  0
 18 21  1  0  0  0
 18 25  2  0  0  0
 19 26  1  0  0  0
 19 27  1  0  0  0
 19 47  1  0  0  0
 20 48  1  0  0  0
 21 49  1  0  0  0
 22 30  1  0  0  0
 22 50  1  0  0  0
 22 51  1  0  0  0
 23 28  1  0  0  0
 23 29  1  0  0  0
 23 52  1  0  0  0
 24 31  2  0  0  0
 24 53  1  0  0  0
 25 31  1  0  0  0
 25 54  1  0  0  0
 26 33  1  0  0  0
 26 55  1  0  0  0
 26 56  1  0  0  0
 27 34  1  0  0  0
 27 57  1  0  0  0
 27 58  1  0  0  0
 28 35  1  0  0  0
 28 59  1  0  0  0
 28 60  1  0  0  0
 29 36  1  0  0  0
 29 61  1  0  0  0
 29 62  1  0  0  0
 30 32  1  0  0  0
 30 63  1  0  0  0
 30 64  1  0  0  0
 31 65  1  0  0  0
 32 66  1  0  0  0
 32 67  1  0  0  0
 32 68  1  0  0  0
 33 37  1  0  0  0
 33 69  1  0  0  0
 33 70  1  0  0  0
 34 37  1  0  0  0
 34 71  1  0  0  0
 34 72  1  0  0  0
 35 38  1  0  0  0
 35 73  1  0  0  0
 35 74  1  0  0  0
 36 38  1  0  0  0
 36 75  1  0  0  0
 36 76  1  0  0  0
 37 77  1  0  0  0
 37 78  1  0  0  0
 38 79  1  0  0  0
 38 80  1  0  0  0
M  END
> <s_m_entry_id>
26399

> <s_m_entry_name>
dock_pv.223

> <s_m_Source_Path>
/home/csk/Desktop/cluster/DUD-E-result/reni

> <s_m_Source_File>
dock_pv.maegz

> <i_m_Source_File_Index>
223

> <chembl_id>
CHEMBL431401

> <chembl_pref_name>
None

> <i_lp_mmshare_version>
53161

> <r_lp_tautomer_probability>
1

> <s_lp_Force_Field>
OPLS_2005

> <r_lp_Energy>
32.755274

> <b_lp_Chiralities_Consistent>
1

> <s_lp_Variant>
CHEMBL286_lig560-2

> <s_i_glide_gridfile>
glide-grid_3g6z

> <i_i_glide_lignum>
1580

> <i_i_glide_rotatable_bonds>
12

> <r_i_docking_score>
-7.06479186717332

> <r_i_glide_ligand_efficiency>
-0.185915575451929

> <r_i_glide_ligand_efficiency_sa>
-0.625043591652381

> <r_i_glide_ligand_efficiency_ln>
-1.52337695168345

> <r_i_glide_gscore>
-7.06479186717332

> <r_i_glide_lipo>
-3.27060189669946

> <r_i_glide_hbond>
-0.32

> <r_i_glide_metal>
0

> <r_i_glide_rewards>
-1.27718417302548

> <r_i_glide_evdw>
-35.2618751525879

> <r_i_glide_ecoul>
-6.8885326385498

> <r_i_glide_erotb>
0.610758814046486

> <r_i_glide_esite>
-0.0113909580830003

> <r_i_glide_emodel>
-55.2042213690726

> <r_i_glide_energy>
-42.1504077911377

> <r_i_glide_einternal>
7.52740287780762

> <i_i_glide_confnum>
40

> <i_i_glide_posenum>
43

> <r_i_glide_eff_state_penalty>
0

> <s_user_duplicate_titles>
CHEMBL286_lig560,120635

> <i_f3d_flags>
0

> <s_m_subgroup_title>
dock_pv

> <s_m_subgroupid>
dock_pv

> <b_m_subgroup_collapsed>
1

$$$$
CHEMBL286_lig2045
                    3D
 Schrodinger Suite 2021-1.
 92 96  0  0  1  0            999 V2000
   -3.5211  -11.4749   -7.4293 C   0  0  0  0  0  0
   -4.7668  -11.4377   -6.5235 C   0  0  0  0  0  0
   -6.0456  -11.6935   -7.3205 C   0  0  0  0  0  0
   -3.4124  -12.7434   -8.1716 N   0  0  1  0  0  0
   -4.6050  -13.0927   -8.9784 C   0  0  2  0  0  0
   -5.9285  -12.9975   -8.1241 C   0  0  1  0  0  0
   -6.1521  -14.2627   -7.2971 C   0  0  0  0  0  0
   -5.7081  -15.4561   -7.7258 C   0  0  0  0  0  0
   -4.9708  -15.6111   -8.9653 C   0  0  0  0  0  0
   -4.4841  -14.5043   -9.5796 C   0  0  0  0  0  0
   -4.8541  -16.8874   -9.4314 O   0  0  0  0  0  0
   -3.8389  -17.2462  -10.3792 C   0  0  0  0  0  0
   -4.4676  -17.9675  -11.5966 C   0  0  2  0  0  0
   -5.1557  -19.2351  -11.2828 N   0  0  0  0  0  0
   -4.1918  -20.2957  -10.9269 C   0  0  0  0  0  0
   -3.0104  -20.4232  -11.9286 C   0  0  0  0  0  0
   -2.4052  -19.1431  -12.2988 N   0  0  2  0  0  0
   -3.4570  -18.2277  -12.7333 C   0  0  0  0  0  0
   -6.5237  -19.3085  -11.0489 C   0  0  0  0  0  0
   -7.3957  -18.6027  -11.8802 C   0  0  0  0  0  0
   -8.7676  -18.7012  -11.7121 C   0  0  0  0  0  0
   -9.3080  -19.5006  -10.7019 C   0  0  0  0  0  0
   -8.4422  -20.1902   -9.8527 C   0  0  0  0  0  0
   -7.0608  -20.1046  -10.0294 C   0  0  0  0  0  0
  -10.6634  -19.6780  -10.5055 O   0  0  0  0  0  0
  -11.6188  -19.0467  -11.3647 C   0  0  0  0  0  0
  -11.7703  -17.5267  -11.1587 C   0  0  0  0  0  0
  -11.8609  -17.0694   -9.6954 C   0  0  0  0  0  0
  -11.8670  -15.6435   -9.6502 O   0  0  0  0  0  0
  -12.0613  -15.1317   -8.3382 C   0  0  0  0  0  0
  -11.6397  -13.6649   -8.2334 C   0  0  0  0  0  0
  -10.2925  -13.3309   -8.3934 C   0  0  0  0  0  0
   -9.8459  -12.0635   -8.0210 C   0  0  0  0  0  0
  -10.7454  -11.0735   -7.6447 C   0  0  0  0  0  0
  -12.1022  -11.3658   -7.5990 C   0  0  0  0  0  0
  -12.5611  -12.6667   -7.8739 C   0  0  0  0  0  0
  -13.8837  -13.0278   -7.7781 O   0  0  0  0  0  0
  -14.8747  -12.0186   -7.6085 C   0  0  0  0  0  0
   -2.1369  -12.8286   -8.9087 C   0  0  0  0  0  0
   -1.0328  -13.4392   -8.0188 C   0  0  0  0  0  0
   -1.2381  -14.8692   -7.7685 N   0  0  0  0  0  0
   -0.6834  -15.8684   -8.4711 C   0  0  0  0  0  0
    0.0834  -15.6960   -9.4167 O   0  0  0  0  0  0
   -1.0489  -17.2812   -8.0342 C   0  0  0  0  0  0
   -2.6393  -11.3437   -6.8020 H   0  0  0  0  0  0
   -3.5198  -10.6372   -8.1281 H   0  0  0  0  0  0
   -4.6691  -12.1556   -5.7101 H   0  0  0  0  0  0
   -4.8296  -10.4626   -6.0361 H   0  0  0  0  0  0
   -6.9311  -11.6781   -6.6865 H   0  0  0  0  0  0
   -6.1224  -10.8660   -8.0213 H   0  0  0  0  0  0
   -4.6719  -12.3746   -9.7992 H   0  0  0  0  0  0
   -6.7723  -13.0019   -8.8157 H   0  0  0  0  0  0
   -6.6690  -14.2104   -6.3501 H   0  0  0  0  0  0
   -5.8744  -16.3264   -7.1104 H   0  0  0  0  0  0
   -3.9716  -14.5793  -10.5238 H   0  0  0  0  0  0
   -3.1936  -16.4369  -10.7118 H   0  0  0  0  0  0
   -3.1609  -17.9254   -9.8639 H   0  0  0  0  0  0
   -5.1858  -17.2666  -12.0150 H   0  0  0  0  0  0
   -4.7075  -21.2546  -10.8634 H   0  0  0  0  0  0
   -3.8022  -20.1029   -9.9271 H   0  0  0  0  0  0
   -3.3497  -20.9335  -12.8313 H   0  0  0  0  0  0
   -2.2300  -21.0621  -11.5131 H   0  0  0  0  0  0
   -1.7187  -19.2827  -13.0266 H   0  0  0  0  0  0
   -3.9709  -18.6448  -13.6014 H   0  0  0  0  0  0
   -3.0688  -17.2848  -13.1054 H   0  0  0  0  0  0
   -7.0319  -18.0091  -12.7072 H   0  0  0  0  0  0
   -9.3868  -18.1777  -12.4213 H   0  0  0  0  0  0
   -8.8438  -20.8107   -9.0655 H   0  0  0  0  0  0
   -6.4109  -20.6583   -9.3670 H   0  0  0  0  0  0
  -11.4152  -19.2588  -12.4206 H   0  0  0  0  0  0
  -12.5770  -19.5223  -11.1551 H   0  0  0  0  0  0
  -10.9497  -16.9863  -11.6217 H   0  0  0  0  0  0
  -12.6655  -17.2339  -11.7058 H   0  0  0  0  0  0
  -12.7508  -17.4805   -9.2202 H   0  0  0  0  0  0
  -10.9963  -17.4348   -9.1406 H   0  0  0  0  0  0
  -13.0988  -15.2872   -8.0395 H   0  0  0  0  0  0
  -11.4506  -15.6788   -7.6188 H   0  0  0  0  0  0
   -9.5783  -14.0883   -8.6844 H   0  0  0  0  0  0
   -8.7920  -11.8385   -8.0413 H   0  0  0  0  0  0
  -10.3948  -10.0831   -7.3943 H   0  0  0  0  0  0
  -12.7781  -10.5752   -7.3138 H   0  0  0  0  0  0
  -15.8685  -12.4625   -7.6188 H   0  0  0  0  0  0
  -14.7647  -11.5016   -6.6530 H   0  0  0  0  0  0
  -14.8353  -11.2906   -8.4212 H   0  0  0  0  0  0
   -1.8445  -11.8181   -9.2001 H   0  0  0  0  0  0
   -2.1968  -13.3928   -9.8408 H   0  0  0  0  0  0
   -1.0134  -12.9436   -7.0464 H   0  0  0  0  0  0
   -0.0519  -13.2416   -8.4583 H   0  0  0  0  0  0
   -1.9053  -15.1000   -7.0479 H   0  0  0  0  0  0
   -2.0596  -17.3191   -7.6236 H   0  0  0  0  0  0
   -0.3527  -17.6338   -7.2737 H   0  0  0  0  0  0
   -1.0007  -17.9616   -8.8840 H   0  0  0  0  0  0
  1  2  1  0  0  0
  1  4  1  0  0  0
  1 45  1  0  0  0
  1 46  1  0  0  0
  2  3  1  0  0  0
  2 47  1  0  0  0
  2 48  1  0  0  0
  3  6  1  0  0  0
  3 49  1  0  0  0
  3 50  1  0  0  0
  4  5  1  0  0  0
  4 39  1  0  0  0
  5 10  1  0  0  0
  5  6  1  0  0  0
  5 51  1  0  0  0
  6  7  1  0  0  0
  6 52  1  0  0  0
  7  8  2  0  0  0
  7 53  1  0  0  0
  8  9  1  0  0  0
  8 54  1  0  0  0
  9 11  1  0  0  0
  9 10  2  0  0  0
 10 55  1  0  0  0
 11 12  1  0  0  0
 12 13  1  0  0  0
 12 56  1  0  0  0
 12 57  1  0  0  0
 13 14  1  0  0  0
 13 18  1  0  0  0
 13 58  1  0  0  0
 14 19  1  0  0  0
 14 15  1  0  0  0
 15 16  1  0  0  0
 15 59  1  0  0  0
 15 60  1  0  0  0
 16 17  1  0  0  0
 16 61  1  0  0  0
 16 62  1  0  0  0
 17 18  1  0  0  0
 17 63  1  0  0  0
 18 64  1  0  0  0
 18 65  1  0  0  0
 19 24  1  0  0  0
 19 20  2  0  0  0
 20 21  1  0  0  0
 20 66  1  0  0  0
 21 22  2  0  0  0
 21 67  1  0  0  0
 22 23  1  0  0  0
 22 25  1  0  0  0
 23 24  2  0  0  0
 23 68  1  0  0  0
 24 69  1  0  0  0
 25 26  1  0  0  0
 26 27  1  0  0  0
 26 70  1  0  0  0
 26 71  1  0  0  0
 27 28  1  0  0  0
 27 72  1  0  0  0
 27 73  1  0  0  0
 28 29  1  0  0  0
 28 74  1  0  0  0
 28 75  1  0  0  0
 29 30  1  0  0  0
 30 31  1  0  0  0
 30 76  1  0  0  0
 30 77  1  0  0  0
 31 32  2  0  0  0
 31 36  1  0  0  0
 32 33  1  0  0  0
 32 78  1  0  0  0
 33 34  2  0  0  0
 33 79  1  0  0  0
 34 35  1  0  0  0
 34 80  1  0  0  0
 35 36  2  0  0  0
 35 81  1  0  0  0
 36 37  1  0  0  0
 37 38  1  0  0  0
 38 82  1  0  0  0
 38 83  1  0  0  0
 38 84  1  0  0  0
 39 40  1  0  0  0
 39 85  1  0  0  0
 39 86  1  0  0  0
 40 41  1  0  0  0
 40 87  1  0  0  0
 40 88  1  0  0  0
 41 42  1  0  0  0
 41 89  1  0  0  0
 42 43  2  0  0  0
 42 44  1  0  0  0
 44 90  1  0  0  0
 44 91  1  0  0  0
 44 92  1  0  0  0
M  END
> <s_m_entry_id>
26400

> <s_m_entry_name>
dock_pv.224

> <s_m_Source_Path>
/home/csk/Desktop/cluster/DUD-E-result/reni

> <s_m_Source_File>
dock_pv.maegz

> <i_m_Source_File_Index>
224

> <chembl_id>
CHEMBL1276277

> <chembl_pref_name>
None

> <i_lp_mmshare_version>
53161

> <r_lp_tautomer_probability>
1

> <s_lp_Force_Field>
OPLS_2005

> <r_lp_Energy>
82.90815

> <b_lp_Chiralities_Consistent>
1

> <s_lp_Variant>
CHEMBL286_lig2045-2

> <s_i_glide_gridfile>
glide-grid_3g6z

> <i_i_glide_lignum>
5854

> <i_i_glide_rotatable_bonds>
16

> <r_i_docking_score>
-7.0642673098406

> <r_i_glide_ligand_efficiency>
-0.160551529769105

> <r_i_glide_ligand_efficiency_sa>
-0.566802825139448

> <r_i_glide_ligand_efficiency_ln>
-1.47658597388309

> <r_i_glide_gscore>
-7.0642673098406

> <r_i_glide_lipo>
-4.69306343564

> <r_i_glide_hbond>
0

> <r_i_glide_metal>
0

> <r_i_glide_rewards>
-0.550010757664097

> <r_i_glide_evdw>
-46.3416938781738

> <r_i_glide_ecoul>
-1.25581729412079

> <r_i_glide_erotb>
0.684264171490303

> <r_i_glide_esite>
0

> <r_i_glide_emodel>
-65.0361818211578

> <r_i_glide_energy>
-47.5975111722946

> <r_i_glide_einternal>
3.22058272361755

> <i_i_glide_confnum>
20

> <i_i_glide_posenum>
5

> <r_i_glide_eff_state_penalty>
0

> <s_user_duplicate_titles>
CHEMBL286_lig2045

> <i_f3d_flags>
0

> <s_m_subgroup_title>
dock_pv

> <s_m_subgroupid>
dock_pv

> <b_m_subgroup_collapsed>
1

$$$$
CHEMBL286_lig2467
                    3D
 Schrodinger Suite 2021-1.
 71 73  0  0  1  0            999 V2000
   -5.6240  -15.2776  -10.3567 C   0  0  0  0  0  0
   -6.6133  -16.1022  -11.2268 C   0  0  0  0  0  0
   -6.4041  -15.8283  -12.7327 C   0  0  0  0  0  0
  -10.7055  -13.2632   -8.3849 C   0  0  0  0  0  0
  -11.9846  -13.8158   -8.3476 C   0  0  0  0  0  0
  -12.1870  -15.1283   -8.7705 C   0  0  0  0  0  0
  -11.1160  -15.9022   -9.2222 C   0  0  0  0  0  0
   -9.8103  -15.3625   -9.2211 C   0  0  0  0  0  0
   -9.6260  -14.0299   -8.8210 C   0  0  0  0  0  0
   -8.6742  -16.0842   -9.6641 N   0  0  0  0  0  0
   -8.0393  -15.5725  -10.8979 C   0  0  0  0  0  0
   -6.5557  -17.5447  -10.9076 N   0  0  2  0  0  0
   -6.9780  -17.8969   -9.5375 C   0  0  0  0  0  0
   -8.2744  -17.2246   -9.0304 C   0  0  0  0  0  0
   -8.8358  -17.6661   -8.0220 O   0  0  0  0  0  0
   -5.2724  -18.2256  -11.2304 C   0  0  0  0  0  0
   -5.3307  -19.3579  -12.3057 C   0  0  1  0  0  0
   -6.3942  -20.4782  -12.0870 C   0  0  2  0  0  0
   -5.4689  -18.7605  -13.6292 N   0  0  0  0  0  0
   -6.1540  -21.3073  -10.7947 C   0  0  0  0  0  0
   -6.3584  -21.4112  -13.1610 O   0  0  0  0  0  0
   -7.2423  -22.3637  -10.4294 C   0  0  2  0  0  0
   -8.6827  -21.7875  -10.4437 C   0  0  0  0  0  0
   -9.5522  -22.3913  -11.2835 N   0  0  0  0  0  0
   -8.9636  -20.8452   -9.7049 O   0  0  0  0  0  0
   -6.9034  -23.1413   -9.1128 C   0  0  0  0  0  0
  -11.4704  -17.4769   -9.8499 Cl  0  0  0  0  0  0
   -7.8330  -24.3515   -8.8821 C   0  0  0  0  0  0
   -6.8402  -22.2773   -7.8303 C   0  0  0  0  0  0
  -10.9200  -22.1292  -11.4903 C   0  0  0  0  0  0
  -11.6078  -21.0016  -11.0075 C   0  0  0  0  0  0
  -12.9324  -20.7933  -11.2207 N   0  0  0  0  0  0
  -13.6107  -21.7236  -11.9347 C   0  0  0  0  0  0
  -13.0091  -22.8630  -12.4664 C   0  0  0  0  0  0
  -11.6450  -23.0598  -12.2438 C   0  0  0  0  0  0
   -5.6589  -14.2181  -10.6124 H   0  0  0  0  0  0
   -5.8366  -15.3610   -9.2904 H   0  0  0  0  0  0
   -4.5912  -15.5974  -10.4931 H   0  0  0  0  0  0
   -6.5870  -14.7850  -12.9899 H   0  0  0  0  0  0
   -5.3906  -16.0637  -13.0514 H   0  0  0  0  0  0
   -7.0728  -16.4362  -13.3396 H   0  0  0  0  0  0
  -10.5515  -12.2421   -8.0673 H   0  0  0  0  0  0
  -12.8206  -13.2225   -8.0043 H   0  0  0  0  0  0
  -13.1849  -15.5426   -8.7697 H   0  0  0  0  0  0
   -8.6389  -13.5889   -8.8323 H   0  0  0  0  0  0
   -8.7062  -15.9316  -11.6839 H   0  0  0  0  0  0
   -8.0962  -14.4875  -10.9880 H   0  0  0  0  0  0
   -7.1627  -18.9628   -9.4569 H   0  0  0  0  0  0
   -6.1914  -17.6633   -8.8210 H   0  0  0  0  0  0
   -4.8297  -18.6560  -10.3304 H   0  0  0  0  0  0
   -4.5277  -17.5034  -11.5651 H   0  0  0  0  0  0
   -4.3497  -19.8365  -12.3036 H   0  0  0  0  0  0
   -7.3788  -20.0069  -12.0669 H   0  0  0  0  0  0
   -6.4290  -18.4664  -13.7901 H   0  0  0  0  0  0
   -4.9171  -17.9170  -13.6991 H   0  0  0  0  0  0
   -6.0105  -20.6328   -9.9591 H   0  0  0  0  0  0
   -5.1953  -21.8199  -10.8936 H   0  0  0  0  0  0
   -7.2362  -21.4708  -13.5589 H   0  0  0  0  0  0
   -7.1875  -23.1055  -11.2292 H   0  0  0  0  0  0
   -9.1851  -23.1611  -11.8225 H   0  0  0  0  0  0
   -5.9036  -23.5582   -9.2518 H   0  0  0  0  0  0
   -8.8521  -24.0400   -8.6538 H   0  0  0  0  0  0
   -7.8711  -24.9918   -9.7637 H   0  0  0  0  0  0
   -7.4846  -24.9600   -8.0472 H   0  0  0  0  0  0
   -7.8043  -21.8266   -7.5961 H   0  0  0  0  0  0
   -6.5542  -22.8779   -6.9664 H   0  0  0  0  0  0
   -6.1085  -21.4747   -7.9059 H   0  0  0  0  0  0
  -11.1209  -20.2261  -10.4369 H   0  0  0  0  0  0
  -14.6676  -21.5453  -12.0604 H   0  0  0  0  0  0
  -13.5848  -23.5807  -13.0337 H   0  0  0  0  0  0
  -11.1638  -23.9408  -12.6476 H   0  0  0  0  0  0
  1  2  1  0  0  0
  1 36  1  0  0  0
  1 37  1  0  0  0
  1 38  1  0  0  0
  2  3  1  0  0  0
  2 11  1  0  0  0
  2 12  1  0  0  0
  3 39  1  0  0  0
  3 40  1  0  0  0
  3 41  1  0  0  0
  4  5  2  0  0  0
  4  9  1  0  0  0
  4 42  1  0  0  0
  5  6  1  0  0  0
  5 43  1  0  0  0
  6  7  2  0  0  0
  6 44  1  0  0  0
  7  8  1  0  0  0
  7 27  1  0  0  0
  8  9  2  0  0  0
  8 10  1  0  0  0
  9 45  1  0  0  0
 10 11  1  0  0  0
 10 14  1  0  0  0
 11 46  1  0  0  0
 11 47  1  0  0  0
 12 13  1  0  0  0
 12 16  1  0  0  0
 13 14  1  0  0  0
 13 48  1  0  0  0
 13 49  1  0  0  0
 14 15  2  0  0  0
 16 17  1  0  0  0
 16 50  1  0  0  0
 16 51  1  0  0  0
 17 18  1  0  0  0
 17 19  1  0  0  0
 17 52  1  0  0  0
 18 20  1  0  0  0
 18 21  1  0  0  0
 18 53  1  0  0  0
 19 54  1  0  0  0
 19 55  1  0  0  0
 20 22  1  0  0  0
 20 56  1  0  0  0
 20 57  1  0  0  0
 21 58  1  0  0  0
 22 23  1  0  0  0
 22 26  1  0  0  0
 22 59  1  0  0  0
 23 24  1  0  0  0
 23 25  2  0  0  0
 24 30  1  0  0  0
 24 60  1  0  0  0
 26 28  1  0  0  0
 26 29  1  0  0  0
 26 61  1  0  0  0
 28 62  1  0  0  0
 28 63  1  0  0  0
 28 64  1  0  0  0
 29 65  1  0  0  0
 29 66  1  0  0  0
 29 67  1  0  0  0
 30 31  2  0  0  0
 30 35  1  0  0  0
 31 32  1  0  0  0
 31 68  1  0  0  0
 32 33  2  0  0  0
 33 34  1  0  0  0
 33 69  1  0  0  0
 34 35  2  0  0  0
 34 70  1  0  0  0
 35 71  1  0  0  0
M  END
> <s_m_entry_id>
26401

> <s_m_entry_name>
dock_pv.225

> <s_m_Source_Path>
/home/csk/Desktop/cluster/DUD-E-result/reni

> <s_m_Source_File>
dock_pv.maegz

> <i_m_Source_File_Index>
225

> <chembl_id>
CHEMBL2387548

> <chembl_pref_name>
None

> <i_lp_mmshare_version>
53161

> <r_lp_tautomer_probability>
1

> <s_lp_Force_Field>
OPLS_2005

> <r_lp_Energy>
82.801733

> <b_lp_Chiralities_Consistent>
1

> <s_lp_Variant>
CHEMBL286_lig2467-1

> <s_i_glide_gridfile>
glide-grid_3g6z

> <i_i_glide_lignum>
6527

> <i_i_glide_rotatable_bonds>
11

> <r_i_docking_score>
-7.06373142298443

> <r_i_glide_ligand_efficiency>
-0.201820897799555

> <r_i_glide_ligand_efficiency_sa>
-0.660169538701762

> <r_i_glide_ligand_efficiency_ln>
-1.55064581841741

> <r_i_glide_gscore>
-7.06373142298443

> <r_i_glide_lipo>
-2.79517937493928

> <r_i_glide_hbond>
-0.387003773198364

> <r_i_glide_metal>
0

> <r_i_glide_rewards>
-0.894845786622939

> <r_i_glide_evdw>
-41.0616874694824

> <r_i_glide_ecoul>
-10.5471458435059

> <r_i_glide_erotb>
0.648453761776161

> <r_i_glide_esite>
0

> <r_i_glide_emodel>
-73.0106273767042

> <r_i_glide_energy>
-51.6088333129883

> <r_i_glide_einternal>
2.2825083732605

> <i_i_glide_confnum>
27

> <i_i_glide_posenum>
37

> <r_i_glide_eff_state_penalty>
0

> <s_user_duplicate_titles>
CHEMBL286_lig2467

> <i_f3d_flags>
0

> <s_m_subgroup_title>
dock_pv

> <s_m_subgroupid>
dock_pv

> <b_m_subgroup_collapsed>
1

$$$$
CHEMBL286_lig240
                    3D
 Schrodinger Suite 2021-1.
 98100  0  0  1  0            999 V2000
  -11.4539  -15.0702   -8.7337 S   0  0  0  0  0  0
   -9.8880  -17.5324   -8.9729 C   0  0  1  0  0  0
   -8.5625  -16.7648   -9.1808 C   0  0  0  0  0  0
   -5.7552  -16.7649  -10.7727 C   0  0  0  0  0  0
   -4.7464  -16.5091  -11.6212 N   0  0  0  0  0  0
   -3.5758  -17.3498  -11.8884 C   0  0  2  0  0  0
   -8.2080  -16.4111  -10.4281 N   0  0  0  0  0  0
  -10.8430  -16.7255   -8.0434 C   0  0  0  0  0  0
   -6.9512  -15.7883  -10.8565 C   0  0  1  0  0  0
   -5.6469  -13.2387  -12.0150 N   0  0  0  0  0  0
   -3.8447  -18.4484  -12.9633 C   0  0  2  0  0  0
   -5.5069  -13.6606  -10.7696 C   0  0  0  0  0  0
  -12.8026  -14.5335   -7.4747 C   0  0  0  0  0  0
   -6.6668  -14.4295  -10.1588 C   0  0  0  0  0  0
   -5.0524  -19.4184  -12.7628 C   0  0  2  0  0  0
   -3.2957  -12.4618  -11.2853 S   0  0  0  0  0  0
   -4.5959  -12.5759  -12.4232 C   0  0  0  0  0  0
  -10.3550  -14.0984   -8.7022 O   0  0  0  0  0  0
  -12.1278  -15.3533  -10.0039 O   0  0  0  0  0  0
  -10.5783  -18.1131  -10.2570 C   0  0  0  0  0  0
   -4.2932  -13.3396  -10.1686 C   0  0  0  0  0  0
   -2.7951  -17.8271  -10.6209 C   0  0  0  0  0  0
   -7.8752  -16.5034   -8.1934 O   0  0  0  0  0  0
   -5.7762  -17.7245   -9.9989 O   0  0  0  0  0  0
   -4.7357  -20.7444  -12.0004 C   0  0  0  0  0  0
   -2.6629  -19.1739  -13.2206 O   0  0  0  0  0  0
   -5.6597  -19.6622  -14.0208 O   0  0  0  0  0  0
   -9.9786  -19.4301  -10.7747 C   0  0  0  0  0  0
   -2.3301  -16.7100   -9.6534 C   0  0  0  0  0  0
  -13.8669  -15.6517   -7.4500 C   0  0  0  0  0  0
  -13.3975  -13.1899   -7.9547 C   0  0  0  0  0  0
  -12.2065  -14.3460   -6.0668 C   0  0  0  0  0  0
   -4.1596  -21.9368  -12.8199 C   0  0  0  0  0  0
   -8.8500  -19.4364  -11.6032 C   0  0  0  0  0  0
  -10.5624  -20.6569  -10.4205 C   0  0  0  0  0  0
   -1.7777  -17.3193   -8.3444 C   0  0  0  0  0  0
   -1.2412  -15.7946  -10.2725 C   0  0  0  0  0  0
   -5.2593  -22.7904  -13.4859 C   0  0  0  0  0  0
   -3.2594  -22.8287  -11.9457 C   0  0  0  0  0  0
  -10.0105  -21.8627  -10.8362 C   0  0  0  0  0  0
   -8.3037  -20.6465  -12.0209 C   0  0  0  0  0  0
   -0.7921  -14.6847   -9.2979 C   0  0  0  0  0  0
   -1.3642  -16.2277   -7.3353 C   0  0  0  0  0  0
   -0.3231  -15.2679   -7.9474 C   0  0  0  0  0  0
   -8.8768  -21.8529  -11.6370 C   0  0  0  0  0  0
   -9.5717  -18.3961   -8.3837 H   0  0  0  0  0  0
   -4.8159  -15.6736  -12.1901 H   0  0  0  0  0  0
   -2.9033  -16.6631  -12.4050 H   0  0  0  0  0  0
   -8.8338  -16.6500  -11.1842 H   0  0  0  0  0  0
  -11.7573  -17.2633   -7.8511 H   0  0  0  0  0  0
  -10.3873  -16.5217   -7.0751 H   0  0  0  0  0  0
   -7.1090  -15.5916  -11.9189 H   0  0  0  0  0  0
   -4.0355  -17.8829  -13.8799 H   0  0  0  0  0  0
   -7.5705  -13.8168  -10.1909 H   0  0  0  0  0  0
   -6.4779  -14.5907   -9.0968 H   0  0  0  0  0  0
   -5.8344  -18.9287  -12.1968 H   0  0  0  0  0  0
   -4.5011  -12.1705  -13.4199 H   0  0  0  0  0  0
  -10.6009  -17.3806  -11.0662 H   0  0  0  0  0  0
  -11.6342  -18.2947  -10.0480 H   0  0  0  0  0  0
   -3.9518  -13.5779   -9.1737 H   0  0  0  0  0  0
   -3.4096  -18.5435  -10.0756 H   0  0  0  0  0  0
   -1.9145  -18.3954  -10.9229 H   0  0  0  0  0  0
   -4.0572  -20.4982  -11.1847 H   0  0  0  0  0  0
   -5.6281  -21.0872  -11.4758 H   0  0  0  0  0  0
   -2.4852  -19.7551  -12.4754 H   0  0  0  0  0  0
   -6.2378  -18.9236  -14.2577 H   0  0  0  0  0  0
   -3.1846  -16.0863   -9.3837 H   0  0  0  0  0  0
  -13.6292  -16.4518   -6.7509 H   0  0  0  0  0  0
  -14.8637  -15.2833   -7.2197 H   0  0  0  0  0  0
  -13.9213  -16.1425   -8.4182 H   0  0  0  0  0  0
  -12.6320  -12.4172   -8.0048 H   0  0  0  0  0  0
  -13.8301  -13.2629   -8.9473 H   0  0  0  0  0  0
  -14.1787  -12.8321   -7.2854 H   0  0  0  0  0  0
  -11.4677  -13.5453   -6.0398 H   0  0  0  0  0  0
  -12.9936  -14.0632   -5.3670 H   0  0  0  0  0  0
  -11.7311  -15.2503   -5.6918 H   0  0  0  0  0  0
   -3.5316  -21.5500  -13.6199 H   0  0  0  0  0  0
   -8.3958  -18.5207  -11.9407 H   0  0  0  0  0  0
  -11.4058  -20.7180   -9.7399 H   0  0  0  0  0  0
   -2.5266  -17.9744   -7.8997 H   0  0  0  0  0  0
   -0.9341  -17.9759   -8.5623 H   0  0  0  0  0  0
   -0.3825  -16.3976  -10.5738 H   0  0  0  0  0  0
   -1.5975  -15.3422  -11.1968 H   0  0  0  0  0  0
   -5.9423  -23.2193  -12.7496 H   0  0  0  0  0  0
   -5.8593  -22.2150  -14.1924 H   0  0  0  0  0  0
   -4.8258  -23.6183  -14.0522 H   0  0  0  0  0  0
   -3.8165  -23.2800  -11.1228 H   0  0  0  0  0  0
   -2.8178  -23.6376  -12.5299 H   0  0  0  0  0  0
   -2.4360  -22.2562  -11.5155 H   0  0  0  0  0  0
  -10.4555  -22.7987  -10.5414 H   0  0  0  0  0  0
   -7.4664  -20.6634  -12.6912 H   0  0  0  0  0  0
   -1.6176  -13.9941   -9.1261 H   0  0  0  0  0  0
    0.0076  -14.0932   -9.7536 H   0  0  0  0  0  0
   -2.2454  -15.6646   -7.0240 H   0  0  0  0  0  0
   -0.9619  -16.6909   -6.4338 H   0  0  0  0  0  0
   -0.1023  -14.4616   -7.2507 H   0  0  0  0  0  0
    0.6148  -15.8048   -8.0970 H   0  0  0  0  0  0
   -8.4477  -22.7818  -11.9797 H   0  0  0  0  0  0
  1  8  1  0  0  0
  1 13  1  0  0  0
  1 18  2  0  0  0
  1 19  2  0  0  0
  2  8  1  0  0  0
  2  3  1  0  0  0
  2 20  1  0  0  0
  2 46  1  0  0  0
  3  7  1  0  0  0
  3 23  2  0  0  0
  4  9  1  0  0  0
  4  5  1  0  0  0
  4 24  2  0  0  0
  5  6  1  0  0  0
  5 47  1  0  0  0
  6 11  1  0  0  0
  6 22  1  0  0  0
  6 48  1  0  0  0
  7  9  1  0  0  0
  7 49  1  0  0  0
  8 50  1  0  0  0
  8 51  1  0  0  0
  9 14  1  0  0  0
  9 52  1  0  0  0
 10 12  1  0  0  0
 10 17  2  0  0  0
 11 15  1  0  0  0
 11 26  1  0  0  0
 11 53  1  0  0  0
 12 14  1  0  0  0
 12 21  2  0  0  0
 13 30  1  0  0  0
 13 31  1  0  0  0
 13 32  1  0  0  0
 14 54  1  0  0  0
 14 55  1  0  0  0
 15 25  1  0  0  0
 15 27  1  0  0  0
 15 56  1  0  0  0
 16 21  1  0  0  0
 16 17  1  0  0  0
 17 57  1  0  0  0
 20 28  1  0  0  0
 20 58  1  0  0  0
 20 59  1  0  0  0
 21 60  1  0  0  0
 22 29  1  0  0  0
 22 61  1  0  0  0
 22 62  1  0  0  0
 25 33  1  0  0  0
 25 63  1  0  0  0
 25 64  1  0  0  0
 26 65  1  0  0  0
 27 66  1  0  0  0
 28 34  2  0  0  0
 28 35  1  0  0  0
 29 36  1  0  0  0
 29 37  1  0  0  0
 29 67  1  0  0  0
 30 68  1  0  0  0
 30 69  1  0  0  0
 30 70  1  0  0  0
 31 71  1  0  0  0
 31 72  1  0  0  0
 31 73  1  0  0  0
 32 74  1  0  0  0
 32 75  1  0  0  0
 32 76  1  0  0  0
 33 38  1  0  0  0
 33 39  1  0  0  0
 33 77  1  0  0  0
 34 41  1  0  0  0
 34 78  1  0  0  0
 35 40  2  0  0  0
 35 79  1  0  0  0
 36 43  1  0  0  0
 36 80  1  0  0  0
 36 81  1  0  0  0
 37 42  1  0  0  0
 37 82  1  0  0  0
 37 83  1  0  0  0
 38 84  1  0  0  0
 38 85  1  0  0  0
 38 86  1  0  0  0
 39 87  1  0  0  0
 39 88  1  0  0  0
 39 89  1  0  0  0
 40 45  1  0  0  0
 40 90  1  0  0  0
 41 45  2  0  0  0
 41 91  1  0  0  0
 42 44  1  0  0  0
 42 92  1  0  0  0
 42 93  1  0  0  0
 43 44  1  0  0  0
 43 94  1  0  0  0
 43 95  1  0  0  0
 44 96  1  0  0  0
 44 97  1  0  0  0
 45 98  1  0  0  0
M  END
> <s_m_entry_id>
26402

> <s_m_entry_name>
dock_pv.226

> <s_m_Source_Path>
/home/csk/Desktop/cluster/DUD-E-result/reni

> <s_m_Source_File>
dock_pv.maegz

> <i_m_Source_File_Index>
226

> <chembl_id>
CHEMBL279780

> <chembl_pref_name>
None

> <i_lp_mmshare_version>
53161

> <r_lp_tautomer_probability>
1

> <s_lp_Force_Field>
OPLS_2005

> <r_lp_Energy>
22.553548

> <b_lp_Chiralities_Consistent>
1

> <s_lp_Variant>
CHEMBL286_lig240-1

> <s_i_glide_gridfile>
glide-grid_3g6z

> <i_i_glide_lignum>
380

> <i_i_glide_rotatable_bonds>
21

> <r_i_docking_score>
-7.06280566651393

> <r_i_glide_ligand_efficiency>
-0.156951237033643

> <r_i_glide_ligand_efficiency_sa>
-0.558258803428029

> <r_i_glide_ligand_efficiency_ln>
-1.4693783225981

> <r_i_glide_gscore>
-7.06280566651393

> <r_i_glide_lipo>
-2.69198051215047

> <r_i_glide_hbond>
0

> <r_i_glide_metal>
0

> <r_i_glide_rewards>
-0.960982852802452

> <r_i_glide_evdw>
-43.9104881286621

> <r_i_glide_ecoul>
-11.4699802398682

> <r_i_glide_erotb>
0.517887445470818

> <r_i_glide_esite>
-0.0117083046184911

> <r_i_glide_emodel>
-73.2846509283796

> <r_i_glide_energy>
-55.3804683685303

> <r_i_glide_einternal>
14.1203308105469

> <i_i_glide_confnum>
112

> <i_i_glide_posenum>
326

> <r_i_glide_eff_state_penalty>
0

> <s_user_duplicate_titles>
CHEMBL286_lig240

> <i_f3d_flags>
0

> <s_m_subgroup_title>
dock_pv

> <s_m_subgroupid>
dock_pv

> <b_m_subgroup_collapsed>
1

$$$$
CHEMBL286_lig1586
                    3D
 Schrodinger Suite 2021-1.
 91 95  0  0  1  0            999 V2000
   -4.6527  -19.7516  -11.5217 C   0  0  0  0  0  0
   -5.9502  -19.4849  -10.7159 C   0  0  0  0  0  0
   -6.8745  -18.6674  -11.3223 N   0  0  0  0  0  0
   -6.6385  -18.0493  -12.6664 C   0  0  2  0  0  0
   -5.4304  -18.6131  -13.4605 C   0  0  0  0  0  0
   -4.9627  -19.8885  -12.9463 N   0  0  2  0  0  0
   -6.1179  -20.0267   -9.6204 O   0  0  0  0  0  0
   -6.7471  -16.5106  -12.7737 C   0  0  0  0  0  0
   -5.7056  -15.8938  -12.0233 O   0  0  0  0  0  0
   -5.9598  -15.1469  -10.8908 C   0  0  0  0  0  0
   -7.2115  -14.9390  -10.2979 C   0  0  0  0  0  0
   -7.3174  -14.2083   -9.1185 C   0  0  0  0  0  0
   -4.8411  -14.5735  -10.2974 C   0  0  0  0  0  0
   -4.9247  -13.8320   -9.1115 C   0  0  0  0  0  0
   -6.1900  -13.6633   -8.4974 C   0  0  0  0  0  0
   -6.3282  -12.9383   -7.1634 C   0  0  0  0  0  0
   -5.2120  -11.9012   -7.0129 C   0  0  0  0  0  0
   -3.8387  -12.5407   -7.2777 C   0  0  0  0  0  0
   -3.7839  -13.2014   -8.5913 N   0  0  0  0  0  0
   -8.1233  -18.3639  -10.7050 C   0  0  0  0  0  0
   -8.1943  -17.9495   -9.3667 C   0  0  0  0  0  0
   -9.4158  -17.5892   -8.8048 C   0  0  0  0  0  0
  -10.5870  -17.6116   -9.5786 C   0  0  0  0  0  0
  -10.5208  -18.0436  -10.8977 C   0  0  0  0  0  0
   -9.3066  -18.4238  -11.4541 C   0  0  0  0  0  0
  -11.8429  -17.2629   -9.1171 O   0  0  0  0  0  0
  -12.0085  -16.6792   -7.8238 C   0  0  0  0  0  0
  -11.4849  -15.2458   -7.8032 C   0  0  0  0  0  0
  -12.1449  -14.3573   -8.8502 C   0  0  0  0  0  0
  -13.0862  -13.4930   -8.2346 O   0  0  0  0  0  0
  -12.9709  -12.1401   -8.6494 C   0  0  0  0  0  0
  -11.9900  -11.3900   -7.7525 C   0  0  0  0  0  0
  -10.6230  -11.4358   -8.0212 C   0  0  0  0  0  0
   -9.7248  -10.6317   -7.3195 C   0  0  0  0  0  0
  -10.1882   -9.7753   -6.3295 C   0  0  0  0  0  0
  -11.5426   -9.7490   -6.0257 C   0  0  0  0  0  0
  -12.4428  -10.5760   -6.7105 C   0  0  0  0  0  0
  -13.7750  -10.4631   -6.4209 O   0  0  0  0  0  0
  -14.4886  -11.6172   -5.9865 C   0  0  0  0  0  0
   -2.3991  -13.5539   -8.9391 C   0  0  0  0  0  0
   -2.0233  -14.9682   -8.4450 C   0  0  0  0  0  0
   -0.7282  -15.3603   -8.8974 O   0  0  0  0  0  0
   -0.5314  -15.8425  -10.1470 C   0  0  0  0  0  0
   -1.3974  -15.9803  -11.0138 O   0  0  0  0  0  0
    0.9299  -16.2388  -10.3830 C   0  0  0  0  0  0
    1.1411  -17.2148  -11.5579 C   0  0  0  0  0  0
   -4.1807  -20.6655  -11.1560 H   0  0  0  0  0  0
   -3.9535  -18.9312  -11.3419 H   0  0  0  0  0  0
   -7.4686  -18.4635  -13.2209 H   0  0  0  0  0  0
   -5.7013  -18.6994  -14.5137 H   0  0  0  0  0  0
   -4.6013  -17.9017  -13.4128 H   0  0  0  0  0  0
   -5.5955  -20.6592  -13.1332 H   0  0  0  0  0  0
   -7.7548  -16.1741  -12.5436 H   0  0  0  0  0  0
   -6.6042  -16.2130  -13.8127 H   0  0  0  0  0  0
   -8.1166  -15.3565  -10.7049 H   0  0  0  0  0  0
   -8.2903  -14.0834   -8.6661 H   0  0  0  0  0  0
   -3.8910  -14.7214  -10.7888 H   0  0  0  0  0  0
   -6.2676  -13.6722   -6.3577 H   0  0  0  0  0  0
   -7.3045  -12.4634   -7.0726 H   0  0  0  0  0  0
   -5.2294  -11.4486   -6.0210 H   0  0  0  0  0  0
   -5.3685  -11.0784   -7.7137 H   0  0  0  0  0  0
   -3.7500  -13.3566   -6.5582 H   0  0  0  0  0  0
   -2.9849  -11.8961   -7.0617 H   0  0  0  0  0  0
   -7.3004  -17.8842   -8.7625 H   0  0  0  0  0  0
   -9.4261  -17.2859   -7.7708 H   0  0  0  0  0  0
  -11.4179  -18.0800  -11.4991 H   0  0  0  0  0  0
   -9.3085  -18.7523  -12.4793 H   0  0  0  0  0  0
  -13.0720  -16.6862   -7.5828 H   0  0  0  0  0  0
  -11.5181  -17.2631   -7.0463 H   0  0  0  0  0  0
  -11.5838  -14.8139   -6.8060 H   0  0  0  0  0  0
  -10.4208  -15.2577   -8.0211 H   0  0  0  0  0  0
  -11.3343  -13.8250   -9.3339 H   0  0  0  0  0  0
  -12.6395  -14.9169   -9.6441 H   0  0  0  0  0  0
  -12.6690  -12.0638   -9.6924 H   0  0  0  0  0  0
  -13.9507  -11.6650   -8.6207 H   0  0  0  0  0  0
  -10.2636  -12.0621   -8.8204 H   0  0  0  0  0  0
   -8.6745  -10.6465   -7.5682 H   0  0  0  0  0  0
   -9.5043   -9.1267   -5.8059 H   0  0  0  0  0  0
  -11.8943   -9.0649   -5.2694 H   0  0  0  0  0  0
  -15.1355  -11.3225   -5.1598 H   0  0  0  0  0  0
  -15.1339  -11.9949   -6.7791 H   0  0  0  0  0  0
  -13.8690  -12.4379   -5.6316 H   0  0  0  0  0  0
   -1.6921  -12.8229   -8.5469 H   0  0  0  0  0  0
   -2.2837  -13.4896  -10.0216 H   0  0  0  0  0  0
   -2.7648  -15.7057   -8.7549 H   0  0  0  0  0  0
   -2.0200  -14.9808   -7.3559 H   0  0  0  0  0  0
    1.3177  -16.6839   -9.4675 H   0  0  0  0  0  0
    1.5001  -15.3269  -10.5534 H   0  0  0  0  0  0
    2.1954  -17.4713  -11.6674 H   0  0  0  0  0  0
    0.8076  -16.7895  -12.5047 H   0  0  0  0  0  0
    0.5950  -18.1463  -11.4019 H   0  0  0  0  0  0
  1  2  1  0  0  0
  1  6  1  0  0  0
  1 47  1  0  0  0
  1 48  1  0  0  0
  2  7  2  0  0  0
  2  3  1  0  0  0
  3 20  1  0  0  0
  3  4  1  0  0  0
  4  5  1  0  0  0
  4  8  1  0  0  0
  4 49  1  0  0  0
  5  6  1  0  0  0
  5 50  1  0  0  0
  5 51  1  0  0  0
  6 52  1  0  0  0
  8  9  1  0  0  0
  8 53  1  0  0  0
  8 54  1  0  0  0
  9 10  1  0  0  0
 10 11  2  0  0  0
 10 13  1  0  0  0
 11 12  1  0  0  0
 11 55  1  0  0  0
 12 15  2  0  0  0
 12 56  1  0  0  0
 13 14  2  0  0  0
 13 57  1  0  0  0
 14 15  1  0  0  0
 14 19  1  0  0  0
 15 16  1  0  0  0
 16 17  1  0  0  0
 16 58  1  0  0  0
 16 59  1  0  0  0
 17 18  1  0  0  0
 17 60  1  0  0  0
 17 61  1  0  0  0
 18 19  1  0  0  0
 18 62  1  0  0  0
 18 63  1  0  0  0
 19 40  1  0  0  0
 20 25  1  0  0  0
 20 21  2  0  0  0
 21 22  1  0  0  0
 21 64  1  0  0  0
 22 23  2  0  0  0
 22 65  1  0  0  0
 23 24  1  0  0  0
 23 26  1  0  0  0
 24 25  2  0  0  0
 24 66  1  0  0  0
 25 67  1  0  0  0
 26 27  1  0  0  0
 27 28  1  0  0  0
 27 68  1  0  0  0
 27 69  1  0  0  0
 28 29  1  0  0  0
 28 70  1  0  0  0
 28 71  1  0  0  0
 29 30  1  0  0  0
 29 72  1  0  0  0
 29 73  1  0  0  0
 30 31  1  0  0  0
 31 32  1  0  0  0
 31 74  1  0  0  0
 31 75  1  0  0  0
 32 33  2  0  0  0
 32 37  1  0  0  0
 33 34  1  0  0  0
 33 76  1  0  0  0
 34 35  2  0  0  0
 34 77  1  0  0  0
 35 36  1  0  0  0
 35 78  1  0  0  0
 36 37  2  0  0  0
 36 79  1  0  0  0
 37 38  1  0  0  0
 38 39  1  0  0  0
 39 80  1  0  0  0
 39 81  1  0  0  0
 39 82  1  0  0  0
 40 41  1  0  0  0
 40 83  1  0  0  0
 40 84  1  0  0  0
 41 42  1  0  0  0
 41 85  1  0  0  0
 41 86  1  0  0  0
 42 43  1  0  0  0
 43 44  2  0  0  0
 43 45  1  0  0  0
 45 46  1  0  0  0
 45 87  1  0  0  0
 45 88  1  0  0  0
 46 89  1  0  0  0
 46 90  1  0  0  0
 46 91  1  0  0  0
M  END
> <s_m_entry_id>
26403

> <s_m_entry_name>
dock_pv.227

> <s_m_Source_Path>
/home/csk/Desktop/cluster/DUD-E-result/reni

> <s_m_Source_File>
dock_pv.maegz

> <i_m_Source_File_Index>
227

> <chembl_id>
CHEMBL204741

> <chembl_pref_name>
None

> <i_lp_mmshare_version>
53161

> <r_lp_tautomer_probability>
1

> <s_lp_Force_Field>
OPLS_2005

> <r_lp_Energy>
64.656496

> <b_lp_Chiralities_Consistent>
1

> <s_lp_Variant>
CHEMBL286_lig1586-1

> <s_i_glide_gridfile>
glide-grid_3g6z

> <i_i_glide_lignum>
5290

> <i_i_glide_rotatable_bonds>
17

> <r_i_docking_score>
-7.0622348977431

> <r_i_glide_ligand_efficiency>
-0.153526845603111

> <r_i_glide_ligand_efficiency_sa>
-0.550094036579983

> <r_i_glide_ligand_efficiency_ln>
-1.46257183291309

> <r_i_glide_gscore>
-7.0622348977431

> <r_i_glide_lipo>
-4.49480333239516

> <r_i_glide_hbond>
-0.277021274771252

> <r_i_glide_metal>
0

> <r_i_glide_rewards>
0.0940499161785832

> <r_i_glide_evdw>
-52.2496948242188

> <r_i_glide_ecoul>
-2.74413084983826

> <r_i_glide_erotb>
0.65529305136575

> <r_i_glide_esite>
-0.015648889434348

> <r_i_glide_emodel>
-64.2867628075663

> <r_i_glide_energy>
-54.993825674057

> <r_i_glide_einternal>
20.6968212127686

> <i_i_glide_confnum>
10

> <i_i_glide_posenum>
4

> <r_i_glide_eff_state_penalty>
0

> <s_user_duplicate_titles>
CHEMBL286_lig1586

> <i_f3d_flags>
0

> <s_m_subgroup_title>
dock_pv

> <s_m_subgroupid>
dock_pv

> <b_m_subgroup_collapsed>
1

$$$$
CHEMBL286_lig1569
                    3D
 Schrodinger Suite 2021-1.
 70 73  0  0  1  0            999 V2000
   -7.0519  -18.4178  -11.7508 N   0  0  0  0  0  0
   -6.8892  -19.7218  -12.1422 C   0  0  0  0  0  0
   -8.0560  -18.0847  -10.8236 C   0  0  0  0  0  0
   -6.2902  -17.2593  -12.3025 C   0  0  2  0  0  0
   -5.4696  -18.8804  -14.0210 N   0  0  2  0  0  0
  -12.2242  -11.0870   -7.3168 C   0  0  0  0  0  0
   -3.9418  -12.1354   -8.6441 C   0  0  0  0  0  0
   -7.5787  -20.6535  -11.7164 O   0  0  0  0  0  0
   -4.7730  -12.7837   -7.7308 C   0  0  0  0  0  0
   -3.3683  -12.8515   -9.6954 C   0  0  0  0  0  0
  -10.9642  -11.0815   -7.9136 C   0  0  0  0  0  0
   -4.4746  -14.8713   -8.9295 C   0  0  0  0  0  0
   -9.1670  -17.3442  -11.2360 C   0  0  0  0  0  0
   -7.8945  -18.4316   -9.4795 C   0  0  0  0  0  0
   -5.0395  -14.1461   -7.8739 C   0  0  0  0  0  0
   -3.6265  -14.2173   -9.8327 C   0  0  0  0  0  0
   -5.7250  -20.0066  -13.1243 C   0  0  0  0  0  0
   -5.1783  -17.6607  -13.2992 C   0  0  0  0  0  0
   -5.4690  -11.9013   -6.4223 Cl  0  0  0  0  0  0
   -2.3385  -12.0461  -10.8226 Cl  0  0  0  0  0  0
   -4.7966  -16.8375  -10.4072 O   0  0  0  0  0  0
   -9.9402  -17.2655   -8.9448 C   0  0  0  0  0  0
  -10.1096  -16.9357  -10.2981 C   0  0  0  0  0  0
   -8.8374  -18.0183   -8.5473 C   0  0  0  0  0  0
  -10.6691  -12.0634   -8.8210 O   0  0  0  0  0  0
   -5.7570  -16.2330  -11.2741 C   0  0  0  0  0  0
  -12.6055  -15.7737   -6.9038 C   0  0  0  0  0  0
  -10.8091  -16.9057   -7.9401 O   0  0  0  0  0  0
  -13.2185  -12.2041   -7.5877 C   0  0  0  0  0  0
   -4.7728  -16.3658   -9.0579 C   0  0  0  0  0  0
  -12.5909  -13.4224   -7.2220 O   0  0  0  0  0  0
  -12.5487  -10.0771   -6.4210 C   0  0  0  0  0  0
  -11.9006  -16.0499   -8.2357 C   0  0  0  0  0  0
  -13.4513  -14.4995   -6.9114 C   0  0  0  0  0  0
  -10.0276  -10.0996   -7.5615 C   0  0  0  0  0  0
   -9.5989  -12.9066   -8.4315 C   0  0  0  0  0  0
  -11.6145   -9.1131   -6.0405 C   0  0  0  0  0  0
  -10.3471   -9.1306   -6.6118 C   0  0  0  0  0  0
   -7.0391  -16.7284  -12.8919 H   0  0  0  0  0  0
   -6.2146  -18.7056  -14.7040 H   0  0  0  0  0  0
   -3.7390  -11.0796   -8.5337 H   0  0  0  0  0  0
   -9.2955  -17.0836  -12.2783 H   0  0  0  0  0  0
   -7.0312  -18.9971   -9.1600 H   0  0  0  0  0  0
   -5.6851  -14.6378   -7.1597 H   0  0  0  0  0  0
   -3.1729  -14.7671  -10.6457 H   0  0  0  0  0  0
   -4.8367  -20.2367  -12.5330 H   0  0  0  0  0  0
   -5.9709  -20.8973  -13.7056 H   0  0  0  0  0  0
   -4.2271  -17.7816  -12.7781 H   0  0  0  0  0  0
   -5.0672  -16.8606  -14.0211 H   0  0  0  0  0  0
  -10.9608  -16.3655  -10.6377 H   0  0  0  0  0  0
   -8.7094  -18.2725   -7.5060 H   0  0  0  0  0  0
   -5.2989  -15.3882  -11.7899 H   0  0  0  0  0  0
   -6.5960  -15.8202  -10.7106 H   0  0  0  0  0  0
  -11.8654  -15.6801   -6.1079 H   0  0  0  0  0  0
  -13.2239  -16.6359   -6.6549 H   0  0  0  0  0  0
  -14.1371  -12.0447   -7.0179 H   0  0  0  0  0  0
  -13.4881  -12.2248   -8.6448 H   0  0  0  0  0  0
   -5.7218  -16.6115   -8.5782 H   0  0  0  0  0  0
   -4.0042  -16.9188   -8.5179 H   0  0  0  0  0  0
  -13.5413  -10.0632   -6.0141 H   0  0  0  0  0  0
  -12.5899  -16.5143   -8.9431 H   0  0  0  0  0  0
  -11.5294  -15.1263   -8.6824 H   0  0  0  0  0  0
  -13.8691  -14.3292   -5.9207 H   0  0  0  0  0  0
  -14.2696  -14.5909   -7.6231 H   0  0  0  0  0  0
   -9.0497  -10.0907   -8.0181 H   0  0  0  0  0  0
   -9.5291  -13.7634   -9.1016 H   0  0  0  0  0  0
   -8.6323  -12.4012   -8.4210 H   0  0  0  0  0  0
   -9.8041  -13.2631   -7.4301 H   0  0  0  0  0  0
  -11.8815   -8.3495   -5.3250 H   0  0  0  0  0  0
   -9.6232   -8.3851   -6.3262 H   0  0  0  0  0  0
  1  2  1  0  0  0
  1  3  1  0  0  0
  1  4  1  0  0  0
  2  8  2  0  0  0
  2 17  1  0  0  0
  3 13  1  0  0  0
  3 14  2  0  0  0
  4 18  1  0  0  0
  4 26  1  0  0  0
  4 39  1  0  0  0
  5 18  1  0  0  0
  5 17  1  0  0  0
  5 40  1  0  0  0
  6 29  1  0  0  0
  6 11  2  0  0  0
  6 32  1  0  0  0
  7 10  1  0  0  0
  7  9  2  0  0  0
  7 41  1  0  0  0
  9 15  1  0  0  0
  9 19  1  0  0  0
 10 16  2  0  0  0
 10 20  1  0  0  0
 11 25  1  0  0  0
 11 35  1  0  0  0
 12 30  1  0  0  0
 12 15  2  0  0  0
 12 16  1  0  0  0
 13 23  2  0  0  0
 13 42  1  0  0  0
 14 24  1  0  0  0
 14 43  1  0  0  0
 15 44  1  0  0  0
 16 45  1  0  0  0
 17 46  1  0  0  0
 17 47  1  0  0  0
 18 48  1  0  0  0
 18 49  1  0  0  0
 21 26  1  0  0  0
 21 30  1  0  0  0
 22 24  2  0  0  0
 22 28  1  0  0  0
 22 23  1  0  0  0
 23 50  1  0  0  0
 24 51  1  0  0  0
 25 36  1  0  0  0
 26 52  1  0  0  0
 26 53  1  0  0  0
 27 33  1  0  0  0
 27 34  1  0  0  0
 27 54  1  0  0  0
 27 55  1  0  0  0
 28 33  1  0  0  0
 29 31  1  0  0  0
 29 56  1  0  0  0
 29 57  1  0  0  0
 30 58  1  0  0  0
 30 59  1  0  0  0
 31 34  1  0  0  0
 32 37  2  0  0  0
 32 60  1  0  0  0
 33 61  1  0  0  0
 33 62  1  0  0  0
 34 63  1  0  0  0
 34 64  1  0  0  0
 35 38  2  0  0  0
 35 65  1  0  0  0
 36 66  1  0  0  0
 36 67  1  0  0  0
 36 68  1  0  0  0
 37 38  1  0  0  0
 37 69  1  0  0  0
 38 70  1  0  0  0
M  END
> <s_m_entry_id>
26404

> <s_m_entry_name>
dock_pv.228

> <s_m_Source_Path>
/home/csk/Desktop/cluster/DUD-E-result/reni

> <s_m_Source_File>
dock_pv.maegz

> <i_m_Source_File_Index>
228

> <chembl_id>
CHEMBL194652

> <chembl_pref_name>
None

> <i_lp_mmshare_version>
53161

> <r_lp_tautomer_probability>
1

> <s_lp_Force_Field>
OPLS_2005

> <r_lp_Energy>
51.852327

> <b_lp_Chiralities_Consistent>
1

> <s_lp_Variant>
CHEMBL286_lig1569-1

> <s_i_glide_gridfile>
glide-grid_3g6z

> <i_i_glide_lignum>
5273

> <i_i_glide_rotatable_bonds>
13

> <r_i_docking_score>
-7.0607659866661

> <r_i_glide_ligand_efficiency>
-0.185809631228055

> <r_i_glide_ligand_efficiency_sa>
-0.624687409777655

> <r_i_glide_ligand_efficiency_ln>
-1.52250885341668

> <r_i_glide_gscore>
-7.0607659866661

> <r_i_glide_lipo>
-4.33523900701049

> <r_i_glide_hbond>
-0.446162869459757

> <r_i_glide_metal>
0

> <r_i_glide_rewards>
0.600157135891613

> <r_i_glide_evdw>
-47.1238403320312

> <r_i_glide_ecoul>
-7.389319896698

> <r_i_glide_erotb>
0.651427647245108

> <r_i_glide_esite>
-0.0663588922263156

> <r_i_glide_emodel>
-70.8333694593294

> <r_i_glide_energy>
-54.5131602287292

> <r_i_glide_einternal>
9.44619274139404

> <i_i_glide_confnum>
51

> <i_i_glide_posenum>
102

> <r_i_glide_eff_state_penalty>
0

> <s_user_duplicate_titles>
CHEMBL286_lig1569,326755

> <i_f3d_flags>
0

> <s_m_subgroup_title>
dock_pv

> <s_m_subgroupid>
dock_pv

> <b_m_subgroup_collapsed>
1

$$$$
CHEMBL286_lig281
                    3D
 Schrodinger Suite 2021-1.
 98100  0  0  1  0            999 V2000
   -7.1227  -17.7151  -11.4200 C   0  0  0  0  0  0
   -5.3016  -15.0839  -11.4184 C   0  0  0  0  0  0
   -1.5896  -15.2273  -11.0066 C   0  0  0  0  0  0
   -8.1771  -16.9896  -11.0238 N   0  0  0  0  0  0
   -9.0947  -17.3192   -9.9269 C   0  0  2  0  0  0
   -5.1824  -16.2856  -12.0197 N   0  0  0  0  0  0
   -6.2791  -17.0983  -12.5513 C   0  0  1  0  0  0
   -2.7943  -14.8944  -11.6207 N   0  0  0  0  0  0
   -2.7542  -20.1323  -12.3781 N   0  0  0  0  0  0
   -3.9969  -14.3943  -10.9137 C   0  0  1  0  0  0
  -10.2810  -18.2407  -10.4100 C   0  0  2  0  0  0
   -4.6602  -19.0848  -13.0309 C   0  0  0  0  0  0
   -5.7197  -18.1404  -13.5505 C   0  0  0  0  0  0
   -4.9365  -20.4025  -12.7080 N   0  0  0  0  0  0
   -9.8849  -19.7075  -10.8128 C   0  0  2  0  0  0
   -3.7870  -20.9664  -12.3249 C   0  0  0  0  0  0
   -1.6246  -15.0157   -9.6615 O   0  0  0  0  0  0
   -3.3065  -18.9301  -12.8211 C   0  0  0  0  0  0
   -0.6210  -15.6663  -11.6210 O   0  0  0  0  0  0
   -9.3946  -16.0145   -9.0965 C   0  0  0  0  0  0
   -6.3891  -14.5327  -11.2404 O   0  0  0  0  0  0
   -6.8114  -18.7972  -10.9165 O   0  0  0  0  0  0
   -4.0537  -12.8411  -11.0226 C   0  0  0  0  0  0
  -11.0971  -20.6644  -11.0057 C   0  0  0  0  0  0
   -0.5423  -15.2684   -8.7514 C   0  0  0  0  0  0
  -10.9749  -17.6552  -11.5008 O   0  0  0  0  0  0
   -9.0111  -20.2636   -9.8469 O   0  0  0  0  0  0
   -3.2977  -12.0853   -9.9440 C   0  0  0  0  0  0
  -10.8541  -15.5300   -8.8769 C   0  0  0  0  0  0
  -10.8270  -22.0363  -11.6920 C   0  0  0  0  0  0
   -0.2112  -16.7755   -8.6872 C   0  0  0  0  0  0
   -1.0920  -14.8052   -7.3865 C   0  0  0  0  0  0
    0.7190  -14.4413   -9.1009 C   0  0  0  0  0  0
   -3.8885  -11.8748   -8.6791 C   0  0  0  0  0  0
   -1.9520  -11.7169  -10.1397 C   0  0  0  0  0  0
  -11.5592  -16.2430   -7.6985 C   0  0  0  0  0  0
  -10.9196  -14.0116   -8.5573 C   0  0  0  0  0  0
  -12.1526  -22.6997  -12.1160 C   0  0  0  0  0  0
   -9.9930  -23.0264  -10.8573 C   0  0  0  0  0  0
   -1.2458  -11.0986   -9.1176 C   0  0  0  0  0  0
   -3.1686  -11.2504   -7.6701 C   0  0  0  0  0  0
  -12.3820  -13.5233   -8.5447 C   0  0  0  0  0  0
  -13.0465  -15.8441   -7.6435 C   0  0  0  0  0  0
   -1.8517  -10.8629   -7.8899 C   0  0  0  0  0  0
  -13.2183  -14.3120   -7.5117 C   0  0  0  0  0  0
   -8.2987  -16.0788  -11.4478 H   0  0  0  0  0  0
   -8.5323  -17.9189   -9.2106 H   0  0  0  0  0  0
   -4.2628  -16.6900  -12.1038 H   0  0  0  0  0  0
   -6.9351  -16.4406  -13.1280 H   0  0  0  0  0  0
   -2.8503  -14.9453  -12.6311 H   0  0  0  0  0  0
   -5.8483  -20.8429  -12.7134 H   0  0  0  0  0  0
   -4.0179  -14.6834   -9.8606 H   0  0  0  0  0  0
  -11.0180  -18.3209   -9.6210 H   0  0  0  0  0  0
   -6.5478  -18.7378  -13.9420 H   0  0  0  0  0  0
   -5.3104  -17.6279  -14.4210 H   0  0  0  0  0  0
   -9.3406  -19.6748  -11.7566 H   0  0  0  0  0  0
   -3.7014  -21.9987  -12.0052 H   0  0  0  0  0  0
   -2.6812  -18.0622  -12.9687 H   0  0  0  0  0  0
   -8.9230  -16.1202   -8.1166 H   0  0  0  0  0  0
   -8.8392  -15.1822   -9.5369 H   0  0  0  0  0  0
   -5.0719  -12.4653  -10.9832 H   0  0  0  0  0  0
   -3.6864  -12.5161  -11.9993 H   0  0  0  0  0  0
  -11.5818  -20.8364  -10.0444 H   0  0  0  0  0  0
  -11.8312  -20.1386  -11.6185 H   0  0  0  0  0  0
  -10.3983  -17.6537  -12.2719 H   0  0  0  0  0  0
   -8.1412  -19.8725   -9.9899 H   0  0  0  0  0  0
  -11.4111  -15.7009   -9.8002 H   0  0  0  0  0  0
  -10.2556  -21.8523  -12.6040 H   0  0  0  0  0  0
    0.1877  -17.1472   -9.6351 H   0  0  0  0  0  0
    0.5380  -16.9809   -7.9221 H   0  0  0  0  0  0
   -1.0962  -17.3693   -8.4552 H   0  0  0  0  0  0
   -1.3909  -13.7564   -7.4163 H   0  0  0  0  0  0
   -1.9759  -15.3807   -7.0983 H   0  0  0  0  0  0
   -0.3496  -14.9174   -6.5951 H   0  0  0  0  0  0
    0.4816  -13.3838   -9.2086 H   0  0  0  0  0  0
    1.4795  -14.5304   -8.3230 H   0  0  0  0  0  0
    1.1760  -14.7626  -10.0382 H   0  0  0  0  0  0
   -4.9058  -12.1910   -8.4948 H   0  0  0  0  0  0
   -1.4690  -11.9183  -11.0842 H   0  0  0  0  0  0
  -11.4696  -17.3152   -7.8051 H   0  0  0  0  0  0
  -11.0689  -16.0456   -6.7447 H   0  0  0  0  0  0
  -10.4260  -13.7614   -7.6208 H   0  0  0  0  0  0
  -10.3411  -13.4419   -9.2763 H   0  0  0  0  0  0
  -12.7845  -22.9180  -11.2540 H   0  0  0  0  0  0
  -12.7260  -22.0641  -12.7917 H   0  0  0  0  0  0
  -11.9787  -23.6395  -12.6415 H   0  0  0  0  0  0
  -10.4682  -23.2583   -9.9054 H   0  0  0  0  0  0
   -9.8613  -23.9702  -11.3873 H   0  0  0  0  0  0
   -8.9926  -22.6505  -10.6508 H   0  0  0  0  0  0
   -0.2163  -10.8146   -9.2769 H   0  0  0  0  0  0
   -3.6284  -11.0731   -6.7090 H   0  0  0  0  0  0
  -12.8144  -13.6467   -9.5392 H   0  0  0  0  0  0
  -12.4216  -12.4552   -8.3253 H   0  0  0  0  0  0
  -13.5309  -16.1915   -8.5529 H   0  0  0  0  0  0
  -13.5446  -16.3544   -6.8207 H   0  0  0  0  0  0
   -1.2985  -10.3811   -7.1000 H   0  0  0  0  0  0
  -14.2691  -14.0464   -7.6076 H   0  0  0  0  0  0
  -12.9171  -14.0069   -6.5090 H   0  0  0  0  0  0
  1  4  1  0  0  0
  1  7  1  0  0  0
  1 22  2  0  0  0
  2  6  1  0  0  0
  2 10  1  0  0  0
  2 21  2  0  0  0
  3  8  1  0  0  0
  3 17  1  0  0  0
  3 19  2  0  0  0
  4  5  1  0  0  0
  4 46  1  0  0  0
  5 11  1  0  0  0
  5 20  1  0  0  0
  5 47  1  0  0  0
  6  7  1  0  0  0
  6 48  1  0  0  0
  7 13  1  0  0  0
  7 49  1  0  0  0
  8 10  1  0  0  0
  8 50  1  0  0  0
  9 16  2  0  0  0
  9 18  1  0  0  0
 10 23  1  0  0  0
 10 52  1  0  0  0
 11 15  1  0  0  0
 11 26  1  0  0  0
 11 53  1  0  0  0
 12 18  2  0  0  0
 12 13  1  0  0  0
 12 14  1  0  0  0
 13 54  1  0  0  0
 13 55  1  0  0  0
 14 51  1  0  0  0
 14 16  1  0  0  0
 15 24  1  0  0  0
 15 27  1  0  0  0
 15 56  1  0  0  0
 16 57  1  0  0  0
 17 25  1  0  0  0
 18 58  1  0  0  0
 20 29  1  0  0  0
 20 59  1  0  0  0
 20 60  1  0  0  0
 23 28  1  0  0  0
 23 61  1  0  0  0
 23 62  1  0  0  0
 24 30  1  0  0  0
 24 63  1  0  0  0
 24 64  1  0  0  0
 25 31  1  0  0  0
 25 32  1  0  0  0
 25 33  1  0  0  0
 26 65  1  0  0  0
 27 66  1  0  0  0
 28 34  2  0  0  0
 28 35  1  0  0  0
 29 36  1  0  0  0
 29 37  1  0  0  0
 29 67  1  0  0  0
 30 38  1  0  0  0
 30 39  1  0  0  0
 30 68  1  0  0  0
 31 69  1  0  0  0
 31 70  1  0  0  0
 31 71  1  0  0  0
 32 72  1  0  0  0
 32 73  1  0  0  0
 32 74  1  0  0  0
 33 75  1  0  0  0
 33 76  1  0  0  0
 33 77  1  0  0  0
 34 41  1  0  0  0
 34 78  1  0  0  0
 35 40  2  0  0  0
 35 79  1  0  0  0
 36 43  1  0  0  0
 36 80  1  0  0  0
 36 81  1  0  0  0
 37 42  1  0  0  0
 37 82  1  0  0  0
 37 83  1  0  0  0
 38 84  1  0  0  0
 38 85  1  0  0  0
 38 86  1  0  0  0
 39 87  1  0  0  0
 39 88  1  0  0  0
 39 89  1  0  0  0
 40 44  1  0  0  0
 40 90  1  0  0  0
 41 44  2  0  0  0
 41 91  1  0  0  0
 42 45  1  0  0  0
 42 92  1  0  0  0
 42 93  1  0  0  0
 43 45  1  0  0  0
 43 94  1  0  0  0
 43 95  1  0  0  0
 44 96  1  0  0  0
 45 97  1  0  0  0
 45 98  1  0  0  0
M  END
> <s_m_entry_id>
26405

> <s_m_entry_name>
dock_pv.229

> <s_m_Source_Path>
/home/csk/Desktop/cluster/DUD-E-result/reni

> <s_m_Source_File>
dock_pv.maegz

> <i_m_Source_File_Index>
229

> <chembl_id>
CHEMBL430933

> <chembl_pref_name>
None

> <i_lp_mmshare_version>
53161

> <r_lp_tautomer_probability>
0.499999999999999

> <s_lp_Force_Field>
OPLS_2005

> <r_lp_Energy>
19.955025

> <b_lp_Chiralities_Consistent>
1

> <s_lp_Variant>
CHEMBL286_lig281-2

> <s_i_glide_gridfile>
glide-grid_3g6z

> <i_i_glide_lignum>
453

> <i_i_glide_rotatable_bonds>
22

> <r_i_docking_score>
-7.0511955654827

> <r_i_glide_ligand_efficiency>
-0.156693234788505

> <r_i_glide_ligand_efficiency_sa>
-0.557341116970918

> <r_i_glide_ligand_efficiency_ln>
-1.46696290419585

> <r_i_glide_gscore>
-7.0511955654827

> <r_i_glide_lipo>
-3.37572443439725

> <r_i_glide_hbond>
-0.608

> <r_i_glide_metal>
0

> <r_i_glide_rewards>
0.401483679231002

> <r_i_glide_evdw>
-51.9010391235352

> <r_i_glide_ecoul>
-8.11793613433838

> <r_i_glide_erotb>
0.467048434186011

> <r_i_glide_esite>
-0.123260868174955

> <r_i_glide_emodel>
-75.0296030997383

> <r_i_glide_energy>
-60.0189752578735

> <r_i_glide_einternal>
15.094539642334

> <i_i_glide_confnum>
49

> <i_i_glide_posenum>
62

> <r_i_glide_eff_state_penalty>
0

> <s_user_duplicate_titles>
CHEMBL286_lig281

> <i_f3d_flags>
0

> <s_m_subgroup_title>
dock_pv

> <s_m_subgroupid>
dock_pv

> <b_m_subgroup_collapsed>
1

$$$$
CHEMBL286_lig570
                    3D
 Schrodinger Suite 2021-1.
 87 88  0  0  1  0            999 V2000
   -8.3104  -17.1198  -11.3703 P   0  0  1  0  0  0
   -4.7086  -16.4586   -9.8268 C   0  0  0  0  0  0
   -3.4046  -16.6445  -10.0966 N   0  0  0  0  0  0
   -5.6815  -16.7737  -10.9776 C   0  0  1  0  0  0
   -6.9770  -17.0560  -10.4344 O   0  0  0  0  0  0
   -2.8052  -12.4256   -9.8711 C   0  0  0  0  0  0
   -2.2812  -16.4847   -9.1616 C   0  0  2  0  0  0
   -1.1874  -14.1197   -8.7769 C   0  0  0  0  0  0
   -1.2300  -15.4146   -9.6331 C   0  0  2  0  0  0
   -2.4978  -13.2888   -8.6277 C   0  0  1  0  0  0
   -8.6689  -15.8336  -12.0204 O   0  0  0  0  0  0
   -5.1181  -16.0619   -8.7340 O   0  0  0  0  0  0
   -1.6135  -17.8538   -8.8506 C   0  0  0  0  0  0
   -2.2637  -11.3292  -10.0211 O   0  0  0  0  0  0
   -7.9579  -18.2914  -12.4210 O   0  0  0  0  0  0
   -3.6827  -12.9391  -10.7499 N   0  0  0  0  0  0
   -9.5471  -17.9694  -10.3097 C   0  0  0  0  0  0
   -1.2982  -15.1065  -11.0179 O   0  0  0  0  0  0
   -2.5850  -18.9907   -8.4149 C   0  0  0  0  0  0
   -5.6772  -15.6353  -12.0253 C   0  0  0  0  0  0
  -11.3347  -15.0776   -8.3162 C   0  0  0  0  0  0
  -10.6747  -17.0343   -9.8380 C   0  0  0  0  0  0
   -2.4449  -12.4235   -7.3470 C   0  0  0  0  0  0
  -10.2108  -15.9749   -8.8210 C   0  0  0  0  0  0
   -4.1006  -12.3018  -11.9984 C   0  0  0  0  0  0
  -12.4579  -15.6402   -7.7052 C   0  0  0  0  0  0
  -11.2197  -13.6881   -8.4210 C   0  0  0  0  0  0
   -2.9768  -19.9092   -9.5983 C   0  0  0  0  0  0
   -1.9961  -19.8743   -7.2886 C   0  0  0  0  0  0
   -3.0205  -12.3102  -13.0936 C   0  0  0  0  0  0
   -3.5912  -12.0282  -14.4982 C   0  0  0  0  0  0
   -2.5663  -12.0964  -15.6393 C   0  0  0  0  0  0
  -12.2330  -12.8643   -7.9397 C   0  0  0  0  0  0
  -13.4688  -14.8183   -7.2211 C   0  0  0  0  0  0
   -4.0165  -20.9649   -9.1743 C   0  0  0  0  0  0
   -3.0077  -20.9406   -6.8153 C   0  0  0  0  0  0
   -3.5060  -21.8116   -7.9887 C   0  0  0  0  0  0
  -13.3540  -13.4346   -7.3438 C   0  0  0  0  0  0
   -3.1454  -16.9057  -11.0373 H   0  0  0  0  0  0
   -5.3301  -17.6847  -11.4661 H   0  0  0  0  0  0
   -2.6529  -16.1635   -8.1847 H   0  0  0  0  0  0
   -0.3772  -13.4757   -9.1274 H   0  0  0  0  0  0
   -0.8643  -14.4319   -7.7827 H   0  0  0  0  0  0
   -0.2351  -15.8524   -9.5238 H   0  0  0  0  0  0
   -3.3318  -13.9765   -8.4806 H   0  0  0  0  0  0
   -1.0344  -18.1830   -9.7162 H   0  0  0  0  0  0
   -0.8747  -17.6883   -8.0640 H   0  0  0  0  0  0
   -8.2375  -18.0636  -13.3588 H   0  0  0  0  0  0
   -4.1366  -13.8107  -10.5167 H   0  0  0  0  0  0
   -9.9858  -18.7693  -10.9069 H   0  0  0  0  0  0
   -9.0470  -18.4534   -9.4715 H   0  0  0  0  0  0
   -1.9628  -14.4222  -11.1478 H   0  0  0  0  0  0
   -3.4985  -18.5428   -8.0210 H   0  0  0  0  0  0
   -4.6692  -15.3652  -12.3338 H   0  0  0  0  0  0
   -6.1997  -15.9290  -12.9366 H   0  0  0  0  0  0
   -6.1657  -14.7411  -11.6381 H   0  0  0  0  0  0
  -11.1314  -16.5420  -10.6995 H   0  0  0  0  0  0
  -11.4595  -17.6516   -9.3981 H   0  0  0  0  0  0
   -3.3800  -11.8825   -7.1844 H   0  0  0  0  0  0
   -2.2689  -13.0424   -6.4669 H   0  0  0  0  0  0
   -1.6435  -11.6839   -7.3925 H   0  0  0  0  0  0
   -9.7585  -16.4683   -7.9599 H   0  0  0  0  0  0
   -9.4240  -15.3613   -9.2622 H   0  0  0  0  0  0
   -4.4597  -11.2840  -11.8339 H   0  0  0  0  0  0
   -4.9749  -12.8434  -12.3582 H   0  0  0  0  0  0
  -12.5511  -16.7108   -7.5988 H   0  0  0  0  0  0
  -10.3460  -13.2434   -8.8750 H   0  0  0  0  0  0
   -3.3765  -19.3170  -10.4208 H   0  0  0  0  0  0
   -2.0874  -20.3851  -10.0144 H   0  0  0  0  0  0
   -1.0698  -20.3438   -7.6216 H   0  0  0  0  0  0
   -1.7034  -19.2502   -6.4437 H   0  0  0  0  0  0
   -2.4926  -13.2628  -13.0975 H   0  0  0  0  0  0
   -2.2691  -11.5736  -12.8211 H   0  0  0  0  0  0
   -4.0961  -11.0611  -14.5134 H   0  0  0  0  0  0
   -4.3565  -12.7704  -14.7074 H   0  0  0  0  0  0
   -3.0694  -12.0696  -16.6065 H   0  0  0  0  0  0
   -1.9876  -13.0191  -15.6011 H   0  0  0  0  0  0
   -1.8695  -11.2624  -15.6210 H   0  0  0  0  0  0
  -12.1479  -11.7910   -8.0224 H   0  0  0  0  0  0
  -14.3373  -15.2627   -6.7562 H   0  0  0  0  0  0
   -4.9485  -20.4686   -8.8971 H   0  0  0  0  0  0
   -4.2544  -21.6121  -10.0199 H   0  0  0  0  0  0
   -3.8623  -20.4587   -6.3384 H   0  0  0  0  0  0
   -2.5527  -21.5715   -6.0505 H   0  0  0  0  0  0
   -4.2944  -22.4833   -7.6469 H   0  0  0  0  0  0
   -2.6893  -22.4506   -8.3313 H   0  0  0  0  0  0
  -14.1375  -12.7934   -6.9678 H   0  0  0  0  0  0
  1  5  1  0  0  0
  1 11  2  0  0  0
  1 15  1  0  0  0
  1 17  1  0  0  0
  2  4  1  0  0  0
  2  3  1  0  0  0
  2 12  2  0  0  0
  3  7  1  0  0  0
  3 39  1  0  0  0
  4  5  1  0  0  0
  4 20  1  0  0  0
  4 40  1  0  0  0
  6 10  1  0  0  0
  6 14  2  0  0  0
  6 16  1  0  0  0
  7  9  1  0  0  0
  7 13  1  0  0  0
  7 41  1  0  0  0
  8  9  1  0  0  0
  8 10  1  0  0  0
  8 42  1  0  0  0
  8 43  1  0  0  0
  9 18  1  0  0  0
  9 44  1  0  0  0
 10 23  1  0  0  0
 10 45  1  0  0  0
 13 19  1  0  0  0
 13 46  1  0  0  0
 13 47  1  0  0  0
 15 48  1  0  0  0
 16 25  1  0  0  0
 16 49  1  0  0  0
 17 22  1  0  0  0
 17 50  1  0  0  0
 17 51  1  0  0  0
 18 52  1  0  0  0
 19 28  1  0  0  0
 19 29  1  0  0  0
 19 53  1  0  0  0
 20 54  1  0  0  0
 20 55  1  0  0  0
 20 56  1  0  0  0
 21 24  1  0  0  0
 21 26  2  0  0  0
 21 27  1  0  0  0
 22 24  1  0  0  0
 22 57  1  0  0  0
 22 58  1  0  0  0
 23 59  1  0  0  0
 23 60  1  0  0  0
 23 61  1  0  0  0
 24 62  1  0  0  0
 24 63  1  0  0  0
 25 30  1  0  0  0
 25 64  1  0  0  0
 25 65  1  0  0  0
 26 34  1  0  0  0
 26 66  1  0  0  0
 27 33  2  0  0  0
 27 67  1  0  0  0
 28 35  1  0  0  0
 28 68  1  0  0  0
 28 69  1  0  0  0
 29 36  1  0  0  0
 29 70  1  0  0  0
 29 71  1  0  0  0
 30 31  1  0  0  0
 30 72  1  0  0  0
 30 73  1  0  0  0
 31 32  1  0  0  0
 31 74  1  0  0  0
 31 75  1  0  0  0
 32 76  1  0  0  0
 32 77  1  0  0  0
 32 78  1  0  0  0
 33 38  1  0  0  0
 33 79  1  0  0  0
 34 38  2  0  0  0
 34 80  1  0  0  0
 35 37  1  0  0  0
 35 81  1  0  0  0
 35 82  1  0  0  0
 36 37  1  0  0  0
 36 83  1  0  0  0
 36 84  1  0  0  0
 37 85  1  0  0  0
 37 86  1  0  0  0
 38 87  1  0  0  0
M  END
> <s_m_entry_id>
26406

> <s_m_entry_name>
dock_pv.230

> <s_m_Source_Path>
/home/csk/Desktop/cluster/DUD-E-result/reni

> <s_m_Source_File>
dock_pv.maegz

> <i_m_Source_File_Index>
230

> <chembl_id>
CHEMBL146460

> <chembl_pref_name>
None

> <i_lp_mmshare_version>
53161

> <r_lp_tautomer_probability>
1

> <s_lp_Force_Field>
OPLS_2005

> <r_lp_Energy>
0.920811

> <b_lp_Chiralities_Consistent>
1

> <s_lp_Variant>
CHEMBL286_lig570-2

> <s_i_glide_gridfile>
glide-grid_3g6z

> <i_i_glide_lignum>
1609

> <i_i_glide_rotatable_bonds>
21

> <r_i_docking_score>
-7.05001244174964

> <r_i_glide_ligand_efficiency>
-0.185526643203938

> <r_i_glide_ligand_efficiency_sa>
-0.623736011001307

> <r_i_glide_ligand_efficiency_ln>
-1.52019007279545

> <r_i_glide_gscore>
-7.05001244174964

> <r_i_glide_lipo>
-3.72399221922511

> <r_i_glide_hbond>
0

> <r_i_glide_metal>
0

> <r_i_glide_rewards>
-0.878640581792847

> <r_i_glide_evdw>
-41.8528213500977

> <r_i_glide_ecoul>
-8.88980960845947

> <r_i_glide_erotb>
1.0151324177254

> <r_i_glide_esite>
-0.0363995496832776

> <r_i_glide_emodel>
-65.8589769795991

> <r_i_glide_energy>
-50.7426309585571

> <r_i_glide_einternal>
17.3832721710205

> <i_i_glide_confnum>
1

> <i_i_glide_posenum>
258

> <r_i_glide_eff_state_penalty>
0

> <s_user_duplicate_titles>
CHEMBL286_lig570

> <i_f3d_flags>
0

> <s_m_subgroup_title>
dock_pv

> <s_m_subgroupid>
dock_pv

> <b_m_subgroup_collapsed>
1

$$$$
CHEMBL286_lig1224
                    3D
 Schrodinger Suite 2021-1.
 90 93  0  0  1  0            999 V2000
   -9.8013  -19.4358  -11.1953 C   0  0  0  0  0  0
   -5.4421  -15.2492   -9.5340 C   0  0  0  0  0  0
   -8.4260  -16.2020  -10.2789 C   0  0  0  0  0  0
   -3.4910  -13.8856  -10.4572 C   0  0  1  0  0  0
   -2.5486  -13.5060   -9.2556 C   0  0  1  0  0  0
   -4.3026  -15.1038  -10.2393 N   0  0  0  0  0  0
   -7.2903  -16.9187  -10.1991 N   0  0  0  0  0  0
   -8.9209  -20.4175  -10.8546 N   0  0  0  0  0  0
   -6.0484  -16.6728   -9.4429 C   0  0  1  0  0  0
   -9.5750  -16.7499  -11.1846 C   0  0  1  0  0  0
   -3.1447  -12.5159   -8.2268 C   0  0  0  0  0  0
   -4.2709  -19.1455  -13.2210 N   0  0  0  0  0  0
  -11.2851  -16.3217   -9.1893 C   0  0  0  0  0  0
   -9.3192  -18.1334  -11.8837 C   0  0  0  0  0  0
   -4.8033  -18.1423  -11.2510 C   0  0  0  0  0  0
   -5.0357  -17.8038   -9.7868 C   0  0  0  0  0  0
  -11.0592  -16.5007  -10.6901 C   0  0  0  0  0  0
   -5.3364  -17.4297  -12.3152 N   0  0  0  0  0  0
   -5.0077  -18.0642  -13.4392 C   0  0  0  0  0  0
  -12.0268  -15.2164   -8.6196 C   0  0  0  0  0  0
   -4.1286  -19.1941  -11.8321 C   0  0  0  0  0  0
  -11.0079  -19.5648  -10.9822 O   0  0  0  0  0  0
   -8.5865  -15.1423   -9.6788 O   0  0  0  0  0  0
   -5.9939  -14.3321   -8.9332 O   0  0  0  0  0  0
   -4.2994  -12.6612  -10.9911 C   0  0  0  0  0  0
   -2.8639  -11.3156   -8.2850 O   0  0  0  0  0  0
  -12.1110  -15.1221   -7.2012 C   0  0  0  0  0  0
   -2.0061  -14.6402   -8.5867 O   0  0  0  0  0  0
   -4.0101  -13.0707   -7.3552 O   0  0  0  0  0  0
   -9.4220  -21.7445  -10.4446 C   0  0  0  0  0  0
   -7.4909  -20.4193  -11.1975 C   0  0  0  0  0  0
  -10.6680  -17.2518   -8.3536 C   0  0  0  0  0  0
  -10.7293  -17.1136   -6.9861 C   0  0  0  0  0  0
   -4.9364  -12.7003  -12.4076 C   0  0  0  0  0  0
  -12.6680  -14.1745   -9.3468 C   0  0  0  0  0  0
  -11.4690  -16.0805   -6.4209 C   0  0  0  0  0  0
  -12.7923  -14.0560   -6.5761 C   0  0  0  0  0  0
   -4.8511  -12.2442   -6.5663 C   0  0  0  0  0  0
   -5.7143  -13.9971  -12.7305 C   0  0  0  0  0  0
   -3.8993  -12.3048  -13.4787 C   0  0  0  0  0  0
   -9.3087  -22.6679  -11.6829 C   0  0  0  0  0  0
   -7.3324  -21.2647  -12.4768 C   0  0  0  0  0  0
  -13.2405  -13.0727   -8.7096 C   0  0  0  0  0  0
  -13.3251  -13.0227   -7.3305 C   0  0  0  0  0  0
   -7.8821  -22.6919  -12.2772 C   0  0  0  0  0  0
   -2.8214  -14.1656  -11.2723 H   0  0  0  0  0  0
   -1.6976  -12.9762   -9.6836 H   0  0  0  0  0  0
   -3.9376  -15.9372  -10.6747 H   0  0  0  0  0  0
   -7.2774  -17.7793  -10.7220 H   0  0  0  0  0  0
   -6.3079  -16.7819   -8.3889 H   0  0  0  0  0  0
   -9.4683  -16.0615  -12.0209 H   0  0  0  0  0  0
   -5.9041  -16.5946  -12.2586 H   0  0  0  0  0  0
   -9.8702  -18.1031  -12.8209 H   0  0  0  0  0  0
   -8.3000  -18.2041  -12.2563 H   0  0  0  0  0  0
   -4.0708  -17.6035   -9.3187 H   0  0  0  0  0  0
   -5.3829  -18.7228   -9.3148 H   0  0  0  0  0  0
  -11.7292  -17.2886  -11.0231 H   0  0  0  0  0  0
  -11.4696  -15.6630  -11.2217 H   0  0  0  0  0  0
   -5.3157  -17.7338  -14.4222 H   0  0  0  0  0  0
   -3.5814  -19.9955  -11.3600 H   0  0  0  0  0  0
   -5.0689  -12.4631  -10.2606 H   0  0  0  0  0  0
   -3.6638  -11.7763  -10.9524 H   0  0  0  0  0  0
   -1.5148  -15.1714   -9.2182 H   0  0  0  0  0  0
   -8.7863  -22.1013   -9.6337 H   0  0  0  0  0  0
  -10.4262  -21.7053  -10.0204 H   0  0  0  0  0  0
   -7.0364  -19.4341  -11.2202 H   0  0  0  0  0  0
   -6.9711  -20.9037  -10.3687 H   0  0  0  0  0  0
  -10.0930  -18.0631   -8.7668 H   0  0  0  0  0  0
  -10.2222  -17.8293   -6.3581 H   0  0  0  0  0  0
   -5.6897  -11.9127  -12.4195 H   0  0  0  0  0  0
  -12.6691  -14.1855  -10.4206 H   0  0  0  0  0  0
  -11.4703  -15.9819   -5.3444 H   0  0  0  0  0  0
  -12.8544  -14.0358   -5.5012 H   0  0  0  0  0  0
   -5.5667  -12.8595   -6.0221 H   0  0  0  0  0  0
   -4.2705  -11.6547   -5.8582 H   0  0  0  0  0  0
   -5.4229  -11.5594   -7.1948 H   0  0  0  0  0  0
   -5.0699  -14.8646  -12.6577 H   0  0  0  0  0  0
   -6.5446  -14.1372  -12.0370 H   0  0  0  0  0  0
   -6.1288  -14.0405  -13.7375 H   0  0  0  0  0  0
   -2.9687  -12.8626  -13.3733 H   0  0  0  0  0  0
   -4.2691  -12.4613  -14.4909 H   0  0  0  0  0  0
   -3.6371  -11.2501  -13.3906 H   0  0  0  0  0  0
   -9.6143  -23.6795  -11.4162 H   0  0  0  0  0  0
  -10.0193  -22.3414  -12.4453 H   0  0  0  0  0  0
   -7.8390  -20.7714  -13.3093 H   0  0  0  0  0  0
   -6.2802  -21.3098  -12.7592 H   0  0  0  0  0  0
  -13.6721  -12.2781   -9.2992 H   0  0  0  0  0  0
  -13.8085  -12.1886   -6.8448 H   0  0  0  0  0  0
   -7.8763  -23.2386  -13.2209 H   0  0  0  0  0  0
   -7.2210  -23.2417  -11.6040 H   0  0  0  0  0  0
  1  8  1  0  0  0
  1 14  1  0  0  0
  1 22  2  0  0  0
  2  9  1  0  0  0
  2  6  1  0  0  0
  2 24  2  0  0  0
  3 10  1  0  0  0
  3  7  1  0  0  0
  3 23  2  0  0  0
  4  6  1  0  0  0
  4  5  1  0  0  0
  4 25  1  0  0  0
  4 46  1  0  0  0
  5 11  1  0  0  0
  5 28  1  0  0  0
  5 47  1  0  0  0
  6 48  1  0  0  0
  7  9  1  0  0  0
  7 49  1  0  0  0
  8 30  1  0  0  0
  8 31  1  0  0  0
  9 16  1  0  0  0
  9 50  1  0  0  0
 10 14  1  0  0  0
 10 17  1  0  0  0
 10 51  1  0  0  0
 11 26  2  0  0  0
 11 29  1  0  0  0
 12 19  2  0  0  0
 12 21  1  0  0  0
 13 17  1  0  0  0
 13 20  2  0  0  0
 13 32  1  0  0  0
 14 53  1  0  0  0
 14 54  1  0  0  0
 15 21  2  0  0  0
 15 16  1  0  0  0
 15 18  1  0  0  0
 16 55  1  0  0  0
 16 56  1  0  0  0
 17 57  1  0  0  0
 17 58  1  0  0  0
 18 52  1  0  0  0
 18 19  1  0  0  0
 19 59  1  0  0  0
 20 27  1  0  0  0
 20 35  1  0  0  0
 21 60  1  0  0  0
 25 34  1  0  0  0
 25 61  1  0  0  0
 25 62  1  0  0  0
 27 37  1  0  0  0
 27 36  2  0  0  0
 28 63  1  0  0  0
 29 38  1  0  0  0
 30 41  1  0  0  0
 30 64  1  0  0  0
 30 65  1  0  0  0
 31 42  1  0  0  0
 31 66  1  0  0  0
 31 67  1  0  0  0
 32 33  2  0  0  0
 32 68  1  0  0  0
 33 36  1  0  0  0
 33 69  1  0  0  0
 34 39  1  0  0  0
 34 40  1  0  0  0
 34 70  1  0  0  0
 35 43  2  0  0  0
 35 71  1  0  0  0
 36 72  1  0  0  0
 37 44  2  0  0  0
 37 73  1  0  0  0
 38 74  1  0  0  0
 38 75  1  0  0  0
 38 76  1  0  0  0
 39 77  1  0  0  0
 39 78  1  0  0  0
 39 79  1  0  0  0
 40 80  1  0  0  0
 40 81  1  0  0  0
 40 82  1  0  0  0
 41 45  1  0  0  0
 41 83  1  0  0  0
 41 84  1  0  0  0
 42 45  1  0  0  0
 42 85  1  0  0  0
 42 86  1  0  0  0
 43 44  1  0  0  0
 43 87  1  0  0  0
 44 88  1  0  0  0
 45 89  1  0  0  0
 45 90  1  0  0  0
M  END
> <s_m_entry_id>
26407

> <s_m_entry_name>
dock_pv.231

> <s_m_Source_Path>
/home/csk/Desktop/cluster/DUD-E-result/reni

> <s_m_Source_File>
dock_pv.maegz

> <i_m_Source_File_Index>
231

> <chembl_id>
CHEMBL159336

> <chembl_pref_name>
None

> <i_lp_mmshare_version>
53161

> <r_lp_tautomer_probability>
0.499999999999999

> <s_lp_Force_Field>
OPLS_2005

> <r_lp_Energy>
35.701183

> <b_lp_Chiralities_Consistent>
1

> <s_lp_Variant>
CHEMBL286_lig1224-31

> <s_i_glide_gridfile>
glide-grid_3g6z

> <i_i_glide_lignum>
3991

> <i_i_glide_rotatable_bonds>
19

> <r_i_docking_score>
-7.03972494348496

> <r_i_glide_ligand_efficiency>
-0.156438332077444

> <r_i_glide_ligand_efficiency_sa>
-0.556434455225799

> <r_i_glide_ligand_efficiency_ln>
-1.46457650364824

> <r_i_glide_gscore>
-7.03972494348496

> <r_i_glide_lipo>
-3.32028596595856

> <r_i_glide_hbond>
-0.260445185520432

> <r_i_glide_metal>
0

> <r_i_glide_rewards>
-1.18070834118579

> <r_i_glide_evdw>
-35.3306159973145

> <r_i_glide_ecoul>
-7.1609992980957

> <r_i_glide_erotb>
0.582473839846423

> <r_i_glide_esite>
-0.0200785960865164

> <r_i_glide_emodel>
-37.8499054892107

> <r_i_glide_energy>
-42.4916152954102

> <r_i_glide_einternal>
22.2801933288574

> <i_i_glide_confnum>
57

> <i_i_glide_posenum>
35

> <r_i_glide_eff_state_penalty>
0

> <s_user_duplicate_titles>
CHEMBL286_lig1224

> <i_f3d_flags>
0

> <s_m_subgroup_title>
dock_pv

> <s_m_subgroupid>
dock_pv

> <b_m_subgroup_collapsed>
1

$$$$
CHEMBL286_lig2472
                    3D
 Schrodinger Suite 2021-1.
 80 81  0  0  1  0            999 V2000
   -1.1677  -14.9306  -10.7450 C   0  0  0  0  0  0
   -1.3024  -16.4804  -10.7747 C   0  0  0  0  0  0
   -1.1629  -16.9920   -9.3135 C   0  0  0  0  0  0
   -6.3535  -15.8466   -9.7160 C   0  0  0  0  0  0
   -7.4032  -16.3749  -10.7267 C   0  0  0  0  0  0
   -7.0060  -16.0399  -12.1873 C   0  0  0  0  0  0
  -10.7515  -12.6401   -8.1946 C   0  0  0  0  0  0
  -12.0885  -12.9100   -7.9302 C   0  0  0  0  0  0
  -12.5852  -14.1964   -8.1169 C   0  0  0  0  0  0
  -11.7506  -15.2289   -8.5626 C   0  0  0  0  0  0
  -10.3834  -14.9672   -8.8210 C   0  0  0  0  0  0
   -9.9105  -13.6549   -8.6477 C   0  0  0  0  0  0
   -9.4478  -15.9546   -9.2443 N   0  0  0  0  0  0
   -8.7679  -15.6719  -10.5283 C   0  0  0  0  0  0
   -7.7235  -17.7963  -10.5232 N   0  0  2  0  0  0
   -8.2682  -18.1653   -9.2008 C   0  0  0  0  0  0
   -9.2359  -17.1268   -8.5653 C   0  0  0  0  0  0
   -9.7530  -17.3816   -7.4774 O   0  0  0  0  0  0
   -6.7121  -18.7580  -10.9927 C   0  0  0  0  0  0
   -7.2853  -19.7251  -12.0609 C   0  0  1  0  0  0
   -6.2622  -20.2798  -13.1000 C   0  0  2  0  0  0
   -8.0141  -20.8148  -11.4254 N   0  0  0  0  0  0
   -5.0337  -21.1035  -12.5883 C   0  0  0  0  0  0
   -5.8688  -19.2629  -14.0029 O   0  0  0  0  0  0
   -3.9732  -20.4852  -11.6059 C   0  0  2  0  0  0
   -3.3887  -19.1249  -12.0551 C   0  0  0  0  0  0
   -3.2115  -18.1834  -11.1126 N   0  0  0  0  0  0
   -3.0550  -18.9468  -13.2209 O   0  0  0  0  0  0
   -2.8178  -21.4754  -11.2297 C   0  0  0  0  0  0
  -12.3857  -16.5875   -8.7980 C   0  0  0  0  0  0
  -10.2696  -11.3927   -8.0062 F   0  0  0  0  0  0
   -1.9016  -21.8959  -12.4018 C   0  0  0  0  0  0
   -3.3219  -22.7191  -10.4701 C   0  0  0  0  0  0
   -2.7166  -16.8188  -11.3579 C   0  0  0  0  0  0
   -0.1490  -17.0985  -11.6208 C   0  0  0  0  0  0
   -0.3269  -18.4276  -11.8566 O   0  0  0  0  0  0
    0.8250  -16.4633  -12.0208 O   0  0  0  0  0  0
   -1.9171  -14.4717  -10.0978 H   0  0  0  0  0  0
   -0.1923  -14.6038  -10.3762 H   0  0  0  0  0  0
   -1.2992  -14.4943  -11.7381 H   0  0  0  0  0  0
   -1.9443  -16.5801   -8.6728 H   0  0  0  0  0  0
   -1.2308  -18.0796   -9.2398 H   0  0  0  0  0  0
   -0.2075  -16.7021   -8.8728 H   0  0  0  0  0  0
   -6.0590  -14.8226   -9.9476 H   0  0  0  0  0  0
   -6.7053  -15.8604   -8.6848 H   0  0  0  0  0  0
   -5.4509  -16.4558   -9.7409 H   0  0  0  0  0  0
   -6.9805  -14.9634  -12.3618 H   0  0  0  0  0  0
   -6.0240  -16.4213  -12.4654 H   0  0  0  0  0  0
   -7.7205  -16.4631  -12.8904 H   0  0  0  0  0  0
  -12.7381  -12.1214   -7.5804 H   0  0  0  0  0  0
  -13.6301  -14.3861   -7.9165 H   0  0  0  0  0  0
   -8.8721  -13.4168   -8.8243 H   0  0  0  0  0  0
   -9.4491  -16.0078  -11.3145 H   0  0  0  0  0  0
   -8.6577  -14.5992  -10.6799 H   0  0  0  0  0  0
   -8.8039  -19.1116   -9.2650 H   0  0  0  0  0  0
   -7.4678  -18.3182   -8.4771 H   0  0  0  0  0  0
   -6.2956  -19.3176  -10.1559 H   0  0  0  0  0  0
   -5.8789  -18.2291  -11.4425 H   0  0  0  0  0  0
   -8.0302  -19.1762  -12.6401 H   0  0  0  0  0  0
   -6.8245  -20.9625  -13.7418 H   0  0  0  0  0  0
   -7.4012  -21.3537  -10.8338 H   0  0  0  0  0  0
   -8.7228  -20.4200  -10.8247 H   0  0  0  0  0  0
   -4.5100  -21.4716  -13.4699 H   0  0  0  0  0  0
   -5.4406  -21.9998  -12.1222 H   0  0  0  0  0  0
   -6.6521  -18.8308  -14.3745 H   0  0  0  0  0  0
   -4.4923  -20.2962  -10.6692 H   0  0  0  0  0  0
   -3.5242  -18.3809  -10.1738 H   0  0  0  0  0  0
   -2.1732  -20.9542  -10.5167 H   0  0  0  0  0  0
  -13.4691  -16.5241   -8.8211 H   0  0  0  0  0  0
  -12.0558  -17.0191   -9.7433 H   0  0  0  0  0  0
  -12.1292  -17.2630   -7.9909 H   0  0  0  0  0  0
   -2.4265  -22.5174  -13.1273 H   0  0  0  0  0  0
   -1.4923  -21.0389  -12.9354 H   0  0  0  0  0  0
   -1.0452  -22.4632  -12.0364 H   0  0  0  0  0  0
   -3.9004  -23.3845  -11.1117 H   0  0  0  0  0  0
   -2.4882  -23.3004  -10.0741 H   0  0  0  0  0  0
   -3.9497  -22.4405   -9.6233 H   0  0  0  0  0  0
   -3.4556  -16.1512  -10.9123 H   0  0  0  0  0  0
   -2.7605  -16.5655  -12.4204 H   0  0  0  0  0  0
   -1.2011  -18.7059  -11.5724 H   0  0  0  0  0  0
  1  2  1  0  0  0
  1 38  1  0  0  0
  1 39  1  0  0  0
  1 40  1  0  0  0
  2  3  1  0  0  0
  2 34  1  0  0  0
  2 35  1  0  0  0
  3 41  1  0  0  0
  3 42  1  0  0  0
  3 43  1  0  0  0
  4  5  1  0  0  0
  4 44  1  0  0  0
  4 45  1  0  0  0
  4 46  1  0  0  0
  5  6  1  0  0  0
  5 14  1  0  0  0
  5 15  1  0  0  0
  6 47  1  0  0  0
  6 48  1  0  0  0
  6 49  1  0  0  0
  7  8  2  0  0  0
  7 12  1  0  0  0
  7 31  1  0  0  0
  8  9  1  0  0  0
  8 50  1  0  0  0
  9 10  2  0  0  0
  9 51  1  0  0  0
 10 11  1  0  0  0
 10 30  1  0  0  0
 11 12  2  0  0  0
 11 13  1  0  0  0
 12 52  1  0  0  0
 13 14  1  0  0  0
 13 17  1  0  0  0
 14 53  1  0  0  0
 14 54  1  0  0  0
 15 16  1  0  0  0
 15 19  1  0  0  0
 16 17  1  0  0  0
 16 55  1  0  0  0
 16 56  1  0  0  0
 17 18  2  0  0  0
 19 20  1  0  0  0
 19 57  1  0  0  0
 19 58  1  0  0  0
 20 21  1  0  0  0
 20 22  1  0  0  0
 20 59  1  0  0  0
 21 23  1  0  0  0
 21 24  1  0  0  0
 21 60  1  0  0  0
 22 61  1  0  0  0
 22 62  1  0  0  0
 23 25  1  0  0  0
 23 63  1  0  0  0
 23 64  1  0  0  0
 24 65  1  0  0  0
 25 26  1  0  0  0
 25 29  1  0  0  0
 25 66  1  0  0  0
 26 27  1  0  0  0
 26 28  2  0  0  0
 27 34  1  0  0  0
 27 67  1  0  0  0
 29 32  1  0  0  0
 29 33  1  0  0  0
 29 68  1  0  0  0
 30 69  1  0  0  0
 30 70  1  0  0  0
 30 71  1  0  0  0
 32 72  1  0  0  0
 32 73  1  0  0  0
 32 74  1  0  0  0
 33 75  1  0  0  0
 33 76  1  0  0  0
 33 77  1  0  0  0
 34 78  1  0  0  0
 34 79  1  0  0  0
 35 36  1  0  0  0
 35 37  2  0  0  0
 36 80  1  0  0  0
M  END
> <s_m_entry_id>
26408

> <s_m_entry_name>
dock_pv.232

> <s_m_Source_Path>
/home/csk/Desktop/cluster/DUD-E-result/reni

> <s_m_Source_File>
dock_pv.maegz

> <i_m_Source_File_Index>
232

> <chembl_id>
CHEMBL2387543

> <chembl_pref_name>
None

> <i_lp_mmshare_version>
53161

> <r_lp_tautomer_probability>
1

> <s_lp_Force_Field>
OPLS_2005

> <r_lp_Energy>
83.76862

> <b_lp_Chiralities_Consistent>
1

> <s_lp_Variant>
CHEMBL286_lig2472-1

> <s_i_glide_gridfile>
glide-grid_3g6z

> <i_i_glide_lignum>
6532

> <i_i_glide_rotatable_bonds>
14

> <r_i_docking_score>
-7.03881200717612

> <r_i_glide_ligand_efficiency>
-0.190238162356111

> <r_i_glide_ligand_efficiency_sa>
-0.633915760856999

> <r_i_glide_ligand_efficiency_ln>
-1.52655331119082

> <r_i_glide_gscore>
-7.03881200717612

> <r_i_glide_lipo>
-2.3577111784439

> <r_i_glide_hbond>
-0.293407666630692

> <r_i_glide_metal>
0

> <r_i_glide_rewards>
-1.60387018580001

> <r_i_glide_evdw>
-39.9007377624512

> <r_i_glide_ecoul>
-10.7794589996338

> <r_i_glide_erotb>
0.828132761766108

> <r_i_glide_esite>
0

> <r_i_glide_emodel>
-67.5035792170878

> <r_i_glide_energy>
-50.680196762085

> <r_i_glide_einternal>
7.91540908813477

> <i_i_glide_confnum>
51

> <i_i_glide_posenum>
269

> <r_i_glide_eff_state_penalty>
0

> <s_user_duplicate_titles>
CHEMBL286_lig2472

> <i_f3d_flags>
0

> <s_m_subgroup_title>
dock_pv

> <s_m_subgroupid>
dock_pv

> <b_m_subgroup_collapsed>
1

$$$$
CHEMBL286_lig940
                    3D
 Schrodinger Suite 2021-1.
101104  0  0  1  0            999 V2000
   -7.6522  -20.7165  -10.1114 N   0  0  0  0  0  0
   -6.9855  -21.0306  -11.2447 C   0  0  0  0  0  0
   -7.5458  -21.4121   -8.9287 C   0  0  0  0  0  0
   -6.1794  -19.8766  -11.9192 C   0  0  1  0  0  0
   -8.7541  -18.4815   -9.5385 C   0  0  0  0  0  0
  -10.0697  -14.1479   -8.7759 C   0  0  0  0  0  0
   -5.4747  -18.9674  -10.9940 N   0  0  0  0  0  0
   -8.7585  -19.7571  -10.3965 C   0  0  2  0  0  0
   -8.4415  -17.3663  -10.2218 N   0  0  0  0  0  0
   -9.7500  -12.0632   -8.0209 N   0  0  0  0  0  0
   -9.1516  -13.1752   -8.5689 C   0  0  0  0  0  0
   -8.3913  -15.9936   -9.7235 C   0  0  2  0  0  0
   -7.2387  -15.7938   -8.7128 C   0  0  0  0  0  0
   -6.2494  -22.1927   -8.4689 C   0  0  0  0  0  0
   -4.7023  -19.2471   -9.9253 C   0  0  0  0  0  0
  -11.3331  -13.5753   -8.3067 C   0  0  0  0  0  0
   -9.8023  -15.5678   -9.2172 C   0  0  0  0  0  0
   -6.2860  -14.9246   -9.0927 N   0  0  0  0  0  0
  -11.0961  -12.2392   -7.8532 C   0  0  0  0  0  0
   -7.0949  -22.1136  -11.8228 O   0  0  0  0  0  0
   -8.5010  -21.3984   -8.1448 O   0  0  0  0  0  0
   -5.3432  -20.2554  -13.1575 C   0  0  0  0  0  0
   -9.0688  -18.5311   -8.3539 O   0  0  0  0  0  0
   -7.2496  -16.3679   -7.6234 O   0  0  0  0  0  0
   -4.2674  -18.3368   -9.2316 O   0  0  0  0  0  0
   -4.9970  -21.2688   -8.3043 C   0  0  0  0  0  0
   -4.3160  -20.6908   -9.5675 C   0  0  0  0  0  0
   -5.2264  -14.4124   -8.2218 C   0  0  0  0  0  0
   -4.0844  -21.0420  -12.8873 C   0  0  0  0  0  0
  -13.0692  -18.3058  -12.8210 N   0  0  0  0  0  0
  -10.1169  -20.4654  -10.5195 C   0  0  0  0  0  0
   -6.4934  -22.7773   -7.0352 C   0  0  0  0  0  0
   -5.9833  -23.4578   -9.3369 C   0  0  0  0  0  0
  -12.6563  -14.0521   -8.1884 C   0  0  0  0  0  0
  -12.1101  -11.4047   -7.3508 C   0  0  0  0  0  0
   -3.8682  -15.1287   -8.3830 C   0  0  2  0  0  0
  -13.4008  -19.6672  -12.4208 C   0  0  0  0  0  0
   -4.1176  -22.4514  -12.8200 C   0  0  0  0  0  0
   -2.9087  -20.3518  -12.5527 C   0  0  0  0  0  0
  -11.1776  -19.5483  -11.1007 C   0  0  0  0  0  0
   -2.7749  -14.5294   -7.4606 C   0  0  0  0  0  0
  -12.4712  -20.3090  -11.3740 C   0  0  0  0  0  0
   -3.3999  -15.2195   -9.8571 C   0  0  0  0  0  0
  -13.6750  -13.2253   -7.6677 C   0  0  0  0  0  0
   -2.3906  -13.0626   -7.7299 C   0  0  0  0  0  0
  -13.4155  -11.9052   -7.2565 C   0  0  0  0  0  0
   -2.9959  -23.1486  -12.4061 C   0  0  0  0  0  0
   -1.7953  -21.0646  -12.1592 C   0  0  0  0  0  0
   -1.8452  -22.4488  -12.0635 C   0  0  0  0  0  0
   -6.9395  -19.2456  -12.3758 H   0  0  0  0  0  0
   -5.6381  -17.9865  -11.1751 H   0  0  0  0  0  0
   -8.6659  -19.3529  -11.4035 H   0  0  0  0  0  0
   -8.2481  -17.4527  -11.2100 H   0  0  0  0  0  0
   -9.2342  -11.2249   -7.7885 H   0  0  0  0  0  0
   -8.0981  -13.2459   -8.7832 H   0  0  0  0  0  0
   -8.1774  -15.3780  -10.5999 H   0  0  0  0  0  0
  -10.5346  -15.8320   -9.9863 H   0  0  0  0  0  0
  -10.0685  -16.1792   -8.3541 H   0  0  0  0  0  0
   -6.3322  -14.5222  -10.0181 H   0  0  0  0  0  0
   -5.0671  -19.3343  -13.6772 H   0  0  0  0  0  0
   -5.9575  -20.8153  -13.8681 H   0  0  0  0  0  0
   -4.2241  -21.8487   -7.7931 H   0  0  0  0  0  0
   -5.2254  -20.4624   -7.6110 H   0  0  0  0  0  0
   -4.4170  -21.3740  -10.3952 H   0  0  0  0  0  0
   -3.2379  -20.6461   -9.3837 H   0  0  0  0  0  0
   -5.5390  -14.4447   -7.1734 H   0  0  0  0  0  0
   -5.1199  -13.3526   -8.4570 H   0  0  0  0  0  0
  -12.6436  -17.7873  -12.0726 H   0  0  0  0  0  0
  -12.3663  -18.3531  -13.5681 H   0  0  0  0  0  0
  -10.4681  -20.8620   -9.5790 H   0  0  0  0  0  0
   -9.9936  -21.3235  -11.1852 H   0  0  0  0  0  0
   -5.6371  -23.3457   -6.6653 H   0  0  0  0  0  0
   -6.6841  -21.9852   -6.3091 H   0  0  0  0  0  0
   -7.3554  -23.4476   -7.0017 H   0  0  0  0  0  0
   -5.4757  -23.2454  -10.2748 H   0  0  0  0  0  0
   -5.3446  -24.1812   -8.8252 H   0  0  0  0  0  0
   -6.9079  -23.9798   -9.5885 H   0  0  0  0  0  0
  -12.8897  -15.0582   -8.5015 H   0  0  0  0  0  0
  -11.8896  -10.4013   -7.0351 H   0  0  0  0  0  0
   -4.0203  -16.1497   -8.0264 H   0  0  0  0  0  0
  -13.4692  -20.2969  -13.3057 H   0  0  0  0  0  0
  -14.3561  -19.6848  -11.9610 H   0  0  0  0  0  0
   -5.0183  -22.9892  -13.0619 H   0  0  0  0  0  0
   -2.8758  -19.2701  -12.5707 H   0  0  0  0  0  0
  -10.7838  -19.1245  -12.0209 H   0  0  0  0  0  0
  -11.3868  -18.7134  -10.4285 H   0  0  0  0  0  0
   -1.8764  -15.1437   -7.5348 H   0  0  0  0  0  0
   -3.0976  -14.6125   -6.4213 H   0  0  0  0  0  0
  -12.2433  -21.3193  -11.7148 H   0  0  0  0  0  0
  -12.9962  -20.4492  -10.4246 H   0  0  0  0  0  0
   -3.2882  -14.2332  -10.3097 H   0  0  0  0  0  0
   -2.4420  -15.7376   -9.9313 H   0  0  0  0  0  0
   -4.1095  -15.7879  -10.4605 H   0  0  0  0  0  0
  -14.6698  -13.6148   -7.6003 H   0  0  0  0  0  0
   -1.5967  -12.7466   -7.0533 H   0  0  0  0  0  0
   -2.0301  -12.9180   -8.7505 H   0  0  0  0  0  0
   -3.2330  -12.3849   -7.5733 H   0  0  0  0  0  0
  -14.2148  -11.2899   -6.8701 H   0  0  0  0  0  0
   -3.0472  -24.2256  -12.3232 H   0  0  0  0  0  0
   -0.8906  -20.5397  -11.8898 H   0  0  0  0  0  0
   -0.9211  -22.8634  -11.7111 H   0  0  0  0  0  0
  1  2  1  0  0  0
  1  3  1  0  0  0
  1  8  1  0  0  0
  2  4  1  0  0  0
  2 20  2  0  0  0
  3 14  1  0  0  0
  3 21  2  0  0  0
  4  7  1  0  0  0
  4 22  1  0  0  0
  4 50  1  0  0  0
  5  8  1  0  0  0
  5  9  1  0  0  0
  5 23  2  0  0  0
  6 17  1  0  0  0
  6 11  2  0  0  0
  6 16  1  0  0  0
  7 15  1  0  0  0
  7 51  1  0  0  0
  8 31  1  0  0  0
  8 52  1  0  0  0
  9 12  1  0  0  0
  9 53  1  0  0  0
 10 11  1  0  0  0
 10 19  1  0  0  0
 10 54  1  0  0  0
 11 55  1  0  0  0
 12 13  1  0  0  0
 12 17  1  0  0  0
 12 56  1  0  0  0
 13 18  1  0  0  0
 13 24  2  0  0  0
 14 26  1  0  0  0
 14 32  1  0  0  0
 14 33  1  0  0  0
 15 25  2  0  0  0
 15 27  1  0  0  0
 16 19  2  0  0  0
 16 34  1  0  0  0
 17 57  1  0  0  0
 17 58  1  0  0  0
 18 28  1  0  0  0
 18 59  1  0  0  0
 19 35  1  0  0  0
 22 29  1  0  0  0
 22 60  1  0  0  0
 22 61  1  0  0  0
 26 27  1  0  0  0
 26 62  1  0  0  0
 26 63  1  0  0  0
 27 64  1  0  0  0
 27 65  1  0  0  0
 28 36  1  0  0  0
 28 66  1  0  0  0
 28 67  1  0  0  0
 29 38  2  0  0  0
 29 39  1  0  0  0
 30 37  1  0  0  0
 30 68  1  0  0  0
 30 69  1  0  0  0
 31 40  1  0  0  0
 31 70  1  0  0  0
 31 71  1  0  0  0
 32 72  1  0  0  0
 32 73  1  0  0  0
 32 74  1  0  0  0
 33 75  1  0  0  0
 33 76  1  0  0  0
 33 77  1  0  0  0
 34 44  2  0  0  0
 34 78  1  0  0  0
 35 46  2  0  0  0
 35 79  1  0  0  0
 36 41  1  0  0  0
 36 43  1  0  0  0
 36 80  1  0  0  0
 37 42  1  0  0  0
 37 81  1  0  0  0
 37 82  1  0  0  0
 38 47  1  0  0  0
 38 83  1  0  0  0
 39 48  2  0  0  0
 39 84  1  0  0  0
 40 42  1  0  0  0
 40 85  1  0  0  0
 40 86  1  0  0  0
 41 45  1  0  0  0
 41 87  1  0  0  0
 41 88  1  0  0  0
 42 89  1  0  0  0
 42 90  1  0  0  0
 43 91  1  0  0  0
 43 92  1  0  0  0
 43 93  1  0  0  0
 44 46  1  0  0  0
 44 94  1  0  0  0
 45 95  1  0  0  0
 45 96  1  0  0  0
 45 97  1  0  0  0
 46 98  1  0  0  0
 47 49  2  0  0  0
 47 99  1  0  0  0
 48 49  1  0  0  0
 48100  1  0  0  0
 49101  1  0  0  0
M  END
> <s_m_entry_id>
26409

> <s_m_entry_name>
dock_pv.233

> <s_m_Source_Path>
/home/csk/Desktop/cluster/DUD-E-result/reni

> <s_m_Source_File>
dock_pv.maegz

> <i_m_Source_File_Index>
233

> <chembl_id>
CHEMBL433155

> <chembl_pref_name>
None

> <i_lp_mmshare_version>
53161

> <r_lp_tautomer_probability>
0.99995

> <s_lp_Force_Field>
OPLS_2005

> <r_lp_Energy>
59.525489

> <b_lp_Chiralities_Consistent>
1

> <s_lp_Variant>
CHEMBL286_lig940-1

> <s_i_glide_gridfile>
glide-grid_3g6z

> <i_i_glide_lignum>
2539

> <i_i_glide_rotatable_bonds>
17

> <r_i_docking_score>
-7.03844354060559

> <r_i_glide_ligand_efficiency>
-0.143641704910318

> <r_i_glide_ligand_efficiency_sa>
-0.525628910293878

> <r_i_glide_ligand_efficiency_ln>
-1.43881890823423

> <r_i_glide_gscore>
-7.03844354060559

> <r_i_glide_lipo>
-3.73634989922889

> <r_i_glide_hbond>
-0.343249435121838

> <r_i_glide_metal>
0

> <r_i_glide_rewards>
-1.05989668803182

> <r_i_glide_evdw>
-34.7300224304199

> <r_i_glide_ecoul>
-4.3856520652771

> <r_i_glide_erotb>
0.496710401031856

> <r_i_glide_esite>
-0.00130898794233733

> <r_i_glide_emodel>
-34.8773964955333

> <r_i_glide_energy>
-39.115674495697

> <r_i_glide_einternal>
17.3085632324219

> <i_i_glide_confnum>
47

> <i_i_glide_posenum>
233

> <r_i_glide_eff_state_penalty>
0

> <s_user_duplicate_titles>
CHEMBL286_lig940

> <i_f3d_flags>
0

> <s_m_subgroup_title>
dock_pv

> <s_m_subgroupid>
dock_pv

> <b_m_subgroup_collapsed>
1

$$$$
CHEMBL286_lig1361
                    3D
 Schrodinger Suite 2021-1.
100103  0  0  1  0            999 V2000
   -6.8614  -15.0484  -11.2021 C   0  0  2  0  0  0
   -5.5417  -15.5746  -10.8638 N   0  0  0  0  0  0
   -7.9935  -16.0921  -11.0886 C   0  0  0  0  0  0
   -5.1601  -16.0817   -9.6881 C   0  0  0  0  0  0
   -8.7326  -16.0966   -9.9701 N   0  0  0  0  0  0
   -6.5278  -14.4749  -12.9336 S   0  0  2  0  0  0
   -3.7092  -16.6001   -9.5976 C   0  0  0  0  0  0
  -12.2779  -16.0597   -9.2097 C   0  0  0  0  0  0
   -9.8160  -17.0608   -9.7342 C   0  0  2  0  0  0
   -2.7087  -14.3174   -8.8256 C   0  0  0  0  0  0
   -3.4451  -19.0160  -10.5629 C   0  0  0  0  0  0
  -11.8505  -15.0344   -8.1694 C   0  0  0  0  0  0
   -3.6826  -18.1372   -9.3328 C   0  0  0  0  0  0
   -2.9141  -15.8097   -8.5159 C   0  0  0  0  0  0
  -11.2144  -16.5491  -10.2389 C   0  0  1  0  0  0
   -3.4539  -13.2765   -8.1651 C   0  0  0  0  0  0
   -4.5242  -19.5371  -11.3549 C   0  0  0  0  0  0
   -8.1963  -16.8666  -12.0204 O   0  0  0  0  0  0
  -11.5585  -13.8116   -8.6292 N   0  0  0  0  0  0
   -5.9029  -16.1567   -8.7116 O   0  0  0  0  0  0
   -5.6043  -13.2615  -12.8158 O   0  0  0  0  0  0
   -9.8295  -17.4829   -8.2532 C   0  0  0  0  0  0
  -11.8689  -15.3281   -6.9787 O   0  0  0  0  0  0
   -4.2073  -20.4341  -12.4283 C   0  0  0  0  0  0
   -3.1324  -11.9090   -8.4611 C   0  0  0  0  0  0
  -11.2860  -12.6234   -7.8271 C   0  0  0  0  0  0
  -11.8402  -17.5704  -10.9989 O   0  0  0  0  0  0
   -2.1282  -19.3563  -10.8826 C   0  0  0  0  0  0
   -1.7381  -13.9675   -9.7649 C   0  0  0  0  0  0
   -8.1915  -13.8044  -13.3496 C   0  0  0  0  0  0
   -1.4731  -12.6414  -10.0653 C   0  0  0  0  0  0
   -1.8401  -20.2125  -11.9332 C   0  0  0  0  0  0
   -9.0329  -18.7173   -7.7862 C   0  0  0  0  0  0
   -4.4988  -13.5180   -7.2279 C   0  0  0  0  0  0
   -5.8978  -19.2208  -11.1423 C   0  0  0  0  0  0
   -2.8575  -20.7627  -12.6952 C   0  0  0  0  0  0
   -2.1484  -11.6166   -9.4282 C   0  0  0  0  0  0
  -12.4564  -12.1406   -6.9269 C   0  0  2  0  0  0
   -3.7930  -10.8616   -7.7743 C   0  0  0  0  0  0
   -5.2503  -20.9805  -13.2207 C   0  0  0  0  0  0
  -13.9020  -12.4408   -7.4096 C   0  0  0  0  0  0
   -8.9305  -19.9088   -8.7610 C   0  0  0  0  0  0
   -9.6163  -19.1240   -6.4253 C   0  0  0  0  0  0
  -12.2720  -10.6610   -6.5541 C   0  0  0  0  0  0
   -5.1492  -12.4626   -6.6003 C   0  0  0  0  0  0
   -6.8898  -19.7469  -11.9653 C   0  0  0  0  0  0
  -14.2626  -11.9179   -8.8030 C   0  0  0  0  0  0
   -4.7661  -11.1529   -6.8333 C   0  0  0  0  0  0
   -6.5701  -20.6226  -12.9928 C   0  0  0  0  0  0
   -7.0875  -14.1737  -10.5898 H   0  0  0  0  0  0
   -4.8676  -15.5162  -11.6172 H   0  0  0  0  0  0
   -8.4732  -15.4855   -9.2072 H   0  0  0  0  0  0
   -3.1990  -16.4224  -10.5487 H   0  0  0  0  0  0
  -13.0694  -15.5450   -9.7295 H   0  0  0  0  0  0
  -12.7556  -16.8977   -8.7043 H   0  0  0  0  0  0
   -9.5852  -17.9620  -10.3109 H   0  0  0  0  0  0
   -4.5771  -18.4964   -8.8312 H   0  0  0  0  0  0
   -2.9016  -18.3770   -8.6115 H   0  0  0  0  0  0
   -3.3445  -15.9602   -7.5267 H   0  0  0  0  0  0
   -1.9144  -16.2399   -8.4220 H   0  0  0  0  0  0
  -11.0751  -15.7437  -10.9465 H   0  0  0  0  0  0
  -11.6100  -13.6666   -9.6257 H   0  0  0  0  0  0
   -9.5371  -16.6370   -7.6270 H   0  0  0  0  0  0
  -10.8634  -17.6623   -7.9784 H   0  0  0  0  0  0
  -10.3861  -12.7729   -7.2222 H   0  0  0  0  0  0
  -11.0338  -11.8356   -8.5424 H   0  0  0  0  0  0
  -11.4002  -17.6333  -11.8584 H   0  0  0  0  0  0
   -1.3098  -18.9665  -10.2910 H   0  0  0  0  0  0
   -1.1851  -14.7369  -10.2821 H   0  0  0  0  0  0
   -9.0030  -14.4705  -13.0613 H   0  0  0  0  0  0
   -8.2680  -12.8540  -12.8225 H   0  0  0  0  0  0
   -8.2709  -13.6572  -14.4207 H   0  0  0  0  0  0
   -0.7417  -12.3926  -10.8159 H   0  0  0  0  0  0
   -0.8142  -20.4662  -12.1439 H   0  0  0  0  0  0
   -7.9952  -18.4249   -7.6200 H   0  0  0  0  0  0
   -4.8020  -14.5227   -6.9884 H   0  0  0  0  0  0
   -6.1872  -18.5540  -10.3475 H   0  0  0  0  0  0
   -2.6181  -21.4391  -13.5014 H   0  0  0  0  0  0
   -1.9310  -10.5910   -9.6766 H   0  0  0  0  0  0
  -12.3550  -12.7203   -6.0212 H   0  0  0  0  0  0
   -3.5248   -9.8320   -7.9699 H   0  0  0  0  0  0
   -5.0106  -21.6703  -14.0207 H   0  0  0  0  0  0
  -14.0541  -13.5206   -7.3988 H   0  0  0  0  0  0
  -14.6278  -12.0601   -6.6880 H   0  0  0  0  0  0
   -9.8693  -20.1989   -9.2215 H   0  0  0  0  0  0
   -8.2415  -19.6781   -9.5705 H   0  0  0  0  0  0
   -8.5317  -20.7925   -8.2667 H   0  0  0  0  0  0
  -10.6699  -18.9780   -6.3793 H   0  0  0  0  0  0
   -9.4701  -20.1771   -6.1914 H   0  0  0  0  0  0
   -9.2331  -18.4830   -5.6329 H   0  0  0  0  0  0
  -12.1605  -10.0650   -7.4588 H   0  0  0  0  0  0
  -13.1356  -10.2710   -6.0209 H   0  0  0  0  0  0
  -11.3850  -10.5029   -5.9340 H   0  0  0  0  0  0
   -5.9357  -12.6777   -5.8897 H   0  0  0  0  0  0
   -7.9215  -19.4722  -11.8136 H   0  0  0  0  0  0
  -15.0679  -12.4630   -9.2177 H   0  0  0  0  0  0
  -14.6598  -10.9020   -8.8205 H   0  0  0  0  0  0
  -13.4349  -12.0632   -9.5046 H   0  0  0  0  0  0
   -5.2270  -10.3498   -6.2748 H   0  0  0  0  0  0
   -7.3536  -21.0200  -13.6174 H   0  0  0  0  0  0
  1  2  1  0  0  0
  1  3  1  0  0  0
  1  6  1  0  0  0
  1 50  1  0  0  0
  2  4  1  0  0  0
  2 51  1  0  0  0
  3  5  1  0  0  0
  3 18  2  0  0  0
  4  7  1  0  0  0
  4 20  2  0  0  0
  5  9  1  0  0  0
  5 52  1  0  0  0
  6 21  2  0  0  0
  6 30  1  0  0  0
  7 13  1  0  0  0
  7 14  1  0  0  0
  7 53  1  0  0  0
  8 15  1  0  0  0
  8 12  1  0  0  0
  8 54  1  0  0  0
  8 55  1  0  0  0
  9 15  1  0  0  0
  9 22  1  0  0  0
  9 56  1  0  0  0
 10 14  1  0  0  0
 10 16  2  0  0  0
 10 29  1  0  0  0
 11 13  1  0  0  0
 11 17  2  0  0  0
 11 28  1  0  0  0
 12 19  1  0  0  0
 12 23  2  0  0  0
 13 57  1  0  0  0
 13 58  1  0  0  0
 14 59  1  0  0  0
 14 60  1  0  0  0
 15 27  1  0  0  0
 15 61  1  0  0  0
 16 25  1  0  0  0
 16 34  1  0  0  0
 17 24  1  0  0  0
 17 35  1  0  0  0
 19 26  1  0  0  0
 19 62  1  0  0  0
 22 33  1  0  0  0
 22 63  1  0  0  0
 22 64  1  0  0  0
 24 40  1  0  0  0
 24 36  2  0  0  0
 25 39  1  0  0  0
 25 37  2  0  0  0
 26 38  1  0  0  0
 26 65  1  0  0  0
 26 66  1  0  0  0
 27 67  1  0  0  0
 28 32  2  0  0  0
 28 68  1  0  0  0
 29 31  2  0  0  0
 29 69  1  0  0  0
 30 70  1  0  0  0
 30 71  1  0  0  0
 30 72  1  0  0  0
 31 37  1  0  0  0
 31 73  1  0  0  0
 32 36  1  0  0  0
 32 74  1  0  0  0
 33 42  1  0  0  0
 33 43  1  0  0  0
 33 75  1  0  0  0
 34 45  2  0  0  0
 34 76  1  0  0  0
 35 46  2  0  0  0
 35 77  1  0  0  0
 36 78  1  0  0  0
 37 79  1  0  0  0
 38 41  1  0  0  0
 38 44  1  0  0  0
 38 80  1  0  0  0
 39 48  2  0  0  0
 39 81  1  0  0  0
 40 49  2  0  0  0
 40 82  1  0  0  0
 41 47  1  0  0  0
 41 83  1  0  0  0
 41 84  1  0  0  0
 42 85  1  0  0  0
 42 86  1  0  0  0
 42 87  1  0  0  0
 43 88  1  0  0  0
 43 89  1  0  0  0
 43 90  1  0  0  0
 44 91  1  0  0  0
 44 92  1  0  0  0
 44 93  1  0  0  0
 45 48  1  0  0  0
 45 94  1  0  0  0
 46 49  1  0  0  0
 46 95  1  0  0  0
 47 96  1  0  0  0
 47 97  1  0  0  0
 47 98  1  0  0  0
 48 99  1  0  0  0
 49100  1  0  0  0
M  END
> <s_m_entry_id>
26410

> <s_m_entry_name>
dock_pv.234

> <s_m_Source_Path>
/home/csk/Desktop/cluster/DUD-E-result/reni

> <s_m_Source_File>
dock_pv.maegz

> <i_m_Source_File_Index>
234

> <chembl_id>
CHEMBL3350033

> <chembl_pref_name>
None

> <i_lp_mmshare_version>
53161

> <r_lp_tautomer_probability>
1

> <s_lp_Force_Field>
OPLS_2005

> <r_lp_Energy>
27.744986

> <b_lp_Chiralities_Consistent>
1

> <s_lp_Variant>
CHEMBL286_lig1361-1

> <s_i_glide_gridfile>
glide-grid_3g6z

> <i_i_glide_lignum>
4399

> <i_i_glide_rotatable_bonds>
21

> <r_i_docking_score>
-7.03814878483483

> <r_i_glide_ligand_efficiency>
-0.143635689486425

> <r_i_glide_ligand_efficiency_sa>
-0.525606898018906

> <r_i_glide_ligand_efficiency_ln>
-1.4387586534103

> <r_i_glide_gscore>
-7.03814878483483

> <r_i_glide_lipo>
-4.3796362806512

> <r_i_glide_hbond>
0

> <r_i_glide_metal>
0

> <r_i_glide_rewards>
-0.889690231497301

> <r_i_glide_evdw>
-42.1701622009277

> <r_i_glide_ecoul>
-1.08269464969635

> <r_i_glide_erotb>
0.512734710972099

> <r_i_glide_esite>
-0.0106446761575899

> <r_i_glide_emodel>
-49.0888675791815

> <r_i_glide_energy>
-43.2528568506241

> <r_i_glide_einternal>
30.0767478942871

> <i_i_glide_confnum>
25

> <i_i_glide_posenum>
132

> <r_i_glide_eff_state_penalty>
0

> <s_user_duplicate_titles>
CHEMBL286_lig1361

> <i_f3d_flags>
0

> <s_m_subgroup_title>
dock_pv

> <s_m_subgroupid>
dock_pv

> <b_m_subgroup_collapsed>
1

$$$$
CHEMBL286_lig1595
                    3D
 Schrodinger Suite 2021-1.
 54 56  0  0  1  0            999 V2000
   -5.4229  -15.7684  -11.5944 N   0  0  0  0  0  0
   -6.6341  -15.3767  -11.1240 C   0  0  0  0  0  0
   -6.8765  -15.1415   -9.7518 C   0  0  0  0  0  0
   -5.7816  -15.3759   -8.8961 C   0  0  0  0  0  0
   -4.5635  -15.7686   -9.3444 N   0  0  0  0  0  0
   -4.4421  -15.9307  -10.6816 C   0  0  0  0  0  0
   -8.1911  -14.6546   -9.2510 C   0  0  0  0  0  0
   -8.3426  -13.3397   -8.8195 C   0  0  0  0  0  0
   -9.5889  -12.8636   -8.4210 C   0  0  0  0  0  0
   -9.3023  -15.4950   -9.2210 C   0  0  0  0  0  0
   -3.1960  -16.2811  -11.1739 N   0  0  0  0  0  0
   -7.6747  -15.1721  -12.2194 C   0  0  0  0  0  0
   -7.6355  -13.7584  -12.8130 C   0  0  0  0  0  0
   -5.8843  -15.2319   -7.5149 N   0  0  0  0  0  0
  -10.5684  -15.0329   -8.8213 C   0  0  0  0  0  0
  -10.7172  -13.6853   -8.4206 C   0  0  0  0  0  0
  -12.0764  -13.1453   -7.9862 C   0  0  0  0  0  0
  -12.8738  -14.2785   -7.3271 C   0  0  0  0  0  0
  -12.9771  -15.4821   -8.2818 C   0  0  0  0  0  0
  -11.6789  -15.8850   -8.8486 N   0  0  0  0  0  0
  -11.6951  -17.2477   -9.3816 C   0  0  0  0  0  0
  -11.3596  -17.2941  -10.8903 C   0  0  0  0  0  0
  -10.6201  -18.5790  -11.3114 C   0  0  0  0  0  0
  -11.4426  -19.8686  -11.2208 C   0  0  0  0  0  0
  -10.6556  -20.9613  -11.1879 O   0  0  0  0  0  0
  -11.2262  -22.2600  -11.2263 C   0  0  0  0  0  0
  -12.6769  -19.8671  -11.2207 O   0  0  0  0  0  0
   -7.4919  -12.6754   -8.8095 H   0  0  0  0  0  0
   -9.6757  -11.8391   -8.0891 H   0  0  0  0  0  0
   -9.1664  -16.5193   -9.5341 H   0  0  0  0  0  0
   -3.0708  -16.2004  -12.1738 H   0  0  0  0  0  0
   -2.4155  -16.2687  -10.5366 H   0  0  0  0  0  0
   -7.5058  -15.8984  -13.0165 H   0  0  0  0  0  0
   -8.6687  -15.3999  -11.8450 H   0  0  0  0  0  0
   -8.3578  -13.6607  -13.6222 H   0  0  0  0  0  0
   -7.8690  -13.0033  -12.0624 H   0  0  0  0  0  0
   -6.6489  -13.5353  -13.2201 H   0  0  0  0  0  0
   -6.7836  -15.0154   -7.1107 H   0  0  0  0  0  0
   -5.1045  -15.5388   -6.9527 H   0  0  0  0  0  0
  -12.6133  -12.7708   -8.8592 H   0  0  0  0  0  0
  -11.9686  -12.3054   -7.2987 H   0  0  0  0  0  0
  -13.8685  -13.9445   -7.0337 H   0  0  0  0  0  0
  -12.3836  -14.5890   -6.4017 H   0  0  0  0  0  0
  -13.4664  -15.0162   -9.1380 H   0  0  0  0  0  0
  -13.6423  -16.2898   -7.9688 H   0  0  0  0  0  0
  -12.6657  -17.7198   -9.2220 H   0  0  0  0  0  0
  -10.9723  -17.8363   -8.8205 H   0  0  0  0  0  0
  -10.8275  -16.4061  -11.2244 H   0  0  0  0  0  0
  -12.2830  -17.2424  -11.4605 H   0  0  0  0  0  0
   -9.7188  -18.6998  -10.7093 H   0  0  0  0  0  0
  -10.2835  -18.4654  -12.3429 H   0  0  0  0  0  0
  -10.4455  -23.0111  -11.1055 H   0  0  0  0  0  0
  -11.7244  -22.4348  -12.1805 H   0  0  0  0  0  0
  -11.9603  -22.3954  -10.4317 H   0  0  0  0  0  0
  1  6  1  0  0  0
  1  2  2  0  0  0
  2  3  1  0  0  0
  2 12  1  0  0  0
  3  4  2  0  0  0
  3  7  1  0  0  0
  4 14  1  0  0  0
  4  5  1  0  0  0
  5  6  2  0  0  0
  6 11  1  0  0  0
  7  8  2  0  0  0
  7 10  1  0  0  0
  8  9  1  0  0  0
  8 28  1  0  0  0
  9 16  2  0  0  0
  9 29  1  0  0  0
 10 15  2  0  0  0
 10 30  1  0  0  0
 11 31  1  0  0  0
 11 32  1  0  0  0
 12 13  1  0  0  0
 12 33  1  0  0  0
 12 34  1  0  0  0
 13 35  1  0  0  0
 13 36  1  0  0  0
 13 37  1  0  0  0
 14 38  1  0  0  0
 14 39  1  0  0  0
 15 16  1  0  0  0
 15 20  1  0  0  0
 16 17  1  0  0  0
 17 18  1  0  0  0
 17 40  1  0  0  0
 17 41  1  0  0  0
 18 19  1  0  0  0
 18 42  1  0  0  0
 18 43  1  0  0  0
 19 20  1  0  0  0
 19 44  1  0  0  0
 19 45  1  0  0  0
 20 21  1  0  0  0
 21 22  1  0  0  0
 21 46  1  0  0  0
 21 47  1  0  0  0
 22 23  1  0  0  0
 22 48  1  0  0  0
 22 49  1  0  0  0
 23 24  1  0  0  0
 23 50  1  0  0  0
 23 51  1  0  0  0
 24 25  1  0  0  0
 24 27  2  0  0  0
 25 26  1  0  0  0
 26 52  1  0  0  0
 26 53  1  0  0  0
 26 54  1  0  0  0
M  END
> <s_m_entry_id>
26411

> <s_m_entry_name>
dock_pv.235

> <s_m_Source_Path>
/home/csk/Desktop/cluster/DUD-E-result/reni

> <s_m_Source_File>
dock_pv.maegz

> <i_m_Source_File_Index>
235

> <chembl_id>
CHEMBL230261

> <chembl_pref_name>
None

> <i_lp_mmshare_version>
53161

> <r_lp_tautomer_probability>
0.999999624730965

> <s_lp_Force_Field>
OPLS_2005

> <r_lp_Energy>
16.973855

> <b_lp_Chiralities_Consistent>
1

> <s_lp_Variant>
CHEMBL286_lig1595-1

> <s_i_glide_gridfile>
glide-grid_3g6z

> <i_i_glide_lignum>
5299

> <i_i_glide_rotatable_bonds>
7

> <r_i_docking_score>
-7.0342848025078

> <r_i_glide_ligand_efficiency>
-0.260529066759548

> <r_i_glide_ligand_efficiency_sa>
-0.781587199419984

> <r_i_glide_ligand_efficiency_ln>
-1.63746553277536

> <r_i_glide_gscore>
-7.0342848025078

> <r_i_glide_lipo>
-3.21016160006408

> <r_i_glide_hbond>
-0.32

> <r_i_glide_metal>
0

> <r_i_glide_rewards>
-2.02443162080898

> <r_i_glide_evdw>
-33.0950927734375

> <r_i_glide_ecoul>
-3.47097396850586

> <r_i_glide_erotb>
0.706266553537998

> <r_i_glide_esite>
-0.0105574012249889

> <r_i_glide_emodel>
-50.2396769053053

> <r_i_glide_energy>
-36.5660667419434

> <r_i_glide_einternal>
2.88078141212463

> <i_i_glide_confnum>
200

> <i_i_glide_posenum>
194

> <r_i_glide_eff_state_penalty>
0

> <s_user_duplicate_titles>
CHEMBL286_lig1595,384153

> <i_f3d_flags>
0

> <s_m_subgroup_title>
dock_pv

> <s_m_subgroupid>
dock_pv

> <b_m_subgroup_collapsed>
1

$$$$
CHEMBL286_lig1645
                    3D
 Schrodinger Suite 2021-1.
 81 82  0  0  1  0            999 V2000
  -11.0378  -18.7940  -10.6946 C   0  0  0  0  0  0
  -11.6734  -19.9793  -11.1150 C   0  0  0  0  0  0
  -10.9893  -21.2001  -10.9872 C   0  0  0  0  0  0
   -9.7138  -21.2539  -10.4402 C   0  0  0  0  0  0
   -9.0869  -20.0888  -10.0011 C   0  0  0  0  0  0
   -9.7526  -18.8659  -10.1274 C   0  0  0  0  0  0
   -7.7044  -20.1615   -9.3626 C   0  0  0  0  0  0
   -6.6105  -20.8260  -10.2522 C   0  0  1  0  0  0
   -6.5434  -20.1620  -11.6595 C   0  0  0  0  0  0
   -6.1408  -18.6613  -11.6589 C   0  0  1  0  0  0
   -4.8826  -18.3542  -12.5139 C   0  0  1  0  0  0
   -5.0944  -18.6851  -13.8774 O   0  0  0  0  0  0
   -4.3403  -16.9090  -12.4212 C   0  0  0  0  0  0
   -3.8424  -16.4559  -11.0168 C   0  0  2  0  0  0
   -4.8891  -15.6290  -10.2367 C   0  0  0  0  0  0
   -5.0914  -15.9549   -8.9463 N   0  0  0  0  0  0
   -5.4583  -14.6799  -10.7788 O   0  0  0  0  0  0
   -5.9393  -15.1881   -8.0335 C   0  0  0  0  0  0
   -5.2124  -13.9586   -7.4469 C   0  0  0  0  0  0
   -6.1039  -13.0284   -6.6029 C   0  0  0  0  0  0
   -7.0531  -12.1530   -7.4357 C   0  0  0  0  0  0
   -7.2775  -17.8245  -12.0210 N   0  0  0  0  0  0
   -5.2179  -20.9230   -9.5383 C   0  0  0  0  0  0
   -4.1619  -21.6750  -10.3787 C   0  0  0  0  0  0
   -5.2889  -21.5743   -8.1405 C   0  0  0  0  0  0
  -11.7520  -17.6153  -10.8196 O   0  0  0  0  0  0
  -11.1760  -16.3505  -10.4675 C   0  0  0  0  0  0
   -2.5325  -15.6413  -11.1316 C   0  0  0  0  0  0
  -12.9657  -19.8903  -11.6141 O   0  0  0  0  0  0
  -13.6684  -21.0928  -11.9219 C   0  0  0  0  0  0
  -11.7015  -15.7902   -9.1501 C   0  0  0  0  0  0
  -12.6807  -16.4634   -8.4197 C   0  0  0  0  0  0
  -13.2161  -15.8603   -7.2801 C   0  0  0  0  0  0
  -12.8154  -14.6435   -6.8291 N   0  0  0  0  0  0
  -11.8577  -14.0005   -7.5382 C   0  0  0  0  0  0
  -11.2692  -14.5404   -8.6887 C   0  0  0  0  0  0
  -11.4348  -22.1316  -11.2993 H   0  0  0  0  0  0
   -9.2226  -22.2069  -10.3393 H   0  0  0  0  0  0
   -9.2565  -17.9904   -9.7430 H   0  0  0  0  0  0
   -7.8339  -20.7204   -8.4370 H   0  0  0  0  0  0
   -7.3821  -19.1642   -9.0593 H   0  0  0  0  0  0
   -6.9284  -21.8577  -10.4172 H   0  0  0  0  0  0
   -7.4947  -20.3024  -12.1764 H   0  0  0  0  0  0
   -5.8635  -20.7318  -12.2923 H   0  0  0  0  0  0
   -5.8958  -18.3728  -10.6384 H   0  0  0  0  0  0
   -4.0813  -19.0106  -12.1742 H   0  0  0  0  0  0
   -5.7746  -18.1027  -14.2371 H   0  0  0  0  0  0
   -5.0687  -16.2042  -12.8247 H   0  0  0  0  0  0
   -3.4959  -16.8651  -13.1138 H   0  0  0  0  0  0
   -3.5992  -17.3479  -10.4374 H   0  0  0  0  0  0
   -4.5968  -16.7428   -8.5559 H   0  0  0  0  0  0
   -6.2849  -15.8321   -7.2230 H   0  0  0  0  0  0
   -6.8561  -14.8828   -8.5412 H   0  0  0  0  0  0
   -4.7525  -13.3770   -8.2474 H   0  0  0  0  0  0
   -4.3878  -14.3118   -6.8235 H   0  0  0  0  0  0
   -5.4689  -12.3724   -6.0067 H   0  0  0  0  0  0
   -6.6646  -13.6240   -5.8831 H   0  0  0  0  0  0
   -7.7237  -11.5709   -6.8104 H   0  0  0  0  0  0
   -7.6691  -12.7415   -8.1142 H   0  0  0  0  0  0
   -6.4810  -11.4371   -8.0210 H   0  0  0  0  0  0
   -7.5556  -17.9626  -12.9918 H   0  0  0  0  0  0
   -8.0833  -18.1016  -11.4793 H   0  0  0  0  0  0
   -4.8421  -19.9104   -9.3881 H   0  0  0  0  0  0
   -4.4919  -22.6859  -10.6201 H   0  0  0  0  0  0
   -3.9351  -21.1676  -11.3134 H   0  0  0  0  0  0
   -3.2150  -21.7592   -9.8429 H   0  0  0  0  0  0
   -5.7393  -22.5668   -8.1842 H   0  0  0  0  0  0
   -4.2956  -21.6839   -7.7019 H   0  0  0  0  0  0
   -5.8640  -20.9739   -7.4378 H   0  0  0  0  0  0
  -10.0901  -16.2981  -10.5309 H   0  0  0  0  0  0
  -11.5388  -15.6643  -11.2216 H   0  0  0  0  0  0
   -2.1620  -15.3336  -10.1520 H   0  0  0  0  0  0
   -1.7444  -16.2291  -11.6041 H   0  0  0  0  0  0
   -2.6715  -14.7374  -11.7294 H   0  0  0  0  0  0
  -14.6689  -20.8615  -12.2794 H   0  0  0  0  0  0
  -13.1742  -21.6626  -12.7082 H   0  0  0  0  0  0
  -13.7815  -21.7249  -11.0400 H   0  0  0  0  0  0
  -13.0677  -17.4131   -8.7545 H   0  0  0  0  0  0
  -14.0057  -16.3486   -6.7324 H   0  0  0  0  0  0
  -11.5571  -13.0317   -7.1667 H   0  0  0  0  0  0
  -10.5106  -13.9871   -9.2211 H   0  0  0  0  0  0
  1  2  2  0  0  0
  1  6  1  0  0  0
  1 26  1  0  0  0
  2  3  1  0  0  0
  2 29  1  0  0  0
  3  4  2  0  0  0
  3 37  1  0  0  0
  4  5  1  0  0  0
  4 38  1  0  0  0
  5  6  2  0  0  0
  5  7  1  0  0  0
  6 39  1  0  0  0
  7  8  1  0  0  0
  7 40  1  0  0  0
  7 41  1  0  0  0
  8  9  1  0  0  0
  8 23  1  0  0  0
  8 42  1  0  0  0
  9 10  1  0  0  0
  9 43  1  0  0  0
  9 44  1  0  0  0
 10 11  1  0  0  0
 10 22  1  0  0  0
 10 45  1  0  0  0
 11 12  1  0  0  0
 11 13  1  0  0  0
 11 46  1  0  0  0
 12 47  1  0  0  0
 13 14  1  0  0  0
 13 48  1  0  0  0
 13 49  1  0  0  0
 14 15  1  0  0  0
 14 28  1  0  0  0
 14 50  1  0  0  0
 15 16  1  0  0  0
 15 17  2  0  0  0
 16 18  1  0  0  0
 16 51  1  0  0  0
 18 19  1  0  0  0
 18 52  1  0  0  0
 18 53  1  0  0  0
 19 20  1  0  0  0
 19 54  1  0  0  0
 19 55  1  0  0  0
 20 21  1  0  0  0
 20 56  1  0  0  0
 20 57  1  0  0  0
 21 58  1  0  0  0
 21 59  1  0  0  0
 21 60  1  0  0  0
 22 61  1  0  0  0
 22 62  1  0  0  0
 23 24  1  0  0  0
 23 25  1  0  0  0
 23 63  1  0  0  0
 24 64  1  0  0  0
 24 65  1  0  0  0
 24 66  1  0  0  0
 25 67  1  0  0  0
 25 68  1  0  0  0
 25 69  1  0  0  0
 26 27  1  0  0  0
 27 31  1  0  0  0
 27 70  1  0  0  0
 27 71  1  0  0  0
 28 72  1  0  0  0
 28 73  1  0  0  0
 28 74  1  0  0  0
 29 30  1  0  0  0
 30 75  1  0  0  0
 30 76  1  0  0  0
 30 77  1  0  0  0
 31 32  2  0  0  0
 31 36  1  0  0  0
 32 33  1  0  0  0
 32 78  1  0  0  0
 33 34  2  0  0  0
 33 79  1  0  0  0
 34 35  1  0  0  0
 35 36  2  0  0  0
 35 80  1  0  0  0
 36 81  1  0  0  0
M  END
> <s_m_entry_id>
26412

> <s_m_entry_name>
dock_pv.236

> <s_m_Source_Path>
/home/csk/Desktop/cluster/DUD-E-result/reni

> <s_m_Source_File>
dock_pv.maegz

> <i_m_Source_File_Index>
236

> <chembl_id>
CHEMBL536083

> <chembl_pref_name>
None

> <i_lp_mmshare_version>
53161

> <r_lp_tautomer_probability>
1

> <s_lp_Force_Field>
OPLS_2005

> <r_lp_Energy>
36.648814

> <b_lp_Chiralities_Consistent>
1

> <s_lp_Variant>
CHEMBL286_lig1645-1

> <s_i_glide_gridfile>
glide-grid_3g6z

> <i_i_glide_lignum>
5351

> <i_i_glide_rotatable_bonds>
18

> <r_i_docking_score>
-7.03228920490699

> <r_i_glide_ligand_efficiency>
-0.195341366802972

> <r_i_glide_ligand_efficiency_sa>
-0.645002981112593

> <r_i_glide_ligand_efficiency_ln>
-1.5342555140125

> <r_i_glide_gscore>
-7.03228920490699

> <r_i_glide_lipo>
-3.54052134058865

> <r_i_glide_hbond>
-0.708184710757912

> <r_i_glide_metal>
0

> <r_i_glide_rewards>
-0.586457883716907

> <r_i_glide_evdw>
-38.8351211547852

> <r_i_glide_ecoul>
-9.33348655700684

> <r_i_glide_erotb>
1.14465377144676

> <r_i_glide_esite>
0

> <r_i_glide_emodel>
-64.7963424146317

> <r_i_glide_energy>
-48.168607711792

> <r_i_glide_einternal>
10.4967403411865

> <i_i_glide_confnum>
50

> <i_i_glide_posenum>
381

> <r_i_glide_eff_state_penalty>
0

> <s_user_duplicate_titles>
CHEMBL286_lig1645,549846

> <i_f3d_flags>
0

> <s_m_subgroup_title>
dock_pv

> <s_m_subgroupid>
dock_pv

> <b_m_subgroup_collapsed>
1

$$$$
CHEMBL286_lig2733
                    3D
 Schrodinger Suite 2021-1.
 62 65  0  0  1  0            999 V2000
  -12.4802   -8.0557   -5.5903 C   0  0  0  0  0  0
  -11.1779   -8.4862   -5.2292 O   0  0  0  0  0  0
  -10.4605   -9.0762   -6.3001 C   0  0  0  0  0  0
  -10.9364  -10.5152   -6.5497 C   0  0  0  0  0  0
  -10.3625  -11.1046   -7.8473 C   0  0  0  0  0  0
  -10.7839  -12.4866   -8.0537 N   0  0  0  0  0  0
  -12.0699  -12.8399   -7.8669 N   0  0  0  0  0  0
  -12.1690  -14.1202   -8.1103 C   0  0  0  0  0  0
  -13.4668  -14.8445   -7.8683 C   0  0  0  0  0  0
  -10.9254  -14.6468   -8.5766 C   0  0  0  0  0  0
  -10.4469  -15.8888   -9.0233 C   0  0  0  0  0  0
  -11.4854  -17.2599   -9.1945 Cl  0  0  0  0  0  0
   -9.0950  -16.0086   -9.3338 C   0  0  0  0  0  0
   -8.2097  -14.9269   -9.2255 C   0  0  0  0  0  0
   -8.6696  -13.6676   -8.8213 C   0  0  0  0  0  0
  -10.0255  -13.5499   -8.4995 C   0  0  0  0  0  0
   -6.7228  -15.0823   -9.5722 C   0  0  1  0  0  0
   -5.8897  -15.4185   -8.3103 C   0  0  0  0  0  0
   -6.4427  -15.8997  -10.7895 N   0  0  0  0  0  0
   -6.3612  -15.1040  -12.0308 C   0  0  0  0  0  0
   -7.3992  -15.3027  -13.1199 C   0  0  0  0  0  0
   -7.3850  -14.0181  -12.3452 C   0  0  0  0  0  0
   -6.2590  -17.2570  -10.7685 C   0  0  0  0  0  0
   -6.3844  -17.9042   -9.7236 O   0  0  0  0  0  0
   -5.8818  -18.0456  -12.0586 C   0  0  1  0  0  0
   -4.6530  -18.9612  -11.7445 C   0  0  0  0  0  0
   -4.3737  -19.9163  -12.8209 N   0  0  2  0  0  0
   -5.5721  -20.7136  -13.0751 C   0  0  0  0  0  0
   -6.7460  -19.7983  -13.4809 C   0  0  0  0  0  0
   -7.0659  -18.8412  -12.4210 N   0  0  2  0  0  0
  -13.0010   -7.6649   -4.7152 H   0  0  0  0  0  0
  -13.0690   -8.8672   -5.9988 H   0  0  0  0  0  0
  -12.4411   -7.2633   -6.3386 H   0  0  0  0  0  0
  -10.5277   -8.4605   -7.2010 H   0  0  0  0  0  0
   -9.4090   -9.0997   -6.0211 H   0  0  0  0  0  0
  -10.6705  -11.1330   -5.6920 H   0  0  0  0  0  0
  -12.0218  -10.5560   -6.6109 H   0  0  0  0  0  0
  -10.6780  -10.5177   -8.7113 H   0  0  0  0  0  0
   -9.2729  -11.0678   -7.8181 H   0  0  0  0  0  0
  -13.3756  -15.5700   -7.0608 H   0  0  0  0  0  0
  -14.2694  -14.1637   -7.5992 H   0  0  0  0  0  0
  -13.7737  -15.3898   -8.7562 H   0  0  0  0  0  0
   -8.7388  -16.9717   -9.6605 H   0  0  0  0  0  0
   -7.9882  -12.8361   -8.7404 H   0  0  0  0  0  0
   -6.3743  -14.0825   -9.8357 H   0  0  0  0  0  0
   -5.9332  -14.6001   -7.5896 H   0  0  0  0  0  0
   -6.2517  -16.3110   -7.7980 H   0  0  0  0  0  0
   -4.8385  -15.5720   -8.5576 H   0  0  0  0  0  0
   -5.3318  -14.9201  -12.3485 H   0  0  0  0  0  0
   -7.0691  -15.2943  -14.1555 H   0  0  0  0  0  0
   -8.2126  -16.0098  -12.9502 H   0  0  0  0  0  0
   -8.2178  -13.8200  -11.6739 H   0  0  0  0  0  0
   -7.0307  -13.1083  -12.8287 H   0  0  0  0  0  0
   -5.6275  -17.3612  -12.8667 H   0  0  0  0  0  0
   -3.7586  -18.3604  -11.5708 H   0  0  0  0  0  0
   -4.8044  -19.5312  -10.8253 H   0  0  0  0  0  0
   -3.6119  -20.5194  -12.5419 H   0  0  0  0  0  0
   -5.3644  -21.4463  -13.8573 H   0  0  0  0  0  0
   -5.8274  -21.2975  -12.1902 H   0  0  0  0  0  0
   -6.5228  -19.2622  -14.4058 H   0  0  0  0  0  0
   -7.6383  -20.3888  -13.6916 H   0  0  0  0  0  0
   -7.7783  -18.2305  -12.8111 H   0  0  0  0  0  0
  1  2  1  0  0  0
  1 31  1  0  0  0
  1 32  1  0  0  0
  1 33  1  0  0  0
  2  3  1  0  0  0
  3  4  1  0  0  0
  3 34  1  0  0  0
  3 35  1  0  0  0
  4  5  1  0  0  0
  4 36  1  0  0  0
  4 37  1  0  0  0
  5  6  1  0  0  0
  5 38  1  0  0  0
  5 39  1  0  0  0
  6  7  1  0  0  0
  6 16  1  0  0  0
  7  8  2  0  0  0
  8  9  1  0  0  0
  8 10  1  0  0  0
  9 40  1  0  0  0
  9 41  1  0  0  0
  9 42  1  0  0  0
 10 11  2  0  0  0
 10 16  1  0  0  0
 11 12  1  0  0  0
 11 13  1  0  0  0
 13 14  2  0  0  0
 13 43  1  0  0  0
 14 15  1  0  0  0
 14 17  1  0  0  0
 15 16  2  0  0  0
 15 44  1  0  0  0
 17 18  1  0  0  0
 17 19  1  0  0  0
 17 45  1  0  0  0
 18 46  1  0  0  0
 18 47  1  0  0  0
 18 48  1  0  0  0
 19 20  1  0  0  0
 19 23  1  0  0  0
 20 21  1  0  0  0
 20 22  1  0  0  0
 20 49  1  0  0  0
 21 22  1  0  0  0
 21 50  1  0  0  0
 21 51  1  0  0  0
 22 52  1  0  0  0
 22 53  1  0  0  0
 23 24  2  0  0  0
 23 25  1  0  0  0
 25 26  1  0  0  0
 25 30  1  0  0  0
 25 54  1  0  0  0
 26 27  1  0  0  0
 26 55  1  0  0  0
 26 56  1  0  0  0
 27 28  1  0  0  0
 27 57  1  0  0  0
 28 29  1  0  0  0
 28 58  1  0  0  0
 28 59  1  0  0  0
 29 30  1  0  0  0
 29 60  1  0  0  0
 29 61  1  0  0  0
 30 62  1  0  0  0
M  END
> <s_m_entry_id>
26413

> <s_m_entry_name>
dock_pv.237

> <s_m_Source_Path>
/home/csk/Desktop/cluster/DUD-E-result/reni

> <s_m_Source_File>
dock_pv.maegz

> <i_m_Source_File_Index>
237

> <chembl_id>
CHEMBL4108958

> <chembl_pref_name>
None

> <i_lp_mmshare_version>
53161

> <r_lp_tautomer_probability>
1

> <s_lp_Force_Field>
OPLS_2005

> <r_lp_Energy>
64.967373

> <b_lp_Chiralities_Consistent>
1

> <s_lp_Variant>
CHEMBL286_lig2733-2

> <s_i_glide_gridfile>
glide-grid_3g6z

> <i_i_glide_lignum>
6815

> <i_i_glide_rotatable_bonds>
9

> <r_i_docking_score>
-7.02617273799737

> <r_i_glide_ligand_efficiency>
-0.234205757933246

> <r_i_glide_ligand_efficiency_sa>
-0.727731743306689

> <r_i_glide_ligand_efficiency_ln>
-1.59642300235666

> <r_i_glide_gscore>
-7.02617273799737

> <r_i_glide_lipo>
-3.40544132778095

> <r_i_glide_hbond>
-0.279108295515965

> <r_i_glide_metal>
0

> <r_i_glide_rewards>
-1.51539480704934

> <r_i_glide_evdw>
-40.1054229736328

> <r_i_glide_ecoul>
-4.42574739456177

> <r_i_glide_erotb>
0.845807201232906

> <r_i_glide_esite>
-0.00290225101811385

> <r_i_glide_emodel>
-58.3315021680662

> <r_i_glide_energy>
-44.5311703681946

> <r_i_glide_einternal>
10.1770458221436

> <i_i_glide_confnum>
54

> <i_i_glide_posenum>
354

> <r_i_glide_eff_state_penalty>
0

> <s_user_duplicate_titles>
CHEMBL286_lig2733,CHEMBL286_lig2735

> <i_f3d_flags>
0

> <s_m_subgroup_title>
dock_pv

> <s_m_subgroupid>
dock_pv

> <b_m_subgroup_collapsed>
1

$$$$
CHEMBL286_lig2874
                    3D
 Schrodinger Suite 2021-1.
 81 83  0  0  1  0            999 V2000
   -6.5555  -15.6314   -7.7823 C   0  0  0  0  0  0
   -5.8691  -14.8904   -6.6334 C   0  0  0  0  0  0
   -5.9834  -13.3632   -6.8232 C   0  0  0  0  0  0
   -5.3794  -13.0389   -8.1284 N   0  0  0  0  0  0
   -6.0428  -13.6631   -9.2925 C   0  0  0  0  0  0
   -5.9660  -15.2191   -9.1571 C   0  0  2  0  0  0
   -6.5934  -16.0099  -10.3647 C   0  0  2  0  0  0
   -6.6164  -17.5414  -10.0497 C   0  0  0  0  0  0
   -5.3698  -18.1862   -9.9717 C   0  0  0  0  0  0
   -5.2593  -19.5465   -9.7075 C   0  0  0  0  0  0
   -6.4043  -20.3000   -9.4941 C   0  0  0  0  0  0
   -7.6533  -19.6887   -9.5208 C   0  0  0  0  0  0
   -7.7841  -18.3147   -9.7849 C   0  0  0  0  0  0
   -9.1598  -17.7546   -9.7389 C   0  0  0  0  0  0
   -9.6886  -17.2629   -8.5376 C   0  0  0  0  0  0
  -10.9862  -16.7398   -8.4864 C   0  0  0  0  0  0
  -11.7550  -16.7101   -9.6507 C   0  0  0  0  0  0
  -11.2441  -17.2088  -10.8487 C   0  0  0  0  0  0
   -9.9535  -17.7316  -10.8914 C   0  0  0  0  0  0
  -11.5804  -16.2441   -7.1741 C   0  0  0  0  0  0
  -11.9330  -14.7467   -7.1862 C   0  0  0  0  0  0
   -8.7461  -20.4494   -9.2685 F   0  0  0  0  0  0
   -5.8032  -15.7038  -11.6791 C   0  0  0  0  0  0
   -6.2643  -16.4200  -12.9771 C   0  0  0  0  0  0
   -5.6872  -17.8281  -13.2519 C   0  0  0  0  0  0
   -4.2437  -17.9116  -13.0325 N   0  0  0  0  0  0
   -3.5854  -19.1080  -12.8210 C   0  0  0  0  0  0
   -4.1031  -20.2257  -12.8205 O   0  0  0  0  0  0
   -2.2790  -18.8624  -12.6235 O   0  0  0  0  0  0
   -1.3700  -19.9300  -12.3940 C   0  0  0  0  0  0
   -7.8683  -15.4365  -10.6043 O   0  0  0  0  0  0
   -4.9029  -15.4662   -9.1161 H   0  0  0  0  0  0
   -4.1456  -12.4656   -8.1923 C   0  0  0  0  0  0
   -3.4985  -12.1721   -7.1895 O   0  0  0  0  0  0
   -3.6077  -11.9559   -9.5405 C   0  0  0  0  0  0
   -2.7848  -12.9941  -10.3429 C   0  0  1  0  0  0
   -2.5263  -12.5448  -11.7944 C   0  0  0  0  0  0
   -3.7746  -12.4630  -12.5475 N   0  0  1  0  0  0
   -3.5184  -11.8360  -13.8306 C   0  0  0  0  0  0
   -1.5265  -13.1819   -9.7213 O   0  0  0  0  0  0
   -6.4640  -16.7028   -7.6168 H   0  0  0  0  0  0
   -7.6279  -15.4385   -7.7774 H   0  0  0  0  0  0
   -4.8203  -15.1870   -6.5673 H   0  0  0  0  0  0
   -6.3156  -15.1901   -5.6852 H   0  0  0  0  0  0
   -5.5775  -12.7629   -6.0087 H   0  0  0  0  0  0
   -7.0336  -13.0727   -6.8779 H   0  0  0  0  0  0
   -7.0859  -13.3449   -9.2751 H   0  0  0  0  0  0
   -5.6786  -13.2807  -10.2437 H   0  0  0  0  0  0
   -4.4578  -17.6293  -10.1291 H   0  0  0  0  0  0
   -4.2862  -20.0144   -9.6725 H   0  0  0  0  0  0
   -6.3262  -21.3572   -9.2926 H   0  0  0  0  0  0
   -9.0910  -17.3036   -7.6393 H   0  0  0  0  0  0
  -12.7487  -16.2986   -9.6204 H   0  0  0  0  0  0
  -11.8445  -17.1877  -11.7469 H   0  0  0  0  0  0
   -9.5616  -18.1087  -11.8262 H   0  0  0  0  0  0
  -12.4798  -16.8230   -6.9625 H   0  0  0  0  0  0
  -10.8967  -16.4624   -6.3532 H   0  0  0  0  0  0
  -12.2965  -14.4299   -6.2093 H   0  0  0  0  0  0
  -11.0705  -14.1280   -7.4332 H   0  0  0  0  0  0
  -12.7150  -14.5273   -7.9141 H   0  0  0  0  0  0
   -5.8611  -14.6345  -11.8846 H   0  0  0  0  0  0
   -4.7377  -15.8646  -11.5206 H   0  0  0  0  0  0
   -7.3539  -16.4613  -13.0123 H   0  0  0  0  0  0
   -5.9898  -15.7850  -13.8161 H   0  0  0  0  0  0
   -6.2053  -18.5582  -12.6255 H   0  0  0  0  0  0
   -5.8687  -18.1050  -14.2898 H   0  0  0  0  0  0
   -3.6944  -17.0684  -13.1045 H   0  0  0  0  0  0
   -0.3629  -19.5389  -12.2471 H   0  0  0  0  0  0
   -1.6426  -20.4966  -11.5030 H   0  0  0  0  0  0
   -1.3458  -20.6133  -13.2447 H   0  0  0  0  0  0
   -7.7506  -14.5939  -11.0456 H   0  0  0  0  0  0
   -2.9956  -11.0702   -9.3638 H   0  0  0  0  0  0
   -4.4376  -11.5761  -10.1310 H   0  0  0  0  0  0
   -3.2925  -13.9603  -10.3662 H   0  0  0  0  0  0
   -1.8723  -13.2624  -12.2954 H   0  0  0  0  0  0
   -2.0175  -11.5788  -11.7898 H   0  0  0  0  0  0
   -4.0560  -13.4138  -12.7695 H   0  0  0  0  0  0
   -4.4476  -11.7004  -14.3831 H   0  0  0  0  0  0
   -2.8434  -12.4377  -14.4420 H   0  0  0  0  0  0
   -3.0692  -10.8631  -13.6714 H   0  0  0  0  0  0
   -0.9046  -13.5276  -10.3696 H   0  0  0  0  0  0
  1  2  1  0  0  0
  1  6  1  0  0  0
  1 41  1  0  0  0
  1 42  1  0  0  0
  2  3  1  0  0  0
  2 43  1  0  0  0
  2 44  1  0  0  0
  3  4  1  0  0  0
  3 45  1  0  0  0
  3 46  1  0  0  0
  4  5  1  0  0  0
  4 33  1  0  0  0
  5  6  1  0  0  0
  5 47  1  0  0  0
  5 48  1  0  0  0
  6  7  1  0  0  0
  6 32  1  0  0  0
  7  8  1  0  0  0
  7 23  1  0  0  0
  7 31  1  0  0  0
  8  9  2  0  0  0
  8 13  1  0  0  0
  9 10  1  0  0  0
  9 49  1  0  0  0
 10 11  2  0  0  0
 10 50  1  0  0  0
 11 12  1  0  0  0
 11 51  1  0  0  0
 12 13  2  0  0  0
 12 22  1  0  0  0
 13 14  1  0  0  0
 14 15  2  0  0  0
 14 19  1  0  0  0
 15 16  1  0  0  0
 15 52  1  0  0  0
 16 17  2  0  0  0
 16 20  1  0  0  0
 17 18  1  0  0  0
 17 53  1  0  0  0
 18 19  2  0  0  0
 18 54  1  0  0  0
 19 55  1  0  0  0
 20 21  1  0  0  0
 20 56  1  0  0  0
 20 57  1  0  0  0
 21 58  1  0  0  0
 21 59  1  0  0  0
 21 60  1  0  0  0
 23 24  1  0  0  0
 23 61  1  0  0  0
 23 62  1  0  0  0
 24 25  1  0  0  0
 24 63  1  0  0  0
 24 64  1  0  0  0
 25 26  1  0  0  0
 25 65  1  0  0  0
 25 66  1  0  0  0
 26 27  1  0  0  0
 26 67  1  0  0  0
 27 28  2  0  0  0
 27 29  1  0  0  0
 29 30  1  0  0  0
 30 68  1  0  0  0
 30 69  1  0  0  0
 30 70  1  0  0  0
 31 71  1  0  0  0
 33 34  2  0  0  0
 33 35  1  0  0  0
 35 36  1  0  0  0
 35 72  1  0  0  0
 35 73  1  0  0  0
 36 37  1  0  0  0
 36 40  1  0  0  0
 36 74  1  0  0  0
 37 38  1  0  0  0
 37 75  1  0  0  0
 37 76  1  0  0  0
 38 39  1  0  0  0
 38 77  1  0  0  0
 39 78  1  0  0  0
 39 79  1  0  0  0
 39 80  1  0  0  0
 40 81  1  0  0  0
M  END
> <s_m_entry_id>
26415

> <s_m_entry_name>
dock_pv.239

> <s_m_Source_Path>
/home/csk/Desktop/cluster/DUD-E-result/reni

> <s_m_Source_File>
dock_pv.maegz

> <i_m_Source_File_Index>
239

> <chembl_id>
CHEMBL4212859

> <chembl_pref_name>
None

> <i_lp_mmshare_version>
53161

> <r_lp_tautomer_probability>
1

> <s_lp_Force_Field>
OPLS_2005

> <r_lp_Energy>
41.308948

> <b_lp_Chiralities_Consistent>
1

> <s_lp_Variant>
CHEMBL286_lig2874-4

> <s_i_glide_gridfile>
glide-grid_3g6z

> <i_i_glide_lignum>
7031

> <i_i_glide_rotatable_bonds>
17

> <r_i_docking_score>
-7.02483529719422

> <r_i_glide_ligand_efficiency>
-0.180123981979339

> <r_i_glide_ligand_efficiency_sa>
-0.610838508103664

> <r_i_glide_ligand_efficiency_ln>
-1.50632409952686

> <r_i_glide_gscore>
-7.02483529719422

> <r_i_glide_lipo>
-3.08345625652394

> <r_i_glide_hbond>
-0.371060863053114

> <r_i_glide_metal>
0

> <r_i_glide_rewards>
-1.0145211619067

> <r_i_glide_evdw>
-45.4248847961426

> <r_i_glide_ecoul>
-7.48342084884644

> <r_i_glide_erotb>
0.840134304553507

> <r_i_glide_esite>
-0.0021739531298881

> <r_i_glide_emodel>
-69.0307556372399

> <r_i_glide_energy>
-52.908305644989

> <r_i_glide_einternal>
11.7821035385132

> <i_i_glide_confnum>
51

> <i_i_glide_posenum>
206

> <r_i_glide_eff_state_penalty>
0

> <s_user_duplicate_titles>
CHEMBL286_lig2874

> <i_f3d_flags>
0

> <s_m_subgroup_title>
dock_pv

> <s_m_subgroupid>
dock_pv

> <b_m_subgroup_collapsed>
1

$$$$
CHEMBL286_lig952
                    3D
 Schrodinger Suite 2021-1.
107108  0  0  1  0            999 V2000
   -7.8468  -15.7785   -8.9039 C   0  0  0  0  0  0
   -8.9263  -12.2703   -8.0210 C   0  0  0  0  0  0
   -9.8887  -17.6910  -11.2116 C   0  0  0  0  0  0
   -8.8587  -17.9901  -12.0210 N   0  0  0  0  0  0
   -4.2642  -17.6814  -11.2436 C   0  0  0  0  0  0
   -8.8934  -16.0635   -9.6955 N   0  0  0  0  0  0
   -3.5931  -18.4955  -12.2611 C   0  0  0  0  0  0
   -8.7589  -13.4897   -8.6485 N   0  0  0  0  0  0
   -7.4965  -14.2767   -8.7339 C   0  0  1  0  0  0
   -7.4254  -18.1245  -11.6917 C   0  0  2  0  0  0
   -5.2429  -16.6244  -11.7684 C   0  0  0  0  0  0
   -2.6419  -19.3421  -11.8222 N   0  0  0  0  0  0
   -9.6070  -17.3333   -9.7444 C   0  0  1  0  0  0
   -6.5266  -17.1178  -12.4994 C   0  0  2  0  0  0
  -10.2690  -12.0039   -7.9191 O   0  0  0  0  0  0
   -8.0400  -11.5242   -7.6209 O   0  0  0  0  0  0
   -7.2155  -16.6428   -8.2962 O   0  0  0  0  0  0
  -11.0470  -17.6631  -11.6210 O   0  0  0  0  0  0
   -6.3843  -13.9838   -7.6573 C   0  0  0  0  0  0
   -3.9129  -18.4630  -13.4508 O   0  0  0  0  0  0
   -6.9944  -19.6062  -11.8868 C   0  0  0  0  0  0
   -4.0688  -17.8503   -9.9140 C   0  0  0  0  0  0
  -10.8506  -10.8041   -7.3468 C   0  0  0  0  0  0
   -1.9922  -20.3593  -12.6473 C   0  0  0  0  0  0
   -5.3816  -12.8730   -7.9486 C   0  0  0  0  0  0
   -7.2313  -15.9289  -12.8210 O   0  0  0  0  0  0
   -7.7237  -20.6589  -11.0017 C   0  0  0  0  0  0
  -10.8702  -17.3188   -8.8482 C   0  0  0  0  0  0
   -2.8689  -21.6222  -12.8313 C   0  0  0  0  0  0
  -10.6102   -9.5904   -8.2574 C   0  0  0  0  0  0
  -10.3817  -10.4684   -5.9097 C   0  0  0  0  0  0
  -12.3641  -11.0893   -7.2843 C   0  0  0  0  0  0
   -5.1009  -11.8937   -6.9695 C   0  0  0  0  0  0
   -4.6364  -12.8653   -9.1481 C   0  0  0  0  0  0
   -8.9405  -21.2927  -11.7170 C   0  0  0  0  0  0
   -6.7779  -21.8004  -10.5582 C   0  0  0  0  0  0
  -11.6066  -15.9709   -8.7182 C   0  0  0  0  0  0
  -12.7410  -16.0279   -7.6842 C   0  0  0  0  0  0
   -3.1109  -22.3702  -11.5044 C   0  0  0  0  0  0
   -2.2689  -22.5570  -13.8881 C   0  0  0  0  0  0
  -13.1643  -14.6321   -7.2215 C   0  0  0  0  0  0
   -4.1645  -10.9001   -7.2210 C   0  0  0  0  0  0
   -3.6980  -11.8667   -9.3786 C   0  0  0  0  0  0
   -9.6962  -22.2902  -10.8213 C   0  0  0  0  0  0
   -7.4888  -22.7829   -9.6046 C   0  0  0  0  0  0
   -3.4714  -10.8830   -8.4237 C   0  0  0  0  0  0
   -8.7588  -23.3765  -10.2510 C   0  0  0  0  0  0
   -9.0684  -18.0800  -13.0139 H   0  0  0  0  0  0
   -9.2901  -15.3377  -10.2727 H   0  0  0  0  0  0
   -9.5769  -13.8792   -9.0887 H   0  0  0  0  0  0
   -7.0537  -14.0759   -9.7102 H   0  0  0  0  0  0
   -7.2422  -17.9022  -10.6442 H   0  0  0  0  0  0
   -5.5460  -15.9984  -10.9270 H   0  0  0  0  0  0
   -4.6849  -15.9512  -12.4209 H   0  0  0  0  0  0
   -2.3747  -19.3057  -10.8515 H   0  0  0  0  0  0
   -8.9801  -18.1333   -9.3510 H   0  0  0  0  0  0
   -6.2690  -17.5609  -13.4621 H   0  0  0  0  0  0
   -6.8583  -13.7930   -6.6950 H   0  0  0  0  0  0
   -5.7603  -14.8607   -7.4784 H   0  0  0  0  0  0
   -7.0874  -19.8758  -12.9406 H   0  0  0  0  0  0
   -5.9322  -19.6879  -11.6818 H   0  0  0  0  0  0
   -4.5954  -17.2331   -9.1989 H   0  0  0  0  0  0
   -3.4002  -18.5886   -9.4973 H   0  0  0  0  0  0
   -1.0482  -20.6323  -12.1730 H   0  0  0  0  0  0
   -1.7168  -19.9432  -13.6186 H   0  0  0  0  0  0
   -7.9593  -16.1976  -13.3948 H   0  0  0  0  0  0
   -8.0802  -20.1756  -10.0904 H   0  0  0  0  0  0
  -11.5803  -18.0592   -9.2211 H   0  0  0  0  0  0
  -10.5746  -17.6628   -7.8556 H   0  0  0  0  0  0
   -3.8424  -21.3080  -13.2125 H   0  0  0  0  0  0
  -11.0674   -9.7533   -9.2299 H   0  0  0  0  0  0
  -11.0571   -8.6872   -7.8407 H   0  0  0  0  0  0
   -9.5507   -9.3841   -8.4054 H   0  0  0  0  0  0
  -10.6690  -11.2623   -5.2212 H   0  0  0  0  0  0
   -9.3043  -10.3267   -5.8360 H   0  0  0  0  0  0
  -10.8447   -9.5518   -5.5429 H   0  0  0  0  0  0
  -12.5903  -11.9006   -6.5946 H   0  0  0  0  0  0
  -12.9203  -10.2192   -6.9345 H   0  0  0  0  0  0
  -12.7637  -11.3663   -8.2603 H   0  0  0  0  0  0
   -5.6264  -11.9002   -6.0266 H   0  0  0  0  0  0
   -4.7920  -13.6289   -9.8956 H   0  0  0  0  0  0
   -9.6321  -20.5127  -12.0209 H   0  0  0  0  0  0
   -8.6245  -21.7751  -12.6440 H   0  0  0  0  0  0
   -6.3794  -22.3213  -11.4313 H   0  0  0  0  0  0
   -5.9031  -21.3803  -10.0599 H   0  0  0  0  0  0
  -10.9054  -15.2019   -8.3967 H   0  0  0  0  0  0
  -11.9984  -15.6544   -9.6869 H   0  0  0  0  0  0
  -13.5963  -16.5722   -8.0880 H   0  0  0  0  0  0
  -12.4125  -16.5865   -6.8068 H   0  0  0  0  0  0
   -2.1763  -22.7260  -11.0694 H   0  0  0  0  0  0
   -3.7611  -23.2339  -11.6497 H   0  0  0  0  0  0
   -3.5914  -21.7266  -10.7676 H   0  0  0  0  0  0
   -1.2680  -22.8630  -13.5964 H   0  0  0  0  0  0
   -2.8748  -23.4539  -14.0216 H   0  0  0  0  0  0
   -2.1920  -22.0630  -14.8563 H   0  0  0  0  0  0
  -13.8870  -14.6994   -6.4139 H   0  0  0  0  0  0
  -12.3062  -14.0854   -6.8298 H   0  0  0  0  0  0
  -13.6032  -14.0505   -8.0333 H   0  0  0  0  0  0
   -3.9755  -10.1422   -6.4748 H   0  0  0  0  0  0
   -3.1408  -11.8567  -10.3042 H   0  0  0  0  0  0
  -10.1756  -21.7405  -10.0136 H   0  0  0  0  0  0
  -10.5040  -22.7574  -11.3863 H   0  0  0  0  0  0
   -7.7567  -22.2675   -8.6802 H   0  0  0  0  0  0
   -6.8071  -23.5855   -9.3206 H   0  0  0  0  0  0
   -2.7441  -10.1076   -8.6104 H   0  0  0  0  0  0
   -9.2960  -23.9891   -9.5265 H   0  0  0  0  0  0
   -8.4650  -24.0506  -11.0580 H   0  0  0  0  0  0
  1  6  1  0  0  0
  1  9  1  0  0  0
  1 17  2  0  0  0
  2  8  1  0  0  0
  2 15  1  0  0  0
  2 16  2  0  0  0
  3 13  1  0  0  0
  3  4  1  0  0  0
  3 18  2  0  0  0
  4 10  1  0  0  0
  4 48  1  0  0  0
  5 11  1  0  0  0
  5  7  1  0  0  0
  5 22  2  0  0  0
  6 13  1  0  0  0
  6 49  1  0  0  0
  7 12  1  0  0  0
  7 20  2  0  0  0
  8  9  1  0  0  0
  8 50  1  0  0  0
  9 19  1  0  0  0
  9 51  1  0  0  0
 10 14  1  0  0  0
 10 21  1  0  0  0
 10 52  1  0  0  0
 11 14  1  0  0  0
 11 53  1  0  0  0
 11 54  1  0  0  0
 12 24  1  0  0  0
 12 55  1  0  0  0
 13 28  1  0  0  0
 13 56  1  0  0  0
 14 26  1  0  0  0
 14 57  1  0  0  0
 15 23  1  0  0  0
 19 25  1  0  0  0
 19 58  1  0  0  0
 19 59  1  0  0  0
 21 27  1  0  0  0
 21 60  1  0  0  0
 21 61  1  0  0  0
 22 62  1  0  0  0
 22 63  1  0  0  0
 23 30  1  0  0  0
 23 31  1  0  0  0
 23 32  1  0  0  0
 24 29  1  0  0  0
 24 64  1  0  0  0
 24 65  1  0  0  0
 25 33  2  0  0  0
 25 34  1  0  0  0
 26 66  1  0  0  0
 27 35  1  0  0  0
 27 36  1  0  0  0
 27 67  1  0  0  0
 28 37  1  0  0  0
 28 68  1  0  0  0
 28 69  1  0  0  0
 29 39  1  0  0  0
 29 40  1  0  0  0
 29 70  1  0  0  0
 30 71  1  0  0  0
 30 72  1  0  0  0
 30 73  1  0  0  0
 31 74  1  0  0  0
 31 75  1  0  0  0
 31 76  1  0  0  0
 32 77  1  0  0  0
 32 78  1  0  0  0
 32 79  1  0  0  0
 33 42  1  0  0  0
 33 80  1  0  0  0
 34 43  2  0  0  0
 34 81  1  0  0  0
 35 44  1  0  0  0
 35 82  1  0  0  0
 35 83  1  0  0  0
 36 45  1  0  0  0
 36 84  1  0  0  0
 36 85  1  0  0  0
 37 38  1  0  0  0
 37 86  1  0  0  0
 37 87  1  0  0  0
 38 41  1  0  0  0
 38 88  1  0  0  0
 38 89  1  0  0  0
 39 90  1  0  0  0
 39 91  1  0  0  0
 39 92  1  0  0  0
 40 93  1  0  0  0
 40 94  1  0  0  0
 40 95  1  0  0  0
 41 96  1  0  0  0
 41 97  1  0  0  0
 41 98  1  0  0  0
 42 46  2  0  0  0
 42 99  1  0  0  0
 43 46  1  0  0  0
 43100  1  0  0  0
 44 47  1  0  0  0
 44101  1  0  0  0
 44102  1  0  0  0
 45 47  1  0  0  0
 45103  1  0  0  0
 45104  1  0  0  0
 46105  1  0  0  0
 47106  1  0  0  0
 47107  1  0  0  0
M  END
> <s_m_entry_id>
26416

> <s_m_entry_name>
dock_pv.240

> <s_m_Source_Path>
/home/csk/Desktop/cluster/DUD-E-result/reni

> <s_m_Source_File>
dock_pv.maegz

> <i_m_Source_File_Index>
240

> <chembl_id>
CHEMBL433024

> <chembl_pref_name>
None

> <i_lp_mmshare_version>
53161

> <r_lp_tautomer_probability>
1

> <s_lp_Force_Field>
OPLS_2005

> <r_lp_Energy>
27.55095

> <b_lp_Chiralities_Consistent>
1

> <s_lp_Variant>
CHEMBL286_lig952-2

> <s_i_glide_gridfile>
glide-grid_3g6z

> <i_i_glide_lignum>
2557

> <i_i_glide_rotatable_bonds>
25

> <r_i_docking_score>
-7.02417851454342

> <r_i_glide_ligand_efficiency>
-0.149450606692413

> <r_i_glide_ligand_efficiency_sa>
-0.53934124643195

> <r_i_glide_ligand_efficiency_ln>
-1.44824015501443

> <r_i_glide_gscore>
-7.02417851454342

> <r_i_glide_lipo>
-4.58883354208932

> <r_i_glide_hbond>
-0.361726864466797

> <r_i_glide_metal>
0

> <r_i_glide_rewards>
0.633163665286302

> <r_i_glide_evdw>
-49.810131072998

> <r_i_glide_ecoul>
-5.88759231567383

> <r_i_glide_erotb>
0.781617517304251

> <r_i_glide_esite>
-0.114753889576874

> <r_i_glide_emodel>
-60.7958766766944

> <r_i_glide_energy>
-55.6977233886719

> <r_i_glide_einternal>
27.6561985015869

> <i_i_glide_confnum>
5

> <i_i_glide_posenum>
213

> <r_i_glide_eff_state_penalty>
0

> <s_user_duplicate_titles>
CHEMBL286_lig952

> <i_f3d_flags>
0

> <s_m_subgroup_title>
dock_pv

> <s_m_subgroupid>
dock_pv

> <b_m_subgroup_collapsed>
1

$$$$
CHEMBL286_lig2602
                    3D
 Schrodinger Suite 2021-1.
105106  0  0  1  0            999 V2000
   -9.1917  -16.7274  -11.6205 C   0  0  0  0  0  0
  -10.1587  -17.5553  -10.7450 C   0  0  0  0  0  0
  -11.6122  -17.2648  -11.2071 C   0  0  0  0  0  0
   -3.8329  -12.5675   -9.4032 C   0  0  0  0  0  0
   -4.3234  -12.0207   -8.2079 C   0  0  0  0  0  0
   -4.9718  -12.8495   -7.2800 C   0  0  0  0  0  0
   -5.0972  -14.2138   -7.5207 C   0  0  0  0  0  0
   -4.5832  -14.7819   -8.6905 C   0  0  0  0  0  0
   -3.9686  -13.9472   -9.6301 C   0  0  0  0  0  0
   -3.2261  -11.6929  -10.2854 O   0  0  0  0  0  0
   -2.2343  -12.1463  -11.2042 C   0  0  0  0  0  0
   -2.7680  -12.7171  -12.5346 C   0  0  0  0  0  0
   -3.9579  -11.9634  -13.1554 C   0  0  0  0  0  0
   -5.1695  -12.1344  -12.4279 O   0  0  0  0  0  0
   -5.7971  -13.4052  -12.5707 C   0  0  0  0  0  0
   -4.1100  -10.6709   -7.9939 O   0  0  0  0  0  0
   -4.0665  -10.2151   -6.6490 C   0  0  0  0  0  0
   -4.7353  -16.2847   -8.9217 C   0  0  0  0  0  0
   -3.4541  -17.1237   -9.2259 C   0  0  1  0  0  0
   -3.1430  -17.2486  -10.7490 C   0  0  0  0  0  0
   -2.2282  -16.8382   -8.2846 C   0  0  0  0  0  0
   -1.2077  -15.7785   -8.7581 C   0  0  0  0  0  0
   -1.4823  -18.1381   -7.9257 C   0  0  0  0  0  0
   -3.5897  -18.5612  -11.4603 C   0  0  1  0  0  0
   -5.1350  -18.8829  -11.4412 C   0  0  2  0  0  0
   -3.0681  -18.4615  -12.8205 N   0  0  0  0  0  0
   -5.5657  -19.6420  -10.1339 C   0  0  0  0  0  0
   -5.5333  -19.5996  -12.6120 O   0  0  0  0  0  0
   -6.5603  -20.8596  -10.2155 C   0  0  2  0  0  0
   -8.0433  -20.4379  -10.0410 C   0  0  0  0  0  0
   -6.0825  -22.0602   -9.3224 C   0  0  0  0  0  0
   -6.7993  -23.3941   -9.6371 C   0  0  0  0  0  0
   -6.0884  -21.7850   -7.7990 C   0  0  0  0  0  0
   -8.7646  -20.9715   -9.1872 O   0  0  0  0  0  0
   -8.5089  -19.5107  -10.8934 N   0  0  0  0  0  0
   -9.9082  -19.0709  -10.9962 C   0  0  0  0  0  0
   -9.9593  -17.2061   -9.2337 C   0  0  0  0  0  0
  -10.7224  -15.9775   -8.7302 C   0  0  0  0  0  0
  -12.0052  -16.1248   -8.1971 C   0  0  0  0  0  0
  -12.7236  -15.0122   -7.7826 C   0  0  0  0  0  0
  -12.1804  -13.7352   -7.8895 C   0  0  0  0  0  0
  -10.8897  -13.5830   -8.4120 C   0  0  0  0  0  0
  -10.1635  -14.7010   -8.8206 C   0  0  0  0  0  0
  -12.9771  -12.6859   -7.4669 O   0  0  0  0  0  0
  -12.4666  -11.3582   -7.5040 C   0  0  0  0  0  0
   -9.4517  -16.8718  -12.6701 H   0  0  0  0  0  0
   -9.2344  -15.6637  -11.4090 H   0  0  0  0  0  0
   -8.1467  -17.0076  -11.4885 H   0  0  0  0  0  0
  -11.8004  -17.6319  -12.2185 H   0  0  0  0  0  0
  -12.3385  -17.7320  -10.5480 H   0  0  0  0  0  0
  -11.8374  -16.1961  -11.2152 H   0  0  0  0  0  0
   -5.3834  -12.4509   -6.3626 H   0  0  0  0  0  0
   -5.5925  -14.8331   -6.7826 H   0  0  0  0  0  0
   -3.5684  -14.3856  -10.5188 H   0  0  0  0  0  0
   -1.6209  -11.2702  -11.4306 H   0  0  0  0  0  0
   -1.5538  -12.8513  -10.7194 H   0  0  0  0  0  0
   -1.9490  -12.7150  -13.2545 H   0  0  0  0  0  0
   -3.0148  -13.7667  -12.4192 H   0  0  0  0  0  0
   -3.7274  -10.8990  -13.1911 H   0  0  0  0  0  0
   -4.1018  -12.2604  -14.1927 H   0  0  0  0  0  0
   -6.7612  -13.3882  -12.0647 H   0  0  0  0  0  0
   -5.9698  -13.6601  -13.6145 H   0  0  0  0  0  0
   -5.2099  -14.2123  -12.1329 H   0  0  0  0  0  0
   -3.5584   -9.2542   -6.6217 H   0  0  0  0  0  0
   -5.0643  -10.0916   -6.2282 H   0  0  0  0  0  0
   -3.4880  -10.8904   -6.0197 H   0  0  0  0  0  0
   -5.4833  -16.4296   -9.7035 H   0  0  0  0  0  0
   -5.2010  -16.7115   -8.0333 H   0  0  0  0  0  0
   -3.7617  -18.1217   -8.9219 H   0  0  0  0  0  0
   -2.0675  -17.1677  -10.8847 H   0  0  0  0  0  0
   -3.5466  -16.3889  -11.2814 H   0  0  0  0  0  0
   -2.6306  -16.4586   -7.3433 H   0  0  0  0  0  0
   -0.6402  -16.0986   -9.6336 H   0  0  0  0  0  0
   -1.6648  -14.8225   -8.9951 H   0  0  0  0  0  0
   -0.4778  -15.5777   -7.9723 H   0  0  0  0  0  0
   -1.0698  -18.6222   -8.8116 H   0  0  0  0  0  0
   -0.6678  -17.9513   -7.2252 H   0  0  0  0  0  0
   -2.1389  -18.8554   -7.4421 H   0  0  0  0  0  0
   -3.0495  -19.3981  -11.0089 H   0  0  0  0  0  0
   -5.6808  -17.9378  -11.5004 H   0  0  0  0  0  0
   -3.3686  -19.2965  -13.3016 H   0  0  0  0  0  0
   -3.5236  -17.6878  -13.2934 H   0  0  0  0  0  0
   -5.9507  -18.9213   -9.4054 H   0  0  0  0  0  0
   -4.6517  -20.0159   -9.6612 H   0  0  0  0  0  0
   -6.2528  -19.1294  -13.0362 H   0  0  0  0  0  0
   -6.5163  -21.2774  -11.2226 H   0  0  0  0  0  0
   -5.0352  -22.2462   -9.5888 H   0  0  0  0  0  0
   -7.8627  -23.3676   -9.3765 H   0  0  0  0  0  0
   -6.7251  -23.6428  -10.6990 H   0  0  0  0  0  0
   -6.3609  -24.2187   -9.0720 H   0  0  0  0  0  0
   -7.1005  -21.6869   -7.4044 H   0  0  0  0  0  0
   -5.6047  -22.5989   -7.2569 H   0  0  0  0  0  0
   -5.5506  -20.8663   -7.5590 H   0  0  0  0  0  0
   -7.8759  -19.1566  -11.5927 H   0  0  0  0  0  0
  -10.5756  -19.6732  -10.3718 H   0  0  0  0  0  0
  -10.2031  -19.3055  -12.0210 H   0  0  0  0  0  0
   -8.8975  -17.0842   -8.9996 H   0  0  0  0  0  0
  -10.2643  -18.0549   -8.6219 H   0  0  0  0  0  0
  -12.4463  -17.1051   -8.1166 H   0  0  0  0  0  0
  -13.7208  -15.1350   -7.3855 H   0  0  0  0  0  0
  -10.4314  -12.6077   -8.5088 H   0  0  0  0  0  0
   -9.1784  -14.5602   -9.2430 H   0  0  0  0  0  0
  -13.2273  -10.6659   -7.1353 H   0  0  0  0  0  0
  -12.2016  -11.0555   -8.5173 H   0  0  0  0  0  0
  -11.5932  -11.2543   -6.8623 H   0  0  0  0  0  0
  1  2  1  0  0  0
  1 46  1  0  0  0
  1 47  1  0  0  0
  1 48  1  0  0  0
  2  3  1  0  0  0
  2 36  1  0  0  0
  2 37  1  0  0  0
  3 49  1  0  0  0
  3 50  1  0  0  0
  3 51  1  0  0  0
  4  5  2  0  0  0
  4  9  1  0  0  0
  4 10  1  0  0  0
  5  6  1  0  0  0
  5 16  1  0  0  0
  6  7  2  0  0  0
  6 52  1  0  0  0
  7  8  1  0  0  0
  7 53  1  0  0  0
  8  9  2  0  0  0
  8 18  1  0  0  0
  9 54  1  0  0  0
 10 11  1  0  0  0
 11 12  1  0  0  0
 11 55  1  0  0  0
 11 56  1  0  0  0
 12 13  1  0  0  0
 12 57  1  0  0  0
 12 58  1  0  0  0
 13 14  1  0  0  0
 13 59  1  0  0  0
 13 60  1  0  0  0
 14 15  1  0  0  0
 15 61  1  0  0  0
 15 62  1  0  0  0
 15 63  1  0  0  0
 16 17  1  0  0  0
 17 64  1  0  0  0
 17 65  1  0  0  0
 17 66  1  0  0  0
 18 19  1  0  0  0
 18 67  1  0  0  0
 18 68  1  0  0  0
 19 20  1  0  0  0
 19 21  1  0  0  0
 19 69  1  0  0  0
 20 24  1  0  0  0
 20 70  1  0  0  0
 20 71  1  0  0  0
 21 22  1  0  0  0
 21 23  1  0  0  0
 21 72  1  0  0  0
 22 73  1  0  0  0
 22 74  1  0  0  0
 22 75  1  0  0  0
 23 76  1  0  0  0
 23 77  1  0  0  0
 23 78  1  0  0  0
 24 25  1  0  0  0
 24 26  1  0  0  0
 24 79  1  0  0  0
 25 27  1  0  0  0
 25 28  1  0  0  0
 25 80  1  0  0  0
 26 81  1  0  0  0
 26 82  1  0  0  0
 27 29  1  0  0  0
 27 83  1  0  0  0
 27 84  1  0  0  0
 28 85  1  0  0  0
 29 30  1  0  0  0
 29 31  1  0  0  0
 29 86  1  0  0  0
 30 34  2  0  0  0
 30 35  1  0  0  0
 31 32  1  0  0  0
 31 33  1  0  0  0
 31 87  1  0  0  0
 32 88  1  0  0  0
 32 89  1  0  0  0
 32 90  1  0  0  0
 33 91  1  0  0  0
 33 92  1  0  0  0
 33 93  1  0  0  0
 35 36  1  0  0  0
 35 94  1  0  0  0
 36 95  1  0  0  0
 36 96  1  0  0  0
 37 38  1  0  0  0
 37 97  1  0  0  0
 37 98  1  0  0  0
 38 39  2  0  0  0
 38 43  1  0  0  0
 39 40  1  0  0  0
 39 99  1  0  0  0
 40 41  2  0  0  0
 40100  1  0  0  0
 41 42  1  0  0  0
 41 44  1  0  0  0
 42 43  2  0  0  0
 42101  1  0  0  0
 43102  1  0  0  0
 44 45  1  0  0  0
 45103  1  0  0  0
 45104  1  0  0  0
 45105  1  0  0  0
M  END
> <s_m_entry_id>
26417

> <s_m_entry_name>
dock_pv.241

> <s_m_Source_Path>
/home/csk/Desktop/cluster/DUD-E-result/reni

> <s_m_Source_File>
dock_pv.maegz

> <i_m_Source_File_Index>
241

> <chembl_id>
CHEMBL3633110

> <chembl_pref_name>
None

> <i_lp_mmshare_version>
53161

> <r_lp_tautomer_probability>
1

> <s_lp_Force_Field>
OPLS_2005

> <r_lp_Energy>
51.573017

> <b_lp_Chiralities_Consistent>
1

> <s_lp_Variant>
CHEMBL286_lig2602-1

> <s_i_glide_gridfile>
glide-grid_3g6z

> <i_i_glide_lignum>
6667

> <i_i_glide_rotatable_bonds>
23

> <r_i_docking_score>
-7.02279234557059

> <r_i_glide_ligand_efficiency>
-0.156062052123791

> <r_i_glide_ligand_efficiency_sa>
-0.555096067579736

> <r_i_glide_ligand_efficiency_ln>
-1.46105376870473

> <r_i_glide_gscore>
-7.02279234557059

> <r_i_glide_lipo>
-3.87988738931123

> <r_i_glide_hbond>
0

> <r_i_glide_metal>
0

> <r_i_glide_rewards>
-0.542419198356393

> <r_i_glide_evdw>
-52.4922180175781

> <r_i_glide_ecoul>
-4.90905427932739

> <r_i_glide_erotb>
0.770860580372741

> <r_i_glide_esite>
-0.0103772954976924

> <r_i_glide_emodel>
-66.6444530074712

> <r_i_glide_energy>
-57.4012722969055

> <r_i_glide_einternal>
28.8452396392822

> <i_i_glide_confnum>
67

> <i_i_glide_posenum>
277

> <r_i_glide_eff_state_penalty>
0

> <s_user_duplicate_titles>
CHEMBL286_lig2602

> <i_f3d_flags>
0

> <s_m_subgroup_title>
dock_pv

> <s_m_subgroupid>
dock_pv

> <b_m_subgroup_collapsed>
1

$$$$
CHEMBL286_lig2048
                    3D
 Schrodinger Suite 2021-1.
 88 92  0  0  1  0            999 V2000
  -11.2539  -18.7643  -11.2052 C   0  0  0  0  0  0
  -11.3372  -17.2199  -11.0518 C   0  0  0  0  0  0
  -10.0803  -16.5451  -10.9121 O   0  0  0  0  0  0
   -9.9958  -19.2972  -11.3403 N   0  0  0  0  0  0
   -8.7784  -18.4437  -11.2563 C   0  0  2  0  0  0
   -9.0879  -17.0208  -11.7940 C   0  0  2  0  0  0
   -7.8340  -16.1510  -11.7724 C   0  0  0  0  0  0
   -6.6104  -16.7001  -11.9352 C   0  0  0  0  0  0
   -6.4350  -18.1374  -12.1434 C   0  0  0  0  0  0
   -7.4704  -18.9540  -11.8710 C   0  0  0  0  0  0
   -4.9723  -18.9037  -12.8276 S   0  0  0  0  0  0
   -3.5543  -17.8328  -12.4548 C   0  0  0  0  0  0
   -2.5538  -18.4035  -11.4138 C   0  0  2  0  0  0
   -1.3957  -17.4982  -11.1621 N   0  0  0  0  0  0
   -0.1597  -17.6840  -11.7424 C   0  0  0  0  0  0
    0.1232  -19.0816  -12.3722 C   0  0  0  0  0  0
   -1.0839  -19.8087  -12.7778 N   0  0  1  0  0  0
   -2.0657  -19.8419  -11.7138 C   0  0  0  0  0  0
   -1.6926  -16.3346  -10.4115 C   0  0  0  0  0  0
   -2.2091  -16.4758   -9.1194 C   0  0  0  0  0  0
   -2.5074  -15.3524   -8.3588 C   0  0  0  0  0  0
   -2.2830  -14.0732   -8.8654 C   0  0  0  0  0  0
   -1.7826  -13.9257  -10.1664 C   0  0  0  0  0  0
   -1.4975  -15.0501  -10.9381 C   0  0  0  0  0  0
   -2.5981  -13.0247   -8.0280 O   0  0  0  0  0  0
   -2.0729  -11.7264   -8.3003 C   0  0  0  0  0  0
   -2.5677  -10.7654   -7.2026 C   0  0  0  0  0  0
   -3.9610  -10.1650   -7.4748 C   0  0  0  0  0  0
   -4.9198  -11.0993   -7.9459 O   0  0  0  0  0  0
   -5.4411  -11.9778   -6.9612 C   0  0  0  0  0  0
   -6.4923  -12.8589   -7.6205 C   0  0  0  0  0  0
   -6.1152  -14.1266   -8.0655 C   0  0  0  0  0  0
   -7.0409  -14.9609   -8.6854 C   0  0  0  0  0  0
   -8.3489  -14.5231   -8.8613 C   0  0  0  0  0  0
   -8.7380  -13.2628   -8.4213 C   0  0  0  0  0  0
   -7.8189  -12.4174   -7.7853 C   0  0  0  0  0  0
   -8.1688  -11.1824   -7.2759 O   0  0  0  0  0  0
   -9.5064  -10.6814   -7.3865 C   0  0  0  0  0  0
    0.7523  -16.8559  -11.6931 O   0  0  0  0  0  0
   -9.8837  -20.7670  -11.4546 C   0  0  0  0  0  0
   -9.8336  -21.4928  -10.1061 C   0  0  0  0  0  0
  -12.2890  -19.4370  -11.2209 O   0  0  0  0  0  0
   -8.6425  -21.1483   -9.1929 C   0  0  0  0  0  0
   -7.4268  -21.3956   -9.8862 O   0  0  0  0  0  0
   -6.2704  -20.9586   -9.1872 C   0  0  0  0  0  0
  -11.8717  -16.8566  -11.9294 H   0  0  0  0  0  0
  -11.9664  -17.0069  -10.1865 H   0  0  0  0  0  0
   -8.5595  -18.3395  -10.1948 H   0  0  0  0  0  0
   -9.4682  -17.0306  -12.8152 H   0  0  0  0  0  0
   -7.9207  -15.0795  -11.6586 H   0  0  0  0  0  0
   -5.7674  -16.0302  -11.9331 H   0  0  0  0  0  0
   -7.3293  -20.0017  -12.0776 H   0  0  0  0  0  0
   -3.0686  -17.6633  -13.4107 H   0  0  0  0  0  0
   -3.8813  -16.8493  -12.1303 H   0  0  0  0  0  0
   -3.1208  -18.5061  -10.4872 H   0  0  0  0  0  0
    0.6753  -19.6622  -11.6297 H   0  0  0  0  0  0
    0.7964  -18.9595  -13.2208 H   0  0  0  0  0  0
   -1.4826  -19.5057  -13.6578 H   0  0  0  0  0  0
   -1.5814  -20.2562  -10.8262 H   0  0  0  0  0  0
   -2.8946  -20.5085  -11.9555 H   0  0  0  0  0  0
   -2.3738  -17.4548   -8.6936 H   0  0  0  0  0  0
   -2.9031  -15.4734   -7.3608 H   0  0  0  0  0  0
   -1.6103  -12.9525  -10.5989 H   0  0  0  0  0  0
   -1.1189  -14.9128  -11.9391 H   0  0  0  0  0  0
   -0.9810  -11.7749   -8.2824 H   0  0  0  0  0  0
   -2.3772  -11.3578   -9.2827 H   0  0  0  0  0  0
   -2.5607  -11.2695   -6.2368 H   0  0  0  0  0  0
   -1.8601   -9.9426   -7.1052 H   0  0  0  0  0  0
   -4.3328   -9.6631   -6.5828 H   0  0  0  0  0  0
   -3.8692   -9.4011   -8.2462 H   0  0  0  0  0  0
   -4.6521  -12.5988   -6.5364 H   0  0  0  0  0  0
   -5.8692  -11.4248   -6.1267 H   0  0  0  0  0  0
   -5.0991  -14.4676   -7.9408 H   0  0  0  0  0  0
   -6.7431  -15.9417   -9.0260 H   0  0  0  0  0  0
   -9.0812  -15.1693   -9.3188 H   0  0  0  0  0  0
   -9.7665  -12.9694   -8.5615 H   0  0  0  0  0  0
   -9.5354   -9.6730   -6.9725 H   0  0  0  0  0  0
   -9.8689  -10.6110   -8.4123 H   0  0  0  0  0  0
  -10.2214  -11.2768   -6.8206 H   0  0  0  0  0  0
   -9.0131  -21.0389  -12.0436 H   0  0  0  0  0  0
  -10.7256  -21.1639  -12.0211 H   0  0  0  0  0  0
   -9.8355  -22.5666  -10.2855 H   0  0  0  0  0  0
  -10.7767  -21.2629   -9.6211 H   0  0  0  0  0  0
   -8.6705  -21.7611   -8.2919 H   0  0  0  0  0  0
   -8.7097  -20.1070   -8.8713 H   0  0  0  0  0  0
   -5.3850  -21.1745   -9.7876 H   0  0  0  0  0  0
   -6.1628  -21.4695   -8.2292 H   0  0  0  0  0  0
   -6.2964  -19.8819   -9.0122 H   0  0  0  0  0  0
  1  2  1  0  0  0
  1  4  1  0  0  0
  1 42  2  0  0  0
  2  3  1  0  0  0
  2 46  1  0  0  0
  2 47  1  0  0  0
  3  6  1  0  0  0
  4  5  1  0  0  0
  4 40  1  0  0  0
  5  6  1  0  0  0
  5 10  1  0  0  0
  5 48  1  0  0  0
  6  7  1  0  0  0
  6 49  1  0  0  0
  7  8  2  0  0  0
  7 50  1  0  0  0
  8  9  1  0  0  0
  8 51  1  0  0  0
  9 11  1  0  0  0
  9 10  2  0  0  0
 10 52  1  0  0  0
 11 12  1  0  0  0
 12 13  1  0  0  0
 12 53  1  0  0  0
 12 54  1  0  0  0
 13 14  1  0  0  0
 13 18  1  0  0  0
 13 55  1  0  0  0
 14 19  1  0  0  0
 14 15  1  0  0  0
 15 16  1  0  0  0
 15 39  2  0  0  0
 16 17  1  0  0  0
 16 56  1  0  0  0
 16 57  1  0  0  0
 17 18  1  0  0  0
 17 58  1  0  0  0
 18 59  1  0  0  0
 18 60  1  0  0  0
 19 24  1  0  0  0
 19 20  2  0  0  0
 20 21  1  0  0  0
 20 61  1  0  0  0
 21 22  2  0  0  0
 21 62  1  0  0  0
 22 23  1  0  0  0
 22 25  1  0  0  0
 23 24  2  0  0  0
 23 63  1  0  0  0
 24 64  1  0  0  0
 25 26  1  0  0  0
 26 27  1  0  0  0
 26 65  1  0  0  0
 26 66  1  0  0  0
 27 28  1  0  0  0
 27 67  1  0  0  0
 27 68  1  0  0  0
 28 29  1  0  0  0
 28 69  1  0  0  0
 28 70  1  0  0  0
 29 30  1  0  0  0
 30 31  1  0  0  0
 30 71  1  0  0  0
 30 72  1  0  0  0
 31 32  2  0  0  0
 31 36  1  0  0  0
 32 33  1  0  0  0
 32 73  1  0  0  0
 33 34  2  0  0  0
 33 74  1  0  0  0
 34 35  1  0  0  0
 34 75  1  0  0  0
 35 36  2  0  0  0
 35 76  1  0  0  0
 36 37  1  0  0  0
 37 38  1  0  0  0
 38 77  1  0  0  0
 38 78  1  0  0  0
 38 79  1  0  0  0
 40 41  1  0  0  0
 40 80  1  0  0  0
 40 81  1  0  0  0
 41 43  1  0  0  0
 41 82  1  0  0  0
 41 83  1  0  0  0
 43 44  1  0  0  0
 43 84  1  0  0  0
 43 85  1  0  0  0
 44 45  1  0  0  0
 45 86  1  0  0  0
 45 87  1  0  0  0
 45 88  1  0  0  0
M  END
> <s_m_entry_id>
26418

> <s_m_entry_name>
dock_pv.242

> <s_m_Source_Path>
/home/csk/Desktop/cluster/DUD-E-result/reni

> <s_m_Source_File>
dock_pv.maegz

> <i_m_Source_File_Index>
242

> <chembl_id>
CHEMBL1276280

> <chembl_pref_name>
None

> <i_lp_mmshare_version>
53161

> <r_lp_tautomer_probability>
1

> <s_lp_Force_Field>
OPLS_2005

> <r_lp_Energy>
73.655894

> <b_lp_Chiralities_Consistent>
1

> <s_lp_Variant>
CHEMBL286_lig2048-4

> <s_i_glide_gridfile>
glide-grid_3g6z

> <i_i_glide_lignum>
5868

> <i_i_glide_rotatable_bonds>
16

> <r_i_docking_score>
-7.02194248928664

> <r_i_glide_ligand_efficiency>
-0.156043166428592

> <r_i_glide_ligand_efficiency_sa>
-0.555028893177018

> <r_i_glide_ligand_efficiency_ln>
-1.46087696072502

> <r_i_glide_gscore>
-7.02194248928664

> <r_i_glide_lipo>
-3.50048876848595

> <r_i_glide_hbond>
-0.192030337765984

> <r_i_glide_metal>
0

> <r_i_glide_rewards>
-0.558887064771311

> <r_i_glide_evdw>
-48.9649848937988

> <r_i_glide_ecoul>
-5.91413021087646

> <r_i_glide_erotb>
0.585450332734803

> <r_i_glide_esite>
-0.0206178746767884

> <r_i_glide_emodel>
-71.5910322451483

> <r_i_glide_energy>
-54.8791151046753

> <r_i_glide_einternal>
9.31583690643311

> <i_i_glide_confnum>
7

> <i_i_glide_posenum>
27

> <r_i_glide_eff_state_penalty>
0

> <s_user_duplicate_titles>
CHEMBL286_lig2048

> <i_f3d_flags>
0

> <s_m_subgroup_title>
dock_pv

> <s_m_subgroupid>
dock_pv

> <b_m_subgroup_collapsed>
1

$$$$
CHEMBL286_lig567
                    3D
 Schrodinger Suite 2021-1.
 94 96  0  0  1  0            999 V2000
   -2.3032  -19.1436   -9.4912 S   0  0  0  0  0  0
   -3.7884  -18.4563  -10.0903 N   0  0  1  0  0  0
   -3.7104  -17.2921  -11.0223 C   0  0  2  0  0  0
   -2.8389  -20.1006   -8.1050 N   0  0  0  0  0  0
   -4.8494  -16.2829  -10.7043 C   0  0  0  0  0  0
   -5.7275  -16.6323   -9.7513 N   0  0  0  0  0  0
   -7.9170  -16.6641   -8.8050 C   0  0  0  0  0  0
   -9.0070  -16.4604   -9.5535 N   0  0  0  0  0  0
   -6.6821  -15.7844   -9.0537 C   0  0  1  0  0  0
  -10.2306  -17.2639   -9.4030 C   0  0  2  0  0  0
   -1.8690  -20.0795  -10.5287 O   0  0  0  0  0  0
   -1.4265  -18.0624   -9.0249 O   0  0  0  0  0  0
  -10.2405  -18.5719  -10.2573 C   0  0  2  0  0  0
   -9.1894  -19.6297   -9.8149 C   0  0  0  0  0  0
   -3.6281  -17.7642  -12.5056 C   0  0  0  0  0  0
   -4.8826  -15.2014  -11.2897 O   0  0  0  0  0  0
   -7.8691  -17.5481   -7.9557 O   0  0  0  0  0  0
  -11.4706  -16.3820   -9.6461 C   0  0  0  0  0  0
   -3.1612  -22.1962   -6.2461 O   0  0  0  0  0  0
   -1.7897  -20.3626   -7.0915 C   0  0  0  0  0  0
   -3.6627  -21.2914   -8.4381 C   0  0  0  0  0  0
   -6.0065  -15.1410   -7.3930 S   0  0  0  0  0  0
   -5.3515  -12.5154   -8.0212 C   0  0  0  0  0  0
   -4.7252  -11.5345   -7.3517 C   0  0  0  0  0  0
   -4.5148  -18.9417  -12.8914 C   0  0  0  0  0  0
  -10.0659  -18.2733  -11.6267 O   0  0  0  0  0  0
   -9.4648  -21.0913  -10.2333 C   0  0  1  0  0  0
  -11.5798  -15.1260   -8.7399 C   0  0  0  0  0  0
   -9.2763  -21.2529  -11.6207 O   0  0  0  0  0  0
   -6.4504  -13.3873   -7.4510 C   0  0  0  0  0  0
   -2.4167  -21.0398   -5.8558 C   0  0  0  0  0  0
   -4.2319  -21.9097   -7.1466 C   0  0  0  0  0  0
   -4.0387  -20.2671  -12.7932 C   0  0  0  0  0  0
   -5.8692  -18.7360  -13.2089 C   0  0  0  0  0  0
  -12.7431  -14.2565   -9.2209 C   0  0  0  0  0  0
  -11.8544  -15.4679   -7.2525 C   0  0  0  0  0  0
   -8.5554  -22.0914   -9.4832 C   0  0  0  0  0  0
   -8.8451  -23.5699   -9.7930 C   0  0  0  0  0  0
   -6.6923  -19.8261  -13.4563 C   0  0  0  0  0  0
   -4.8809  -21.3439  -13.0301 C   0  0  0  0  0  0
  -12.0108  -14.1904   -6.3951 C   0  0  0  0  0  0
  -12.8456  -12.9287   -8.4570 C   0  0  0  0  0  0
   -6.2037  -21.1212  -13.3770 C   0  0  0  0  0  0
  -13.0491  -13.2017   -6.9596 C   0  0  0  0  0  0
   -4.3830  -19.1766  -10.5072 H   0  0  0  0  0  0
   -2.8009  -16.7323  -10.7946 H   0  0  0  0  0  0
   -5.5391  -17.5126   -9.2898 H   0  0  0  0  0  0
   -9.0193  -15.7175  -10.2381 H   0  0  0  0  0  0
   -6.9493  -14.9177   -9.6637 H   0  0  0  0  0  0
  -10.3225  -17.5916   -8.3649 H   0  0  0  0  0  0
  -11.2316  -19.0192  -10.1651 H   0  0  0  0  0  0
   -8.1894  -19.3284  -10.1304 H   0  0  0  0  0  0
   -9.1548  -19.6235   -8.7252 H   0  0  0  0  0  0
   -3.8392  -16.9470  -13.2010 H   0  0  0  0  0  0
   -2.6009  -18.0612  -12.7149 H   0  0  0  0  0  0
  -12.3718  -16.9864   -9.5261 H   0  0  0  0  0  0
  -11.4681  -16.0691  -10.6922 H   0  0  0  0  0  0
   -1.0822  -21.0920   -7.4926 H   0  0  0  0  0  0
   -1.3252  -19.4255   -6.7822 H   0  0  0  0  0  0
   -4.4852  -21.0076   -9.0959 H   0  0  0  0  0  0
   -3.0098  -22.0589   -8.8593 H   0  0  0  0  0  0
   -5.0657  -12.7255   -9.0428 H   0  0  0  0  0  0
   -3.9449  -10.9511   -7.8196 H   0  0  0  0  0  0
   -4.9785  -11.2950   -6.3283 H   0  0  0  0  0  0
   -9.2025  -17.8730  -11.7625 H   0  0  0  0  0  0
  -10.5075  -21.3341  -10.0208 H   0  0  0  0  0  0
  -10.6667  -14.5311   -8.8095 H   0  0  0  0  0  0
   -8.4052  -20.9200  -11.8556 H   0  0  0  0  0  0
   -7.3704  -13.2502   -8.0187 H   0  0  0  0  0  0
   -6.6685  -13.0735   -6.4282 H   0  0  0  0  0  0
   -3.0678  -20.3482   -5.3148 H   0  0  0  0  0  0
   -1.6270  -21.3489   -5.1698 H   0  0  0  0  0  0
   -4.9499  -21.2402   -6.6680 H   0  0  0  0  0  0
   -4.7611  -22.8356   -7.3735 H   0  0  0  0  0  0
   -3.0025  -20.4585  -12.5675 H   0  0  0  0  0  0
   -6.2754  -17.7349  -13.2727 H   0  0  0  0  0  0
  -13.6380  -14.8576   -9.0996 H   0  0  0  0  0  0
  -12.6693  -14.0585  -10.2840 H   0  0  0  0  0  0
  -11.0712  -16.1078   -6.8460 H   0  0  0  0  0  0
  -12.7626  -16.0691   -7.1744 H   0  0  0  0  0  0
   -7.5097  -21.8783   -9.7056 H   0  0  0  0  0  0
   -8.6677  -21.9408   -8.4092 H   0  0  0  0  0  0
   -8.1907  -24.2234   -9.2167 H   0  0  0  0  0  0
   -9.8753  -23.8310   -9.5472 H   0  0  0  0  0  0
   -8.6890  -23.7955  -10.8479 H   0  0  0  0  0  0
   -7.7229  -19.6636  -13.7343 H   0  0  0  0  0  0
   -4.4995  -22.3520  -12.9737 H   0  0  0  0  0  0
  -12.2595  -14.4630   -5.3697 H   0  0  0  0  0  0
  -11.0690  -13.6592   -6.3503 H   0  0  0  0  0  0
  -13.6762  -12.3364   -8.8427 H   0  0  0  0  0  0
  -11.9436  -12.3346   -8.6150 H   0  0  0  0  0  0
   -6.8508  -21.9541  -13.6145 H   0  0  0  0  0  0
  -14.0390  -13.6219   -6.8212 H   0  0  0  0  0  0
  -13.0287  -12.2651   -6.4028 H   0  0  0  0  0  0
  1  2  1  0  0  0
  1  4  1  0  0  0
  1 11  2  0  0  0
  1 12  2  0  0  0
  2  3  1  0  0  0
  2 45  1  0  0  0
  3  5  1  0  0  0
  3 15  1  0  0  0
  3 46  1  0  0  0
  4 20  1  0  0  0
  4 21  1  0  0  0
  5  6  1  0  0  0
  5 16  2  0  0  0
  6  9  1  0  0  0
  6 47  1  0  0  0
  7  9  1  0  0  0
  7  8  1  0  0  0
  7 17  2  0  0  0
  8 10  1  0  0  0
  8 48  1  0  0  0
  9 22  1  0  0  0
  9 49  1  0  0  0
 10 13  1  0  0  0
 10 18  1  0  0  0
 10 50  1  0  0  0
 13 14  1  0  0  0
 13 26  1  0  0  0
 13 51  1  0  0  0
 14 27  1  0  0  0
 14 52  1  0  0  0
 14 53  1  0  0  0
 15 25  1  0  0  0
 15 54  1  0  0  0
 15 55  1  0  0  0
 18 28  1  0  0  0
 18 56  1  0  0  0
 18 57  1  0  0  0
 19 32  1  0  0  0
 19 31  1  0  0  0
 20 31  1  0  0  0
 20 58  1  0  0  0
 20 59  1  0  0  0
 21 32  1  0  0  0
 21 60  1  0  0  0
 21 61  1  0  0  0
 22 30  1  0  0  0
 23 30  1  0  0  0
 23 24  2  0  0  0
 23 62  1  0  0  0
 24 63  1  0  0  0
 24 64  1  0  0  0
 25 33  2  0  0  0
 25 34  1  0  0  0
 26 65  1  0  0  0
 27 29  1  0  0  0
 27 37  1  0  0  0
 27 66  1  0  0  0
 28 35  1  0  0  0
 28 36  1  0  0  0
 28 67  1  0  0  0
 29 68  1  0  0  0
 30 69  1  0  0  0
 30 70  1  0  0  0
 31 71  1  0  0  0
 31 72  1  0  0  0
 32 73  1  0  0  0
 32 74  1  0  0  0
 33 40  1  0  0  0
 33 75  1  0  0  0
 34 39  2  0  0  0
 34 76  1  0  0  0
 35 42  1  0  0  0
 35 77  1  0  0  0
 35 78  1  0  0  0
 36 41  1  0  0  0
 36 79  1  0  0  0
 36 80  1  0  0  0
 37 38  1  0  0  0
 37 81  1  0  0  0
 37 82  1  0  0  0
 38 83  1  0  0  0
 38 84  1  0  0  0
 38 85  1  0  0  0
 39 43  1  0  0  0
 39 86  1  0  0  0
 40 43  2  0  0  0
 40 87  1  0  0  0
 41 44  1  0  0  0
 41 88  1  0  0  0
 41 89  1  0  0  0
 42 44  1  0  0  0
 42 90  1  0  0  0
 42 91  1  0  0  0
 43 92  1  0  0  0
 44 93  1  0  0  0
 44 94  1  0  0  0
M  END
> <s_m_entry_id>
26419

> <s_m_entry_name>
dock_pv.243

> <s_m_Source_Path>
/home/csk/Desktop/cluster/DUD-E-result/reni

> <s_m_Source_File>
dock_pv.maegz

> <i_m_Source_File_Index>
243

> <chembl_id>
CHEMBL88526

> <chembl_pref_name>
None

> <i_lp_mmshare_version>
53161

> <r_lp_tautomer_probability>
1

> <s_lp_Force_Field>
OPLS_2005

> <r_lp_Energy>
22.496122

> <b_lp_Chiralities_Consistent>
1

> <s_lp_Variant>
CHEMBL286_lig567-1

> <s_i_glide_gridfile>
glide-grid_3g6z

> <i_i_glide_lignum>
1603

> <i_i_glide_rotatable_bonds>
22

> <r_i_docking_score>
-7.01924187050719

> <r_i_glide_ligand_efficiency>
-0.159528224329709

> <r_i_glide_ligand_efficiency_sa>
-0.563190200489504

> <r_i_glide_ligand_efficiency_ln>
-1.46717467483797

> <r_i_glide_gscore>
-7.01924187050719

> <r_i_glide_lipo>
-3.85698421121075

> <r_i_glide_hbond>
0

> <r_i_glide_metal>
0

> <r_i_glide_rewards>
-1.11212787304506

> <r_i_glide_evdw>
-47.2569007873535

> <r_i_glide_ecoul>
-2.16264629364014

> <r_i_glide_erotb>
0.639426500185123

> <r_i_glide_esite>
-0.00231430302281135

> <r_i_glide_emodel>
-57.1107560855627

> <r_i_glide_energy>
-49.4195470809937

> <r_i_glide_einternal>
21.2223358154297

> <i_i_glide_confnum>
90

> <i_i_glide_posenum>
285

> <r_i_glide_eff_state_penalty>
0

> <s_user_duplicate_titles>
CHEMBL286_lig567

> <i_f3d_flags>
0

> <s_m_subgroup_title>
dock_pv

> <s_m_subgroupid>
dock_pv

> <b_m_subgroup_collapsed>
1

$$$$
CHEMBL286_lig410
                    3D
 Schrodinger Suite 2021-1.
 93 96  0  0  1  0            999 V2000
   -8.3829  -20.4701  -11.0697 P   0  0  0  0  0  0
   -6.7556  -19.7477  -11.5959 C   0  0  1  0  0  0
   -4.8348  -13.7992  -11.1812 C   0  0  0  0  0  0
   -5.4684  -20.5207  -11.1652 C   0  0  1  0  0  0
   -3.8617  -18.6073  -11.2161 C   0  0  0  0  0  0
   -2.0692  -16.0103  -10.4227 C   0  0  0  0  0  0
   -4.1714  -14.6977  -10.4312 N   0  0  0  0  0  0
   -4.2535  -19.8257  -11.6329 N   0  0  0  0  0  0
   -6.1463  -14.0920  -11.4077 N   0  0  0  0  0  0
   -2.4702  -16.6036  -11.5678 N   0  0  0  0  0  0
   -2.5664  -18.0516  -11.8386 C   0  0  1  0  0  0
    0.6909  -19.4697  -12.8135 N   0  0  0  0  0  0
   -2.7542  -14.6709  -10.0383 C   0  0  1  0  0  0
   -0.0191  -18.5530  -12.0555 C   0  0  0  0  0  0
   -1.3355  -18.8958  -11.3979 C   0  0  0  0  0  0
    1.9028  -17.6049  -12.8078 N   0  0  0  0  0  0
    1.8045  -18.8623  -13.2217 C   0  0  0  0  0  0
   -8.5885  -20.8218   -9.6364 O   0  0  0  0  0  0
   -4.2856  -12.7850  -11.6155 O   0  0  0  0  0  0
    0.7571  -17.4128  -12.0351 C   0  0  0  0  0  0
   -5.4023  -20.8786   -9.6474 C   0  0  0  0  0  0
   -1.2469  -16.5027   -9.6497 O   0  0  0  0  0  0
   -4.4831  -17.9376  -10.3877 O   0  0  0  0  0  0
   -2.6555  -14.3827   -8.5112 C   0  0  0  0  0  0
   -9.4012  -19.3206  -11.6208 O   0  0  0  0  0  0
   -8.5676  -21.7127  -12.1115 O   0  0  0  0  0  0
   -6.8128  -19.6294  -13.0186 O   0  0  0  0  0  0
   -8.2688  -15.2626  -12.7559 O   0  0  0  0  0  0
   -3.2172  -13.0612   -8.0151 C   0  0  0  0  0  0
   -6.9605  -13.2525  -12.3103 C   0  0  0  0  0  0
   -6.8858  -15.2074  -10.7700 C   0  0  0  0  0  0
   -4.0696  -21.4916   -9.1313 C   0  0  0  0  0  0
   -7.5516  -14.2032  -13.3756 C   0  0  0  0  0  0
   -7.4580  -16.0689  -11.9127 C   0  0  0  0  0  0
  -10.7421  -19.2320  -11.1684 C   0  0  0  0  0  0
   -9.7637  -22.4689  -12.1718 C   0  0  0  0  0  0
   -2.4231  -11.8956   -8.0543 C   0  0  0  0  0  0
   -4.5700  -12.9586   -7.6247 C   0  0  0  0  0  0
   -4.0559  -21.5860   -7.5882 C   0  0  0  0  0  0
   -3.7867  -22.8949   -9.7210 C   0  0  0  0  0  0
   -5.0796  -11.7346   -7.2154 C   0  0  0  0  0  0
   -2.9501  -10.6832   -7.6302 C   0  0  0  0  0  0
   -2.4339  -23.4563   -9.2349 C   0  0  0  0  0  0
   -2.6998  -22.1056   -7.0683 C   0  0  0  0  0  0
   -4.2692  -10.6079   -7.2066 C   0  0  0  0  0  0
   -2.3386  -23.4707   -7.6940 C   0  0  0  0  0  0
   -6.7310  -18.7485  -11.1658 H   0  0  0  0  0  0
   -5.4935  -21.4694  -11.7058 H   0  0  0  0  0  0
   -4.6495  -15.5510  -10.1833 H   0  0  0  0  0  0
   -3.6914  -20.3102  -12.3151 H   0  0  0  0  0  0
   -3.0693  -16.0478  -12.1665 H   0  0  0  0  0  0
   -2.6723  -18.1489  -12.9199 H   0  0  0  0  0  0
   -2.2259  -13.8797  -10.5740 H   0  0  0  0  0  0
   -1.1993  -18.8680  -10.3161 H   0  0  0  0  0  0
   -1.5327  -19.9478  -11.6139 H   0  0  0  0  0  0
    0.4315  -20.4271  -13.0089 H   0  0  0  0  0  0
    2.5308  -19.3357  -13.8637 H   0  0  0  0  0  0
    0.5803  -16.4710  -11.5364 H   0  0  0  0  0  0
   -6.2045  -21.5738   -9.4020 H   0  0  0  0  0  0
   -5.6139  -19.9746   -9.0755 H   0  0  0  0  0  0
   -3.1536  -15.1796   -7.9536 H   0  0  0  0  0  0
   -1.6115  -14.4204   -8.1948 H   0  0  0  0  0  0
   -7.5248  -19.0305  -13.2831 H   0  0  0  0  0  0
   -7.7642  -12.8489  -11.6933 H   0  0  0  0  0  0
   -6.4067  -12.4310  -12.7680 H   0  0  0  0  0  0
   -6.3411  -15.7886  -10.0254 H   0  0  0  0  0  0
   -7.7162  -14.7296  -10.2493 H   0  0  0  0  0  0
   -3.2395  -20.8393   -9.4084 H   0  0  0  0  0  0
   -6.7660  -14.6038  -14.0210 H   0  0  0  0  0  0
   -8.2411  -13.6632  -14.0225 H   0  0  0  0  0  0
   -6.6627  -16.5478  -12.4893 H   0  0  0  0  0  0
   -8.0682  -16.8727  -11.5055 H   0  0  0  0  0  0
  -10.8910  -18.2735  -10.6696 H   0  0  0  0  0  0
  -11.4214  -19.2618  -12.0210 H   0  0  0  0  0  0
  -11.0212  -20.0215  -10.4710 H   0  0  0  0  0  0
  -10.1514  -22.4605  -13.1922 H   0  0  0  0  0  0
   -9.5520  -23.5063  -11.9119 H   0  0  0  0  0  0
  -10.5434  -22.1012  -11.5043 H   0  0  0  0  0  0
   -1.3983  -11.9479   -8.3921 H   0  0  0  0  0  0
   -5.2081  -13.8296   -7.6339 H   0  0  0  0  0  0
   -4.8753  -22.2190   -7.2397 H   0  0  0  0  0  0
   -4.2606  -20.6053   -7.1571 H   0  0  0  0  0  0
   -3.7973  -22.8558  -10.8097 H   0  0  0  0  0  0
   -4.5992  -23.5760   -9.4607 H   0  0  0  0  0  0
   -6.1086  -11.6587   -6.8982 H   0  0  0  0  0  0
   -2.3345   -9.7954   -7.6290 H   0  0  0  0  0  0
   -2.2888  -24.4642   -9.6222 H   0  0  0  0  0  0
   -1.6210  -22.8559   -9.6431 H   0  0  0  0  0  0
   -2.7216  -22.1860   -5.9809 H   0  0  0  0  0  0
   -1.9172  -21.3814   -7.3032 H   0  0  0  0  0  0
   -4.6687   -9.6630   -6.8707 H   0  0  0  0  0  0
   -3.0136  -24.2326   -7.3013 H   0  0  0  0  0  0
   -1.3351  -23.7687   -7.3858 H   0  0  0  0  0  0
  1  2  1  0  0  0
  1 18  2  0  0  0
  1 25  1  0  0  0
  1 26  1  0  0  0
  2  4  1  0  0  0
  2 27  1  0  0  0
  2 47  1  0  0  0
  3  7  1  0  0  0
  3  9  1  0  0  0
  3 19  2  0  0  0
  4  8  1  0  0  0
  4 21  1  0  0  0
  4 48  1  0  0  0
  5  8  1  0  0  0
  5 11  1  0  0  0
  5 23  2  0  0  0
  6 10  1  0  0  0
  6 13  1  0  0  0
  6 22  2  0  0  0
  7 13  1  0  0  0
  7 49  1  0  0  0
  8 50  1  0  0  0
  9 30  1  0  0  0
  9 31  1  0  0  0
 10 11  1  0  0  0
 10 51  1  0  0  0
 11 15  1  0  0  0
 11 52  1  0  0  0
 12 14  1  0  0  0
 12 56  1  0  0  0
 12 17  1  0  0  0
 13 24  1  0  0  0
 13 53  1  0  0  0
 14 20  2  0  0  0
 14 15  1  0  0  0
 15 54  1  0  0  0
 15 55  1  0  0  0
 16 17  2  0  0  0
 16 20  1  0  0  0
 17 57  1  0  0  0
 20 58  1  0  0  0
 21 32  1  0  0  0
 21 59  1  0  0  0
 21 60  1  0  0  0
 24 29  1  0  0  0
 24 61  1  0  0  0
 24 62  1  0  0  0
 25 35  1  0  0  0
 26 36  1  0  0  0
 27 63  1  0  0  0
 28 34  1  0  0  0
 28 33  1  0  0  0
 29 37  1  0  0  0
 29 38  2  0  0  0
 30 33  1  0  0  0
 30 64  1  0  0  0
 30 65  1  0  0  0
 31 34  1  0  0  0
 31 66  1  0  0  0
 31 67  1  0  0  0
 32 39  1  0  0  0
 32 40  1  0  0  0
 32 68  1  0  0  0
 33 69  1  0  0  0
 33 70  1  0  0  0
 34 71  1  0  0  0
 34 72  1  0  0  0
 35 73  1  0  0  0
 35 74  1  0  0  0
 35 75  1  0  0  0
 36 76  1  0  0  0
 36 77  1  0  0  0
 36 78  1  0  0  0
 37 42  2  0  0  0
 37 79  1  0  0  0
 38 41  1  0  0  0
 38 80  1  0  0  0
 39 44  1  0  0  0
 39 81  1  0  0  0
 39 82  1  0  0  0
 40 43  1  0  0  0
 40 83  1  0  0  0
 40 84  1  0  0  0
 41 45  2  0  0  0
 41 85  1  0  0  0
 42 45  1  0  0  0
 42 86  1  0  0  0
 43 46  1  0  0  0
 43 87  1  0  0  0
 43 88  1  0  0  0
 44 46  1  0  0  0
 44 89  1  0  0  0
 44 90  1  0  0  0
 45 91  1  0  0  0
 46 92  1  0  0  0
 46 93  1  0  0  0
M  END
> <s_m_entry_id>
26420

> <s_m_entry_name>
dock_pv.244

> <s_m_Source_Path>
/home/csk/Desktop/cluster/DUD-E-result/reni

> <s_m_Source_File>
dock_pv.maegz

> <i_m_Source_File_Index>
244

> <chembl_id>
CHEMBL336245

> <chembl_pref_name>
None

> <i_lp_mmshare_version>
53161

> <r_lp_tautomer_probability>
0.499999999999999

> <s_lp_Force_Field>
OPLS_2005

> <r_lp_Energy>
33.1803

> <b_lp_Chiralities_Consistent>
1

> <s_lp_Variant>
CHEMBL286_lig410-2

> <s_i_glide_gridfile>
glide-grid_3g6z

> <i_i_glide_lignum>
743

> <i_i_glide_rotatable_bonds>
20

> <r_i_docking_score>
-7.01341108424392

> <r_i_glide_ligand_efficiency>
-0.152465458353129

> <r_i_glide_ligand_efficiency_sa>
-0.546291035258464

> <r_i_glide_ligand_efficiency_ln>
-1.45246053876425

> <r_i_glide_gscore>
-7.01341108424392

> <r_i_glide_lipo>
-2.99798246827996

> <r_i_glide_hbond>
-0.166234682446882

> <r_i_glide_metal>
0

> <r_i_glide_rewards>
-0.640186104958653

> <r_i_glide_evdw>
-58.7951812744141

> <r_i_glide_ecoul>
-4.88628482818604

> <r_i_glide_erotb>
0.472380613651602

> <r_i_glide_esite>
-0.00868665426141318

> <r_i_glide_emodel>
-85.4655647451392

> <r_i_glide_energy>
-63.6814661026001

> <r_i_glide_einternal>
9.55270195007324

> <i_i_glide_confnum>
117

> <i_i_glide_posenum>
227

> <r_i_glide_eff_state_penalty>
0

> <s_user_duplicate_titles>
CHEMBL286_lig410

> <i_f3d_flags>
0

> <s_m_subgroup_title>
dock_pv

> <s_m_subgroupid>
dock_pv

> <b_m_subgroup_collapsed>
1

$$$$
CHEMBL286_lig1653
                    3D
 Schrodinger Suite 2021-1.
 94 94  0  0  1  0            999 V2000
  -11.6125  -12.8222   -8.4212 C   0  0  0  0  0  0
  -12.8211  -13.2377   -7.8416 C   0  0  0  0  0  0
  -12.9914  -14.5895   -7.5172 C   0  0  0  0  0  0
  -11.9856  -15.5221   -7.7856 C   0  0  0  0  0  0
  -10.8026  -15.1229   -8.4212 C   0  0  0  0  0  0
  -10.6214  -13.7677   -8.7104 C   0  0  0  0  0  0
   -9.6463  -16.1037   -8.6591 C   0  0  0  0  0  0
   -9.4575  -16.7253  -10.0828 C   0  0  1  0  0  0
   -7.9627  -17.1399  -10.2756 C   0  0  0  0  0  0
  -10.4901  -17.8707  -10.3784 C   0  0  0  0  0  0
  -10.0816  -18.9286  -11.4263 C   0  0  0  0  0  0
  -11.8690  -17.3188  -10.7757 C   0  0  0  0  0  0
  -13.8635  -12.3481   -7.6959 O   0  0  0  0  0  0
  -14.2685  -12.0311   -6.3681 C   0  0  0  0  0  0
  -11.3719  -11.3650   -8.8212 C   0  0  0  0  0  0
  -10.3542  -10.6361   -7.9376 C   0  0  0  0  0  0
  -10.9346  -10.3759   -6.5486 C   0  0  0  0  0  0
  -10.3214   -9.1594   -5.8506 C   0  0  0  0  0  0
   -7.4604  -17.1165  -11.7521 C   0  0  1  0  0  0
   -6.7697  -15.8150  -12.2649 C   0  0  2  0  0  0
   -6.6357  -18.2851  -12.0211 N   0  0  0  0  0  0
   -5.2549  -15.6055  -11.9568 C   0  0  0  0  0  0
   -7.5142  -14.6651  -11.9171 O   0  0  0  0  0  0
   -4.7137  -15.6380  -10.4826 C   0  0  2  0  0  0
   -5.0233  -14.3310   -9.6914 C   0  0  0  0  0  0
   -4.2154  -13.9688   -8.6754 N   0  0  0  0  0  0
   -6.0146  -13.6631   -9.9809 O   0  0  0  0  0  0
   -3.2254  -16.1335  -10.3885 C   0  0  0  0  0  0
   -2.2214  -15.2845  -11.1976 C   0  0  0  0  0  0
   -3.0690  -17.6290  -10.7394 C   0  0  0  0  0  0
   -4.4002  -12.7596   -7.8575 C   0  0  0  0  0  0
   -3.5163  -11.5197   -8.2393 C   0  0  0  0  0  0
  -11.2383   -8.5215   -4.9712 O   0  0  0  0  0  0
  -12.3540   -7.9027   -5.6028 C   0  0  0  0  0  0
   -2.1186  -11.6317   -7.5623 C   0  0  0  0  0  0
   -3.3157  -11.3680   -9.7741 C   0  0  0  0  0  0
   -4.2643  -10.2359   -7.7788 C   0  0  0  0  0  0
   -1.3238  -12.6419   -7.9182 N   0  0  0  0  0  0
   -1.7367  -10.8186   -6.7215 O   0  0  0  0  0  0
  -13.9211  -14.9223   -7.0780 H   0  0  0  0  0  0
  -12.1361  -16.5584   -7.5202 H   0  0  0  0  0  0
   -9.6989  -13.4430   -9.1700 H   0  0  0  0  0  0
   -9.6743  -16.8908   -7.9047 H   0  0  0  0  0  0
   -8.7494  -15.5318   -8.4212 H   0  0  0  0  0  0
   -9.6214  -15.9399  -10.8124 H   0  0  0  0  0  0
   -7.8183  -18.1207   -9.8174 H   0  0  0  0  0  0
   -7.3285  -16.4829   -9.6939 H   0  0  0  0  0  0
  -10.6059  -18.4320   -9.4566 H   0  0  0  0  0  0
  -10.0196  -18.4924  -12.4211 H   0  0  0  0  0  0
   -9.1306  -19.4078  -11.2006 H   0  0  0  0  0  0
  -10.8238  -19.7252  -11.4863 H   0  0  0  0  0  0
  -11.7980  -16.6366  -11.6209 H   0  0  0  0  0  0
  -12.5535  -18.1191  -11.0583 H   0  0  0  0  0  0
  -12.3433  -16.7763   -9.9680 H   0  0  0  0  0  0
  -15.2936  -11.6629   -6.3894 H   0  0  0  0  0  0
  -14.2284  -12.8656   -5.6708 H   0  0  0  0  0  0
  -13.6633  -11.2350   -5.9480 H   0  0  0  0  0  0
  -11.0686  -11.2630   -9.8599 H   0  0  0  0  0  0
  -12.3057  -10.8160   -8.8100 H   0  0  0  0  0  0
   -9.4139  -11.1829   -7.8687 H   0  0  0  0  0  0
  -10.1216   -9.6866   -8.4214 H   0  0  0  0  0  0
  -11.9922  -10.2091   -6.6874 H   0  0  0  0  0  0
  -10.8642  -11.2611   -5.9162 H   0  0  0  0  0  0
   -9.4696   -9.5246   -5.2858 H   0  0  0  0  0  0
   -9.9354   -8.4211   -6.5553 H   0  0  0  0  0  0
   -8.3376  -17.2332  -12.3833 H   0  0  0  0  0  0
   -6.8325  -15.8613  -13.3556 H   0  0  0  0  0  0
   -6.5660  -18.3905  -13.0265 H   0  0  0  0  0  0
   -5.6986  -18.1237  -11.6835 H   0  0  0  0  0  0
   -4.9578  -14.6643  -12.4208 H   0  0  0  0  0  0
   -4.7241  -16.3533  -12.5432 H   0  0  0  0  0  0
   -7.0635  -14.2438  -11.1662 H   0  0  0  0  0  0
   -5.2669  -16.4031   -9.9444 H   0  0  0  0  0  0
   -3.4652  -14.5874   -8.4132 H   0  0  0  0  0  0
   -2.9110  -16.0768   -9.3453 H   0  0  0  0  0  0
   -2.3805  -15.3813  -12.2697 H   0  0  0  0  0  0
   -2.2934  -14.2284  -10.9546 H   0  0  0  0  0  0
   -1.1963  -15.5920  -10.9956 H   0  0  0  0  0  0
   -3.2558  -17.8310  -11.7929 H   0  0  0  0  0  0
   -2.0608  -17.9786  -10.5215 H   0  0  0  0  0  0
   -3.7511  -18.2475  -10.1564 H   0  0  0  0  0  0
   -4.2326  -13.0374   -6.8156 H   0  0  0  0  0  0
   -5.4539  -12.4721   -7.8621 H   0  0  0  0  0  0
  -12.8935   -7.2873   -4.8824 H   0  0  0  0  0  0
  -12.0358   -7.2626   -6.4208 H   0  0  0  0  0  0
  -13.0688   -8.6134   -6.0007 H   0  0  0  0  0  0
   -4.2685  -11.3183  -10.3014 H   0  0  0  0  0  0
   -2.7592  -10.4641  -10.0200 H   0  0  0  0  0  0
   -2.7644  -12.1962  -10.2123 H   0  0  0  0  0  0
   -5.1495  -10.0617   -8.3957 H   0  0  0  0  0  0
   -4.5857  -10.3005   -6.7364 H   0  0  0  0  0  0
   -3.6427   -9.3440   -7.8631 H   0  0  0  0  0  0
   -0.4163  -12.7232   -7.4867 H   0  0  0  0  0  0
   -1.6010  -13.2851   -8.6444 H   0  0  0  0  0  0
  1  2  2  0  0  0
  1  6  1  0  0  0
  1 15  1  0  0  0
  2  3  1  0  0  0
  2 13  1  0  0  0
  3  4  2  0  0  0
  3 40  1  0  0  0
  4  5  1  0  0  0
  4 41  1  0  0  0
  5  6  2  0  0  0
  5  7  1  0  0  0
  6 42  1  0  0  0
  7  8  1  0  0  0
  7 43  1  0  0  0
  7 44  1  0  0  0
  8  9  1  0  0  0
  8 10  1  0  0  0
  8 45  1  0  0  0
  9 19  1  0  0  0
  9 46  1  0  0  0
  9 47  1  0  0  0
 10 11  1  0  0  0
 10 12  1  0  0  0
 10 48  1  0  0  0
 11 49  1  0  0  0
 11 50  1  0  0  0
 11 51  1  0  0  0
 12 52  1  0  0  0
 12 53  1  0  0  0
 12 54  1  0  0  0
 13 14  1  0  0  0
 14 55  1  0  0  0
 14 56  1  0  0  0
 14 57  1  0  0  0
 15 16  1  0  0  0
 15 58  1  0  0  0
 15 59  1  0  0  0
 16 17  1  0  0  0
 16 60  1  0  0  0
 16 61  1  0  0  0
 17 18  1  0  0  0
 17 62  1  0  0  0
 17 63  1  0  0  0
 18 33  1  0  0  0
 18 64  1  0  0  0
 18 65  1  0  0  0
 19 20  1  0  0  0
 19 21  1  0  0  0
 19 66  1  0  0  0
 20 22  1  0  0  0
 20 23  1  0  0  0
 20 67  1  0  0  0
 21 68  1  0  0  0
 21 69  1  0  0  0
 22 24  1  0  0  0
 22 70  1  0  0  0
 22 71  1  0  0  0
 23 72  1  0  0  0
 24 25  1  0  0  0
 24 28  1  0  0  0
 24 73  1  0  0  0
 25 26  1  0  0  0
 25 27  2  0  0  0
 26 31  1  0  0  0
 26 74  1  0  0  0
 28 29  1  0  0  0
 28 30  1  0  0  0
 28 75  1  0  0  0
 29 76  1  0  0  0
 29 77  1  0  0  0
 29 78  1  0  0  0
 30 79  1  0  0  0
 30 80  1  0  0  0
 30 81  1  0  0  0
 31 32  1  0  0  0
 31 82  1  0  0  0
 31 83  1  0  0  0
 32 35  1  0  0  0
 32 36  1  0  0  0
 32 37  1  0  0  0
 33 34  1  0  0  0
 34 84  1  0  0  0
 34 85  1  0  0  0
 34 86  1  0  0  0
 35 38  1  0  0  0
 35 39  2  0  0  0
 36 87  1  0  0  0
 36 88  1  0  0  0
 36 89  1  0  0  0
 37 90  1  0  0  0
 37 91  1  0  0  0
 37 92  1  0  0  0
 38 93  1  0  0  0
 38 94  1  0  0  0
M  END
> <s_m_entry_id>
26421

> <s_m_entry_name>
dock_pv.245

> <s_m_Source_Path>
/home/csk/Desktop/cluster/DUD-E-result/reni

> <s_m_Source_File>
dock_pv.maegz

> <i_m_Source_File_Index>
245

> <chembl_id>
CHEMBL535635

> <chembl_pref_name>
None

> <i_lp_mmshare_version>
53161

> <r_lp_tautomer_probability>
1

> <s_lp_Force_Field>
OPLS_2005

> <r_lp_Energy>
35.230593

> <b_lp_Chiralities_Consistent>
1

> <s_lp_Variant>
CHEMBL286_lig1653-1

> <s_i_glide_gridfile>
glide-grid_3g6z

> <i_i_glide_lignum>
5359

> <i_i_glide_rotatable_bonds>
21

> <r_i_docking_score>
-7.01336447467196

> <r_i_glide_ligand_efficiency>
-0.179829858324922

> <r_i_glide_ligand_efficiency_sa>
-0.609841072602362

> <r_i_glide_ligand_efficiency_ln>
-1.50386442955942

> <r_i_glide_gscore>
-7.01336447467196

> <r_i_glide_lipo>
-4.78993225836082

> <r_i_glide_hbond>
0

> <r_i_glide_metal>
0

> <r_i_glide_rewards>
-0.803086794624698

> <r_i_glide_evdw>
-46.1663398742676

> <r_i_glide_ecoul>
-0.938273310661316

> <r_i_glide_erotb>
1.02871256862613

> <r_i_glide_esite>
0

> <r_i_glide_emodel>
-55.639342437221

> <r_i_glide_energy>
-47.1046131849289

> <r_i_glide_einternal>
23.6320457458496

> <i_i_glide_confnum>
111

> <i_i_glide_posenum>
362

> <r_i_glide_eff_state_penalty>
0

> <s_user_duplicate_titles>
CHEMBL286_lig1653

> <i_f3d_flags>
0

> <s_m_subgroup_title>
dock_pv

> <s_m_subgroupid>
dock_pv

> <b_m_subgroup_collapsed>
1

$$$$
CHEMBL286_lig1154
                    3D
 Schrodinger Suite 2021-1.
 87 89  0  0  1  0            999 V2000
  -10.6012  -16.8029   -9.1349 C   0  0  0  0  0  0
   -5.1420  -17.4255  -12.3992 C   0  0  0  0  0  0
  -11.4843  -15.9576   -8.5240 N   0  0  0  0  0  0
   -5.3922  -18.1995  -11.3290 N   0  0  0  0  0  0
   -4.7087  -19.4597  -11.0082 C   0  0  2  0  0  0
   -6.0550  -16.2048  -12.6228 C   0  0  1  0  0  0
   -5.7184  -20.6514  -11.0017 C   0  0  2  0  0  0
   -7.4770  -16.5338  -12.4206 N   0  0  0  0  0  0
  -10.4826  -16.6390  -10.4660 N   0  0  0  0  0  0
   -6.6254  -20.7282  -12.2687 C   0  0  2  0  0  0
   -8.1242  -16.7168  -11.2560 C   0  0  0  0  0  0
   -3.0437  -15.6707   -8.9618 C   0  0  0  0  0  0
   -3.8646  -19.3499   -9.7017 C   0  0  0  0  0  0
  -12.6694  -15.3661   -9.1954 C   0  0  0  0  0  0
  -11.5410  -15.8785   -7.0514 C   0  0  0  0  0  0
   -9.9397  -17.6523   -8.5244 O   0  0  0  0  0  0
  -12.7023  -13.6101   -7.3312 C   0  0  0  0  0  0
   -4.2575  -17.6646  -13.2196 O   0  0  0  0  0  0
   -3.7147  -16.9007   -9.0743 C   0  0  0  0  0  0
   -3.0784  -18.0472   -9.5595 C   0  0  0  0  0  0
   -7.6871  -21.8609  -12.3048 C   0  0  0  0  0  0
  -11.5510  -14.3603   -6.6718 C   0  0  0  0  0  0
  -12.7854  -13.8583   -8.8292 C   0  0  0  0  0  0
   -7.5952  -16.5134  -10.1650 O   0  0  0  0  0  0
   -3.7629  -14.4431   -8.4693 C   0  0  0  0  0  0
  -13.4820  -12.8796   -6.7271 O   0  0  0  0  0  0
   -9.5354  -17.3314  -11.3521 C   0  0  0  0  0  0
   -6.5720  -20.5615   -9.8614 O   0  0  0  0  0  0
   -5.8719  -20.7255  -13.4731 O   0  0  0  0  0  0
   -5.5226  -14.9685  -11.8581 C   0  0  0  0  0  0
   -6.2884  -13.4192  -12.4123 S   0  0  0  0  0  0
   -1.6925  -15.6351   -9.3453 C   0  0  0  0  0  0
   -1.0418  -16.7762   -9.8241 C   0  0  0  0  0  0
   -7.2429  -23.3515  -12.2225 C   0  0  0  0  0  0
   -1.7369  -17.9800   -9.9362 C   0  0  0  0  0  0
   -4.8892  -14.5422   -7.6355 C   0  0  0  0  0  0
   -3.3361  -13.1590   -8.8540 C   0  0  0  0  0  0
   -4.8087  -12.3812  -12.5107 C   0  0  0  0  0  0
   -6.9953  -23.8514  -10.7872 C   0  0  0  0  0  0
   -6.0726  -23.7350  -13.1519 C   0  0  0  0  0  0
   -4.0191  -12.0204   -8.4333 C   0  0  0  0  0  0
   -5.5822  -13.4020   -7.2208 C   0  0  0  0  0  0
   -5.1389  -12.1460   -7.6200 C   0  0  0  0  0  0
   -6.1373  -17.9219  -10.7021 H   0  0  0  0  0  0
   -3.9944  -19.6905  -11.8048 H   0  0  0  0  0  0
   -5.9797  -15.9786  -13.6854 H   0  0  0  0  0  0
   -5.1324  -21.5662  -10.9272 H   0  0  0  0  0  0
   -7.9617  -16.8050  -13.2773 H   0  0  0  0  0  0
  -11.0600  -15.9390  -10.9111 H   0  0  0  0  0  0
   -7.1993  -19.7965  -12.3103 H   0  0  0  0  0  0
   -3.1843  -20.1971   -9.6171 H   0  0  0  0  0  0
   -4.5064  -19.4310   -8.8232 H   0  0  0  0  0  0
  -12.6479  -15.4631  -10.2780 H   0  0  0  0  0  0
  -13.5367  -15.8996   -8.8208 H   0  0  0  0  0  0
  -12.4663  -16.3546   -6.7141 H   0  0  0  0  0  0
  -10.7259  -16.4371   -6.5734 H   0  0  0  0  0  0
   -4.7608  -16.9725   -8.8071 H   0  0  0  0  0  0
   -8.4207  -21.6597  -11.5170 H   0  0  0  0  0  0
   -8.2691  -21.7318  -13.2195 H   0  0  0  0  0  0
  -11.5146  -14.1969   -5.5965 H   0  0  0  0  0  0
  -10.6700  -13.8431   -7.0756 H   0  0  0  0  0  0
  -11.9303  -13.3061   -9.2239 H   0  0  0  0  0  0
  -13.7094  -13.3936   -9.2037 H   0  0  0  0  0  0
   -9.9122  -17.3022  -12.3761 H   0  0  0  0  0  0
   -9.4769  -18.3843  -11.0708 H   0  0  0  0  0  0
   -7.1689  -21.3137   -9.8637 H   0  0  0  0  0  0
   -6.4940  -20.6048  -14.1941 H   0  0  0  0  0  0
   -5.6585  -15.0602  -10.7823 H   0  0  0  0  0  0
   -4.4433  -14.8789  -12.0067 H   0  0  0  0  0  0
   -1.1315  -14.7167   -9.2696 H   0  0  0  0  0  0
   -0.0004  -16.7281  -10.1156 H   0  0  0  0  0  0
   -8.0979  -23.9238  -12.5898 H   0  0  0  0  0  0
   -1.2413  -18.8579  -10.3176 H   0  0  0  0  0  0
   -5.2504  -15.5033   -7.2957 H   0  0  0  0  0  0
   -2.4856  -13.0249   -9.5031 H   0  0  0  0  0  0
   -5.0689  -11.3700  -12.8185 H   0  0  0  0  0  0
   -4.3280  -12.3245  -11.5376 H   0  0  0  0  0  0
   -4.0956  -12.7906  -13.2255 H   0  0  0  0  0  0
   -6.0931  -23.4316  -10.3457 H   0  0  0  0  0  0
   -7.8377  -23.6043  -10.1335 H   0  0  0  0  0  0
   -6.8831  -24.9333  -10.7748 H   0  0  0  0  0  0
   -5.1340  -23.2743  -12.8463 H   0  0  0  0  0  0
   -5.9099  -24.8114  -13.1592 H   0  0  0  0  0  0
   -6.2706  -23.4387  -14.1841 H   0  0  0  0  0  0
   -3.6870  -11.0420   -8.7478 H   0  0  0  0  0  0
   -6.4545  -13.4860   -6.5929 H   0  0  0  0  0  0
   -5.6670  -11.2607   -7.3012 H   0  0  0  0  0  0
  1  3  1  0  0  0
  1  9  1  0  0  0
  1 16  2  0  0  0
  2  6  1  0  0  0
  2  4  1  0  0  0
  2 18  2  0  0  0
  3 14  1  0  0  0
  3 15  1  0  0  0
  4  5  1  0  0  0
  4 44  1  0  0  0
  5  7  1  0  0  0
  5 13  1  0  0  0
  5 45  1  0  0  0
  6  8  1  0  0  0
  6 30  1  0  0  0
  6 46  1  0  0  0
  7 10  1  0  0  0
  7 28  1  0  0  0
  7 47  1  0  0  0
  8 11  1  0  0  0
  8 48  1  0  0  0
  9 27  1  0  0  0
  9 49  1  0  0  0
 10 21  1  0  0  0
 10 29  1  0  0  0
 10 50  1  0  0  0
 11 27  1  0  0  0
 11 24  2  0  0  0
 12 19  2  0  0  0
 12 25  1  0  0  0
 12 32  1  0  0  0
 13 20  1  0  0  0
 13 51  1  0  0  0
 13 52  1  0  0  0
 14 23  1  0  0  0
 14 53  1  0  0  0
 14 54  1  0  0  0
 15 22  1  0  0  0
 15 55  1  0  0  0
 15 56  1  0  0  0
 17 22  1  0  0  0
 17 26  2  0  0  0
 17 23  1  0  0  0
 19 20  1  0  0  0
 19 57  1  0  0  0
 20 35  2  0  0  0
 21 34  1  0  0  0
 21 58  1  0  0  0
 21 59  1  0  0  0
 22 60  1  0  0  0
 22 61  1  0  0  0
 23 62  1  0  0  0
 23 63  1  0  0  0
 25 36  2  0  0  0
 25 37  1  0  0  0
 27 64  1  0  0  0
 27 65  1  0  0  0
 28 66  1  0  0  0
 29 67  1  0  0  0
 30 31  1  0  0  0
 30 68  1  0  0  0
 30 69  1  0  0  0
 31 38  1  0  0  0
 32 33  2  0  0  0
 32 70  1  0  0  0
 33 35  1  0  0  0
 33 71  1  0  0  0
 34 39  1  0  0  0
 34 40  1  0  0  0
 34 72  1  0  0  0
 35 73  1  0  0  0
 36 42  1  0  0  0
 36 74  1  0  0  0
 37 41  2  0  0  0
 37 75  1  0  0  0
 38 76  1  0  0  0
 38 77  1  0  0  0
 38 78  1  0  0  0
 39 79  1  0  0  0
 39 80  1  0  0  0
 39 81  1  0  0  0
 40 82  1  0  0  0
 40 83  1  0  0  0
 40 84  1  0  0  0
 41 43  1  0  0  0
 41 85  1  0  0  0
 42 43  2  0  0  0
 42 86  1  0  0  0
 43 87  1  0  0  0
M  END
> <s_m_entry_id>
26422

> <s_m_entry_name>
dock_pv.246

> <s_m_Source_Path>
/home/csk/Desktop/cluster/DUD-E-result/reni

> <s_m_Source_File>
dock_pv.maegz

> <i_m_Source_File_Index>
246

> <chembl_id>
CHEMBL310653

> <chembl_pref_name>
None

> <i_lp_mmshare_version>
53161

> <r_lp_tautomer_probability>
0.99999998

> <s_lp_Force_Field>
OPLS_2005

> <r_lp_Energy>
36.402426

> <b_lp_Chiralities_Consistent>
1

> <s_lp_Variant>
CHEMBL286_lig1154-1

> <s_i_glide_gridfile>
glide-grid_3g6z

> <i_i_glide_lignum>
3648

> <i_i_glide_rotatable_bonds>
20

> <r_i_docking_score>
-7.01120461046127

> <r_i_glide_ligand_efficiency>
-0.163051270010727

> <r_i_glide_ligand_efficiency_sa>
-0.571233502383

> <r_i_glide_ligand_efficiency_ln>
-1.47257087290899

> <r_i_glide_gscore>
-7.01120461046127

> <r_i_glide_lipo>
-2.57042780515512

> <r_i_glide_hbond>
-0.15591228586237

> <r_i_glide_metal>
0

> <r_i_glide_rewards>
-1.62028689885188

> <r_i_glide_evdw>
-48.6568336486816

> <r_i_glide_ecoul>
-5.66903638839722

> <r_i_glide_erotb>
0.714864072848545

> <r_i_glide_esite>
-0.0962445527467818

> <r_i_glide_emodel>
-64.2930719502277

> <r_i_glide_energy>
-54.3258700370789

> <r_i_glide_einternal>
19.0272445678711

> <i_i_glide_confnum>
26

> <i_i_glide_posenum>
141

> <r_i_glide_eff_state_penalty>
0

> <s_user_duplicate_titles>
CHEMBL286_lig1154

> <i_f3d_flags>
0

> <s_m_subgroup_title>
dock_pv

> <s_m_subgroupid>
dock_pv

> <b_m_subgroup_collapsed>
1

$$$$
CHEMBL286_lig2478
                    3D
 Schrodinger Suite 2021-1.
 74 75  0  0  1  0            999 V2000
   -8.5032  -18.6630   -8.4203 C   0  0  0  0  0  0
   -7.9167  -17.4284   -9.1525 C   0  0  0  0  0  0
   -6.5174  -17.0349   -8.6291 C   0  0  0  0  0  0
  -11.1715  -12.7121   -8.2987 C   0  0  0  0  0  0
  -12.4331  -12.9462   -7.7677 C   0  0  0  0  0  0
  -12.9354  -14.2433   -7.7286 C   0  0  0  0  0  0
  -12.1891  -15.3135   -8.2352 C   0  0  0  0  0  0
  -10.9245  -15.0810   -8.8211 C   0  0  0  0  0  0
  -10.4242  -13.7674   -8.8207 C   0  0  0  0  0  0
  -10.1034  -16.1117   -9.3726 N   0  0  0  0  0  0
   -8.7462  -16.1768   -8.8125 C   0  0  0  0  0  0
   -7.9819  -17.5745  -10.6146 N   0  0  2  0  0  0
   -9.3425  -17.6675  -11.1979 C   0  0  0  0  0  0
  -10.4604  -16.8511  -10.4713 C   0  0  0  0  0  0
  -11.5969  -16.8455  -10.9408 O   0  0  0  0  0  0
   -7.0838  -18.6058  -11.1807 C   0  0  0  0  0  0
   -6.1061  -18.1049  -12.2842 C   0  0  1  0  0  0
   -5.2575  -16.8439  -11.8966 C   0  0  2  0  0  0
   -5.2386  -19.2362  -12.6091 N   0  0  0  0  0  0
   -5.9174  -15.5189  -12.3563 C   0  0  0  0  0  0
   -3.9380  -16.8631  -12.4211 O   0  0  0  0  0  0
   -5.2287  -14.2128  -11.8581 C   0  0  2  0  0  0
   -5.6874  -13.8106  -10.4506 C   0  0  0  0  0  0
   -4.7362  -13.5724   -9.5344 N   0  0  0  0  0  0
   -6.8886  -13.6633  -10.2218 O   0  0  0  0  0  0
   -5.4767  -13.0373  -12.8207 C   0  0  0  0  0  0
  -12.7062  -16.7120   -7.9893 C   0  0  0  0  0  0
  -10.6702  -11.4572   -8.3103 F   0  0  0  0  0  0
   -4.9926  -13.0361   -8.1927 C   0  0  0  0  0  0
   -3.9662  -11.9627   -7.7301 C   0  0  0  0  0  0
   -4.4774  -11.3250   -6.4211 C   0  0  0  0  0  0
   -3.7962  -10.8326   -8.7743 C   0  0  0  0  0  0
   -2.5924  -12.6258   -7.4813 C   0  0  0  0  0  0
   -8.6701  -18.4583   -7.3629 H   0  0  0  0  0  0
   -9.4662  -18.9692   -8.8231 H   0  0  0  0  0  0
   -7.8436  -19.5270   -8.5027 H   0  0  0  0  0  0
   -6.5384  -16.8578   -7.5531 H   0  0  0  0  0  0
   -5.7569  -17.7874   -8.8216 H   0  0  0  0  0  0
   -6.1577  -16.1126   -9.0751 H   0  0  0  0  0  0
  -13.0086  -12.1256   -7.3663 H   0  0  0  0  0  0
  -13.8970  -14.4196   -7.2705 H   0  0  0  0  0  0
   -9.4567  -13.5426   -9.2437 H   0  0  0  0  0  0
   -8.2272  -15.2952   -9.1770 H   0  0  0  0  0  0
   -8.7660  -16.0630   -7.7346 H   0  0  0  0  0  0
   -9.3158  -17.3520  -12.2432 H   0  0  0  0  0  0
   -9.6965  -18.7000  -11.2037 H   0  0  0  0  0  0
   -7.6607  -19.4365  -11.5930 H   0  0  0  0  0  0
   -6.4842  -19.0535  -10.3889 H   0  0  0  0  0  0
   -6.6676  -17.8825  -13.1932 H   0  0  0  0  0  0
   -5.0945  -16.8404  -10.8246 H   0  0  0  0  0  0
   -4.4380  -18.8001  -13.0512 H   0  0  0  0  0  0
   -4.8687  -19.6171  -11.7501 H   0  0  0  0  0  0
   -6.9749  -15.5148  -12.0872 H   0  0  0  0  0  0
   -5.9268  -15.5255  -13.4496 H   0  0  0  0  0  0
   -3.8680  -16.1631  -13.0865 H   0  0  0  0  0  0
   -4.1480  -14.3617  -11.8449 H   0  0  0  0  0  0
   -3.7747  -13.7623   -9.7724 H   0  0  0  0  0  0
   -4.9934  -12.1195  -12.4802 H   0  0  0  0  0  0
   -5.0690  -13.2625  -13.8038 H   0  0  0  0  0  0
   -6.5433  -12.8252  -12.9262 H   0  0  0  0  0  0
  -13.4995  -16.7446   -7.2411 H   0  0  0  0  0  0
  -13.0523  -17.2005   -8.8945 H   0  0  0  0  0  0
  -11.8647  -17.2629   -7.5832 H   0  0  0  0  0  0
   -5.0164  -13.8717   -7.4904 H   0  0  0  0  0  0
   -5.9927  -12.5976   -8.1463 H   0  0  0  0  0  0
   -3.7623  -10.6036   -6.0212 H   0  0  0  0  0  0
   -4.6690  -12.0669   -5.6484 H   0  0  0  0  0  0
   -5.4184  -10.7972   -6.5730 H   0  0  0  0  0  0
   -3.4370  -11.2065   -9.7349 H   0  0  0  0  0  0
   -4.7358  -10.3140   -8.9579 H   0  0  0  0  0  0
   -3.0797  -10.0822   -8.4357 H   0  0  0  0  0  0
   -2.1619  -13.0187   -8.4027 H   0  0  0  0  0  0
   -1.8735  -11.9177   -7.0669 H   0  0  0  0  0  0
   -2.6670  -13.4579   -6.7821 H   0  0  0  0  0  0
  1  2  1  0  0  0
  1 34  1  0  0  0
  1 35  1  0  0  0
  1 36  1  0  0  0
  2  3  1  0  0  0
  2 11  1  0  0  0
  2 12  1  0  0  0
  3 37  1  0  0  0
  3 38  1  0  0  0
  3 39  1  0  0  0
  4  5  2  0  0  0
  4  9  1  0  0  0
  4 28  1  0  0  0
  5  6  1  0  0  0
  5 40  1  0  0  0
  6  7  2  0  0  0
  6 41  1  0  0  0
  7  8  1  0  0  0
  7 27  1  0  0  0
  8  9  2  0  0  0
  8 10  1  0  0  0
  9 42  1  0  0  0
 10 11  1  0  0  0
 10 14  1  0  0  0
 11 43  1  0  0  0
 11 44  1  0  0  0
 12 13  1  0  0  0
 12 16  1  0  0  0
 13 14  1  0  0  0
 13 45  1  0  0  0
 13 46  1  0  0  0
 14 15  2  0  0  0
 16 17  1  0  0  0
 16 47  1  0  0  0
 16 48  1  0  0  0
 17 18  1  0  0  0
 17 19  1  0  0  0
 17 49  1  0  0  0
 18 20  1  0  0  0
 18 21  1  0  0  0
 18 50  1  0  0  0
 19 51  1  0  0  0
 19 52  1  0  0  0
 20 22  1  0  0  0
 20 53  1  0  0  0
 20 54  1  0  0  0
 21 55  1  0  0  0
 22 23  1  0  0  0
 22 26  1  0  0  0
 22 56  1  0  0  0
 23 24  1  0  0  0
 23 25  2  0  0  0
 24 29  1  0  0  0
 24 57  1  0  0  0
 26 58  1  0  0  0
 26 59  1  0  0  0
 26 60  1  0  0  0
 27 61  1  0  0  0
 27 62  1  0  0  0
 27 63  1  0  0  0
 29 30  1  0  0  0
 29 64  1  0  0  0
 29 65  1  0  0  0
 30 31  1  0  0  0
 30 32  1  0  0  0
 30 33  1  0  0  0
 31 66  1  0  0  0
 31 67  1  0  0  0
 31 68  1  0  0  0
 32 69  1  0  0  0
 32 70  1  0  0  0
 32 71  1  0  0  0
 33 72  1  0  0  0
 33 73  1  0  0  0
 33 74  1  0  0  0
M  END
> <s_m_entry_id>
26423

> <s_m_entry_name>
dock_pv.247

> <s_m_Source_Path>
/home/csk/Desktop/cluster/DUD-E-result/reni

> <s_m_Source_File>
dock_pv.maegz

> <i_m_Source_File_Index>
247

> <chembl_id>
CHEMBL2387449

> <chembl_pref_name>
None

> <i_lp_mmshare_version>
53161

> <r_lp_tautomer_probability>
1

> <s_lp_Force_Field>
OPLS_2005

> <r_lp_Energy>
78.506386

> <b_lp_Chiralities_Consistent>
1

> <s_lp_Variant>
CHEMBL286_lig2478-1

> <s_i_glide_gridfile>
glide-grid_3g6z

> <i_i_glide_lignum>
6538

> <i_i_glide_rotatable_bonds>
11

> <r_i_docking_score>
-7.00947393785975

> <r_i_glide_ligand_efficiency>
-0.212408301147265

> <r_i_glide_ligand_efficiency_sa>
-0.68130691711188

> <r_i_glide_ligand_efficiency_ln>
-1.55887071066632

> <r_i_glide_gscore>
-7.00947393785975

> <r_i_glide_lipo>
-3.32913847923181

> <r_i_glide_hbond>
-0.32

> <r_i_glide_metal>
0

> <r_i_glide_rewards>
-1.7229928194439

> <r_i_glide_evdw>
-33.793758392334

> <r_i_glide_ecoul>
-5.25465869903564

> <r_i_glide_erotb>
0.840544085288008

> <r_i_glide_esite>
0

> <r_i_glide_emodel>
-50.6618743195537

> <r_i_glide_energy>
-39.0484170913696

> <r_i_glide_einternal>
11.3962087631226

> <i_i_glide_confnum>
32

> <i_i_glide_posenum>
19

> <r_i_glide_eff_state_penalty>
0

> <s_user_duplicate_titles>
CHEMBL286_lig2478

> <i_f3d_flags>
0

> <s_m_subgroup_title>
dock_pv

> <s_m_subgroupid>
dock_pv

> <b_m_subgroup_collapsed>
1

$$$$
CHEMBL286_lig747
                    3D
 Schrodinger Suite 2021-1.
 99101  0  0  1  0            999 V2000
   -9.7843  -17.1407   -8.0629 C   0  0  0  0  0  0
  -10.8289  -16.2810   -8.2775 N   0  0  0  0  0  0
   -8.4667  -17.0023   -8.8979 C   0  0  1  0  0  0
   -5.5049  -15.2405   -9.2350 C   0  0  0  0  0  0
   -4.8757  -14.5823  -10.2280 N   0  0  0  0  0  0
   -3.4328  -14.4476  -10.4783 C   0  0  2  0  0  0
   -2.7884  -15.6284  -11.2706 C   0  0  2  0  0  0
   -7.6972  -15.9477   -8.3055 O   0  0  0  0  0  0
   -2.4283  -16.9481  -10.5048 C   0  0  2  0  0  0
   -7.0343  -15.0082   -9.1660 C   0  0  1  0  0  0
   -7.5616  -18.2589   -8.9708 C   0  0  0  0  0  0
  -12.1269  -16.4636   -7.5766 C   0  0  0  0  0  0
  -10.7457  -15.1329   -9.2029 C   0  0  0  0  0  0
   -9.8672  -18.0409   -7.2213 O   0  0  0  0  0  0
   -2.5736  -13.8572   -9.3233 C   0  0  0  0  0  0
   -4.9178  -15.9288   -8.3996 O   0  0  0  0  0  0
   -1.2214  -16.9747   -9.5105 C   0  0  0  0  0  0
  -11.1136  -13.8514   -8.4242 C   0  0  0  0  0  0
  -12.5224  -15.1503   -6.8639 C   0  0  0  0  0  0
  -12.5140  -13.9455   -7.8079 C   0  0  0  0  0  0
   -1.7045  -15.1124  -12.0210 O   0  0  0  0  0  0
  -13.0778  -11.6042   -7.7628 C   0  0  0  0  0  0
   -2.2546  -17.9963  -11.4469 O   0  0  0  0  0  0
   -7.8853  -19.2606  -10.0684 C   0  0  0  0  0  0
  -12.9002  -12.7946   -7.0555 O   0  0  0  0  0  0
   -3.1539  -12.6376   -8.5732 C   0  0  0  0  0  0
  -11.8699  -10.9864   -8.0892 O   0  0  0  0  0  0
    0.1489  -16.3832   -9.9447 C   0  0  0  0  0  0
   -7.3658  -13.6076   -8.6024 C   0  0  0  0  0  0
   -8.6440  -20.3978   -9.7771 C   0  0  0  0  0  0
   -7.3538  -19.0769  -11.3481 C   0  0  0  0  0  0
  -11.1629  -10.4537   -6.9771 C   0  0  0  0  0  0
   -2.2702  -12.2392   -7.3705 C   0  0  0  0  0  0
   -3.3970  -11.3823   -9.4445 C   0  0  0  0  0  0
    0.8046  -17.1504  -11.1103 C   0  0  0  0  0  0
    1.1140  -16.2838   -8.7493 C   0  0  0  0  0  0
   -6.9056  -13.2850   -7.1723 C   0  0  0  0  0  0
   -7.5459  -20.0484  -12.3261 C   0  0  0  0  0  0
   -8.8353  -21.3685  -10.7594 C   0  0  0  0  0  0
   -2.9628  -11.1660   -6.5070 C   0  0  0  0  0  0
   -4.1210  -10.2920   -8.6243 C   0  0  0  0  0  0
   -3.3431   -9.9321   -7.3416 C   0  0  0  0  0  0
   -8.2706  -21.1991  -12.0205 C   0  0  0  0  0  0
   -8.7508  -16.7590   -9.9217 H   0  0  0  0  0  0
   -5.4625  -14.1005  -10.8933 H   0  0  0  0  0  0
   -3.4606  -13.6391  -11.2110 H   0  0  0  0  0  0
   -3.5310  -15.9195  -12.0202 H   0  0  0  0  0  0
   -3.3088  -17.2363   -9.9335 H   0  0  0  0  0  0
   -7.4264  -15.0526  -10.1839 H   0  0  0  0  0  0
   -6.5309  -17.9504   -9.1398 H   0  0  0  0  0  0
   -7.5203  -18.7775   -8.0211 H   0  0  0  0  0  0
  -12.8849  -16.7255   -8.3180 H   0  0  0  0  0  0
  -12.0811  -17.2480   -6.8210 H   0  0  0  0  0  0
   -9.7555  -14.9827   -9.6206 H   0  0  0  0  0  0
  -11.4548  -15.2913  -10.0180 H   0  0  0  0  0  0
   -1.5756  -13.6154   -9.6922 H   0  0  0  0  0  0
   -2.4482  -14.6280   -8.5703 H   0  0  0  0  0  0
   -1.5293  -16.5033   -8.5816 H   0  0  0  0  0  0
   -1.0590  -18.0094   -9.1995 H   0  0  0  0  0  0
  -10.3860  -13.6631   -7.6376 H   0  0  0  0  0  0
  -11.0534  -13.0226   -9.1204 H   0  0  0  0  0  0
  -13.5220  -15.2633   -6.4452 H   0  0  0  0  0  0
  -11.8291  -14.9904   -6.0367 H   0  0  0  0  0  0
  -13.2548  -14.1119   -8.5943 H   0  0  0  0  0  0
   -2.0674  -14.5511  -12.7145 H   0  0  0  0  0  0
  -13.6443  -11.7972   -8.6754 H   0  0  0  0  0  0
  -13.6719  -10.9194   -7.1548 H   0  0  0  0  0  0
   -2.0422  -18.8038  -10.9725 H   0  0  0  0  0  0
   -4.1100  -12.9445   -8.1728 H   0  0  0  0  0  0
   -0.0022  -15.3551  -10.2688 H   0  0  0  0  0  0
   -6.9395  -12.8630   -9.2568 H   0  0  0  0  0  0
   -8.4359  -13.4458   -8.6703 H   0  0  0  0  0  0
   -9.0632  -20.5395   -8.7927 H   0  0  0  0  0  0
   -6.7682  -18.1984  -11.5779 H   0  0  0  0  0  0
  -10.2188  -10.0261   -7.3178 H   0  0  0  0  0  0
  -11.7325   -9.6601   -6.4899 H   0  0  0  0  0  0
  -10.9345  -11.2237   -6.2382 H   0  0  0  0  0  0
   -1.2841  -11.9165   -7.7099 H   0  0  0  0  0  0
   -2.0783  -13.1167   -6.7533 H   0  0  0  0  0  0
   -4.0104  -11.6360  -10.3092 H   0  0  0  0  0  0
   -2.4578  -11.0182   -9.8638 H   0  0  0  0  0  0
    0.9961  -18.1912  -10.8442 H   0  0  0  0  0  0
    0.1774  -17.1459  -12.0010 H   0  0  0  0  0  0
    1.7546  -16.6969  -11.3943 H   0  0  0  0  0  0
    1.3440  -17.2625   -8.3305 H   0  0  0  0  0  0
    2.0573  -15.8204   -9.0386 H   0  0  0  0  0  0
    0.6898  -15.6753   -7.9500 H   0  0  0  0  0  0
   -7.4369  -12.4115   -6.7978 H   0  0  0  0  0  0
   -7.0687  -14.1192   -6.4960 H   0  0  0  0  0  0
   -5.8490  -13.0560   -7.1046 H   0  0  0  0  0  0
   -7.1347  -19.9095  -13.3160 H   0  0  0  0  0  0
   -9.4085  -22.2548  -10.5357 H   0  0  0  0  0  0
   -2.3154  -10.8634   -5.6817 H   0  0  0  0  0  0
   -3.8687  -11.5768   -6.0539 H   0  0  0  0  0  0
   -4.2694   -9.3905   -9.2210 H   0  0  0  0  0  0
   -5.1185  -10.6407   -8.3550 H   0  0  0  0  0  0
   -2.4376   -9.3888   -7.6057 H   0  0  0  0  0  0
   -3.9367   -9.2630   -6.7253 H   0  0  0  0  0  0
   -8.4162  -21.9506  -12.7838 H   0  0  0  0  0  0
  1  2  1  0  0  0
  1  3  1  0  0  0
  1 14  2  0  0  0
  2 12  1  0  0  0
  2 13  1  0  0  0
  3  8  1  0  0  0
  3 11  1  0  0  0
  3 44  1  0  0  0
  4 10  1  0  0  0
  4  5  1  0  0  0
  4 16  2  0  0  0
  5  6  1  0  0  0
  5 45  1  0  0  0
  6  7  1  0  0  0
  6 15  1  0  0  0
  6 46  1  0  0  0
  7  9  1  0  0  0
  7 21  1  0  0  0
  7 47  1  0  0  0
  8 10  1  0  0  0
  9 17  1  0  0  0
  9 23  1  0  0  0
  9 48  1  0  0  0
 10 29  1  0  0  0
 10 49  1  0  0  0
 11 24  1  0  0  0
 11 50  1  0  0  0
 11 51  1  0  0  0
 12 19  1  0  0  0
 12 52  1  0  0  0
 12 53  1  0  0  0
 13 18  1  0  0  0
 13 54  1  0  0  0
 13 55  1  0  0  0
 15 26  1  0  0  0
 15 56  1  0  0  0
 15 57  1  0  0  0
 17 28  1  0  0  0
 17 58  1  0  0  0
 17 59  1  0  0  0
 18 20  1  0  0  0
 18 60  1  0  0  0
 18 61  1  0  0  0
 19 20  1  0  0  0
 19 62  1  0  0  0
 19 63  1  0  0  0
 20 25  1  0  0  0
 20 64  1  0  0  0
 21 65  1  0  0  0
 22 25  1  0  0  0
 22 27  1  0  0  0
 22 66  1  0  0  0
 22 67  1  0  0  0
 23 68  1  0  0  0
 24 30  2  0  0  0
 24 31  1  0  0  0
 26 33  1  0  0  0
 26 34  1  0  0  0
 26 69  1  0  0  0
 27 32  1  0  0  0
 28 35  1  0  0  0
 28 36  1  0  0  0
 28 70  1  0  0  0
 29 37  1  0  0  0
 29 71  1  0  0  0
 29 72  1  0  0  0
 30 39  1  0  0  0
 30 73  1  0  0  0
 31 38  2  0  0  0
 31 74  1  0  0  0
 32 75  1  0  0  0
 32 76  1  0  0  0
 32 77  1  0  0  0
 33 40  1  0  0  0
 33 78  1  0  0  0
 33 79  1  0  0  0
 34 41  1  0  0  0
 34 80  1  0  0  0
 34 81  1  0  0  0
 35 82  1  0  0  0
 35 83  1  0  0  0
 35 84  1  0  0  0
 36 85  1  0  0  0
 36 86  1  0  0  0
 36 87  1  0  0  0
 37 88  1  0  0  0
 37 89  1  0  0  0
 37 90  1  0  0  0
 38 43  1  0  0  0
 38 91  1  0  0  0
 39 43  2  0  0  0
 39 92  1  0  0  0
 40 42  1  0  0  0
 40 93  1  0  0  0
 40 94  1  0  0  0
 41 42  1  0  0  0
 41 95  1  0  0  0
 41 96  1  0  0  0
 42 97  1  0  0  0
 42 98  1  0  0  0
 43 99  1  0  0  0
M  END
> <s_m_entry_id>
26424

> <s_m_entry_name>
dock_pv.248

> <s_m_Source_Path>
/home/csk/Desktop/cluster/DUD-E-result/reni

> <s_m_Source_File>
dock_pv.maegz

> <i_m_Source_File_Index>
248

> <chembl_id>
CHEMBL49864

> <chembl_pref_name>
None

> <i_lp_mmshare_version>
53161

> <r_lp_tautomer_probability>
1

> <s_lp_Force_Field>
OPLS_2005

> <r_lp_Energy>
48.17531

> <b_lp_Chiralities_Consistent>
1

> <s_lp_Variant>
CHEMBL286_lig747-1

> <s_i_glide_gridfile>
glide-grid_3g6z

> <i_i_glide_lignum>
2162

> <i_i_glide_rotatable_bonds>
21

> <r_i_docking_score>
-7.00363852686963

> <r_i_glide_ligand_efficiency>
-0.162875314578364

> <r_i_glide_ligand_efficiency_sa>
-0.570617060463315

> <r_i_glide_ligand_efficiency_ln>
-1.47098176020468

> <r_i_glide_gscore>
-7.00363852686963

> <r_i_glide_lipo>
-3.63645036032035

> <r_i_glide_hbond>
0

> <r_i_glide_metal>
0

> <r_i_glide_rewards>
-1.30189405582326

> <r_i_glide_evdw>
-44.0242080688477

> <r_i_glide_ecoul>
-3.65482401847839

> <r_i_glide_erotb>
0.684139895488118

> <r_i_glide_esite>
0

> <r_i_glide_emodel>
-58.7156617423182

> <r_i_glide_energy>
-47.679032087326

> <r_i_glide_einternal>
16.9251270294189

> <i_i_glide_confnum>
13

> <i_i_glide_posenum>
115

> <r_i_glide_eff_state_penalty>
0

> <s_user_duplicate_titles>
CHEMBL286_lig747

> <i_f3d_flags>
0

> <s_m_subgroup_title>
dock_pv

> <s_m_subgroupid>
dock_pv

> <b_m_subgroup_collapsed>
1

$$$$
CHEMBL286_lig1421
                    3D
 Schrodinger Suite 2021-1.
104106  0  0  1  0            999 V2000
   -8.1919  -17.0460  -11.1262 C   0  0  0  0  0  0
  -11.4502  -16.1755   -8.6042 C   0  0  0  0  0  0
   -5.7973  -17.6028  -10.5553 N   0  0  0  0  0  0
   -4.5511  -17.3075  -10.1280 C   0  0  0  0  0  0
   -8.6633  -17.6604  -10.0372 N   0  0  0  0  0  0
  -10.0924  -17.9861   -9.9144 C   0  0  2  0  0  0
   -1.1420  -18.4891  -10.9778 C   0  0  0  0  0  0
  -11.8678  -15.9211   -6.4211 N   0  0  0  0  0  0
   -6.7041  -16.5897  -11.1228 C   0  0  1  0  0  0
  -11.2252  -16.6925   -7.3534 C   0  0  0  0  0  0
   -2.1429  -17.8937  -10.2183 N   0  0  0  0  0  0
   -3.5080  -18.4620  -10.1281 C   0  0  1  0  0  0
  -10.5427  -19.2115  -10.8029 C   0  0  2  0  0  0
  -11.0071  -16.7087   -9.9460 C   0  0  0  0  0  0
  -12.1903  -14.9594   -8.3841 C   0  0  0  0  0  0
  -12.0980  -19.4104  -10.9408 C   0  0  2  0  0  0
  -12.4576  -14.8443   -7.0021 C   0  0  0  0  0  0
    0.0086  -17.7680  -10.8353 O   0  0  0  0  0  0
   -8.9703  -16.7780  -12.0414 O   0  0  0  0  0  0
   -1.2825  -19.4942  -11.6809 O   0  0  0  0  0  0
   -4.2076  -16.1733   -9.7862 O   0  0  0  0  0  0
   -3.6974  -19.3226   -8.8534 C   0  0  0  0  0  0
  -12.7485  -20.8145  -10.8202 C   0  0  0  0  0  0
    1.2655  -17.9523  -11.5344 C   0  0  0  0  0  0
   -6.1761  -16.1319  -12.5229 C   0  0  2  0  0  0
   -9.9008  -20.3523  -10.2058 O   0  0  0  0  0  0
  -12.6673  -18.7024  -12.0205 O   0  0  0  0  0  0
   -2.8058  -20.5893   -8.7516 C   0  0  0  0  0  0
  -12.6688  -13.9528   -9.2218 C   0  0  0  0  0  0
  -12.8622  -21.8506  -11.9652 C   0  0  0  0  0  0
  -13.1918  -13.7925   -6.4461 C   0  0  0  0  0  0
    1.3395  -19.0357  -12.6424 C   0  0  0  0  0  0
    2.3565  -18.2313  -10.4887 C   0  0  0  0  0  0
    1.5623  -16.5823  -12.1632 C   0  0  0  0  0  0
   -6.9695  -15.0753  -13.3363 C   0  0  0  0  0  0
   -5.8053  -17.3221  -13.4442 C   0  0  0  0  0  0
   -2.6945  -21.1150   -7.3039 C   0  0  0  0  0  0
   -3.3316  -21.7360   -9.6577 C   0  0  0  0  0  0
  -11.5036  -22.4319  -12.3930 C   0  0  0  0  0  0
  -13.8551  -21.4666  -13.0899 C   0  0  0  0  0  0
   -7.6193  -13.9097  -12.5525 C   0  0  0  0  0  0
  -13.3147  -12.8423   -8.6767 C   0  0  0  0  0  0
  -13.5702  -12.7662   -7.3144 C   0  0  0  0  0  0
   -2.3997  -22.9655   -9.6148 C   0  0  0  0  0  0
   -1.7065  -22.3009   -7.2084 C   0  0  0  0  0  0
   -2.1204  -23.4390   -8.1697 C   0  0  0  0  0  0
   -6.0353  -18.5569  -10.7897 H   0  0  0  0  0  0
   -8.0607  -17.8191   -9.2473 H   0  0  0  0  0  0
  -10.1347  -18.3688   -8.9060 H   0  0  0  0  0  0
  -11.8511  -16.1362   -5.4365 H   0  0  0  0  0  0
   -6.6678  -15.7219  -10.4646 H   0  0  0  0  0  0
  -10.6903  -17.5679   -7.0135 H   0  0  0  0  0  0
   -1.9475  -17.0206   -9.7356 H   0  0  0  0  0  0
   -3.7161  -19.0518  -11.0241 H   0  0  0  0  0  0
  -10.1295  -19.1031  -11.8060 H   0  0  0  0  0  0
  -10.4899  -15.8799  -10.4218 H   0  0  0  0  0  0
  -11.8776  -16.8293  -10.5739 H   0  0  0  0  0  0
  -12.4984  -18.8582  -10.0985 H   0  0  0  0  0  0
   -4.7432  -19.6337   -8.7750 H   0  0  0  0  0  0
   -3.4936  -18.6814   -7.9975 H   0  0  0  0  0  0
  -12.1994  -21.2776  -10.0228 H   0  0  0  0  0  0
  -13.7558  -20.6793  -10.4245 H   0  0  0  0  0  0
   -5.2300  -15.6208  -12.3252 H   0  0  0  0  0  0
  -10.0847  -21.1225  -10.7553 H   0  0  0  0  0  0
  -12.0252  -18.6457  -12.7368 H   0  0  0  0  0  0
   -1.7954  -20.3455   -9.0678 H   0  0  0  0  0  0
  -12.5481  -14.0614  -10.2832 H   0  0  0  0  0  0
  -13.3552  -22.6954  -11.4892 H   0  0  0  0  0  0
  -13.4422  -13.7847   -5.4014 H   0  0  0  0  0  0
    0.5770  -18.8616  -13.4002 H   0  0  0  0  0  0
    2.3122  -19.0339  -13.1384 H   0  0  0  0  0  0
    1.1810  -20.0352  -12.2323 H   0  0  0  0  0  0
    2.2750  -17.5912   -9.6098 H   0  0  0  0  0  0
    2.3206  -19.2623  -10.1543 H   0  0  0  0  0  0
    3.3569  -18.0904  -10.9087 H   0  0  0  0  0  0
    1.6655  -15.8217  -11.3917 H   0  0  0  0  0  0
    2.4835  -16.5851  -12.7456 H   0  0  0  0  0  0
    0.7576  -16.2851  -12.8204 H   0  0  0  0  0  0
   -6.2367  -14.6164  -13.9961 H   0  0  0  0  0  0
   -7.6834  -15.5851  -13.9890 H   0  0  0  0  0  0
   -6.6666  -17.9740  -13.6205 H   0  0  0  0  0  0
   -5.4722  -16.9712  -14.4189 H   0  0  0  0  0  0
   -4.9993  -17.9292  -13.0360 H   0  0  0  0  0  0
   -3.6801  -21.4008   -6.9363 H   0  0  0  0  0  0
   -2.3818  -20.3188   -6.6344 H   0  0  0  0  0  0
   -3.4281  -21.3792  -10.6803 H   0  0  0  0  0  0
   -4.3470  -22.0083   -9.3649 H   0  0  0  0  0  0
  -10.7326  -21.6635  -12.4015 H   0  0  0  0  0  0
  -11.1645  -23.1869  -11.6843 H   0  0  0  0  0  0
  -11.5572  -22.8966  -13.3821 H   0  0  0  0  0  0
  -13.4692  -20.8726  -13.9088 H   0  0  0  0  0  0
  -14.2783  -22.3598  -13.5435 H   0  0  0  0  0  0
  -14.6648  -20.8733  -12.6693 H   0  0  0  0  0  0
   -8.2532  -13.2753  -13.1931 H   0  0  0  0  0  0
   -8.2540  -14.2709  -11.7480 H   0  0  0  0  0  0
   -6.8544  -13.2764  -12.1053 H   0  0  0  0  0  0
  -13.6804  -12.0627   -9.3207 H   0  0  0  0  0  0
  -14.1098  -11.9093   -6.9249 H   0  0  0  0  0  0
   -2.8489  -23.7762  -10.1905 H   0  0  0  0  0  0
   -1.4687  -22.7198  -10.1199 H   0  0  0  0  0  0
   -1.6988  -22.6804   -6.1831 H   0  0  0  0  0  0
   -0.6753  -21.9749   -7.4079 H   0  0  0  0  0  0
   -3.0112  -23.9289   -7.7883 H   0  0  0  0  0  0
   -1.3480  -24.2043   -8.1760 H   0  0  0  0  0  0
  1  5  1  0  0  0
  1  9  1  0  0  0
  1 19  2  0  0  0
  2 14  1  0  0  0
  2 10  2  0  0  0
  2 15  1  0  0  0
  3  9  1  0  0  0
  3  4  1  0  0  0
  3 47  1  0  0  0
  4 12  1  0  0  0
  4 21  2  0  0  0
  5  6  1  0  0  0
  5 48  1  0  0  0
  6 13  1  0  0  0
  6 14  1  0  0  0
  6 49  1  0  0  0
  7 11  1  0  0  0
  7 18  1  0  0  0
  7 20  2  0  0  0
  8 10  1  0  0  0
  8 17  1  0  0  0
  8 50  1  0  0  0
  9 25  1  0  0  0
  9 51  1  0  0  0
 10 52  1  0  0  0
 11 12  1  0  0  0
 11 53  1  0  0  0
 12 22  1  0  0  0
 12 54  1  0  0  0
 13 16  1  0  0  0
 13 26  1  0  0  0
 13 55  1  0  0  0
 14 56  1  0  0  0
 14 57  1  0  0  0
 15 17  2  0  0  0
 15 29  1  0  0  0
 16 23  1  0  0  0
 16 27  1  0  0  0
 16 58  1  0  0  0
 17 31  1  0  0  0
 18 24  1  0  0  0
 22 28  1  0  0  0
 22 59  1  0  0  0
 22 60  1  0  0  0
 23 30  1  0  0  0
 23 61  1  0  0  0
 23 62  1  0  0  0
 24 32  1  0  0  0
 24 33  1  0  0  0
 24 34  1  0  0  0
 25 35  1  0  0  0
 25 36  1  0  0  0
 25 63  1  0  0  0
 26 64  1  0  0  0
 27 65  1  0  0  0
 28 37  1  0  0  0
 28 38  1  0  0  0
 28 66  1  0  0  0
 29 42  2  0  0  0
 29 67  1  0  0  0
 30 39  1  0  0  0
 30 40  1  0  0  0
 30 68  1  0  0  0
 31 43  2  0  0  0
 31 69  1  0  0  0
 32 70  1  0  0  0
 32 71  1  0  0  0
 32 72  1  0  0  0
 33 73  1  0  0  0
 33 74  1  0  0  0
 33 75  1  0  0  0
 34 76  1  0  0  0
 34 77  1  0  0  0
 34 78  1  0  0  0
 35 41  1  0  0  0
 35 79  1  0  0  0
 35 80  1  0  0  0
 36 81  1  0  0  0
 36 82  1  0  0  0
 36 83  1  0  0  0
 37 45  1  0  0  0
 37 84  1  0  0  0
 37 85  1  0  0  0
 38 44  1  0  0  0
 38 86  1  0  0  0
 38 87  1  0  0  0
 39 88  1  0  0  0
 39 89  1  0  0  0
 39 90  1  0  0  0
 40 91  1  0  0  0
 40 92  1  0  0  0
 40 93  1  0  0  0
 41 94  1  0  0  0
 41 95  1  0  0  0
 41 96  1  0  0  0
 42 43  1  0  0  0
 42 97  1  0  0  0
 43 98  1  0  0  0
 44 46  1  0  0  0
 44 99  1  0  0  0
 44100  1  0  0  0
 45 46  1  0  0  0
 45101  1  0  0  0
 45102  1  0  0  0
 46103  1  0  0  0
 46104  1  0  0  0
M  END
> <s_m_entry_id>
26425

> <s_m_entry_name>
dock_pv.249

> <s_m_Source_Path>
/home/csk/Desktop/cluster/DUD-E-result/reni

> <s_m_Source_File>
dock_pv.maegz

> <i_m_Source_File_Index>
249

> <chembl_id>
CHEMBL2112262

> <chembl_pref_name>
None

> <i_lp_mmshare_version>
53161

> <r_lp_tautomer_probability>
1

> <s_lp_Force_Field>
OPLS_2005

> <r_lp_Energy>
33.536873

> <b_lp_Chiralities_Consistent>
1

> <s_lp_Variant>
CHEMBL286_lig1421-1

> <s_i_glide_gridfile>
glide-grid_3g6z

> <i_i_glide_lignum>
4564

> <i_i_glide_rotatable_bonds>
22

> <r_i_docking_score>
-7.00315968200153

> <r_i_glide_ligand_efficiency>
-0.152242601782642

> <r_i_glide_ligand_efficiency_sa>
-0.545492529499059

> <r_i_glide_ligand_efficiency_ln>
-1.45033749805764

> <r_i_glide_gscore>
-7.00315968200153

> <r_i_glide_lipo>
-4.30739480820712

> <r_i_glide_hbond>
-0.509175708146752

> <r_i_glide_metal>
0

> <r_i_glide_rewards>
-0.610953600148263

> <r_i_glide_evdw>
-40.3253021240234

> <r_i_glide_ecoul>
-1.03500378131866

> <r_i_glide_erotb>
0.62293671299192

> <r_i_glide_esite>
-0.0270566050923458

> <r_i_glide_emodel>
-54.930430662535

> <r_i_glide_energy>
-41.3603059053421

> <r_i_glide_einternal>
50.2720680236816

> <i_i_glide_confnum>
1

> <i_i_glide_posenum>
173

> <r_i_glide_eff_state_penalty>
0

> <s_user_duplicate_titles>
CHEMBL286_lig1421

> <i_f3d_flags>
0

> <s_m_subgroup_title>
dock_pv

> <s_m_subgroupid>
dock_pv

> <b_m_subgroup_collapsed>
1

$$$$
CHEMBL286_lig991
                    3D
 Schrodinger Suite 2021-1.
 73 74  0  0  1  0            999 V2000
   -5.8736  -21.5852  -10.7442 C   0  0  0  0  0  0
   -4.3982  -19.6309  -11.5423 C   0  0  0  0  0  0
   -4.6390  -21.1678  -11.5655 C   0  0  1  0  0  0
   -5.4954  -18.7614  -12.2185 C   0  0  1  0  0  0
  -10.8832  -13.4935   -8.3773 C   0  0  0  0  0  0
   -5.4274  -17.2404  -11.8502 C   0  0  2  0  0  0
   -6.4205  -16.3886  -12.6836 C   0  0  0  0  0  0
   -6.1746  -20.9617   -9.7256 O   0  0  0  0  0  0
   -6.7570  -14.8944  -12.3349 C   0  0  0  0  0  0
   -9.8933  -14.4400   -8.8210 C   0  0  0  0  0  0
   -6.5713  -22.6464  -11.1869 N   0  0  0  0  0  0
  -12.2464  -13.9214   -8.2611 C   0  0  0  0  0  0
   -4.0704  -16.7415  -12.0164 N   0  0  0  0  0  0
   -5.4483  -18.9953  -13.6216 O   0  0  0  0  0  0
   -7.4694  -14.8833   -9.7606 C   0  0  0  0  0  0
  -11.6120  -16.1510   -8.9951 C   0  0  0  0  0  0
   -7.8505  -14.7361  -11.2477 C   0  0  0  0  0  0
   -8.4057  -14.0392   -8.8617 C   0  0  0  0  0  0
  -10.2898  -15.7484   -9.1228 C   0  0  0  0  0  0
  -10.5858  -12.1446   -8.0181 C   0  0  0  0  0  0
   -3.3869  -21.9260  -11.0713 C   0  0  0  0  0  0
  -12.5831  -15.2601   -8.5608 C   0  0  0  0  0  0
   -5.5373  -14.0045  -11.9778 C   0  0  0  0  0  0
   -7.3811  -14.3172  -13.6231 C   0  0  0  0  0  0
   -7.7632  -23.1879  -10.5325 C   0  0  0  0  0  0
  -13.2387  -13.0048   -7.8324 C   0  0  0  0  0  0
   -7.4755  -23.8671   -9.1687 C   0  0  0  0  0  0
   -8.4164  -23.4363   -8.0240 C   0  0  0  0  0  0
  -11.5866  -11.2673   -7.6133 C   0  0  0  0  0  0
   -8.2683  -21.9510   -7.6389 C   0  0  0  0  0  0
  -12.9038  -11.6928   -7.5256 C   0  0  0  0  0  0
   -4.2694  -19.3061  -10.5070 H   0  0  0  0  0  0
   -3.4446  -19.4206  -12.0278 H   0  0  0  0  0  0
   -4.8075  -21.4597  -12.6045 H   0  0  0  0  0  0
   -6.4765  -19.1093  -11.8912 H   0  0  0  0  0  0
   -5.6722  -17.1382  -10.7919 H   0  0  0  0  0  0
   -6.0929  -16.4532  -13.7230 H   0  0  0  0  0  0
   -7.3686  -16.9299  -12.6803 H   0  0  0  0  0  0
   -6.2791  -23.0908  -12.0440 H   0  0  0  0  0  0
   -3.3997  -17.4822  -11.8682 H   0  0  0  0  0  0
   -3.9346  -16.3936  -12.9627 H   0  0  0  0  0  0
   -6.1472  -18.4829  -14.0535 H   0  0  0  0  0  0
   -7.4471  -15.9315   -9.4627 H   0  0  0  0  0  0
   -6.4584  -14.5213   -9.5846 H   0  0  0  0  0  0
  -11.8855  -17.1704   -9.2247 H   0  0  0  0  0  0
   -8.2690  -13.7367  -11.3710 H   0  0  0  0  0  0
   -8.6693  -15.4193  -11.4634 H   0  0  0  0  0  0
   -8.0054  -14.0466   -7.8485 H   0  0  0  0  0  0
   -8.3156  -13.0099   -9.2103 H   0  0  0  0  0  0
   -9.5684  -16.4847   -9.4419 H   0  0  0  0  0  0
   -9.5710  -11.7816   -8.0238 H   0  0  0  0  0  0
   -3.5227  -23.0067  -11.1253 H   0  0  0  0  0  0
   -2.5137  -21.6853  -11.6780 H   0  0  0  0  0  0
   -3.1469  -21.6789  -10.0357 H   0  0  0  0  0  0
  -13.6046  -15.5913   -8.4452 H   0  0  0  0  0  0
   -5.8530  -13.0125  -11.6512 H   0  0  0  0  0  0
   -4.9319  -14.4236  -11.1743 H   0  0  0  0  0  0
   -4.8756  -13.8417  -12.8202 H   0  0  0  0  0  0
   -7.6372  -13.2624  -13.5273 H   0  0  0  0  0  0
   -6.6722  -14.4145  -14.4362 H   0  0  0  0  0  0
   -8.2895  -14.8476  -13.9144 H   0  0  0  0  0  0
   -8.1821  -23.9254  -11.2174 H   0  0  0  0  0  0
   -8.5095  -22.3962  -10.4503 H   0  0  0  0  0  0
  -14.2631  -13.3297   -7.7373 H   0  0  0  0  0  0
   -6.4463  -23.6913   -8.8530 H   0  0  0  0  0  0
   -7.5438  -24.9484   -9.2950 H   0  0  0  0  0  0
   -8.2053  -24.0461   -7.1439 H   0  0  0  0  0  0
   -9.4489  -23.6627   -8.2964 H   0  0  0  0  0  0
  -11.3378  -10.2480   -7.3556 H   0  0  0  0  0  0
   -8.9278  -21.6644   -6.8218 H   0  0  0  0  0  0
   -8.5104  -21.2884   -8.4685 H   0  0  0  0  0  0
   -7.2478  -21.7319   -7.3257 H   0  0  0  0  0  0
  -13.6672  -10.9978   -7.2053 H   0  0  0  0  0  0
  1  3  1  0  0  0
  1  8  2  0  0  0
  1 11  1  0  0  0
  2  3  1  0  0  0
  2  4  1  0  0  0
  2 32  1  0  0  0
  2 33  1  0  0  0
  3 21  1  0  0  0
  3 34  1  0  0  0
  4  6  1  0  0  0
  4 14  1  0  0  0
  4 35  1  0  0  0
  5 10  2  0  0  0
  5 12  1  0  0  0
  5 20  1  0  0  0
  6  7  1  0  0  0
  6 13  1  0  0  0
  6 36  1  0  0  0
  7  9  1  0  0  0
  7 37  1  0  0  0
  7 38  1  0  0  0
  9 17  1  0  0  0
  9 23  1  0  0  0
  9 24  1  0  0  0
 10 18  1  0  0  0
 10 19  1  0  0  0
 11 25  1  0  0  0
 11 39  1  0  0  0
 12 26  1  0  0  0
 12 22  2  0  0  0
 13 40  1  0  0  0
 13 41  1  0  0  0
 14 42  1  0  0  0
 15 17  1  0  0  0
 15 18  1  0  0  0
 15 43  1  0  0  0
 15 44  1  0  0  0
 16 19  2  0  0  0
 16 22  1  0  0  0
 16 45  1  0  0  0
 17 46  1  0  0  0
 17 47  1  0  0  0
 18 48  1  0  0  0
 18 49  1  0  0  0
 19 50  1  0  0  0
 20 29  2  0  0  0
 20 51  1  0  0  0
 21 52  1  0  0  0
 21 53  1  0  0  0
 21 54  1  0  0  0
 22 55  1  0  0  0
 23 56  1  0  0  0
 23 57  1  0  0  0
 23 58  1  0  0  0
 24 59  1  0  0  0
 24 60  1  0  0  0
 24 61  1  0  0  0
 25 27  1  0  0  0
 25 62  1  0  0  0
 25 63  1  0  0  0
 26 31  2  0  0  0
 26 64  1  0  0  0
 27 28  1  0  0  0
 27 65  1  0  0  0
 27 66  1  0  0  0
 28 30  1  0  0  0
 28 67  1  0  0  0
 28 68  1  0  0  0
 29 31  1  0  0  0
 29 69  1  0  0  0
 30 70  1  0  0  0
 30 71  1  0  0  0
 30 72  1  0  0  0
 31 73  1  0  0  0
M  END
> <s_m_entry_id>
26426

> <s_m_entry_name>
dock_pv.250

> <s_m_Source_Path>
/home/csk/Desktop/cluster/DUD-E-result/reni

> <s_m_Source_File>
dock_pv.maegz

> <i_m_Source_File_Index>
250

> <chembl_id>
CHEMBL42373

> <chembl_pref_name>
None

> <i_lp_mmshare_version>
53161

> <r_lp_tautomer_probability>
1

> <s_lp_Force_Field>
OPLS_2005

> <r_lp_Energy>
30.386968

> <b_lp_Chiralities_Consistent>
1

> <s_lp_Variant>
CHEMBL286_lig991-1

> <s_i_glide_gridfile>
glide-grid_3g6z

> <i_i_glide_lignum>
2625

> <i_i_glide_rotatable_bonds>
15

> <r_i_docking_score>
-7.00210588901459

> <r_i_glide_ligand_efficiency>
-0.2258743835166

> <r_i_glide_ligand_efficiency_sa>
-0.709557417437676

> <r_i_glide_ligand_efficiency_ln>
-1.57918946674715

> <r_i_glide_gscore>
-7.00210588901459

> <r_i_glide_lipo>
-3.55739494529885

> <r_i_glide_hbond>
-0.608

> <r_i_glide_metal>
0

> <r_i_glide_rewards>
-1.40021876919297

> <r_i_glide_evdw>
-35.4081954956055

> <r_i_glide_ecoul>
-6.49738025665283

> <r_i_glide_erotb>
1.30852463875542

> <r_i_glide_esite>
0

> <r_i_glide_emodel>
-50.6333721970407

> <r_i_glide_energy>
-41.9055757522583

> <r_i_glide_einternal>
17.6269416809082

> <i_i_glide_confnum>
182

> <i_i_glide_posenum>
374

> <r_i_glide_eff_state_penalty>
0

> <s_user_duplicate_titles>
CHEMBL286_lig991

> <i_f3d_flags>
0

> <s_m_subgroup_title>
dock_pv

> <s_m_subgroupid>
dock_pv

> <b_m_subgroup_collapsed>
1

$$$$
CHEMBL286_lig2468
                    3D
 Schrodinger Suite 2021-1.
 71 73  0  0  1  0            999 V2000
   -6.1720  -14.6408   -9.4087 C   0  0  0  0  0  0
   -6.8976  -15.4048  -10.5509 C   0  0  0  0  0  0
   -6.5729  -14.7689  -11.9221 C   0  0  0  0  0  0
  -12.6690  -15.9132   -8.3591 C   0  0  0  0  0  0
  -12.8886  -14.5935   -7.9782 C   0  0  0  0  0  0
  -11.8454  -13.6750   -8.0224 C   0  0  0  0  0  0
  -10.5714  -14.0665   -8.4400 C   0  0  0  0  0  0
  -10.3322  -15.4107   -8.8275 C   0  0  0  0  0  0
  -11.4083  -16.3141   -8.7908 C   0  0  0  0  0  0
   -9.0376  -15.8786   -9.2172 N   0  0  0  0  0  0
   -8.4307  -15.2374  -10.4065 C   0  0  0  0  0  0
   -6.6830  -16.8655  -10.5055 N   0  0  2  0  0  0
   -7.1074  -17.4802   -9.2299 C   0  0  0  0  0  0
   -8.4982  -17.0300   -8.6975 C   0  0  0  0  0  0
   -9.0144  -17.6591   -7.7679 O   0  0  0  0  0  0
   -5.3276  -17.3393  -10.8839 C   0  0  0  0  0  0
   -5.2480  -18.1624  -12.2121 C   0  0  1  0  0  0
   -6.1839  -19.4042  -12.3239 C   0  0  2  0  0  0
   -5.4690  -17.2630  -13.3335 N   0  0  0  0  0  0
   -5.8355  -20.5173  -11.2993 C   0  0  0  0  0  0
   -6.0509  -19.9888  -13.6198 O   0  0  0  0  0  0
   -6.6935  -21.8244  -11.3601 C   0  0  2  0  0  0
   -8.2061  -21.5710  -11.1365 C   0  0  0  0  0  0
   -9.0465  -22.2838  -11.9211 N   0  0  0  0  0  0
   -8.5622  -20.7817  -10.2613 O   0  0  0  0  0  0
   -6.1650  -22.9597  -10.4197 C   0  0  0  0  0  0
   -9.3233  -12.8642   -8.3926 Cl  0  0  0  0  0  0
   -6.1292  -22.5911   -8.9189 C   0  0  0  0  0  0
   -4.7956  -23.5131  -10.8690 C   0  0  0  0  0  0
  -10.4516  -22.3275  -11.9338 C   0  0  0  0  0  0
  -10.9628  -23.2237  -12.8201 N   0  0  0  0  0  0
  -12.3107  -23.3290  -12.9381 C   0  0  0  0  0  0
  -13.1980  -22.5578  -12.1880 C   0  0  0  0  0  0
  -12.6727  -21.6515  -11.2647 C   0  0  0  0  0  0
  -11.2886  -21.5259  -11.1340 C   0  0  0  0  0  0
   -6.3042  -13.5633   -9.5079 H   0  0  0  0  0  0
   -6.5254  -14.9162   -8.4162 H   0  0  0  0  0  0
   -5.0988  -14.8323   -9.4229 H   0  0  0  0  0  0
   -6.8501  -13.7151  -11.9585 H   0  0  0  0  0  0
   -5.5106  -14.8179  -12.1581 H   0  0  0  0  0  0
   -7.1058  -15.2671  -12.7345 H   0  0  0  0  0  0
  -13.4765  -16.6287   -8.3309 H   0  0  0  0  0  0
  -13.8682  -14.2844   -7.6417 H   0  0  0  0  0  0
  -12.0224  -12.6543   -7.7197 H   0  0  0  0  0  0
  -11.2699  -17.3440   -9.0891 H   0  0  0  0  0  0
   -8.9301  -15.6639  -11.2784 H   0  0  0  0  0  0
   -8.6687  -14.1778  -10.4422 H   0  0  0  0  0  0
   -7.1489  -18.5640   -9.3283 H   0  0  0  0  0  0
   -6.3839  -17.2630   -8.4437 H   0  0  0  0  0  0
   -4.8977  -17.9542  -10.0911 H   0  0  0  0  0  0
   -4.6409  -16.4966  -10.9696 H   0  0  0  0  0  0
   -4.2212  -18.5168  -12.3114 H   0  0  0  0  0  0
   -7.2215  -19.0858  -12.1961 H   0  0  0  0  0  0
   -4.6758  -16.6629  -13.5055 H   0  0  0  0  0  0
   -5.6644  -17.7793  -14.1853 H   0  0  0  0  0  0
   -5.8861  -20.1080  -10.2941 H   0  0  0  0  0  0
   -4.7879  -20.7785  -11.4470 H   0  0  0  0  0  0
   -6.9388  -20.1661  -13.9566 H   0  0  0  0  0  0
   -6.5954  -22.2116  -12.3761 H   0  0  0  0  0  0
   -8.6206  -22.8755  -12.6184 H   0  0  0  0  0  0
   -6.8526  -23.8034  -10.5113 H   0  0  0  0  0  0
   -5.4293  -21.7801   -8.7158 H   0  0  0  0  0  0
   -7.1088  -22.2814   -8.5506 H   0  0  0  0  0  0
   -5.8195  -23.4440   -8.3125 H   0  0  0  0  0  0
   -3.9950  -22.7859  -10.7290 H   0  0  0  0  0  0
   -4.5243  -24.4035  -10.2990 H   0  0  0  0  0  0
   -4.8067  -23.7964  -11.9230 H   0  0  0  0  0  0
  -12.6773  -24.0500  -13.6569 H   0  0  0  0  0  0
  -14.2653  -22.6606  -12.3165 H   0  0  0  0  0  0
  -13.3320  -21.0455  -10.6642 H   0  0  0  0  0  0
  -10.9033  -20.8093  -10.4278 H   0  0  0  0  0  0
  1  2  1  0  0  0
  1 36  1  0  0  0
  1 37  1  0  0  0
  1 38  1  0  0  0
  2  3  1  0  0  0
  2 11  1  0  0  0
  2 12  1  0  0  0
  3 39  1  0  0  0
  3 40  1  0  0  0
  3 41  1  0  0  0
  4  5  2  0  0  0
  4  9  1  0  0  0
  4 42  1  0  0  0
  5  6  1  0  0  0
  5 43  1  0  0  0
  6  7  2  0  0  0
  6 44  1  0  0  0
  7  8  1  0  0  0
  7 27  1  0  0  0
  8  9  2  0  0  0
  8 10  1  0  0  0
  9 45  1  0  0  0
 10 11  1  0  0  0
 10 14  1  0  0  0
 11 46  1  0  0  0
 11 47  1  0  0  0
 12 13  1  0  0  0
 12 16  1  0  0  0
 13 14  1  0  0  0
 13 48  1  0  0  0
 13 49  1  0  0  0
 14 15  2  0  0  0
 16 17  1  0  0  0
 16 50  1  0  0  0
 16 51  1  0  0  0
 17 18  1  0  0  0
 17 19  1  0  0  0
 17 52  1  0  0  0
 18 20  1  0  0  0
 18 21  1  0  0  0
 18 53  1  0  0  0
 19 54  1  0  0  0
 19 55  1  0  0  0
 20 22  1  0  0  0
 20 56  1  0  0  0
 20 57  1  0  0  0
 21 58  1  0  0  0
 22 23  1  0  0  0
 22 26  1  0  0  0
 22 59  1  0  0  0
 23 24  1  0  0  0
 23 25  2  0  0  0
 24 30  1  0  0  0
 24 60  1  0  0  0
 26 28  1  0  0  0
 26 29  1  0  0  0
 26 61  1  0  0  0
 28 62  1  0  0  0
 28 63  1  0  0  0
 28 64  1  0  0  0
 29 65  1  0  0  0
 29 66  1  0  0  0
 29 67  1  0  0  0
 30 31  2  0  0  0
 30 35  1  0  0  0
 31 32  1  0  0  0
 32 33  2  0  0  0
 32 68  1  0  0  0
 33 34  1  0  0  0
 33 69  1  0  0  0
 34 35  2  0  0  0
 34 70  1  0  0  0
 35 71  1  0  0  0
M  END
> <s_m_entry_id>
26427

> <s_m_entry_name>
dock_pv.251

> <s_m_Source_Path>
/home/csk/Desktop/cluster/DUD-E-result/reni

> <s_m_Source_File>
dock_pv.maegz

> <i_m_Source_File_Index>
251

> <chembl_id>
CHEMBL2387547

> <chembl_pref_name>
None

> <i_lp_mmshare_version>
53161

> <r_lp_tautomer_probability>
1

> <s_lp_Force_Field>
OPLS_2005

> <r_lp_Energy>
83.560998

> <b_lp_Chiralities_Consistent>
1

> <s_lp_Variant>
CHEMBL286_lig2468-1

> <s_i_glide_gridfile>
glide-grid_3g6z

> <i_i_glide_lignum>
6528

> <i_i_glide_rotatable_bonds>
11

> <r_i_docking_score>
-6.99978145874643

> <r_i_glide_ligand_efficiency>
-0.199993755964184

> <r_i_glide_ligand_efficiency_sa>
-0.654192836607225

> <r_i_glide_ligand_efficiency_ln>
-1.53660738197419

> <r_i_glide_gscore>
-6.99978145874643

> <r_i_glide_lipo>
-3.12900652637729

> <r_i_glide_hbond>
-0.471024802922348

> <r_i_glide_metal>
0

> <r_i_glide_rewards>
-0.992827406857968

> <r_i_glide_evdw>
-40.8594665527344

> <r_i_glide_ecoul>
-6.6304497718811

> <r_i_glide_erotb>
0.648453761776161

> <r_i_glide_esite>
-0.0178356909460998

> <r_i_glide_emodel>
-61.3660991842624

> <r_i_glide_energy>
-47.4899163246155

> <r_i_glide_einternal>
10.3222618103027

> <i_i_glide_confnum>
13

> <i_i_glide_posenum>
70

> <r_i_glide_eff_state_penalty>
0

> <s_user_duplicate_titles>
CHEMBL286_lig2468

> <i_f3d_flags>
0

> <s_m_subgroup_title>
dock_pv

> <s_m_subgroupid>
dock_pv

> <b_m_subgroup_collapsed>
1

$$$$
CHEMBL286_lig1320
                    3D
 Schrodinger Suite 2021-1.
 63 67  0  0  1  0            999 V2000
  -12.3808  -14.4278   -8.0736 C   0  0  0  0  0  0
   -7.0001  -19.3008  -11.1657 C   0  0  2  0  0  0
  -11.4485  -15.1362   -8.7588 O   0  0  0  0  0  0
   -8.2204  -18.4999  -10.6675 C   0  0  0  0  0  0
   -4.7135  -20.2310  -12.8197 N   0  0  2  0  0  0
   -4.0570  -13.2196   -8.8338 C   0  0  0  0  0  0
   -5.4754  -17.6956  -10.1212 O   0  0  0  0  0  0
  -13.4693  -14.8960   -7.7288 O   0  0  0  0  0  0
   -5.7002  -18.4727  -11.2990 C   0  0  1  0  0  0
   -3.8476  -14.4116   -9.5689 C   0  0  0  0  0  0
  -11.9707  -13.0180   -7.7758 C   0  0  0  0  0  0
   -5.0984  -13.1754   -7.8580 C   0  0  0  0  0  0
   -8.2951  -18.1415   -9.3160 C   0  0  0  0  0  0
   -9.2893  -18.1880  -11.5129 C   0  0  0  0  0  0
   -5.8843  -14.3305   -7.6365 C   0  0  0  0  0  0
   -4.6393  -15.5382   -9.3394 C   0  0  0  0  0  0
  -11.7145  -16.4842   -9.1296 C   0  0  0  0  0  0
   -4.3677  -16.7977  -10.1556 C   0  0  0  0  0  0
  -10.4670  -17.1545   -9.6775 C   0  0  0  0  0  0
   -5.6436  -15.4931   -8.3661 C   0  0  0  0  0  0
   -9.4079  -17.4642   -8.8231 C   0  0  0  0  0  0
  -10.4068  -17.5145  -11.0225 C   0  0  0  0  0  0
   -4.5059  -19.4104  -11.6205 C   0  0  0  0  0  0
   -5.9606  -21.0016  -12.7818 C   0  0  0  0  0  0
   -7.2060  -20.1456  -12.4469 C   0  0  0  0  0  0
   -3.2553  -12.0723   -9.0433 C   0  0  0  0  0  0
  -12.9085  -12.1531   -7.1926 C   0  0  0  0  0  0
  -10.6688  -12.5491   -8.0197 C   0  0  0  0  0  0
   -5.3121  -11.9736   -7.1364 C   0  0  0  0  0  0
   -3.4775  -10.9157   -8.3011 C   0  0  0  0  0  0
  -10.2997  -11.2641   -7.6211 C   0  0  0  0  0  0
  -12.5429  -10.8633   -6.8217 C   0  0  0  0  0  0
   -4.4992  -10.8637   -7.3573 C   0  0  0  0  0  0
  -11.2370  -10.4267   -7.0249 C   0  0  0  0  0  0
   -6.8093  -19.9990  -10.3472 H   0  0  0  0  0  0
   -3.9340  -20.8703  -12.9164 H   0  0  0  0  0  0
   -5.8355  -17.7554  -12.1122 H   0  0  0  0  0  0
   -3.0627  -14.4393  -10.3125 H   0  0  0  0  0  0
   -7.4892  -18.3940   -8.6439 H   0  0  0  0  0  0
   -9.2731  -18.4659  -12.5552 H   0  0  0  0  0  0
   -6.6666  -14.3089   -6.8933 H   0  0  0  0  0  0
  -12.0643  -17.0562   -8.2659 H   0  0  0  0  0  0
  -12.5159  -16.5150   -9.8714 H   0  0  0  0  0  0
   -3.4855  -17.3066   -9.7586 H   0  0  0  0  0  0
   -4.1269  -16.5006  -11.1809 H   0  0  0  0  0  0
   -6.2490  -16.3657   -8.1732 H   0  0  0  0  0  0
   -9.4571  -17.1977   -7.7767 H   0  0  0  0  0  0
  -11.2228  -17.2855  -11.6910 H   0  0  0  0  0  0
   -3.6046  -18.8221  -11.7858 H   0  0  0  0  0  0
   -4.2961  -20.0534  -10.7646 H   0  0  0  0  0  0
   -6.0941  -21.4680  -13.7578 H   0  0  0  0  0  0
   -5.8563  -21.8162  -12.0623 H   0  0  0  0  0  0
   -8.0405  -20.8341  -12.3013 H   0  0  0  0  0  0
   -7.4474  -19.5311  -13.3153 H   0  0  0  0  0  0
   -2.4632  -12.1002   -9.7764 H   0  0  0  0  0  0
  -13.9239  -12.4777   -7.0007 H   0  0  0  0  0  0
   -9.9218  -13.1829   -8.4726 H   0  0  0  0  0  0
   -6.1080  -11.9242   -6.4106 H   0  0  0  0  0  0
   -2.8442  -10.0597   -8.4616 H   0  0  0  0  0  0
   -9.2900  -10.9148   -7.7785 H   0  0  0  0  0  0
  -13.2731  -10.2019   -6.3767 H   0  0  0  0  0  0
   -4.6587   -9.9584   -6.7868 H   0  0  0  0  0  0
  -10.9570   -9.4254   -6.7364 H   0  0  0  0  0  0
  1  3  1  0  0  0
  1  8  2  0  0  0
  1 11  1  0  0  0
  2  4  1  0  0  0
  2  9  1  0  0  0
  2 25  1  0  0  0
  2 35  1  0  0  0
  3 17  1  0  0  0
  4 14  1  0  0  0
  4 13  2  0  0  0
  5 24  1  0  0  0
  5 23  1  0  0  0
  5 36  1  0  0  0
  6 10  2  0  0  0
  6 26  1  0  0  0
  6 12  1  0  0  0
  7  9  1  0  0  0
  7 18  1  0  0  0
  9 23  1  0  0  0
  9 37  1  0  0  0
 10 16  1  0  0  0
 10 38  1  0  0  0
 11 27  2  0  0  0
 11 28  1  0  0  0
 12 15  2  0  0  0
 12 29  1  0  0  0
 13 21  1  0  0  0
 13 39  1  0  0  0
 14 22  2  0  0  0
 14 40  1  0  0  0
 15 20  1  0  0  0
 15 41  1  0  0  0
 16 18  1  0  0  0
 16 20  2  0  0  0
 17 19  1  0  0  0
 17 42  1  0  0  0
 17 43  1  0  0  0
 18 44  1  0  0  0
 18 45  1  0  0  0
 19 21  2  0  0  0
 19 22  1  0  0  0
 20 46  1  0  0  0
 21 47  1  0  0  0
 22 48  1  0  0  0
 23 49  1  0  0  0
 23 50  1  0  0  0
 24 25  1  0  0  0
 24 51  1  0  0  0
 24 52  1  0  0  0
 25 53  1  0  0  0
 25 54  1  0  0  0
 26 30  2  0  0  0
 26 55  1  0  0  0
 27 32  1  0  0  0
 27 56  1  0  0  0
 28 31  2  0  0  0
 28 57  1  0  0  0
 29 33  2  0  0  0
 29 58  1  0  0  0
 30 33  1  0  0  0
 30 59  1  0  0  0
 31 34  1  0  0  0
 31 60  1  0  0  0
 32 34  2  0  0  0
 32 61  1  0  0  0
 33 62  1  0  0  0
 34 63  1  0  0  0
M  END
> <s_m_entry_id>
26428

> <s_m_entry_name>
dock_pv.252

> <s_m_Source_Path>
/home/csk/Desktop/cluster/DUD-E-result/reni

> <s_m_Source_File>
dock_pv.maegz

> <i_m_Source_File_Index>
252

> <chembl_id>
CHEMBL31252

> <chembl_pref_name>
None

> <i_lp_mmshare_version>
53161

> <r_lp_tautomer_probability>
1

> <s_lp_Force_Field>
OPLS_2005

> <r_lp_Energy>
32.132258

> <b_lp_Chiralities_Consistent>
1

> <s_lp_Variant>
CHEMBL286_lig1320-1

> <s_i_glide_gridfile>
glide-grid_3g6z

> <i_i_glide_lignum>
4313

> <i_i_glide_rotatable_bonds>
8

> <r_i_docking_score>
-6.99927416417492

> <r_i_glide_ligand_efficiency>
-0.205861004828674

> <r_i_glide_ligand_efficiency_sa>
-0.666909739881892

> <r_i_glide_ligand_efficiency_ln>
-1.54633598585664

> <r_i_glide_gscore>
-6.99927416417492

> <r_i_glide_lipo>
-4.08347568300569

> <r_i_glide_hbond>
-0.189928355049111

> <r_i_glide_metal>
0

> <r_i_glide_rewards>
-0.315589718039771

> <r_i_glide_evdw>
-50.5964622497559

> <r_i_glide_ecoul>
-3.79366874694824

> <r_i_glide_erotb>
0.688593016449689

> <r_i_glide_esite>
0

> <r_i_glide_emodel>
-71.6932503567716

> <r_i_glide_energy>
-54.3901309967041

> <r_i_glide_einternal>
9.23096942901611

> <i_i_glide_confnum>
2

> <i_i_glide_posenum>
276

> <r_i_glide_eff_state_penalty>
0

> <s_user_duplicate_titles>
CHEMBL286_lig1320,42012

> <i_f3d_flags>
0

> <s_m_subgroup_title>
dock_pv

> <s_m_subgroupid>
dock_pv

> <b_m_subgroup_collapsed>
1

$$$$
CHEMBL286_lig541
                    3D
 Schrodinger Suite 2021-1.
104104  0  0  1  0            999 V2000
   -3.8798  -12.8489  -10.5397 S   0  0  0  0  0  0
   -3.2049  -14.4588  -10.3170 N   0  0  2  0  0  0
   -3.5039  -15.5152  -11.3337 C   0  0  2  0  0  0
   -4.8946  -16.1594  -11.1581 C   0  0  0  0  0  0
   -7.3787  -17.5199   -9.7212 C   0  0  0  0  0  0
   -7.8800  -17.9833  -10.8834 N   0  0  0  0  0  0
   -5.5308  -15.8532  -10.0259 N   0  0  0  0  0  0
  -10.3870  -17.1253   -9.6562 C   0  0  0  0  0  0
   -9.5434  -10.5039   -7.1192 C   0  0  0  0  0  0
   -2.6765  -12.0636  -11.5626 N   0  0  0  0  0  0
   -9.0214  -18.9140  -11.0124 C   0  0  2  0  0  0
  -11.4468  -16.0474   -9.5035 C   0  0  0  0  0  0
   -5.0952  -12.9953  -11.3458 O   0  0  0  0  0  0
   -3.9032  -12.1718   -9.2371 O   0  0  0  0  0  0
   -6.9202  -16.0532   -9.7256 C   0  0  2  0  0  0
  -10.4207  -18.2197  -10.7738 C   0  0  2  0  0  0
  -11.0714  -10.4604   -8.0146 S   0  0  0  0  0  0
   -2.3571  -16.5189  -11.5234 C   0  0  0  0  0  0
  -11.3170  -15.2854   -8.4112 N   0  0  0  0  0  0
   -5.3600  -16.8549  -12.0644 O   0  0  0  0  0  0
   -7.4779  -18.1038   -8.6477 O   0  0  0  0  0  0
   -8.8984  -20.2458  -10.2284 C   0  0  0  0  0  0
  -12.2690  -15.8154  -10.3646 O   0  0  0  0  0  0
   -9.4874   -9.6604   -6.0218 N   0  0  0  0  0  0
   -8.7228  -11.3292   -7.6210 N   0  0  0  0  0  0
   -2.0949  -17.3894  -10.3236 C   0  0  0  0  0  0
  -12.0968  -14.0889   -8.1148 C   0  0  0  0  0  0
  -10.8349  -17.6648  -12.0098 O   0  0  0  0  0  0
   -7.5714  -21.0246  -10.4120 C   0  0  0  0  0  0
   -1.4898  -11.4845  -10.8646 C   0  0  0  0  0  0
   -2.5243  -12.6827  -12.9015 C   0  0  0  0  0  0
   -7.2437  -15.3044   -8.4109 C   0  0  0  0  0  0
  -12.9633  -14.2073   -6.8424 C   0  0  2  0  0  0
   -7.3184  -11.4635   -7.3085 C   0  0  0  0  0  0
  -10.6029   -8.9082   -5.4617 C   0  0  0  0  0  0
   -2.7887  -18.6083  -10.1920 C   0  0  0  0  0  0
   -1.3154  -16.8986   -9.2597 C   0  0  0  0  0  0
  -14.0247  -15.3368   -6.8967 C   0  0  0  0  0  0
   -7.3110  -13.7658   -8.5766 C   0  0  0  0  0  0
   -6.8398  -12.9371   -7.3529 C   0  0  0  0  0  0
   -7.3745  -21.5491  -11.8484 C   0  0  0  0  0  0
   -7.4566  -22.1643   -9.3868 C   0  0  0  0  0  0
  -13.6232  -12.8450   -6.5523 C   0  0  0  0  0  0
  -13.5232  -16.7864   -6.9495 C   0  0  0  0  0  0
   -2.6605  -19.3422   -9.0274 C   0  0  0  0  0  0
   -1.2079  -17.6430   -8.0980 C   0  0  0  0  0  0
   -1.8686  -18.8599   -7.9900 C   0  0  0  0  0  0
   -2.9966  -14.7552   -9.3642 H   0  0  0  0  0  0
   -3.6281  -14.9775  -12.2446 H   0  0  0  0  0  0
   -7.6778  -17.4414  -11.7145 H   0  0  0  0  0  0
   -5.0433  -15.2683   -9.3641 H   0  0  0  0  0  0
   -9.5932  -16.4361   -9.9048 H   0  0  0  0  0  0
  -10.1590  -17.5702   -8.6887 H   0  0  0  0  0  0
   -8.9833  -19.2047  -12.0652 H   0  0  0  0  0  0
   -7.4865  -15.5673  -10.5216 H   0  0  0  0  0  0
  -11.1699  -18.9694  -10.5079 H   0  0  0  0  0  0
  -11.6247   -9.4398   -7.3550 H   0  0  0  0  0  0
   -2.6137  -17.1865  -12.3444 H   0  0  0  0  0  0
   -1.4420  -15.9971  -11.8118 H   0  0  0  0  0  0
  -10.5745  -15.5115   -7.7763 H   0  0  0  0  0  0
   -9.0474  -20.0338   -9.1653 H   0  0  0  0  0  0
   -9.7281  -20.8980  -10.5102 H   0  0  0  0  0  0
   -8.6318   -9.5899   -5.4841 H   0  0  0  0  0  0
  -12.7412  -13.8196   -8.9577 H   0  0  0  0  0  0
  -11.3935  -13.2639   -8.0051 H   0  0  0  0  0  0
  -10.8333  -18.3259  -12.7093 H   0  0  0  0  0  0
   -6.7523  -20.3417  -10.1943 H   0  0  0  0  0  0
   -0.9057  -10.8604  -11.5372 H   0  0  0  0  0  0
   -1.8255  -10.8497  -10.0350 H   0  0  0  0  0  0
   -0.8605  -12.2712  -10.4464 H   0  0  0  0  0  0
   -1.9260  -12.0801  -13.5735 H   0  0  0  0  0  0
   -2.0045  -13.6237  -12.7911 H   0  0  0  0  0  0
   -3.5152  -12.8582  -13.3313 H   0  0  0  0  0  0
   -8.1954  -15.6556   -8.0199 H   0  0  0  0  0  0
   -6.4913  -15.5575   -7.6609 H   0  0  0  0  0  0
  -12.3000  -14.4032   -5.9976 H   0  0  0  0  0  0
   -7.0311  -10.9377   -6.4211 H   0  0  0  0  0  0
   -6.7446  -10.9634   -8.0774 H   0  0  0  0  0  0
  -10.3082   -8.4701   -4.5062 H   0  0  0  0  0  0
  -10.8955   -8.0924   -6.1280 H   0  0  0  0  0  0
  -11.4689   -9.5477   -5.2798 H   0  0  0  0  0  0
   -3.4197  -18.9662  -10.9953 H   0  0  0  0  0  0
   -0.8167  -15.9459   -9.3558 H   0  0  0  0  0  0
  -14.6731  -15.1721   -7.7420 H   0  0  0  0  0  0
  -14.6581  -15.2643   -6.0173 H   0  0  0  0  0  0
   -6.7192  -13.4485   -9.4291 H   0  0  0  0  0  0
   -8.3341  -13.5029   -8.8451 H   0  0  0  0  0  0
   -7.0706  -13.4421   -6.4251 H   0  0  0  0  0  0
   -5.7524  -12.9279   -7.3561 H   0  0  0  0  0  0
   -8.1785  -22.2272  -12.1398 H   0  0  0  0  0  0
   -7.3456  -20.7373  -12.5778 H   0  0  0  0  0  0
   -6.4278  -22.0858  -11.9392 H   0  0  0  0  0  0
   -8.2562  -22.8884   -9.5150 H   0  0  0  0  0  0
   -6.5119  -22.6955   -9.4907 H   0  0  0  0  0  0
   -7.5039  -21.8005   -8.3592 H   0  0  0  0  0  0
  -14.2963  -12.5302   -7.3485 H   0  0  0  0  0  0
  -14.1906  -12.8638   -5.6218 H   0  0  0  0  0  0
  -12.8809  -12.0590   -6.4376 H   0  0  0  0  0  0
  -14.2273  -17.4889   -6.5041 H   0  0  0  0  0  0
  -12.5691  -16.8777   -6.4304 H   0  0  0  0  0  0
  -13.4065  -17.1289   -7.9762 H   0  0  0  0  0  0
   -3.1859  -20.2810   -8.9373 H   0  0  0  0  0  0
   -0.6110  -17.2668   -7.2811 H   0  0  0  0  0  0
   -1.7743  -19.4374   -7.0864 H   0  0  0  0  0  0
  1  2  1  0  0  0
  1 10  1  0  0  0
  1 13  2  0  0  0
  1 14  2  0  0  0
  2  3  1  0  0  0
  2 48  1  0  0  0
  3  4  1  0  0  0
  3 18  1  0  0  0
  3 49  1  0  0  0
  4  7  1  0  0  0
  4 20  2  0  0  0
  5 15  1  0  0  0
  5  6  1  0  0  0
  5 21  2  0  0  0
  6 11  1  0  0  0
  6 50  1  0  0  0
  7 15  1  0  0  0
  7 51  1  0  0  0
  8 16  1  0  0  0
  8 12  1  0  0  0
  8 52  1  0  0  0
  8 53  1  0  0  0
  9 25  2  0  0  0
  9 17  1  0  0  0
  9 24  1  0  0  0
 10 30  1  0  0  0
 10 31  1  0  0  0
 11 16  1  0  0  0
 11 22  1  0  0  0
 11 54  1  0  0  0
 12 19  1  0  0  0
 12 23  2  0  0  0
 15 32  1  0  0  0
 15 55  1  0  0  0
 16 28  1  0  0  0
 16 56  1  0  0  0
 17 57  1  0  0  0
 18 26  1  0  0  0
 18 58  1  0  0  0
 18 59  1  0  0  0
 19 27  1  0  0  0
 19 60  1  0  0  0
 22 29  1  0  0  0
 22 61  1  0  0  0
 22 62  1  0  0  0
 24 35  1  0  0  0
 24 63  1  0  0  0
 25 34  1  0  0  0
 26 36  2  0  0  0
 26 37  1  0  0  0
 27 33  1  0  0  0
 27 64  1  0  0  0
 27 65  1  0  0  0
 28 66  1  0  0  0
 29 41  1  0  0  0
 29 42  1  0  0  0
 29 67  1  0  0  0
 30 68  1  0  0  0
 30 69  1  0  0  0
 30 70  1  0  0  0
 31 71  1  0  0  0
 31 72  1  0  0  0
 31 73  1  0  0  0
 32 39  1  0  0  0
 32 74  1  0  0  0
 32 75  1  0  0  0
 33 38  1  0  0  0
 33 43  1  0  0  0
 33 76  1  0  0  0
 34 40  1  0  0  0
 34 77  1  0  0  0
 34 78  1  0  0  0
 35 79  1  0  0  0
 35 80  1  0  0  0
 35 81  1  0  0  0
 36 45  1  0  0  0
 36 82  1  0  0  0
 37 46  2  0  0  0
 37 83  1  0  0  0
 38 44  1  0  0  0
 38 84  1  0  0  0
 38 85  1  0  0  0
 39 40  1  0  0  0
 39 86  1  0  0  0
 39 87  1  0  0  0
 40 88  1  0  0  0
 40 89  1  0  0  0
 41 90  1  0  0  0
 41 91  1  0  0  0
 41 92  1  0  0  0
 42 93  1  0  0  0
 42 94  1  0  0  0
 42 95  1  0  0  0
 43 96  1  0  0  0
 43 97  1  0  0  0
 43 98  1  0  0  0
 44 99  1  0  0  0
 44100  1  0  0  0
 44101  1  0  0  0
 45 47  2  0  0  0
 45102  1  0  0  0
 46 47  1  0  0  0
 46103  1  0  0  0
 47104  1  0  0  0
M  END
> <s_m_entry_id>
26429

> <s_m_entry_name>
dock_pv.253

> <s_m_Source_Path>
/home/csk/Desktop/cluster/DUD-E-result/reni

> <s_m_Source_File>
dock_pv.maegz

> <i_m_Source_File_Index>
253

> <chembl_id>
CHEMBL127208

> <chembl_pref_name>
None

> <i_lp_mmshare_version>
53161

> <r_lp_tautomer_probability>
1

> <s_lp_Force_Field>
OPLS_2005

> <r_lp_Energy>
17.497608

> <b_lp_Chiralities_Consistent>
1

> <s_lp_Variant>
CHEMBL286_lig541-1

> <s_i_glide_gridfile>
glide-grid_3g6z

> <i_i_glide_lignum>
1472

> <i_i_glide_rotatable_bonds>
28

> <r_i_docking_score>
-6.9848684242662

> <r_i_glide_ligand_efficiency>
-0.148614221792898

> <r_i_glide_ligand_efficiency_sa>
-0.536322878797419

> <r_i_glide_ligand_efficiency_ln>
-1.4401352284214

> <r_i_glide_gscore>
-6.9848684242662

> <r_i_glide_lipo>
-2.97659785992032

> <r_i_glide_hbond>
-0.31337661991746

> <r_i_glide_metal>
0

> <r_i_glide_rewards>
-1.58250376718707

> <r_i_glide_evdw>
-36.3549728393555

> <r_i_glide_ecoul>
-7.32745218276978

> <r_i_glide_erotb>
0.831342184464782

> <r_i_glide_esite>
-0.026865892322892

> <r_i_glide_emodel>
-48.6304893552244

> <r_i_glide_energy>
-43.6824250221252

> <r_i_glide_einternal>
40.2868232727051

> <i_i_glide_confnum>
7

> <i_i_glide_posenum>
5

> <r_i_glide_eff_state_penalty>
0

> <s_user_duplicate_titles>
CHEMBL286_lig541

> <i_f3d_flags>
0

> <s_m_subgroup_title>
dock_pv

> <s_m_subgroupid>
dock_pv

> <b_m_subgroup_collapsed>
1

$$$$
CHEMBL286_lig2925
                    3D
 Schrodinger Suite 2021-1.
 60 62  0  0  1  0            999 V2000
   -5.4724  -13.6498   -9.6623 N   0  0  0  0  0  0
   -5.6872  -13.2541   -8.2646 C   0  0  1  0  0  0
   -5.5730  -14.5872   -7.4660 C   0  0  0  0  0  0
   -6.4740  -15.7098   -8.0425 C   0  0  0  0  0  0
   -6.5773  -15.7382   -9.4152 N   0  0  0  0  0  0
   -6.1583  -14.7364  -10.2626 C   0  0  0  0  0  0
   -6.3545  -14.7014  -11.5075 N   0  0  0  0  0  0
   -7.0689  -16.4630   -7.2785 O   0  0  0  0  0  0
   -7.2810  -16.9251   -9.9764 C   0  0  0  0  0  0
   -8.8098  -16.9102  -10.0476 C   0  0  0  0  0  0
   -9.4288  -17.7521  -10.9752 C   0  0  0  0  0  0
  -10.8162  -17.8616  -11.0156 C   0  0  0  0  0  0
  -11.5953  -17.1334  -10.1200 C   0  0  0  0  0  0
  -11.0041  -16.2418   -9.2189 C   0  0  0  0  0  0
   -9.6080  -16.1239   -9.2032 C   0  0  0  0  0  0
   -4.5281  -12.2815   -7.8311 C   0  0  0  0  0  0
   -4.6865  -11.7055   -6.4079 C   0  0  0  0  0  0
   -4.2615  -11.1035   -8.7995 C   0  0  0  0  0  0
   -7.1267  -12.7025   -8.0209 C   0  0  0  0  0  0
  -11.8663  -15.4717   -8.2563 C   0  0  0  0  0  0
  -11.6134  -14.1503   -8.1725 N   0  0  0  0  0  0
  -12.7541  -16.0427   -7.6228 O   0  0  0  0  0  0
  -12.3073  -13.1774   -7.3076 C   0  0  1  0  0  0
  -11.6220  -11.7960   -7.2194 C   0  0  0  0  0  0
  -13.8066  -13.0727   -7.6612 C   0  0  0  0  0  0
  -12.2520  -10.7407   -6.5446 C   0  0  0  0  0  0
  -11.6322   -9.5010   -6.4185 C   0  0  0  0  0  0
  -10.3670   -9.2997   -6.9480 C   0  0  0  0  0  0
   -9.7263  -10.3320   -7.6142 C   0  0  0  0  0  0
  -10.3533  -11.5675   -7.7659 C   0  0  0  0  0  0
   -5.3629  -12.8667  -10.2886 H   0  0  0  0  0  0
   -4.5537  -14.9782   -7.4677 H   0  0  0  0  0  0
   -5.8517  -14.4464   -6.4214 H   0  0  0  0  0  0
   -6.8686  -15.4976  -11.8569 H   0  0  0  0  0  0
   -6.8837  -17.1529  -10.9668 H   0  0  0  0  0  0
   -7.0159  -17.8063   -9.3870 H   0  0  0  0  0  0
   -8.8376  -18.3419  -11.6603 H   0  0  0  0  0  0
  -11.2845  -18.5222  -11.7296 H   0  0  0  0  0  0
  -12.6665  -17.2602  -10.1362 H   0  0  0  0  0  0
   -9.1471  -15.4626   -8.4884 H   0  0  0  0  0  0
   -3.6064  -12.8682   -7.8293 H   0  0  0  0  0  0
   -5.4492  -10.9274   -6.3652 H   0  0  0  0  0  0
   -3.7600  -11.2506   -6.0586 H   0  0  0  0  0  0
   -4.9637  -12.4626   -5.6783 H   0  0  0  0  0  0
   -5.0807  -10.3876   -8.7979 H   0  0  0  0  0  0
   -3.3682  -10.5556   -8.5010 H   0  0  0  0  0  0
   -4.0972  -11.4304   -9.8259 H   0  0  0  0  0  0
   -7.2100  -12.1350   -7.0971 H   0  0  0  0  0  0
   -7.4693  -12.0630   -8.8208 H   0  0  0  0  0  0
   -7.8831  -13.4821   -7.9658 H   0  0  0  0  0  0
  -10.8666  -13.7862   -8.7426 H   0  0  0  0  0  0
  -12.2318  -13.5776   -6.2943 H   0  0  0  0  0  0
  -14.3642  -12.4544   -6.9616 H   0  0  0  0  0  0
  -13.9515  -12.6632   -8.6626 H   0  0  0  0  0  0
  -14.2702  -14.0541   -7.6217 H   0  0  0  0  0  0
  -13.2239  -10.8675   -6.0926 H   0  0  0  0  0  0
  -12.1354   -8.6952   -5.9035 H   0  0  0  0  0  0
   -9.8857   -8.3376   -6.8492 H   0  0  0  0  0  0
   -8.7410  -10.1641   -8.0202 H   0  0  0  0  0  0
   -9.8318  -12.3439   -8.2988 H   0  0  0  0  0  0
  1  2  1  0  0  0
  1  6  1  0  0  0
  1 31  1  0  0  0
  2  3  1  0  0  0
  2 16  1  0  0  0
  2 19  1  0  0  0
  3  4  1  0  0  0
  3 32  1  0  0  0
  3 33  1  0  0  0
  4  5  1  0  0  0
  4  8  2  0  0  0
  5  6  1  0  0  0
  5  9  1  0  0  0
  6  7  2  0  0  0
  7 34  1  0  0  0
  9 10  1  0  0  0
  9 35  1  0  0  0
  9 36  1  0  0  0
 10 11  2  0  0  0
 10 15  1  0  0  0
 11 12  1  0  0  0
 11 37  1  0  0  0
 12 13  2  0  0  0
 12 38  1  0  0  0
 13 14  1  0  0  0
 13 39  1  0  0  0
 14 15  2  0  0  0
 14 20  1  0  0  0
 15 40  1  0  0  0
 16 17  1  0  0  0
 16 18  1  0  0  0
 16 41  1  0  0  0
 17 42  1  0  0  0
 17 43  1  0  0  0
 17 44  1  0  0  0
 18 45  1  0  0  0
 18 46  1  0  0  0
 18 47  1  0  0  0
 19 48  1  0  0  0
 19 49  1  0  0  0
 19 50  1  0  0  0
 20 21  1  0  0  0
 20 22  2  0  0  0
 21 23  1  0  0  0
 21 51  1  0  0  0
 23 24  1  0  0  0
 23 25  1  0  0  0
 23 52  1  0  0  0
 24 26  2  0  0  0
 24 30  1  0  0  0
 25 53  1  0  0  0
 25 54  1  0  0  0
 25 55  1  0  0  0
 26 27  1  0  0  0
 26 56  1  0  0  0
 27 28  2  0  0  0
 27 57  1  0  0  0
 28 29  1  0  0  0
 28 58  1  0  0  0
 29 30  2  0  0  0
 29 59  1  0  0  0
 30 60  1  0  0  0
M  END
> <s_m_entry_id>
26430

> <s_m_entry_name>
dock_pv.254

> <s_m_Source_Path>
/home/csk/Desktop/cluster/DUD-E-result/reni

> <s_m_Source_File>
dock_pv.maegz

> <i_m_Source_File_Index>
254

> <chembl_id>
CHEMBL3401349

> <chembl_pref_name>
None

> <i_lp_mmshare_version>
53161

> <r_lp_tautomer_probability>
0.5

> <s_lp_Force_Field>
OPLS_2005

> <r_lp_Energy>
33.734206

> <b_lp_Chiralities_Consistent>
1

> <s_lp_Variant>
CHEMBL286_lig2925-1

> <s_i_glide_gridfile>
glide-grid_3g6z

> <i_i_glide_lignum>
7142

> <i_i_glide_rotatable_bonds>
7

> <r_i_docking_score>
-6.98196565361551

> <r_i_glide_ligand_efficiency>
-0.23273218845385

> <r_i_glide_ligand_efficiency_sa>
-0.723153020325721

> <r_i_glide_ligand_efficiency_ln>
-1.58637867111034

> <r_i_glide_gscore>
-6.98196565361551

> <r_i_glide_lipo>
-4.59219952835882

> <r_i_glide_hbond>
0

> <r_i_glide_metal>
0

> <r_i_glide_rewards>
-1.0075567530485

> <r_i_glide_evdw>
-40.829719543457

> <r_i_glide_ecoul>
0.429063677787781

> <r_i_glide_erotb>
0.594917053296498

> <r_i_glide_esite>
0

> <r_i_glide_emodel>
-51.7843092188179

> <r_i_glide_energy>
-40.4006558656693

> <r_i_glide_einternal>
6.52788019180298

> <i_i_glide_confnum>
28

> <i_i_glide_posenum>
82

> <r_i_glide_eff_state_penalty>
0

> <s_user_duplicate_titles>
CHEMBL286_lig2925

> <i_f3d_flags>
0

> <s_m_subgroup_title>
dock_pv

> <s_m_subgroupid>
dock_pv

> <b_m_subgroup_collapsed>
1

$$$$
CHEMBL286_lig2868
                    3D
 Schrodinger Suite 2021-1.
 84 86  0  0  1  0            999 V2000
   -6.3344  -15.8000   -8.4856 C   0  0  0  0  0  0
   -5.5697  -14.8927   -7.5207 C   0  0  0  0  0  0
   -5.3323  -13.4926   -8.1193 C   0  0  0  0  0  0
   -4.7088  -13.6124   -9.4612 N   0  0  0  0  0  0
   -5.2182  -14.6100  -10.4318 C   0  0  0  0  0  0
   -5.5138  -15.9902   -9.7816 C   0  0  2  0  0  0
   -6.1493  -17.0064  -10.8100 C   0  0  2  0  0  0
   -6.3809  -18.4065  -10.1485 C   0  0  0  0  0  0
   -5.2355  -19.1204   -9.7540 C   0  0  0  0  0  0
   -5.3091  -20.4038   -9.2219 C   0  0  0  0  0  0
   -6.5469  -21.0004   -9.0409 C   0  0  0  0  0  0
   -7.7054  -20.3018   -9.3589 C   0  0  0  0  0  0
   -7.6493  -19.0010   -9.8874 C   0  0  0  0  0  0
   -8.9442  -18.3002  -10.0773 C   0  0  0  0  0  0
   -9.4947  -17.5536   -9.0273 C   0  0  0  0  0  0
  -10.6995  -16.8616   -9.1967 C   0  0  0  0  0  0
  -11.3549  -16.9210  -10.4262 C   0  0  0  0  0  0
  -10.8243  -17.6723  -11.4698 C   0  0  0  0  0  0
   -9.6272  -18.3668  -11.2964 C   0  0  0  0  0  0
  -11.2993  -16.0496   -8.0603 C   0  0  0  0  0  0
  -11.1436  -14.5341   -8.2744 C   0  0  0  0  0  0
   -8.8993  -20.9011   -9.1370 F   0  0  0  0  0  0
   -5.4187  -17.1174  -12.2101 C   0  0  0  0  0  0
   -4.0246  -17.7876  -12.3621 C   0  0  0  0  0  0
   -2.8112  -17.0282  -11.7836 C   0  0  0  0  0  0
   -1.6479  -17.8966  -11.5898 N   0  0  0  0  0  0
   -0.3387  -17.4525  -11.6495 C   0  0  0  0  0  0
    0.0413  -16.3283  -11.9838 O   0  0  0  0  0  0
    0.4745  -18.4633  -11.3061 O   0  0  0  0  0  0
    1.8849  -18.2949  -11.3130 C   0  0  0  0  0  0
   -7.3432  -16.3487  -11.2115 O   0  0  0  0  0  0
   -4.5640  -16.3945   -9.4418 H   0  0  0  0  0  0
   -3.8685  -12.6182   -9.8792 C   0  0  0  0  0  0
   -3.5061  -11.7061   -9.1328 O   0  0  0  0  0  0
   -3.2979  -12.6107  -11.3182 C   0  0  0  0  0  0
   -4.3640  -12.4453  -12.4410 C   0  0  0  0  0  0
   -3.8769  -11.8285  -13.7595 C   0  0  0  0  0  0
   -2.6496  -12.4588  -14.2251 N   0  0  1  0  0  0
   -2.4432  -12.5388  -15.6730 C   0  0  0  0  0  0
   -2.5235  -11.2504  -16.4824 C   0  0  0  0  0  0
   -3.8686  -10.8631  -16.6616 O   0  0  0  0  0  0
   -6.5220  -16.7625   -8.0103 H   0  0  0  0  0  0
   -7.3240  -15.3982   -8.7083 H   0  0  0  0  0  0
   -4.6153  -15.3467   -7.2477 H   0  0  0  0  0  0
   -6.1252  -14.7953   -6.5871 H   0  0  0  0  0  0
   -4.6700  -12.9827   -7.4158 H   0  0  0  0  0  0
   -6.2820  -12.9642   -8.2159 H   0  0  0  0  0  0
   -6.1179  -14.2084  -10.9009 H   0  0  0  0  0  0
   -4.4474  -14.8349  -11.1671 H   0  0  0  0  0  0
   -4.2570  -18.6777   -9.8512 H   0  0  0  0  0  0
   -4.4063  -20.9267   -8.9443 H   0  0  0  0  0  0
   -6.6154  -21.9964   -8.6290 H   0  0  0  0  0  0
   -8.9758  -17.5045   -8.0808 H   0  0  0  0  0  0
  -12.2690  -16.3697  -10.5762 H   0  0  0  0  0  0
  -11.3326  -17.7008  -12.4205 H   0  0  0  0  0  0
   -9.2165  -18.9285  -12.1222 H   0  0  0  0  0  0
  -12.3588  -16.3008   -7.9672 H   0  0  0  0  0  0
  -10.8473  -16.3554   -7.1149 H   0  0  0  0  0  0
  -11.5211  -13.9796   -7.4158 H   0  0  0  0  0  0
  -10.0989  -14.2562   -8.4212 H   0  0  0  0  0  0
  -11.6987  -14.1997   -9.1528 H   0  0  0  0  0  0
   -6.0786  -17.6780  -12.8772 H   0  0  0  0  0  0
   -5.3543  -16.1357  -12.6823 H   0  0  0  0  0  0
   -4.0525  -18.8187  -12.0175 H   0  0  0  0  0  0
   -3.8354  -17.8912  -13.4311 H   0  0  0  0  0  0
   -2.6247  -16.1512  -12.4105 H   0  0  0  0  0  0
   -3.0237  -16.6245  -10.8017 H   0  0  0  0  0  0
   -1.8025  -18.8356  -11.2565 H   0  0  0  0  0  0
    2.3686  -19.2213  -11.0014 H   0  0  0  0  0  0
    2.2462  -18.0412  -12.3115 H   0  0  0  0  0  0
    2.1889  -17.5069  -10.6226 H   0  0  0  0  0  0
   -7.8317  -16.9284  -11.8047 H   0  0  0  0  0  0
   -2.6858  -13.4996  -11.4813 H   0  0  0  0  0  0
   -2.5981  -11.7754  -11.3813 H   0  0  0  0  0  0
   -5.1991  -11.8426  -12.0802 H   0  0  0  0  0  0
   -4.7951  -13.4098  -12.7026 H   0  0  0  0  0  0
   -3.6950  -10.7661  -13.6211 H   0  0  0  0  0  0
   -4.6689  -11.9336  -14.4942 H   0  0  0  0  0  0
   -1.8749  -11.9100  -13.8589 H   0  0  0  0  0  0
   -3.0845  -13.2631  -16.1501 H   0  0  0  0  0  0
   -1.4358  -12.9279  -15.7981 H   0  0  0  0  0  0
   -2.1015  -11.4241  -17.4715 H   0  0  0  0  0  0
   -1.9375  -10.4606  -16.0204 H   0  0  0  0  0  0
   -4.3867  -11.2615  -15.9578 H   0  0  0  0  0  0
  1  2  1  0  0  0
  1  6  1  0  0  0
  1 42  1  0  0  0
  1 43  1  0  0  0
  2  3  1  0  0  0
  2 44  1  0  0  0
  2 45  1  0  0  0
  3  4  1  0  0  0
  3 46  1  0  0  0
  3 47  1  0  0  0
  4  5  1  0  0  0
  4 33  1  0  0  0
  5  6  1  0  0  0
  5 48  1  0  0  0
  5 49  1  0  0  0
  6  7  1  0  0  0
  6 32  1  0  0  0
  7  8  1  0  0  0
  7 23  1  0  0  0
  7 31  1  0  0  0
  8  9  2  0  0  0
  8 13  1  0  0  0
  9 10  1  0  0  0
  9 50  1  0  0  0
 10 11  2  0  0  0
 10 51  1  0  0  0
 11 12  1  0  0  0
 11 52  1  0  0  0
 12 13  2  0  0  0
 12 22  1  0  0  0
 13 14  1  0  0  0
 14 15  2  0  0  0
 14 19  1  0  0  0
 15 16  1  0  0  0
 15 53  1  0  0  0
 16 17  2  0  0  0
 16 20  1  0  0  0
 17 18  1  0  0  0
 17 54  1  0  0  0
 18 19  2  0  0  0
 18 55  1  0  0  0
 19 56  1  0  0  0
 20 21  1  0  0  0
 20 57  1  0  0  0
 20 58  1  0  0  0
 21 59  1  0  0  0
 21 60  1  0  0  0
 21 61  1  0  0  0
 23 24  1  0  0  0
 23 62  1  0  0  0
 23 63  1  0  0  0
 24 25  1  0  0  0
 24 64  1  0  0  0
 24 65  1  0  0  0
 25 26  1  0  0  0
 25 66  1  0  0  0
 25 67  1  0  0  0
 26 27  1  0  0  0
 26 68  1  0  0  0
 27 28  2  0  0  0
 27 29  1  0  0  0
 29 30  1  0  0  0
 30 69  1  0  0  0
 30 70  1  0  0  0
 30 71  1  0  0  0
 31 72  1  0  0  0
 33 34  2  0  0  0
 33 35  1  0  0  0
 35 36  1  0  0  0
 35 73  1  0  0  0
 35 74  1  0  0  0
 36 37  1  0  0  0
 36 75  1  0  0  0
 36 76  1  0  0  0
 37 38  1  0  0  0
 37 77  1  0  0  0
 37 78  1  0  0  0
 38 39  1  0  0  0
 38 79  1  0  0  0
 39 40  1  0  0  0
 39 80  1  0  0  0
 39 81  1  0  0  0
 40 41  1  0  0  0
 40 82  1  0  0  0
 40 83  1  0  0  0
 41 84  1  0  0  0
M  END
> <s_m_entry_id>
26431

> <s_m_entry_name>
dock_pv.255

> <s_m_Source_Path>
/home/csk/Desktop/cluster/DUD-E-result/reni

> <s_m_Source_File>
dock_pv.maegz

> <i_m_Source_File_Index>
255

> <chembl_id>
CHEMBL4202961

> <chembl_pref_name>
None

> <i_lp_mmshare_version>
53161

> <r_lp_tautomer_probability>
1

> <s_lp_Force_Field>
OPLS_2005

> <r_lp_Energy>
48.243351

> <b_lp_Chiralities_Consistent>
1

> <s_lp_Variant>
CHEMBL286_lig2868-2

> <s_i_glide_gridfile>
glide-grid_3g6z

> <i_i_glide_lignum>
7007

> <i_i_glide_rotatable_bonds>
19

> <r_i_docking_score>
-6.9807413415084

> <r_i_glide_ligand_efficiency>
-0.17451853353771

> <r_i_glide_ligand_efficiency_sa>
-0.596844988463653

> <r_i_glide_ligand_efficiency_ln>
-1.48878669409674

> <r_i_glide_gscore>
-6.9807413415084

> <r_i_glide_lipo>
-2.7624513952447

> <r_i_glide_hbond>
-0.864

> <r_i_glide_metal>
0

> <r_i_glide_rewards>
-0.887882444024843

> <r_i_glide_evdw>
-43.7069702148438

> <r_i_glide_ecoul>
-8.03936100006104

> <r_i_glide_erotb>
0.924845158512483

> <r_i_glide_esite>
0

> <r_i_glide_emodel>
-65.8834251746962

> <r_i_glide_energy>
-51.7463312149048

> <r_i_glide_einternal>
15.4043169021606

> <i_i_glide_confnum>
100

> <i_i_glide_posenum>
109

> <r_i_glide_eff_state_penalty>
0

> <s_user_duplicate_titles>
CHEMBL286_lig2868

> <i_f3d_flags>
0

> <s_m_subgroup_title>
dock_pv

> <s_m_subgroupid>
dock_pv

> <b_m_subgroup_collapsed>
1

$$$$
CHEMBL286_lig2916
                    3D
 Schrodinger Suite 2021-1.
 61 65  0  0  1  0            999 V2000
   -6.6632  -21.7837  -12.8225 N   0  0  0  0  0  0
   -7.2560  -22.4709  -11.6795 C   0  0  1  0  0  0
   -6.3903  -22.1352  -10.4184 C   0  0  0  0  0  0
   -5.8766  -20.6762  -10.3169 C   0  0  0  0  0  0
   -5.8455  -19.9684  -11.4981 N   0  0  0  0  0  0
   -6.0984  -20.4814  -12.7522 C   0  0  0  0  0  0
   -5.5096  -20.2403   -9.2214 O   0  0  0  0  0  0
   -5.8718  -19.8708  -13.8340 N   0  0  0  0  0  0
   -8.7609  -22.0860  -11.5139 C   0  0  0  0  0  0
   -9.7704  -22.8446  -12.1379 C   0  0  0  0  0  0
  -10.4731  -20.5768  -10.6182 C   0  0  0  0  0  0
   -9.1467  -20.9592  -10.7752 C   0  0  0  0  0  0
  -11.4614  -21.3566  -11.2235 C   0  0  0  0  0  0
  -11.1223  -22.4989  -12.0021 C   0  0  0  0  0  0
  -12.2744  -23.1230  -12.5599 C   0  0  0  0  0  0
  -13.4457  -22.4660  -12.2378 C   0  0  0  0  0  0
  -13.1990  -21.0685  -11.2215 S   0  0  0  0  0  0
   -7.0838  -23.9942  -11.9309 C   0  0  0  0  0  0
   -5.3727  -18.5617  -11.3489 C   0  0  0  0  0  0
   -6.3848  -17.5820  -10.7568 C   0  0  0  0  0  0
   -7.6700  -17.4642  -11.2966 C   0  0  0  0  0  0
   -8.5678  -16.5335  -10.7749 C   0  0  0  0  0  0
   -8.1837  -15.7017   -9.7233 C   0  0  0  0  0  0
   -6.8923  -15.7938   -9.1785 C   0  0  0  0  0  0
   -6.0096  -16.7557   -9.6927 C   0  0  0  0  0  0
   -6.4306  -14.8746   -8.0757 C   0  0  0  0  0  0
   -6.8832  -13.6088   -8.1393 N   0  0  0  0  0  0
   -5.6280  -15.2594   -7.2226 O   0  0  0  0  0  0
   -6.4012  -12.5017   -7.3011 C   0  0  0  0  0  0
   -5.0110  -11.9354   -7.6254 C   0  0  0  0  0  0
   -4.2325  -12.4200   -8.6884 C   0  0  0  0  0  0
   -2.9727  -11.8830   -8.9347 C   0  0  0  0  0  0
   -2.4839  -10.8631   -8.1241 C   0  0  0  0  0  0
   -3.2505  -10.3628   -7.0751 C   0  0  0  0  0  0
   -4.5132  -10.8973   -6.8289 C   0  0  0  0  0  0
   -7.0838  -22.0109  -13.7142 H   0  0  0  0  0  0
   -5.4767  -22.7302  -10.3956 H   0  0  0  0  0  0
   -6.9280  -22.3788   -9.5005 H   0  0  0  0  0  0
   -5.5676  -18.9168  -13.6962 H   0  0  0  0  0  0
   -9.5223  -23.6933  -12.7520 H   0  0  0  0  0  0
  -10.7242  -19.6911  -10.0531 H   0  0  0  0  0  0
   -8.4214  -20.3197  -10.3024 H   0  0  0  0  0  0
  -12.2322  -24.0067  -13.1832 H   0  0  0  0  0  0
  -14.4482  -22.7291  -12.5468 H   0  0  0  0  0  0
   -7.5639  -24.5871  -11.1512 H   0  0  0  0  0  0
   -7.4929  -24.3053  -12.8916 H   0  0  0  0  0  0
   -6.0332  -24.2877  -11.9595 H   0  0  0  0  0  0
   -5.0357  -18.1355  -12.2930 H   0  0  0  0  0  0
   -4.4702  -18.5528  -10.7327 H   0  0  0  0  0  0
   -7.9766  -18.0839  -12.1297 H   0  0  0  0  0  0
   -9.5597  -16.4503  -11.1963 H   0  0  0  0  0  0
   -8.8942  -14.9794   -9.3451 H   0  0  0  0  0  0
   -5.0129  -16.8441   -9.2845 H   0  0  0  0  0  0
   -7.5066  -13.3706   -8.8959 H   0  0  0  0  0  0
   -6.4139  -12.8108   -6.2509 H   0  0  0  0  0  0
   -7.1203  -11.6839   -7.3794 H   0  0  0  0  0  0
   -4.5849  -13.2135   -9.3291 H   0  0  0  0  0  0
   -2.3727  -12.2606   -9.7508 H   0  0  0  0  0  0
   -1.5039  -10.4514   -8.3168 H   0  0  0  0  0  0
   -2.8716   -9.5655   -6.4530 H   0  0  0  0  0  0
   -5.1043  -10.4982   -6.0206 H   0  0  0  0  0  0
  1  2  1  0  0  0
  1  6  1  0  0  0
  1 36  1  0  0  0
  2  3  1  0  0  0
  2  9  1  0  0  0
  2 18  1  0  0  0
  3  4  1  0  0  0
  3 37  1  0  0  0
  3 38  1  0  0  0
  4  5  1  0  0  0
  4  7  2  0  0  0
  5  6  1  0  0  0
  5 19  1  0  0  0
  6  8  2  0  0  0
  8 39  1  0  0  0
  9 10  2  0  0  0
  9 12  1  0  0  0
 10 14  1  0  0  0
 10 40  1  0  0  0
 11 13  1  0  0  0
 11 12  2  0  0  0
 11 41  1  0  0  0
 12 42  1  0  0  0
 13 14  2  0  0  0
 13 17  1  0  0  0
 14 15  1  0  0  0
 15 16  2  0  0  0
 15 43  1  0  0  0
 16 17  1  0  0  0
 16 44  1  0  0  0
 18 45  1  0  0  0
 18 46  1  0  0  0
 18 47  1  0  0  0
 19 20  1  0  0  0
 19 48  1  0  0  0
 19 49  1  0  0  0
 20 21  2  0  0  0
 20 25  1  0  0  0
 21 22  1  0  0  0
 21 50  1  0  0  0
 22 23  2  0  0  0
 22 51  1  0  0  0
 23 24  1  0  0  0
 23 52  1  0  0  0
 24 25  2  0  0  0
 24 26  1  0  0  0
 25 53  1  0  0  0
 26 27  1  0  0  0
 26 28  2  0  0  0
 27 29  1  0  0  0
 27 54  1  0  0  0
 29 30  1  0  0  0
 29 55  1  0  0  0
 29 56  1  0  0  0
 30 31  2  0  0  0
 30 35  1  0  0  0
 31 32  1  0  0  0
 31 57  1  0  0  0
 32 33  2  0  0  0
 32 58  1  0  0  0
 33 34  1  0  0  0
 33 59  1  0  0  0
 34 35  2  0  0  0
 34 60  1  0  0  0
 35 61  1  0  0  0
M  END
> <s_m_entry_id>
26432

> <s_m_entry_name>
dock_pv.256

> <s_m_Source_Path>
/home/csk/Desktop/cluster/DUD-E-result/reni

> <s_m_Source_File>
dock_pv.maegz

> <i_m_Source_File_Index>
256

> <chembl_id>
CHEMBL3401340

> <chembl_pref_name>
None

> <i_lp_mmshare_version>
53161

> <r_lp_tautomer_probability>
0.5

> <s_lp_Force_Field>
OPLS_2005

> <r_lp_Energy>
30.759727

> <b_lp_Chiralities_Consistent>
1

> <s_lp_Variant>
CHEMBL286_lig2916-1

> <s_i_glide_gridfile>
glide-grid_3g6z

> <i_i_glide_lignum>
7132

> <i_i_glide_rotatable_bonds>
7

> <r_i_docking_score>
-6.97739345275781

> <r_i_glide_ligand_efficiency>
-0.199354098650223

> <r_i_glide_ligand_efficiency_sa>
-0.652100475119943

> <r_i_glide_ligand_efficiency_ln>
-1.53169271778466

> <r_i_glide_gscore>
-6.97739345275781

> <r_i_glide_lipo>
-3.11185671159531

> <r_i_glide_hbond>
-0.574185737086359

> <r_i_glide_metal>
0

> <r_i_glide_rewards>
-0.420995534577496

> <r_i_glide_evdw>
-45.2052383422852

> <r_i_glide_ecoul>
-7.36024618148804

> <r_i_glide_erotb>
0.522833515838385

> <r_i_glide_esite>
-0.0288901409995654

> <r_i_glide_emodel>
-71.4242387500593

> <r_i_glide_energy>
-52.5654845237732

> <r_i_glide_einternal>
4.30728197097778

> <i_i_glide_confnum>
44

> <i_i_glide_posenum>
104

> <r_i_glide_eff_state_penalty>
0

> <s_user_duplicate_titles>
CHEMBL286_lig2916

> <i_f3d_flags>
0

> <s_m_subgroup_title>
dock_pv

> <s_m_subgroupid>
dock_pv

> <b_m_subgroup_collapsed>
1

$$$$
CHEMBL286_lig2435
                    3D
 Schrodinger Suite 2021-1.
 72 75  0  0  1  0            999 V2000
   -7.7610  -20.2253   -9.5319 C   0  0  0  0  0  0
   -8.6705  -19.2009   -9.2560 C   0  0  0  0  0  0
   -9.3234  -18.5201  -10.2938 C   0  0  0  0  0  0
   -9.0679  -18.9059  -11.6133 C   0  0  0  0  0  0
   -8.1594  -19.9260  -11.8929 C   0  0  0  0  0  0
   -7.4969  -20.6026  -10.8565 C   0  0  0  0  0  0
  -10.3288  -17.4229  -10.0114 C   0  0  0  0  0  0
   -9.9798  -16.3728   -9.1915 N   0  0  0  0  0  0
   -8.5384  -16.0525   -9.0057 C   0  0  0  0  0  0
   -7.9109  -15.1248  -10.0823 C   0  0  1  0  0  0
  -10.9577  -15.4296   -8.6974 C   0  0  0  0  0  0
  -12.2741  -15.8241   -8.3865 C   0  0  0  0  0  0
  -13.2019  -14.9121   -7.8886 C   0  0  0  0  0  0
  -12.8428  -13.5803   -7.7119 C   0  0  0  0  0  0
  -11.5457  -13.1671   -7.9759 C   0  0  0  0  0  0
  -10.6127  -14.0859   -8.4422 C   0  0  0  0  0  0
  -14.0045  -12.4263   -7.1707 Cl  0  0  0  0  0  0
   -6.6669  -14.3055   -9.6560 C   0  0  2  0  0  0
   -5.5953  -14.7157  -10.6749 C   0  0  0  0  0  0
   -6.3268  -15.0992  -11.8672 N   0  0  2  0  0  0
   -7.4292  -15.8779  -11.3336 C   0  0  0  0  0  0
   -6.1977  -14.3845   -8.1786 C   0  0  0  0  0  0
   -5.0942  -13.3884   -7.8404 C   0  0  0  0  0  0
   -3.7536  -13.7751   -7.9153 C   0  0  0  0  0  0
   -2.7479  -12.8578   -7.6200 C   0  0  0  0  0  0
   -3.0856  -11.5585   -7.2457 C   0  0  0  0  0  0
   -4.4197  -11.1677   -7.1625 C   0  0  0  0  0  0
   -5.4262  -12.0837   -7.4587 C   0  0  0  0  0  0
   -6.5921  -21.6291  -11.0621 O   0  0  0  0  0  0
   -6.3287  -22.0713  -12.3890 C   0  0  0  0  0  0
   -7.1081  -20.8322   -8.4858 O   0  0  0  0  0  0
   -7.7402  -22.0044   -7.9898 C   0  0  0  0  0  0
   -6.8270  -22.6963   -6.9638 C   0  0  0  0  0  0
   -5.5966  -23.3998   -7.5718 C   0  0  0  0  0  0
   -4.7245  -22.5373   -8.2951 O   0  0  0  0  0  0
   -4.0112  -21.5905   -7.5083 C   0  0  0  0  0  0
  -11.4409  -17.5434  -10.5334 O   0  0  0  0  0  0
   -8.8611  -18.9390   -8.2252 H   0  0  0  0  0  0
   -9.5649  -18.4057  -12.4327 H   0  0  0  0  0  0
   -7.9841  -20.1756  -12.9276 H   0  0  0  0  0  0
   -8.4576  -15.6052   -8.0213 H   0  0  0  0  0  0
   -7.9076  -16.9312   -8.9043 H   0  0  0  0  0  0
   -8.6679  -14.4193  -10.4211 H   0  0  0  0  0  0
  -12.5964  -16.8480   -8.5057 H   0  0  0  0  0  0
  -14.2058  -15.2381   -7.6582 H   0  0  0  0  0  0
  -11.2611  -12.1370   -7.8194 H   0  0  0  0  0  0
   -9.6182  -13.7112   -8.6168 H   0  0  0  0  0  0
   -6.9017  -13.2630   -9.8484 H   0  0  0  0  0  0
   -4.9888  -15.5435  -10.3002 H   0  0  0  0  0  0
   -4.9063  -13.8958  -10.8843 H   0  0  0  0  0  0
   -5.7493  -15.6521  -12.4884 H   0  0  0  0  0  0
   -7.0898  -16.8865  -11.0887 H   0  0  0  0  0  0
   -8.2238  -15.9799  -12.0749 H   0  0  0  0  0  0
   -7.0271  -14.1694   -7.5041 H   0  0  0  0  0  0
   -5.8741  -15.3967   -7.9277 H   0  0  0  0  0  0
   -3.4893  -14.7812   -8.2073 H   0  0  0  0  0  0
   -1.7108  -13.1535   -7.6803 H   0  0  0  0  0  0
   -2.3057  -10.8483   -7.0131 H   0  0  0  0  0  0
   -4.6684  -10.1584   -6.8675 H   0  0  0  0  0  0
   -6.4609  -11.7778   -7.3979 H   0  0  0  0  0  0
   -5.6066  -22.8874  -12.3601 H   0  0  0  0  0  0
   -7.2322  -22.4468  -12.8716 H   0  0  0  0  0  0
   -5.9014  -21.2754  -13.0000 H   0  0  0  0  0  0
   -7.9944  -22.6973   -8.7940 H   0  0  0  0  0  0
   -8.6724  -21.7159   -7.5023 H   0  0  0  0  0  0
   -7.4168  -23.4413   -6.4287 H   0  0  0  0  0  0
   -6.5129  -21.9785   -6.2089 H   0  0  0  0  0  0
   -5.9350  -24.1714   -8.2646 H   0  0  0  0  0  0
   -5.0373  -23.9241   -6.7945 H   0  0  0  0  0  0
   -3.3218  -21.0390   -8.1477 H   0  0  0  0  0  0
   -3.4236  -22.0777   -6.7286 H   0  0  0  0  0  0
   -4.6761  -20.8640   -7.0398 H   0  0  0  0  0  0
  1  2  2  0  0  0
  1  6  1  0  0  0
  1 31  1  0  0  0
  2  3  1  0  0  0
  2 38  1  0  0  0
  3  4  2  0  0  0
  3  7  1  0  0  0
  4  5  1  0  0  0
  4 39  1  0  0  0
  5  6  2  0  0  0
  5 40  1  0  0  0
  6 29  1  0  0  0
  7  8  1  0  0  0
  7 37  2  0  0  0
  8  9  1  0  0  0
  8 11  1  0  0  0
  9 10  1  0  0  0
  9 41  1  0  0  0
  9 42  1  0  0  0
 10 18  1  0  0  0
 10 21  1  0  0  0
 10 43  1  0  0  0
 11 12  2  0  0  0
 11 16  1  0  0  0
 12 13  1  0  0  0
 12 44  1  0  0  0
 13 14  2  0  0  0
 13 45  1  0  0  0
 14 15  1  0  0  0
 14 17  1  0  0  0
 15 16  2  0  0  0
 15 46  1  0  0  0
 16 47  1  0  0  0
 18 19  1  0  0  0
 18 22  1  0  0  0
 18 48  1  0  0  0
 19 20  1  0  0  0
 19 49  1  0  0  0
 19 50  1  0  0  0
 20 21  1  0  0  0
 20 51  1  0  0  0
 21 52  1  0  0  0
 21 53  1  0  0  0
 22 23  1  0  0  0
 22 54  1  0  0  0
 22 55  1  0  0  0
 23 24  2  0  0  0
 23 28  1  0  0  0
 24 25  1  0  0  0
 24 56  1  0  0  0
 25 26  2  0  0  0
 25 57  1  0  0  0
 26 27  1  0  0  0
 26 58  1  0  0  0
 27 28  2  0  0  0
 27 59  1  0  0  0
 28 60  1  0  0  0
 29 30  1  0  0  0
 30 61  1  0  0  0
 30 62  1  0  0  0
 30 63  1  0  0  0
 31 32  1  0  0  0
 32 33  1  0  0  0
 32 64  1  0  0  0
 32 65  1  0  0  0
 33 34  1  0  0  0
 33 66  1  0  0  0
 33 67  1  0  0  0
 34 35  1  0  0  0
 34 68  1  0  0  0
 34 69  1  0  0  0
 35 36  1  0  0  0
 36 70  1  0  0  0
 36 71  1  0  0  0
 36 72  1  0  0  0
M  END
> <s_m_entry_id>
26433

> <s_m_entry_name>
dock_pv.257

> <s_m_Source_Path>
/home/csk/Desktop/cluster/DUD-E-result/reni

> <s_m_Source_File>
dock_pv.maegz

> <i_m_Source_File_Index>
257

> <chembl_id>
CHEMBL2322608

> <chembl_pref_name>
None

> <i_lp_mmshare_version>
53161

> <r_lp_tautomer_probability>
1

> <s_lp_Force_Field>
OPLS_2005

> <r_lp_Energy>
66.924558

> <b_lp_Chiralities_Consistent>
1

> <s_lp_Variant>
CHEMBL286_lig2435-4

> <s_i_glide_gridfile>
glide-grid_3g6z

> <i_i_glide_lignum>
6485

> <i_i_glide_rotatable_bonds>
13

> <r_i_docking_score>
-6.97690949756348

> <r_i_glide_ligand_efficiency>
-0.18856512155577

> <r_i_glide_ligand_efficiency_sa>
-0.628340817750115

> <r_i_glide_ligand_efficiency_ln>
-1.51312810805656

> <r_i_glide_gscore>
-6.97690949756348

> <r_i_glide_lipo>
-4.32729219240684

> <r_i_glide_hbond>
0

> <r_i_glide_metal>
0

> <r_i_glide_rewards>
-1.01048082523586

> <r_i_glide_evdw>
-44.9213829040527

> <r_i_glide_ecoul>
-1.46670818328857

> <r_i_glide_erotb>
0.826938892775145

> <r_i_glide_esite>
0

> <r_i_glide_emodel>
-63.3697472461478

> <r_i_glide_energy>
-46.3880910873413

> <r_i_glide_einternal>
6.47388792037964

> <i_i_glide_confnum>
16

> <i_i_glide_posenum>
334

> <r_i_glide_eff_state_penalty>
0

> <s_user_duplicate_titles>
CHEMBL286_lig2435

> <i_f3d_flags>
0

> <s_m_subgroup_title>
dock_pv

> <s_m_subgroupid>
dock_pv

> <b_m_subgroup_collapsed>
1

$$$$
CHEMBL286_lig1628
                    3D
 Schrodinger Suite 2021-1.
 89 90  0  0  1  0            999 V2000
   -8.7016  -14.0781   -8.8306 C   0  0  0  0  0  0
   -8.2758  -15.2975   -9.3881 C   0  0  0  0  0  0
   -6.9058  -15.6064   -9.4020 C   0  0  0  0  0  0
   -5.9709  -14.7256   -8.8642 C   0  0  0  0  0  0
   -6.3828  -13.4958   -8.3411 C   0  0  0  0  0  0
   -7.7429  -13.1819   -8.3345 C   0  0  0  0  0  0
   -5.4030  -12.4753   -7.7600 C   0  0  0  0  0  0
   -3.9447  -12.4772   -8.3039 C   0  0  1  0  0  0
   -3.9041  -12.2321   -9.8474 C   0  0  0  0  0  0
   -2.6758  -12.7948  -10.6061 C   0  0  1  0  0  0
   -2.5750  -14.3508  -10.6125 C   0  0  1  0  0  0
   -3.6091  -14.9420  -11.3852 O   0  0  0  0  0  0
   -1.1840  -14.8839  -11.0339 C   0  0  0  0  0  0
   -0.9655  -16.4287  -11.0989 C   0  0  2  0  0  0
   -1.6425  -17.2380   -9.9637 C   0  0  0  0  0  0
   -2.9552  -17.4403  -10.1330 N   0  0  0  0  0  0
   -1.0079  -17.6625   -9.0008 O   0  0  0  0  0  0
   -3.8561  -18.2874   -9.3634 C   0  0  0  0  0  0
   -4.3196  -19.5245  -10.1722 C   0  0  0  0  0  0
   -5.3101  -19.2681  -11.2344 N   0  0  0  0  0  0
   -2.6694  -12.2415  -11.9527 N   0  0  0  0  0  0
   -3.0435  -11.5262   -7.4494 C   0  0  0  0  0  0
   -3.4595  -10.0441   -7.4802 C   0  0  0  0  0  0
   -1.5300  -11.6768   -7.6892 C   0  0  0  0  0  0
  -10.0642  -13.8444   -8.8206 O   0  0  0  0  0  0
  -10.6374  -12.6563   -8.2725 C   0  0  0  0  0  0
    0.5371  -16.7712  -11.2475 C   0  0  0  0  0  0
   -9.2480  -16.1382   -9.9038 O   0  0  0  0  0  0
   -8.8633  -17.3257  -10.5883 C   0  0  0  0  0  0
  -11.9518  -13.0189   -7.5637 C   0  0  0  0  0  0
  -13.0585  -13.5677   -8.4871 C   0  0  0  0  0  0
  -12.6690  -14.7242   -9.2245 O   0  0  0  0  0  0
  -12.5093  -15.9146   -8.4630 C   0  0  0  0  0  0
   -4.7948  -18.3793  -12.3005 C   0  0  0  0  0  0
   -5.6375  -18.3756  -13.5968 C   0  0  0  0  0  0
   -5.8693  -19.7120  -14.0196 O   0  0  0  0  0  0
   -6.6274  -20.4316  -13.0536 C   0  0  0  0  0  0
   -5.8000  -20.5567  -11.7565 C   0  0  0  0  0  0
   -6.5512  -16.5321   -9.8275 H   0  0  0  0  0  0
   -4.9301  -15.0074   -8.8794 H   0  0  0  0  0  0
   -8.0272  -12.2246   -7.9313 H   0  0  0  0  0  0
   -5.8225  -11.4831   -7.9257 H   0  0  0  0  0  0
   -5.3952  -12.6248   -6.6784 H   0  0  0  0  0  0
   -3.5694  -13.4730   -8.0937 H   0  0  0  0  0  0
   -4.7881  -12.6618  -10.3203 H   0  0  0  0  0  0
   -3.9937  -11.1641  -10.0341 H   0  0  0  0  0  0
   -1.7766  -12.4069  -10.1413 H   0  0  0  0  0  0
   -2.7221  -14.6959   -9.5928 H   0  0  0  0  0  0
   -3.4718  -14.7334  -12.3177 H   0  0  0  0  0  0
   -0.9645  -14.4785  -12.0217 H   0  0  0  0  0  0
   -0.4457  -14.4505  -10.3599 H   0  0  0  0  0  0
   -1.4418  -16.7705  -12.0176 H   0  0  0  0  0  0
   -3.4052  -16.8360  -10.8096 H   0  0  0  0  0  0
   -3.4080  -18.6035   -8.4167 H   0  0  0  0  0  0
   -4.7164  -17.6822   -9.0826 H   0  0  0  0  0  0
   -3.4629  -20.0986  -10.5307 H   0  0  0  0  0  0
   -4.8322  -20.1642   -9.4509 H   0  0  0  0  0  0
   -1.8231  -12.5222  -12.4297 H   0  0  0  0  0  0
   -3.4454  -12.6065  -12.4858 H   0  0  0  0  0  0
   -3.1872  -11.8425   -6.4212 H   0  0  0  0  0  0
   -3.4714   -9.6618   -8.4950 H   0  0  0  0  0  0
   -4.4485   -9.8861   -7.0496 H   0  0  0  0  0  0
   -2.7731   -9.4246   -6.9044 H   0  0  0  0  0  0
   -1.2081  -11.1550   -8.5889 H   0  0  0  0  0  0
   -0.9632  -11.2509   -6.8575 H   0  0  0  0  0  0
   -1.2371  -12.7218   -7.7770 H   0  0  0  0  0  0
  -10.8198  -11.9353   -9.0702 H   0  0  0  0  0  0
  -10.0104  -12.1592   -7.5398 H   0  0  0  0  0  0
    0.6875  -17.8418  -11.3893 H   0  0  0  0  0  0
    0.9827  -16.2662  -12.1037 H   0  0  0  0  0  0
    1.1048  -16.4812  -10.3635 H   0  0  0  0  0  0
   -9.7526  -17.8255  -10.9684 H   0  0  0  0  0  0
   -8.2210  -17.1115  -11.4440 H   0  0  0  0  0  0
   -8.3514  -18.0259   -9.9275 H   0  0  0  0  0  0
  -12.3377  -12.1262   -7.0698 H   0  0  0  0  0  0
  -11.7490  -13.7301   -6.7628 H   0  0  0  0  0  0
  -13.3293  -12.7995   -9.2128 H   0  0  0  0  0  0
  -13.9587  -13.7741   -7.9096 H   0  0  0  0  0  0
  -12.2779  -16.7398   -9.1371 H   0  0  0  0  0  0
  -13.4216  -16.1699   -7.9216 H   0  0  0  0  0  0
  -11.6835  -15.8340   -7.7539 H   0  0  0  0  0  0
   -4.6967  -17.3647  -11.9191 H   0  0  0  0  0  0
   -3.7907  -18.7112  -12.5719 H   0  0  0  0  0  0
   -5.1131  -17.8406  -14.3879 H   0  0  0  0  0  0
   -6.5822  -17.8459  -13.4395 H   0  0  0  0  0  0
   -6.8567  -21.4192  -13.4527 H   0  0  0  0  0  0
   -7.5867  -19.9441  -12.8720 H   0  0  0  0  0  0
   -4.9451  -21.1969  -11.9855 H   0  0  0  0  0  0
   -6.3650  -21.0849  -10.9849 H   0  0  0  0  0  0
  1  2  2  0  0  0
  1  6  1  0  0  0
  1 25  1  0  0  0
  2  3  1  0  0  0
  2 28  1  0  0  0
  3  4  2  0  0  0
  3 39  1  0  0  0
  4  5  1  0  0  0
  4 40  1  0  0  0
  5  6  2  0  0  0
  5  7  1  0  0  0
  6 41  1  0  0  0
  7  8  1  0  0  0
  7 42  1  0  0  0
  7 43  1  0  0  0
  8  9  1  0  0  0
  8 22  1  0  0  0
  8 44  1  0  0  0
  9 10  1  0  0  0
  9 45  1  0  0  0
  9 46  1  0  0  0
 10 11  1  0  0  0
 10 21  1  0  0  0
 10 47  1  0  0  0
 11 12  1  0  0  0
 11 13  1  0  0  0
 11 48  1  0  0  0
 12 49  1  0  0  0
 13 14  1  0  0  0
 13 50  1  0  0  0
 13 51  1  0  0  0
 14 15  1  0  0  0
 14 27  1  0  0  0
 14 52  1  0  0  0
 15 16  1  0  0  0
 15 17  2  0  0  0
 16 18  1  0  0  0
 16 53  1  0  0  0
 18 19  1  0  0  0
 18 54  1  0  0  0
 18 55  1  0  0  0
 19 20  1  0  0  0
 19 56  1  0  0  0
 19 57  1  0  0  0
 20 34  1  0  0  0
 20 38  1  0  0  0
 21 58  1  0  0  0
 21 59  1  0  0  0
 22 23  1  0  0  0
 22 24  1  0  0  0
 22 60  1  0  0  0
 23 61  1  0  0  0
 23 62  1  0  0  0
 23 63  1  0  0  0
 24 64  1  0  0  0
 24 65  1  0  0  0
 24 66  1  0  0  0
 25 26  1  0  0  0
 26 30  1  0  0  0
 26 67  1  0  0  0
 26 68  1  0  0  0
 27 69  1  0  0  0
 27 70  1  0  0  0
 27 71  1  0  0  0
 28 29  1  0  0  0
 29 72  1  0  0  0
 29 73  1  0  0  0
 29 74  1  0  0  0
 30 31  1  0  0  0
 30 75  1  0  0  0
 30 76  1  0  0  0
 31 32  1  0  0  0
 31 77  1  0  0  0
 31 78  1  0  0  0
 32 33  1  0  0  0
 33 79  1  0  0  0
 33 80  1  0  0  0
 33 81  1  0  0  0
 34 35  1  0  0  0
 34 82  1  0  0  0
 34 83  1  0  0  0
 35 36  1  0  0  0
 35 84  1  0  0  0
 35 85  1  0  0  0
 36 37  1  0  0  0
 37 38  1  0  0  0
 37 86  1  0  0  0
 37 87  1  0  0  0
 38 88  1  0  0  0
 38 89  1  0  0  0
M  END
> <s_m_entry_id>
26434

> <s_m_entry_name>
dock_pv.258

> <s_m_Source_Path>
/home/csk/Desktop/cluster/DUD-E-result/reni

> <s_m_Source_File>
dock_pv.maegz

> <i_m_Source_File_Index>
258

> <chembl_id>
CHEMBL536748

> <chembl_pref_name>
None

> <i_lp_mmshare_version>
53161

> <r_lp_tautomer_probability>
1

> <s_lp_Force_Field>
OPLS_2005

> <r_lp_Energy>
52.575659

> <b_lp_Chiralities_Consistent>
1

> <s_lp_Variant>
CHEMBL286_lig1628-1

> <s_i_glide_gridfile>
glide-grid_3g6z

> <i_i_glide_lignum>
5334

> <i_i_glide_rotatable_bonds>
20

> <r_i_docking_score>
-6.9766538643326

> <r_i_glide_ligand_efficiency>
-0.183596154324542

> <r_i_glide_ligand_efficiency_sa>
-0.617245754873549

> <r_i_glide_ligand_efficiency_ln>
-1.50437180551363

> <r_i_glide_gscore>
-6.9766538643326

> <r_i_glide_lipo>
-3.38795685706475

> <r_i_glide_hbond>
-0.795279518054542

> <r_i_glide_metal>
0

> <r_i_glide_rewards>
-0.296765178240672

> <r_i_glide_evdw>
-42.6472625732422

> <r_i_glide_ecoul>
-9.57293891906738

> <r_i_glide_erotb>
1.07165165554958

> <r_i_glide_esite>
0

> <r_i_glide_emodel>
-68.3245871085646

> <r_i_glide_energy>
-52.2202014923096

> <r_i_glide_einternal>
11.0775327682495

> <i_i_glide_confnum>
167

> <i_i_glide_posenum>
91

> <r_i_glide_eff_state_penalty>
0

> <s_user_duplicate_titles>
CHEMBL286_lig1628,549633

> <i_f3d_flags>
0

> <s_m_subgroup_title>
dock_pv

> <s_m_subgroupid>
dock_pv

> <b_m_subgroup_collapsed>
1

$$$$
CHEMBL286_lig1344
                    3D
 Schrodinger Suite 2021-1.
 65 70  0  0  1  0            999 V2000
  -11.5016  -13.8516   -7.8515 N   0  0  0  0  0  0
  -12.1875  -12.8009   -7.4288 C   0  0  0  0  0  0
  -13.4719  -13.0011   -7.2197 N   0  0  0  0  0  0
  -12.4162  -14.7851   -7.8710 C   0  0  0  0  0  0
  -13.6417  -14.3540   -7.4999 O   0  0  0  0  0  0
  -11.5574  -11.4651   -7.1660 C   0  0  0  0  0  0
   -6.7410  -18.8507  -10.8217 C   0  0  2  0  0  0
   -8.0881  -18.2329  -10.4322 C   0  0  0  0  0  0
   -4.6693  -19.8559  -12.7057 N   0  0  2  0  0  0
   -4.9746  -13.0830   -8.7127 C   0  0  0  0  0  0
   -5.6162  -16.7103  -10.8746 O   0  0  0  0  0  0
   -9.6510   -9.9796   -7.3913 N   0  0  0  0  0  0
   -5.8704  -17.8837  -11.6517 C   0  0  1  0  0  0
   -5.4132  -14.1810   -9.4977 C   0  0  0  0  0  0
  -12.2688  -16.2533   -8.2125 C   0  0  0  0  0  0
   -3.9882  -12.1955   -9.2461 C   0  0  0  0  0  0
   -8.3209  -17.8141   -9.1183 C   0  0  0  0  0  0
   -9.0774  -18.0347  -11.3978 C   0  0  0  0  0  0
   -3.4757  -12.4338  -10.5405 C   0  0  0  0  0  0
  -11.7412  -16.4033   -9.5322 O   0  0  0  0  0  0
   -4.9005  -14.3867  -10.7775 C   0  0  0  0  0  0
  -10.5239  -17.0162   -9.7471 C   0  0  0  0  0  0
   -5.4033  -15.5305  -11.6417 C   0  0  0  0  0  0
  -10.2687  -11.1641   -7.6209 C   0  0  0  0  0  0
   -3.9388  -13.5121  -11.2870 C   0  0  0  0  0  0
  -10.2828  -17.4348  -11.0538 C   0  0  0  0  0  0
   -9.5310  -17.2133   -8.7742 C   0  0  0  0  0  0
   -4.5291  -18.5341  -12.0822 C   0  0  0  0  0  0
  -12.2183  -10.4686   -6.4272 C   0  0  0  0  0  0
   -5.4999  -20.7845  -11.9364 C   0  0  0  0  0  0
   -6.8779  -20.1936  -11.5718 C   0  0  0  0  0  0
  -10.3251   -9.0374   -6.6887 C   0  0  0  0  0  0
   -5.5009  -12.8324   -7.4231 C   0  0  0  0  0  0
   -3.5644  -11.0888   -8.4736 C   0  0  0  0  0  0
  -11.5954   -9.2462   -6.1687 C   0  0  0  0  0  0
   -5.0674  -11.7268   -6.6976 C   0  0  0  0  0  0
   -4.1089  -10.8629   -7.2149 C   0  0  0  0  0  0
   -6.2170  -19.0561   -9.8863 H   0  0  0  0  0  0
   -3.7522  -20.2641  -12.8315 H   0  0  0  0  0  0
   -6.4292  -17.5958  -12.5463 H   0  0  0  0  0  0
   -6.1607  -14.8499   -9.0976 H   0  0  0  0  0  0
  -11.7136  -16.7709   -7.4299 H   0  0  0  0  0  0
  -13.2372  -16.7517   -8.2120 H   0  0  0  0  0  0
   -7.5574  -17.9332   -8.3655 H   0  0  0  0  0  0
   -8.9144  -18.3284  -12.4209 H   0  0  0  0  0  0
   -2.7316  -11.7685  -10.9573 H   0  0  0  0  0  0
   -4.6694  -15.7275  -12.4205 H   0  0  0  0  0  0
   -6.3310  -15.2255  -12.1302 H   0  0  0  0  0  0
   -9.6965  -11.8947   -8.1766 H   0  0  0  0  0  0
   -3.5480  -13.6628  -12.2837 H   0  0  0  0  0  0
  -11.0355  -17.2822  -11.8150 H   0  0  0  0  0  0
   -9.6485  -16.8718   -7.7589 H   0  0  0  0  0  0
   -4.0314  -17.8913  -12.8072 H   0  0  0  0  0  0
   -3.8641  -18.6121  -11.2216 H   0  0  0  0  0  0
  -13.2147  -10.6396   -6.0492 H   0  0  0  0  0  0
   -5.6378  -21.6944  -12.5237 H   0  0  0  0  0  0
   -4.9646  -21.0681  -11.0290 H   0  0  0  0  0  0
   -7.3855  -20.9167  -10.9319 H   0  0  0  0  0  0
   -7.4714  -20.1045  -12.4830 H   0  0  0  0  0  0
   -9.8486   -8.0807   -6.5541 H   0  0  0  0  0  0
   -6.2446  -13.4977   -7.0082 H   0  0  0  0  0  0
   -2.8210  -10.4125   -8.8727 H   0  0  0  0  0  0
  -12.1055   -8.4723   -5.6165 H   0  0  0  0  0  0
   -5.4669  -11.5405   -5.7144 H   0  0  0  0  0  0
   -3.7882  -10.0133   -6.6295 H   0  0  0  0  0  0
  1  2  1  0  0  0
  1  4  2  0  0  0
  2  3  2  0  0  0
  2  6  1  0  0  0
  3  5  1  0  0  0
  4  5  1  0  0  0
  4 15  1  0  0  0
  6 24  2  0  0  0
  6 29  1  0  0  0
  7  8  1  0  0  0
  7 13  1  0  0  0
  7 31  1  0  0  0
  7 38  1  0  0  0
  8 17  2  0  0  0
  8 18  1  0  0  0
  9 30  1  0  0  0
  9 28  1  0  0  0
  9 39  1  0  0  0
 10 14  2  0  0  0
 10 33  1  0  0  0
 10 16  1  0  0  0
 11 13  1  0  0  0
 11 23  1  0  0  0
 12 24  1  0  0  0
 12 32  2  0  0  0
 13 28  1  0  0  0
 13 40  1  0  0  0
 14 21  1  0  0  0
 14 41  1  0  0  0
 15 20  1  0  0  0
 15 42  1  0  0  0
 15 43  1  0  0  0
 16 19  2  0  0  0
 16 34  1  0  0  0
 17 27  1  0  0  0
 17 44  1  0  0  0
 18 26  2  0  0  0
 18 45  1  0  0  0
 19 25  1  0  0  0
 19 46  1  0  0  0
 20 22  1  0  0  0
 21 23  1  0  0  0
 21 25  2  0  0  0
 22 26  1  0  0  0
 22 27  2  0  0  0
 23 47  1  0  0  0
 23 48  1  0  0  0
 24 49  1  0  0  0
 25 50  1  0  0  0
 26 51  1  0  0  0
 27 52  1  0  0  0
 28 53  1  0  0  0
 28 54  1  0  0  0
 29 35  2  0  0  0
 29 55  1  0  0  0
 30 31  1  0  0  0
 30 56  1  0  0  0
 30 57  1  0  0  0
 31 58  1  0  0  0
 31 59  1  0  0  0
 32 35  1  0  0  0
 32 60  1  0  0  0
 33 36  2  0  0  0
 33 61  1  0  0  0
 34 37  2  0  0  0
 34 62  1  0  0  0
 35 63  1  0  0  0
 36 37  1  0  0  0
 36 64  1  0  0  0
 37 65  1  0  0  0
M  END
> <s_m_entry_id>
26435

> <s_m_entry_name>
dock_pv.259

> <s_m_Source_Path>
/home/csk/Desktop/cluster/DUD-E-result/reni

> <s_m_Source_File>
dock_pv.maegz

> <i_m_Source_File_Index>
259

> <chembl_id>
CHEMBL442264

> <chembl_pref_name>
None

> <i_lp_mmshare_version>
53161

> <r_lp_tautomer_probability>
1

> <s_lp_Force_Field>
OPLS_2005

> <r_lp_Energy>
36.898495

> <b_lp_Chiralities_Consistent>
1

> <s_lp_Variant>
CHEMBL286_lig1344-1

> <s_i_glide_gridfile>
glide-grid_3g6z

> <i_i_glide_lignum>
4370

> <i_i_glide_rotatable_bonds>
8

> <r_i_docking_score>
-6.97540392098181

> <r_i_glide_ligand_efficiency>
-0.188524430296806

> <r_i_glide_ligand_efficiency_sa>
-0.628205225447988

> <r_i_glide_ligand_efficiency_ln>
-1.51280158379172

> <r_i_glide_gscore>
-6.97540392098181

> <r_i_glide_lipo>
-4.09022245717318

> <r_i_glide_hbond>
-0.127763489017777

> <r_i_glide_metal>
0

> <r_i_glide_rewards>
0.0366708834202988

> <r_i_glide_evdw>
-55.1474380493164

> <r_i_glide_ecoul>
-4.7214994430542

> <r_i_glide_erotb>
0.671507960712798

> <r_i_glide_esite>
0

> <r_i_glide_emodel>
-81.9361759792431

> <r_i_glide_energy>
-59.8689374923706

> <r_i_glide_einternal>
3.1503746509552

> <i_i_glide_confnum>
19

> <i_i_glide_posenum>
125

> <r_i_glide_eff_state_penalty>
0

> <s_user_duplicate_titles>
CHEMBL286_lig1344,42982

> <i_f3d_flags>
0

> <s_m_subgroup_title>
dock_pv

> <s_m_subgroupid>
dock_pv

> <b_m_subgroup_collapsed>
1

$$$$
CHEMBL286_lig558
                    3D
 Schrodinger Suite 2021-1.
 96101  0  0  1  0            999 V2000
   -8.1712  -17.9376  -10.0301 N   0  0  0  0  0  0
   -7.0765  -17.1068  -10.3031 C   0  0  0  0  0  0
   -7.7249  -19.2179  -10.3007 C   0  0  0  0  0  0
   -6.0401  -17.8575  -10.7418 N   0  0  0  0  0  0
   -6.4895  -19.1640  -10.7674 N   0  0  0  0  0  0
   -8.4132  -15.2242   -9.6166 N   0  0  0  0  0  0
   -8.5977  -20.4785  -10.1971 C   0  0  2  0  0  0
   -7.2349  -15.7285  -10.0728 C   0  0  0  0  0  0
   -9.3627  -17.4309   -9.5730 C   0  0  0  0  0  0
   -9.4709  -16.0474   -9.3644 C   0  0  0  0  0  0
   -7.8763  -21.7398   -9.6464 C   0  0  0  0  0  0
   -6.7227  -21.5560   -8.9819 N   0  0  0  0  0  0
   -5.8258  -22.5927   -8.4644 C   0  0  2  0  0  0
   -9.2557  -20.7100  -11.5819 C   0  0  0  0  0  0
   -4.8333  -22.0126   -7.4060 C   0  0  2  0  0  0
   -6.1194  -14.7089  -10.2687 C   0  0  0  0  0  0
   -8.3573  -22.8636   -9.8041 O   0  0  0  0  0  0
  -10.7187  -15.4041   -8.8132 C   0  0  0  0  0  0
   -5.2209  -23.5796   -9.5198 C   0  0  0  0  0  0
  -12.7972  -22.0535  -11.2271 N   0  0  0  0  0  0
   -3.5453  -21.2939   -7.9183 C   0  0  0  0  0  0
  -10.4417  -21.6634  -11.6206 C   0  0  0  0  0  0
   -4.4658  -23.0579   -6.5165 O   0  0  0  0  0  0
   -4.9861  -23.0464  -10.9705 C   0  0  0  0  0  0
  -11.6815  -21.2902  -11.0971 C   0  0  0  0  0  0
   -5.2669  -14.4453   -8.9998 C   0  0  0  0  0  0
  -12.6823  -23.2315  -11.8956 C   0  0  0  0  0  0
  -10.7374  -14.0513   -8.4211 C   0  0  0  0  0  0
  -11.8916  -16.1502   -8.6116 C   0  0  0  0  0  0
   -3.8127  -20.1871   -8.9775 C   0  0  0  0  0  0
   -2.7560  -20.6601   -6.7426 C   0  0  0  0  0  0
  -10.3459  -22.8871  -12.2931 C   0  0  0  0  0  0
   -3.4881  -23.0186  -11.3487 C   0  0  0  0  0  0
   -5.7186  -23.8938  -12.0398 C   0  0  0  0  0  0
   -4.2118  -13.3553   -9.2654 C   0  0  0  0  0  0
   -4.5908  -15.7174   -8.4439 C   0  0  0  0  0  0
  -11.4801  -23.6864  -12.4379 C   0  0  0  0  0  0
  -11.8652  -13.4768   -7.8395 C   0  0  0  0  0  0
  -13.0179  -15.5860   -8.0199 C   0  0  0  0  0  0
   -2.5261  -19.4940   -9.4659 C   0  0  0  0  0  0
   -1.4641  -19.9564   -7.2034 C   0  0  0  0  0  0
   -3.2777  -22.3520  -12.7236 C   0  0  0  0  0  0
   -5.5764  -23.2623  -13.4412 C   0  0  0  0  0  0
   -1.7324  -18.8954   -8.2909 C   0  0  0  0  0  0
  -12.9971  -14.2535   -7.6277 C   0  0  0  0  0  0
   -4.0913  -23.0625  -13.8265 C   0  0  0  0  0  0
   -9.3816  -20.2925   -9.4626 H   0  0  0  0  0  0
  -10.1450  -18.1430   -9.3793 H   0  0  0  0  0  0
   -6.3943  -20.6079   -8.8941 H   0  0  0  0  0  0
   -6.5160  -23.2009   -7.8735 H   0  0  0  0  0  0
   -9.6068  -19.7550  -11.9809 H   0  0  0  0  0  0
   -8.5016  -21.0393  -12.2992 H   0  0  0  0  0  0
   -5.3817  -21.2794   -6.8097 H   0  0  0  0  0  0
   -5.4786  -15.0444  -11.0869 H   0  0  0  0  0  0
   -6.5594  -13.7697  -10.6121 H   0  0  0  0  0  0
   -4.2993  -24.0101   -9.1264 H   0  0  0  0  0  0
   -5.8909  -24.4380   -9.5753 H   0  0  0  0  0  0
   -2.8890  -22.0308   -8.3830 H   0  0  0  0  0  0
   -5.2623  -23.4774   -6.1814 H   0  0  0  0  0  0
   -5.3690  -22.0326  -11.0711 H   0  0  0  0  0  0
  -11.8081  -20.3409  -10.5977 H   0  0  0  0  0  0
   -5.9356  -14.0652   -8.2232 H   0  0  0  0  0  0
  -13.5849  -23.8122  -12.0070 H   0  0  0  0  0  0
   -9.8659  -13.4278   -8.5554 H   0  0  0  0  0  0
  -11.9585  -17.1856   -8.9034 H   0  0  0  0  0  0
   -4.3401  -20.5944   -9.8345 H   0  0  0  0  0  0
   -4.4948  -19.4399   -8.5805 H   0  0  0  0  0  0
   -3.3975  -19.9552   -6.2175 H   0  0  0  0  0  0
   -2.5132  -21.4146   -5.9938 H   0  0  0  0  0  0
   -9.4069  -23.2030  -12.7280 H   0  0  0  0  0  0
   -2.9261  -22.4641  -10.5993 H   0  0  0  0  0  0
   -3.0690  -24.0271  -11.3185 H   0  0  0  0  0  0
   -5.3540  -24.9229  -12.0276 H   0  0  0  0  0  0
   -6.7784  -23.9708  -11.7888 H   0  0  0  0  0  0
   -3.4904  -13.6754  -10.0183 H   0  0  0  0  0  0
   -4.6691  -12.4317   -9.6214 H   0  0  0  0  0  0
   -3.6567  -13.1107   -8.3591 H   0  0  0  0  0  0
   -3.9463  -16.1861   -9.1910 H   0  0  0  0  0  0
   -3.9766  -15.4949   -7.5706 H   0  0  0  0  0  0
   -5.3238  -16.4617   -8.1302 H   0  0  0  0  0  0
  -11.4320  -24.6227  -12.9742 H   0  0  0  0  0  0
  -11.8510  -12.4389   -7.5356 H   0  0  0  0  0  0
  -13.9010  -16.1842   -7.8648 H   0  0  0  0  0  0
   -1.9055  -20.2128  -10.0045 H   0  0  0  0  0  0
   -2.7786  -18.7105  -10.1800 H   0  0  0  0  0  0
   -0.7714  -20.7021   -7.5918 H   0  0  0  0  0  0
   -0.9700  -19.4942   -6.3503 H   0  0  0  0  0  0
   -3.5752  -21.3014  -12.6710 H   0  0  0  0  0  0
   -2.2188  -22.3589  -12.9849 H   0  0  0  0  0  0
   -6.0964  -22.3016  -13.4658 H   0  0  0  0  0  0
   -6.0747  -23.8872  -14.1861 H   0  0  0  0  0  0
   -0.7918  -18.4650   -8.6488 H   0  0  0  0  0  0
   -2.2946  -18.0643   -7.8579 H   0  0  0  0  0  0
  -13.8686  -13.8136   -7.1668 H   0  0  0  0  0  0
   -4.0238  -22.4940  -14.7558 H   0  0  0  0  0  0
   -3.6436  -24.0385  -14.0244 H   0  0  0  0  0  0
  1  2  1  0  0  0
  1  3  1  0  0  0
  1  9  1  0  0  0
  2  4  2  0  0  0
  2  8  1  0  0  0
  3  5  2  0  0  0
  3  7  1  0  0  0
  4  5  1  0  0  0
  6 10  1  0  0  0
  6  8  2  0  0  0
  7 11  1  0  0  0
  7 14  1  0  0  0
  7 47  1  0  0  0
  8 16  1  0  0  0
  9 10  2  0  0  0
  9 48  1  0  0  0
 10 18  1  0  0  0
 11 12  1  0  0  0
 11 17  2  0  0  0
 12 13  1  0  0  0
 12 49  1  0  0  0
 13 15  1  0  0  0
 13 19  1  0  0  0
 13 50  1  0  0  0
 14 22  1  0  0  0
 14 51  1  0  0  0
 14 52  1  0  0  0
 15 21  1  0  0  0
 15 23  1  0  0  0
 15 53  1  0  0  0
 16 26  1  0  0  0
 16 54  1  0  0  0
 16 55  1  0  0  0
 18 28  1  0  0  0
 18 29  2  0  0  0
 19 24  1  0  0  0
 19 56  1  0  0  0
 19 57  1  0  0  0
 20 25  2  0  0  0
 20 27  1  0  0  0
 21 30  1  0  0  0
 21 31  1  0  0  0
 21 58  1  0  0  0
 22 25  1  0  0  0
 22 32  2  0  0  0
 23 59  1  0  0  0
 24 33  1  0  0  0
 24 34  1  0  0  0
 24 60  1  0  0  0
 25 61  1  0  0  0
 26 35  1  0  0  0
 26 36  1  0  0  0
 26 62  1  0  0  0
 27 37  2  0  0  0
 27 63  1  0  0  0
 28 38  2  0  0  0
 28 64  1  0  0  0
 29 39  1  0  0  0
 29 65  1  0  0  0
 30 40  1  0  0  0
 30 66  1  0  0  0
 30 67  1  0  0  0
 31 41  1  0  0  0
 31 68  1  0  0  0
 31 69  1  0  0  0
 32 37  1  0  0  0
 32 70  1  0  0  0
 33 42  1  0  0  0
 33 71  1  0  0  0
 33 72  1  0  0  0
 34 43  1  0  0  0
 34 73  1  0  0  0
 34 74  1  0  0  0
 35 75  1  0  0  0
 35 76  1  0  0  0
 35 77  1  0  0  0
 36 78  1  0  0  0
 36 79  1  0  0  0
 36 80  1  0  0  0
 37 81  1  0  0  0
 38 45  1  0  0  0
 38 82  1  0  0  0
 39 45  2  0  0  0
 39 83  1  0  0  0
 40 44  1  0  0  0
 40 84  1  0  0  0
 40 85  1  0  0  0
 41 44  1  0  0  0
 41 86  1  0  0  0
 41 87  1  0  0  0
 42 46  1  0  0  0
 42 88  1  0  0  0
 42 89  1  0  0  0
 43 46  1  0  0  0
 43 90  1  0  0  0
 43 91  1  0  0  0
 44 92  1  0  0  0
 44 93  1  0  0  0
 45 94  1  0  0  0
 46 95  1  0  0  0
 46 96  1  0  0  0
M  END
> <s_m_entry_id>
26436

> <s_m_entry_name>
dock_pv.260

> <s_m_Source_Path>
/home/csk/Desktop/cluster/DUD-E-result/reni

> <s_m_Source_File>
dock_pv.maegz

> <i_m_Source_File_Index>
260

> <chembl_id>
CHEMBL78121

> <chembl_pref_name>
None

> <i_lp_mmshare_version>
53161

> <r_lp_tautomer_probability>
1

> <s_lp_Force_Field>
OPLS_2005

> <r_lp_Energy>
35.290136

> <b_lp_Chiralities_Consistent>
1

> <s_lp_Variant>
CHEMBL286_lig558-1

> <s_i_glide_gridfile>
glide-grid_3g6z

> <i_i_glide_lignum>
1574

> <i_i_glide_rotatable_bonds>
14

> <r_i_docking_score>
-6.97396192061554

> <r_i_glide_ligand_efficiency>
-0.151607867839468

> <r_i_glide_ligand_efficiency_sa>
-0.543218247398211

> <r_i_glide_ligand_efficiency_ln>
-1.44429071201815

> <r_i_glide_gscore>
-6.97396192061554

> <r_i_glide_lipo>
-4.11473033825615

> <r_i_glide_hbond>
0

> <r_i_glide_metal>
0

> <r_i_glide_rewards>
-0.749269433253354

> <r_i_glide_evdw>
-46.1338157653809

> <r_i_glide_ecoul>
-1.39076232910156

> <r_i_glide_erotb>
0.4104844075784

> <r_i_glide_esite>
-0.00514141905015113

> <r_i_glide_emodel>
-52.1241531639

> <r_i_glide_energy>
-47.5245780944824

> <r_i_glide_einternal>
22.9099102020264

> <i_i_glide_confnum>
21

> <i_i_glide_posenum>
295

> <r_i_glide_eff_state_penalty>
0

> <s_user_duplicate_titles>
CHEMBL286_lig558

> <i_f3d_flags>
0

> <s_m_subgroup_title>
dock_pv

> <s_m_subgroupid>
dock_pv

> <b_m_subgroup_collapsed>
1

$$$$
CHEMBL286_lig1228
                    3D
 Schrodinger Suite 2021-1.
 93 94  0  0  1  0            999 V2000
   -9.8312  -22.3039  -10.7211 S   0  0  0  0  0  0
   -7.1499  -18.9853  -10.5771 C   0  0  0  0  0  0
   -8.7538  -22.2244  -12.2615 C   0  0  0  0  0  0
   -6.9126  -15.9755   -9.4039 C   0  0  0  0  0  0
   -9.4288  -13.2630   -8.4232 C   0  0  0  0  0  0
   -7.7813  -16.5636  -10.2555 N   0  0  0  0  0  0
   -6.8194  -19.9909  -11.4062 N   0  0  0  0  0  0
   -7.4775  -17.6252  -11.2285 C   0  0  1  0  0  0
   -5.4691  -14.7682  -12.0210 N   0  0  0  0  0  0
   -8.7962  -14.4302   -8.8210 N   0  0  0  0  0  0
   -7.3224  -14.5924   -8.8277 C   0  0  1  0  0  0
   -6.5806  -21.3843  -10.9835 C   0  0  1  0  0  0
   -7.2525  -22.4097  -11.9550 C   0  0  2  0  0  0
   -6.4625  -15.6274  -12.5039 C   0  0  0  0  0  0
   -6.4240  -17.1248  -12.2644 C   0  0  0  0  0  0
   -7.1257  -13.5444  -12.8210 N   0  0  0  0  0  0
   -5.9229  -13.5461  -12.2502 C   0  0  0  0  0  0
   -9.7713  -23.6678  -10.1863 O   0  0  0  0  0  0
   -9.4690  -21.1767   -9.8618 O   0  0  0  0  0  0
  -10.7661  -13.4488   -8.5393 O   0  0  0  0  0  0
   -7.4741  -14.8636  -13.0495 C   0  0  0  0  0  0
   -8.8795  -12.2398   -8.0210 O   0  0  0  0  0  0
   -5.8015  -16.4388   -9.1452 O   0  0  0  0  0  0
   -7.2521  -19.1210   -9.3570 O   0  0  0  0  0  0
   -6.6681  -14.3049   -7.4368 C   0  0  0  0  0  0
  -11.5967  -21.9486  -11.3138 C   0  0  0  0  0  0
   -5.0639  -21.6797  -10.7905 C   0  0  0  0  0  0
  -11.7820  -12.5194   -8.1298 C   0  0  0  0  0  0
   -6.6404  -22.3174  -13.2210 O   0  0  0  0  0  0
   -5.3794  -13.4987   -7.4697 C   0  0  0  0  0  0
   -4.3238  -20.8865   -9.6809 C   0  0  0  0  0  0
  -12.1068  -22.8635  -12.4546 C   0  0  0  0  0  0
  -11.5403  -11.0684   -8.6066 C   0  0  0  0  0  0
  -11.9220  -12.5546   -6.5999 C   0  0  0  0  0  0
  -13.0825  -13.0463   -8.7709 C   0  0  0  0  0  0
   -5.4363  -12.0876   -7.4900 C   0  0  0  0  0  0
   -4.1295  -14.1353   -7.6210 C   0  0  0  0  0  0
   -2.8001  -21.0842   -9.7873 C   0  0  0  0  0  0
   -4.8132  -21.2451   -8.2636 C   0  0  0  0  0  0
  -13.4917  -22.3885  -12.9347 C   0  0  0  0  0  0
  -12.1569  -24.3558  -12.0816 C   0  0  0  0  0  0
   -2.9721  -13.3733   -7.7208 C   0  0  0  0  0  0
   -4.2684  -11.3439   -7.5878 C   0  0  0  0  0  0
   -3.0405  -11.9847   -7.6975 C   0  0  0  0  0  0
   -8.9415  -21.2630  -12.7238 H   0  0  0  0  0  0
   -9.1212  -23.0002  -12.9329 H   0  0  0  0  0  0
   -8.6635  -16.1049  -10.4132 H   0  0  0  0  0  0
   -6.7843  -19.8139  -12.3994 H   0  0  0  0  0  0
   -8.4121  -17.7684  -11.7733 H   0  0  0  0  0  0
   -9.3659  -15.2594   -8.8837 H   0  0  0  0  0  0
   -6.9702  -13.8272   -9.5224 H   0  0  0  0  0  0
   -7.0513  -21.5562  -10.0151 H   0  0  0  0  0  0
   -7.0885  -23.4234  -11.5844 H   0  0  0  0  0  0
   -5.4183  -17.3793  -11.9257 H   0  0  0  0  0  0
   -6.5663  -17.6299  -13.2206 H   0  0  0  0  0  0
   -7.6619  -12.7271  -13.0748 H   0  0  0  0  0  0
   -5.3841  -12.6500  -11.9782 H   0  0  0  0  0  0
   -8.4124  -15.1524  -13.5027 H   0  0  0  0  0  0
   -6.5102  -15.2226   -6.8660 H   0  0  0  0  0  0
   -7.3317  -13.7140   -6.8210 H   0  0  0  0  0  0
  -12.2305  -22.0113  -10.4305 H   0  0  0  0  0  0
  -11.5953  -20.9040  -11.6210 H   0  0  0  0  0  0
   -4.9305  -22.7446  -10.5925 H   0  0  0  0  0  0
   -4.5591  -21.4993  -11.7417 H   0  0  0  0  0  0
   -7.3132  -22.4630  -13.8998 H   0  0  0  0  0  0
   -4.5095  -19.8224   -9.8341 H   0  0  0  0  0  0
  -11.4225  -22.7694  -13.2974 H   0  0  0  0  0  0
  -11.3199  -11.0181   -9.6699 H   0  0  0  0  0  0
  -12.4218  -10.4631   -8.4196 H   0  0  0  0  0  0
  -10.7187  -10.5823   -8.0826 H   0  0  0  0  0  0
  -12.0104  -13.5766   -6.2280 H   0  0  0  0  0  0
  -11.0690  -12.0954   -6.1039 H   0  0  0  0  0  0
  -12.8098  -12.0075   -6.2804 H   0  0  0  0  0  0
  -13.2682  -14.0857   -8.4953 H   0  0  0  0  0  0
  -13.9489  -12.4666   -8.4505 H   0  0  0  0  0  0
  -13.0581  -13.0023   -9.8597 H   0  0  0  0  0  0
   -6.3874  -11.5801   -7.4210 H   0  0  0  0  0  0
   -4.0662  -15.2140   -7.6504 H   0  0  0  0  0  0
   -2.5193  -22.1281   -9.6447 H   0  0  0  0  0  0
   -2.4257  -20.7734  -10.7633 H   0  0  0  0  0  0
   -2.2716  -20.4946   -9.0371 H   0  0  0  0  0  0
   -4.6709  -22.3047   -8.0478 H   0  0  0  0  0  0
   -4.2695  -20.6771   -7.5070 H   0  0  0  0  0  0
   -5.8701  -21.0181   -8.1273 H   0  0  0  0  0  0
  -14.2448  -22.5015  -12.1538 H   0  0  0  0  0  0
  -13.4865  -21.3377  -13.2207 H   0  0  0  0  0  0
  -13.8317  -22.9595  -13.7999 H   0  0  0  0  0  0
  -12.7261  -24.5213  -11.1675 H   0  0  0  0  0  0
  -12.6302  -24.9397  -12.8727 H   0  0  0  0  0  0
  -11.1612  -24.7748  -11.9436 H   0  0  0  0  0  0
   -2.0151  -13.8636   -7.8242 H   0  0  0  0  0  0
   -4.3166  -10.2646   -7.5833 H   0  0  0  0  0  0
   -2.1357  -11.4012   -7.7768 H   0  0  0  0  0  0
  1  3  1  0  0  0
  1 18  2  0  0  0
  1 19  2  0  0  0
  1 26  1  0  0  0
  2  7  1  0  0  0
  2  8  1  0  0  0
  2 24  2  0  0  0
  3 13  1  0  0  0
  3 45  1  0  0  0
  3 46  1  0  0  0
  4  6  1  0  0  0
  4 11  1  0  0  0
  4 23  2  0  0  0
  5 10  1  0  0  0
  5 20  1  0  0  0
  5 22  2  0  0  0
  6  8  1  0  0  0
  6 47  1  0  0  0
  7 12  1  0  0  0
  7 48  1  0  0  0
  8 15  1  0  0  0
  8 49  1  0  0  0
  9 14  1  0  0  0
  9 17  2  0  0  0
 10 11  1  0  0  0
 10 50  1  0  0  0
 11 25  1  0  0  0
 11 51  1  0  0  0
 12 13  1  0  0  0
 12 27  1  0  0  0
 12 52  1  0  0  0
 13 29  1  0  0  0
 13 53  1  0  0  0
 14 15  1  0  0  0
 14 21  2  0  0  0
 15 54  1  0  0  0
 15 55  1  0  0  0
 16 21  1  0  0  0
 16 17  1  0  0  0
 16 56  1  0  0  0
 17 57  1  0  0  0
 20 28  1  0  0  0
 21 58  1  0  0  0
 25 30  1  0  0  0
 25 59  1  0  0  0
 25 60  1  0  0  0
 26 32  1  0  0  0
 26 61  1  0  0  0
 26 62  1  0  0  0
 27 31  1  0  0  0
 27 63  1  0  0  0
 27 64  1  0  0  0
 28 33  1  0  0  0
 28 34  1  0  0  0
 28 35  1  0  0  0
 29 65  1  0  0  0
 30 36  2  0  0  0
 30 37  1  0  0  0
 31 38  1  0  0  0
 31 39  1  0  0  0
 31 66  1  0  0  0
 32 40  1  0  0  0
 32 41  1  0  0  0
 32 67  1  0  0  0
 33 68  1  0  0  0
 33 69  1  0  0  0
 33 70  1  0  0  0
 34 71  1  0  0  0
 34 72  1  0  0  0
 34 73  1  0  0  0
 35 74  1  0  0  0
 35 75  1  0  0  0
 35 76  1  0  0  0
 36 43  1  0  0  0
 36 77  1  0  0  0
 37 42  2  0  0  0
 37 78  1  0  0  0
 38 79  1  0  0  0
 38 80  1  0  0  0
 38 81  1  0  0  0
 39 82  1  0  0  0
 39 83  1  0  0  0
 39 84  1  0  0  0
 40 85  1  0  0  0
 40 86  1  0  0  0
 40 87  1  0  0  0
 41 88  1  0  0  0
 41 89  1  0  0  0
 41 90  1  0  0  0
 42 44  1  0  0  0
 42 91  1  0  0  0
 43 44  2  0  0  0
 43 92  1  0  0  0
 44 93  1  0  0  0
M  END
> <s_m_entry_id>
26437

> <s_m_entry_name>
dock_pv.261

> <s_m_Source_Path>
/home/csk/Desktop/cluster/DUD-E-result/reni

> <s_m_Source_File>
dock_pv.maegz

> <i_m_Source_File_Index>
261

> <chembl_id>
CHEMBL3144107

> <chembl_pref_name>
None

> <i_lp_mmshare_version>
53161

> <r_lp_tautomer_probability>
0.499999999999999

> <s_lp_Force_Field>
OPLS_2005

> <r_lp_Energy>
11.417767

> <b_lp_Chiralities_Consistent>
1

> <s_lp_Variant>
CHEMBL286_lig1228-1

> <s_i_glide_gridfile>
glide-grid_3g6z

> <i_i_glide_lignum>
4000

> <i_i_glide_rotatable_bonds>
22

> <r_i_docking_score>
-6.96883751598011

> <r_i_glide_ligand_efficiency>
-0.15838267081773

> <r_i_glide_ligand_efficiency_sa>
-0.559145997560564

> <r_i_glide_ligand_efficiency_ln>
-1.45663906517698

> <r_i_glide_gscore>
-6.96883751598011

> <r_i_glide_lipo>
-3.73887499638575

> <r_i_glide_hbond>
-0.32

> <r_i_glide_metal>
0

> <r_i_glide_rewards>
-0.556088223859924

> <r_i_glide_evdw>
-48.3078079223633

> <r_i_glide_ecoul>
-4.12321138381958

> <r_i_glide_erotb>
0.695638634769181

> <r_i_glide_esite>
-0.0156408268125152

> <r_i_glide_emodel>
-66.1644191019706

> <r_i_glide_energy>
-52.4310193061829

> <r_i_glide_einternal>
19.9682731628418

> <i_i_glide_confnum>
16

> <i_i_glide_posenum>
236

> <r_i_glide_eff_state_penalty>
0

> <s_user_duplicate_titles>
CHEMBL286_lig1228

> <i_f3d_flags>
0

> <s_m_subgroup_title>
dock_pv

> <s_m_subgroupid>
dock_pv

> <b_m_subgroup_collapsed>
1

$$$$
CHEMBL286_lig1349
                    3D
 Schrodinger Suite 2021-1.
 66 70  0  0  1  0            999 V2000
  -12.8871  -12.5892   -7.6549 C   0  0  0  0  0  0
  -11.9423  -11.5124   -7.2358 C   0  0  0  0  0  0
   -6.3767  -18.4488  -11.1425 C   0  0  2  0  0  0
   -7.6908  -17.9919  -10.4961 C   0  0  0  0  0  0
   -4.3069  -18.8796  -13.2200 N   0  0  2  0  0  0
   -3.8402  -12.2593   -8.9592 C   0  0  0  0  0  0
   -5.4026  -16.2729  -10.7733 O   0  0  0  0  0  0
  -14.1149  -12.4647   -7.6199 O   0  0  0  0  0  0
   -9.7175  -10.5323   -7.2221 N   0  0  0  0  0  0
   -5.5821  -17.2794  -11.7624 C   0  0  1  0  0  0
   -4.0034  -13.1540  -10.0441 C   0  0  0  0  0  0
   -4.8245  -12.2352   -7.9222 C   0  0  0  0  0  0
   -7.8318  -18.0433   -9.1064 C   0  0  0  0  0  0
   -8.7180  -17.4407  -11.2681 C   0  0  0  0  0  0
   -5.9253  -13.1246   -7.9962 C   0  0  0  0  0  0
   -5.1056  -14.0050  -10.0988 C   0  0  0  0  0  0
   -5.2785  -14.9481  -11.2738 C   0  0  0  0  0  0
  -12.2459  -13.7407   -7.9742 O   0  0  0  0  0  0
  -10.5932  -11.4925   -7.6221 C   0  0  0  0  0  0
   -9.9466  -16.8933   -9.2474 C   0  0  0  0  0  0
   -6.0548  -13.9929   -9.0758 C   0  0  0  0  0  0
   -9.8434  -16.9042  -10.6473 C   0  0  0  0  0  0
   -8.9422  -17.4838   -8.4900 C   0  0  0  0  0  0
   -4.2101  -17.7519  -12.2912 C   0  0  0  0  0  0
  -10.9764  -16.3203   -8.5302 O   0  0  0  0  0  0
  -12.3959  -10.4616   -6.4298 C   0  0  0  0  0  0
   -5.1309  -19.9948  -12.7318 C   0  0  0  0  0  0
   -6.5199  -19.5556  -12.2064 C   0  0  0  0  0  0
  -10.1867   -9.5338   -6.4345 C   0  0  0  0  0  0
   -2.7277  -11.3868   -8.8775 C   0  0  0  0  0  0
   -4.6743  -11.3192   -6.8565 C   0  0  0  0  0  0
  -12.9513  -14.9448   -8.2771 C   0  0  0  0  0  0
  -12.1097  -15.8138   -9.2213 C   0  0  0  0  0  0
  -11.5134   -9.4578   -6.0226 C   0  0  0  0  0  0
   -2.6061  -10.5048   -7.8086 C   0  0  0  0  0  0
   -3.5794  -10.4617   -6.8187 C   0  0  0  0  0  0
   -5.7735  -18.8632  -10.3312 H   0  0  0  0  0  0
   -3.3695  -19.1940  -13.4384 H   0  0  0  0  0  0
   -6.1622  -16.8575  -12.5873 H   0  0  0  0  0  0
   -3.2628  -13.1628  -10.8313 H   0  0  0  0  0  0
   -7.0693  -18.4832   -8.4874 H   0  0  0  0  0  0
   -8.6295  -17.3980  -12.3456 H   0  0  0  0  0  0
   -6.6713  -13.1191   -7.2127 H   0  0  0  0  0  0
   -4.4298  -14.8716  -11.9578 H   0  0  0  0  0  0
   -6.1766  -14.6566  -11.8233 H   0  0  0  0  0  0
  -10.1795  -12.2704   -8.2482 H   0  0  0  0  0  0
   -6.9000  -14.6659   -9.1194 H   0  0  0  0  0  0
  -10.6071  -16.4695  -11.2731 H   0  0  0  0  0  0
   -9.0163  -17.4964   -7.4120 H   0  0  0  0  0  0
   -3.7211  -16.9311  -12.8169 H   0  0  0  0  0  0
   -3.5606  -18.0200  -11.4581 H   0  0  0  0  0  0
  -13.4274  -10.4142   -6.1155 H   0  0  0  0  0  0
   -5.2622  -20.7125  -13.5429 H   0  0  0  0  0  0
   -4.5825  -20.5082  -11.9407 H   0  0  0  0  0  0
   -6.9970  -20.4306  -11.7633 H   0  0  0  0  0  0
   -7.1426  -19.2454  -13.0463 H   0  0  0  0  0  0
   -9.4714   -8.7871   -6.1241 H   0  0  0  0  0  0
   -1.9758  -11.4080   -9.6547 H   0  0  0  0  0  0
   -5.4161  -11.2837   -6.0687 H   0  0  0  0  0  0
  -13.2949  -15.4963   -7.4014 H   0  0  0  0  0  0
  -13.8603  -14.6767   -8.8175 H   0  0  0  0  0  0
  -12.6705  -16.6645   -9.6018 H   0  0  0  0  0  0
  -11.8390  -15.2036  -10.0808 H   0  0  0  0  0  0
  -11.8530   -8.6419   -5.4010 H   0  0  0  0  0  0
   -1.7569   -9.8411   -7.7479 H   0  0  0  0  0  0
   -3.4839   -9.7464   -6.0210 H   0  0  0  0  0  0
  1  2  1  0  0  0
  1  8  2  0  0  0
  1 18  1  0  0  0
  2 19  1  0  0  0
  2 26  2  0  0  0
  3  4  1  0  0  0
  3 10  1  0  0  0
  3 28  1  0  0  0
  3 37  1  0  0  0
  4 13  1  0  0  0
  4 14  2  0  0  0
  5 27  1  0  0  0
  5 24  1  0  0  0
  5 38  1  0  0  0
  6 11  2  0  0  0
  6 30  1  0  0  0
  6 12  1  0  0  0
  7 10  1  0  0  0
  7 17  1  0  0  0
  9 19  2  0  0  0
  9 29  1  0  0  0
 10 24  1  0  0  0
 10 39  1  0  0  0
 11 16  1  0  0  0
 11 40  1  0  0  0
 12 15  2  0  0  0
 12 31  1  0  0  0
 13 23  2  0  0  0
 13 41  1  0  0  0
 14 22  1  0  0  0
 14 42  1  0  0  0
 15 21  1  0  0  0
 15 43  1  0  0  0
 16 17  1  0  0  0
 16 21  2  0  0  0
 17 44  1  0  0  0
 17 45  1  0  0  0
 18 32  1  0  0  0
 19 46  1  0  0  0
 20 25  1  0  0  0
 20 22  2  0  0  0
 20 23  1  0  0  0
 21 47  1  0  0  0
 22 48  1  0  0  0
 23 49  1  0  0  0
 24 50  1  0  0  0
 24 51  1  0  0  0
 25 33  1  0  0  0
 26 34  1  0  0  0
 26 52  1  0  0  0
 27 28  1  0  0  0
 27 53  1  0  0  0
 27 54  1  0  0  0
 28 55  1  0  0  0
 28 56  1  0  0  0
 29 34  2  0  0  0
 29 57  1  0  0  0
 30 35  2  0  0  0
 30 58  1  0  0  0
 31 36  2  0  0  0
 31 59  1  0  0  0
 32 33  1  0  0  0
 32 60  1  0  0  0
 32 61  1  0  0  0
 33 62  1  0  0  0
 33 63  1  0  0  0
 34 64  1  0  0  0
 35 36  1  0  0  0
 35 65  1  0  0  0
 36 66  1  0  0  0
M  END
> <s_m_entry_id>
26438

> <s_m_entry_name>
dock_pv.262

> <s_m_Source_Path>
/home/csk/Desktop/cluster/DUD-E-result/reni

> <s_m_Source_File>
dock_pv.maegz

> <i_m_Source_File_Index>
262

> <chembl_id>
CHEMBL283237

> <chembl_pref_name>
None

> <i_lp_mmshare_version>
53161

> <r_lp_tautomer_probability>
1

> <s_lp_Force_Field>
OPLS_2005

> <r_lp_Energy>
34.960905

> <b_lp_Chiralities_Consistent>
1

> <s_lp_Variant>
CHEMBL286_lig1349-1

> <s_i_glide_gridfile>
glide-grid_3g6z

> <i_i_glide_lignum>
4380

> <i_i_glide_rotatable_bonds>
10

> <r_i_docking_score>
-6.96169810212158

> <r_i_glide_ligand_efficiency>
-0.193380502836711

> <r_i_glide_ligand_efficiency_sa>
-0.638528350958753

> <r_i_glide_ligand_efficiency_ln>
-1.51885444253592

> <r_i_glide_gscore>
-6.96169810212158

> <r_i_glide_lipo>
-4.09233187185288

> <r_i_glide_hbond>
-0.239008128580298

> <r_i_glide_metal>
0

> <r_i_glide_rewards>
-0.168449104615661

> <r_i_glide_evdw>
-51.899528503418

> <r_i_glide_ecoul>
-4.34176254272461

> <r_i_glide_erotb>
0.784331809506841

> <r_i_glide_esite>
0

> <r_i_glide_emodel>
-74.511892043808

> <r_i_glide_energy>
-56.2412910461426

> <r_i_glide_einternal>
6.53684139251709

> <i_i_glide_confnum>
8

> <i_i_glide_posenum>
147

> <r_i_glide_eff_state_penalty>
0

> <s_user_duplicate_titles>
CHEMBL286_lig1349,43054

> <i_f3d_flags>
0

> <s_m_subgroup_title>
dock_pv

> <s_m_subgroupid>
dock_pv

> <b_m_subgroup_collapsed>
1

$$$$
CHEMBL286_lig1235
                    3D
 Schrodinger Suite 2021-1.
 96 98  0  0  1  0            999 V2000
   -6.0460  -15.9044  -10.3083 C   0  0  0  0  0  0
   -8.8038  -17.3896  -11.0895 C   0  0  0  0  0  0
  -11.3351  -20.1315  -11.1828 C   0  0  0  0  0  0
   -7.7850  -17.7756  -10.2861 N   0  0  0  0  0  0
   -5.0818  -15.5281   -9.4466 N   0  0  0  0  0  0
   -6.3593  -17.4179  -10.4064 C   0  0  1  0  0  0
   -7.0550  -20.1200  -12.4411 N   0  0  0  0  0  0
  -10.1766  -19.3986  -10.9780 N   0  0  0  0  0  0
  -10.2120  -17.9323  -10.7855 C   0  0  1  0  0  0
   -5.9328  -19.5203  -11.8467 C   0  0  0  0  0  0
   -4.5530  -14.1575   -9.3897 C   0  0  2  0  0  0
   -5.7714  -18.0245  -11.7156 C   0  0  0  0  0  0
   -5.6789  -21.7207  -11.7791 N   0  0  0  0  0  0
   -6.8382  -21.4272  -12.3691 C   0  0  0  0  0  0
  -10.9844  -21.4542  -11.3011 O   0  0  0  0  0  0
   -5.0744  -20.5190  -11.4343 C   0  0  0  0  0  0
  -10.6671  -17.5320   -9.3470 C   0  0  0  0  0  0
  -12.4772  -19.6689  -11.2229 O   0  0  0  0  0  0
   -6.6173  -15.0969  -11.0419 O   0  0  0  0  0  0
   -8.6884  -16.5938  -12.0197 O   0  0  0  0  0  0
  -12.2036  -14.1847   -8.2252 C   0  0  0  0  0  0
  -10.8120  -16.0269   -9.0472 C   0  0  0  0  0  0
  -12.0451  -15.5419   -8.6012 C   0  0  0  0  0  0
   -3.5535  -13.9041  -10.5586 C   0  0  0  0  0  0
  -11.8216  -22.5621  -11.7211 C   0  0  0  0  0  0
   -4.0296  -13.7604   -7.9670 C   0  0  1  0  0  0
  -11.0952  -13.2909   -8.3502 C   0  0  0  0  0  0
   -9.8609  -13.7932   -8.8210 C   0  0  0  0  0  0
   -3.1319  -14.7775   -7.2178 C   0  0  0  0  0  0
   -9.7244  -15.1470   -9.1185 C   0  0  0  0  0  0
   -1.8116  -15.1903   -7.9075 C   0  0  0  0  0  0
   -3.3811  -12.5012   -7.9737 O   0  0  0  0  0  0
   -3.6064  -12.5116  -11.2259 C   0  0  0  0  0  0
  -13.4323  -13.6801   -7.7264 C   0  0  0  0  0  0
  -11.6467  -22.8430  -13.2206 C   0  0  0  0  0  0
  -13.3231  -22.3973  -11.4336 C   0  0  0  0  0  0
  -11.2705  -23.7816  -10.9399 C   0  0  0  0  0  0
   -0.8870  -16.0981   -7.0582 C   0  0  0  0  0  0
  -11.2541  -11.9333   -7.9796 C   0  0  0  0  0  0
   -4.7977  -12.3518  -12.1798 C   0  0  0  0  0  0
   -2.2783  -12.2371  -11.9394 C   0  0  0  0  0  0
   -0.3403  -15.4064   -5.7939 C   0  0  0  0  0  0
    0.2773  -16.6270   -7.9142 C   0  0  0  0  0  0
  -13.5587  -12.3393   -7.3694 C   0  0  0  0  0  0
  -12.4753  -11.4725   -7.4972 C   0  0  0  0  0  0
   -8.0069  -18.3995   -9.5234 H   0  0  0  0  0  0
   -4.6378  -16.2157   -8.8552 H   0  0  0  0  0  0
   -5.8599  -17.9075   -9.5560 H   0  0  0  0  0  0
   -9.2863  -19.8779  -10.9927 H   0  0  0  0  0  0
  -10.9021  -17.4906  -11.5134 H   0  0  0  0  0  0
   -5.3958  -13.4821   -9.5468 H   0  0  0  0  0  0
   -6.2367  -17.5630  -12.5957 H   0  0  0  0  0  0
   -4.7081  -17.7977  -11.7814 H   0  0  0  0  0  0
   -5.3125  -22.6501  -11.6224 H   0  0  0  0  0  0
   -7.5338  -22.1685  -12.7525 H   0  0  0  0  0  0
   -4.1118  -20.4682  -10.9452 H   0  0  0  0  0  0
  -10.0300  -17.9826   -8.5836 H   0  0  0  0  0  0
  -11.6540  -17.9797   -9.2188 H   0  0  0  0  0  0
  -12.8878  -16.2139   -8.5064 H   0  0  0  0  0  0
   -2.5435  -14.0847  -10.2095 H   0  0  0  0  0  0
   -3.6887  -14.6412  -11.3535 H   0  0  0  0  0  0
   -4.9123  -13.6286   -7.3345 H   0  0  0  0  0  0
   -9.0053  -13.1334   -8.8921 H   0  0  0  0  0  0
   -2.8821  -14.3550   -6.2441 H   0  0  0  0  0  0
   -3.7323  -15.6633   -7.0101 H   0  0  0  0  0  0
   -8.7403  -15.4744   -9.4009 H   0  0  0  0  0  0
   -2.0460  -15.7201   -8.8349 H   0  0  0  0  0  0
   -1.2552  -14.2991   -8.2084 H   0  0  0  0  0  0
   -3.1258  -12.2864   -7.0762 H   0  0  0  0  0  0
   -3.7084  -11.7467  -10.4525 H   0  0  0  0  0  0
  -14.2689  -14.3545   -7.6163 H   0  0  0  0  0  0
  -10.5993  -22.7285  -13.4879 H   0  0  0  0  0  0
  -11.9502  -23.8581  -13.4892 H   0  0  0  0  0  0
  -12.2681  -22.1643  -13.8077 H   0  0  0  0  0  0
  -13.4770  -22.0635  -10.4090 H   0  0  0  0  0  0
  -13.7848  -21.6444  -12.0792 H   0  0  0  0  0  0
  -13.8524  -23.3319  -11.6077 H   0  0  0  0  0  0
  -11.3594  -23.6632   -9.8639 H   0  0  0  0  0  0
  -11.8059  -24.6943  -11.2066 H   0  0  0  0  0  0
  -10.2134  -23.9405  -11.1556 H   0  0  0  0  0  0
   -1.4702  -16.9635   -6.7382 H   0  0  0  0  0  0
  -10.4149  -11.2551   -8.0730 H   0  0  0  0  0  0
   -4.7615  -13.0992  -12.9743 H   0  0  0  0  0  0
   -5.7483  -12.4731  -11.6635 H   0  0  0  0  0  0
   -4.7982  -11.3697  -12.6542 H   0  0  0  0  0  0
   -2.0680  -12.9800  -12.7121 H   0  0  0  0  0  0
   -2.2741  -11.2632  -12.4215 H   0  0  0  0  0  0
   -1.4677  -12.2333  -11.2143 H   0  0  0  0  0  0
    0.2213  -14.5051   -6.0440 H   0  0  0  0  0  0
   -1.1275  -15.1191   -5.0958 H   0  0  0  0  0  0
    0.3341  -16.0682   -5.2456 H   0  0  0  0  0  0
    0.8730  -15.8071   -8.3200 H   0  0  0  0  0  0
    0.9483  -17.2640   -7.3329 H   0  0  0  0  0  0
   -0.0896  -17.2146   -8.7577 H   0  0  0  0  0  0
  -14.5003  -11.9635   -6.9945 H   0  0  0  0  0  0
  -12.5843  -10.4334   -7.2175 H   0  0  0  0  0  0
  1  5  1  0  0  0
  1  6  1  0  0  0
  1 19  2  0  0  0
  2  4  1  0  0  0
  2  9  1  0  0  0
  2 20  2  0  0  0
  3  8  1  0  0  0
  3 15  1  0  0  0
  3 18  2  0  0  0
  4  6  1  0  0  0
  4 46  1  0  0  0
  5 11  1  0  0  0
  5 47  1  0  0  0
  6 12  1  0  0  0
  6 48  1  0  0  0
  7 10  1  0  0  0
  7 14  2  0  0  0
  8  9  1  0  0  0
  8 49  1  0  0  0
  9 17  1  0  0  0
  9 50  1  0  0  0
 10 12  1  0  0  0
 10 16  2  0  0  0
 11 24  1  0  0  0
 11 26  1  0  0  0
 11 51  1  0  0  0
 12 52  1  0  0  0
 12 53  1  0  0  0
 13 16  1  0  0  0
 13 14  1  0  0  0
 13 54  1  0  0  0
 14 55  1  0  0  0
 15 25  1  0  0  0
 16 56  1  0  0  0
 17 22  1  0  0  0
 17 57  1  0  0  0
 17 58  1  0  0  0
 21 23  1  0  0  0
 21 34  2  0  0  0
 21 27  1  0  0  0
 22 23  2  0  0  0
 22 30  1  0  0  0
 23 59  1  0  0  0
 24 33  1  0  0  0
 24 60  1  0  0  0
 24 61  1  0  0  0
 25 35  1  0  0  0
 25 36  1  0  0  0
 25 37  1  0  0  0
 26 29  1  0  0  0
 26 32  1  0  0  0
 26 62  1  0  0  0
 27 28  1  0  0  0
 27 39  2  0  0  0
 28 30  2  0  0  0
 28 63  1  0  0  0
 29 31  1  0  0  0
 29 64  1  0  0  0
 29 65  1  0  0  0
 30 66  1  0  0  0
 31 38  1  0  0  0
 31 67  1  0  0  0
 31 68  1  0  0  0
 32 69  1  0  0  0
 33 40  1  0  0  0
 33 41  1  0  0  0
 33 70  1  0  0  0
 34 44  1  0  0  0
 34 71  1  0  0  0
 35 72  1  0  0  0
 35 73  1  0  0  0
 35 74  1  0  0  0
 36 75  1  0  0  0
 36 76  1  0  0  0
 36 77  1  0  0  0
 37 78  1  0  0  0
 37 79  1  0  0  0
 37 80  1  0  0  0
 38 42  1  0  0  0
 38 43  1  0  0  0
 38 81  1  0  0  0
 39 45  1  0  0  0
 39 82  1  0  0  0
 40 83  1  0  0  0
 40 84  1  0  0  0
 40 85  1  0  0  0
 41 86  1  0  0  0
 41 87  1  0  0  0
 41 88  1  0  0  0
 42 89  1  0  0  0
 42 90  1  0  0  0
 42 91  1  0  0  0
 43 92  1  0  0  0
 43 93  1  0  0  0
 43 94  1  0  0  0
 44 45  2  0  0  0
 44 95  1  0  0  0
 45 96  1  0  0  0
M  END
> <s_m_entry_id>
26439

> <s_m_entry_name>
dock_pv.263

> <s_m_Source_Path>
/home/csk/Desktop/cluster/DUD-E-result/reni

> <s_m_Source_File>
dock_pv.maegz

> <i_m_Source_File_Index>
263

> <chembl_id>
CHEMBL3144128

> <chembl_pref_name>
None

> <i_lp_mmshare_version>
53161

> <r_lp_tautomer_probability>
0.499999999999999

> <s_lp_Force_Field>
OPLS_2005

> <r_lp_Energy>
20.706488

> <b_lp_Chiralities_Consistent>
1

> <s_lp_Variant>
CHEMBL286_lig1235-1

> <s_i_glide_gridfile>
glide-grid_3g6z

> <i_i_glide_lignum>
4014

> <i_i_glide_rotatable_bonds>
21

> <r_i_docking_score>
-6.95881617705077

> <r_i_glide_ligand_efficiency>
-0.154640359490017

> <r_i_glide_ligand_efficiency_sa>
-0.55003925857604

> <r_i_glide_ligand_efficiency_ln>
-1.44774387464498

> <r_i_glide_gscore>
-6.95881617705077

> <r_i_glide_lipo>
-3.57202627412606

> <r_i_glide_hbond>
-0.281126500825333

> <r_i_glide_metal>
0

> <r_i_glide_rewards>
-0.986178542013645

> <r_i_glide_evdw>
-47.2838745117188

> <r_i_glide_ecoul>
-2.65830183029175

> <r_i_glide_erotb>
0.685814434503415

> <r_i_glide_esite>
-0.0423602944594465

> <r_i_glide_emodel>
-59.3785812082036

> <r_i_glide_energy>
-49.9421763420105

> <r_i_glide_einternal>
17.0495071411133

> <i_i_glide_confnum>
128

> <i_i_glide_posenum>
313

> <r_i_glide_eff_state_penalty>
0

> <s_user_duplicate_titles>
CHEMBL286_lig1235

> <i_f3d_flags>
0

> <s_m_subgroup_title>
dock_pv

> <s_m_subgroupid>
dock_pv

> <b_m_subgroup_collapsed>
1

$$$$
CHEMBL286_lig25 
                    3D
 Schrodinger Suite 2021-1.
 81 83  0  0  1  0            999 V2000
   -1.8476  -14.2033   -9.7651 C   0  0  0  0  0  0
   -0.5820  -13.3306   -9.6199 C   0  0  0  0  0  0
   -0.8048  -11.8229   -9.8873 C   0  0  0  0  0  0
   -0.9887  -10.9584   -8.6175 C   0  0  0  0  0  0
   -2.2356  -11.2606   -7.7625 C   0  0  0  0  0  0
   -3.5735  -10.8365   -8.4090 C   0  0  0  0  0  0
   -4.8171  -11.4003   -7.6920 C   0  0  0  0  0  0
   -5.0145  -12.9064   -7.9440 C   0  0  0  0  0  0
   -1.7218  -15.5628   -9.0459 C   0  0  0  0  0  0
   -6.2767  -13.4891   -7.2977 C   0  0  0  0  0  0
   -6.3309  -14.9363   -7.4646 N   0  0  0  0  0  0
   -3.0074  -16.4250   -9.0646 C   0  0  0  0  0  0
   -3.3255  -17.1444  -10.3845 C   0  0  0  0  0  0
   -2.4780  -17.2565  -11.2708 O   0  0  0  0  0  0
   -4.5609  -17.6648  -10.4768 N   0  0  0  0  0  0
   -5.1065  -18.4304  -11.6085 C   0  0  2  0  0  0
   -5.3337  -17.5702  -12.9011 C   0  0  2  0  0  0
   -6.5523  -16.6066  -12.8747 C   0  0  0  0  0  0
   -6.5467  -15.5807  -11.7331 C   0  0  0  0  0  0
   -7.5855  -15.6375  -10.8836 N   0  0  0  0  0  0
   -5.6261  -14.7748  -11.6123 O   0  0  0  0  0  0
   -5.4691  -18.4538  -14.0105 O   0  0  0  0  0  0
   -7.6995  -14.9354   -9.5916 C   0  0  2  0  0  0
   -6.8825  -15.6382   -8.4681 C   0  0  0  0  0  0
   -9.1668  -14.8819   -9.2209 C   0  0  0  0  0  0
   -6.3664  -19.2428  -11.1892 C   0  0  0  0  0  0
   -6.8068  -16.8631   -8.4684 O   0  0  0  0  0  0
   -6.2408  -20.2405  -10.0316 C   0  0  0  0  0  0
   -5.0027  -20.6731   -9.5365 C   0  0  0  0  0  0
   -4.9484  -21.5806   -8.4822 C   0  0  0  0  0  0
   -6.1300  -22.0643   -7.9266 C   0  0  0  0  0  0
   -7.3656  -21.6515   -8.4176 C   0  0  0  0  0  0
   -7.4192  -20.7401   -9.4685 C   0  0  0  0  0  0
   -9.9675  -16.0371   -9.2209 C   0  0  0  0  0  0
  -11.3032  -15.9713   -8.8336 C   0  0  0  0  0  0
  -11.8470  -14.7532   -8.4336 C   0  0  0  0  0  0
  -11.0662  -13.6004   -8.4210 C   0  0  0  0  0  0
   -9.7322  -13.6645   -8.8207 C   0  0  0  0  0  0
   -2.0651  -14.3576  -10.8238 H   0  0  0  0  0  0
   -2.7071  -13.6694   -9.3668 H   0  0  0  0  0  0
    0.1691  -13.7090  -10.3152 H   0  0  0  0  0  0
   -0.1416  -13.4603   -8.6302 H   0  0  0  0  0  0
   -1.6295  -11.6750  -10.5856 H   0  0  0  0  0  0
    0.0716  -11.4401  -10.4119 H   0  0  0  0  0  0
   -0.9989   -9.9089   -8.9036 H   0  0  0  0  0  0
   -0.1027  -11.0734   -7.9914 H   0  0  0  0  0  0
   -2.1403  -10.7439   -6.8056 H   0  0  0  0  0  0
   -2.2372  -12.3196   -7.5095 H   0  0  0  0  0  0
   -3.6025  -11.1376   -9.4564 H   0  0  0  0  0  0
   -3.6309   -9.7468   -8.4158 H   0  0  0  0  0  0
   -5.7006  -10.8629   -8.0373 H   0  0  0  0  0  0
   -4.7500  -11.2019   -6.6205 H   0  0  0  0  0  0
   -4.1525  -13.4520   -7.5608 H   0  0  0  0  0  0
   -5.0493  -13.0889   -9.0200 H   0  0  0  0  0  0
   -1.4688  -15.3722   -8.0022 H   0  0  0  0  0  0
   -0.8792  -16.1257   -9.4510 H   0  0  0  0  0  0
   -7.1715  -12.9869   -7.6650 H   0  0  0  0  0  0
   -6.2686  -13.2736   -6.2281 H   0  0  0  0  0  0
   -5.8777  -15.4763   -6.7411 H   0  0  0  0  0  0
   -3.8629  -15.8262   -8.7527 H   0  0  0  0  0  0
   -2.8995  -17.2144   -8.3204 H   0  0  0  0  0  0
   -5.1912  -17.5297   -9.6958 H   0  0  0  0  0  0
   -4.3363  -19.1625  -11.8665 H   0  0  0  0  0  0
   -4.4400  -16.9748  -13.0955 H   0  0  0  0  0  0
   -7.4694  -17.1932  -12.8208 H   0  0  0  0  0  0
   -6.6065  -16.0460  -13.8064 H   0  0  0  0  0  0
   -8.2881  -16.3431  -11.0439 H   0  0  0  0  0  0
   -6.0542  -18.0630  -14.6798 H   0  0  0  0  0  0
   -7.3080  -13.9274   -9.7435 H   0  0  0  0  0  0
   -6.7498  -19.7924  -12.0507 H   0  0  0  0  0  0
   -7.1496  -18.5379  -10.9091 H   0  0  0  0  0  0
   -4.0736  -20.3150   -9.9529 H   0  0  0  0  0  0
   -3.9925  -21.9048   -8.0965 H   0  0  0  0  0  0
   -6.0870  -22.7677   -7.1090 H   0  0  0  0  0  0
   -8.2766  -22.0325   -7.9799 H   0  0  0  0  0  0
   -8.3798  -20.4209   -9.8457 H   0  0  0  0  0  0
   -9.5496  -16.9926   -9.5057 H   0  0  0  0  0  0
  -11.9152  -16.8624   -8.8360 H   0  0  0  0  0  0
  -12.8832  -14.7043   -8.1311 H   0  0  0  0  0  0
  -11.4955  -12.6590   -8.1086 H   0  0  0  0  0  0
   -9.1371  -12.7653   -8.8076 H   0  0  0  0  0  0
  1  2  1  0  0  0
  1  9  1  0  0  0
  1 39  1  0  0  0
  1 40  1  0  0  0
  2  3  1  0  0  0
  2 41  1  0  0  0
  2 42  1  0  0  0
  3  4  1  0  0  0
  3 43  1  0  0  0
  3 44  1  0  0  0
  4  5  1  0  0  0
  4 45  1  0  0  0
  4 46  1  0  0  0
  5  6  1  0  0  0
  5 47  1  0  0  0
  5 48  1  0  0  0
  6  7  1  0  0  0
  6 49  1  0  0  0
  6 50  1  0  0  0
  7  8  1  0  0  0
  7 51  1  0  0  0
  7 52  1  0  0  0
  8 10  1  0  0  0
  8 53  1  0  0  0
  8 54  1  0  0  0
  9 12  1  0  0  0
  9 55  1  0  0  0
  9 56  1  0  0  0
 10 11  1  0  0  0
 10 57  1  0  0  0
 10 58  1  0  0  0
 11 24  1  0  0  0
 11 59  1  0  0  0
 12 13  1  0  0  0
 12 60  1  0  0  0
 12 61  1  0  0  0
 13 14  2  0  0  0
 13 15  1  0  0  0
 15 16  1  0  0  0
 15 62  1  0  0  0
 16 17  1  0  0  0
 16 26  1  0  0  0
 16 63  1  0  0  0
 17 18  1  0  0  0
 17 22  1  0  0  0
 17 64  1  0  0  0
 18 19  1  0  0  0
 18 65  1  0  0  0
 18 66  1  0  0  0
 19 20  1  0  0  0
 19 21  2  0  0  0
 20 23  1  0  0  0
 20 67  1  0  0  0
 22 68  1  0  0  0
 23 24  1  0  0  0
 23 25  1  0  0  0
 23 69  1  0  0  0
 24 27  2  0  0  0
 25 34  2  0  0  0
 25 38  1  0  0  0
 26 28  1  0  0  0
 26 70  1  0  0  0
 26 71  1  0  0  0
 28 29  2  0  0  0
 28 33  1  0  0  0
 29 30  1  0  0  0
 29 72  1  0  0  0
 30 31  2  0  0  0
 30 73  1  0  0  0
 31 32  1  0  0  0
 31 74  1  0  0  0
 32 33  2  0  0  0
 32 75  1  0  0  0
 33 76  1  0  0  0
 34 35  1  0  0  0
 34 77  1  0  0  0
 35 36  2  0  0  0
 35 78  1  0  0  0
 36 37  1  0  0  0
 36 79  1  0  0  0
 37 38  2  0  0  0
 37 80  1  0  0  0
 38 81  1  0  0  0
M  END
> <s_m_entry_id>
26440

> <s_m_entry_name>
dock_pv.264

> <s_m_Source_Path>
/home/csk/Desktop/cluster/DUD-E-result/reni

> <s_m_Source_File>
dock_pv.maegz

> <i_m_Source_File_Index>
264

> <chembl_id>
CHEMBL4554001

> <chembl_pref_name>
None

> <i_lp_mmshare_version>
53161

> <r_lp_tautomer_probability>
1

> <s_lp_Force_Field>
OPLS_2005

> <r_lp_Energy>
13.534846

> <b_lp_Chiralities_Consistent>
1

> <s_lp_Variant>
CHEMBL286_lig25 -1

> <s_i_glide_gridfile>
glide-grid_3g6z

> <i_i_glide_lignum>
25

> <i_i_glide_rotatable_bonds>
4

> <r_i_docking_score>
-6.95661556417653

> <r_i_glide_ligand_efficiency>
-0.183068830636224

> <r_i_glide_ligand_efficiency_sa>
-0.615472905604152

> <r_i_glide_ligand_efficiency_ln>
-1.50005095853291

> <r_i_glide_gscore>
-6.95661556417653

> <r_i_glide_lipo>
-3.00935112760588

> <r_i_glide_hbond>
-0.386790958002342

> <r_i_glide_metal>
0

> <r_i_glide_rewards>
-0.913858129801338

> <r_i_glide_evdw>
-40.5952453613281

> <r_i_glide_ecoul>
-5.62315893173218

> <r_i_glide_erotb>
0.226620759059263

> <r_i_glide_esite>
0

> <r_i_glide_emodel>
-62.4839871383949

> <r_i_glide_energy>
-46.2184042930603

> <r_i_glide_einternal>
3.42133283615112

> <i_i_glide_confnum>
3

> <i_i_glide_posenum>
389

> <r_i_glide_eff_state_penalty>
0

> <s_user_duplicate_titles>
CHEMBL286_lig25 

> <i_f3d_flags>
0

> <s_m_subgroup_title>
dock_pv

> <s_m_subgroupid>
dock_pv

> <b_m_subgroup_collapsed>
1

$$$$
CHEMBL286_lig2613
                    3D
 Schrodinger Suite 2021-1.
 95 97  0  0  1  0            999 V2000
  -11.4607  -14.5694   -8.1489 C   0  0  0  0  0  0
  -12.3847  -15.6235   -8.0886 C   0  0  0  0  0  0
  -12.1146  -16.8025   -8.8053 C   0  0  0  0  0  0
  -10.9396  -16.9245   -9.5364 C   0  0  0  0  0  0
   -9.9957  -15.9041   -9.5427 C   0  0  0  0  0  0
  -10.2545  -14.7326   -8.8237 C   0  0  0  0  0  0
  -11.6837  -13.3755   -7.5160 O   0  0  0  0  0  0
  -12.6131  -12.5226   -8.1760 C   0  0  0  0  0  0
  -12.8111  -11.2560   -7.3383 C   0  0  0  0  0  0
  -11.6196  -10.2835   -7.3707 C   0  0  0  0  0  0
  -10.4733  -10.8622   -6.7820 O   0  0  0  0  0  0
   -9.3618   -9.9854   -6.7402 C   0  0  0  0  0  0
  -13.5198  -15.4287   -7.3316 O   0  0  0  0  0  0
  -14.2254  -16.5622   -6.8502 C   0  0  0  0  0  0
   -8.7468  -16.0325  -10.4117 C   0  0  0  0  0  0
   -7.4296  -16.2819   -9.6254 C   0  0  1  0  0  0
   -6.9623  -17.7598   -9.6969 C   0  0  0  0  0  0
   -6.2732  -15.3163  -10.0261 C   0  0  0  0  0  0
   -6.5500  -13.8663   -9.5928 C   0  0  0  0  0  0
   -5.8696  -15.3846  -11.5175 C   0  0  0  0  0  0
   -7.9332  -18.8947   -9.2681 C   0  0  1  0  0  0
   -7.1583  -20.2285   -9.0060 C   0  0  2  0  0  0
   -8.6761  -18.4654   -8.0862 N   0  0  0  0  0  0
   -6.2299  -20.7057  -10.1617 C   0  0  0  0  0  0
   -8.0173  -21.2869   -8.6258 O   0  0  0  0  0  0
   -6.9095  -21.1650  -11.5034 C   0  0  2  0  0  0
   -7.4620  -22.6085  -11.4305 C   0  0  0  0  0  0
   -6.0142  -20.9479  -12.7645 C   0  0  0  0  0  0
   -4.6547  -21.6812  -12.6884 C   0  0  0  0  0  0
   -5.8359  -19.4497  -13.0877 C   0  0  0  0  0  0
   -7.0956  -23.3796  -10.5412 O   0  0  0  0  0  0
   -8.3897  -22.9632  -12.3352 N   0  0  0  0  0  0
   -9.1379  -24.2197  -12.2749 C   0  0  0  0  0  0
  -10.1873  -24.2651  -11.1332 C   0  0  0  0  0  0
  -11.2584  -23.1878  -11.2567 C   0  0  0  0  0  0
  -12.5094  -23.5097  -11.8147 C   0  0  0  0  0  0
  -13.4706  -22.5183  -12.0306 C   0  0  0  0  0  0
  -10.9681  -21.8645  -10.8855 C   0  0  0  0  0  0
  -11.9037  -20.8958  -11.2217 C   0  0  0  0  0  0
  -13.1351  -21.2117  -11.7202 C   0  0  0  0  0  0
  -13.8390  -20.0639  -11.9257 O   0  0  0  0  0  0
  -12.8496  -19.0668  -11.9723 C   0  0  0  0  0  0
  -11.7659  -19.5476  -11.2203 O   0  0  0  0  0  0
  -12.8103  -17.6255   -8.8252 H   0  0  0  0  0  0
  -10.7373  -17.8292  -10.0816 H   0  0  0  0  0  0
   -9.5417  -13.9189   -8.8464 H   0  0  0  0  0  0
  -12.2772  -12.2755   -9.1906 H   0  0  0  0  0  0
  -13.5747  -13.0311   -8.2800 H   0  0  0  0  0  0
  -13.6888  -10.7336   -7.7105 H   0  0  0  0  0  0
  -13.0402  -11.5257   -6.3055 H   0  0  0  0  0  0
  -11.4032  -10.0066   -8.4057 H   0  0  0  0  0  0
  -11.8842   -9.3765   -6.8214 H   0  0  0  0  0  0
   -8.5127  -10.4876   -6.2836 H   0  0  0  0  0  0
   -9.0736   -9.6691   -7.7431 H   0  0  0  0  0  0
   -9.5765   -9.1011   -6.1383 H   0  0  0  0  0  0
  -15.0503  -16.1917   -6.2394 H   0  0  0  0  0  0
  -14.6687  -17.1627   -7.6208 H   0  0  0  0  0  0
  -13.5779  -17.2461   -6.3016 H   0  0  0  0  0  0
   -8.6661  -15.1189  -10.9929 H   0  0  0  0  0  0
   -8.8945  -16.7955  -11.1779 H   0  0  0  0  0  0
   -7.6235  -16.0722   -8.5712 H   0  0  0  0  0  0
   -6.0452  -17.8381   -9.1125 H   0  0  0  0  0  0
   -6.6703  -17.9672  -10.7247 H   0  0  0  0  0  0
   -5.3958  -15.6218   -9.4566 H   0  0  0  0  0  0
   -7.3710  -13.4132  -10.1496 H   0  0  0  0  0  0
   -6.7927  -13.8064   -8.5317 H   0  0  0  0  0  0
   -5.6601  -13.2582   -9.7520 H   0  0  0  0  0  0
   -6.6917  -15.1325  -12.1852 H   0  0  0  0  0  0
   -5.0587  -14.6911  -11.7385 H   0  0  0  0  0  0
   -5.5146  -16.3748  -11.7973 H   0  0  0  0  0  0
   -8.6589  -19.0495  -10.0694 H   0  0  0  0  0  0
   -6.5044  -20.0640   -8.1557 H   0  0  0  0  0  0
   -8.0367  -18.2096   -7.3474 H   0  0  0  0  0  0
   -9.1980  -17.6259   -8.3038 H   0  0  0  0  0  0
   -5.5698  -21.4919   -9.7870 H   0  0  0  0  0  0
   -5.5258  -19.9040  -10.3680 H   0  0  0  0  0  0
   -8.1575  -21.8477   -9.3976 H   0  0  0  0  0  0
   -7.7889  -20.5346  -11.6445 H   0  0  0  0  0  0
   -6.5459  -21.3593  -13.6237 H   0  0  0  0  0  0
   -4.0277  -21.2832  -11.8929 H   0  0  0  0  0  0
   -4.7926  -22.7450  -12.4977 H   0  0  0  0  0  0
   -4.0986  -21.5971  -13.6203 H   0  0  0  0  0  0
   -5.1920  -18.9448  -12.3679 H   0  0  0  0  0  0
   -5.4023  -19.2903  -14.0702 H   0  0  0  0  0  0
   -6.7956  -18.9315  -13.0923 H   0  0  0  0  0  0
   -8.5894  -22.3539  -13.1186 H   0  0  0  0  0  0
   -8.4739  -25.0870  -12.2572 H   0  0  0  0  0  0
   -9.6694  -24.2631  -13.2274 H   0  0  0  0  0  0
   -9.6986  -24.1899  -10.1605 H   0  0  0  0  0  0
  -10.6661  -25.2444  -11.1209 H   0  0  0  0  0  0
  -12.7376  -24.5217  -12.1098 H   0  0  0  0  0  0
  -14.4208  -22.7695  -12.4751 H   0  0  0  0  0  0
  -10.0038  -21.5874  -10.4860 H   0  0  0  0  0  0
  -13.0687  -18.0677  -11.6220 H   0  0  0  0  0  0
  -12.6700  -18.8588  -13.0205 H   0  0  0  0  0  0
  1  2  2  0  0  0
  1  6  1  0  0  0
  1  7  1  0  0  0
  2  3  1  0  0  0
  2 13  1  0  0  0
  3  4  2  0  0  0
  3 44  1  0  0  0
  4  5  1  0  0  0
  4 45  1  0  0  0
  5  6  2  0  0  0
  5 15  1  0  0  0
  6 46  1  0  0  0
  7  8  1  0  0  0
  8  9  1  0  0  0
  8 47  1  0  0  0
  8 48  1  0  0  0
  9 10  1  0  0  0
  9 49  1  0  0  0
  9 50  1  0  0  0
 10 11  1  0  0  0
 10 51  1  0  0  0
 10 52  1  0  0  0
 11 12  1  0  0  0
 12 53  1  0  0  0
 12 54  1  0  0  0
 12 55  1  0  0  0
 13 14  1  0  0  0
 14 56  1  0  0  0
 14 57  1  0  0  0
 14 58  1  0  0  0
 15 16  1  0  0  0
 15 59  1  0  0  0
 15 60  1  0  0  0
 16 17  1  0  0  0
 16 18  1  0  0  0
 16 61  1  0  0  0
 17 21  1  0  0  0
 17 62  1  0  0  0
 17 63  1  0  0  0
 18 19  1  0  0  0
 18 20  1  0  0  0
 18 64  1  0  0  0
 19 65  1  0  0  0
 19 66  1  0  0  0
 19 67  1  0  0  0
 20 68  1  0  0  0
 20 69  1  0  0  0
 20 70  1  0  0  0
 21 22  1  0  0  0
 21 23  1  0  0  0
 21 71  1  0  0  0
 22 24  1  0  0  0
 22 25  1  0  0  0
 22 72  1  0  0  0
 23 73  1  0  0  0
 23 74  1  0  0  0
 24 26  1  0  0  0
 24 75  1  0  0  0
 24 76  1  0  0  0
 25 77  1  0  0  0
 26 27  1  0  0  0
 26 28  1  0  0  0
 26 78  1  0  0  0
 27 31  2  0  0  0
 27 32  1  0  0  0
 28 29  1  0  0  0
 28 30  1  0  0  0
 28 79  1  0  0  0
 29 80  1  0  0  0
 29 81  1  0  0  0
 29 82  1  0  0  0
 30 83  1  0  0  0
 30 84  1  0  0  0
 30 85  1  0  0  0
 32 33  1  0  0  0
 32 86  1  0  0  0
 33 34  1  0  0  0
 33 87  1  0  0  0
 33 88  1  0  0  0
 34 35  1  0  0  0
 34 89  1  0  0  0
 34 90  1  0  0  0
 35 36  2  0  0  0
 35 38  1  0  0  0
 36 37  1  0  0  0
 36 91  1  0  0  0
 37 40  2  0  0  0
 37 92  1  0  0  0
 38 39  2  0  0  0
 38 93  1  0  0  0
 39 40  1  0  0  0
 39 43  1  0  0  0
 40 41  1  0  0  0
 41 42  1  0  0  0
 42 43  1  0  0  0
 42 94  1  0  0  0
 42 95  1  0  0  0
M  END
> <s_m_entry_id>
26441

> <s_m_entry_name>
dock_pv.265

> <s_m_Source_Path>
/home/csk/Desktop/cluster/DUD-E-result/reni

> <s_m_Source_File>
dock_pv.maegz

> <i_m_Source_File_Index>
265

> <chembl_id>
CHEMBL3633121

> <chembl_pref_name>
None

> <i_lp_mmshare_version>
53161

> <r_lp_tautomer_probability>
1

> <s_lp_Force_Field>
OPLS_2005

> <r_lp_Energy>
50.982318

> <b_lp_Chiralities_Consistent>
1

> <s_lp_Variant>
CHEMBL286_lig2613-1

> <s_i_glide_gridfile>
glide-grid_3g6z

> <i_i_glide_lignum>
6678

> <i_i_glide_rotatable_bonds>
21

> <r_i_docking_score>
-6.95474741604867

> <r_i_glide_ligand_efficiency>
-0.161738312001132

> <r_i_glide_ligand_efficiency_sa>
-0.566633687844581

> <r_i_glide_ligand_efficiency_ln>
-1.46071310742115

> <r_i_glide_gscore>
-6.95474741604867

> <r_i_glide_lipo>
-3.50524036329732

> <r_i_glide_hbond>
-0.502215830000526

> <r_i_glide_metal>
0

> <r_i_glide_rewards>
-0.382702580160169

> <r_i_glide_evdw>
-40.5553512573242

> <r_i_glide_ecoul>
-7.82297563552856

> <r_i_glide_erotb>
0.755577430954612

> <r_i_glide_esite>
-0.118952165349774

> <r_i_glide_emodel>
-54.7055677255105

> <r_i_glide_energy>
-48.3783268928528

> <r_i_glide_einternal>
16.4599628448486

> <i_i_glide_confnum>
28

> <i_i_glide_posenum>
125

> <r_i_glide_eff_state_penalty>
0

> <s_user_duplicate_titles>
CHEMBL286_lig2613

> <i_f3d_flags>
0

> <s_m_subgroup_title>
dock_pv

> <s_m_subgroupid>
dock_pv

> <b_m_subgroup_collapsed>
1

$$$$
CHEMBL286_lig2483
                    3D
 Schrodinger Suite 2021-1.
 74 75  0  0  1  0            999 V2000
   -9.2923  -20.6311   -9.1277 C   0  0  0  0  0  0
   -8.5392  -19.3673   -9.5938 C   0  0  0  0  0  0
   -7.0842  -19.3500   -9.0675 C   0  0  0  0  0  0
  -13.0694  -15.7205   -7.9500 C   0  0  0  0  0  0
  -12.5262  -14.4552   -7.7435 C   0  0  0  0  0  0
  -11.2366  -14.1767   -8.1855 C   0  0  0  0  0  0
  -10.4735  -15.1625   -8.8210 C   0  0  0  0  0  0
  -11.0211  -16.4399   -9.0391 C   0  0  0  0  0  0
  -12.3280  -16.6981   -8.6118 C   0  0  0  0  0  0
  -10.3199  -17.4621   -9.7191 N   0  0  0  0  0  0
   -9.2493  -18.1304   -8.9509 C   0  0  0  0  0  0
   -8.6223  -19.3135  -11.0554 N   0  0  2  0  0  0
   -9.8624  -18.8794  -11.7137 C   0  0  0  0  0  0
  -10.6728  -17.7870  -10.9946 C   0  0  0  0  0  0
  -11.6206  -17.2630  -11.5853 O   0  0  0  0  0  0
   -7.9397  -20.4007  -11.7811 C   0  0  0  0  0  0
   -7.0928  -19.9410  -12.9935 C   0  0  1  0  0  0
   -6.0296  -18.8068  -12.7633 C   0  0  2  0  0  0
   -6.4290  -21.1486  -13.4789 N   0  0  0  0  0  0
   -6.5834  -17.4438  -12.2444 C   0  0  0  0  0  0
   -5.4105  -18.5566  -14.0200 O   0  0  0  0  0  0
   -5.6274  -16.2119  -12.2171 C   0  0  2  0  0  0
   -4.4741  -16.4401  -11.2057 C   0  0  0  0  0  0
   -3.2332  -16.1365  -11.6210 N   0  0  0  0  0  0
   -4.7102  -16.8634  -10.0738 O   0  0  0  0  0  0
   -6.3751  -14.8589  -11.9421 C   0  0  0  0  0  0
   -8.8637  -14.7526   -9.2889 Cl  0  0  0  0  0  0
   -7.6081  -14.6239  -12.8480 C   0  0  0  0  0  0
   -5.4603  -13.6157  -12.0216 C   0  0  0  0  0  0
   -2.0013  -16.2786  -10.8445 C   0  0  0  0  0  0
   -1.2533  -17.6107  -11.1009 C   0  0  0  0  0  0
   -2.0126  -18.8367  -10.5566 C   0  0  0  0  0  0
    0.1771  -17.5638  -10.5321 C   0  0  0  0  0  0
   -9.4675  -20.6142   -8.0528 H   0  0  0  0  0  0
  -10.2622  -20.7272   -9.6258 H   0  0  0  0  0  0
   -8.7341  -21.5398   -9.3593 H   0  0  0  0  0  0
   -7.0733  -19.6317   -8.0214 H   0  0  0  0  0  0
   -6.4222  -20.0608   -9.5524 H   0  0  0  0  0  0
   -6.6071  -18.3773   -9.1797 H   0  0  0  0  0  0
  -14.0768  -15.9378   -7.6210 H   0  0  0  0  0  0
  -13.1061  -13.6924   -7.2440 H   0  0  0  0  0  0
  -10.8166  -13.1937   -8.0237 H   0  0  0  0  0  0
  -12.7815  -17.6592   -8.8192 H   0  0  0  0  0  0
   -8.5004  -17.3393   -8.9501 H   0  0  0  0  0  0
   -9.4697  -18.2621   -7.8892 H   0  0  0  0  0  0
   -9.6267  -18.4631  -12.6934 H   0  0  0  0  0  0
  -10.5376  -19.7230  -11.8539 H   0  0  0  0  0  0
   -8.6888  -21.1149  -12.1288 H   0  0  0  0  0  0
   -7.2961  -20.9839  -11.1266 H   0  0  0  0  0  0
   -7.7896  -19.6446  -13.7748 H   0  0  0  0  0  0
   -5.2725  -19.1623  -12.0636 H   0  0  0  0  0  0
   -7.1309  -21.7928  -13.8291 H   0  0  0  0  0  0
   -5.8693  -20.9000  -14.2784 H   0  0  0  0  0  0
   -6.9515  -17.5491  -11.2303 H   0  0  0  0  0  0
   -7.4691  -17.2181  -12.8212 H   0  0  0  0  0  0
   -6.0772  -18.1988  -14.6290 H   0  0  0  0  0  0
   -5.2015  -16.1288  -13.2158 H   0  0  0  0  0  0
   -3.1480  -15.7292  -12.5443 H   0  0  0  0  0  0
   -6.7420  -14.9011  -10.9185 H   0  0  0  0  0  0
   -7.3573  -14.7456  -13.9034 H   0  0  0  0  0  0
   -8.4277  -15.3027  -12.6145 H   0  0  0  0  0  0
   -8.0119  -13.6194  -12.7207 H   0  0  0  0  0  0
   -5.0696  -13.4764  -13.0294 H   0  0  0  0  0  0
   -6.0055  -12.7088  -11.7656 H   0  0  0  0  0  0
   -4.6164  -13.6738  -11.3353 H   0  0  0  0  0  0
   -2.1961  -16.1577   -9.7764 H   0  0  0  0  0  0
   -1.3572  -15.4386  -11.1132 H   0  0  0  0  0  0
   -1.1586  -17.7407  -12.1800 H   0  0  0  0  0  0
   -2.1909  -18.7539   -9.4830 H   0  0  0  0  0  0
   -1.4601  -19.7594  -10.7302 H   0  0  0  0  0  0
   -2.9803  -18.9566  -11.0436 H   0  0  0  0  0  0
    0.1701  -17.4216   -9.4505 H   0  0  0  0  0  0
    0.7170  -18.4891  -10.7415 H   0  0  0  0  0  0
    0.7528  -16.7485  -10.9711 H   0  0  0  0  0  0
  1  2  1  0  0  0
  1 34  1  0  0  0
  1 35  1  0  0  0
  1 36  1  0  0  0
  2  3  1  0  0  0
  2 11  1  0  0  0
  2 12  1  0  0  0
  3 37  1  0  0  0
  3 38  1  0  0  0
  3 39  1  0  0  0
  4  5  2  0  0  0
  4  9  1  0  0  0
  4 40  1  0  0  0
  5  6  1  0  0  0
  5 41  1  0  0  0
  6  7  2  0  0  0
  6 42  1  0  0  0
  7  8  1  0  0  0
  7 27  1  0  0  0
  8  9  2  0  0  0
  8 10  1  0  0  0
  9 43  1  0  0  0
 10 11  1  0  0  0
 10 14  1  0  0  0
 11 44  1  0  0  0
 11 45  1  0  0  0
 12 13  1  0  0  0
 12 16  1  0  0  0
 13 14  1  0  0  0
 13 46  1  0  0  0
 13 47  1  0  0  0
 14 15  2  0  0  0
 16 17  1  0  0  0
 16 48  1  0  0  0
 16 49  1  0  0  0
 17 18  1  0  0  0
 17 19  1  0  0  0
 17 50  1  0  0  0
 18 20  1  0  0  0
 18 21  1  0  0  0
 18 51  1  0  0  0
 19 52  1  0  0  0
 19 53  1  0  0  0
 20 22  1  0  0  0
 20 54  1  0  0  0
 20 55  1  0  0  0
 21 56  1  0  0  0
 22 23  1  0  0  0
 22 26  1  0  0  0
 22 57  1  0  0  0
 23 24  1  0  0  0
 23 25  2  0  0  0
 24 30  1  0  0  0
 24 58  1  0  0  0
 26 28  1  0  0  0
 26 29  1  0  0  0
 26 59  1  0  0  0
 28 60  1  0  0  0
 28 61  1  0  0  0
 28 62  1  0  0  0
 29 63  1  0  0  0
 29 64  1  0  0  0
 29 65  1  0  0  0
 30 31  1  0  0  0
 30 66  1  0  0  0
 30 67  1  0  0  0
 31 32  1  0  0  0
 31 33  1  0  0  0
 31 68  1  0  0  0
 32 69  1  0  0  0
 32 70  1  0  0  0
 32 71  1  0  0  0
 33 72  1  0  0  0
 33 73  1  0  0  0
 33 74  1  0  0  0
M  END
> <s_m_entry_id>
26442

> <s_m_entry_name>
dock_pv.266

> <s_m_Source_Path>
/home/csk/Desktop/cluster/DUD-E-result/reni

> <s_m_Source_File>
dock_pv.maegz

> <i_m_Source_File_Index>
266

> <chembl_id>
CHEMBL2387444

> <chembl_pref_name>
None

> <i_lp_mmshare_version>
53161

> <r_lp_tautomer_probability>
1

> <s_lp_Force_Field>
OPLS_2005

> <r_lp_Energy>
73.106045

> <b_lp_Chiralities_Consistent>
1

> <s_lp_Variant>
CHEMBL286_lig2483-1

> <s_i_glide_gridfile>
glide-grid_3g6z

> <i_i_glide_lignum>
6543

> <i_i_glide_rotatable_bonds>
12

> <r_i_docking_score>
-6.95448213741085

> <r_i_glide_ligand_efficiency>
-0.210741882951844

> <r_i_glide_ligand_efficiency_sa>
-0.675961823548166

> <r_i_glide_ligand_efficiency_ln>
-1.54664081897879

> <r_i_glide_gscore>
-6.95448213741085

> <r_i_glide_lipo>
-2.66502003866474

> <r_i_glide_hbond>
-1.10534937662256

> <r_i_glide_metal>
0

> <r_i_glide_rewards>
-1.03942478654561

> <r_i_glide_evdw>
-34.0101852416992

> <r_i_glide_ecoul>
-8.06032085418701

> <r_i_glide_erotb>
0.788806796826508

> <r_i_glide_esite>
-0.0239373421914371

> <r_i_glide_emodel>
-60.1119780360229

> <r_i_glide_energy>
-42.0705060958862

> <r_i_glide_einternal>
3.62118792533875

> <i_i_glide_confnum>
22

> <i_i_glide_posenum>
285

> <r_i_glide_eff_state_penalty>
0

> <s_user_duplicate_titles>
CHEMBL286_lig2483

> <i_f3d_flags>
0

> <s_m_subgroup_title>
dock_pv

> <s_m_subgroupid>
dock_pv

> <b_m_subgroup_collapsed>
1

$$$$
CHEMBL286_lig2600
                    3D
 Schrodinger Suite 2021-1.
101102  0  0  1  0            999 V2000
   -2.5797  -16.1055   -8.2683 C   0  0  0  0  0  0
   -1.6227  -15.7592   -9.4373 C   0  0  0  0  0  0
   -1.3674  -17.0546  -10.2534 C   0  0  0  0  0  0
  -10.8279  -13.7207   -8.5495 C   0  0  0  0  0  0
  -12.2182  -13.8875   -8.5178 C   0  0  0  0  0  0
  -12.7647  -15.1557   -8.6731 C   0  0  0  0  0  0
  -11.9492  -16.2740   -8.7826 C   0  0  0  0  0  0
  -10.5621  -16.1192   -8.8337 C   0  0  0  0  0  0
  -10.0108  -14.8328   -8.8210 C   0  0  0  0  0  0
  -10.3408  -12.4633   -8.2688 O   0  0  0  0  0  0
   -8.9523  -12.2708   -8.0232 C   0  0  0  0  0  0
   -8.7107  -10.8278   -7.5106 C   0  0  0  0  0  0
   -9.8036   -9.7540   -7.7721 C   0  0  0  0  0  0
  -11.0604  -10.0217   -7.1853 O   0  0  0  0  0  0
  -11.1789   -9.6409   -5.8360 C   0  0  0  0  0  0
  -13.0687  -12.8261   -8.3472 O   0  0  0  0  0  0
  -13.2583  -12.4307   -6.9958 C   0  0  0  0  0  0
   -9.6425  -17.3229   -8.6959 C   0  0  0  0  0  0
   -9.0168  -17.9095   -9.9977 C   0  0  1  0  0  0
   -7.5345  -18.3096   -9.7002 C   0  0  0  0  0  0
   -9.8120  -19.0775  -10.6758 C   0  0  0  0  0  0
  -11.3008  -18.7906  -10.9344 C   0  0  0  0  0  0
   -9.5949  -20.4584  -10.0060 C   0  0  0  0  0  0
   -6.7252  -18.8217  -10.9178 C   0  0  1  0  0  0
   -6.1407  -17.7409  -11.8830 C   0  0  2  0  0  0
   -5.6445  -19.6591  -10.4053 N   0  0  0  0  0  0
   -6.7109  -16.2879  -11.8224 C   0  0  0  0  0  0
   -6.2659  -18.2060  -13.2193 O   0  0  0  0  0  0
   -5.6350  -15.2015  -12.0917 C   0  0  2  0  0  0
   -4.6617  -15.0082  -10.9072 C   0  0  0  0  0  0
   -6.1570  -13.8461  -12.6964 C   0  0  0  0  0  0
   -5.1243  -12.6797  -12.6673 C   0  0  0  0  0  0
   -7.4916  -13.3688  -12.1000 C   0  0  0  0  0  0
   -5.0922  -14.7678   -9.7743 O   0  0  0  0  0  0
   -3.3550  -15.0344  -11.2209 N   0  0  0  0  0  0
   -2.2464  -14.6503  -10.3452 C   0  0  0  0  0  0
   -0.2473  -15.2715   -8.8716 C   0  0  0  0  0  0
   -0.2540  -13.9087   -8.1754 C   0  0  0  0  0  0
    0.0062  -12.7445   -8.9116 C   0  0  0  0  0  0
   -0.0140  -11.4950   -8.2898 C   0  0  0  0  0  0
   -0.2629  -11.4027   -6.9213 C   0  0  0  0  0  0
   -0.4987  -12.5592   -6.1765 C   0  0  0  0  0  0
   -0.5000  -13.8088   -6.8005 C   0  0  0  0  0  0
    0.2738  -10.0692   -9.2194 Cl  0  0  0  0  0  0
   -3.4900  -16.5879   -8.6323 H   0  0  0  0  0  0
   -2.1276  -16.7939   -7.5538 H   0  0  0  0  0  0
   -2.8870  -15.2157   -7.7241 H   0  0  0  0  0  0
   -2.2968  -17.4932  -10.6136 H   0  0  0  0  0  0
   -0.7380  -16.8634  -11.1217 H   0  0  0  0  0  0
   -0.8673  -17.8144   -9.6492 H   0  0  0  0  0  0
  -13.8369  -15.2726   -8.6530 H   0  0  0  0  0  0
  -12.4098  -17.2450   -8.7673 H   0  0  0  0  0  0
   -8.9406  -14.7315   -8.8671 H   0  0  0  0  0  0
   -8.5305  -12.9995   -7.3395 H   0  0  0  0  0  0
   -8.3999  -12.4631   -8.9503 H   0  0  0  0  0  0
   -8.4730  -10.8348   -6.4502 H   0  0  0  0  0  0
   -7.8091  -10.4885   -8.0210 H   0  0  0  0  0  0
   -9.4691   -8.7613   -7.4800 H   0  0  0  0  0  0
  -10.0159   -9.6643   -8.8211 H   0  0  0  0  0  0
  -12.2442   -9.6191   -5.6215 H   0  0  0  0  0  0
  -10.6812  -10.3732   -5.2034 H   0  0  0  0  0  0
  -10.7791   -8.6485   -5.6288 H   0  0  0  0  0  0
  -13.7975  -11.4812   -6.9686 H   0  0  0  0  0  0
  -13.8564  -13.1654   -6.4506 H   0  0  0  0  0  0
  -12.3144  -12.2867   -6.4668 H   0  0  0  0  0  0
  -10.1731  -18.0625   -8.1083 H   0  0  0  0  0  0
   -8.8555  -17.0062   -8.0076 H   0  0  0  0  0  0
   -9.0123  -17.1024  -10.7262 H   0  0  0  0  0  0
   -7.5578  -19.0685   -8.9133 H   0  0  0  0  0  0
   -6.9989  -17.4810   -9.2368 H   0  0  0  0  0  0
   -9.4054  -19.1698  -11.6836 H   0  0  0  0  0  0
  -11.8841  -18.8584  -10.0227 H   0  0  0  0  0  0
  -11.4565  -17.8082  -11.3852 H   0  0  0  0  0  0
  -11.7124  -19.5268  -11.6233 H   0  0  0  0  0  0
   -9.4681  -20.3780   -8.9232 H   0  0  0  0  0  0
  -10.4105  -21.1544  -10.2128 H   0  0  0  0  0  0
   -8.6863  -20.9331  -10.3749 H   0  0  0  0  0  0
   -7.3487  -19.5093  -11.4915 H   0  0  0  0  0  0
   -5.0657  -17.6654  -11.6897 H   0  0  0  0  0  0
   -5.0058  -19.0984   -9.8590 H   0  0  0  0  0  0
   -6.0192  -20.3616   -9.7879 H   0  0  0  0  0  0
   -7.1460  -16.0459  -10.8538 H   0  0  0  0  0  0
   -7.5434  -16.1994  -12.5230 H   0  0  0  0  0  0
   -7.1681  -18.0634  -13.5432 H   0  0  0  0  0  0
   -5.0690  -15.6539  -12.8955 H   0  0  0  0  0  0
   -6.3595  -14.0609  -13.7469 H   0  0  0  0  0  0
   -4.9331  -12.3402  -11.6487 H   0  0  0  0  0  0
   -4.1646  -12.9493  -13.1034 H   0  0  0  0  0  0
   -5.4683  -11.8108  -13.2212 H   0  0  0  0  0  0
   -7.4109  -13.1696  -11.0295 H   0  0  0  0  0  0
   -7.8473  -12.4618  -12.5987 H   0  0  0  0  0  0
   -8.2701  -14.1145  -12.2391 H   0  0  0  0  0  0
   -3.1234  -15.1932  -12.1942 H   0  0  0  0  0  0
   -2.5415  -13.7865   -9.7399 H   0  0  0  0  0  0
   -1.4745  -14.2684  -11.0166 H   0  0  0  0  0  0
    0.4910  -15.2299   -9.6776 H   0  0  0  0  0  0
    0.1594  -16.0113   -8.1796 H   0  0  0  0  0  0
    0.2077  -12.8101   -9.9693 H   0  0  0  0  0  0
   -0.2725  -10.4376   -6.4351 H   0  0  0  0  0  0
   -0.6846  -12.4871   -5.1174 H   0  0  0  0  0  0
   -0.6967  -14.6992   -6.2195 H   0  0  0  0  0  0
  1  2  1  0  0  0
  1 45  1  0  0  0
  1 46  1  0  0  0
  1 47  1  0  0  0
  2  3  1  0  0  0
  2 36  1  0  0  0
  2 37  1  0  0  0
  3 48  1  0  0  0
  3 49  1  0  0  0
  3 50  1  0  0  0
  4  5  2  0  0  0
  4  9  1  0  0  0
  4 10  1  0  0  0
  5  6  1  0  0  0
  5 16  1  0  0  0
  6  7  2  0  0  0
  6 51  1  0  0  0
  7  8  1  0  0  0
  7 52  1  0  0  0
  8  9  2  0  0  0
  8 18  1  0  0  0
  9 53  1  0  0  0
 10 11  1  0  0  0
 11 12  1  0  0  0
 11 54  1  0  0  0
 11 55  1  0  0  0
 12 13  1  0  0  0
 12 56  1  0  0  0
 12 57  1  0  0  0
 13 14  1  0  0  0
 13 58  1  0  0  0
 13 59  1  0  0  0
 14 15  1  0  0  0
 15 60  1  0  0  0
 15 61  1  0  0  0
 15 62  1  0  0  0
 16 17  1  0  0  0
 17 63  1  0  0  0
 17 64  1  0  0  0
 17 65  1  0  0  0
 18 19  1  0  0  0
 18 66  1  0  0  0
 18 67  1  0  0  0
 19 20  1  0  0  0
 19 21  1  0  0  0
 19 68  1  0  0  0
 20 24  1  0  0  0
 20 69  1  0  0  0
 20 70  1  0  0  0
 21 22  1  0  0  0
 21 23  1  0  0  0
 21 71  1  0  0  0
 22 72  1  0  0  0
 22 73  1  0  0  0
 22 74  1  0  0  0
 23 75  1  0  0  0
 23 76  1  0  0  0
 23 77  1  0  0  0
 24 25  1  0  0  0
 24 26  1  0  0  0
 24 78  1  0  0  0
 25 27  1  0  0  0
 25 28  1  0  0  0
 25 79  1  0  0  0
 26 80  1  0  0  0
 26 81  1  0  0  0
 27 29  1  0  0  0
 27 82  1  0  0  0
 27 83  1  0  0  0
 28 84  1  0  0  0
 29 30  1  0  0  0
 29 31  1  0  0  0
 29 85  1  0  0  0
 30 34  2  0  0  0
 30 35  1  0  0  0
 31 32  1  0  0  0
 31 33  1  0  0  0
 31 86  1  0  0  0
 32 87  1  0  0  0
 32 88  1  0  0  0
 32 89  1  0  0  0
 33 90  1  0  0  0
 33 91  1  0  0  0
 33 92  1  0  0  0
 35 36  1  0  0  0
 35 93  1  0  0  0
 36 94  1  0  0  0
 36 95  1  0  0  0
 37 38  1  0  0  0
 37 96  1  0  0  0
 37 97  1  0  0  0
 38 39  2  0  0  0
 38 43  1  0  0  0
 39 40  1  0  0  0
 39 98  1  0  0  0
 40 41  2  0  0  0
 40 44  1  0  0  0
 41 42  1  0  0  0
 41 99  1  0  0  0
 42 43  2  0  0  0
 42100  1  0  0  0
 43101  1  0  0  0
M  END
> <s_m_entry_id>
26443

> <s_m_entry_name>
dock_pv.267

> <s_m_Source_Path>
/home/csk/Desktop/cluster/DUD-E-result/reni

> <s_m_Source_File>
dock_pv.maegz

> <i_m_Source_File_Index>
267

> <chembl_id>
CHEMBL3633108

> <chembl_pref_name>
None

> <i_lp_mmshare_version>
53161

> <r_lp_tautomer_probability>
1

> <s_lp_Force_Field>
OPLS_2005

> <r_lp_Energy>
37.047572

> <b_lp_Chiralities_Consistent>
1

> <s_lp_Variant>
CHEMBL286_lig2600-1

> <s_i_glide_gridfile>
glide-grid_3g6z

> <i_i_glide_lignum>
6665

> <i_i_glide_rotatable_bonds>
22

> <r_i_docking_score>
-6.95228278775996

> <r_i_glide_ligand_efficiency>
-0.158006426994545

> <r_i_glide_ligand_efficiency_sa>
-0.55781772580738

> <r_i_glide_ligand_efficiency_ln>
-1.4531787658396

> <r_i_glide_gscore>
-6.95228278775996

> <r_i_glide_lipo>
-3.68197711465398

> <r_i_glide_hbond>
-0.41434951413053

> <r_i_glide_metal>
0

> <r_i_glide_rewards>
-0.393901413174976

> <r_i_glide_evdw>
-42.279842376709

> <r_i_glide_ecoul>
-6.68932294845581

> <r_i_glide_erotb>
0.703450696930004

> <r_i_glide_esite>
-0.0481148816266532

> <r_i_glide_emodel>
-52.2175303178894

> <r_i_glide_energy>
-48.9691653251648

> <r_i_glide_einternal>
33.338321685791

> <i_i_glide_confnum>
18

> <i_i_glide_posenum>
343

> <r_i_glide_eff_state_penalty>
0

> <s_user_duplicate_titles>
CHEMBL286_lig2600

> <i_f3d_flags>
0

> <s_m_subgroup_title>
dock_pv

> <s_m_subgroupid>
dock_pv

> <b_m_subgroup_collapsed>
1

$$$$
CHEMBL286_lig1989
                    3D
 Schrodinger Suite 2021-1.
 57 61  0  0  1  0            999 V2000
   -4.5694  -12.4196   -7.1696 C   0  0  0  0  0  0
   -5.6714  -11.6627   -6.8207 C   0  0  0  0  0  0
   -6.9646  -12.0010   -7.2158 C   0  0  0  0  0  0
   -4.7229  -13.5529   -7.9473 C   0  0  0  0  0  0
   -8.2739  -13.7126   -8.6259 N   0  0  0  0  0  0
   -7.8028  -14.7602   -9.4285 C   0  0  0  0  0  0
   -6.4153  -14.9147   -9.3263 C   0  0  0  0  0  0
   -5.9939  -13.8880   -8.4412 C   0  0  0  0  0  0
   -7.1367  -13.1170   -8.0529 C   0  0  0  0  0  0
   -9.6638  -13.3482   -8.4211 C   0  0  0  0  0  0
  -10.0515  -12.0560   -8.0210 C   0  0  0  0  0  0
  -11.3815  -11.7415   -7.7531 C   0  0  0  0  0  0
  -12.3546  -12.7290   -7.8418 C   0  0  0  0  0  0
  -12.0039  -14.0254   -8.1982 C   0  0  0  0  0  0
  -10.6737  -14.3301   -8.4749 C   0  0  0  0  0  0
   -5.5841  -15.8903   -9.9980 C   0  0  0  0  0  0
   -4.6089  -15.4418  -10.8448 N   0  0  0  0  0  0
   -5.7319  -17.0803   -9.7197 O   0  0  0  0  0  0
   -3.6722  -16.4116  -11.4518 C   0  0  0  0  0  0
   -2.2227  -15.9304  -11.1937 C   0  0  0  0  0  0
   -2.0014  -14.5494  -11.6180 N   0  0  1  0  0  0
   -2.9317  -13.6206  -10.9723 C   0  0  2  0  0  0
   -4.4073  -14.0348  -11.2626 C   0  0  0  0  0  0
   -8.6689  -15.4839  -10.2121 O   0  0  0  0  0  0
   -8.6758  -16.8591  -10.1713 C   0  0  0  0  0  0
   -8.6776  -17.5655   -8.9615 C   0  0  0  0  0  0
   -8.6660  -18.9582   -8.9722 C   0  0  0  0  0  0
   -8.6658  -19.6393  -10.1879 C   0  0  0  0  0  0
   -8.6821  -18.9400  -11.3929 C   0  0  0  0  0  0
   -8.7007  -17.5487  -11.3824 C   0  0  0  0  0  0
   -2.6811  -12.1508  -11.3787 C   0  0  0  0  0  0
   -1.4714  -11.6638  -10.8203 O   0  0  0  0  0  0
   -3.5879  -12.1349   -6.8181 H   0  0  0  0  0  0
   -5.5212  -10.8023   -6.1835 H   0  0  0  0  0  0
   -7.7723  -11.4013   -6.8365 H   0  0  0  0  0  0
   -3.8653  -14.1612   -8.1880 H   0  0  0  0  0  0
   -9.3565  -11.2356   -8.0190 H   0  0  0  0  0  0
  -11.6589  -10.7301   -7.4916 H   0  0  0  0  0  0
  -13.3863  -12.4873   -7.6325 H   0  0  0  0  0  0
  -12.7594  -14.7961   -8.2532 H   0  0  0  0  0  0
  -10.4507  -15.3576   -8.7074 H   0  0  0  0  0  0
   -3.7853  -17.4229  -11.0577 H   0  0  0  0  0  0
   -3.8512  -16.4635  -12.5255 H   0  0  0  0  0  0
   -2.0085  -15.9722  -10.1241 H   0  0  0  0  0  0
   -1.4969  -16.5829  -11.6784 H   0  0  0  0  0  0
   -1.0510  -14.2660  -11.4148 H   0  0  0  0  0  0
   -2.7481  -13.6812   -9.9008 H   0  0  0  0  0  0
   -4.5913  -13.9699  -12.3361 H   0  0  0  0  0  0
   -5.1026  -13.3385  -10.7979 H   0  0  0  0  0  0
   -8.6673  -17.0356   -8.0210 H   0  0  0  0  0  0
   -8.6620  -19.5078   -8.0434 H   0  0  0  0  0  0
   -8.6503  -20.7190  -10.1974 H   0  0  0  0  0  0
   -8.6694  -19.4663  -12.3361 H   0  0  0  0  0  0
   -8.7050  -17.0055  -12.3172 H   0  0  0  0  0  0
   -2.6642  -12.0351  -12.4639 H   0  0  0  0  0  0
   -3.4875  -11.5189  -11.0038 H   0  0  0  0  0  0
   -0.7420  -12.0657  -11.3125 H   0  0  0  0  0  0
  1  2  2  0  0  0
  1  4  1  0  0  0
  1 33  1  0  0  0
  2  3  1  0  0  0
  2 34  1  0  0  0
  3  9  2  0  0  0
  3 35  1  0  0  0
  4  8  2  0  0  0
  4 36  1  0  0  0
  5 10  1  0  0  0
  5  6  1  0  0  0
  5  9  1  0  0  0
  6 24  1  0  0  0
  6  7  2  0  0  0
  7 16  1  0  0  0
  7  8  1  0  0  0
  8  9  1  0  0  0
 10 11  2  0  0  0
 10 15  1  0  0  0
 11 12  1  0  0  0
 11 37  1  0  0  0
 12 13  2  0  0  0
 12 38  1  0  0  0
 13 14  1  0  0  0
 13 39  1  0  0  0
 14 15  2  0  0  0
 14 40  1  0  0  0
 15 41  1  0  0  0
 16 17  1  0  0  0
 16 18  2  0  0  0
 17 19  1  0  0  0
 17 23  1  0  0  0
 19 20  1  0  0  0
 19 42  1  0  0  0
 19 43  1  0  0  0
 20 21  1  0  0  0
 20 44  1  0  0  0
 20 45  1  0  0  0
 21 22  1  0  0  0
 21 46  1  0  0  0
 22 23  1  0  0  0
 22 31  1  0  0  0
 22 47  1  0  0  0
 23 48  1  0  0  0
 23 49  1  0  0  0
 24 25  1  0  0  0
 25 26  2  0  0  0
 25 30  1  0  0  0
 26 27  1  0  0  0
 26 50  1  0  0  0
 27 28  2  0  0  0
 27 51  1  0  0  0
 28 29  1  0  0  0
 28 52  1  0  0  0
 29 30  2  0  0  0
 29 53  1  0  0  0
 30 54  1  0  0  0
 31 32  1  0  0  0
 31 55  1  0  0  0
 31 56  1  0  0  0
 32 57  1  0  0  0
M  END
> <s_m_entry_id>
26444

> <s_m_entry_name>
dock_pv.268

> <s_m_Source_Path>
/home/csk/Desktop/cluster/DUD-E-result/reni

> <s_m_Source_File>
dock_pv.maegz

> <i_m_Source_File_Index>
268

> <chembl_id>
CHEMBL1270872

> <chembl_pref_name>
None

> <i_lp_mmshare_version>
53161

> <r_lp_tautomer_probability>
1

> <s_lp_Force_Field>
OPLS_2005

> <r_lp_Energy>
54.050471

> <b_lp_Chiralities_Consistent>
1

> <s_lp_Variant>
CHEMBL286_lig1989-1

> <s_i_glide_gridfile>
glide-grid_3g6z

> <i_i_glide_lignum>
5781

> <i_i_glide_rotatable_bonds>
7

> <r_i_docking_score>
-6.95215568541725

> <r_i_glide_ligand_efficiency>
-0.217254865169289

> <r_i_glide_ligand_efficiency_sa>
-0.689741202233057

> <r_i_glide_ligand_efficiency_ln>
-1.55677716657152

> <r_i_glide_gscore>
-6.95215568541725

> <r_i_glide_lipo>
-3.45883103675216

> <r_i_glide_hbond>
-0.365516999963855

> <r_i_glide_metal>
0

> <r_i_glide_rewards>
-1.26016792250697

> <r_i_glide_evdw>
-34.1276321411133

> <r_i_glide_ecoul>
-5.35107707977295

> <r_i_glide_erotb>
0.651880436629973

> <r_i_glide_esite>
-0.010476993802621

> <r_i_glide_emodel>
-51.4102696090491

> <r_i_glide_energy>
-39.4787092208862

> <r_i_glide_einternal>
8.7817325592041

> <i_i_glide_confnum>
113

> <i_i_glide_posenum>
32

> <r_i_glide_eff_state_penalty>
0

> <s_user_duplicate_titles>
CHEMBL286_lig1989

> <i_f3d_flags>
0

> <s_m_subgroup_title>
dock_pv

> <s_m_subgroupid>
dock_pv

> <b_m_subgroup_collapsed>
1

$$$$
CHEMBL286_lig1660
                    3D
 Schrodinger Suite 2021-1.
 98 99  0  0  1  0            999 V2000
   -7.6527  -15.1370   -9.0000 C   0  0  0  0  0  0
   -7.1086  -14.0073   -8.3648 C   0  0  0  0  0  0
   -5.7501  -14.0023   -8.0133 C   0  0  0  0  0  0
   -4.9351  -15.0869   -8.3170 C   0  0  0  0  0  0
   -5.4421  -16.1753   -9.0270 C   0  0  0  0  0  0
   -6.8010  -16.2000   -9.3545 C   0  0  0  0  0  0
   -4.5255  -17.3490   -9.3677 C   0  0  0  0  0  0
   -4.0039  -17.4826  -10.8309 C   0  0  1  0  0  0
   -5.1078  -17.9256  -11.8367 C   0  0  0  0  0  0
   -3.0766  -16.3461  -11.3733 C   0  0  0  0  0  0
   -1.7429  -16.2602  -10.6036 C   0  0  0  0  0  0
   -3.7162  -14.9473  -11.4863 C   0  0  0  0  0  0
   -7.9664  -12.9561   -8.0900 O   0  0  0  0  0  0
   -7.4663  -11.8009   -7.4289 C   0  0  0  0  0  0
   -9.0224  -15.1371   -9.2204 O   0  0  0  0  0  0
   -9.7154  -16.3457   -9.5346 C   0  0  0  0  0  0
  -11.0800  -16.3858   -8.8198 C   0  0  0  0  0  0
  -12.0979  -15.3074   -9.2260 C   0  0  0  0  0  0
  -11.7000  -14.0427   -8.7183 O   0  0  0  0  0  0
  -12.7026  -13.0413   -8.8212 C   0  0  0  0  0  0
   -4.6972  -19.0807  -12.7970 C   0  0  1  0  0  0
   -4.9524  -20.5206  -12.2295 C   0  0  2  0  0  0
   -5.4691  -18.9142  -14.0210 N   0  0  0  0  0  0
   -4.1118  -20.8854  -10.9741 C   0  0  0  0  0  0
   -4.6639  -21.4943  -13.2207 O   0  0  0  0  0  0
   -4.2603  -22.3342  -10.4167 C   0  0  2  0  0  0
   -5.7328  -22.6315  -10.0410 C   0  0  0  0  0  0
   -6.4000  -23.4858  -10.8378 N   0  0  0  0  0  0
   -6.2606  -22.0618   -9.0863 O   0  0  0  0  0  0
   -3.2169  -22.6605   -9.2964 C   0  0  0  0  0  0
   -3.2225  -24.1494   -8.8886 C   0  0  0  0  0  0
   -3.2829  -21.7544   -8.0459 C   0  0  0  0  0  0
   -7.8230  -23.7994  -10.7217 C   0  0  0  0  0  0
   -8.7483  -22.6633  -11.2030 C   0  0  0  0  0  0
  -10.2365  -23.0529  -11.1165 C   0  0  0  0  0  0
  -11.1557  -22.0275  -11.6215 N   0  0  0  0  0  0
  -12.5055  -22.5950  -11.7544 C   0  0  0  0  0  0
  -13.5831  -21.5410  -12.0790 C   0  0  0  0  0  0
  -13.5231  -20.4569  -11.1606 O   0  0  0  0  0  0
  -12.2600  -19.7963  -11.1740 C   0  0  0  0  0  0
  -11.1114  -20.7767  -10.8440 C   0  0  0  0  0  0
   -5.3033  -13.1654   -7.4992 H   0  0  0  0  0  0
   -3.8938  -15.0658   -8.0292 H   0  0  0  0  0  0
   -7.1870  -17.0585   -9.8779 H   0  0  0  0  0  0
   -5.0696  -18.2616   -9.1266 H   0  0  0  0  0  0
   -3.6830  -17.3546   -8.6733 H   0  0  0  0  0  0
   -3.3250  -18.3308  -10.7649 H   0  0  0  0  0  0
   -5.4212  -17.0434  -12.3965 H   0  0  0  0  0  0
   -6.0092  -18.2415  -11.3117 H   0  0  0  0  0  0
   -2.8208  -16.6317  -12.3967 H   0  0  0  0  0  0
   -1.8982  -15.9461   -9.5698 H   0  0  0  0  0  0
   -1.2249  -17.2202  -10.5880 H   0  0  0  0  0  0
   -1.0688  -15.5364  -11.0644 H   0  0  0  0  0  0
   -3.8794  -14.4789  -10.5225 H   0  0  0  0  0  0
   -3.0539  -14.2667  -12.0211 H   0  0  0  0  0  0
   -4.6666  -14.9646  -12.0206 H   0  0  0  0  0  0
   -8.2772  -11.0862   -7.2916 H   0  0  0  0  0  0
   -7.0677  -12.0525   -6.4442 H   0  0  0  0  0  0
   -6.6913  -11.3096   -8.0187 H   0  0  0  0  0  0
   -9.8351  -16.4288  -10.6153 H   0  0  0  0  0  0
   -9.1794  -17.2369   -9.2045 H   0  0  0  0  0  0
  -11.5314  -17.3580   -9.0044 H   0  0  0  0  0  0
  -10.9232  -16.3395   -7.7423 H   0  0  0  0  0  0
  -12.2124  -15.2674  -10.3106 H   0  0  0  0  0  0
  -13.0699  -15.5812   -8.8103 H   0  0  0  0  0  0
  -12.2911  -12.0833   -8.4998 H   0  0  0  0  0  0
  -13.0691  -12.9261   -9.8439 H   0  0  0  0  0  0
  -13.5519  -13.2720   -8.1769 H   0  0  0  0  0  0
   -3.6454  -18.9755  -13.0665 H   0  0  0  0  0  0
   -6.0136  -20.6017  -11.9840 H   0  0  0  0  0  0
   -6.4687  -18.9162  -13.8455 H   0  0  0  0  0  0
   -5.2945  -18.0336  -14.4893 H   0  0  0  0  0  0
   -4.3769  -20.1942  -10.1759 H   0  0  0  0  0  0
   -3.0591  -20.7059  -11.2023 H   0  0  0  0  0  0
   -5.0366  -22.3340  -12.9455 H   0  0  0  0  0  0
   -3.9937  -23.0034  -11.2360 H   0  0  0  0  0  0
   -5.8940  -23.9656  -11.5661 H   0  0  0  0  0  0
   -2.2346  -22.4850   -9.7398 H   0  0  0  0  0  0
   -4.1448  -24.4228   -8.3762 H   0  0  0  0  0  0
   -3.1170  -24.7994   -9.7575 H   0  0  0  0  0  0
   -2.3966  -24.3776   -8.2156 H   0  0  0  0  0  0
   -4.2162  -21.8822   -7.4965 H   0  0  0  0  0  0
   -2.4706  -21.9845   -7.3557 H   0  0  0  0  0  0
   -3.1864  -20.6987   -8.2999 H   0  0  0  0  0  0
   -8.0718  -24.0838   -9.6975 H   0  0  0  0  0  0
   -8.0246  -24.6982  -11.3073 H   0  0  0  0  0  0
   -8.4976  -22.3864  -12.2289 H   0  0  0  0  0  0
   -8.5583  -21.7923  -10.5774 H   0  0  0  0  0  0
  -10.4888  -23.3114  -10.0858 H   0  0  0  0  0  0
  -10.3729  -23.9780  -11.6804 H   0  0  0  0  0  0
  -12.7813  -23.0821  -10.8209 H   0  0  0  0  0  0
  -12.4979  -23.3849  -12.5076 H   0  0  0  0  0  0
  -13.4919  -21.1860  -13.1048 H   0  0  0  0  0  0
  -14.5682  -21.9999  -12.0051 H   0  0  0  0  0  0
  -12.0995  -19.2630  -12.1087 H   0  0  0  0  0  0
  -12.2764  -19.0116  -10.4211 H   0  0  0  0  0  0
  -10.1481  -20.2877  -10.9733 H   0  0  0  0  0  0
  -11.1783  -21.0172   -9.7853 H   0  0  0  0  0  0
  1  2  2  0  0  0
  1  6  1  0  0  0
  1 15  1  0  0  0
  2  3  1  0  0  0
  2 13  1  0  0  0
  3  4  2  0  0  0
  3 42  1  0  0  0
  4  5  1  0  0  0
  4 43  1  0  0  0
  5  6  2  0  0  0
  5  7  1  0  0  0
  6 44  1  0  0  0
  7  8  1  0  0  0
  7 45  1  0  0  0
  7 46  1  0  0  0
  8  9  1  0  0  0
  8 10  1  0  0  0
  8 47  1  0  0  0
  9 21  1  0  0  0
  9 48  1  0  0  0
  9 49  1  0  0  0
 10 11  1  0  0  0
 10 12  1  0  0  0
 10 50  1  0  0  0
 11 51  1  0  0  0
 11 52  1  0  0  0
 11 53  1  0  0  0
 12 54  1  0  0  0
 12 55  1  0  0  0
 12 56  1  0  0  0
 13 14  1  0  0  0
 14 57  1  0  0  0
 14 58  1  0  0  0
 14 59  1  0  0  0
 15 16  1  0  0  0
 16 17  1  0  0  0
 16 60  1  0  0  0
 16 61  1  0  0  0
 17 18  1  0  0  0
 17 62  1  0  0  0
 17 63  1  0  0  0
 18 19  1  0  0  0
 18 64  1  0  0  0
 18 65  1  0  0  0
 19 20  1  0  0  0
 20 66  1  0  0  0
 20 67  1  0  0  0
 20 68  1  0  0  0
 21 22  1  0  0  0
 21 23  1  0  0  0
 21 69  1  0  0  0
 22 24  1  0  0  0
 22 25  1  0  0  0
 22 70  1  0  0  0
 23 71  1  0  0  0
 23 72  1  0  0  0
 24 26  1  0  0  0
 24 73  1  0  0  0
 24 74  1  0  0  0
 25 75  1  0  0  0
 26 27  1  0  0  0
 26 30  1  0  0  0
 26 76  1  0  0  0
 27 28  1  0  0  0
 27 29  2  0  0  0
 28 33  1  0  0  0
 28 77  1  0  0  0
 30 31  1  0  0  0
 30 32  1  0  0  0
 30 78  1  0  0  0
 31 79  1  0  0  0
 31 80  1  0  0  0
 31 81  1  0  0  0
 32 82  1  0  0  0
 32 83  1  0  0  0
 32 84  1  0  0  0
 33 34  1  0  0  0
 33 85  1  0  0  0
 33 86  1  0  0  0
 34 35  1  0  0  0
 34 87  1  0  0  0
 34 88  1  0  0  0
 35 36  1  0  0  0
 35 89  1  0  0  0
 35 90  1  0  0  0
 36 37  1  0  0  0
 36 41  1  0  0  0
 37 38  1  0  0  0
 37 91  1  0  0  0
 37 92  1  0  0  0
 38 39  1  0  0  0
 38 93  1  0  0  0
 38 94  1  0  0  0
 39 40  1  0  0  0
 40 41  1  0  0  0
 40 95  1  0  0  0
 40 96  1  0  0  0
 41 97  1  0  0  0
 41 98  1  0  0  0
M  END
> <s_m_entry_id>
26445

> <s_m_entry_name>
dock_pv.269

> <s_m_Source_Path>
/home/csk/Desktop/cluster/DUD-E-result/reni

> <s_m_Source_File>
dock_pv.maegz

> <i_m_Source_File_Index>
269

> <chembl_id>
CHEMBL556765

> <chembl_pref_name>
None

> <i_lp_mmshare_version>
53161

> <r_lp_tautomer_probability>
1

> <s_lp_Force_Field>
OPLS_2005

> <r_lp_Energy>
58.632552

> <b_lp_Chiralities_Consistent>
1

> <s_lp_Variant>
CHEMBL286_lig1660-1

> <s_i_glide_gridfile>
glide-grid_3g6z

> <i_i_glide_lignum>
5368

> <i_i_glide_rotatable_bonds>
22

> <r_i_docking_score>
-6.94710300211207

> <r_i_glide_ligand_efficiency>
-0.16944153663688

> <r_i_glide_ligand_efficiency_sa>
-0.584271227144986

> <r_i_glide_ligand_efficiency_ln>
-1.47385102079694

> <r_i_glide_gscore>
-6.94710300211207

> <r_i_glide_lipo>
-3.10030519847439

> <r_i_glide_hbond>
-0.649835349495719

> <r_i_glide_metal>
0

> <r_i_glide_rewards>
-0.0571966223744187

> <r_i_glide_evdw>
-41.2181091308594

> <r_i_glide_ecoul>
-13.1610469818115

> <r_i_glide_erotb>
0.895296672047157

> <r_i_glide_esite>
0

> <r_i_glide_emodel>
-72.8504814277239

> <r_i_glide_energy>
-54.3791561126709

> <r_i_glide_einternal>
8.07869052886963

> <i_i_glide_confnum>
12

> <i_i_glide_posenum>
140

> <r_i_glide_eff_state_penalty>
0

> <s_user_duplicate_titles>
CHEMBL286_lig1660

> <i_f3d_flags>
0

> <s_m_subgroup_title>
dock_pv

> <s_m_subgroupid>
dock_pv

> <b_m_subgroup_collapsed>
1

$$$$
CHEMBL286_lig536
                    3D
 Schrodinger Suite 2021-1.
 78 82  0  0  1  0            999 V2000
   -4.5229  -20.5632  -12.3017 C   0  0  0  0  0  0
   -5.5089  -20.7739  -13.2871 N   0  0  0  0  0  0
   -4.6891  -14.3867  -11.2846 C   0  0  2  0  0  0
   -6.0450  -14.7244  -10.6524 C   0  0  0  0  0  0
  -11.5755  -12.1397   -7.7671 C   0  0  0  0  0  0
   -3.6364  -21.5889  -11.9066 C   0  0  0  0  0  0
   -1.8695  -13.4889  -11.1616 N   0  0  2  0  0  0
   -3.8581  -16.6431  -11.0535 O   0  0  0  0  0  0
   -4.4466  -19.2967  -11.7207 C   0  0  0  0  0  0
   -3.5539  -15.2865  -10.7434 C   0  0  1  0  0  0
  -12.5629  -11.4221   -7.0805 C   0  0  0  0  0  0
   -2.6678  -21.2877  -10.9430 C   0  0  0  0  0  0
   -6.9322  -15.5707  -11.3237 C   0  0  0  0  0  0
   -6.3900  -14.2324   -9.3921 C   0  0  0  0  0  0
   -3.4628  -19.0100  -10.7665 C   0  0  0  0  0  0
   -3.3374  -17.6191  -10.1586 C   0  0  0  0  0  0
   -8.4971  -15.4189   -9.4813 C   0  0  0  0  0  0
   -2.5840  -20.0187  -10.3775 C   0  0  0  0  0  0
   -8.1487  -15.9166  -10.7450 C   0  0  0  0  0  0
   -7.6114  -14.5658   -8.8225 C   0  0  0  0  0  0
  -13.8478  -11.9264   -7.1314 O   0  0  0  0  0  0
   -2.1831  -14.9047  -11.3560 C   0  0  0  0  0  0
  -11.9990  -16.3284   -9.2637 C   0  0  0  0  0  0
   -9.6859  -15.6703   -8.8211 O   0  0  0  0  0  0
  -11.9177  -13.4395   -8.4777 C   0  0  0  0  0  0
  -11.9623  -14.5033   -7.5372 O   0  0  0  0  0  0
   -5.7472  -22.1263  -13.7982 C   0  0  0  0  0  0
   -2.8870  -12.6271  -11.7680 C   0  0  0  0  0  0
   -4.2875  -12.8955  -11.1745 C   0  0  0  0  0  0
  -10.2682  -11.6533   -7.8142 C   0  0  0  0  0  0
   -3.7391  -22.9845  -12.5052 C   0  0  0  0  0  0
  -10.5268  -16.7776   -9.1556 C   0  0  0  0  0  0
  -12.6017  -15.6965   -7.9866 C   0  0  0  0  0  0
  -12.1999  -10.2268   -6.4270 C   0  0  0  0  0  0
  -14.8096  -11.5209   -6.1708 C   0  0  0  0  0  0
   -4.4333  -22.9289  -13.8748 C   0  0  0  0  0  0
   -9.9221  -10.4632   -7.1710 C   0  0  0  0  0  0
  -10.8881   -9.7539   -6.4653 C   0  0  0  0  0  0
   -6.3120  -20.1606  -13.3160 H   0  0  0  0  0  0
   -4.8052  -14.5915  -12.3488 H   0  0  0  0  0  0
   -0.9591  -13.2651  -11.5826 H   0  0  0  0  0  0
   -5.1351  -18.5248  -12.0281 H   0  0  0  0  0  0
   -3.5079  -15.1805   -9.6569 H   0  0  0  0  0  0
   -1.9714  -22.0534  -10.6275 H   0  0  0  0  0  0
   -6.6800  -15.9707  -12.2945 H   0  0  0  0  0  0
   -5.7136  -13.5962   -8.8424 H   0  0  0  0  0  0
   -2.2850  -17.4203   -9.9463 H   0  0  0  0  0  0
   -3.8829  -17.5892   -9.2139 H   0  0  0  0  0  0
   -1.8192  -19.8227   -9.6373 H   0  0  0  0  0  0
   -8.8063  -16.5509  -11.3154 H   0  0  0  0  0  0
   -7.8636  -14.1652   -7.8536 H   0  0  0  0  0  0
   -1.3887  -15.4912  -10.8928 H   0  0  0  0  0  0
   -2.1690  -15.1422  -12.4208 H   0  0  0  0  0  0
  -12.6190  -17.1905   -9.5217 H   0  0  0  0  0  0
  -12.1040  -15.6434  -10.1050 H   0  0  0  0  0  0
  -12.8599  -13.3280   -9.0210 H   0  0  0  0  0  0
  -11.1537  -13.6625   -9.2175 H   0  0  0  0  0  0
   -6.4223  -22.5912  -13.0766 H   0  0  0  0  0  0
   -6.2627  -22.0902  -14.7573 H   0  0  0  0  0  0
   -2.5978  -11.5901  -11.5944 H   0  0  0  0  0  0
   -2.8929  -12.7829  -12.8486 H   0  0  0  0  0  0
   -4.9936  -12.2910  -11.7448 H   0  0  0  0  0  0
   -4.3010  -12.5217  -10.1516 H   0  0  0  0  0  0
   -9.5103  -12.2075   -8.3442 H   0  0  0  0  0  0
   -2.7544  -23.4457  -12.5965 H   0  0  0  0  0  0
   -4.3205  -23.6134  -11.8286 H   0  0  0  0  0  0
  -10.4258  -17.5142   -8.3588 H   0  0  0  0  0  0
  -10.2531  -17.3012  -10.0657 H   0  0  0  0  0  0
  -12.5625  -16.4202   -7.1731 H   0  0  0  0  0  0
  -13.6608  -15.4859   -8.1449 H   0  0  0  0  0  0
  -12.9317   -9.5977   -5.9616 H   0  0  0  0  0  0
  -15.8063  -11.7347   -6.5498 H   0  0  0  0  0  0
  -14.6699  -12.0561   -5.2336 H   0  0  0  0  0  0
  -14.8059  -10.4642   -5.9628 H   0  0  0  0  0  0
   -4.6279  -23.9362  -14.2447 H   0  0  0  0  0  0
   -3.7657  -22.4638  -14.6014 H   0  0  0  0  0  0
   -8.9084  -10.0970   -7.2172 H   0  0  0  0  0  0
  -10.6305   -8.8242   -5.9831 H   0  0  0  0  0  0
  1  2  1  0  0  0
  1  6  1  0  0  0
  1  9  2  0  0  0
  2 27  1  0  0  0
  2 39  1  0  0  0
  3 10  1  0  0  0
  3  4  1  0  0  0
  3 29  1  0  0  0
  3 40  1  0  0  0
  4 13  2  0  0  0
  4 14  1  0  0  0
  5 25  1  0  0  0
  5 11  2  0  0  0
  5 30  1  0  0  0
  6 12  2  0  0  0
  6 31  1  0  0  0
  7 22  1  0  0  0
  7 28  1  0  0  0
  7 41  1  0  0  0
  8 16  1  0  0  0
  8 10  1  0  0  0
  9 15  1  0  0  0
  9 42  1  0  0  0
 10 22  1  0  0  0
 10 43  1  0  0  0
 11 21  1  0  0  0
 11 34  1  0  0  0
 12 18  1  0  0  0
 12 44  1  0  0  0
 13 19  1  0  0  0
 13 45  1  0  0  0
 14 20  2  0  0  0
 14 46  1  0  0  0
 15 16  1  0  0  0
 15 18  2  0  0  0
 16 47  1  0  0  0
 16 48  1  0  0  0
 17 20  1  0  0  0
 17 24  1  0  0  0
 17 19  2  0  0  0
 18 49  1  0  0  0
 19 50  1  0  0  0
 20 51  1  0  0  0
 21 35  1  0  0  0
 22 52  1  0  0  0
 22 53  1  0  0  0
 23 32  1  0  0  0
 23 33  1  0  0  0
 23 54  1  0  0  0
 23 55  1  0  0  0
 24 32  1  0  0  0
 25 26  1  0  0  0
 25 56  1  0  0  0
 25 57  1  0  0  0
 26 33  1  0  0  0
 27 36  1  0  0  0
 27 58  1  0  0  0
 27 59  1  0  0  0
 28 29  1  0  0  0
 28 60  1  0  0  0
 28 61  1  0  0  0
 29 62  1  0  0  0
 29 63  1  0  0  0
 30 37  2  0  0  0
 30 64  1  0  0  0
 31 36  1  0  0  0
 31 65  1  0  0  0
 31 66  1  0  0  0
 32 67  1  0  0  0
 32 68  1  0  0  0
 33 69  1  0  0  0
 33 70  1  0  0  0
 34 38  2  0  0  0
 34 71  1  0  0  0
 35 72  1  0  0  0
 35 73  1  0  0  0
 35 74  1  0  0  0
 36 75  1  0  0  0
 36 76  1  0  0  0
 37 38  1  0  0  0
 37 77  1  0  0  0
 38 78  1  0  0  0
M  END
> <s_m_entry_id>
26446

> <s_m_entry_name>
dock_pv.270

> <s_m_Source_Path>
/home/csk/Desktop/cluster/DUD-E-result/reni

> <s_m_Source_File>
dock_pv.maegz

> <i_m_Source_File_Index>
270

> <chembl_id>
CHEMBL32002

> <chembl_pref_name>
None

> <i_lp_mmshare_version>
53161

> <r_lp_tautomer_probability>
1

> <s_lp_Force_Field>
OPLS_2005

> <r_lp_Energy>
39.125422

> <b_lp_Chiralities_Consistent>
1

> <s_lp_Variant>
CHEMBL286_lig536-1

> <s_i_glide_gridfile>
glide-grid_3g6z

> <i_i_glide_lignum>
1434

> <i_i_glide_rotatable_bonds>
12

> <r_i_docking_score>
-6.9443470890487

> <r_i_glide_ligand_efficiency>
-0.182745976027597

> <r_i_glide_ligand_efficiency_sa>
-0.614387476351292

> <r_i_glide_ligand_efficiency_ln>
-1.49740551439338

> <r_i_glide_gscore>
-6.9443470890487

> <r_i_glide_lipo>
-4.02104310721469

> <r_i_glide_hbond>
-0.32

> <r_i_glide_metal>
0

> <r_i_glide_rewards>
-0.0447391728120342

> <r_i_glide_evdw>
-43.1879577636719

> <r_i_glide_ecoul>
-7.98467206954956

> <r_i_glide_erotb>
0.845845723967237

> <r_i_glide_esite>
-0.0473118343731775

> <r_i_glide_emodel>
-68.7946277660398

> <r_i_glide_energy>
-51.1726298332214

> <r_i_glide_einternal>
7.07327651977539

> <i_i_glide_confnum>
115

> <i_i_glide_posenum>
179

> <r_i_glide_eff_state_penalty>
0

> <s_user_duplicate_titles>
CHEMBL286_lig536,43150

> <i_f3d_flags>
0

> <s_m_subgroup_title>
dock_pv

> <s_m_subgroupid>
dock_pv

> <b_m_subgroup_collapsed>
1

$$$$
CHEMBL286_lig2525
                    3D
 Schrodinger Suite 2021-1.
 76 78  0  0  1  0            999 V2000
   -0.8257  -18.3112  -10.8985 O   0  0  0  0  0  0
   -2.1316  -18.6052  -10.2975 S   0  0  0  0  0  0
   -2.2753  -19.6772   -9.3076 O   0  0  0  0  0  0
   -8.5041  -15.3192   -9.2170 C   0  0  0  0  0  0
   -7.1997  -15.8274   -9.0985 C   0  0  0  0  0  0
   -6.1633  -15.0286   -8.6214 C   0  0  0  0  0  0
   -6.3800  -13.6775   -8.3286 C   0  0  0  0  0  0
   -7.6878  -13.1850   -8.4205 C   0  0  0  0  0  0
   -8.7610  -13.9964   -8.8214 C   0  0  0  0  0  0
   -9.5808  -16.0729   -9.6522 O   0  0  0  0  0  0
   -9.3640  -17.3959  -10.1324 C   0  0  0  0  0  0
  -10.0869  -13.5914   -8.8209 O   0  0  0  0  0  0
  -10.5341  -12.4244   -8.1223 C   0  0  0  0  0  0
  -11.5582  -12.8402   -7.0516 C   0  0  0  0  0  0
  -12.8015  -13.5541   -7.6080 C   0  0  0  0  0  0
  -13.5111  -12.7560   -8.5439 O   0  0  0  0  0  0
  -14.2485  -11.6750   -7.9920 C   0  0  0  0  0  0
   -5.2808  -12.7549   -7.8280 C   0  0  0  0  0  0
   -4.0899  -12.6263   -8.5091 N   0  0  0  0  0  0
   -5.5599  -12.0960   -6.8248 O   0  0  0  0  0  0
   -2.9948  -11.6618   -8.1490 C   0  0  0  0  0  0
   -3.1798  -10.7146   -6.9348 C   0  0  0  0  0  0
   -2.5549  -10.7743   -9.3299 C   0  0  0  0  0  0
   -3.7446  -13.4804   -9.6763 C   0  0  0  0  0  0
   -2.7928  -14.6623   -9.3402 C   0  0  1  0  0  0
   -2.9807  -15.8691  -10.2628 C   0  0  1  0  0  0
   -2.0298  -15.4983  -11.4099 C   0  0  0  0  0  0
   -0.8649  -14.8631  -10.8163 N   0  0  2  0  0  0
   -1.2892  -14.3603   -9.5135 C   0  0  0  0  0  0
   -2.7347  -17.1418   -9.5344 N   0  0  1  0  0  0
   -3.3667  -18.9192  -11.6887 C   0  0  0  0  0  0
   -3.1735  -20.2843  -12.3286 C   0  0  0  0  0  0
   -4.1714  -21.2564  -12.2193 C   0  0  0  0  0  0
   -3.9953  -22.5029  -12.8149 C   0  0  0  0  0  0
   -2.8187  -22.7759  -13.5085 C   0  0  0  0  0  0
   -1.8159  -21.8145  -13.6122 C   0  0  0  0  0  0
   -1.9944  -20.5660  -13.0223 C   0  0  0  0  0  0
   -6.9760  -16.8542   -9.3414 H   0  0  0  0  0  0
   -5.1929  -15.4787   -8.4875 H   0  0  0  0  0  0
   -7.8433  -12.1491   -8.1634 H   0  0  0  0  0  0
  -10.3102  -17.8103  -10.4796 H   0  0  0  0  0  0
   -8.6706  -17.4115  -10.9740 H   0  0  0  0  0  0
   -8.9883  -18.0503   -9.3448 H   0  0  0  0  0  0
  -11.0005  -11.7492   -8.8403 H   0  0  0  0  0  0
   -9.7597  -11.8443   -7.6281 H   0  0  0  0  0  0
  -11.8619  -11.9675   -6.4725 H   0  0  0  0  0  0
  -11.0727  -13.5059   -6.3397 H   0  0  0  0  0  0
  -13.4608  -13.8755   -6.7991 H   0  0  0  0  0  0
  -12.4981  -14.4676   -8.1222 H   0  0  0  0  0  0
  -14.8862  -11.2631   -8.7740 H   0  0  0  0  0  0
  -13.5946  -10.8775   -7.6321 H   0  0  0  0  0  0
  -14.8970  -11.9964   -7.1750 H   0  0  0  0  0  0
   -2.1443  -12.2887   -7.8825 H   0  0  0  0  0  0
   -2.3050  -10.0826   -6.7799 H   0  0  0  0  0  0
   -4.0205  -10.0334   -7.0727 H   0  0  0  0  0  0
   -3.3147  -11.2644   -6.0135 H   0  0  0  0  0  0
   -1.7906  -10.0636   -9.0133 H   0  0  0  0  0  0
   -2.0962  -11.3157  -10.1563 H   0  0  0  0  0  0
   -3.4034  -10.1868   -9.6810 H   0  0  0  0  0  0
   -4.6525  -13.8702  -10.1328 H   0  0  0  0  0  0
   -3.3240  -12.8973  -10.4922 H   0  0  0  0  0  0
   -2.9778  -14.9502   -8.3034 H   0  0  0  0  0  0
   -4.0083  -15.9612  -10.6152 H   0  0  0  0  0  0
   -1.7318  -16.3493  -12.0173 H   0  0  0  0  0  0
   -2.5217  -14.7920  -12.0800 H   0  0  0  0  0  0
   -0.5287  -14.1005  -11.4000 H   0  0  0  0  0  0
   -1.0571  -13.2977   -9.4425 H   0  0  0  0  0  0
   -0.7118  -14.8719   -8.7408 H   0  0  0  0  0  0
   -3.3437  -17.2999   -8.7275 H   0  0  0  0  0  0
   -4.3615  -18.8199  -11.2536 H   0  0  0  0  0  0
   -3.2427  -18.1283  -12.4261 H   0  0  0  0  0  0
   -5.0842  -21.0463  -11.6809 H   0  0  0  0  0  0
   -4.7683  -23.2544  -12.7386 H   0  0  0  0  0  0
   -2.6830  -23.7407  -13.9726 H   0  0  0  0  0  0
   -0.9065  -22.0358  -14.1487 H   0  0  0  0  0  0
   -1.2163  -19.8221  -13.1065 H   0  0  0  0  0  0
  1  2  2  0  0  0
  2  3  2  0  0  0
  2 30  1  0  0  0
  2 31  1  0  0  0
  4  5  2  0  0  0
  4  9  1  0  0  0
  4 10  1  0  0  0
  5  6  1  0  0  0
  5 38  1  0  0  0
  6  7  2  0  0  0
  6 39  1  0  0  0
  7  8  1  0  0  0
  7 18  1  0  0  0
  8  9  2  0  0  0
  8 40  1  0  0  0
  9 12  1  0  0  0
 10 11  1  0  0  0
 11 41  1  0  0  0
 11 42  1  0  0  0
 11 43  1  0  0  0
 12 13  1  0  0  0
 13 14  1  0  0  0
 13 44  1  0  0  0
 13 45  1  0  0  0
 14 15  1  0  0  0
 14 46  1  0  0  0
 14 47  1  0  0  0
 15 16  1  0  0  0
 15 48  1  0  0  0
 15 49  1  0  0  0
 16 17  1  0  0  0
 17 50  1  0  0  0
 17 51  1  0  0  0
 17 52  1  0  0  0
 18 19  1  0  0  0
 18 20  2  0  0  0
 19 21  1  0  0  0
 19 24  1  0  0  0
 21 22  1  0  0  0
 21 23  1  0  0  0
 21 53  1  0  0  0
 22 54  1  0  0  0
 22 55  1  0  0  0
 22 56  1  0  0  0
 23 57  1  0  0  0
 23 58  1  0  0  0
 23 59  1  0  0  0
 24 25  1  0  0  0
 24 60  1  0  0  0
 24 61  1  0  0  0
 25 26  1  0  0  0
 25 29  1  0  0  0
 25 62  1  0  0  0
 26 27  1  0  0  0
 26 30  1  0  0  0
 26 63  1  0  0  0
 27 28  1  0  0  0
 27 64  1  0  0  0
 27 65  1  0  0  0
 28 29  1  0  0  0
 28 66  1  0  0  0
 29 67  1  0  0  0
 29 68  1  0  0  0
 30 69  1  0  0  0
 31 32  1  0  0  0
 31 70  1  0  0  0
 31 71  1  0  0  0
 32 33  2  0  0  0
 32 37  1  0  0  0
 33 34  1  0  0  0
 33 72  1  0  0  0
 34 35  2  0  0  0
 34 73  1  0  0  0
 35 36  1  0  0  0
 35 74  1  0  0  0
 36 37  2  0  0  0
 36 75  1  0  0  0
 37 76  1  0  0  0
M  END
> <s_m_entry_id>
26447

> <s_m_entry_name>
dock_pv.271

> <s_m_Source_Path>
/home/csk/Desktop/cluster/DUD-E-result/reni

> <s_m_Source_File>
dock_pv.maegz

> <i_m_Source_File_Index>
271

> <chembl_id>
CHEMBL3401541

> <chembl_pref_name>
None

> <i_lp_mmshare_version>
53161

> <r_lp_tautomer_probability>
1

> <s_lp_Force_Field>
OPLS_2005

> <r_lp_Energy>
53.944561

> <b_lp_Chiralities_Consistent>
1

> <s_lp_Variant>
CHEMBL286_lig2525-1

> <s_i_glide_gridfile>
glide-grid_3g6z

> <i_i_glide_lignum>
6589

> <i_i_glide_rotatable_bonds>
15

> <r_i_docking_score>
-6.94174349006321

> <r_i_glide_ligand_efficiency>
-0.187614688920627

> <r_i_glide_ligand_efficiency_sa>
-0.625173765358589

> <r_i_glide_ligand_efficiency_ln>
-1.50550142543794

> <r_i_glide_gscore>
-6.94174349006321

> <r_i_glide_lipo>
-3.81824563839353

> <r_i_glide_hbond>
-0.32

> <r_i_glide_metal>
0

> <r_i_glide_rewards>
-0.594392199444262

> <r_i_glide_evdw>
-45.4615936279297

> <r_i_glide_ecoul>
-4.88620281219482

> <r_i_glide_erotb>
0.796904451000284

> <r_i_glide_esite>
0

> <r_i_glide_emodel>
-67.8752684057698

> <r_i_glide_energy>
-50.3477964401245

> <r_i_glide_einternal>
7.02256155014038

> <i_i_glide_confnum>
160

> <i_i_glide_posenum>
177

> <r_i_glide_eff_state_penalty>
0

> <s_user_duplicate_titles>
CHEMBL286_lig2525

> <i_f3d_flags>
0

> <s_m_subgroup_title>
dock_pv

> <s_m_subgroupid>
dock_pv

> <b_m_subgroup_collapsed>
1

$$$$
CHEMBL286_lig1234
                    3D
 Schrodinger Suite 2021-1.
 93 94  0  0  1  0            999 V2000
   -3.3482  -16.4261  -11.0609 C   0  0  0  0  0  0
   -6.1815  -17.2407   -9.8637 C   0  0  0  0  0  0
   -8.5979  -19.6820  -10.2063 C   0  0  0  0  0  0
   -5.5138  -17.7107  -10.9282 N   0  0  0  0  0  0
   -2.0445  -16.4662  -10.7312 N   0  0  0  0  0  0
   -4.0661  -17.7877  -11.1267 C   0  0  1  0  0  0
   -4.4697  -20.8994  -12.3321 N   0  0  0  0  0  0
   -8.2228  -18.4596  -10.7551 N   0  0  0  0  0  0
   -7.7298  -17.2917   -9.9671 C   0  0  1  0  0  0
   -4.7080  -19.6145  -12.8233 C   0  0  0  0  0  0
   -1.0864  -15.3435  -10.7334 C   0  0  2  0  0  0
   -3.8150  -18.4408  -12.5041 C   0  0  0  0  0  0
   -6.2733  -20.9570  -13.6212 N   0  0  0  0  0  0
   -5.4422  -21.6462  -12.8384 C   0  0  0  0  0  0
   -8.8667  -20.5542  -11.2249 O   0  0  0  0  0  0
   -5.8376  -19.6435  -13.6205 C   0  0  0  0  0  0
   -8.6704  -19.9599   -9.0108 O   0  0  0  0  0  0
   -3.9665  -15.3977  -11.3269 O   0  0  0  0  0  0
   -5.6301  -16.7732   -8.8678 O   0  0  0  0  0  0
   -8.4324  -17.0614   -8.5855 C   0  0  0  0  0  0
    0.2912  -15.8118  -10.1728 C   0  0  0  0  0  0
   -9.4880  -21.8468  -11.0686 C   0  0  0  0  0  0
   -1.5911  -14.0301  -10.0376 C   0  0  2  0  0  0
   -9.9316  -16.7873   -8.5855 C   0  0  0  0  0  0
   -0.5719  -13.0411  -10.0202 O   0  0  0  0  0  0
   -2.5430  -12.9860   -7.8209 C   0  0  0  0  0  0
    0.8972  -17.1212  -10.7435 C   0  0  0  0  0  0
   -2.1585  -14.2528   -8.6089 C   0  0  0  0  0  0
   -8.8399  -22.7280   -9.9748 C   0  0  0  0  0  0
   -9.3135  -22.5794  -12.4117 C   0  0  0  0  0  0
  -10.9935  -21.6295  -10.8032 C   0  0  0  0  0  0
   -3.5429  -12.0541   -8.5425 C   0  0  0  0  0  0
   -4.1003  -10.9045   -7.6701 C   0  0  0  0  0  0
  -10.6690  -16.9026   -7.3866 C   0  0  0  0  0  0
  -10.5637  -16.1886   -9.6934 C   0  0  0  0  0  0
    2.1775  -17.5041   -9.9727 C   0  0  0  0  0  0
    1.1750  -17.0378  -12.2556 C   0  0  0  0  0  0
   -2.9934  -10.0983   -6.9658 C   0  0  0  0  0  0
   -5.1452  -11.3975   -6.6566 C   0  0  0  0  0  0
  -11.8690  -15.7326   -9.5918 C   0  0  0  0  0  0
  -11.9824  -16.4613   -7.3209 C   0  0  0  0  0  0
  -12.5807  -15.8693   -8.4160 C   0  0  0  0  0  0
   -6.0625  -18.0645  -11.6978 H   0  0  0  0  0  0
   -1.6483  -17.3710  -10.5252 H   0  0  0  0  0  0
   -3.6785  -18.4406  -10.3427 H   0  0  0  0  0  0
   -8.2962  -18.3545  -11.7580 H   0  0  0  0  0  0
   -7.9603  -16.4149  -10.5701 H   0  0  0  0  0  0
   -0.9328  -15.0870  -11.7818 H   0  0  0  0  0  0
   -3.9436  -17.7026  -13.2981 H   0  0  0  0  0  0
   -2.7776  -18.7726  -12.5728 H   0  0  0  0  0  0
   -7.0886  -21.3278  -14.0957 H   0  0  0  0  0  0
   -5.5449  -22.7045  -12.6372 H   0  0  0  0  0  0
   -6.3484  -18.8666  -14.1777 H   0  0  0  0  0  0
   -7.9927  -16.1827   -8.1083 H   0  0  0  0  0  0
   -8.2217  -17.8779   -7.8936 H   0  0  0  0  0  0
    1.0248  -15.0155  -10.3115 H   0  0  0  0  0  0
    0.2006  -15.9323   -9.0933 H   0  0  0  0  0  0
   -2.3897  -13.6056  -10.6484 H   0  0  0  0  0  0
   -0.2804  -12.8646  -10.9290 H   0  0  0  0  0  0
   -2.9512  -13.2976   -6.8594 H   0  0  0  0  0  0
   -1.6341  -12.4297   -7.5905 H   0  0  0  0  0  0
    0.1846  -17.9312  -10.5838 H   0  0  0  0  0  0
   -3.0379  -14.8969   -8.6628 H   0  0  0  0  0  0
   -1.4305  -14.7995   -8.0116 H   0  0  0  0  0  0
   -9.0650  -22.3732   -8.9695 H   0  0  0  0  0  0
   -9.1878  -23.7627  -10.0261 H   0  0  0  0  0  0
   -7.7523  -22.7447  -10.0800 H   0  0  0  0  0  0
   -9.8168  -22.0630  -13.2224 H   0  0  0  0  0  0
   -8.2644  -22.6735  -12.6833 H   0  0  0  0  0  0
   -9.7316  -23.5851  -12.3762 H   0  0  0  0  0  0
  -11.4698  -21.0917  -11.6215 H   0  0  0  0  0  0
  -11.5212  -22.5738  -10.6727 H   0  0  0  0  0  0
  -11.1584  -21.0242   -9.9137 H   0  0  0  0  0  0
   -3.0547  -11.6207   -9.4167 H   0  0  0  0  0  0
   -4.3726  -12.6440   -8.9350 H   0  0  0  0  0  0
   -4.6155  -10.2141   -8.3401 H   0  0  0  0  0  0
  -10.2145  -17.3337   -6.5081 H   0  0  0  0  0  0
  -10.0464  -16.0633  -10.6304 H   0  0  0  0  0  0
    2.9301  -16.7208  -10.0209 H   0  0  0  0  0  0
    1.9722  -17.6624   -8.9155 H   0  0  0  0  0  0
    2.6179  -18.4237  -10.3591 H   0  0  0  0  0  0
    1.8753  -16.2341  -12.4836 H   0  0  0  0  0  0
    1.6072  -17.9669  -12.6292 H   0  0  0  0  0  0
    0.2593  -16.8673  -12.8199 H   0  0  0  0  0  0
   -2.4482  -10.6992   -6.2387 H   0  0  0  0  0  0
   -2.2717   -9.6973   -7.6761 H   0  0  0  0  0  0
   -3.4241   -9.2630   -6.4206 H   0  0  0  0  0  0
   -4.7458  -12.1707   -6.0015 H   0  0  0  0  0  0
   -5.4704  -10.5736   -6.0208 H   0  0  0  0  0  0
   -6.0264  -11.8041   -7.1535 H   0  0  0  0  0  0
  -12.3502  -15.2591  -10.4248 H   0  0  0  0  0  0
  -12.5578  -16.5739   -6.4210 H   0  0  0  0  0  0
  -13.6028  -15.5226   -8.3560 H   0  0  0  0  0  0
  1  5  1  0  0  0
  1  6  1  0  0  0
  1 18  2  0  0  0
  2  4  1  0  0  0
  2  9  1  0  0  0
  2 19  2  0  0  0
  3  8  1  0  0  0
  3 15  1  0  0  0
  3 17  2  0  0  0
  4  6  1  0  0  0
  4 43  1  0  0  0
  5 11  1  0  0  0
  5 44  1  0  0  0
  6 12  1  0  0  0
  6 45  1  0  0  0
  7 10  1  0  0  0
  7 14  2  0  0  0
  8  9  1  0  0  0
  8 46  1  0  0  0
  9 20  1  0  0  0
  9 47  1  0  0  0
 10 12  1  0  0  0
 10 16  2  0  0  0
 11 21  1  0  0  0
 11 23  1  0  0  0
 11 48  1  0  0  0
 12 49  1  0  0  0
 12 50  1  0  0  0
 13 16  1  0  0  0
 13 14  1  0  0  0
 13 51  1  0  0  0
 14 52  1  0  0  0
 15 22  1  0  0  0
 16 53  1  0  0  0
 20 24  1  0  0  0
 20 54  1  0  0  0
 20 55  1  0  0  0
 21 27  1  0  0  0
 21 56  1  0  0  0
 21 57  1  0  0  0
 22 29  1  0  0  0
 22 30  1  0  0  0
 22 31  1  0  0  0
 23 25  1  0  0  0
 23 28  1  0  0  0
 23 58  1  0  0  0
 24 34  2  0  0  0
 24 35  1  0  0  0
 25 59  1  0  0  0
 26 28  1  0  0  0
 26 32  1  0  0  0
 26 60  1  0  0  0
 26 61  1  0  0  0
 27 36  1  0  0  0
 27 37  1  0  0  0
 27 62  1  0  0  0
 28 63  1  0  0  0
 28 64  1  0  0  0
 29 65  1  0  0  0
 29 66  1  0  0  0
 29 67  1  0  0  0
 30 68  1  0  0  0
 30 69  1  0  0  0
 30 70  1  0  0  0
 31 71  1  0  0  0
 31 72  1  0  0  0
 31 73  1  0  0  0
 32 33  1  0  0  0
 32 74  1  0  0  0
 32 75  1  0  0  0
 33 38  1  0  0  0
 33 39  1  0  0  0
 33 76  1  0  0  0
 34 41  1  0  0  0
 34 77  1  0  0  0
 35 40  2  0  0  0
 35 78  1  0  0  0
 36 79  1  0  0  0
 36 80  1  0  0  0
 36 81  1  0  0  0
 37 82  1  0  0  0
 37 83  1  0  0  0
 37 84  1  0  0  0
 38 85  1  0  0  0
 38 86  1  0  0  0
 38 87  1  0  0  0
 39 88  1  0  0  0
 39 89  1  0  0  0
 39 90  1  0  0  0
 40 42  1  0  0  0
 40 91  1  0  0  0
 41 42  2  0  0  0
 41 92  1  0  0  0
 42 93  1  0  0  0
M  END
> <s_m_entry_id>
26448

> <s_m_entry_name>
dock_pv.272

> <s_m_Source_Path>
/home/csk/Desktop/cluster/DUD-E-result/reni

> <s_m_Source_File>
dock_pv.maegz

> <i_m_Source_File_Index>
272

> <chembl_id>
CHEMBL3144130

> <chembl_pref_name>
None

> <i_lp_mmshare_version>
53161

> <r_lp_tautomer_probability>
0.499999999999999

> <s_lp_Force_Field>
OPLS_2005

> <r_lp_Energy>
13.628751

> <b_lp_Chiralities_Consistent>
1

> <s_lp_Variant>
CHEMBL286_lig1234-1

> <s_i_glide_gridfile>
glide-grid_3g6z

> <i_i_glide_lignum>
4012

> <i_i_glide_rotatable_bonds>
22

> <r_i_docking_score>
-6.9387416184595

> <r_i_glide_ligand_efficiency>
-0.165208133772845

> <r_i_glide_ligand_efficiency_sa>
-0.574267874230901

> <r_i_glide_ligand_efficiency_ln>
-1.46458959309486

> <r_i_glide_gscore>
-6.9387416184595

> <r_i_glide_lipo>
-3.18713199646094

> <r_i_glide_hbond>
-0.608

> <r_i_glide_metal>
0

> <r_i_glide_rewards>
-0.543131213951247

> <r_i_glide_evdw>
-45.7739486694336

> <r_i_glide_ecoul>
-7.50988149642944

> <r_i_glide_erotb>
0.871190267812559

> <r_i_glide_esite>
-0.0564890179237711

> <r_i_glide_emodel>
-70.2470562006871

> <r_i_glide_energy>
-53.283830165863

> <r_i_glide_einternal>
12.201807975769

> <i_i_glide_confnum>
102

> <i_i_glide_posenum>
65

> <r_i_glide_eff_state_penalty>
0

> <s_user_duplicate_titles>
CHEMBL286_lig1234,62243

> <i_f3d_flags>
0

> <s_m_subgroup_title>
dock_pv

> <s_m_subgroupid>
dock_pv

> <b_m_subgroup_collapsed>
1

$$$$
CHEMBL286_lig2596
                    3D
 Schrodinger Suite 2021-1.
101102  0  0  1  0            999 V2000
   -1.1976  -14.6242  -10.3862 C   0  0  0  0  0  0
   -2.6562  -14.2016  -10.6881 C   0  0  0  0  0  0
   -2.6365  -12.9161  -11.5527 C   0  0  0  0  0  0
  -10.1524  -14.5581   -8.8210 C   0  0  0  0  0  0
  -11.5179  -14.6337   -8.5042 C   0  0  0  0  0  0
  -12.2039  -15.8296   -8.6745 C   0  0  0  0  0  0
  -11.5389  -16.9564   -9.1416 C   0  0  0  0  0  0
  -10.1787  -16.9241   -9.4652 C   0  0  0  0  0  0
   -9.4964  -15.7061   -9.3159 C   0  0  0  0  0  0
   -9.5414  -13.3478   -8.5559 O   0  0  0  0  0  0
   -8.1370  -13.1610   -8.6690 C   0  0  0  0  0  0
   -7.6496  -12.1279   -7.6210 C   0  0  0  0  0  0
   -8.5063  -10.8630   -7.3226 C   0  0  0  0  0  0
   -9.9144  -11.0601   -7.3019 O   0  0  0  0  0  0
  -10.6548   -9.8666   -7.0810 C   0  0  0  0  0  0
  -12.1944  -13.5798   -7.9352 O   0  0  0  0  0  0
  -12.5374  -12.5240   -8.8211 C   0  0  0  0  0  0
   -9.4039  -18.2107   -9.8238 C   0  0  0  0  0  0
   -9.7489  -18.9923  -11.1473 C   0  0  1  0  0  0
   -8.5776  -19.9876  -11.5074 C   0  0  0  0  0  0
  -11.1762  -19.6811  -11.0575 C   0  0  0  0  0  0
  -11.2983  -21.2107  -11.2828 C   0  0  0  0  0  0
  -12.3228  -18.9010  -11.7433 C   0  0  0  0  0  0
   -7.4287  -19.4956  -12.4528 C   0  0  1  0  0  0
   -6.2338  -18.7051  -11.8407 C   0  0  2  0  0  0
   -6.8843  -20.6310  -13.1934 N   0  0  0  0  0  0
   -5.4169  -19.4764  -10.7559 C   0  0  0  0  0  0
   -6.6682  -17.4315  -11.4089 O   0  0  0  0  0  0
   -4.2243  -18.7670  -10.0306 C   0  0  2  0  0  0
   -3.4865  -17.7592  -10.9466 C   0  0  0  0  0  0
   -3.2339  -19.7787   -9.3510 C   0  0  0  0  0  0
   -3.9344  -20.8479   -8.4813 C   0  0  0  0  0  0
   -2.1341  -19.0855   -8.5119 C   0  0  0  0  0  0
   -2.6890  -18.1456  -11.8024 O   0  0  0  0  0  0
   -3.8095  -16.4719  -10.7602 N   0  0  0  0  0  0
   -3.3330  -15.3247  -11.5313 C   0  0  0  0  0  0
   -3.4509  -13.9553   -9.3604 C   0  0  0  0  0  0
   -3.0130  -12.7649   -8.5074 C   0  0  0  0  0  0
   -3.7008  -11.5511   -8.6138 C   0  0  0  0  0  0
   -3.3342  -10.4630   -7.8252 C   0  0  0  0  0  0
   -2.2678  -10.5692   -6.9343 C   0  0  0  0  0  0
   -1.5777  -11.7755   -6.8210 C   0  0  0  0  0  0
   -1.9571  -12.8754   -7.5908 C   0  0  0  0  0  0
   -1.3047  -14.0492   -7.4256 F   0  0  0  0  0  0
   -0.6525  -14.8647  -11.3007 H   0  0  0  0  0  0
   -0.6381  -13.8289   -9.8940 H   0  0  0  0  0  0
   -1.1606  -15.5055   -9.7444 H   0  0  0  0  0  0
   -2.2020  -13.1014  -12.5362 H   0  0  0  0  0  0
   -3.6424  -12.5276  -11.7169 H   0  0  0  0  0  0
   -2.0501  -12.1211  -11.0905 H   0  0  0  0  0  0
  -13.2501  -15.8929   -8.4131 H   0  0  0  0  0  0
  -12.1128  -17.8619   -9.2096 H   0  0  0  0  0  0
   -8.4450  -15.6777   -9.5571 H   0  0  0  0  0  0
   -7.5775  -14.0782   -8.4850 H   0  0  0  0  0  0
   -7.9010  -12.8630   -9.6889 H   0  0  0  0  0  0
   -7.4689  -12.6594   -6.6915 H   0  0  0  0  0  0
   -6.6535  -11.7958   -7.9110 H   0  0  0  0  0  0
   -8.2175  -10.4764   -6.3446 H   0  0  0  0  0  0
   -8.2694  -10.0676   -8.0211 H   0  0  0  0  0  0
  -11.7197  -10.0965   -7.0501 H   0  0  0  0  0  0
  -10.3889   -9.4010   -6.1307 H   0  0  0  0  0  0
  -10.4934   -9.1442   -7.8827 H   0  0  0  0  0  0
  -13.1365  -11.7866   -8.2885 H   0  0  0  0  0  0
  -11.6608  -12.0105   -9.2196 H   0  0  0  0  0  0
  -13.1302  -12.8835   -9.6625 H   0  0  0  0  0  0
   -9.4884  -18.8908   -8.9767 H   0  0  0  0  0  0
   -8.3480  -17.9664   -9.7998 H   0  0  0  0  0  0
   -9.7892  -18.2645  -11.9609 H   0  0  0  0  0  0
   -9.0087  -20.8395  -12.0218 H   0  0  0  0  0  0
   -8.1690  -20.4325  -10.6001 H   0  0  0  0  0  0
  -11.4501  -19.6425  -10.0210 H   0  0  0  0  0  0
  -11.0682  -21.5331  -12.2968 H   0  0  0  0  0  0
  -10.6360  -21.7569  -10.6097 H   0  0  0  0  0  0
  -12.3088  -21.5580  -11.0647 H   0  0  0  0  0  0
  -12.2690  -18.8619  -12.8200 H   0  0  0  0  0  0
  -13.2796  -19.3701  -11.5294 H   0  0  0  0  0  0
  -12.3715  -17.8623  -11.4266 H   0  0  0  0  0  0
   -7.8691  -18.8683  -13.2210 H   0  0  0  0  0  0
   -5.5520  -18.4861  -12.6662 H   0  0  0  0  0  0
   -6.5727  -21.3444  -12.5515 H   0  0  0  0  0  0
   -7.6087  -21.0617  -13.7592 H   0  0  0  0  0  0
   -5.0278  -20.3770  -11.2321 H   0  0  0  0  0  0
   -6.1082  -19.8154   -9.9848 H   0  0  0  0  0  0
   -7.1437  -17.0246  -12.1397 H   0  0  0  0  0  0
   -4.6756  -18.1896   -9.2213 H   0  0  0  0  0  0
   -2.7244  -20.3264  -10.1483 H   0  0  0  0  0  0
   -4.4750  -20.4059   -7.6441 H   0  0  0  0  0  0
   -4.6389  -21.4480   -9.0568 H   0  0  0  0  0  0
   -3.2080  -21.5457   -8.0624 H   0  0  0  0  0  0
   -2.5663  -18.4820   -7.7125 H   0  0  0  0  0  0
   -1.4689  -19.8152   -8.0505 H   0  0  0  0  0  0
   -1.5065  -18.4309   -9.1180 H   0  0  0  0  0  0
   -4.5688  -16.2842  -10.1232 H   0  0  0  0  0  0
   -4.2240  -14.9269  -12.0209 H   0  0  0  0  0  0
   -2.6688  -15.6374  -12.3416 H   0  0  0  0  0  0
   -3.4164  -14.8422   -8.7248 H   0  0  0  0  0  0
   -4.5091  -13.8312   -9.5979 H   0  0  0  0  0  0
   -4.5203  -11.4486   -9.3096 H   0  0  0  0  0  0
   -3.8689   -9.5299   -7.9125 H   0  0  0  0  0  0
   -1.9815   -9.7200   -6.3307 H   0  0  0  0  0  0
   -0.7597  -11.8662   -6.1225 H   0  0  0  0  0  0
  1  2  1  0  0  0
  1 45  1  0  0  0
  1 46  1  0  0  0
  1 47  1  0  0  0
  2  3  1  0  0  0
  2 36  1  0  0  0
  2 37  1  0  0  0
  3 48  1  0  0  0
  3 49  1  0  0  0
  3 50  1  0  0  0
  4  5  2  0  0  0
  4  9  1  0  0  0
  4 10  1  0  0  0
  5  6  1  0  0  0
  5 16  1  0  0  0
  6  7  2  0  0  0
  6 51  1  0  0  0
  7  8  1  0  0  0
  7 52  1  0  0  0
  8  9  2  0  0  0
  8 18  1  0  0  0
  9 53  1  0  0  0
 10 11  1  0  0  0
 11 12  1  0  0  0
 11 54  1  0  0  0
 11 55  1  0  0  0
 12 13  1  0  0  0
 12 56  1  0  0  0
 12 57  1  0  0  0
 13 14  1  0  0  0
 13 58  1  0  0  0
 13 59  1  0  0  0
 14 15  1  0  0  0
 15 60  1  0  0  0
 15 61  1  0  0  0
 15 62  1  0  0  0
 16 17  1  0  0  0
 17 63  1  0  0  0
 17 64  1  0  0  0
 17 65  1  0  0  0
 18 19  1  0  0  0
 18 66  1  0  0  0
 18 67  1  0  0  0
 19 20  1  0  0  0
 19 21  1  0  0  0
 19 68  1  0  0  0
 20 24  1  0  0  0
 20 69  1  0  0  0
 20 70  1  0  0  0
 21 22  1  0  0  0
 21 23  1  0  0  0
 21 71  1  0  0  0
 22 72  1  0  0  0
 22 73  1  0  0  0
 22 74  1  0  0  0
 23 75  1  0  0  0
 23 76  1  0  0  0
 23 77  1  0  0  0
 24 25  1  0  0  0
 24 26  1  0  0  0
 24 78  1  0  0  0
 25 27  1  0  0  0
 25 28  1  0  0  0
 25 79  1  0  0  0
 26 80  1  0  0  0
 26 81  1  0  0  0
 27 29  1  0  0  0
 27 82  1  0  0  0
 27 83  1  0  0  0
 28 84  1  0  0  0
 29 30  1  0  0  0
 29 31  1  0  0  0
 29 85  1  0  0  0
 30 34  2  0  0  0
 30 35  1  0  0  0
 31 32  1  0  0  0
 31 33  1  0  0  0
 31 86  1  0  0  0
 32 87  1  0  0  0
 32 88  1  0  0  0
 32 89  1  0  0  0
 33 90  1  0  0  0
 33 91  1  0  0  0
 33 92  1  0  0  0
 35 36  1  0  0  0
 35 93  1  0  0  0
 36 94  1  0  0  0
 36 95  1  0  0  0
 37 38  1  0  0  0
 37 96  1  0  0  0
 37 97  1  0  0  0
 38 39  2  0  0  0
 38 43  1  0  0  0
 39 40  1  0  0  0
 39 98  1  0  0  0
 40 41  2  0  0  0
 40 99  1  0  0  0
 41 42  1  0  0  0
 41100  1  0  0  0
 42 43  2  0  0  0
 42101  1  0  0  0
 43 44  1  0  0  0
M  END
> <s_m_entry_id>
26449

> <s_m_entry_name>
dock_pv.273

> <s_m_Source_Path>
/home/csk/Desktop/cluster/DUD-E-result/reni

> <s_m_Source_File>
dock_pv.maegz

> <i_m_Source_File_Index>
273

> <chembl_id>
CHEMBL3633104

> <chembl_pref_name>
None

> <i_lp_mmshare_version>
53161

> <r_lp_tautomer_probability>
1

> <s_lp_Force_Field>
OPLS_2005

> <r_lp_Energy>
43.384952

> <b_lp_Chiralities_Consistent>
1

> <s_lp_Variant>
CHEMBL286_lig2596-1

> <s_i_glide_gridfile>
glide-grid_3g6z

> <i_i_glide_lignum>
6661

> <i_i_glide_rotatable_bonds>
22

> <r_i_docking_score>
-6.93736953028951

> <r_i_glide_ligand_efficiency>
-0.157667489324762

> <r_i_glide_ligand_efficiency_sa>
-0.556621157770592

> <r_i_glide_ligand_efficiency_ln>
-1.45006156969739

> <r_i_glide_gscore>
-6.93736953028951

> <r_i_glide_lipo>
-4.01499462415896

> <r_i_glide_hbond>
-0.275048753775541

> <r_i_glide_metal>
0

> <r_i_glide_rewards>
-0.461599509931619

> <r_i_glide_evdw>
-43.8615264892578

> <r_i_glide_ecoul>
-4.99012231826782

> <r_i_glide_erotb>
0.757026255630049

> <r_i_glide_esite>
-0.00115822585037143

> <r_i_glide_emodel>
-45.2083912478035

> <r_i_glide_energy>
-48.8516488075256

> <r_i_glide_einternal>
26.0926914215088

> <i_i_glide_confnum>
43

> <i_i_glide_posenum>
249

> <r_i_glide_eff_state_penalty>
0

> <s_user_duplicate_titles>
CHEMBL286_lig2596

> <i_f3d_flags>
0

> <s_m_subgroup_title>
dock_pv

> <s_m_subgroupid>
dock_pv

> <b_m_subgroup_collapsed>
1

$$$$
CHEMBL286_lig2462
                    3D
 Schrodinger Suite 2021-1.
 72 74  0  0  1  0            999 V2000
   -6.0826  -14.4328   -9.0315 C   0  0  0  0  0  0
   -6.7336  -15.0202  -10.3114 C   0  0  0  0  0  0
   -6.2688  -14.2548  -11.5772 C   0  0  0  0  0  0
  -11.4619  -13.0676   -7.9834 C   0  0  0  0  0  0
  -12.6445  -13.8008   -7.9646 C   0  0  0  0  0  0
  -12.6512  -15.1160   -8.4211 C   0  0  0  0  0  0
  -11.4790  -15.7158   -8.8883 C   0  0  0  0  0  0
  -10.2535  -15.0102   -8.8308 C   0  0  0  0  0  0
  -10.2802  -13.6630   -8.4210 C   0  0  0  0  0  0
   -9.0054  -15.5671   -9.2486 N   0  0  0  0  0  0
   -8.2690  -14.8103  -10.2906 C   0  0  0  0  0  0
   -6.5777  -16.4831  -10.4168 N   0  0  2  0  0  0
   -7.1555  -17.2643   -9.3012 C   0  0  0  0  0  0
   -8.5263  -16.7572   -8.7610 C   0  0  0  0  0  0
   -9.0994  -17.4011   -7.8792 O   0  0  0  0  0  0
   -5.2290  -16.9787  -10.7828 C   0  0  0  0  0  0
   -5.1633  -17.7545  -12.1397 C   0  0  1  0  0  0
   -5.9494  -19.1020  -12.1995 C   0  0  2  0  0  0
   -5.5574  -16.8633  -13.2210 N   0  0  0  0  0  0
   -5.3196  -20.1677  -11.2586 C   0  0  0  0  0  0
   -5.9428  -19.6231  -13.5281 O   0  0  0  0  0  0
   -5.9329  -21.5997  -11.2944 C   0  0  2  0  0  0
   -7.4429  -21.5979  -10.9673 C   0  0  0  0  0  0
   -8.2355  -22.2152  -11.8684 N   0  0  0  0  0  0
   -7.8331  -21.0723   -9.9237 O   0  0  0  0  0  0
   -5.1878  -22.5912  -10.3568 C   0  0  0  0  0  0
  -11.6334  -17.2805   -9.6172 Cl  0  0  0  0  0  0
   -9.6329  -22.3551  -11.8873 C   0  0  0  0  0  0
  -10.5171  -21.6077  -11.0933 C   0  0  0  0  0  0
  -11.8921  -21.7455  -11.2663 C   0  0  0  0  0  0
  -12.3844  -22.6161  -12.2395 C   0  0  0  0  0  0
  -11.5122  -23.3968  -12.9952 C   0  0  0  0  0  0
  -10.1394  -23.2625  -12.8208 C   0  0  0  0  0  0
   -3.7286  -22.8776  -10.7516 C   0  0  0  0  0  0
  -13.8692  -22.6923  -12.5114 C   0  0  0  0  0  0
   -6.1940  -13.3490   -8.9900 H   0  0  0  0  0  0
   -6.5063  -14.8355   -8.1123 H   0  0  0  0  0  0
   -5.0160  -14.6502   -9.0023 H   0  0  0  0  0  0
   -6.4936  -13.1905  -11.5055 H   0  0  0  0  0  0
   -5.1964  -14.3335  -11.7474 H   0  0  0  0  0  0
   -6.7629  -14.6215  -12.4778 H   0  0  0  0  0  0
  -11.4577  -12.0415   -7.6464 H   0  0  0  0  0  0
  -13.5587  -13.3435   -7.6160 H   0  0  0  0  0  0
  -13.5784  -15.6679   -8.4355 H   0  0  0  0  0  0
   -9.3701  -13.0816   -8.3895 H   0  0  0  0  0  0
   -8.6689  -15.1399  -11.2509 H   0  0  0  0  0  0
   -8.4929  -13.7442  -10.2397 H   0  0  0  0  0  0
   -7.2853  -18.3066   -9.5935 H   0  0  0  0  0  0
   -6.4768  -17.2633   -8.4471 H   0  0  0  0  0  0
   -4.8223  -17.6153   -9.9952 H   0  0  0  0  0  0
   -4.5218  -16.1521  -10.8445 H   0  0  0  0  0  0
   -4.1126  -17.9883  -12.3227 H   0  0  0  0  0  0
   -6.9897  -18.9259  -11.9212 H   0  0  0  0  0  0
   -4.9053  -16.0919  -13.3094 H   0  0  0  0  0  0
   -5.5770  -17.3416  -14.1132 H   0  0  0  0  0  0
   -5.3525  -19.8028  -10.2315 H   0  0  0  0  0  0
   -4.2622  -20.2397  -11.5130 H   0  0  0  0  0  0
   -6.5724  -19.0988  -14.0417 H   0  0  0  0  0  0
   -5.8090  -21.9781  -12.3108 H   0  0  0  0  0  0
   -7.7682  -22.6347  -12.6580 H   0  0  0  0  0  0
   -5.2182  -22.2284   -9.3278 H   0  0  0  0  0  0
   -5.7126  -23.5486  -10.3472 H   0  0  0  0  0  0
  -10.1671  -20.8868  -10.3709 H   0  0  0  0  0  0
  -12.5662  -21.1403  -10.6771 H   0  0  0  0  0  0
  -11.8924  -24.0751  -13.7459 H   0  0  0  0  0  0
   -9.4721  -23.8400  -13.4475 H   0  0  0  0  0  0
   -3.3037  -23.6551  -10.1169 H   0  0  0  0  0  0
   -3.6548  -23.2207  -11.7828 H   0  0  0  0  0  0
   -3.0968  -21.9984  -10.6435 H   0  0  0  0  0  0
  -14.1615  -23.6953  -12.8210 H   0  0  0  0  0  0
  -14.1472  -21.9945  -13.3007 H   0  0  0  0  0  0
  -14.4465  -22.4548  -11.6206 H   0  0  0  0  0  0
  1  2  1  0  0  0
  1 36  1  0  0  0
  1 37  1  0  0  0
  1 38  1  0  0  0
  2  3  1  0  0  0
  2 11  1  0  0  0
  2 12  1  0  0  0
  3 39  1  0  0  0
  3 40  1  0  0  0
  3 41  1  0  0  0
  4  5  2  0  0  0
  4  9  1  0  0  0
  4 42  1  0  0  0
  5  6  1  0  0  0
  5 43  1  0  0  0
  6  7  2  0  0  0
  6 44  1  0  0  0
  7  8  1  0  0  0
  7 27  1  0  0  0
  8  9  2  0  0  0
  8 10  1  0  0  0
  9 45  1  0  0  0
 10 11  1  0  0  0
 10 14  1  0  0  0
 11 46  1  0  0  0
 11 47  1  0  0  0
 12 13  1  0  0  0
 12 16  1  0  0  0
 13 14  1  0  0  0
 13 48  1  0  0  0
 13 49  1  0  0  0
 14 15  2  0  0  0
 16 17  1  0  0  0
 16 50  1  0  0  0
 16 51  1  0  0  0
 17 18  1  0  0  0
 17 19  1  0  0  0
 17 52  1  0  0  0
 18 20  1  0  0  0
 18 21  1  0  0  0
 18 53  1  0  0  0
 19 54  1  0  0  0
 19 55  1  0  0  0
 20 22  1  0  0  0
 20 56  1  0  0  0
 20 57  1  0  0  0
 21 58  1  0  0  0
 22 23  1  0  0  0
 22 26  1  0  0  0
 22 59  1  0  0  0
 23 24  1  0  0  0
 23 25  2  0  0  0
 24 28  1  0  0  0
 24 60  1  0  0  0
 26 34  1  0  0  0
 26 61  1  0  0  0
 26 62  1  0  0  0
 28 29  2  0  0  0
 28 33  1  0  0  0
 29 30  1  0  0  0
 29 63  1  0  0  0
 30 31  2  0  0  0
 30 64  1  0  0  0
 31 32  1  0  0  0
 31 35  1  0  0  0
 32 33  2  0  0  0
 32 65  1  0  0  0
 33 66  1  0  0  0
 34 67  1  0  0  0
 34 68  1  0  0  0
 34 69  1  0  0  0
 35 70  1  0  0  0
 35 71  1  0  0  0
 35 72  1  0  0  0
M  END
> <s_m_entry_id>
26450

> <s_m_entry_name>
dock_pv.274

> <s_m_Source_Path>
/home/csk/Desktop/cluster/DUD-E-result/reni

> <s_m_Source_File>
dock_pv.maegz

> <i_m_Source_File_Index>
274

> <chembl_id>
CHEMBL2387553

> <chembl_pref_name>
None

> <i_lp_mmshare_version>
53161

> <r_lp_tautomer_probability>
1

> <s_lp_Force_Field>
OPLS_2005

> <r_lp_Energy>
85.849208

> <b_lp_Chiralities_Consistent>
1

> <s_lp_Variant>
CHEMBL286_lig2462-1

> <s_i_glide_gridfile>
glide-grid_3g6z

> <i_i_glide_lignum>
6522

> <i_i_glide_rotatable_bonds>
11

> <r_i_docking_score>
-6.93589223297928

> <r_i_glide_ligand_efficiency>
-0.198168349513694

> <r_i_glide_ligand_efficiency_sa>
-0.648221811071703

> <r_i_glide_ligand_efficiency_ln>
-1.52258227897333

> <r_i_glide_gscore>
-6.93589223297928

> <r_i_glide_lipo>
-3.03245528861881

> <r_i_glide_hbond>
-0.524357844272021

> <r_i_glide_metal>
0

> <r_i_glide_rewards>
-0.991173454297663

> <r_i_glide_evdw>
-39.380241394043

> <r_i_glide_ecoul>
-7.54940462112427

> <r_i_glide_erotb>
0.732150610383286

> <r_i_glide_esite>
-0.0186334933032819

> <r_i_glide_emodel>
-61.2693490258631

> <r_i_glide_energy>
-46.9296460151672

> <r_i_glide_einternal>
8.21566867828369

> <i_i_glide_confnum>
20

> <i_i_glide_posenum>
174

> <r_i_glide_eff_state_penalty>
0

> <s_user_duplicate_titles>
CHEMBL286_lig2462

> <i_f3d_flags>
0

> <s_m_subgroup_title>
dock_pv

> <s_m_subgroupid>
dock_pv

> <b_m_subgroup_collapsed>
1

$$$$
CHEMBL286_lig1563
                    3D
 Schrodinger Suite 2021-1.
 73 76  0  0  1  0            999 V2000
   -7.3813  -18.6608  -11.8281 N   0  0  0  0  0  0
   -5.2837  -14.0045   -8.1240 C   0  0  0  0  0  0
   -7.2451  -20.0068  -12.0460 C   0  0  0  0  0  0
   -4.2115  -14.0467   -9.2164 C   0  0  0  0  0  0
   -8.4436  -18.1975  -11.0391 C   0  0  0  0  0  0
   -6.4929  -17.6065  -12.4060 C   0  0  2  0  0  0
   -5.8688  -19.4078  -14.0210 N   0  0  2  0  0  0
  -12.1033  -11.6691   -7.1150 C   0  0  0  0  0  0
   -7.9847  -20.8628  -11.5480 O   0  0  0  0  0  0
  -10.8300  -11.8692   -7.6888 C   0  0  0  0  0  0
   -3.8059  -15.2628   -9.8138 C   0  0  0  0  0  0
   -6.4379  -14.4493   -8.6195 F   0  0  0  0  0  0
   -4.9230  -14.7813   -7.1036 F   0  0  0  0  0  0
   -5.4954  -12.7752   -7.6461 F   0  0  0  0  0  0
   -8.2420  -17.9620   -9.6796 C   0  0  0  0  0  0
   -9.6930  -17.9741  -11.6210 C   0  0  0  0  0  0
   -6.1030  -20.4263  -13.0006 C   0  0  0  0  0  0
   -5.4682  -18.1414  -13.4413 C   0  0  0  0  0  0
   -4.8864  -17.3297  -10.6001 O   0  0  0  0  0  0
  -10.5551  -17.2754   -9.4840 C   0  0  0  0  0  0
   -9.2933  -17.4909   -8.9044 C   0  0  0  0  0  0
  -10.7474  -17.5247  -10.8388 C   0  0  0  0  0  0
  -10.5474  -13.0889   -8.2752 O   0  0  0  0  0  0
   -5.8244  -16.6312  -11.4195 C   0  0  0  0  0  0
  -12.7900  -15.8194   -6.9275 C   0  0  0  0  0  0
  -11.6644  -16.8629   -8.7857 O   0  0  0  0  0  0
  -13.1974  -12.7328   -7.0820 C   0  0  0  0  0  0
   -4.4217  -16.6215   -9.4507 C   0  0  0  0  0  0
  -13.0694  -13.6786   -8.1351 O   0  0  0  0  0  0
   -3.6220  -12.8486   -9.6504 C   0  0  0  0  0  0
  -12.3929  -10.4593   -6.4828 C   0  0  0  0  0  0
  -11.4646  -16.2844   -7.5105 C   0  0  0  0  0  0
  -13.6369  -14.9531   -7.8693 C   0  0  0  0  0  0
   -9.8892  -10.8273   -7.6144 C   0  0  0  0  0  0
   -2.8245  -15.2484  -10.8111 C   0  0  0  0  0  0
   -9.2379  -13.3848   -8.7406 C   0  0  0  0  0  0
   -2.6568  -12.8481  -10.6556 C   0  0  0  0  0  0
  -11.4509   -9.4384   -6.4189 C   0  0  0  0  0  0
  -10.1999   -9.6225   -6.9915 C   0  0  0  0  0  0
   -2.2611  -14.0506  -11.2343 C   0  0  0  0  0  0
   -7.1941  -17.0082  -12.9895 H   0  0  0  0  0  0
   -6.6593  -19.2516  -14.6492 H   0  0  0  0  0  0
   -7.2741  -18.1357   -9.2308 H   0  0  0  0  0  0
   -9.8553  -18.1473  -12.6753 H   0  0  0  0  0  0
   -5.2012  -20.5991  -12.4103 H   0  0  0  0  0  0
   -6.3711  -21.3694  -13.4793 H   0  0  0  0  0  0
   -4.4974  -18.2798  -12.9622 H   0  0  0  0  0  0
   -5.3301  -17.4019  -14.2303 H   0  0  0  0  0  0
   -9.1105  -17.3175   -7.8569 H   0  0  0  0  0  0
  -11.7148  -17.3616  -11.2881 H   0  0  0  0  0  0
   -5.3213  -15.8417  -11.9807 H   0  0  0  0  0  0
   -6.5820  -16.1382  -10.8087 H   0  0  0  0  0  0
  -12.5581  -15.2619   -6.0210 H   0  0  0  0  0  0
  -13.3701  -16.6993   -6.6476 H   0  0  0  0  0  0
  -13.1643  -13.1933   -6.0943 H   0  0  0  0  0  0
  -14.1813  -12.2657   -7.1647 H   0  0  0  0  0  0
   -5.2446  -16.5539   -8.7426 H   0  0  0  0  0  0
   -3.6632  -17.2279   -8.9569 H   0  0  0  0  0  0
   -3.9104  -11.9019   -9.2159 H   0  0  0  0  0  0
  -13.3605  -10.3017   -6.0283 H   0  0  0  0  0  0
  -10.7999  -15.4352   -7.6210 H   0  0  0  0  0  0
  -11.0077  -16.9920   -6.8195 H   0  0  0  0  0  0
  -14.6570  -14.8628   -7.4949 H   0  0  0  0  0  0
  -13.7148  -15.4658   -8.8208 H   0  0  0  0  0  0
   -8.8975  -10.9343   -8.0203 H   0  0  0  0  0  0
   -2.5154  -16.1709  -11.2807 H   0  0  0  0  0  0
   -9.1688  -14.4487   -8.9610 H   0  0  0  0  0  0
   -9.0017  -12.8650   -9.6646 H   0  0  0  0  0  0
   -8.4817  -13.1590   -7.9898 H   0  0  0  0  0  0
   -2.2138  -11.9206  -10.9875 H   0  0  0  0  0  0
  -11.6945   -8.5027   -5.9374 H   0  0  0  0  0  0
   -9.4695   -8.8317   -6.9509 H   0  0  0  0  0  0
   -1.5168  -14.0603  -12.0173 H   0  0  0  0  0  0
  1  3  1  0  0  0
  1  5  1  0  0  0
  1  6  1  0  0  0
  2  4  1  0  0  0
  2 12  1  0  0  0
  2 13  1  0  0  0
  2 14  1  0  0  0
  3  9  2  0  0  0
  3 17  1  0  0  0
  4 11  2  0  0  0
  4 30  1  0  0  0
  5 15  1  0  0  0
  5 16  2  0  0  0
  6 18  1  0  0  0
  6 24  1  0  0  0
  6 41  1  0  0  0
  7 18  1  0  0  0
  7 17  1  0  0  0
  7 42  1  0  0  0
  8 27  1  0  0  0
  8 10  2  0  0  0
  8 31  1  0  0  0
 10 23  1  0  0  0
 10 34  1  0  0  0
 11 28  1  0  0  0
 11 35  1  0  0  0
 15 21  2  0  0  0
 15 43  1  0  0  0
 16 22  1  0  0  0
 16 44  1  0  0  0
 17 45  1  0  0  0
 17 46  1  0  0  0
 18 47  1  0  0  0
 18 48  1  0  0  0
 19 24  1  0  0  0
 19 28  1  0  0  0
 20 22  2  0  0  0
 20 26  1  0  0  0
 20 21  1  0  0  0
 21 49  1  0  0  0
 22 50  1  0  0  0
 23 36  1  0  0  0
 24 51  1  0  0  0
 24 52  1  0  0  0
 25 32  1  0  0  0
 25 33  1  0  0  0
 25 53  1  0  0  0
 25 54  1  0  0  0
 26 32  1  0  0  0
 27 29  1  0  0  0
 27 55  1  0  0  0
 27 56  1  0  0  0
 28 57  1  0  0  0
 28 58  1  0  0  0
 29 33  1  0  0  0
 30 37  2  0  0  0
 30 59  1  0  0  0
 31 38  2  0  0  0
 31 60  1  0  0  0
 32 61  1  0  0  0
 32 62  1  0  0  0
 33 63  1  0  0  0
 33 64  1  0  0  0
 34 39  2  0  0  0
 34 65  1  0  0  0
 35 40  2  0  0  0
 35 66  1  0  0  0
 36 67  1  0  0  0
 36 68  1  0  0  0
 36 69  1  0  0  0
 37 40  1  0  0  0
 37 70  1  0  0  0
 38 39  1  0  0  0
 38 71  1  0  0  0
 39 72  1  0  0  0
 40 73  1  0  0  0
M  END
> <s_m_entry_id>
26451

> <s_m_entry_name>
dock_pv.275

> <s_m_Source_Path>
/home/csk/Desktop/cluster/DUD-E-result/reni

> <s_m_Source_File>
dock_pv.maegz

> <i_m_Source_File_Index>
275

> <chembl_id>
CHEMBL194658

> <chembl_pref_name>
None

> <i_lp_mmshare_version>
53161

> <r_lp_tautomer_probability>
1

> <s_lp_Force_Field>
OPLS_2005

> <r_lp_Energy>
57.37815

> <b_lp_Chiralities_Consistent>
1

> <s_lp_Variant>
CHEMBL286_lig1563-1

> <s_i_glide_gridfile>
glide-grid_3g6z

> <i_i_glide_lignum>
5267

> <i_i_glide_rotatable_bonds>
14

> <r_i_docking_score>
-6.93424175521685

> <r_i_glide_ligand_efficiency>
-0.173356043880421

> <r_i_glide_ligand_efficiency_sa>
-0.592869329764093

> <r_i_glide_ligand_efficiency_ln>
-1.47886970076249

> <r_i_glide_gscore>
-6.93424175521685

> <r_i_glide_lipo>
-3.58307520115311

> <r_i_glide_hbond>
-0.354604628564004

> <r_i_glide_metal>
0

> <r_i_glide_rewards>
-0.151778300646916

> <r_i_glide_evdw>
-45.4721755981445

> <r_i_glide_ecoul>
-8.14232635498047

> <r_i_glide_erotb>
0.721135929443834

> <r_i_glide_esite>
-0.0709618211423537

> <r_i_glide_emodel>
-73.2425713394956

> <r_i_glide_energy>
-53.614501953125

> <r_i_glide_einternal>
8.80480194091797

> <i_i_glide_confnum>
138

> <i_i_glide_posenum>
387

> <r_i_glide_eff_state_penalty>
0

> <s_user_duplicate_titles>
CHEMBL286_lig1563,326758

> <i_f3d_flags>
0

> <s_m_subgroup_title>
dock_pv

> <s_m_subgroupid>
dock_pv

> <b_m_subgroup_collapsed>
1

$$$$
CHEMBL286_lig2610
                    3D
 Schrodinger Suite 2021-1.
 92 93  0  0  1  0            999 V2000
   -8.5276  -12.7804   -8.0244 C   0  0  0  0  0  0
   -7.9136  -11.6629   -7.4323 C   0  0  0  0  0  0
   -6.5330  -11.6631   -7.2187 C   0  0  0  0  0  0
   -5.7559  -12.7517   -7.5876 C   0  0  0  0  0  0
   -6.3407  -13.8482   -8.2132 C   0  0  0  0  0  0
   -7.7254  -13.8569   -8.4346 C   0  0  0  0  0  0
   -9.9113  -12.7714   -8.1042 O   0  0  0  0  0  0
  -10.6618  -13.9237   -8.4806 C   0  0  0  0  0  0
  -12.1062  -13.7395   -7.9793 C   0  0  0  0  0  0
  -12.8675  -12.5753   -8.6507 C   0  0  0  0  0  0
  -14.1352  -12.3268   -8.0489 O   0  0  0  0  0  0
  -14.0928  -11.6636   -6.7920 C   0  0  0  0  0  0
   -8.6687  -10.6603   -6.8357 O   0  0  0  0  0  0
   -9.5643   -9.8782   -7.6215 C   0  0  0  0  0  0
   -5.4669  -15.0344   -8.6032 C   0  0  0  0  0  0
   -4.9685  -15.0432  -10.0749 C   0  0  1  0  0  0
   -6.1914  -15.0768  -11.0440 C   0  0  0  0  0  0
   -3.8279  -13.9978  -10.3640 C   0  0  0  0  0  0
   -4.2562  -12.5449  -10.6605 C   0  0  0  0  0  0
   -2.8250  -14.4508  -11.4461 C   0  0  0  0  0  0
   -6.0428  -15.8091  -12.4007 C   0  0  1  0  0  0
   -6.2886  -17.3552  -12.3854 C   0  0  2  0  0  0
   -7.0352  -15.1919  -13.2719 N   0  0  0  0  0  0
   -5.5326  -18.1731  -11.3077 C   0  0  0  0  0  0
   -5.8691  -17.9154  -13.6209 O   0  0  0  0  0  0
   -5.9821  -19.6636  -11.1717 C   0  0  2  0  0  0
   -7.2484  -19.7640  -10.2826 C   0  0  0  0  0  0
   -4.8018  -20.6071  -10.7595 C   0  0  0  0  0  0
   -5.1986  -22.0985  -10.7460 C   0  0  0  0  0  0
   -4.0708  -20.2239   -9.4507 C   0  0  0  0  0  0
   -7.1446  -19.9032   -9.0645 O   0  0  0  0  0  0
   -8.4441  -19.6444  -10.8880 N   0  0  0  0  0  0
   -9.7111  -19.5991  -10.1548 C   0  0  0  0  0  0
  -10.9548  -19.9816  -10.9815 C   0  0  0  0  0  0
  -11.1926  -21.4722  -11.2691 C   0  0  0  0  0  0
  -12.4798  -21.9247  -11.6210 C   0  0  0  0  0  0
  -12.6821  -23.2540  -11.9935 C   0  0  0  0  0  0
  -11.6195  -24.1517  -11.9995 C   0  0  0  0  0  0
  -10.3475  -23.7274  -11.6241 C   0  0  0  0  0  0
  -10.1364  -22.3973  -11.2610 C   0  0  0  0  0  0
  -13.8477  -20.8629  -11.6204 Cl  0  0  0  0  0  0
   -6.0529  -10.8631   -6.6792 H   0  0  0  0  0  0
   -4.6953  -12.7436   -7.3829 H   0  0  0  0  0  0
   -8.1813  -14.7225   -8.8867 H   0  0  0  0  0  0
  -10.6336  -14.0672   -9.5568 H   0  0  0  0  0  0
  -10.2699  -14.8359   -8.0408 H   0  0  0  0  0  0
  -12.6665  -14.6607   -8.1405 H   0  0  0  0  0  0
  -12.0665  -13.5977   -6.8999 H   0  0  0  0  0  0
  -12.2747  -11.6597   -8.6695 H   0  0  0  0  0  0
  -13.0659  -12.8331   -9.6926 H   0  0  0  0  0  0
  -15.1083  -11.4342   -6.4703 H   0  0  0  0  0  0
  -13.6428  -12.2864   -6.0218 H   0  0  0  0  0  0
  -13.5439  -10.7222   -6.8517 H   0  0  0  0  0  0
  -10.0239   -9.1298   -6.9760 H   0  0  0  0  0  0
   -9.0691   -9.3331   -8.4208 H   0  0  0  0  0  0
  -10.3786  -10.4517   -8.0558 H   0  0  0  0  0  0
   -6.0332  -15.9470   -8.4044 H   0  0  0  0  0  0
   -4.6197  -15.1056   -7.9187 H   0  0  0  0  0  0
   -4.4612  -16.0015  -10.1560 H   0  0  0  0  0  0
   -6.5232  -14.0468  -11.1791 H   0  0  0  0  0  0
   -7.0374  -15.5597  -10.5537 H   0  0  0  0  0  0
   -3.2314  -13.9518   -9.4491 H   0  0  0  0  0  0
   -4.9705  -12.4782  -11.4801 H   0  0  0  0  0  0
   -4.6689  -12.0520   -9.7898 H   0  0  0  0  0  0
   -3.3954  -11.9378  -10.9460 H   0  0  0  0  0  0
   -3.1081  -14.0631  -12.4210 H   0  0  0  0  0  0
   -1.8306  -14.0498  -11.2465 H   0  0  0  0  0  0
   -2.7259  -15.5349  -11.5183 H   0  0  0  0  0  0
   -5.0683  -15.5952  -12.8170 H   0  0  0  0  0  0
   -7.3560  -17.5346  -12.2509 H   0  0  0  0  0  0
   -6.8066  -14.2194  -13.4169 H   0  0  0  0  0  0
   -7.0253  -15.6375  -14.1774 H   0  0  0  0  0  0
   -5.6545  -17.7104  -10.3301 H   0  0  0  0  0  0
   -4.4637  -18.1175  -11.5250 H   0  0  0  0  0  0
   -6.5405  -17.7358  -14.2945 H   0  0  0  0  0  0
   -6.2737  -20.0094  -12.1649 H   0  0  0  0  0  0
   -4.0595  -20.5124  -11.5544 H   0  0  0  0  0  0
   -5.9084  -22.3223   -9.9478 H   0  0  0  0  0  0
   -5.6580  -22.3954  -11.6904 H   0  0  0  0  0  0
   -4.3267  -22.7357  -10.5968 H   0  0  0  0  0  0
   -4.6860  -20.3927   -8.5674 H   0  0  0  0  0  0
   -3.1653  -20.8184   -9.3256 H   0  0  0  0  0  0
   -3.7668  -19.1773   -9.4441 H   0  0  0  0  0  0
   -8.4763  -19.4681  -11.8832 H   0  0  0  0  0  0
   -9.8529  -18.6241   -9.6857 H   0  0  0  0  0  0
   -9.6588  -20.2982   -9.3152 H   0  0  0  0  0  0
  -10.9744  -19.4211  -11.9220 H   0  0  0  0  0  0
  -11.8113  -19.6084  -10.4207 H   0  0  0  0  0  0
  -13.6657  -23.5923  -12.2882 H   0  0  0  0  0  0
  -11.7808  -25.1715  -12.3074 H   0  0  0  0  0  0
   -9.5205  -24.4211  -11.6338 H   0  0  0  0  0  0
   -9.1323  -22.1026  -11.0010 H   0  0  0  0  0  0
  1  2  2  0  0  0
  1  6  1  0  0  0
  1  7  1  0  0  0
  2  3  1  0  0  0
  2 13  1  0  0  0
  3  4  2  0  0  0
  3 42  1  0  0  0
  4  5  1  0  0  0
  4 43  1  0  0  0
  5  6  2  0  0  0
  5 15  1  0  0  0
  6 44  1  0  0  0
  7  8  1  0  0  0
  8  9  1  0  0  0
  8 45  1  0  0  0
  8 46  1  0  0  0
  9 10  1  0  0  0
  9 47  1  0  0  0
  9 48  1  0  0  0
 10 11  1  0  0  0
 10 49  1  0  0  0
 10 50  1  0  0  0
 11 12  1  0  0  0
 12 51  1  0  0  0
 12 52  1  0  0  0
 12 53  1  0  0  0
 13 14  1  0  0  0
 14 54  1  0  0  0
 14 55  1  0  0  0
 14 56  1  0  0  0
 15 16  1  0  0  0
 15 57  1  0  0  0
 15 58  1  0  0  0
 16 17  1  0  0  0
 16 18  1  0  0  0
 16 59  1  0  0  0
 17 21  1  0  0  0
 17 60  1  0  0  0
 17 61  1  0  0  0
 18 19  1  0  0  0
 18 20  1  0  0  0
 18 62  1  0  0  0
 19 63  1  0  0  0
 19 64  1  0  0  0
 19 65  1  0  0  0
 20 66  1  0  0  0
 20 67  1  0  0  0
 20 68  1  0  0  0
 21 22  1  0  0  0
 21 23  1  0  0  0
 21 69  1  0  0  0
 22 24  1  0  0  0
 22 25  1  0  0  0
 22 70  1  0  0  0
 23 71  1  0  0  0
 23 72  1  0  0  0
 24 26  1  0  0  0
 24 73  1  0  0  0
 24 74  1  0  0  0
 25 75  1  0  0  0
 26 27  1  0  0  0
 26 28  1  0  0  0
 26 76  1  0  0  0
 27 31  2  0  0  0
 27 32  1  0  0  0
 28 29  1  0  0  0
 28 30  1  0  0  0
 28 77  1  0  0  0
 29 78  1  0  0  0
 29 79  1  0  0  0
 29 80  1  0  0  0
 30 81  1  0  0  0
 30 82  1  0  0  0
 30 83  1  0  0  0
 32 33  1  0  0  0
 32 84  1  0  0  0
 33 34  1  0  0  0
 33 85  1  0  0  0
 33 86  1  0  0  0
 34 35  1  0  0  0
 34 87  1  0  0  0
 34 88  1  0  0  0
 35 36  2  0  0  0
 35 40  1  0  0  0
 36 37  1  0  0  0
 36 41  1  0  0  0
 37 38  2  0  0  0
 37 89  1  0  0  0
 38 39  1  0  0  0
 38 90  1  0  0  0
 39 40  2  0  0  0
 39 91  1  0  0  0
 40 92  1  0  0  0
M  END
> <s_m_entry_id>
26452

> <s_m_entry_name>
dock_pv.276

> <s_m_Source_Path>
/home/csk/Desktop/cluster/DUD-E-result/reni

> <s_m_Source_File>
dock_pv.maegz

> <i_m_Source_File_Index>
276

> <chembl_id>
CHEMBL3633118

> <chembl_pref_name>
None

> <i_lp_mmshare_version>
53161

> <r_lp_tautomer_probability>
1

> <s_lp_Force_Field>
OPLS_2005

> <r_lp_Energy>
43.972429

> <b_lp_Chiralities_Consistent>
1

> <s_lp_Variant>
CHEMBL286_lig2610-1

> <s_i_glide_gridfile>
glide-grid_3g6z

> <i_i_glide_lignum>
6675

> <i_i_glide_rotatable_bonds>
21

> <r_i_docking_score>
-6.92729877996353

> <r_i_glide_ligand_efficiency>
-0.168958506828379

> <r_i_glide_ligand_efficiency_sa>
-0.582605635433756

> <r_i_glide_ligand_efficiency_ln>
-1.46964948916269

> <r_i_glide_gscore>
-6.92729877996353

> <r_i_glide_lipo>
-4.35945318025155

> <r_i_glide_hbond>
-0.259362621066175

> <r_i_glide_metal>
0

> <r_i_glide_rewards>
-0.192140325905444

> <r_i_glide_evdw>
-39.9158668518066

> <r_i_glide_ecoul>
-6.01362085342407

> <r_i_glide_erotb>
0.789893914452699

> <r_i_glide_esite>
-0.00840009658911706

> <r_i_glide_emodel>
-42.7150991767237

> <r_i_glide_energy>
-45.9294877052307

> <r_i_glide_einternal>
23.935676574707

> <i_i_glide_confnum>
25

> <i_i_glide_posenum>
50

> <r_i_glide_eff_state_penalty>
0

> <s_user_duplicate_titles>
CHEMBL286_lig2610

> <i_f3d_flags>
0

> <s_m_subgroup_title>
dock_pv

> <s_m_subgroupid>
dock_pv

> <b_m_subgroup_collapsed>
1

$$$$
CHEMBL286_lig661
                    3D
 Schrodinger Suite 2021-1.
 98101  0  0  1  0            999 V2000
   -3.7633  -19.4745  -11.2091 C   0  0  0  0  0  0
   -2.9325  -16.9623   -9.3592 C   0  0  0  0  0  0
   -4.6007  -14.4492  -10.8052 C   0  0  0  0  0  0
   -2.8935  -17.1981  -10.6912 N   0  0  0  0  0  0
   -4.9997  -18.9838  -11.3979 N   0  0  0  0  0  0
   -2.6128  -18.4658  -11.3829 C   0  0  1  0  0  0
   -4.6334  -15.0880   -9.5854 N   0  0  0  0  0  0
    1.7308  -17.1689  -12.3797 N   0  0  0  0  0  0
   -3.3792  -15.5335   -8.9507 C   0  0  1  0  0  0
   -0.0592  -18.1740  -11.4123 C   0  0  0  0  0  0
   -6.2616  -19.6960  -11.1501 C   0  0  1  0  0  0
   -1.2207  -19.0544  -11.0355 C   0  0  0  0  0  0
    0.2755  -17.0346  -10.7056 N   0  0  0  0  0  0
    1.3267  -16.4863  -11.3139 C   0  0  0  0  0  0
   -5.8350  -13.9605  -11.0880 O   0  0  0  0  0  0
    0.8732  -18.2688  -12.4225 C   0  0  0  0  0  0
  -10.1235  -17.3115   -8.5898 N   0  0  0  0  0  0
  -10.9146  -16.8071   -9.5692 C   0  0  0  0  0  0
   -3.6042  -14.3655  -11.5196 O   0  0  0  0  0  0
   -2.6230  -17.7859   -8.5021 O   0  0  0  0  0  0
   -3.5231  -20.6378  -10.8916 O   0  0  0  0  0  0
   -3.4272  -15.1586   -7.4492 C   0  0  0  0  0  0
   -6.4274  -20.0625   -9.6381 C   0  0  0  0  0  0
   -6.1917  -13.3728  -12.3508 C   0  0  0  0  0  0
   -7.4657  -18.8925  -11.7186 C   0  0  2  0  0  0
  -10.5362  -17.2627  -11.2217 S   0  0  0  0  0  0
   -7.6702  -17.5202  -11.0219 C   0  0  0  0  0  0
   -3.5951  -13.6572   -7.2229 C   0  0  0  0  0  0
   -8.8465  -16.6641  -11.5239 C   0  0  0  0  0  0
   -8.6305  -19.6891  -11.6157 O   0  0  0  0  0  0
   -6.2199  -21.5550   -9.2916 C   0  0  0  0  0  0
  -10.4796  -17.0650   -7.3097 C   0  0  0  0  0  0
  -12.0062  -15.9831   -9.3132 C   0  0  0  0  0  0
   -5.2700  -12.1394  -12.6813 C   0  0  0  0  0  0
   -7.6721  -12.9756  -12.1879 C   0  0  0  0  0  0
   -6.1840  -14.4782  -13.4416 C   0  0  0  0  0  0
   -4.8837  -13.0783   -7.2213 C   0  0  0  0  0  0
   -2.4707  -12.8042   -7.2644 C   0  0  0  0  0  0
   -5.8075  -21.7203   -7.8118 C   0  0  0  0  0  0
   -7.4941  -22.3896   -9.5634 C   0  0  0  0  0  0
  -11.5669  -16.2531   -6.9656 C   0  0  0  0  0  0
  -12.3372  -15.6996   -7.9880 C   0  0  0  0  0  0
   -2.6406  -11.4264   -7.2229 C   0  0  0  0  0  0
   -5.0325  -11.6990   -7.1919 C   0  0  0  0  0  0
   -5.5635  -23.1980   -7.4509 C   0  0  0  0  0  0
   -7.2855  -23.8795   -9.2249 C   0  0  0  0  0  0
   -6.8048  -24.0617   -7.7666 C   0  0  0  0  0  0
   -3.9141  -10.8757   -7.1888 C   0  0  0  0  0  0
   -3.1263  -16.4223  -11.2977 H   0  0  0  0  0  0
   -5.0815  -18.0225  -11.6979 H   0  0  0  0  0  0
   -2.5962  -18.2381  -12.4489 H   0  0  0  0  0  0
   -5.5081  -15.1901   -9.0941 H   0  0  0  0  0  0
   -0.2010  -16.6862   -9.8844 H   0  0  0  0  0  0
   -2.5461  -14.9221   -9.3076 H   0  0  0  0  0  0
   -6.2158  -20.6203  -11.7289 H   0  0  0  0  0  0
   -1.1517  -19.2949   -9.9728 H   0  0  0  0  0  0
   -1.0834  -20.0062  -11.5528 H   0  0  0  0  0  0
    1.7917  -15.5759  -10.9679 H   0  0  0  0  0  0
    0.9771  -19.0268  -13.1848 H   0  0  0  0  0  0
   -2.5293  -15.5011   -6.9330 H   0  0  0  0  0  0
   -4.2686  -15.6637   -6.9728 H   0  0  0  0  0  0
   -5.7387  -19.4509   -9.0536 H   0  0  0  0  0  0
   -7.4088  -19.7674   -9.2651 H   0  0  0  0  0  0
   -7.2963  -18.7212  -12.7850 H   0  0  0  0  0  0
   -7.7873  -17.6593   -9.9460 H   0  0  0  0  0  0
   -6.7630  -16.9264  -11.1443 H   0  0  0  0  0  0
   -8.7880  -15.6936  -11.0352 H   0  0  0  0  0  0
   -8.7401  -16.4673  -12.5916 H   0  0  0  0  0  0
   -9.3729  -19.1527  -11.9153 H   0  0  0  0  0  0
   -5.4135  -21.9715   -9.8942 H   0  0  0  0  0  0
   -9.8718  -17.5276   -6.5485 H   0  0  0  0  0  0
  -12.6020  -15.5833  -10.1205 H   0  0  0  0  0  0
   -4.2162  -12.4003  -12.7290 H   0  0  0  0  0  0
   -5.4687  -11.6693  -13.6211 H   0  0  0  0  0  0
   -5.3577  -11.2872  -12.0174 H   0  0  0  0  0  0
   -8.2483  -13.7424  -11.6756 H   0  0  0  0  0  0
   -7.8566  -12.0666  -11.6378 H   0  0  0  0  0  0
   -8.1537  -12.8631  -13.1471 H   0  0  0  0  0  0
   -7.1429  -14.9879  -13.5528 H   0  0  0  0  0  0
   -5.9333  -14.0673  -14.4184 H   0  0  0  0  0  0
   -5.4698  -15.2696  -13.2248 H   0  0  0  0  0  0
   -5.7635  -13.7053   -7.2409 H   0  0  0  0  0  0
   -1.4749  -13.2202   -7.3295 H   0  0  0  0  0  0
   -4.9127  -21.1256   -7.6065 H   0  0  0  0  0  0
   -6.5790  -21.2929   -7.1726 H   0  0  0  0  0  0
   -8.3294  -21.9916   -8.9841 H   0  0  0  0  0  0
   -7.8037  -22.2748  -10.6038 H   0  0  0  0  0  0
  -11.8035  -16.0606   -5.9336 H   0  0  0  0  0  0
  -13.1869  -15.0735   -7.7586 H   0  0  0  0  0  0
   -1.7756  -10.7780   -7.2435 H   0  0  0  0  0  0
   -6.0191  -11.2651   -7.1835 H   0  0  0  0  0  0
   -4.7016  -23.5674   -8.0099 H   0  0  0  0  0  0
   -5.3067  -23.2782   -6.3943 H   0  0  0  0  0  0
   -6.5623  -24.3188   -9.9142 H   0  0  0  0  0  0
   -8.2194  -24.4238   -9.3725 H   0  0  0  0  0  0
   -6.5740  -25.1077   -7.5782 H   0  0  0  0  0  0
   -7.6167  -23.7910   -7.0846 H   0  0  0  0  0  0
   -4.0426   -9.8053   -7.1653 H   0  0  0  0  0  0
  1  5  1  0  0  0
  1  6  1  0  0  0
  1 21  2  0  0  0
  2  4  1  0  0  0
  2  9  1  0  0  0
  2 20  2  0  0  0
  3  7  1  0  0  0
  3 15  1  0  0  0
  3 19  2  0  0  0
  4  6  1  0  0  0
  4 49  1  0  0  0
  5 11  1  0  0  0
  5 50  1  0  0  0
  6 12  1  0  0  0
  6 51  1  0  0  0
  7  9  1  0  0  0
  7 52  1  0  0  0
  8 14  2  0  0  0
  8 16  1  0  0  0
  9 22  1  0  0  0
  9 54  1  0  0  0
 10 16  2  0  0  0
 10 12  1  0  0  0
 10 13  1  0  0  0
 11 23  1  0  0  0
 11 25  1  0  0  0
 11 55  1  0  0  0
 12 56  1  0  0  0
 12 57  1  0  0  0
 13 53  1  0  0  0
 13 14  1  0  0  0
 14 58  1  0  0  0
 15 24  1  0  0  0
 16 59  1  0  0  0
 17 18  2  0  0  0
 17 32  1  0  0  0
 18 26  1  0  0  0
 18 33  1  0  0  0
 22 28  1  0  0  0
 22 60  1  0  0  0
 22 61  1  0  0  0
 23 31  1  0  0  0
 23 62  1  0  0  0
 23 63  1  0  0  0
 24 34  1  0  0  0
 24 35  1  0  0  0
 24 36  1  0  0  0
 25 27  1  0  0  0
 25 30  1  0  0  0
 25 64  1  0  0  0
 26 29  1  0  0  0
 27 29  1  0  0  0
 27 65  1  0  0  0
 27 66  1  0  0  0
 28 37  2  0  0  0
 28 38  1  0  0  0
 29 67  1  0  0  0
 29 68  1  0  0  0
 30 69  1  0  0  0
 31 39  1  0  0  0
 31 40  1  0  0  0
 31 70  1  0  0  0
 32 41  2  0  0  0
 32 71  1  0  0  0
 33 42  2  0  0  0
 33 72  1  0  0  0
 34 73  1  0  0  0
 34 74  1  0  0  0
 34 75  1  0  0  0
 35 76  1  0  0  0
 35 77  1  0  0  0
 35 78  1  0  0  0
 36 79  1  0  0  0
 36 80  1  0  0  0
 36 81  1  0  0  0
 37 44  1  0  0  0
 37 82  1  0  0  0
 38 43  2  0  0  0
 38 83  1  0  0  0
 39 45  1  0  0  0
 39 84  1  0  0  0
 39 85  1  0  0  0
 40 46  1  0  0  0
 40 86  1  0  0  0
 40 87  1  0  0  0
 41 42  1  0  0  0
 41 88  1  0  0  0
 42 89  1  0  0  0
 43 48  1  0  0  0
 43 90  1  0  0  0
 44 48  2  0  0  0
 44 91  1  0  0  0
 45 47  1  0  0  0
 45 92  1  0  0  0
 45 93  1  0  0  0
 46 47  1  0  0  0
 46 94  1  0  0  0
 46 95  1  0  0  0
 47 96  1  0  0  0
 47 97  1  0  0  0
 48 98  1  0  0  0
M  END
> <s_m_entry_id>
26453

> <s_m_entry_name>
dock_pv.277

> <s_m_Source_Path>
/home/csk/Desktop/cluster/DUD-E-result/reni

> <s_m_Source_File>
dock_pv.maegz

> <i_m_Source_File_Index>
277

> <chembl_id>
CHEMBL119893

> <chembl_pref_name>
None

> <i_lp_mmshare_version>
53161

> <r_lp_tautomer_probability>
0.499999999999999

> <s_lp_Force_Field>
OPLS_2005

> <r_lp_Energy>
21.14654

> <b_lp_Chiralities_Consistent>
1

> <s_lp_Variant>
CHEMBL286_lig661-6

> <s_i_glide_gridfile>
glide-grid_3g6z

> <i_i_glide_lignum>
1880

> <i_i_glide_rotatable_bonds>
22

> <r_i_docking_score>
-6.91121725520413

> <r_i_glide_ligand_efficiency>
-0.143983692816753

> <r_i_glide_ligand_efficiency_sa>
-0.523271465823447

> <r_i_glide_ligand_efficiency_ln>
-1.41879122617361

> <r_i_glide_gscore>
-6.91121725520413

> <r_i_glide_lipo>
-3.88565998349718

> <r_i_glide_hbond>
-0.0304794834183476

> <r_i_glide_metal>
0

> <r_i_glide_rewards>
-1.31893293596036

> <r_i_glide_evdw>
-41.8677406311035

> <r_i_glide_ecoul>
-0.990561962127686

> <r_i_glide_erotb>
0.575569518169177

> <r_i_glide_esite>
-0.00974304462309803

> <r_i_glide_emodel>
-65.6608187097116

> <r_i_glide_energy>
-42.8583025932312

> <r_i_glide_einternal>
23.8819580078125

> <i_i_glide_confnum>
2

> <i_i_glide_posenum>
166

> <r_i_glide_eff_state_penalty>
0

> <s_user_duplicate_titles>
CHEMBL286_lig661

> <i_f3d_flags>
0

> <s_m_subgroup_title>
dock_pv

> <s_m_subgroupid>
dock_pv

> <b_m_subgroup_collapsed>
1

$$$$
CHEMBL286_lig2597
                    3D
 Schrodinger Suite 2021-1.
101102  0  0  1  0            999 V2000
   -7.0554  -24.4945  -11.9155 C   0  0  0  0  0  0
   -8.1914  -23.6766  -11.2429 C   0  0  0  0  0  0
   -9.1464  -24.6708  -10.5408 C   0  0  0  0  0  0
  -10.5390  -15.0905   -8.8207 C   0  0  0  0  0  0
  -11.6659  -15.8851   -9.0402 C   0  0  0  0  0  0
  -11.5831  -16.9736   -9.9123 C   0  0  0  0  0  0
  -10.3900  -17.2552  -10.5771 C   0  0  0  0  0  0
   -9.2463  -16.4876  -10.3420 C   0  0  0  0  0  0
   -9.3140  -15.4525   -9.4138 C   0  0  0  0  0  0
  -10.6837  -13.9620   -8.0416 O   0  0  0  0  0  0
   -9.7303  -12.9185   -8.1990 C   0  0  0  0  0  0
  -10.3455  -11.5969   -7.7365 C   0  0  0  0  0  0
  -11.5095  -11.1191   -8.6184 C   0  0  0  0  0  0
  -12.5754  -12.0598   -8.7399 O   0  0  0  0  0  0
  -13.3783  -12.2171   -7.5762 C   0  0  0  0  0  0
  -12.8549  -15.5221   -8.4423 O   0  0  0  0  0  0
  -13.3978  -16.4583   -7.5219 C   0  0  0  0  0  0
   -7.9521  -16.8245  -11.0754 C   0  0  0  0  0  0
   -6.8822  -15.6908  -11.2767 C   0  0  1  0  0  0
   -5.5593  -16.3038  -11.8284 C   0  0  0  0  0  0
   -7.4021  -14.4716  -12.1123 C   0  0  0  0  0  0
   -7.8800  -14.8481  -13.5231 C   0  0  0  0  0  0
   -6.4064  -13.2863  -12.1962 C   0  0  0  0  0  0
   -4.3682  -16.3103  -10.8079 C   0  0  1  0  0  0
   -3.7040  -17.7150  -10.6599 C   0  0  2  0  0  0
   -3.4164  -15.2801  -11.2207 N   0  0  0  0  0  0
   -4.6458  -18.7121   -9.9276 C   0  0  0  0  0  0
   -2.5063  -17.6414   -9.9025 O   0  0  0  0  0  0
   -4.7106  -20.1800  -10.4652 C   0  0  2  0  0  0
   -5.9602  -20.9008   -9.8901 C   0  0  0  0  0  0
   -3.4168  -21.0413  -10.2603 C   0  0  0  0  0  0
   -2.8794  -21.0405   -8.8130 C   0  0  0  0  0  0
   -2.2952  -20.7246  -11.2749 C   0  0  0  0  0  0
   -6.4312  -20.5813   -8.8001 O   0  0  0  0  0  0
   -6.4925  -21.8962  -10.6255 N   0  0  0  0  0  0
   -7.5959  -22.7360  -10.1602 C   0  0  0  0  0  0
   -8.9366  -22.8840  -12.3599 C   0  0  0  0  0  0
  -10.3428  -22.3961  -12.0217 C   0  0  0  0  0  0
  -11.4544  -23.0740  -12.5364 C   0  0  0  0  0  0
  -12.7491  -22.6132  -12.2735 C   0  0  0  0  0  0
  -12.9343  -21.4904  -11.4740 C   0  0  0  0  0  0
  -11.8279  -20.8119  -10.9563 C   0  0  0  0  0  0
  -10.5369  -21.2669  -11.2208 C   0  0  0  0  0  0
  -13.8118  -23.2435  -12.8125 F   0  0  0  0  0  0
   -6.4562  -25.0328  -11.1816 H   0  0  0  0  0  0
   -7.4543  -25.2202  -12.6215 H   0  0  0  0  0  0
   -6.3739  -23.8586  -12.4829 H   0  0  0  0  0  0
   -8.6114  -25.3047   -9.8350 H   0  0  0  0  0  0
   -9.9198  -24.1502   -9.9689 H   0  0  0  0  0  0
   -9.6568  -25.3054  -11.2640 H   0  0  0  0  0  0
  -12.4598  -17.5689  -10.1073 H   0  0  0  0  0  0
  -10.3547  -18.0721  -11.2872 H   0  0  0  0  0  0
   -8.4278  -14.8804   -9.1920 H   0  0  0  0  0  0
   -8.8311  -13.1503   -7.6251 H   0  0  0  0  0  0
   -9.4225  -12.8611   -9.2472 H   0  0  0  0  0  0
  -10.6756  -11.6808   -6.7018 H   0  0  0  0  0  0
   -9.5723  -10.8334   -7.7288 H   0  0  0  0  0  0
  -11.8704  -10.1595   -8.2569 H   0  0  0  0  0  0
  -11.1340  -10.9217   -9.6231 H   0  0  0  0  0  0
  -14.1913  -12.9108   -7.7907 H   0  0  0  0  0  0
  -12.8092  -12.6315   -6.7439 H   0  0  0  0  0  0
  -13.8262  -11.2711   -7.2644 H   0  0  0  0  0  0
  -14.1781  -15.9698   -6.9356 H   0  0  0  0  0  0
  -13.8618  -17.3035   -8.0269 H   0  0  0  0  0  0
  -12.6481  -16.8309   -6.8203 H   0  0  0  0  0  0
   -8.2003  -17.2549  -12.0492 H   0  0  0  0  0  0
   -7.5253  -17.6460  -10.5055 H   0  0  0  0  0  0
   -6.6617  -15.2911  -10.2902 H   0  0  0  0  0  0
   -5.2684  -15.8346  -12.7657 H   0  0  0  0  0  0
   -5.7462  -17.3250  -12.1623 H   0  0  0  0  0  0
   -8.2690  -14.0732  -11.5833 H   0  0  0  0  0  0
   -7.0691  -15.2389  -14.1284 H   0  0  0  0  0  0
   -8.6658  -15.5968  -13.4970 H   0  0  0  0  0  0
   -8.2949  -13.9793  -14.0341 H   0  0  0  0  0  0
   -5.4839  -13.5569  -12.7049 H   0  0  0  0  0  0
   -6.8458  -12.4599  -12.7589 H   0  0  0  0  0  0
   -6.1452  -12.8788  -11.2215 H   0  0  0  0  0  0
   -4.7163  -16.0202   -9.8168 H   0  0  0  0  0  0
   -3.4513  -18.0837  -11.6579 H   0  0  0  0  0  0
   -3.1170  -15.4495  -12.1716 H   0  0  0  0  0  0
   -3.8894  -14.3868  -11.2560 H   0  0  0  0  0  0
   -5.6484  -18.3103  -10.0089 H   0  0  0  0  0  0
   -4.4962  -18.6996   -8.8478 H   0  0  0  0  0  0
   -2.6337  -16.9698   -9.2268 H   0  0  0  0  0  0
   -4.8942  -20.1139  -11.5395 H   0  0  0  0  0  0
   -3.6771  -22.0806  -10.4770 H   0  0  0  0  0  0
   -2.4977  -20.0609   -8.5235 H   0  0  0  0  0  0
   -3.6538  -21.3220   -8.0988 H   0  0  0  0  0  0
   -2.0594  -21.7513   -8.6992 H   0  0  0  0  0  0
   -1.8500  -19.7479  -11.1063 H   0  0  0  0  0  0
   -1.4830  -21.4576  -11.2079 H   0  0  0  0  0  0
   -2.6637  -20.7538  -12.2993 H   0  0  0  0  0  0
   -6.0610  -22.1463  -11.4976 H   0  0  0  0  0  0
   -8.3827  -22.1215   -9.7251 H   0  0  0  0  0  0
   -7.2070  -23.3391   -9.3364 H   0  0  0  0  0  0
   -9.0159  -23.5050  -13.2534 H   0  0  0  0  0  0
   -8.3455  -22.0284  -12.6889 H   0  0  0  0  0  0
  -11.3290  -23.9444  -13.1642 H   0  0  0  0  0  0
  -13.9382  -21.1342  -11.2820 H   0  0  0  0  0  0
  -11.9600  -19.9171  -10.3643 H   0  0  0  0  0  0
   -9.6875  -20.7213  -10.8293 H   0  0  0  0  0  0
  1  2  1  0  0  0
  1 45  1  0  0  0
  1 46  1  0  0  0
  1 47  1  0  0  0
  2  3  1  0  0  0
  2 36  1  0  0  0
  2 37  1  0  0  0
  3 48  1  0  0  0
  3 49  1  0  0  0
  3 50  1  0  0  0
  4  5  2  0  0  0
  4  9  1  0  0  0
  4 10  1  0  0  0
  5  6  1  0  0  0
  5 16  1  0  0  0
  6  7  2  0  0  0
  6 51  1  0  0  0
  7  8  1  0  0  0
  7 52  1  0  0  0
  8  9  2  0  0  0
  8 18  1  0  0  0
  9 53  1  0  0  0
 10 11  1  0  0  0
 11 12  1  0  0  0
 11 54  1  0  0  0
 11 55  1  0  0  0
 12 13  1  0  0  0
 12 56  1  0  0  0
 12 57  1  0  0  0
 13 14  1  0  0  0
 13 58  1  0  0  0
 13 59  1  0  0  0
 14 15  1  0  0  0
 15 60  1  0  0  0
 15 61  1  0  0  0
 15 62  1  0  0  0
 16 17  1  0  0  0
 17 63  1  0  0  0
 17 64  1  0  0  0
 17 65  1  0  0  0
 18 19  1  0  0  0
 18 66  1  0  0  0
 18 67  1  0  0  0
 19 20  1  0  0  0
 19 21  1  0  0  0
 19 68  1  0  0  0
 20 24  1  0  0  0
 20 69  1  0  0  0
 20 70  1  0  0  0
 21 22  1  0  0  0
 21 23  1  0  0  0
 21 71  1  0  0  0
 22 72  1  0  0  0
 22 73  1  0  0  0
 22 74  1  0  0  0
 23 75  1  0  0  0
 23 76  1  0  0  0
 23 77  1  0  0  0
 24 25  1  0  0  0
 24 26  1  0  0  0
 24 78  1  0  0  0
 25 27  1  0  0  0
 25 28  1  0  0  0
 25 79  1  0  0  0
 26 80  1  0  0  0
 26 81  1  0  0  0
 27 29  1  0  0  0
 27 82  1  0  0  0
 27 83  1  0  0  0
 28 84  1  0  0  0
 29 30  1  0  0  0
 29 31  1  0  0  0
 29 85  1  0  0  0
 30 34  2  0  0  0
 30 35  1  0  0  0
 31 32  1  0  0  0
 31 33  1  0  0  0
 31 86  1  0  0  0
 32 87  1  0  0  0
 32 88  1  0  0  0
 32 89  1  0  0  0
 33 90  1  0  0  0
 33 91  1  0  0  0
 33 92  1  0  0  0
 35 36  1  0  0  0
 35 93  1  0  0  0
 36 94  1  0  0  0
 36 95  1  0  0  0
 37 38  1  0  0  0
 37 96  1  0  0  0
 37 97  1  0  0  0
 38 39  2  0  0  0
 38 43  1  0  0  0
 39 40  1  0  0  0
 39 98  1  0  0  0
 40 41  2  0  0  0
 40 44  1  0  0  0
 41 42  1  0  0  0
 41 99  1  0  0  0
 42 43  2  0  0  0
 42100  1  0  0  0
 43101  1  0  0  0
M  END
> <s_m_entry_id>
26454

> <s_m_entry_name>
dock_pv.278

> <s_m_Source_Path>
/home/csk/Desktop/cluster/DUD-E-result/reni

> <s_m_Source_File>
dock_pv.maegz

> <i_m_Source_File_Index>
278

> <chembl_id>
CHEMBL3633105

> <chembl_pref_name>
None

> <i_lp_mmshare_version>
53161

> <r_lp_tautomer_probability>
1

> <s_lp_Force_Field>
OPLS_2005

> <r_lp_Energy>
38.405549

> <b_lp_Chiralities_Consistent>
1

> <s_lp_Variant>
CHEMBL286_lig2597-1

> <s_i_glide_gridfile>
glide-grid_3g6z

> <i_i_glide_lignum>
6662

> <i_i_glide_rotatable_bonds>
22

> <r_i_docking_score>
-6.90994840666454

> <r_i_glide_ligand_efficiency>
-0.157044281969649

> <r_i_glide_ligand_efficiency_sa>
-0.554421018724681

> <r_i_glide_ligand_efficiency_ln>
-1.44432995667132

> <r_i_glide_gscore>
-6.90994840666454

> <r_i_glide_lipo>
-4.24966951541418

> <r_i_glide_hbond>
-0.182399298527736

> <r_i_glide_metal>
0

> <r_i_glide_rewards>
-0.32072373375154

> <r_i_glide_evdw>
-47.3717765808105

> <r_i_glide_ecoul>
-3.63728857040405

> <r_i_glide_erotb>
0.757026255630049

> <r_i_glide_esite>
0

> <r_i_glide_emodel>
-52.589025966069

> <r_i_glide_energy>
-51.0090651512146

> <r_i_glide_einternal>
24.4214859008789

> <i_i_glide_confnum>
91

> <i_i_glide_posenum>
182

> <r_i_glide_eff_state_penalty>
0

> <s_user_duplicate_titles>
CHEMBL286_lig2597

> <i_f3d_flags>
0

> <s_m_subgroup_title>
dock_pv

> <s_m_subgroupid>
dock_pv

> <b_m_subgroup_collapsed>
1

$$$$
CHEMBL286_lig2914
                    3D
 Schrodinger Suite 2021-1.
 98100  0  0  1  0            999 V2000
  -10.6202  -16.9836   -9.8542 C   0  0  0  0  0  0
  -11.5749  -17.2450  -10.8401 C   0  0  0  0  0  0
  -11.6694  -18.5019  -11.4292 C   0  0  0  0  0  0
  -10.7704  -19.5063  -11.0884 C   0  0  0  0  0  0
   -9.7406  -18.0116   -9.4862 C   0  0  0  0  0  0
  -10.4846  -15.5291   -9.3322 C   0  0  2  0  0  0
   -9.0640  -15.2759   -9.2124 N   0  0  0  0  0  0
   -8.3251  -14.2159   -8.8192 C   0  0  0  0  0  0
   -6.8470  -14.5107   -8.5805 C   0  0  0  0  0  0
   -6.3051  -15.7850   -8.8454 C   0  0  0  0  0  0
   -4.9553  -16.0810   -8.6243 C   0  0  0  0  0  0
   -4.1250  -15.0651   -8.1504 C   0  0  0  0  0  0
   -4.5991  -13.7750   -7.8706 C   0  0  0  0  0  0
   -5.9713  -13.5179   -8.0796 C   0  0  0  0  0  0
   -4.3894  -17.4682   -8.8382 C   0  0  0  0  0  0
   -5.1593  -18.3184   -9.5490 N   0  0  0  0  0  0
   -3.2723  -17.7962   -8.4251 O   0  0  0  0  0  0
   -9.7965  -19.2593  -10.1171 C   0  0  0  0  0  0
   -5.0590  -19.7851   -9.5777 C   0  0  1  0  0  0
   -6.4341  -20.4066   -9.2134 C   0  0  0  0  0  0
   -7.4787  -19.8106   -9.9693 O   0  0  0  0  0  0
   -8.7765  -20.3293   -9.7338 C   0  0  0  0  0  0
   -4.4221  -20.3934  -10.8718 C   0  0  2  0  0  0
   -3.0122  -19.8679  -11.2951 C   0  0  0  0  0  0
   -5.3358  -20.4085  -11.9616 O   0  0  0  0  0  0
   -2.8003  -18.3664  -11.7042 C   0  0  2  0  0  0
   -3.9277  -17.8571  -12.6559 C   0  0  0  0  0  0
   -1.3234  -18.0309  -12.1476 C   0  0  0  0  0  0
   -0.2218  -18.9136  -11.5121 C   0  0  0  0  0  0
   -0.9615  -16.5419  -11.8688 C   0  0  0  0  0  0
   -4.1472  -18.4607  -13.7028 O   0  0  0  0  0  0
   -4.7375  -16.8726  -12.2010 N   0  0  0  0  0  0
   -3.7209  -12.7759   -7.3683 N   0  0  0  0  0  0
   -3.7003  -11.1316   -8.0777 S   0  0  0  0  0  0
   -2.3825  -13.2113   -6.9447 C   0  0  0  0  0  0
   -3.2864  -11.4542   -9.8697 C   0  0  0  0  0  0
   -5.0671  -10.6161   -8.0210 O   0  0  0  0  0  0
   -2.5969  -10.3746   -7.4716 O   0  0  0  0  0  0
   -8.7945  -13.1075   -8.5898 O   0  0  0  0  0  0
   -6.0703  -16.5202  -12.7258 C   0  0  0  0  0  0
   -6.3275  -15.0258  -13.0568 C   0  0  0  0  0  0
   -5.6536  -14.0437  -12.0772 C   0  0  0  0  0  0
   -7.8386  -14.7039  -13.2050 C   0  0  0  0  0  0
  -11.1031  -15.4834   -8.0780 O   0  0  0  0  0  0
  -11.5552  -14.1777   -7.6760 C   0  0  0  0  0  0
  -12.8542  -14.2800   -6.8436 C   0  0  0  0  0  0
  -13.8649  -13.3905   -7.3488 O   0  0  0  0  0  0
  -13.6419  -12.0001   -7.1102 C   0  0  0  0  0  0
   -4.3701  -20.0871   -8.7779 H   0  0  0  0  0  0
  -12.2416  -16.4636  -11.1620 H   0  0  0  0  0  0
  -12.4110  -18.6751  -12.1949 H   0  0  0  0  0  0
  -10.8120  -20.4472  -11.6135 H   0  0  0  0  0  0
   -8.9856  -17.8422   -8.7356 H   0  0  0  0  0  0
  -11.0462  -14.8646  -10.0142 H   0  0  0  0  0  0
   -8.5254  -16.0930   -9.4315 H   0  0  0  0  0  0
   -6.9418  -16.5895   -9.2031 H   0  0  0  0  0  0
   -3.0882  -15.3075   -8.0083 H   0  0  0  0  0  0
   -6.3737  -12.5460   -7.8336 H   0  0  0  0  0  0
   -5.9963  -17.9659   -9.9763 H   0  0  0  0  0  0
   -6.6516  -20.2154   -8.1646 H   0  0  0  0  0  0
   -6.4016  -21.4941   -9.3297 H   0  0  0  0  0  0
   -8.9142  -21.2520  -10.2997 H   0  0  0  0  0  0
   -8.9228  -20.5715   -8.6791 H   0  0  0  0  0  0
   -4.2838  -21.4532  -10.6663 H   0  0  0  0  0  0
   -2.6683  -20.4961  -12.1202 H   0  0  0  0  0  0
   -2.3350  -20.1089  -10.4700 H   0  0  0  0  0  0
   -5.2741  -19.5722  -12.4320 H   0  0  0  0  0  0
   -2.8942  -17.7984  -10.8045 H   0  0  0  0  0  0
   -1.2459  -18.2511  -13.2088 H   0  0  0  0  0  0
   -0.2554  -18.8332  -10.4256 H   0  0  0  0  0  0
   -0.3224  -19.9669  -11.7824 H   0  0  0  0  0  0
    0.7656  -18.5999  -11.8387 H   0  0  0  0  0  0
   -0.9120  -16.3306  -10.7937 H   0  0  0  0  0  0
    0.0140  -16.3019  -12.2850 H   0  0  0  0  0  0
   -1.6839  -15.8385  -12.2995 H   0  0  0  0  0  0
   -4.4515  -16.4061  -11.3521 H   0  0  0  0  0  0
   -2.4276  -14.0628   -6.2692 H   0  0  0  0  0  0
   -1.7905  -13.4963   -7.8187 H   0  0  0  0  0  0
   -1.8472  -12.4193   -6.4226 H   0  0  0  0  0  0
   -3.4651  -10.5266  -10.4130 H   0  0  0  0  0  0
   -2.2491  -11.7765   -9.9311 H   0  0  0  0  0  0
   -3.9388  -12.2485  -10.2472 H   0  0  0  0  0  0
   -6.7508  -16.8138  -11.9363 H   0  0  0  0  0  0
   -6.3667  -17.1269  -13.5860 H   0  0  0  0  0  0
   -5.8624  -14.8190  -14.0198 H   0  0  0  0  0  0
   -6.0283  -14.1753  -11.0703 H   0  0  0  0  0  0
   -4.5771  -14.1871  -12.0423 H   0  0  0  0  0  0
   -5.8130  -13.0077  -12.3830 H   0  0  0  0  0  0
   -8.4381  -14.9308  -12.3202 H   0  0  0  0  0  0
   -7.9896  -13.6512  -13.4437 H   0  0  0  0  0  0
   -8.2724  -15.2663  -14.0227 H   0  0  0  0  0  0
  -11.7438  -13.5320   -8.5321 H   0  0  0  0  0  0
  -10.7867  -13.6733   -7.0904 H   0  0  0  0  0  0
  -12.6572  -14.0734   -5.7796 H   0  0  0  0  0  0
  -13.2505  -15.3091   -6.8817 H   0  0  0  0  0  0
  -14.4059  -11.4530   -7.6697 H   0  0  0  0  0  0
  -13.7584  -11.7563   -6.0487 H   0  0  0  0  0  0
  -12.6669  -11.6597   -7.4712 H   0  0  0  0  0  0
  1  5  1  0  0  0
  1  6  1  0  0  0
  1  2  2  0  0  0
  2  3  1  0  0  0
  2 50  1  0  0  0
  3  4  2  0  0  0
  3 51  1  0  0  0
  4 18  1  0  0  0
  4 52  1  0  0  0
  5 18  2  0  0  0
  5 53  1  0  0  0
  6  7  1  0  0  0
  6 44  1  0  0  0
  6 54  1  0  0  0
  7  8  1  0  0  0
  7 55  1  0  0  0
  8  9  1  0  0  0
  8 39  2  0  0  0
  9 10  2  0  0  0
  9 14  1  0  0  0
 10 11  1  0  0  0
 10 56  1  0  0  0
 11 12  2  0  0  0
 11 15  1  0  0  0
 12 13  1  0  0  0
 12 57  1  0  0  0
 13 33  1  0  0  0
 13 14  2  0  0  0
 14 58  1  0  0  0
 15 16  1  0  0  0
 15 17  2  0  0  0
 16 19  1  0  0  0
 16 59  1  0  0  0
 18 22  1  0  0  0
 19 23  1  0  0  0
 19 20  1  0  0  0
 19 49  1  0  0  0
 20 21  1  0  0  0
 20 60  1  0  0  0
 20 61  1  0  0  0
 21 22  1  0  0  0
 22 62  1  0  0  0
 22 63  1  0  0  0
 23 24  1  0  0  0
 23 25  1  0  0  0
 23 64  1  0  0  0
 24 26  1  0  0  0
 24 65  1  0  0  0
 24 66  1  0  0  0
 25 67  1  0  0  0
 26 27  1  0  0  0
 26 28  1  0  0  0
 26 68  1  0  0  0
 27 31  2  0  0  0
 27 32  1  0  0  0
 28 29  1  0  0  0
 28 30  1  0  0  0
 28 69  1  0  0  0
 29 70  1  0  0  0
 29 71  1  0  0  0
 29 72  1  0  0  0
 30 73  1  0  0  0
 30 74  1  0  0  0
 30 75  1  0  0  0
 32 40  1  0  0  0
 32 76  1  0  0  0
 33 34  1  0  0  0
 33 35  1  0  0  0
 34 36  1  0  0  0
 34 37  2  0  0  0
 34 38  2  0  0  0
 35 77  1  0  0  0
 35 78  1  0  0  0
 35 79  1  0  0  0
 36 80  1  0  0  0
 36 81  1  0  0  0
 36 82  1  0  0  0
 40 41  1  0  0  0
 40 83  1  0  0  0
 40 84  1  0  0  0
 41 42  1  0  0  0
 41 43  1  0  0  0
 41 85  1  0  0  0
 42 86  1  0  0  0
 42 87  1  0  0  0
 42 88  1  0  0  0
 43 89  1  0  0  0
 43 90  1  0  0  0
 43 91  1  0  0  0
 44 45  1  0  0  0
 45 46  1  0  0  0
 45 92  1  0  0  0
 45 93  1  0  0  0
 46 47  1  0  0  0
 46 94  1  0  0  0
 46 95  1  0  0  0
 47 48  1  0  0  0
 48 96  1  0  0  0
 48 97  1  0  0  0
 48 98  1  0  0  0
M  END
> <s_m_entry_id>
26455

> <s_m_entry_name>
dock_pv.279

> <s_m_Source_Path>
/home/csk/Desktop/cluster/DUD-E-result/reni

> <s_m_Source_File>
dock_pv.maegz

> <i_m_Source_File_Index>
279

> <chembl_id>
CHEMBL1644468

> <chembl_pref_name>
None

> <i_lp_mmshare_version>
53161

> <r_lp_tautomer_probability>
1

> <s_lp_Force_Field>
OPLS_2005

> <r_lp_Energy>
26.30692

> <b_lp_Chiralities_Consistent>
1

> <s_lp_Variant>
CHEMBL286_lig2914-1

> <s_i_glide_gridfile>
glide-grid_3g6z

> <i_i_glide_lignum>
7128

> <i_i_glide_rotatable_bonds>
15

> <r_i_docking_score>
-6.90719369093373

> <r_i_glide_ligand_efficiency>
-0.143899868561119

> <r_i_glide_ligand_efficiency_sa>
-0.52296682826166

> <r_i_glide_ligand_efficiency_ln>
-1.41796523597912

> <r_i_glide_gscore>
-6.90719369093373

> <r_i_glide_lipo>
-3.46126860003482

> <r_i_glide_hbond>
-0.195572276181008

> <r_i_glide_metal>
0

> <r_i_glide_rewards>
-1.25751000946107

> <r_i_glide_evdw>
-39.3256607055664

> <r_i_glide_ecoul>
-1.90692150592804

> <r_i_glide_erotb>
0.277263115308764

> <r_i_glide_esite>
-0.0177846593980739

> <r_i_glide_emodel>
-51.9459359390799

> <r_i_glide_energy>
-41.2325822114944

> <r_i_glide_einternal>
11.9904384613037

> <i_i_glide_confnum>
3

> <i_i_glide_posenum>
23

> <r_i_glide_eff_state_penalty>
0

> <s_user_duplicate_titles>
CHEMBL286_lig2914

> <i_f3d_flags>
0

> <s_m_subgroup_title>
dock_pv

> <s_m_subgroupid>
dock_pv

> <b_m_subgroup_collapsed>
1

$$$$
CHEMBL286_lig2073
                    3D
 Schrodinger Suite 2021-1.
112114  0  0  1  0            999 V2000
  -13.4138  -14.2599   -7.7877 C   0  0  0  0  0  0
  -12.1499  -15.0621   -7.4618 C   0  0  0  0  0  0
  -11.9662  -16.3292   -8.3196 C   0  0  0  0  0  0
  -11.3548  -16.0703   -9.7200 C   0  0  0  0  0  0
  -11.0540  -17.2917  -10.4806 N   0  0  0  0  0  0
  -10.1396  -18.2095  -10.1147 C   0  0  0  0  0  0
   -9.9815  -19.4761  -11.0103 C   0  0  1  0  0  0
   -8.5002  -19.9908  -11.0535 C   0  0  0  0  0  0
   -7.9143  -20.6501   -9.7779 C   0  0  0  0  0  0
   -6.4256  -21.0201   -9.7897 C   0  0  1  0  0  0
   -5.5865  -19.9411  -10.3580 N   0  0  0  0  0  0
   -5.5398  -18.6347  -10.0211 C   0  0  0  0  0  0
   -4.4330  -17.8049  -10.6844 C   0  0  1  0  0  0
   -4.9168  -16.9892  -11.9134 C   0  0  0  0  0  0
   -5.9664  -15.9031  -11.7457 C   0  0  0  0  0  0
   -9.4477  -18.0634   -9.1064 O   0  0  0  0  0  0
  -11.0398  -20.6029  -10.7099 C   0  0  0  0  0  0
  -10.7656  -21.9329  -11.4490 C   0  0  0  0  0  0
  -12.4976  -20.1635  -10.9778 C   0  0  0  0  0  0
   -8.6412  -20.9241   -8.8221 O   0  0  0  0  0  0
   -5.9415  -21.5400   -8.3994 C   0  0  0  0  0  0
   -4.4414  -21.9343   -8.3022 C   0  0  0  0  0  0
   -3.5521  -20.7728   -7.7924 C   0  0  0  0  0  0
   -2.0694  -21.1740   -7.8604 C   0  0  0  0  0  0
   -1.7861  -22.4315   -7.0116 C   0  0  0  0  0  0
   -2.7479  -23.5944   -7.3469 C   0  0  0  0  0  0
   -4.2228  -23.1348   -7.3476 C   0  0  0  0  0  0
   -6.2963  -18.0828   -9.2248 O   0  0  0  0  0  0
   -3.7959  -16.9583   -9.6689 N   0  0  0  0  0  0
   -2.4640  -16.8784   -9.4749 C   0  0  0  0  0  0
   -1.9582  -16.1362   -8.2123 C   0  0  2  0  0  0
   -1.6499  -17.3932  -10.2453 O   0  0  0  0  0  0
   -1.3743  -14.7288   -8.5452 C   0  0  0  0  0  0
   -2.2292  -13.8287   -9.4315 C   0  0  0  0  0  0
   -3.1403  -12.9431   -8.8495 C   0  0  0  0  0  0
   -3.8691  -12.0741   -9.6562 C   0  0  0  0  0  0
   -3.7023  -12.1080  -11.0393 C   0  0  0  0  0  0
   -2.8062  -12.9990  -11.6238 C   0  0  0  0  0  0
   -2.0656  -13.8590  -10.8197 C   0  0  0  0  0  0
   -0.9103  -17.0229   -7.4578 C   0  0  0  0  0  0
   -0.3039  -16.3331   -5.7817 S   0  0  0  0  0  0
    1.0953  -17.5020   -5.1987 C   0  0  0  0  0  0
    0.3043  -15.0162   -5.9958 O   0  0  0  0  0  0
   -1.4058  -16.4630   -4.8212 O   0  0  0  0  0  0
    0.5366  -18.9327   -5.0774 C   0  0  0  0  0  0
    1.5680  -17.0097   -3.8159 C   0  0  0  0  0  0
    2.2663  -17.4332   -6.2025 C   0  0  0  0  0  0
   -7.1711  -15.8336  -11.0746 C   0  0  0  0  0  0
   -7.7693  -14.5875  -11.2910 N   0  0  0  0  0  0
   -6.9372  -13.9628  -12.1109 C   0  0  0  0  0  0
   -5.8689  -14.6994  -12.4212 N   0  0  0  0  0  0
  -13.4932  -13.3753   -7.1557 H   0  0  0  0  0  0
  -14.3029  -14.8638   -7.6205 H   0  0  0  0  0  0
  -13.4216  -13.9203   -8.8220 H   0  0  0  0  0  0
  -11.2721  -14.4189   -7.5455 H   0  0  0  0  0  0
  -12.1960  -15.3506   -6.4129 H   0  0  0  0  0  0
  -11.3152  -16.9989   -7.7592 H   0  0  0  0  0  0
  -12.9158  -16.8556   -8.4201 H   0  0  0  0  0  0
  -12.0302  -15.4379  -10.2997 H   0  0  0  0  0  0
  -10.4411  -15.4790   -9.6211 H   0  0  0  0  0  0
  -11.5546  -17.4248  -11.3465 H   0  0  0  0  0  0
  -10.1817  -19.1291  -12.0210 H   0  0  0  0  0  0
   -8.3968  -20.7126  -11.8638 H   0  0  0  0  0  0
   -7.8661  -19.1531  -11.3436 H   0  0  0  0  0  0
   -6.3265  -21.8541  -10.4841 H   0  0  0  0  0  0
   -4.8290  -20.2771  -10.9369 H   0  0  0  0  0  0
   -3.6965  -18.5203  -11.0570 H   0  0  0  0  0  0
   -4.0446  -16.5360  -12.3844 H   0  0  0  0  0  0
   -5.3117  -17.6814  -12.6570 H   0  0  0  0  0  0
  -10.9862  -20.8587   -9.6526 H   0  0  0  0  0  0
  -10.6741  -21.7901  -12.5215 H   0  0  0  0  0  0
   -9.8441  -22.4026  -11.1065 H   0  0  0  0  0  0
  -11.5582  -22.6590  -11.2779 H   0  0  0  0  0  0
  -12.6696  -19.9291  -12.0211 H   0  0  0  0  0  0
  -13.2084  -20.9372  -10.6839 H   0  0  0  0  0  0
  -12.7509  -19.2664  -10.4210 H   0  0  0  0  0  0
   -6.1605  -20.7928   -7.6331 H   0  0  0  0  0  0
   -6.5544  -22.4021   -8.1224 H   0  0  0  0  0  0
   -4.0954  -22.2389   -9.2927 H   0  0  0  0  0  0
   -3.7005  -19.8795   -8.3966 H   0  0  0  0  0  0
   -3.8451  -20.4670   -6.7854 H   0  0  0  0  0  0
   -1.8237  -21.3773   -8.9040 H   0  0  0  0  0  0
   -1.4333  -20.3473   -7.5441 H   0  0  0  0  0  0
   -0.7529  -22.7469   -7.1529 H   0  0  0  0  0  0
   -1.8835  -22.1771   -5.9546 H   0  0  0  0  0  0
   -2.4936  -24.0017   -8.3276 H   0  0  0  0  0  0
   -2.6090  -24.4088   -6.6323 H   0  0  0  0  0  0
   -4.5523  -22.8787   -6.3364 H   0  0  0  0  0  0
   -4.8617  -23.9707   -7.6432 H   0  0  0  0  0  0
   -4.4328  -16.5181   -9.0178 H   0  0  0  0  0  0
   -2.8037  -15.9923   -7.5356 H   0  0  0  0  0  0
   -1.2132  -14.1673   -7.6235 H   0  0  0  0  0  0
   -0.3843  -14.8244   -8.9986 H   0  0  0  0  0  0
   -3.2691  -12.9087   -7.7776 H   0  0  0  0  0  0
   -4.5638  -11.3766   -9.2103 H   0  0  0  0  0  0
   -4.2651  -11.4372  -11.6685 H   0  0  0  0  0  0
   -2.6679  -13.0153  -12.6940 H   0  0  0  0  0  0
   -1.3522  -14.5332  -11.2724 H   0  0  0  0  0  0
   -1.3371  -18.0033   -7.2349 H   0  0  0  0  0  0
   -0.0311  -17.1939   -8.0790 H   0  0  0  0  0  0
    0.1480  -19.2983   -6.0236 H   0  0  0  0  0  0
    1.2973  -19.6379   -4.7430 H   0  0  0  0  0  0
   -0.2885  -18.9821   -4.3660 H   0  0  0  0  0  0
    1.9316  -15.9820   -3.8634 H   0  0  0  0  0  0
    0.7561  -17.0216   -3.0873 H   0  0  0  0  0  0
    2.3766  -17.6251   -3.4194 H   0  0  0  0  0  0
    2.6797  -16.4239   -6.2563 H   0  0  0  0  0  0
    3.0788  -18.1033   -5.9169 H   0  0  0  0  0  0
    1.9692  -17.6932   -7.2201 H   0  0  0  0  0  0
   -7.6677  -16.5741  -10.4627 H   0  0  0  0  0  0
   -7.1093  -12.9685  -12.4921 H   0  0  0  0  0  0
   -5.1090  -14.4478  -13.0436 H   0  0  0  0  0  0
  1  2  1  0  0  0
  1 52  1  0  0  0
  1 53  1  0  0  0
  1 54  1  0  0  0
  2  3  1  0  0  0
  2 55  1  0  0  0
  2 56  1  0  0  0
  3  4  1  0  0  0
  3 57  1  0  0  0
  3 58  1  0  0  0
  4  5  1  0  0  0
  4 59  1  0  0  0
  4 60  1  0  0  0
  5  6  1  0  0  0
  5 61  1  0  0  0
  6 16  2  0  0  0
  6  7  1  0  0  0
  7  8  1  0  0  0
  7 17  1  0  0  0
  7 62  1  0  0  0
  8  9  1  0  0  0
  8 63  1  0  0  0
  8 64  1  0  0  0
  9 10  1  0  0  0
  9 20  2  0  0  0
 10 21  1  0  0  0
 10 11  1  0  0  0
 10 65  1  0  0  0
 11 12  1  0  0  0
 11 66  1  0  0  0
 12 28  2  0  0  0
 12 13  1  0  0  0
 13 14  1  0  0  0
 13 29  1  0  0  0
 13 67  1  0  0  0
 14 15  1  0  0  0
 14 68  1  0  0  0
 14 69  1  0  0  0
 15 48  2  0  0  0
 15 51  1  0  0  0
 17 18  1  0  0  0
 17 19  1  0  0  0
 17 70  1  0  0  0
 18 71  1  0  0  0
 18 72  1  0  0  0
 18 73  1  0  0  0
 19 74  1  0  0  0
 19 75  1  0  0  0
 19 76  1  0  0  0
 21 22  1  0  0  0
 21 77  1  0  0  0
 21 78  1  0  0  0
 22 23  1  0  0  0
 22 27  1  0  0  0
 22 79  1  0  0  0
 23 24  1  0  0  0
 23 80  1  0  0  0
 23 81  1  0  0  0
 24 25  1  0  0  0
 24 82  1  0  0  0
 24 83  1  0  0  0
 25 26  1  0  0  0
 25 84  1  0  0  0
 25 85  1  0  0  0
 26 27  1  0  0  0
 26 86  1  0  0  0
 26 87  1  0  0  0
 27 88  1  0  0  0
 27 89  1  0  0  0
 29 30  1  0  0  0
 29 90  1  0  0  0
 30 31  1  0  0  0
 30 32  2  0  0  0
 31 33  1  0  0  0
 31 40  1  0  0  0
 31 91  1  0  0  0
 33 34  1  0  0  0
 33 92  1  0  0  0
 33 93  1  0  0  0
 34 35  2  0  0  0
 34 39  1  0  0  0
 35 36  1  0  0  0
 35 94  1  0  0  0
 36 37  2  0  0  0
 36 95  1  0  0  0
 37 38  1  0  0  0
 37 96  1  0  0  0
 38 39  2  0  0  0
 38 97  1  0  0  0
 39 98  1  0  0  0
 40 41  1  0  0  0
 40 99  1  0  0  0
 40100  1  0  0  0
 41 42  1  0  0  0
 41 43  2  0  0  0
 41 44  2  0  0  0
 42 45  1  0  0  0
 42 46  1  0  0  0
 42 47  1  0  0  0
 45101  1  0  0  0
 45102  1  0  0  0
 45103  1  0  0  0
 46104  1  0  0  0
 46105  1  0  0  0
 46106  1  0  0  0
 47107  1  0  0  0
 47108  1  0  0  0
 47109  1  0  0  0
 48 49  1  0  0  0
 48110  1  0  0  0
 49 50  2  0  0  0
 50 51  1  0  0  0
 50111  1  0  0  0
 51112  1  0  0  0
M  END
> <s_m_entry_id>
26456

> <s_m_entry_name>
dock_pv.280

> <s_m_Source_Path>
/home/csk/Desktop/cluster/DUD-E-result/reni

> <s_m_Source_File>
dock_pv.maegz

> <i_m_Source_File_Index>
280

> <chembl_id>
CHEMBL1783184

> <chembl_pref_name>
None

> <i_lp_mmshare_version>
53161

> <r_lp_tautomer_probability>
0.499999979999999

> <s_lp_Force_Field>
OPLS_2005

> <r_lp_Energy>
9.671934

> <b_lp_Chiralities_Consistent>
1

> <s_lp_Variant>
CHEMBL286_lig2073-6

> <s_i_glide_gridfile>
glide-grid_3g6z

> <i_i_glide_lignum>
5922

> <i_i_glide_rotatable_bonds>
24

> <r_i_docking_score>
-6.90584274041466

> <r_i_glide_ligand_efficiency>
-0.135408681184601

> <r_i_glide_ligand_efficiency_sa>
-0.502153583663923

> <r_i_glide_ligand_efficiency_ln>
-1.40026092864923

> <r_i_glide_gscore>
-6.90584274041466

> <r_i_glide_lipo>
-2.59598054467209

> <r_i_glide_hbond>
-0.32

> <r_i_glide_metal>
0

> <r_i_glide_rewards>
-0.865176219945398

> <r_i_glide_evdw>
-47.9110488891602

> <r_i_glide_ecoul>
-8.09332942962646

> <r_i_glide_erotb>
0.546270797483348

> <r_i_glide_esite>
-0.0614049143785385

> <r_i_glide_emodel>
-76.0493008621169

> <r_i_glide_energy>
-56.0043783187866

> <r_i_glide_einternal>
8.92311000823975

> <i_i_glide_confnum>
7

> <i_i_glide_posenum>
96

> <r_i_glide_eff_state_penalty>
0

> <s_user_duplicate_titles>
CHEMBL286_lig2073

> <i_f3d_flags>
0

> <s_m_subgroup_title>
dock_pv

> <s_m_subgroupid>
dock_pv

> <b_m_subgroup_collapsed>
1

$$$$
CHEMBL286_lig2765
                    3D
 Schrodinger Suite 2021-1.
 58 61  0  0  1  0            999 V2000
  -10.9626   -8.0630   -6.6765 C   0  0  0  0  0  0
  -11.3213   -9.2723   -6.0210 O   0  0  0  0  0  0
  -10.3764  -10.3337   -6.1447 C   0  0  0  0  0  0
  -10.0364  -10.7059   -7.6040 C   0  0  0  0  0  0
  -11.2540  -11.1399   -8.4484 C   0  0  0  0  0  0
  -11.6722  -12.5198   -8.1931 N   0  0  0  0  0  0
  -12.9349  -12.8769   -7.7707 C   0  0  0  0  0  0
  -13.0591  -14.2492   -7.7478 C   0  0  0  0  0  0
  -11.8095  -14.7759   -8.1963 C   0  0  0  0  0  0
  -11.3079  -16.0629   -8.4392 C   0  0  0  0  0  0
  -10.0345  -16.2806   -8.8418 N   0  0  0  0  0  0
   -9.1995  -15.2233   -9.0149 C   0  0  0  0  0  0
   -9.5961  -13.8917   -8.8210 C   0  0  0  0  0  0
  -10.9298  -13.6768   -8.4210 C   0  0  0  0  0  0
   -7.7203  -15.5488   -9.3011 C   0  0  1  0  0  0
   -7.0178  -16.1178   -8.0425 C   0  0  0  0  0  0
   -7.4448  -16.3038  -10.5586 N   0  0  0  0  0  0
   -6.8724  -15.4791  -11.6450 C   0  0  0  0  0  0
   -7.6668  -15.2590  -12.9224 C   0  0  0  0  0  0
   -7.4370  -14.1085  -11.9843 C   0  0  0  0  0  0
   -7.5758  -17.6654  -10.6749 C   0  0  0  0  0  0
   -8.0478  -18.3493   -9.7614 O   0  0  0  0  0  0
   -7.0905  -18.3950  -11.9599 C   0  0  1  0  0  0
   -5.5549  -18.6409  -11.8964 C   0  0  0  0  0  0
   -5.0698  -19.5225  -12.9666 N   0  0  2  0  0  0
   -5.8861  -20.7302  -13.1171 C   0  0  0  0  0  0
   -7.3911  -20.4004  -13.1774 C   0  0  0  0  0  0
   -7.7577  -19.6615  -12.0189 O   0  0  0  0  0  0
  -11.6570   -7.2644   -6.4198 H   0  0  0  0  0  0
  -11.0277   -8.1741   -7.7550 H   0  0  0  0  0  0
   -9.9467   -7.7455   -6.4211 H   0  0  0  0  0  0
   -9.4621  -10.0612   -5.6191 H   0  0  0  0  0  0
  -10.7766  -11.2036   -5.6231 H   0  0  0  0  0  0
   -9.5508   -9.8570   -8.0832 H   0  0  0  0  0  0
   -9.2652  -11.4727   -7.5993 H   0  0  0  0  0  0
  -12.0930  -10.4698   -8.2495 H   0  0  0  0  0  0
  -11.0690  -11.0435   -9.5182 H   0  0  0  0  0  0
  -13.6593  -12.1089   -7.5375 H   0  0  0  0  0  0
  -13.9405  -14.8043   -7.4692 H   0  0  0  0  0  0
  -11.9326  -16.9310   -8.3088 H   0  0  0  0  0  0
   -8.8966  -13.0869   -8.9734 H   0  0  0  0  0  0
   -7.2327  -14.5818   -9.4289 H   0  0  0  0  0  0
   -7.0335  -15.3955   -7.2254 H   0  0  0  0  0  0
   -7.4956  -17.0261   -7.6733 H   0  0  0  0  0  0
   -5.9731  -16.3542   -8.2439 H   0  0  0  0  0  0
   -5.7920  -15.5927  -11.7389 H   0  0  0  0  0  0
   -7.1320  -15.2910  -13.8717 H   0  0  0  0  0  0
   -8.6689  -15.6815  -13.0029 H   0  0  0  0  0  0
   -8.2688  -13.7157  -11.4061 H   0  0  0  0  0  0
   -6.7384  -13.3221  -12.2778 H   0  0  0  0  0  0
   -7.3832  -17.8034  -12.8208 H   0  0  0  0  0  0
   -5.0135  -17.6957  -11.9187 H   0  0  0  0  0  0
   -5.2937  -19.0884  -10.9369 H   0  0  0  0  0  0
   -4.0953  -19.7510  -12.8190 H   0  0  0  0  0  0
   -5.5889  -21.2599  -14.0214 H   0  0  0  0  0  0
   -5.6888  -21.4030  -12.2829 H   0  0  0  0  0  0
   -7.6229  -19.8398  -14.0846 H   0  0  0  0  0  0
   -7.9785  -21.3170  -13.2155 H   0  0  0  0  0  0
  1  2  1  0  0  0
  1 29  1  0  0  0
  1 30  1  0  0  0
  1 31  1  0  0  0
  2  3  1  0  0  0
  3  4  1  0  0  0
  3 32  1  0  0  0
  3 33  1  0  0  0
  4  5  1  0  0  0
  4 34  1  0  0  0
  4 35  1  0  0  0
  5  6  1  0  0  0
  5 36  1  0  0  0
  5 37  1  0  0  0
  6  7  1  0  0  0
  6 14  1  0  0  0
  7  8  2  0  0  0
  7 38  1  0  0  0
  8  9  1  0  0  0
  8 39  1  0  0  0
  9 10  2  0  0  0
  9 14  1  0  0  0
 10 11  1  0  0  0
 10 40  1  0  0  0
 11 12  2  0  0  0
 12 13  1  0  0  0
 12 15  1  0  0  0
 13 14  2  0  0  0
 13 41  1  0  0  0
 15 16  1  0  0  0
 15 17  1  0  0  0
 15 42  1  0  0  0
 16 43  1  0  0  0
 16 44  1  0  0  0
 16 45  1  0  0  0
 17 18  1  0  0  0
 17 21  1  0  0  0
 18 19  1  0  0  0
 18 20  1  0  0  0
 18 46  1  0  0  0
 19 20  1  0  0  0
 19 47  1  0  0  0
 19 48  1  0  0  0
 20 49  1  0  0  0
 20 50  1  0  0  0
 21 22  2  0  0  0
 21 23  1  0  0  0
 23 24  1  0  0  0
 23 28  1  0  0  0
 23 51  1  0  0  0
 24 25  1  0  0  0
 24 52  1  0  0  0
 24 53  1  0  0  0
 25 26  1  0  0  0
 25 54  1  0  0  0
 26 27  1  0  0  0
 26 55  1  0  0  0
 26 56  1  0  0  0
 27 28  1  0  0  0
 27 57  1  0  0  0
 27 58  1  0  0  0
M  END
> <s_m_entry_id>
26457

> <s_m_entry_name>
dock_pv.281

> <s_m_Source_Path>
/home/csk/Desktop/cluster/DUD-E-result/reni

> <s_m_Source_File>
dock_pv.maegz

> <i_m_Source_File_Index>
281

> <chembl_id>
CHEMBL4111370

> <chembl_pref_name>
None

> <i_lp_mmshare_version>
53161

> <r_lp_tautomer_probability>
1

> <s_lp_Force_Field>
OPLS_2005

> <r_lp_Energy>
49.300607

> <b_lp_Chiralities_Consistent>
1

> <s_lp_Variant>
CHEMBL286_lig2765-2

> <s_i_glide_gridfile>
glide-grid_3g6z

> <i_i_glide_lignum>
6862

> <i_i_glide_rotatable_bonds>
9

> <r_i_docking_score>
-6.90148958357819

> <r_i_glide_ligand_efficiency>
-0.246481770842078

> <r_i_glide_ligand_efficiency_sa>
-0.748463826276094

> <r_i_glide_ligand_efficiency_ln>
-1.59306643242913

> <r_i_glide_gscore>
-6.90148958357819

> <r_i_glide_lipo>
-3.31252585025996

> <r_i_glide_hbond>
-0.21864764838505

> <r_i_glide_metal>
0

> <r_i_glide_rewards>
-1.7681013870582

> <r_i_glide_evdw>
-41.0526695251465

> <r_i_glide_ecoul>
-3.87420654296875

> <r_i_glide_erotb>
1.04243294104742

> <r_i_glide_esite>
-0.010883181219766

> <r_i_glide_emodel>
-58.641662632186

> <r_i_glide_energy>
-44.9268760681152

> <r_i_glide_einternal>
8.12140846252441

> <i_i_glide_confnum>
113

> <i_i_glide_posenum>
177

> <r_i_glide_eff_state_penalty>
0

> <s_user_duplicate_titles>
CHEMBL286_lig2765

> <i_f3d_flags>
0

> <s_m_subgroup_title>
dock_pv

> <s_m_subgroupid>
dock_pv

> <b_m_subgroup_collapsed>
1

$$$$
CHEMBL286_lig266
                    3D
 Schrodinger Suite 2021-1.
 95 96  0  0  1  0            999 V2000
   -2.3080  -12.9836   -9.9885 C   0  0  1  0  0  0
   -3.3995  -14.0487   -9.6188 C   0  0  1  0  0  0
   -5.2726  -16.5125   -9.9580 C   0  0  0  0  0  0
   -8.8470  -17.0810   -9.2815 C   0  0  0  0  0  0
  -10.4037  -19.2568  -11.1637 C   0  0  0  0  0  0
   -2.9906  -15.5575   -9.5613 C   0  0  1  0  0  0
   -4.1484  -16.4082   -9.2195 N   0  0  0  0  0  0
   -7.6674  -16.9855   -9.9202 N   0  0  0  0  0  0
   -6.3736  -17.4090   -9.3997 C   0  0  1  0  0  0
   -3.0279  -11.8012  -10.6643 C   0  0  0  0  0  0
   -9.9799  -17.9409  -11.2886 N   0  0  0  0  0  0
   -5.0638  -20.0542  -13.2078 N   0  0  0  0  0  0
  -10.0956  -16.9457  -10.1894 C   0  0  1  0  0  0
   -5.8652  -19.2285  -11.2401 C   0  0  0  0  0  0
   -6.1249  -18.8933   -9.7757 C   0  0  0  0  0  0
   -6.6245  -18.7667  -12.3047 N   0  0  0  0  0  0
   -6.1180  -19.2851  -13.4238 C   0  0  0  0  0  0
   -9.4114  -20.0770  -11.6199 O   0  0  0  0  0  0
   -4.8859  -20.0069  -11.8210 C   0  0  0  0  0  0
   -2.8488  -11.8577  -16.4433 C   0  0  0  0  0  0
  -11.4763  -19.6317  -10.7040 O   0  0  0  0  0  0
   -5.4576  -15.9541  -11.0404 O   0  0  0  0  0  0
   -8.9603  -17.3418   -8.0836 O   0  0  0  0  0  0
   -2.2458  -16.1094  -10.8233 C   0  0  0  0  0  0
  -11.4612  -16.9493   -9.4205 C   0  0  0  0  0  0
   -3.4688  -10.8638   -9.9895 O   0  0  0  0  0  0
   -1.8688  -12.2710  -17.0463 O   0  0  0  0  0  0
   -9.3444  -21.4986  -11.3775 C   0  0  0  0  0  0
   -3.2814  -11.9993  -11.9741 N   0  0  0  0  0  0
   -1.5781  -12.5455   -8.8393 O   0  0  0  0  0  0
   -4.0625  -13.6671   -8.4178 O   0  0  0  0  0  0
   -3.9151  -11.2631  -17.0433 O   0  0  0  0  0  0
  -11.8754  -15.7037   -8.6425 C   0  0  0  0  0  0
   -1.2227  -17.2411  -10.5502 C   0  0  0  0  0  0
   -2.8999  -11.8396  -14.9338 C   0  0  0  0  0  0
   -8.1351  -21.9901  -12.1959 C   0  0  0  0  0  0
  -10.5991  -22.2752  -11.8454 C   0  0  0  0  0  0
   -9.0739  -21.7630   -9.8828 C   0  0  0  0  0  0
   -4.2957  -11.3442  -12.7963 C   0  0  0  0  0  0
  -11.8686  -15.6613   -7.2291 C   0  0  0  0  0  0
  -12.2715  -14.5482   -9.3367 C   0  0  0  0  0  0
   -4.2689  -11.8502  -14.2435 C   0  0  0  0  0  0
   -0.4678  -17.6462  -11.8273 C   0  0  0  0  0  0
   -1.8452  -18.4822   -9.8875 C   0  0  0  0  0  0
  -12.6700  -13.4033   -8.6571 C   0  0  0  0  0  0
  -12.2694  -14.5063   -6.5611 C   0  0  0  0  0  0
  -12.6677  -13.3850   -7.2721 C   0  0  0  0  0  0
   -1.5707  -13.3731  -10.6791 H   0  0  0  0  0  0
   -4.1694  -14.0046  -10.3914 H   0  0  0  0  0  0
   -2.3010  -15.6476   -8.7244 H   0  0  0  0  0  0
   -4.0981  -16.8939   -8.3339 H   0  0  0  0  0  0
   -7.6323  -16.6258  -10.8634 H   0  0  0  0  0  0
   -6.3933  -17.2634   -8.3189 H   0  0  0  0  0  0
   -9.3386  -17.7346  -12.0337 H   0  0  0  0  0  0
   -7.4313  -18.1673  -12.2769 H   0  0  0  0  0  0
  -10.0449  -16.0086  -10.7179 H   0  0  0  0  0  0
   -5.2596  -19.2581   -9.2193 H   0  0  0  0  0  0
   -6.9631  -19.4961   -9.4285 H   0  0  0  0  0  0
   -6.5367  -19.1157  -14.4132 H   0  0  0  0  0  0
   -4.0880  -20.5612  -11.3484 H   0  0  0  0  0  0
   -2.9594  -16.4374  -11.5833 H   0  0  0  0  0  0
   -1.6955  -15.3174  -11.3228 H   0  0  0  0  0  0
  -11.4692  -17.7351   -8.6872 H   0  0  0  0  0  0
  -12.2704  -17.1806  -10.1095 H   0  0  0  0  0  0
   -2.8202  -12.7757  -12.4245 H   0  0  0  0  0  0
   -1.5490  -13.2674   -8.1982 H   0  0  0  0  0  0
   -4.1802  -12.7058   -8.4329 H   0  0  0  0  0  0
   -4.6505  -11.0956  -16.4513 H   0  0  0  0  0  0
   -0.4739  -16.8513   -9.8608 H   0  0  0  0  0  0
   -2.4802  -10.8684  -14.8209 H   0  0  0  0  0  0
   -2.2105  -12.5745  -14.5063 H   0  0  0  0  0  0
   -7.1912  -21.6264  -11.7942 H   0  0  0  0  0  0
   -8.0702  -23.0811  -12.2304 H   0  0  0  0  0  0
   -8.1832  -21.6381  -13.2216 H   0  0  0  0  0  0
  -11.4851  -22.0288  -11.2644 H   0  0  0  0  0  0
  -10.8218  -22.0769  -12.8906 H   0  0  0  0  0  0
  -10.4505  -23.3502  -11.7597 H   0  0  0  0  0  0
   -9.8029  -21.2561   -9.2602 H   0  0  0  0  0  0
   -9.1176  -22.8235   -9.6441 H   0  0  0  0  0  0
   -8.0966  -21.3936   -9.5829 H   0  0  0  0  0  0
   -5.2668  -11.5967  -12.3662 H   0  0  0  0  0  0
   -4.2685  -10.2573  -12.8206 H   0  0  0  0  0  0
  -11.5484  -16.5228   -6.6600 H   0  0  0  0  0  0
  -12.2864  -14.5715  -10.4149 H   0  0  0  0  0  0
   -4.6686  -12.8633  -14.2693 H   0  0  0  0  0  0
   -4.9406  -11.1946  -14.7879 H   0  0  0  0  0  0
   -1.1439  -18.0722  -12.5679 H   0  0  0  0  0  0
    0.0378  -16.7936  -12.2796 H   0  0  0  0  0  0
    0.3014  -18.3902  -11.6122 H   0  0  0  0  0  0
   -2.6536  -18.8894  -10.4885 H   0  0  0  0  0  0
   -1.0987  -19.2626   -9.7438 H   0  0  0  0  0  0
   -2.2411  -18.2480   -8.9026 H   0  0  0  0  0  0
  -12.9838  -12.5276   -9.2123 H   0  0  0  0  0  0
  -12.2581  -14.4687   -5.4815 H   0  0  0  0  0  0
  -12.9684  -12.4913   -6.7433 H   0  0  0  0  0  0
  1  2  1  0  0  0
  1 10  1  0  0  0
  1 30  1  0  0  0
  1 48  1  0  0  0
  2  6  1  0  0  0
  2 31  1  0  0  0
  2 49  1  0  0  0
  3  7  1  0  0  0
  3  9  1  0  0  0
  3 22  2  0  0  0
  4  8  1  0  0  0
  4 13  1  0  0  0
  4 23  2  0  0  0
  5 11  1  0  0  0
  5 18  1  0  0  0
  5 21  2  0  0  0
  6  7  1  0  0  0
  6 24  1  0  0  0
  6 50  1  0  0  0
  7 51  1  0  0  0
  8  9  1  0  0  0
  8 52  1  0  0  0
  9 15  1  0  0  0
  9 53  1  0  0  0
 10 26  2  0  0  0
 10 29  1  0  0  0
 11 13  1  0  0  0
 11 54  1  0  0  0
 12 17  2  0  0  0
 12 19  1  0  0  0
 13 25  1  0  0  0
 13 56  1  0  0  0
 14 19  2  0  0  0
 14 15  1  0  0  0
 14 16  1  0  0  0
 15 57  1  0  0  0
 15 58  1  0  0  0
 16 55  1  0  0  0
 16 17  1  0  0  0
 17 59  1  0  0  0
 18 28  1  0  0  0
 19 60  1  0  0  0
 20 35  1  0  0  0
 20 27  2  0  0  0
 20 32  1  0  0  0
 24 34  1  0  0  0
 24 61  1  0  0  0
 24 62  1  0  0  0
 25 33  1  0  0  0
 25 63  1  0  0  0
 25 64  1  0  0  0
 28 36  1  0  0  0
 28 37  1  0  0  0
 28 38  1  0  0  0
 29 39  1  0  0  0
 29 65  1  0  0  0
 30 66  1  0  0  0
 31 67  1  0  0  0
 32 68  1  0  0  0
 33 40  1  0  0  0
 33 41  2  0  0  0
 34 43  1  0  0  0
 34 44  1  0  0  0
 34 69  1  0  0  0
 35 42  1  0  0  0
 35 70  1  0  0  0
 35 71  1  0  0  0
 36 72  1  0  0  0
 36 73  1  0  0  0
 36 74  1  0  0  0
 37 75  1  0  0  0
 37 76  1  0  0  0
 37 77  1  0  0  0
 38 78  1  0  0  0
 38 79  1  0  0  0
 38 80  1  0  0  0
 39 42  1  0  0  0
 39 81  1  0  0  0
 39 82  1  0  0  0
 40 46  2  0  0  0
 40 83  1  0  0  0
 41 45  1  0  0  0
 41 84  1  0  0  0
 42 85  1  0  0  0
 42 86  1  0  0  0
 43 87  1  0  0  0
 43 88  1  0  0  0
 43 89  1  0  0  0
 44 90  1  0  0  0
 44 91  1  0  0  0
 44 92  1  0  0  0
 45 47  2  0  0  0
 45 93  1  0  0  0
 46 47  1  0  0  0
 46 94  1  0  0  0
 47 95  1  0  0  0
M  END
> <s_m_entry_id>
26458

> <s_m_entry_name>
dock_pv.282

> <s_m_Source_Path>
/home/csk/Desktop/cluster/DUD-E-result/reni

> <s_m_Source_File>
dock_pv.maegz

> <i_m_Source_File_Index>
282

> <chembl_id>
CHEMBL172585

> <chembl_pref_name>
None

> <i_lp_mmshare_version>
53161

> <r_lp_tautomer_probability>
0.499999999999999

> <s_lp_Force_Field>
OPLS_2005

> <r_lp_Energy>
22.427688

> <b_lp_Chiralities_Consistent>
1

> <s_lp_Variant>
CHEMBL286_lig266-2

> <s_i_glide_gridfile>
glide-grid_3g6z

> <i_i_glide_lignum>
418

> <i_i_glide_rotatable_bonds>
27

> <r_i_docking_score>
-6.89427755658643

> <r_i_glide_ligand_efficiency>
-0.146686756523115

> <r_i_glide_ligand_efficiency_sa>
-0.529366991872194

> <r_i_glide_ligand_efficiency_ln>
-1.42145726743567

> <r_i_glide_gscore>
-6.89427755658643

> <r_i_glide_lipo>
-3.22559335465844

> <r_i_glide_hbond>
-0.32

> <r_i_glide_metal>
0

> <r_i_glide_rewards>
-0.394924067663137

> <r_i_glide_evdw>
-44.1564712524414

> <r_i_glide_ecoul>
-9.33448505401611

> <r_i_glide_erotb>
0.818076229071252

> <r_i_glide_esite>
-0.163840042611615

> <r_i_glide_emodel>
-31.6780380994426

> <r_i_glide_energy>
-53.4909563064575

> <r_i_glide_einternal>
41.6910247802734

> <i_i_glide_confnum>
5

> <i_i_glide_posenum>
91

> <r_i_glide_eff_state_penalty>
0

> <s_user_duplicate_titles>
CHEMBL286_lig266

> <i_f3d_flags>
0

> <s_m_subgroup_title>
dock_pv

> <s_m_subgroupid>
dock_pv

> <b_m_subgroup_collapsed>
1

$$$$
CHEMBL286_lig1127
                    3D
 Schrodinger Suite 2021-1.
 87 89  0  0  1  0            999 V2000
   -0.2127  -11.3458   -8.1696 C   0  0  0  0  0  0
   -3.8499  -14.6312   -9.6661 C   0  0  0  0  0  0
    0.7510  -12.3058   -8.1491 N   0  0  0  0  0  0
   -4.4068  -15.2497  -10.7187 N   0  0  0  0  0  0
   -4.9559  -16.6116  -10.7474 C   0  0  2  0  0  0
   -3.8230  -13.0924   -9.7552 C   0  0  1  0  0  0
   -3.9545  -17.7327  -11.1621 C   0  0  2  0  0  0
   -3.1313  -12.5103   -8.6066 N   0  0  0  0  0  0
   -1.0365  -11.3389   -7.0977 N   0  0  0  0  0  0
   -2.8310  -18.1136  -10.1533 C   0  0  2  0  0  0
   -3.3604  -11.2892   -8.0844 C   0  0  0  0  0  0
   -6.2326  -16.6170  -11.6377 C   0  0  0  0  0  0
    1.1951  -13.0224   -6.9310 C   0  0  0  0  0  0
    1.5180  -12.6469   -9.3617 C   0  0  0  0  0  0
   -0.3813  -10.5826   -9.1215 O   0  0  0  0  0  0
    1.5575  -15.0570   -8.4295 C   0  0  0  0  0  0
   -3.4451  -15.2094   -8.6566 O   0  0  0  0  0  0
   -9.8736  -15.7394   -9.4629 C   0  0  0  0  0  0
   -2.1859  -19.5108  -10.3996 C   0  0  0  0  0  0
    0.9312  -14.5353   -7.1315 C   0  0  0  0  0  0
    1.3118  -14.1600   -9.6493 C   0  0  0  0  0  0
   -4.3124  -10.5940   -8.4278 O   0  0  0  0  0  0
    2.2340  -16.0814   -8.4795 O   0  0  0  0  0  0
   -2.3644  -10.7110   -7.0497 C   0  0  0  0  0  0
  -11.1274  -15.4347   -8.7207 C   0  0  0  0  0  0
   -8.7142  -14.9922   -9.2247 C   0  0  0  0  0  0
   -9.8410  -16.7474  -10.4349 C   0  0  0  0  0  0
   -7.5188  -16.2701  -10.8896 C   0  0  0  0  0  0
   -3.3704  -17.4540  -12.4213 O   0  0  0  0  0  0
   -3.2884  -18.0679   -8.8173 O   0  0  0  0  0  0
   -7.5531  -15.2472   -9.9392 C   0  0  0  0  0  0
   -8.6761  -17.0046  -11.1494 C   0  0  0  0  0  0
   -3.2622  -12.5616  -11.1044 C   0  0  0  0  0  0
   -4.5394  -12.4609  -12.4015 S   0  0  0  0  0  0
   -3.1260  -20.7419  -10.5963 C   0  0  0  0  0  0
  -11.4411  -14.1204   -8.3409 C   0  0  0  0  0  0
  -12.0020  -16.4643   -8.3674 C   0  0  0  0  0  0
   -3.5283  -11.7917  -13.7408 C   0  0  0  0  0  0
   -4.1705  -20.9281   -9.4793 C   0  0  0  0  0  0
   -2.3206  -22.0397  -10.7785 C   0  0  0  0  0  0
  -13.1389  -16.2037   -7.6206 C   0  0  0  0  0  0
  -12.5744  -13.8538   -7.5837 C   0  0  0  0  0  0
  -13.4096  -14.9026   -7.2223 C   0  0  0  0  0  0
   -4.6567  -14.6663  -11.5065 H   0  0  0  0  0  0
   -5.2930  -16.8673   -9.7421 H   0  0  0  0  0  0
   -4.8651  -12.7855   -9.6630 H   0  0  0  0  0  0
   -4.5598  -18.6231  -11.3206 H   0  0  0  0  0  0
   -2.3686  -13.0636   -8.2489 H   0  0  0  0  0  0
   -0.7653  -11.8704   -6.2865 H   0  0  0  0  0  0
   -2.0390  -17.3686  -10.2182 H   0  0  0  0  0  0
   -6.3723  -17.6094  -12.0655 H   0  0  0  0  0  0
   -6.1249  -15.9539  -12.4964 H   0  0  0  0  0  0
    2.2698  -12.8538   -6.8196 H   0  0  0  0  0  0
    0.7619  -12.6354   -6.0065 H   0  0  0  0  0  0
    1.2322  -12.0482  -10.2313 H   0  0  0  0  0  0
    2.5727  -12.4400   -9.1754 H   0  0  0  0  0  0
   -1.5536  -19.4284  -11.2857 H   0  0  0  0  0  0
   -1.4913  -19.7186   -9.5835 H   0  0  0  0  0  0
    1.3180  -15.1137   -6.2915 H   0  0  0  0  0  0
   -0.1403  -14.7246   -7.2085 H   0  0  0  0  0  0
    0.2782  -14.3375   -9.9449 H   0  0  0  0  0  0
    1.9538  -14.4997  -10.4585 H   0  0  0  0  0  0
   -2.2621   -9.6364   -7.2110 H   0  0  0  0  0  0
   -2.7904  -10.8326   -6.0520 H   0  0  0  0  0  0
   -8.7045  -14.2048   -8.4867 H   0  0  0  0  0  0
  -10.7245  -17.3246  -10.6651 H   0  0  0  0  0  0
   -3.8485  -16.7269  -12.8340 H   0  0  0  0  0  0
   -3.4285  -17.1422   -8.5715 H   0  0  0  0  0  0
   -6.6864  -14.6426   -9.7255 H   0  0  0  0  0  0
   -8.6753  -17.7810  -11.9041 H   0  0  0  0  0  0
   -2.8686  -11.5514  -10.9775 H   0  0  0  0  0  0
   -2.4260  -13.1667  -11.4596 H   0  0  0  0  0  0
   -3.6688  -20.6005  -11.5333 H   0  0  0  0  0  0
  -10.7971  -13.2982   -8.6184 H   0  0  0  0  0  0
  -11.7899  -17.4818   -8.6537 H   0  0  0  0  0  0
   -4.1394  -11.5958  -14.6214 H   0  0  0  0  0  0
   -3.0703  -10.8639  -13.4123 H   0  0  0  0  0  0
   -2.7317  -12.4828  -14.0129 H   0  0  0  0  0  0
   -3.6953  -21.0293   -8.5025 H   0  0  0  0  0  0
   -4.8645  -20.0894   -9.4244 H   0  0  0  0  0  0
   -4.7744  -21.8213   -9.6466 H   0  0  0  0  0  0
   -1.8440  -22.3386   -9.8444 H   0  0  0  0  0  0
   -2.9625  -22.8637  -11.0882 H   0  0  0  0  0  0
   -1.5435  -21.9327  -11.5352 H   0  0  0  0  0  0
  -13.8084  -17.0051   -7.3430 H   0  0  0  0  0  0
  -12.7964  -12.8427   -7.2701 H   0  0  0  0  0  0
  -14.2689  -14.7231   -6.6063 H   0  0  0  0  0  0
  1  3  1  0  0  0
  1  9  1  0  0  0
  1 15  2  0  0  0
  2  6  1  0  0  0
  2  4  1  0  0  0
  2 17  2  0  0  0
  3 13  1  0  0  0
  3 14  1  0  0  0
  4  5  1  0  0  0
  4 44  1  0  0  0
  5  7  1  0  0  0
  5 12  1  0  0  0
  5 45  1  0  0  0
  6  8  1  0  0  0
  6 33  1  0  0  0
  6 46  1  0  0  0
  7 10  1  0  0  0
  7 29  1  0  0  0
  7 47  1  0  0  0
  8 11  1  0  0  0
  8 48  1  0  0  0
  9 24  1  0  0  0
  9 49  1  0  0  0
 10 19  1  0  0  0
 10 30  1  0  0  0
 10 50  1  0  0  0
 11 24  1  0  0  0
 11 22  2  0  0  0
 12 28  1  0  0  0
 12 51  1  0  0  0
 12 52  1  0  0  0
 13 20  1  0  0  0
 13 53  1  0  0  0
 13 54  1  0  0  0
 14 21  1  0  0  0
 14 55  1  0  0  0
 14 56  1  0  0  0
 16 21  1  0  0  0
 16 23  2  0  0  0
 16 20  1  0  0  0
 18 27  2  0  0  0
 18 25  1  0  0  0
 18 26  1  0  0  0
 19 35  1  0  0  0
 19 57  1  0  0  0
 19 58  1  0  0  0
 20 59  1  0  0  0
 20 60  1  0  0  0
 21 61  1  0  0  0
 21 62  1  0  0  0
 24 63  1  0  0  0
 24 64  1  0  0  0
 25 36  2  0  0  0
 25 37  1  0  0  0
 26 31  2  0  0  0
 26 65  1  0  0  0
 27 32  1  0  0  0
 27 66  1  0  0  0
 28 31  1  0  0  0
 28 32  2  0  0  0
 29 67  1  0  0  0
 30 68  1  0  0  0
 31 69  1  0  0  0
 32 70  1  0  0  0
 33 34  1  0  0  0
 33 71  1  0  0  0
 33 72  1  0  0  0
 34 38  1  0  0  0
 35 39  1  0  0  0
 35 40  1  0  0  0
 35 73  1  0  0  0
 36 42  1  0  0  0
 36 74  1  0  0  0
 37 41  2  0  0  0
 37 75  1  0  0  0
 38 76  1  0  0  0
 38 77  1  0  0  0
 38 78  1  0  0  0
 39 79  1  0  0  0
 39 80  1  0  0  0
 39 81  1  0  0  0
 40 82  1  0  0  0
 40 83  1  0  0  0
 40 84  1  0  0  0
 41 43  1  0  0  0
 41 85  1  0  0  0
 42 43  2  0  0  0
 42 86  1  0  0  0
 43 87  1  0  0  0
M  END
> <s_m_entry_id>
26459

> <s_m_entry_name>
dock_pv.283

> <s_m_Source_Path>
/home/csk/Desktop/cluster/DUD-E-result/reni

> <s_m_Source_File>
dock_pv.maegz

> <i_m_Source_File_Index>
283

> <chembl_id>
CHEMBL327616

> <chembl_pref_name>
None

> <i_lp_mmshare_version>
53161

> <r_lp_tautomer_probability>
0.99999998

> <s_lp_Force_Field>
OPLS_2005

> <r_lp_Energy>
27.826561

> <b_lp_Chiralities_Consistent>
1

> <s_lp_Variant>
CHEMBL286_lig1127-1

> <s_i_glide_gridfile>
glide-grid_3g6z

> <i_i_glide_lignum>
3582

> <i_i_glide_rotatable_bonds>
20

> <r_i_docking_score>
-6.88924397639133

> <r_i_glide_ligand_efficiency>
-0.160214976195147

> <r_i_glide_ligand_efficiency_sa>
-0.561296836143267

> <r_i_glide_ligand_efficiency_ln>
-1.44695534927915

> <r_i_glide_gscore>
-6.88924397639133

> <r_i_glide_lipo>
-3.164358006035

> <r_i_glide_hbond>
-0.107499891690583

> <r_i_glide_metal>
0

> <r_i_glide_rewards>
-1.16111817009715

> <r_i_glide_evdw>
-51.2088508605957

> <r_i_glide_ecoul>
-4.01037120819092

> <r_i_glide_erotb>
0.714864072848545

> <r_i_glide_esite>
-0.00913375715872055

> <r_i_glide_emodel>
-66.0535139050136

> <r_i_glide_energy>
-55.2192220687866

> <r_i_glide_einternal>
20.0191440582275

> <i_i_glide_confnum>
12

> <i_i_glide_posenum>
289

> <r_i_glide_eff_state_penalty>
0

> <s_user_duplicate_titles>
CHEMBL286_lig1127

> <i_f3d_flags>
0

> <s_m_subgroup_title>
dock_pv

> <s_m_subgroupid>
dock_pv

> <b_m_subgroup_collapsed>
1

$$$$
CHEMBL286_lig1509
                    3D
 Schrodinger Suite 2021-1.
 96 98  0  0  1  0            999 V2000
  -11.3478  -15.0458   -8.7627 P   0  0  0  0  0  0
   -8.1292  -19.7361  -10.7633 C   0  0  0  0  0  0
   -5.0239  -19.8436  -12.2910 C   0  0  0  0  0  0
   -3.2997  -21.0246   -9.7772 C   0  0  0  0  0  0
  -11.3312  -16.5833   -9.7997 C   0  0  0  0  0  0
   -5.9328  -20.3178  -11.4280 N   0  0  0  0  0  0
   -8.4367  -18.5130  -11.2204 N   0  0  0  0  0  0
   -7.3276  -20.6309  -11.7207 C   0  0  1  0  0  0
   -3.3260  -19.7426  -10.3057 N   0  0  0  0  0  0
   -5.0773  -24.6165  -12.8403 N   0  0  0  0  0  0
   -3.6246  -19.4636  -11.7295 C   0  0  1  0  0  0
   -8.7940  -17.3856  -10.3460 C   0  0  2  0  0  0
  -10.1448  -17.5633   -9.5553 C   0  0  1  0  0  0
   -6.6427  -23.0837  -12.2295 C   0  0  0  0  0  0
   -7.5717  -22.1423  -11.4910 C   0  0  0  0  0  0
   -6.6679  -23.2647  -13.6035 N   0  0  0  0  0  0
   -5.7386  -24.1749  -13.9007 C   0  0  0  0  0  0
   -3.0833  -20.9357   -8.4435 O   0  0  0  0  0  0
   -5.6500  -23.9221  -11.7713 C   0  0  0  0  0  0
  -10.1423  -14.1731   -8.7362 O   0  0  0  0  0  0
   -3.4828  -22.0681  -10.4011 O   0  0  0  0  0  0
   -8.3497  -20.1131   -9.6110 O   0  0  0  0  0  0
   -5.2551  -19.6744  -13.4906 O   0  0  0  0  0  0
   -2.4540  -19.8638  -12.6660 C   0  0  0  0  0  0
   -8.6608  -16.0581  -11.1191 C   0  0  0  0  0  0
   -3.1393  -22.0389   -7.5208 C   0  0  0  0  0  0
  -12.6693  -14.2782   -9.3112 O   0  0  0  0  0  0
  -11.8533  -15.5874   -7.3086 O   0  0  0  0  0  0
   -9.8691  -17.6617   -8.1693 O   0  0  0  0  0  0
   -1.0607  -19.3338  -12.3632 C   0  0  0  0  0  0
   -7.2795  -15.6450  -11.6859 C   0  0  0  0  0  0
   -1.9971  -23.0511   -7.7727 C   0  0  0  0  0  0
   -4.5227  -22.7346   -7.5413 C   0  0  0  0  0  0
   -2.9416  -21.3921   -6.1413 C   0  0  0  0  0  0
  -12.9892  -12.9797   -8.8401 C   0  0  0  0  0  0
  -11.8696  -14.7197   -6.1889 C   0  0  0  0  0  0
    0.0445  -20.0438  -12.8695 C   0  0  0  0  0  0
   -0.8418  -18.0611  -11.7988 C   0  0  0  0  0  0
   -7.3388  -14.1432  -12.0672 C   0  0  0  0  0  0
   -6.0998  -15.8683  -10.7022 C   0  0  0  0  0  0
    0.4461  -17.5515  -11.6929 C   0  0  0  0  0  0
    1.3156  -19.5051  -12.7861 C   0  0  0  0  0  0
   -4.7592  -15.4008  -11.2950 C   0  0  0  0  0  0
   -6.0173  -13.6246  -12.6520 C   0  0  0  0  0  0
    1.5248  -18.2713  -12.1865 C   0  0  0  0  0  0
   -4.8259  -13.9178  -11.7163 C   0  0  0  0  0  0
  -11.3667  -16.2893  -10.8449 H   0  0  0  0  0  0
  -12.2696  -17.1076   -9.6214 H   0  0  0  0  0  0
   -5.6680  -20.4309  -10.4596 H   0  0  0  0  0  0
   -8.2310  -18.2788  -12.1852 H   0  0  0  0  0  0
   -7.5784  -20.3792  -12.7533 H   0  0  0  0  0  0
   -3.0146  -18.9854   -9.7144 H   0  0  0  0  0  0
   -7.3204  -22.8368  -14.2648 H   0  0  0  0  0  0
   -3.6823  -18.3753  -11.7518 H   0  0  0  0  0  0
   -8.0048  -17.3454   -9.5932 H   0  0  0  0  0  0
  -10.5496  -18.5515   -9.7781 H   0  0  0  0  0  0
   -7.4904  -22.3821  -10.4304 H   0  0  0  0  0  0
   -8.5942  -22.3908  -11.7705 H   0  0  0  0  0  0
   -5.5469  -24.5254  -14.9002 H   0  0  0  0  0  0
   -5.2997  -24.0758  -10.7598 H   0  0  0  0  0  0
   -2.6712  -19.5498  -13.6851 H   0  0  0  0  0  0
   -2.3942  -20.9525  -12.6988 H   0  0  0  0  0  0
   -9.3808  -16.0635  -11.9398 H   0  0  0  0  0  0
   -8.9515  -15.2698  -10.4356 H   0  0  0  0  0  0
   -9.2756  -18.4085   -8.0434 H   0  0  0  0  0  0
   -7.0694  -16.2181  -12.5914 H   0  0  0  0  0  0
   -1.0231  -22.5842   -7.6365 H   0  0  0  0  0  0
   -2.0551  -23.8920   -7.0837 H   0  0  0  0  0  0
   -2.0205  -23.4621   -8.7837 H   0  0  0  0  0  0
   -5.3275  -22.0113   -7.4173 H   0  0  0  0  0  0
   -4.7036  -23.2646   -8.4751 H   0  0  0  0  0  0
   -4.6093  -23.4684   -6.7393 H   0  0  0  0  0  0
   -3.7481  -20.7006   -5.9021 H   0  0  0  0  0  0
   -2.9129  -22.1452   -5.3544 H   0  0  0  0  0  0
   -2.0074  -20.8323   -6.0879 H   0  0  0  0  0  0
  -13.0877  -12.3158   -9.6947 H   0  0  0  0  0  0
  -13.9397  -12.9773   -8.3080 H   0  0  0  0  0  0
  -12.2337  -12.5537   -8.1786 H   0  0  0  0  0  0
  -11.4928  -15.2532   -5.3146 H   0  0  0  0  0  0
  -11.2194  -13.8470   -6.3201 H   0  0  0  0  0  0
  -12.8879  -14.3804   -5.9772 H   0  0  0  0  0  0
   -0.0961  -20.9921  -13.3638 H   0  0  0  0  0  0
   -1.6682  -17.4595  -11.4490 H   0  0  0  0  0  0
   -8.1516  -13.9713  -12.7753 H   0  0  0  0  0  0
   -7.5985  -13.5429  -11.1919 H   0  0  0  0  0  0
   -6.3008  -15.3330   -9.7722 H   0  0  0  0  0  0
   -6.0254  -16.9191  -10.4175 H   0  0  0  0  0  0
    0.6022  -16.5780  -11.2461 H   0  0  0  0  0  0
    2.1341  -20.0625  -13.2097 H   0  0  0  0  0  0
   -4.5058  -16.0205  -12.1572 H   0  0  0  0  0  0
   -3.9563  -15.5429  -10.5694 H   0  0  0  0  0  0
   -5.8673  -14.0919  -13.6245 H   0  0  0  0  0  0
   -6.0876  -12.5493  -12.8268 H   0  0  0  0  0  0
    2.5228  -17.8656  -12.1221 H   0  0  0  0  0  0
   -3.8910  -13.6280  -12.1971 H   0  0  0  0  0  0
   -4.9062  -13.2918  -10.8253 H   0  0  0  0  0  0
  1  5  1  0  0  0
  1 20  2  0  0  0
  1 27  1  0  0  0
  1 28  1  0  0  0
  2  7  1  0  0  0
  2  8  1  0  0  0
  2 22  2  0  0  0
  3  6  1  0  0  0
  3 11  1  0  0  0
  3 23  2  0  0  0
  4  9  1  0  0  0
  4 18  1  0  0  0
  4 21  2  0  0  0
  5 13  1  0  0  0
  5 47  1  0  0  0
  5 48  1  0  0  0
  6  8  1  0  0  0
  6 49  1  0  0  0
  7 12  1  0  0  0
  7 50  1  0  0  0
  8 15  1  0  0  0
  8 51  1  0  0  0
  9 11  1  0  0  0
  9 52  1  0  0  0
 10 17  2  0  0  0
 10 19  1  0  0  0
 11 24  1  0  0  0
 11 54  1  0  0  0
 12 13  1  0  0  0
 12 25  1  0  0  0
 12 55  1  0  0  0
 13 29  1  0  0  0
 13 56  1  0  0  0
 14 19  2  0  0  0
 14 15  1  0  0  0
 14 16  1  0  0  0
 15 57  1  0  0  0
 15 58  1  0  0  0
 16 53  1  0  0  0
 16 17  1  0  0  0
 17 59  1  0  0  0
 18 26  1  0  0  0
 19 60  1  0  0  0
 24 30  1  0  0  0
 24 61  1  0  0  0
 24 62  1  0  0  0
 25 31  1  0  0  0
 25 63  1  0  0  0
 25 64  1  0  0  0
 26 32  1  0  0  0
 26 33  1  0  0  0
 26 34  1  0  0  0
 27 35  1  0  0  0
 28 36  1  0  0  0
 29 65  1  0  0  0
 30 37  1  0  0  0
 30 38  2  0  0  0
 31 39  1  0  0  0
 31 40  1  0  0  0
 31 66  1  0  0  0
 32 67  1  0  0  0
 32 68  1  0  0  0
 32 69  1  0  0  0
 33 70  1  0  0  0
 33 71  1  0  0  0
 33 72  1  0  0  0
 34 73  1  0  0  0
 34 74  1  0  0  0
 34 75  1  0  0  0
 35 76  1  0  0  0
 35 77  1  0  0  0
 35 78  1  0  0  0
 36 79  1  0  0  0
 36 80  1  0  0  0
 36 81  1  0  0  0
 37 42  2  0  0  0
 37 82  1  0  0  0
 38 41  1  0  0  0
 38 83  1  0  0  0
 39 44  1  0  0  0
 39 84  1  0  0  0
 39 85  1  0  0  0
 40 43  1  0  0  0
 40 86  1  0  0  0
 40 87  1  0  0  0
 41 45  2  0  0  0
 41 88  1  0  0  0
 42 45  1  0  0  0
 42 89  1  0  0  0
 43 46  1  0  0  0
 43 90  1  0  0  0
 43 91  1  0  0  0
 44 46  1  0  0  0
 44 92  1  0  0  0
 44 93  1  0  0  0
 45 94  1  0  0  0
 46 95  1  0  0  0
 46 96  1  0  0  0
M  END
> <s_m_entry_id>
26461

> <s_m_entry_name>
dock_pv.285

> <s_m_Source_Path>
/home/csk/Desktop/cluster/DUD-E-result/reni

> <s_m_Source_File>
dock_pv.maegz

> <i_m_Source_File_Index>
285

> <chembl_id>
CHEMBL3143418

> <chembl_pref_name>
None

> <i_lp_mmshare_version>
53161

> <r_lp_tautomer_probability>
0.499999999999999

> <s_lp_Force_Field>
OPLS_2005

> <r_lp_Energy>
11.403684

> <b_lp_Chiralities_Consistent>
1

> <s_lp_Variant>
CHEMBL286_lig1509-2

> <s_i_glide_gridfile>
glide-grid_3g6z

> <i_i_glide_lignum>
5040

> <i_i_glide_rotatable_bonds>
22

> <r_i_docking_score>
-6.88611125246525

> <r_i_glide_ligand_efficiency>
-0.149698070705766

> <r_i_glide_ligand_efficiency_sa>
-0.536375352852961

> <r_i_glide_ligand_efficiency_ln>
-1.42609705029496

> <r_i_glide_gscore>
-6.88611125246525

> <r_i_glide_lipo>
-1.97793515222793

> <r_i_glide_hbond>
-0.608

> <r_i_glide_metal>
0

> <r_i_glide_rewards>
-0.181607006959531

> <r_i_glide_evdw>
-51.6119956970215

> <r_i_glide_ecoul>
-13.4268474578857

> <r_i_glide_erotb>
0.566681667618439

> <r_i_glide_esite>
-0.0906238573622977

> <r_i_glide_emodel>
-82.9755475874691

> <r_i_glide_energy>
-65.0388431549072

> <r_i_glide_einternal>
15.6638813018799

> <i_i_glide_confnum>
35

> <i_i_glide_posenum>
348

> <r_i_glide_eff_state_penalty>
0

> <s_user_duplicate_titles>
CHEMBL286_lig1509

> <i_f3d_flags>
0

> <s_m_subgroup_title>
dock_pv

> <s_m_subgroupid>
dock_pv

> <b_m_subgroup_collapsed>
1

$$$$
CHEMBL286_lig2769
                    3D
 Schrodinger Suite 2021-1.
 61 64  0  0  1  0            999 V2000
  -12.0062   -8.4624   -5.8397 C   0  0  0  0  0  0
  -10.6623   -8.8678   -6.0502 O   0  0  0  0  0  0
  -10.4560   -9.5662   -7.2724 C   0  0  0  0  0  0
  -10.7631  -11.0731   -7.1128 C   0  0  0  0  0  0
  -11.7934  -11.6244   -8.1220 C   0  0  0  0  0  0
  -11.9053  -13.0837   -8.0444 N   0  0  0  0  0  0
  -12.9980  -13.7828   -7.5795 C   0  0  0  0  0  0
  -12.7808  -15.1507   -7.6440 C   0  0  0  0  0  0
  -13.6984  -16.2717   -7.2222 C   0  0  0  0  0  0
  -11.4749  -15.3017   -8.2082 C   0  0  0  0  0  0
  -10.6668  -16.3914   -8.5723 C   0  0  0  0  0  0
   -9.4224  -16.2386   -9.0888 N   0  0  0  0  0  0
   -8.9162  -14.9851   -9.2210 C   0  0  0  0  0  0
   -9.6242  -13.8306   -8.8656 C   0  0  0  0  0  0
  -10.9308  -14.0024   -8.4028 C   0  0  0  0  0  0
   -7.5448  -14.8935   -9.9107 C   0  0  1  0  0  0
   -7.5537  -13.9768  -11.1572 C   0  0  0  0  0  0
   -6.4192  -14.6008   -8.9823 N   0  0  0  0  0  0
   -6.5026  -13.2564   -8.3457 C   0  0  0  0  0  0
   -6.3970  -13.0575   -6.8576 C   0  0  0  0  0  0
   -5.2956  -12.5405   -7.7642 C   0  0  0  0  0  0
   -5.4906  -15.5540   -8.6565 C   0  0  0  0  0  0
   -4.7286  -15.4284   -7.6951 O   0  0  0  0  0  0
   -5.3415  -16.8182   -9.5453 C   0  0  1  0  0  0
   -4.0105  -17.5821   -9.2904 C   0  0  0  0  0  0
   -3.9626  -18.8431  -10.0326 N   0  0  2  0  0  0
   -5.1691  -19.6528   -9.8478 C   0  0  0  0  0  0
   -6.4648  -18.8309  -10.0503 C   0  0  0  0  0  0
   -6.4381  -17.6737   -9.2212 O   0  0  0  0  0  0
  -12.1284   -8.0796   -4.8267 H   0  0  0  0  0  0
  -12.7103   -9.2805   -5.9997 H   0  0  0  0  0  0
  -12.2689   -7.6518   -6.5151 H   0  0  0  0  0  0
  -11.0087   -9.1104   -8.0965 H   0  0  0  0  0  0
   -9.4054   -9.4471   -7.5371 H   0  0  0  0  0  0
   -9.8217  -11.6076   -7.2217 H   0  0  0  0  0  0
  -11.1025  -11.2782   -6.0964 H   0  0  0  0  0  0
  -12.7739  -11.1713   -7.9666 H   0  0  0  0  0  0
  -11.5022  -11.3688   -9.1421 H   0  0  0  0  0  0
  -13.8616  -13.2397   -7.2279 H   0  0  0  0  0  0
  -13.2538  -16.8644   -6.4243 H   0  0  0  0  0  0
  -14.6689  -15.9177   -6.8733 H   0  0  0  0  0  0
  -13.8706  -16.9641   -8.0457 H   0  0  0  0  0  0
  -11.0207  -17.4012   -8.4647 H   0  0  0  0  0  0
   -9.2100  -12.8630   -9.0146 H   0  0  0  0  0  0
   -7.4101  -15.8763  -10.3550 H   0  0  0  0  0  0
   -8.2530  -14.3501  -11.9044 H   0  0  0  0  0  0
   -7.8417  -12.9510  -10.9298 H   0  0  0  0  0  0
   -6.5696  -13.9478  -11.6282 H   0  0  0  0  0  0
   -7.2230  -12.6044   -8.8213 H   0  0  0  0  0  0
   -7.0699  -12.3305   -6.4190 H   0  0  0  0  0  0
   -6.2670  -13.9377   -6.2325 H   0  0  0  0  0  0
   -4.3155  -13.0157   -7.7580 H   0  0  0  0  0  0
   -5.2136  -11.4678   -7.9320 H   0  0  0  0  0  0
   -5.3714  -16.4763  -10.5818 H   0  0  0  0  0  0
   -3.1583  -16.9485   -9.5463 H   0  0  0  0  0  0
   -3.8873  -17.7931   -8.2243 H   0  0  0  0  0  0
   -3.1306  -19.3697   -9.8053 H   0  0  0  0  0  0
   -5.1477  -20.4827  -10.5531 H   0  0  0  0  0  0
   -5.1617  -20.0900   -8.8473 H   0  0  0  0  0  0
   -6.5902  -18.5490  -11.0987 H   0  0  0  0  0  0
   -7.3360  -19.4305   -9.7849 H   0  0  0  0  0  0
  1  2  1  0  0  0
  1 30  1  0  0  0
  1 31  1  0  0  0
  1 32  1  0  0  0
  2  3  1  0  0  0
  3  4  1  0  0  0
  3 33  1  0  0  0
  3 34  1  0  0  0
  4  5  1  0  0  0
  4 35  1  0  0  0
  4 36  1  0  0  0
  5  6  1  0  0  0
  5 37  1  0  0  0
  5 38  1  0  0  0
  6  7  1  0  0  0
  6 15  1  0  0  0
  7  8  2  0  0  0
  7 39  1  0  0  0
  8  9  1  0  0  0
  8 10  1  0  0  0
  9 40  1  0  0  0
  9 41  1  0  0  0
  9 42  1  0  0  0
 10 11  2  0  0  0
 10 15  1  0  0  0
 11 12  1  0  0  0
 11 43  1  0  0  0
 12 13  2  0  0  0
 13 14  1  0  0  0
 13 16  1  0  0  0
 14 15  2  0  0  0
 14 44  1  0  0  0
 16 17  1  0  0  0
 16 18  1  0  0  0
 16 45  1  0  0  0
 17 46  1  0  0  0
 17 47  1  0  0  0
 17 48  1  0  0  0
 18 19  1  0  0  0
 18 22  1  0  0  0
 19 20  1  0  0  0
 19 21  1  0  0  0
 19 49  1  0  0  0
 20 21  1  0  0  0
 20 50  1  0  0  0
 20 51  1  0  0  0
 21 52  1  0  0  0
 21 53  1  0  0  0
 22 23  2  0  0  0
 22 24  1  0  0  0
 24 25  1  0  0  0
 24 29  1  0  0  0
 24 54  1  0  0  0
 25 26  1  0  0  0
 25 55  1  0  0  0
 25 56  1  0  0  0
 26 27  1  0  0  0
 26 57  1  0  0  0
 27 28  1  0  0  0
 27 58  1  0  0  0
 27 59  1  0  0  0
 28 29  1  0  0  0
 28 60  1  0  0  0
 28 61  1  0  0  0
M  END
> <s_m_entry_id>
26463

> <s_m_entry_name>
dock_pv.287

> <s_m_Source_Path>
/home/csk/Desktop/cluster/DUD-E-result/reni

> <s_m_Source_File>
dock_pv.maegz

> <i_m_Source_File_Index>
287

> <chembl_id>
CHEMBL4111441

> <chembl_pref_name>
None

> <i_lp_mmshare_version>
53161

> <r_lp_tautomer_probability>
1

> <s_lp_Force_Field>
OPLS_2005

> <r_lp_Energy>
51.013889

> <b_lp_Chiralities_Consistent>
1

> <s_lp_Variant>
CHEMBL286_lig2769-2

> <s_i_glide_gridfile>
glide-grid_3g6z

> <i_i_glide_lignum>
6867

> <i_i_glide_rotatable_bonds>
9

> <r_i_docking_score>
-6.87881827221305

> <r_i_glide_ligand_efficiency>
-0.237200630076312

> <r_i_glide_ligand_efficiency_sa>
-0.72875548602876

> <r_i_glide_ligand_efficiency_ln>
-1.57507495255579

> <r_i_glide_gscore>
-6.87881827221305

> <r_i_glide_lipo>
-3.99460916097767

> <r_i_glide_hbond>
0

> <r_i_glide_metal>
0

> <r_i_glide_rewards>
-1.98644926498712

> <r_i_glide_evdw>
-39.5236701965332

> <r_i_glide_ecoul>
0.671257138252258

> <r_i_glide_erotb>
0.977735092840561

> <r_i_glide_esite>
0

> <r_i_glide_emodel>
-48.4822863730667

> <r_i_glide_energy>
-38.8524130582809

> <r_i_glide_einternal>
14.4034090042114

> <i_i_glide_confnum>
257

> <i_i_glide_posenum>
179

> <r_i_glide_eff_state_penalty>
0

> <s_user_duplicate_titles>
CHEMBL286_lig2769

> <i_f3d_flags>
0

> <s_m_subgroup_title>
dock_pv

> <s_m_subgroupid>
dock_pv

> <b_m_subgroup_collapsed>
1

$$$$
CHEMBL286_lig2589
                    3D
 Schrodinger Suite 2021-1.
 83 86  0  0  1  0            999 V2000
  -10.0455  -21.1519  -10.9715 C   0  0  0  0  0  0
  -10.3317  -19.7973  -10.7588 C   0  0  0  0  0  0
   -9.4690  -19.0372   -9.9601 C   0  0  0  0  0  0
   -8.3578  -19.6126   -9.3583 C   0  0  0  0  0  0
   -8.0099  -20.9430   -9.6220 C   0  0  0  0  0  0
   -8.8709  -21.7045  -10.4308 C   0  0  0  0  0  0
  -11.4986  -19.2939  -11.3080 O   0  0  0  0  0  0
  -11.7189  -17.8890  -11.3289 C   0  0  0  0  0  0
  -10.9917  -21.8531  -11.6936 O   0  0  0  0  0  0
  -10.8426  -23.2224  -12.0401 C   0  0  0  0  0  0
  -12.2489  -23.8403  -12.1942 C   0  0  0  0  0  0
  -13.1979  -23.1500  -13.2050 C   0  0  0  0  0  0
  -13.4690  -21.7739  -12.9648 O   0  0  0  0  0  0
  -14.0788  -21.4672  -11.7207 C   0  0  0  0  0  0
   -6.8145  -21.6118   -8.9663 C   0  0  0  0  0  0
   -5.5670  -21.0341   -8.9858 N   0  0  0  0  0  0
   -7.0228  -22.7103   -8.4474 O   0  0  0  0  0  0
   -4.3596  -21.6765   -8.3953 C   0  0  0  0  0  0
   -4.1597  -23.1893   -8.6487 C   0  0  0  0  0  0
   -4.1701  -21.3008   -6.9126 C   0  0  0  0  0  0
   -5.2604  -19.6880   -9.5170 C   0  0  0  0  0  0
   -5.2148  -19.5716  -11.0534 C   0  0  1  0  0  0
   -5.0135  -18.1119  -11.5041 C   0  0  1  0  0  0
   -3.7916  -18.1798  -12.4345 C   0  0  0  0  0  0
   -3.6112  -19.5720  -12.8210 N   0  0  2  0  0  0
   -4.0385  -20.3373  -11.6690 C   0  0  0  0  0  0
   -6.1848  -17.7255  -12.2227 O   0  0  0  0  0  0
   -6.3391  -16.3265  -12.4642 C   0  0  0  0  0  0
   -6.8637  -15.6194  -11.2195 C   0  0  0  0  0  0
   -8.1604  -15.8799  -10.7693 C   0  0  0  0  0  0
   -8.6693  -15.2652   -9.6208 C   0  0  0  0  0  0
   -7.8408  -14.3871   -8.9087 C   0  0  0  0  0  0
   -6.5492  -14.1078   -9.3582 C   0  0  0  0  0  0
   -6.0625  -14.7189  -10.5133 C   0  0  0  0  0  0
   -9.9399  -15.6472   -9.2207 O   0  0  0  0  0  0
  -10.8592  -14.8661   -8.5381 C   0  0  0  0  0  0
  -11.9341  -15.5497   -7.9661 C   0  0  0  0  0  0
  -12.9353  -14.8589   -7.2884 C   0  0  0  0  0  0
  -12.8665  -13.4728   -7.1874 C   0  0  0  0  0  0
  -11.8033  -12.7723   -7.7511 C   0  0  0  0  0  0
  -10.8009  -13.4675   -8.4236 C   0  0  0  0  0  0
   -9.7019  -18.0148   -9.7215 H   0  0  0  0  0  0
   -7.8166  -19.0075   -8.6496 H   0  0  0  0  0  0
   -8.6249  -22.7398  -10.6071 H   0  0  0  0  0  0
  -12.6041  -17.6805  -11.9287 H   0  0  0  0  0  0
  -11.8941  -17.4946  -10.3282 H   0  0  0  0  0  0
  -10.8868  -17.3552  -11.7876 H   0  0  0  0  0  0
  -10.3168  -23.7968  -11.2777 H   0  0  0  0  0  0
  -10.2746  -23.3031  -12.9685 H   0  0  0  0  0  0
  -12.7290  -23.8795  -11.2183 H   0  0  0  0  0  0
  -12.1348  -24.8810  -12.4978 H   0  0  0  0  0  0
  -14.1574  -23.6629  -13.2206 H   0  0  0  0  0  0
  -12.7879  -23.2404  -14.2109 H   0  0  0  0  0  0
  -14.2715  -20.3978  -11.6742 H   0  0  0  0  0  0
  -13.4459  -21.7120  -10.8695 H   0  0  0  0  0  0
  -15.0279  -21.9891  -11.6196 H   0  0  0  0  0  0
   -3.4996  -21.2438   -8.9094 H   0  0  0  0  0  0
   -3.1724  -23.5029   -8.3070 H   0  0  0  0  0  0
   -4.8655  -23.8075   -8.0935 H   0  0  0  0  0  0
   -4.2301  -23.4312   -9.7095 H   0  0  0  0  0  0
   -3.3701  -21.8834   -6.4561 H   0  0  0  0  0  0
   -3.8687  -20.2573   -6.8105 H   0  0  0  0  0  0
   -5.0757  -21.4755   -6.3303 H   0  0  0  0  0  0
   -5.9517  -18.9492   -9.1359 H   0  0  0  0  0  0
   -4.2999  -19.3448   -9.1265 H   0  0  0  0  0  0
   -6.1446  -19.9610  -11.4730 H   0  0  0  0  0  0
   -4.8519  -17.4537  -10.6476 H   0  0  0  0  0  0
   -3.8557  -17.4980  -13.2832 H   0  0  0  0  0  0
   -2.9058  -17.8825  -11.8705 H   0  0  0  0  0  0
   -2.6407  -19.7632  -13.0315 H   0  0  0  0  0  0
   -3.2102  -20.4328  -10.9666 H   0  0  0  0  0  0
   -4.3264  -21.3486  -11.9597 H   0  0  0  0  0  0
   -5.4165  -15.8689  -12.8219 H   0  0  0  0  0  0
   -7.0756  -16.1947  -13.2571 H   0  0  0  0  0  0
   -8.7729  -16.5774  -11.3213 H   0  0  0  0  0  0
   -8.1850  -13.9191   -8.0026 H   0  0  0  0  0  0
   -5.9216  -13.4240   -8.8063 H   0  0  0  0  0  0
   -5.0588  -14.5037  -10.8497 H   0  0  0  0  0  0
  -11.9914  -16.6240   -8.0498 H   0  0  0  0  0  0
  -13.7615  -15.3960   -6.8442 H   0  0  0  0  0  0
  -13.6433  -12.9337   -6.6643 H   0  0  0  0  0  0
  -11.7629  -11.6949   -7.6757 H   0  0  0  0  0  0
  -10.0064  -12.9029   -8.8858 H   0  0  0  0  0  0
  1  2  2  0  0  0
  1  6  1  0  0  0
  1  9  1  0  0  0
  2  3  1  0  0  0
  2  7  1  0  0  0
  3  4  2  0  0  0
  3 42  1  0  0  0
  4  5  1  0  0  0
  4 43  1  0  0  0
  5  6  2  0  0  0
  5 15  1  0  0  0
  6 44  1  0  0  0
  7  8  1  0  0  0
  8 45  1  0  0  0
  8 46  1  0  0  0
  8 47  1  0  0  0
  9 10  1  0  0  0
 10 11  1  0  0  0
 10 48  1  0  0  0
 10 49  1  0  0  0
 11 12  1  0  0  0
 11 50  1  0  0  0
 11 51  1  0  0  0
 12 13  1  0  0  0
 12 52  1  0  0  0
 12 53  1  0  0  0
 13 14  1  0  0  0
 14 54  1  0  0  0
 14 55  1  0  0  0
 14 56  1  0  0  0
 15 16  1  0  0  0
 15 17  2  0  0  0
 16 18  1  0  0  0
 16 21  1  0  0  0
 18 19  1  0  0  0
 18 20  1  0  0  0
 18 57  1  0  0  0
 19 58  1  0  0  0
 19 59  1  0  0  0
 19 60  1  0  0  0
 20 61  1  0  0  0
 20 62  1  0  0  0
 20 63  1  0  0  0
 21 22  1  0  0  0
 21 64  1  0  0  0
 21 65  1  0  0  0
 22 23  1  0  0  0
 22 26  1  0  0  0
 22 66  1  0  0  0
 23 24  1  0  0  0
 23 27  1  0  0  0
 23 67  1  0  0  0
 24 25  1  0  0  0
 24 68  1  0  0  0
 24 69  1  0  0  0
 25 26  1  0  0  0
 25 70  1  0  0  0
 26 71  1  0  0  0
 26 72  1  0  0  0
 27 28  1  0  0  0
 28 29  1  0  0  0
 28 73  1  0  0  0
 28 74  1  0  0  0
 29 30  2  0  0  0
 29 34  1  0  0  0
 30 31  1  0  0  0
 30 75  1  0  0  0
 31 32  2  0  0  0
 31 35  1  0  0  0
 32 33  1  0  0  0
 32 76  1  0  0  0
 33 34  2  0  0  0
 33 77  1  0  0  0
 34 78  1  0  0  0
 35 36  1  0  0  0
 36 37  2  0  0  0
 36 41  1  0  0  0
 37 38  1  0  0  0
 37 79  1  0  0  0
 38 39  2  0  0  0
 38 80  1  0  0  0
 39 40  1  0  0  0
 39 81  1  0  0  0
 40 41  2  0  0  0
 40 82  1  0  0  0
 41 83  1  0  0  0
M  END
> <s_m_entry_id>
26465

> <s_m_entry_name>
dock_pv.289

> <s_m_Source_Path>
/home/csk/Desktop/cluster/DUD-E-result/reni

> <s_m_Source_File>
dock_pv.maegz

> <i_m_Source_File_Index>
289

> <chembl_id>
CHEMBL3403985

> <chembl_pref_name>
None

> <i_lp_mmshare_version>
53161

> <r_lp_tautomer_probability>
1

> <s_lp_Force_Field>
OPLS_2005

> <r_lp_Energy>
69.191225

> <b_lp_Chiralities_Consistent>
1

> <s_lp_Variant>
CHEMBL286_lig2589-1

> <s_i_glide_gridfile>
glide-grid_3g6z

> <i_i_glide_lignum>
6654

> <i_i_glide_rotatable_bonds>
16

> <r_i_docking_score>
-6.8625045321325

> <r_i_glide_ligand_efficiency>
-0.167378159320305

> <r_i_glide_ligand_efficiency_sa>
-0.577156253917365

> <r_i_glide_ligand_efficiency_ln>
-1.45590317385997

> <r_i_glide_gscore>
-6.8625045321325

> <r_i_glide_lipo>
-3.59138191678449

> <r_i_glide_hbond>
-0.19898701750379

> <r_i_glide_metal>
0

> <r_i_glide_rewards>
-0.645424854252484

> <r_i_glide_evdw>
-46.3640403747559

> <r_i_glide_ecoul>
-5.86831331253052

> <r_i_glide_erotb>
0.771738272025639

> <r_i_glide_esite>
0

> <r_i_glide_emodel>
-68.9883963228816

> <r_i_glide_energy>
-52.2323536872864

> <r_i_glide_einternal>
8.39754104614258

> <i_i_glide_confnum>
33

> <i_i_glide_posenum>
116

> <r_i_glide_eff_state_penalty>
0

> <s_user_duplicate_titles>
CHEMBL286_lig2589

> <i_f3d_flags>
0

> <s_m_subgroup_title>
dock_pv

> <s_m_subgroupid>
dock_pv

> <b_m_subgroup_collapsed>
1

$$$$
CHEMBL286_lig1551
                    3D
 Schrodinger Suite 2021-1.
 71 74  0  0  1  0            999 V2000
   -6.6432  -18.6984  -11.4355 N   0  0  0  0  0  0
   -5.9639  -19.7889  -10.9541 C   0  0  0  0  0  0
   -3.8857  -10.4026   -7.5614 N   0  0  0  0  0  0
   -7.8329  -18.2569  -10.8232 C   0  0  0  0  0  0
   -6.1725  -17.8876  -12.5997 C   0  0  2  0  0  0
   -4.1926  -11.4730   -7.8739 C   0  0  0  0  0  0
   -5.0682  -20.0621  -13.2210 N   0  0  2  0  0  0
  -11.9604  -11.6888   -7.5243 C   0  0  0  0  0  0
   -6.3108  -20.4419   -9.9661 O   0  0  0  0  0  0
  -10.5906  -11.8532   -7.7852 C   0  0  0  0  0  0
   -9.0041  -18.1785  -11.5831 C   0  0  0  0  0  0
   -7.8458  -17.8743   -9.4791 C   0  0  0  0  0  0
   -4.7488  -20.2322  -11.8037 C   0  0  0  0  0  0
   -4.5709  -12.8228   -8.2671 C   0  0  0  0  0  0
   -5.1810  -18.6423  -13.5307 C   0  0  0  0  0  0
   -4.1727  -13.3290   -9.5104 C   0  0  0  0  0  0
  -10.1875  -17.3027   -9.6779 C   0  0  0  0  0  0
   -4.5177  -16.4683  -11.5321 O   0  0  0  0  0  0
  -10.1734  -17.6986  -11.0110 C   0  0  0  0  0  0
   -9.0146  -17.3899   -8.9107 C   0  0  0  0  0  0
   -4.4800  -14.6447   -9.8751 C   0  0  0  0  0  0
  -10.1905  -13.0077   -8.4360 O   0  0  0  0  0  0
   -5.7272  -16.4433  -12.2853 C   0  0  0  0  0  0
  -12.9766  -16.3628   -7.4862 C   0  0  0  0  0  0
  -11.3958  -16.8574   -9.1965 O   0  0  0  0  0  0
  -12.9788  -12.7041   -8.0179 C   0  0  0  0  0  0
  -12.7476  -13.9563   -7.3881 O   0  0  0  0  0  0
   -5.6121  -14.9425   -7.7477 C   0  0  0  0  0  0
  -12.4055  -10.5672   -6.8212 C   0  0  0  0  0  0
   -3.9766  -15.1850  -11.2138 C   0  0  0  0  0  0
  -11.4985  -16.5619   -7.8149 C   0  0  0  0  0  0
  -13.5152  -15.0107   -7.9472 C   0  0  0  0  0  0
   -9.6968  -10.8518   -7.3634 C   0  0  0  0  0  0
   -5.3037  -13.6292   -7.3910 C   0  0  0  0  0  0
   -5.1937  -15.4484   -8.9788 C   0  0  0  0  0  0
   -8.8044  -13.3311   -8.5368 C   0  0  0  0  0  0
  -11.5062   -9.5915   -6.3994 C   0  0  0  0  0  0
  -10.1539   -9.7298   -6.6761 C   0  0  0  0  0  0
   -7.0674  -17.8115  -13.2169 H   0  0  0  0  0  0
   -5.8858  -20.5972  -13.4953 H   0  0  0  0  0  0
   -9.0206  -18.4913  -12.6149 H   0  0  0  0  0  0
   -6.9565  -17.9535   -8.8737 H   0  0  0  0  0  0
   -4.5228  -21.2791  -11.5950 H   0  0  0  0  0  0
   -3.8783  -19.6401  -11.5140 H   0  0  0  0  0  0
   -5.4701  -18.4800  -14.5698 H   0  0  0  0  0  0
   -4.1862  -18.2036  -13.4278 H   0  0  0  0  0  0
   -3.6006  -12.7128  -10.1915 H   0  0  0  0  0  0
  -11.0746  -17.6395  -11.6043 H   0  0  0  0  0  0
   -8.9866  -17.0885   -7.8750 H   0  0  0  0  0  0
   -6.5070  -15.9159  -11.7334 H   0  0  0  0  0  0
   -5.5780  -15.9014  -13.2194 H   0  0  0  0  0  0
  -13.5671  -17.1636   -7.9335 H   0  0  0  0  0  0
  -13.1143  -16.4588   -6.4210 H   0  0  0  0  0  0
  -12.8704  -12.7804   -9.1026 H   0  0  0  0  0  0
  -13.9989  -12.3698   -7.8165 H   0  0  0  0  0  0
   -6.1596  -15.5736   -7.0628 H   0  0  0  0  0  0
  -13.4579  -10.4318   -6.6161 H   0  0  0  0  0  0
   -4.1520  -14.4596  -12.0131 H   0  0  0  0  0  0
   -2.8961  -15.3038  -11.1243 H   0  0  0  0  0  0
  -11.0896  -17.3707   -7.2050 H   0  0  0  0  0  0
  -10.9200  -15.6665   -7.5964 H   0  0  0  0  0  0
  -13.4691  -14.9807   -9.0368 H   0  0  0  0  0  0
  -14.5516  -14.9059   -7.6213 H   0  0  0  0  0  0
   -8.6391  -10.9311   -7.5618 H   0  0  0  0  0  0
   -5.6212  -13.2577   -6.4247 H   0  0  0  0  0  0
   -5.4069  -16.4748   -9.2313 H   0  0  0  0  0  0
   -8.7039  -14.3568   -8.8901 H   0  0  0  0  0  0
   -8.2694  -12.6984   -9.2372 H   0  0  0  0  0  0
   -8.2877  -13.2645   -7.5829 H   0  0  0  0  0  0
  -11.8647   -8.7204   -5.8712 H   0  0  0  0  0  0
   -9.4690   -8.9637   -6.3506 H   0  0  0  0  0  0
  1  2  1  0  0  0
  1  4  1  0  0  0
  1  5  1  0  0  0
  2  9  2  0  0  0
  2 13  1  0  0  0
  3  6  3  0  0  0
  4 11  1  0  0  0
  4 12  2  0  0  0
  5 15  1  0  0  0
  5 23  1  0  0  0
  5 39  1  0  0  0
  6 14  1  0  0  0
  7 15  1  0  0  0
  7 13  1  0  0  0
  7 40  1  0  0  0
  8 26  1  0  0  0
  8 10  2  0  0  0
  8 29  1  0  0  0
 10 22  1  0  0  0
 10 33  1  0  0  0
 11 19  2  0  0  0
 11 41  1  0  0  0
 12 20  1  0  0  0
 12 42  1  0  0  0
 13 43  1  0  0  0
 13 44  1  0  0  0
 14 16  1  0  0  0
 14 34  2  0  0  0
 15 45  1  0  0  0
 15 46  1  0  0  0
 16 21  2  0  0  0
 16 47  1  0  0  0
 17 20  2  0  0  0
 17 25  1  0  0  0
 17 19  1  0  0  0
 18 23  1  0  0  0
 18 30  1  0  0  0
 19 48  1  0  0  0
 20 49  1  0  0  0
 21 30  1  0  0  0
 21 35  1  0  0  0
 22 36  1  0  0  0
 23 50  1  0  0  0
 23 51  1  0  0  0
 24 31  1  0  0  0
 24 32  1  0  0  0
 24 52  1  0  0  0
 24 53  1  0  0  0
 25 31  1  0  0  0
 26 27  1  0  0  0
 26 54  1  0  0  0
 26 55  1  0  0  0
 27 32  1  0  0  0
 28 35  2  0  0  0
 28 34  1  0  0  0
 28 56  1  0  0  0
 29 37  2  0  0  0
 29 57  1  0  0  0
 30 58  1  0  0  0
 30 59  1  0  0  0
 31 60  1  0  0  0
 31 61  1  0  0  0
 32 62  1  0  0  0
 32 63  1  0  0  0
 33 38  2  0  0  0
 33 64  1  0  0  0
 34 65  1  0  0  0
 35 66  1  0  0  0
 36 67  1  0  0  0
 36 68  1  0  0  0
 36 69  1  0  0  0
 37 38  1  0  0  0
 37 70  1  0  0  0
 38 71  1  0  0  0
M  END
> <s_m_entry_id>
26466

> <s_m_entry_name>
dock_pv.290

> <s_m_Source_Path>
/home/csk/Desktop/cluster/DUD-E-result/reni

> <s_m_Source_File>
dock_pv.maegz

> <i_m_Source_File_Index>
290

> <chembl_id>
CHEMBL196405

> <chembl_pref_name>
None

> <i_lp_mmshare_version>
53161

> <r_lp_tautomer_probability>
1

> <s_lp_Force_Field>
OPLS_2005

> <r_lp_Energy>
58.583608

> <b_lp_Chiralities_Consistent>
1

> <s_lp_Variant>
CHEMBL286_lig1551-1

> <s_i_glide_gridfile>
glide-grid_3g6z

> <i_i_glide_lignum>
5255

> <i_i_glide_rotatable_bonds>
13

> <r_i_docking_score>
-6.86089570351772

> <r_i_glide_ligand_efficiency>
-0.180549886934677

> <r_i_glide_ligand_efficiency_sa>
-0.607004278838707

> <r_i_glide_ligand_efficiency_ln>
-1.47941094078185

> <r_i_glide_gscore>
-6.86089570351772

> <r_i_glide_lipo>
-4.03116253502984

> <r_i_glide_hbond>
-0.32

> <r_i_glide_metal>
0

> <r_i_glide_rewards>
0.011968973784468

> <r_i_glide_evdw>
-49.4562301635742

> <r_i_glide_ecoul>
-6.4066047668457

> <r_i_glide_erotb>
0.926265790837763

> <r_i_glide_esite>
-0.0141657099045426

> <r_i_glide_emodel>
-75.4940539827451

> <r_i_glide_energy>
-55.8628349304199

> <r_i_glide_einternal>
3.46578121185303

> <i_i_glide_confnum>
44

> <i_i_glide_posenum>
107

> <r_i_glide_eff_state_penalty>
0

> <s_user_duplicate_titles>
CHEMBL286_lig1551

> <i_f3d_flags>
0

> <s_m_subgroup_title>
dock_pv

> <s_m_subgroupid>
dock_pv

> <b_m_subgroup_collapsed>
1

$$$$
CHEMBL286_lig1598
                    3D
 Schrodinger Suite 2021-1.
 45 47  0  0  1  0            999 V2000
   -6.4795  -19.2794  -11.4707 C   0  0  0  0  0  0
   -5.3309  -19.5989  -12.1127 N   0  0  0  0  0  0
   -4.6352  -18.5653  -12.6320 C   0  0  0  0  0  0
   -4.9903  -17.2637  -12.5986 N   0  0  0  0  0  0
   -6.1421  -16.9655  -11.9438 C   0  0  0  0  0  0
   -6.9370  -17.9557  -11.3331 C   0  0  0  0  0  0
   -7.1872  -20.3534  -10.9395 N   0  0  0  0  0  0
   -3.4211  -18.8629  -13.2210 N   0  0  0  0  0  0
   -6.4686  -15.4737  -11.8800 C   0  0  0  0  0  0
   -7.2408  -14.9683  -13.1085 C   0  0  0  0  0  0
   -9.2108  -17.2631   -8.4109 C   0  0  0  0  0  0
   -8.0982  -17.6310   -9.1575 C   0  0  0  0  0  0
   -8.1510  -17.6143  -10.5519 C   0  0  0  0  0  0
   -9.3348  -17.2554  -11.1967 C   0  0  0  0  0  0
  -10.4474  -16.8782  -10.4508 C   0  0  0  0  0  0
  -10.3818  -16.8633   -9.0517 C   0  0  0  0  0  0
  -11.4555  -16.4860   -8.2336 N   0  0  0  0  0  0
  -13.3922  -12.2462   -7.1949 C   0  0  0  0  0  0
  -13.4689  -13.5683   -7.6217 C   0  0  0  0  0  0
  -12.3724  -14.2018   -8.2006 C   0  0  0  0  0  0
  -11.1788  -13.4865   -8.3537 C   0  0  0  0  0  0
  -11.0918  -12.1660   -7.9084 C   0  0  0  0  0  0
  -12.1997  -11.5415   -7.3374 C   0  0  0  0  0  0
  -14.4724  -11.6607   -6.6339 F   0  0  0  0  0  0
  -12.5404  -15.6308   -8.6981 C   0  0  0  0  0  0
   -9.9282  -11.4932   -8.0199 F   0  0  0  0  0  0
   -8.0875  -20.1783  -10.5204 H   0  0  0  0  0  0
   -6.8572  -21.2863  -11.1320 H   0  0  0  0  0  0
   -2.8515  -18.0851  -13.5158 H   0  0  0  0  0  0
   -3.0313  -19.7803  -13.0678 H   0  0  0  0  0  0
   -7.0309  -15.2508  -10.9732 H   0  0  0  0  0  0
   -5.5385  -14.9100  -11.7866 H   0  0  0  0  0  0
   -7.4438  -13.8998  -13.0319 H   0  0  0  0  0  0
   -6.6699  -15.1305  -14.0210 H   0  0  0  0  0  0
   -8.1969  -15.4786  -13.2215 H   0  0  0  0  0  0
   -9.1480  -17.2722   -7.3325 H   0  0  0  0  0  0
   -7.1857  -17.9130   -8.6527 H   0  0  0  0  0  0
   -9.3895  -17.2650  -12.2772 H   0  0  0  0  0  0
  -11.3451  -16.6123  -10.9848 H   0  0  0  0  0  0
  -11.2975  -16.4952   -7.2366 H   0  0  0  0  0  0
  -14.3882  -14.1151   -7.5147 H   0  0  0  0  0  0
  -10.3170  -13.9523   -8.8090 H   0  0  0  0  0  0
  -12.1343  -10.5162   -7.0043 H   0  0  0  0  0  0
  -12.6504  -15.6090   -9.7799 H   0  0  0  0  0  0
  -13.4689  -16.0556   -8.3148 H   0  0  0  0  0  0
  1  2  2  0  0  0
  1  6  1  0  0  0
  1  7  1  0  0  0
  2  3  1  0  0  0
  3  4  2  0  0  0
  3  8  1  0  0  0
  4  5  1  0  0  0
  5  6  2  0  0  0
  5  9  1  0  0  0
  6 13  1  0  0  0
  7 27  1  0  0  0
  7 28  1  0  0  0
  8 29  1  0  0  0
  8 30  1  0  0  0
  9 10  1  0  0  0
  9 31  1  0  0  0
  9 32  1  0  0  0
 10 33  1  0  0  0
 10 34  1  0  0  0
 10 35  1  0  0  0
 11 12  1  0  0  0
 11 16  2  0  0  0
 11 36  1  0  0  0
 12 13  2  0  0  0
 12 37  1  0  0  0
 13 14  1  0  0  0
 14 15  2  0  0  0
 14 38  1  0  0  0
 15 16  1  0  0  0
 15 39  1  0  0  0
 16 17  1  0  0  0
 17 25  1  0  0  0
 17 40  1  0  0  0
 18 19  1  0  0  0
 18 23  2  0  0  0
 18 24  1  0  0  0
 19 20  2  0  0  0
 19 41  1  0  0  0
 20 21  1  0  0  0
 20 25  1  0  0  0
 21 22  2  0  0  0
 21 42  1  0  0  0
 22 23  1  0  0  0
 22 26  1  0  0  0
 23 43  1  0  0  0
 25 44  1  0  0  0
 25 45  1  0  0  0
M  END
> <s_m_entry_id>
26467

> <s_m_entry_name>
dock_pv.291

> <s_m_Source_Path>
/home/csk/Desktop/cluster/DUD-E-result/reni

> <s_m_Source_File>
dock_pv.maegz

> <i_m_Source_File_Index>
291

> <chembl_id>
CHEMBL230153

> <chembl_pref_name>
None

> <i_lp_mmshare_version>
53161

> <r_lp_tautomer_probability>
0.999999624730965

> <s_lp_Force_Field>
OPLS_2005

> <r_lp_Energy>
9.304737

> <b_lp_Chiralities_Consistent>
1

> <s_lp_Variant>
CHEMBL286_lig1598-1

> <s_i_glide_gridfile>
glide-grid_3g6z

> <i_i_glide_lignum>
5302

> <i_i_glide_rotatable_bonds>
5

> <r_i_docking_score>
-6.86021933497286

> <r_i_glide_ligand_efficiency>
-0.263854589806648

> <r_i_glide_ligand_efficiency_sa>
-0.781668184084519

> <r_i_glide_ligand_efficiency_ln>
-1.61110000060272

> <r_i_glide_gscore>
-6.86021933497286

> <r_i_glide_lipo>
-3.05412130380794

> <r_i_glide_hbond>
0

> <r_i_glide_metal>
0

> <r_i_glide_rewards>
-2.33099549266421

> <r_i_glide_evdw>
-37.1791191101074

> <r_i_glide_ecoul>
-1.26224887371063

> <r_i_glide_erotb>
0.605549183733699

> <r_i_glide_esite>
-0.0323584356724476

> <r_i_glide_emodel>
-53.3662507477762

> <r_i_glide_energy>
-38.4413679838181

> <r_i_glide_einternal>
1.63464438915253

> <i_i_glide_confnum>
31

> <i_i_glide_posenum>
362

> <r_i_glide_eff_state_penalty>
0

> <s_user_duplicate_titles>
CHEMBL286_lig1598

> <i_f3d_flags>
0

> <s_m_subgroup_title>
dock_pv

> <s_m_subgroupid>
dock_pv

> <b_m_subgroup_collapsed>
1

$$$$
CHEMBL286_lig56
                    3D
 Schrodinger Suite 2021-1.
113112  0  0  1  0            999 V2000
   -5.6889  -18.8430  -12.6795 C   0  0  0  0  0  0
   -5.0972  -15.9529  -11.1383 C   0  0  0  0  0  0
   -6.2936  -17.6704  -12.4122 N   0  0  0  0  0  0
   -7.8649  -19.7554  -12.0566 N   0  0  0  0  0  0
   -8.5421  -19.7308  -10.8969 C   0  0  0  0  0  0
   -1.2331  -10.2977   -6.6570 C   0  0  0  0  0  0
   -3.8929  -15.3732  -11.2251 N   0  0  0  0  0  0
   -6.4527  -20.1127  -12.2103 C   0  0  1  0  0  0
   -5.6985  -16.3467  -12.4954 C   0  0  1  0  0  0
   -0.1083   -9.9332   -7.2965 N   0  0  0  0  0  0
   -1.4391  -11.9288   -9.3802 C   0  0  0  0  0  0
   -0.9461  -13.3220   -9.7671 C   0  0  0  0  0  0
    0.5509   -7.0991   -6.4831 C   0  0  0  0  0  0
   -2.2098  -11.8375   -8.2830 N   0  0  0  0  0  0
   -3.0712  -14.8419  -10.1427 C   0  0  2  0  0  0
    1.1965   -9.6259   -6.6922 C   0  0  1  0  0  0
    0.3819   -5.8260   -5.6335 C   0  0  0  0  0  0
   -9.9328  -19.0225  -10.8591 C   0  0  1  0  0  0
   -2.4461  -10.5896   -7.5577 C   0  0  1  0  0  0
   -1.8745  -14.0524  -10.7643 C   0  0  2  0  0  0
    1.1813   -8.3460   -5.7970 C   0  0  1  0  0  0
   -4.5860  -18.9310  -13.2203 O   0  0  0  0  0  0
   -5.7148  -16.1541  -10.0911 O   0  0  0  0  0  0
   -8.1019  -20.2610   -9.8748 O   0  0  0  0  0  0
   -1.3057  -10.4639   -5.4427 O   0  0  0  0  0  0
   -1.0681  -10.9388  -10.0185 O   0  0  0  0  0  0
    1.8761  -10.8481   -5.9907 C   0  0  0  0  0  0
   -2.7134  -15.8999   -9.0481 C   0  0  0  0  0  0
   -0.2691   -4.8664   -6.0205 O   0  0  0  0  0  0
   -6.2613  -21.3301  -13.1741 C   0  0  0  0  0  0
   -6.7301  -15.2599  -12.9471 C   0  0  0  0  0  0
  -10.1047  -18.1531  -12.0186 N   0  0  0  0  0  0
    1.0075   -5.8695   -4.4278 O   0  0  0  0  0  0
   -1.0690  -14.8634  -11.5987 O   0  0  0  0  0  0
    2.5107   -8.0189   -5.4276 O   0  0  0  0  0  0
  -11.0485  -20.1055  -10.8594 C   0  0  0  0  0  0
   -1.8173  -17.1194   -9.4076 C   0  0  0  0  0  0
    2.0456  -12.1775   -6.7826 C   0  0  0  0  0  0
   -9.9905  -18.0430   -9.6560 C   0  0  0  0  0  0
   -3.7819  -10.6769   -6.7986 C   0  0  0  0  0  0
   -6.2207  -13.8042  -12.9205 C   0  0  0  0  0  0
   -8.0530  -15.2977  -12.1709 C   0  0  0  0  0  0
   -7.2061  -22.4920  -12.8120 C   0  0  0  0  0  0
   -4.8302  -21.9177  -13.1933 C   0  0  0  0  0  0
    2.3540  -11.9874   -8.2813 C   0  0  0  0  0  0
    0.9002  -13.1783   -6.5457 C   0  0  0  0  0  0
   -2.3215  -17.9654  -10.5937 C   0  0  0  0  0  0
   -1.6523  -18.0222   -8.1693 C   0  0  0  0  0  0
  -12.4877  -19.5932  -11.0436 C   0  0  0  0  0  0
   -7.2124  -17.6963  -11.9921 H   0  0  0  0  0  0
   -8.2865  -19.2866  -12.8526 H   0  0  0  0  0  0
   -3.5003  -15.2636  -12.1535 H   0  0  0  0  0  0
   -6.0245  -20.3747  -11.2423 H   0  0  0  0  0  0
   -4.8950  -16.4228  -13.2210 H   0  0  0  0  0  0
   -0.1424   -9.9364   -8.3070 H   0  0  0  0  0  0
   -0.7500  -13.9231   -8.8810 H   0  0  0  0  0  0
    0.0402  -13.1698  -10.2083 H   0  0  0  0  0  0
    1.1309   -6.8327   -7.3674 H   0  0  0  0  0  0
   -0.4492   -7.3475   -6.8340 H   0  0  0  0  0  0
   -2.4879  -12.6797   -7.7982 H   0  0  0  0  0  0
   -3.6903  -14.0935   -9.6408 H   0  0  0  0  0  0
    1.8288   -9.3716   -7.5452 H   0  0  0  0  0  0
   -2.5437   -9.7571   -8.2564 H   0  0  0  0  0  0
   -2.2940  -13.3116  -11.4538 H   0  0  0  0  0  0
    0.6259   -8.5780   -4.8888 H   0  0  0  0  0  0
    2.8748  -10.5416   -5.6758 H   0  0  0  0  0  0
    1.3516  -11.0513   -5.0559 H   0  0  0  0  0  0
   -2.2592  -15.3821   -8.2037 H   0  0  0  0  0  0
   -3.6440  -16.2825   -8.6270 H   0  0  0  0  0  0
   -6.5073  -21.0058  -14.1856 H   0  0  0  0  0  0
   -6.9797  -15.4733  -13.9888 H   0  0  0  0  0  0
  -10.8146  -18.4740  -12.6665 H   0  0  0  0  0  0
  -10.3799  -17.2271  -11.7262 H   0  0  0  0  0  0
    0.8543   -5.0486   -3.9559 H   0  0  0  0  0  0
   -0.4484  -14.2486  -12.0204 H   0  0  0  0  0  0
    2.4719   -7.2290   -4.8793 H   0  0  0  0  0  0
  -10.9917  -20.6837   -9.9396 H   0  0  0  0  0  0
  -10.8575  -20.8397  -11.6446 H   0  0  0  0  0  0
   -0.8288  -16.7445   -9.6736 H   0  0  0  0  0  0
    2.9301  -12.6607   -6.3628 H   0  0  0  0  0  0
   -9.7597  -18.5266   -8.7103 H   0  0  0  0  0  0
   -9.2550  -17.2404   -9.7584 H   0  0  0  0  0  0
  -10.9661  -17.5688   -9.5454 H   0  0  0  0  0  0
   -3.9452   -9.7899   -6.1858 H   0  0  0  0  0  0
   -4.6207  -10.7444   -7.4922 H   0  0  0  0  0  0
   -3.8285  -11.5432   -6.1412 H   0  0  0  0  0  0
   -5.8868  -13.4830  -11.9342 H   0  0  0  0  0  0
   -5.4029  -13.6631  -13.6142 H   0  0  0  0  0  0
   -7.0042  -13.1077  -13.2209 H   0  0  0  0  0  0
   -7.9210  -15.2570  -11.0893 H   0  0  0  0  0  0
   -8.6689  -14.4515  -12.4533 H   0  0  0  0  0  0
   -8.6153  -16.1914  -12.4216 H   0  0  0  0  0  0
   -6.9902  -22.8666  -11.8130 H   0  0  0  0  0  0
   -8.2561  -22.2007  -12.8226 H   0  0  0  0  0  0
   -7.0978  -23.3224  -13.5091 H   0  0  0  0  0  0
   -4.5108  -22.1964  -12.1868 H   0  0  0  0  0  0
   -4.7891  -22.8179  -13.8092 H   0  0  0  0  0  0
   -4.0740  -21.2495  -13.5955 H   0  0  0  0  0  0
    1.5306  -11.5141   -8.8139 H   0  0  0  0  0  0
    3.2382  -11.3661   -8.4231 H   0  0  0  0  0  0
    2.5341  -12.9456   -8.7690 H   0  0  0  0  0  0
   -0.0550  -12.8009   -6.8955 H   0  0  0  0  0  0
    1.0855  -14.1213   -7.0610 H   0  0  0  0  0  0
    0.7872  -13.4068   -5.4857 H   0  0  0  0  0  0
   -3.3448  -18.3091  -10.4351 H   0  0  0  0  0  0
   -2.2961  -17.4107  -11.5308 H   0  0  0  0  0  0
   -1.6999  -18.8490  -10.7445 H   0  0  0  0  0  0
   -2.6210  -18.3649   -7.8008 H   0  0  0  0  0  0
   -1.0690  -18.9123   -8.3948 H   0  0  0  0  0  0
   -1.1555  -17.4956   -7.3537 H   0  0  0  0  0  0
  -13.2150  -20.3772  -10.8299 H   0  0  0  0  0  0
  -12.6687  -19.2390  -12.0571 H   0  0  0  0  0  0
  -12.6689  -18.7561  -10.3751 H   0  0  0  0  0  0
  1  3  1  0  0  0
  1  8  1  0  0  0
  1 22  2  0  0  0
  2  9  1  0  0  0
  2  7  1  0  0  0
  2 23  2  0  0  0
  3  9  1  0  0  0
  3 50  1  0  0  0
  4  8  1  0  0  0
  4  5  1  0  0  0
  4 51  1  0  0  0
  5 18  1  0  0  0
  5 24  2  0  0  0
  6 19  1  0  0  0
  6 10  1  0  0  0
  6 25  2  0  0  0
  7 15  1  0  0  0
  7 52  1  0  0  0
  8 30  1  0  0  0
  8 53  1  0  0  0
  9 31  1  0  0  0
  9 54  1  0  0  0
 10 16  1  0  0  0
 10 55  1  0  0  0
 11 12  1  0  0  0
 11 14  1  0  0  0
 11 26  2  0  0  0
 12 20  1  0  0  0
 12 56  1  0  0  0
 12 57  1  0  0  0
 13 21  1  0  0  0
 13 17  1  0  0  0
 13 58  1  0  0  0
 13 59  1  0  0  0
 14 19  1  0  0  0
 14 60  1  0  0  0
 15 20  1  0  0  0
 15 28  1  0  0  0
 15 61  1  0  0  0
 16 21  1  0  0  0
 16 27  1  0  0  0
 16 62  1  0  0  0
 17 29  2  0  0  0
 17 33  1  0  0  0
 18 32  1  0  0  0
 18 36  1  0  0  0
 18 39  1  0  0  0
 19 40  1  0  0  0
 19 63  1  0  0  0
 20 34  1  0  0  0
 20 64  1  0  0  0
 21 35  1  0  0  0
 21 65  1  0  0  0
 27 38  1  0  0  0
 27 66  1  0  0  0
 27 67  1  0  0  0
 28 37  1  0  0  0
 28 68  1  0  0  0
 28 69  1  0  0  0
 30 43  1  0  0  0
 30 44  1  0  0  0
 30 70  1  0  0  0
 31 41  1  0  0  0
 31 42  1  0  0  0
 31 71  1  0  0  0
 32 72  1  0  0  0
 32 73  1  0  0  0
 33 74  1  0  0  0
 34 75  1  0  0  0
 35 76  1  0  0  0
 36 49  1  0  0  0
 36 77  1  0  0  0
 36 78  1  0  0  0
 37 47  1  0  0  0
 37 48  1  0  0  0
 37 79  1  0  0  0
 38 45  1  0  0  0
 38 46  1  0  0  0
 38 80  1  0  0  0
 39 81  1  0  0  0
 39 82  1  0  0  0
 39 83  1  0  0  0
 40 84  1  0  0  0
 40 85  1  0  0  0
 40 86  1  0  0  0
 41 87  1  0  0  0
 41 88  1  0  0  0
 41 89  1  0  0  0
 42 90  1  0  0  0
 42 91  1  0  0  0
 42 92  1  0  0  0
 43 93  1  0  0  0
 43 94  1  0  0  0
 43 95  1  0  0  0
 44 96  1  0  0  0
 44 97  1  0  0  0
 44 98  1  0  0  0
 45 99  1  0  0  0
 45100  1  0  0  0
 45101  1  0  0  0
 46102  1  0  0  0
 46103  1  0  0  0
 46104  1  0  0  0
 47105  1  0  0  0
 47106  1  0  0  0
 47107  1  0  0  0
 48108  1  0  0  0
 48109  1  0  0  0
 48110  1  0  0  0
 49111  1  0  0  0
 49112  1  0  0  0
 49113  1  0  0  0
M  END
> <s_m_entry_id>
26468

> <s_m_entry_name>
dock_pv.292

> <s_m_Source_Path>
/home/csk/Desktop/cluster/DUD-E-result/reni

> <s_m_Source_File>
dock_pv.maegz

> <i_m_Source_File_Index>
292

> <chembl_id>
CHEMBL98582

> <chembl_pref_name>
None

> <i_lp_mmshare_version>
53161

> <r_lp_tautomer_probability>
1

> <s_lp_Force_Field>
OPLS_2005

> <r_lp_Energy>
26.186424

> <b_lp_Chiralities_Consistent>
1

> <s_lp_Variant>
CHEMBL286_lig56-23

> <s_i_glide_gridfile>
glide-grid_3g6z

> <i_i_glide_lignum>
85

> <i_i_glide_rotatable_bonds>
30

> <r_i_docking_score>
-6.84848242120953

> <r_i_glide_ligand_efficiency>
-0.139764947371623

> <r_i_glide_ligand_efficiency_sa>
-0.51144266931456

> <r_i_glide_ligand_efficiency_ln>
-1.39998650887782

> <r_i_glide_gscore>
-6.84848242120953

> <r_i_glide_lipo>
-1.12368031969809

> <r_i_glide_hbond>
-1.59977140555317

> <r_i_glide_metal>
0

> <r_i_glide_rewards>
-0.275629699060937

> <r_i_glide_evdw>
-46.7817153930664

> <r_i_glide_ecoul>
-14.2216806411743

> <r_i_glide_erotb>
0.784799295381519

> <r_i_glide_esite>
-0.161862426449384

> <r_i_glide_emodel>
-74.0477668770731

> <r_i_glide_energy>
-61.0033960342407

> <r_i_glide_einternal>
24.1894989013672

> <i_i_glide_confnum>
4

> <i_i_glide_posenum>
34

> <r_i_glide_eff_state_penalty>
0

> <s_user_duplicate_titles>
CHEMBL286_lig56

> <i_f3d_flags>
0

> <s_m_subgroup_title>
dock_pv

> <s_m_subgroupid>
dock_pv

> <b_m_subgroup_collapsed>
1

$$$$
CHEMBL286_lig1943
                    3D
 Schrodinger Suite 2021-1.
 85 89  0  0  1  0            999 V2000
  -10.2716  -10.7600   -7.5145 C   0  0  0  0  0  0
  -10.8892  -11.9473   -7.9144 C   0  0  0  0  0  0
  -12.2274  -12.1892   -7.5703 C   0  0  0  0  0  0
  -12.9320  -11.2424   -6.8214 C   0  0  0  0  0  0
  -12.3037  -10.0645   -6.4210 C   0  0  0  0  0  0
  -10.9795   -9.8169   -6.7701 C   0  0  0  0  0  0
  -10.3390   -8.5053   -6.3777 C   0  0  0  0  0  0
  -14.5809  -11.5134   -6.3763 Cl  0  0  0  0  0  0
   -9.9794  -13.1106   -8.8179 Cl  0  0  0  0  0  0
  -12.8550  -13.3408   -7.9673 O   0  0  0  0  0  0
  -12.7106  -14.4188   -7.0528 C   0  0  0  0  0  0
  -13.2041  -15.6956   -7.7432 C   0  0  0  0  0  0
  -12.5526  -15.9010   -8.9983 O   0  0  0  0  0  0
  -11.3565  -16.5830   -9.0590 C   0  0  0  0  0  0
  -10.5789  -16.8894   -7.9361 C   0  0  0  0  0  0
   -9.4319  -17.6629   -8.0707 C   0  0  0  0  0  0
   -9.0445  -18.1421   -9.3264 C   0  0  0  0  0  0
   -9.7821  -17.7785  -10.4578 C   0  0  0  0  0  0
  -10.9325  -17.0033  -10.3208 C   0  0  0  0  0  0
   -7.8192  -19.0609   -9.4343 C   0  0  1  0  0  0
   -8.1157  -20.3926  -10.1772 C   0  0  0  0  0  0
   -6.8667  -21.3087  -10.3032 C   0  0  0  0  0  0
   -5.6834  -20.5988  -10.8065 N   0  0  1  0  0  0
   -5.3777  -19.4397   -9.9681 C   0  0  0  0  0  0
   -6.5512  -18.4408  -10.0757 C   0  0  2  0  0  0
   -6.1585  -16.9945   -9.6665 C   0  0  0  0  0  0
   -5.4574  -16.1962  -10.5213 N   0  0  0  0  0  0
   -6.5553  -16.5726   -8.5761 O   0  0  0  0  0  0
   -5.3719  -14.7490  -10.2576 C   0  0  0  0  0  0
   -4.6228  -16.7042  -11.6282 C   0  0  0  0  0  0
   -3.1626  -17.0612  -11.3020 C   0  0  0  0  0  0
   -5.6653  -13.7343  -11.3462 C   0  0  0  0  0  0
   -6.6651  -13.9609  -10.2375 C   0  0  0  0  0  0
   -2.4575  -16.3934  -10.2912 C   0  0  0  0  0  0
   -1.1117  -16.6761  -10.0346 C   0  0  0  0  0  0
   -0.4671  -17.6678  -10.7767 C   0  0  0  0  0  0
   -1.1665  -18.3723  -11.7547 C   0  0  0  0  0  0
   -2.5052  -18.0748  -12.0198 C   0  0  0  0  0  0
   -3.3235  -19.0058  -13.2210 Cl  0  0  0  0  0  0
   -0.3660  -15.9225   -8.9388 C   0  0  0  0  0  0
    0.0438  -14.4810   -9.3154 C   0  0  0  0  0  0
   -1.1350  -13.5227   -9.5569 C   0  0  0  0  0  0
   -0.6598  -12.1885   -9.6207 O   0  0  0  0  0  0
   -1.6852  -11.2555   -9.9324 C   0  0  0  0  0  0
   -9.2434  -10.5692   -7.7862 H   0  0  0  0  0  0
  -12.8643   -9.3166   -5.8833 H   0  0  0  0  0  0
   -9.8662   -8.0630   -7.2448 H   0  0  0  0  0  0
  -11.0747   -7.7824   -6.0216 H   0  0  0  0  0  0
   -9.5743   -8.6587   -5.6211 H   0  0  0  0  0  0
  -13.2991  -14.2341   -6.1529 H   0  0  0  0  0  0
  -11.6723  -14.5272   -6.7343 H   0  0  0  0  0  0
  -14.2686  -15.5844   -7.9420 H   0  0  0  0  0  0
  -13.1296  -16.5663   -7.0897 H   0  0  0  0  0  0
  -10.8578  -16.5687   -6.9461 H   0  0  0  0  0  0
   -8.8535  -17.9074   -7.1921 H   0  0  0  0  0  0
   -9.4796  -18.1061  -11.4423 H   0  0  0  0  0  0
  -11.5158  -16.7526  -11.1944 H   0  0  0  0  0  0
   -7.5647  -19.3325   -8.4121 H   0  0  0  0  0  0
   -8.8652  -20.9568   -9.6216 H   0  0  0  0  0  0
   -8.5245  -20.2274  -11.1751 H   0  0  0  0  0  0
   -6.6338  -21.7631   -9.3384 H   0  0  0  0  0  0
   -7.0833  -22.1249  -10.9941 H   0  0  0  0  0  0
   -4.8911  -21.2268  -10.8361 H   0  0  0  0  0  0
   -4.4107  -19.0090  -10.2180 H   0  0  0  0  0  0
   -5.2805  -19.7864   -8.9371 H   0  0  0  0  0  0
   -6.8111  -18.2851  -11.1254 H   0  0  0  0  0  0
   -4.6413  -14.4856   -9.4936 H   0  0  0  0  0  0
   -4.6040  -15.9594  -12.4213 H   0  0  0  0  0  0
   -5.1058  -17.5732  -12.0671 H   0  0  0  0  0  0
   -5.0850  -12.8102  -11.3626 H   0  0  0  0  0  0
   -5.9052  -14.0858  -12.3500 H   0  0  0  0  0  0
   -7.6003  -14.4735  -10.4686 H   0  0  0  0  0  0
   -6.7836  -13.2629   -9.4140 H   0  0  0  0  0  0
   -2.9394  -15.6360   -9.6994 H   0  0  0  0  0  0
    0.5702  -17.9074  -10.5885 H   0  0  0  0  0  0
   -0.6689  -19.1550  -12.3089 H   0  0  0  0  0  0
    0.5293  -16.4845   -8.6634 H   0  0  0  0  0  0
   -0.9818  -15.9174   -8.0394 H   0  0  0  0  0  0
    0.6862  -14.4907  -10.1982 H   0  0  0  0  0  0
    0.6538  -14.0768   -8.5073 H   0  0  0  0  0  0
   -1.8592  -13.6125   -8.7457 H   0  0  0  0  0  0
   -1.6332  -13.7840  -10.4912 H   0  0  0  0  0  0
   -1.2564  -10.2557   -9.9894 H   0  0  0  0  0  0
   -2.4635  -11.2445   -9.1646 H   0  0  0  0  0  0
   -2.1443  -11.4745  -10.8971 H   0  0  0  0  0  0
  1  6  1  0  0  0
  1  2  2  0  0  0
  1 45  1  0  0  0
  2  3  1  0  0  0
  2  9  1  0  0  0
  3  4  2  0  0  0
  3 10  1  0  0  0
  4  8  1  0  0  0
  4  5  1  0  0  0
  5  6  2  0  0  0
  5 46  1  0  0  0
  6  7  1  0  0  0
  7 47  1  0  0  0
  7 48  1  0  0  0
  7 49  1  0  0  0
 10 11  1  0  0  0
 11 12  1  0  0  0
 11 50  1  0  0  0
 11 51  1  0  0  0
 12 13  1  0  0  0
 12 52  1  0  0  0
 12 53  1  0  0  0
 13 14  1  0  0  0
 14 15  2  0  0  0
 14 19  1  0  0  0
 15 16  1  0  0  0
 15 54  1  0  0  0
 16 17  2  0  0  0
 16 55  1  0  0  0
 17 18  1  0  0  0
 17 20  1  0  0  0
 18 19  2  0  0  0
 18 56  1  0  0  0
 19 57  1  0  0  0
 20 25  1  0  0  0
 20 21  1  0  0  0
 20 58  1  0  0  0
 21 22  1  0  0  0
 21 59  1  0  0  0
 21 60  1  0  0  0
 22 23  1  0  0  0
 22 61  1  0  0  0
 22 62  1  0  0  0
 23 24  1  0  0  0
 23 63  1  0  0  0
 24 25  1  0  0  0
 24 64  1  0  0  0
 24 65  1  0  0  0
 25 26  1  0  0  0
 25 66  1  0  0  0
 26 27  1  0  0  0
 26 28  2  0  0  0
 27 29  1  0  0  0
 27 30  1  0  0  0
 29 32  1  0  0  0
 29 33  1  0  0  0
 29 67  1  0  0  0
 30 31  1  0  0  0
 30 68  1  0  0  0
 30 69  1  0  0  0
 31 34  2  0  0  0
 31 38  1  0  0  0
 32 33  1  0  0  0
 32 70  1  0  0  0
 32 71  1  0  0  0
 33 72  1  0  0  0
 33 73  1  0  0  0
 34 35  1  0  0  0
 34 74  1  0  0  0
 35 36  2  0  0  0
 35 40  1  0  0  0
 36 37  1  0  0  0
 36 75  1  0  0  0
 37 38  2  0  0  0
 37 76  1  0  0  0
 38 39  1  0  0  0
 40 41  1  0  0  0
 40 77  1  0  0  0
 40 78  1  0  0  0
 41 42  1  0  0  0
 41 79  1  0  0  0
 41 80  1  0  0  0
 42 43  1  0  0  0
 42 81  1  0  0  0
 42 82  1  0  0  0
 43 44  1  0  0  0
 44 83  1  0  0  0
 44 84  1  0  0  0
 44 85  1  0  0  0
M  END
> <s_m_entry_id>
26469

> <s_m_entry_name>
dock_pv.293

> <s_m_Source_Path>
/home/csk/Desktop/cluster/DUD-E-result/reni

> <s_m_Source_File>
dock_pv.maegz

> <i_m_Source_File_Index>
293

> <chembl_id>
CHEMBL1269671

> <chembl_pref_name>
None

> <i_lp_mmshare_version>
53161

> <r_lp_tautomer_probability>
1

> <s_lp_Force_Field>
OPLS_2005

> <r_lp_Energy>
64.971029

> <b_lp_Chiralities_Consistent>
1

> <s_lp_Variant>
CHEMBL286_lig1943-1

> <s_i_glide_gridfile>
glide-grid_3g6z

> <i_i_glide_lignum>
5732

> <i_i_glide_rotatable_bonds>
15

> <r_i_docking_score>
-6.83834036731398

> <r_i_glide_ligand_efficiency>
-0.155416826529863

> <r_i_glide_ligand_efficiency_sa>
-0.548675534129265

> <r_i_glide_ligand_efficiency_ln>
-1.42936231432644

> <r_i_glide_gscore>
-6.83834036731398

> <r_i_glide_lipo>
-4.77217849523479

> <r_i_glide_hbond>
0

> <r_i_glide_metal>
0

> <r_i_glide_rewards>
0.43707156114075

> <r_i_glide_evdw>
-54.2828369140625

> <r_i_glide_ecoul>
-2.10955190658569

> <r_i_glide_erotb>
0.527341198471041

> <r_i_glide_esite>
0

> <r_i_glide_emodel>
-75.0639692642845

> <r_i_glide_energy>
-56.3923888206482

> <r_i_glide_einternal>
7.17647790908813

> <i_i_glide_confnum>
17

> <i_i_glide_posenum>
108

> <r_i_glide_eff_state_penalty>
0

> <s_user_duplicate_titles>
CHEMBL286_lig1943

> <i_f3d_flags>
0

> <s_m_subgroup_title>
dock_pv

> <s_m_subgroupid>
dock_pv

> <b_m_subgroup_collapsed>
1

$$$$
CHEMBL286_lig2809
                    3D
 Schrodinger Suite 2021-1.
 49 51  0  0  1  0            999 V2000
   -4.4567  -13.2644  -10.4018 C   0  0  0  0  0  0
   -5.2371  -13.6984  -11.4646 C   0  0  0  0  0  0
   -6.4891  -14.2658  -11.2008 C   0  0  0  0  0  0
   -6.9382  -14.3824   -9.8640 C   0  0  0  0  0  0
   -6.0691  -13.9155   -8.8528 C   0  0  0  0  0  0
   -4.8554  -13.3649   -9.1153 N   0  0  0  0  0  0
   -3.2109  -12.6998  -10.6385 N   0  0  0  0  0  0
   -7.3297  -14.7297  -12.3855 C   0  0  0  0  0  0
   -6.3786  -14.0352   -7.3630 C   0  0  0  0  0  0
   -6.0556  -15.4290   -6.8100 C   0  0  0  0  0  0
   -9.4995  -12.9953   -8.6279 N   0  0  0  0  0  0
  -10.7950  -12.7052   -8.2768 C   0  0  0  0  0  0
  -11.5335  -13.8785   -8.3432 C   0  0  0  0  0  0
  -10.6392  -14.9055   -8.8210 C   0  0  0  0  0  0
  -10.7895  -16.2737   -9.1022 C   0  0  0  0  0  0
   -9.7001  -16.9910   -9.5884 C   0  0  0  0  0  0
   -8.4762  -16.3721   -9.8075 C   0  0  0  0  0  0
   -8.2571  -15.0138   -9.5475 C   0  0  0  0  0  0
   -9.3571  -14.3062   -9.0228 C   0  0  0  0  0  0
  -12.9951  -14.0661   -8.0054 C   0  0  0  0  0  0
  -11.1978  -11.2821   -7.9242 C   0  0  0  0  0  0
  -10.7616  -10.8625   -6.5090 C   0  0  0  0  0  0
  -11.3801   -9.6540   -6.0858 O   0  0  0  0  0  0
  -10.9219   -8.4709   -6.7276 C   0  0  0  0  0  0
   -9.8284  -18.3074   -9.8658 F   0  0  0  0  0  0
  -11.9820  -16.8848   -8.9141 F   0  0  0  0  0  0
   -4.8771  -13.6093  -12.4775 H   0  0  0  0  0  0
   -2.8429  -12.6840  -11.5785 H   0  0  0  0  0  0
   -2.6435  -12.4459   -9.8438 H   0  0  0  0  0  0
   -6.8808  -14.4665  -13.3444 H   0  0  0  0  0  0
   -7.4691  -15.8101  -12.3645 H   0  0  0  0  0  0
   -8.3133  -14.2677  -12.3495 H   0  0  0  0  0  0
   -5.8179  -13.2858   -6.8030 H   0  0  0  0  0  0
   -7.4227  -13.7915   -7.1898 H   0  0  0  0  0  0
   -6.2696  -15.4903   -5.7427 H   0  0  0  0  0  0
   -6.6424  -16.2043   -7.3068 H   0  0  0  0  0  0
   -4.9990  -15.6635   -6.9459 H   0  0  0  0  0  0
   -8.7790  -12.2870   -8.6453 H   0  0  0  0  0  0
   -7.6648  -16.9672  -10.2050 H   0  0  0  0  0  0
  -13.4697  -14.7581   -8.7028 H   0  0  0  0  0  0
  -13.1299  -14.4746   -7.0019 H   0  0  0  0  0  0
  -13.5590  -13.1317   -8.0515 H   0  0  0  0  0  0
  -12.2800  -11.1614   -8.0077 H   0  0  0  0  0  0
  -10.7705  -10.5988   -8.6607 H   0  0  0  0  0  0
   -9.6762  -10.7864   -6.4322 H   0  0  0  0  0  0
  -11.0688  -11.6338   -5.7995 H   0  0  0  0  0  0
  -11.4984   -7.6230   -6.3574 H   0  0  0  0  0  0
  -11.0629   -8.5072   -7.8073 H   0  0  0  0  0  0
   -9.8689   -8.2894   -6.5164 H   0  0  0  0  0  0
  1  2  1  0  0  0
  1  6  2  0  0  0
  1  7  1  0  0  0
  2  3  2  0  0  0
  2 27  1  0  0  0
  3  4  1  0  0  0
  3  8  1  0  0  0
  4  5  2  0  0  0
  4 18  1  0  0  0
  5  6  1  0  0  0
  5  9  1  0  0  0
  7 28  1  0  0  0
  7 29  1  0  0  0
  8 30  1  0  0  0
  8 31  1  0  0  0
  8 32  1  0  0  0
  9 10  1  0  0  0
  9 33  1  0  0  0
  9 34  1  0  0  0
 10 35  1  0  0  0
 10 36  1  0  0  0
 10 37  1  0  0  0
 11 12  1  0  0  0
 11 19  1  0  0  0
 11 38  1  0  0  0
 12 13  2  0  0  0
 12 21  1  0  0  0
 13 14  1  0  0  0
 13 20  1  0  0  0
 14 15  1  0  0  0
 14 19  2  0  0  0
 15 16  2  0  0  0
 15 26  1  0  0  0
 16 17  1  0  0  0
 16 25  1  0  0  0
 17 18  2  0  0  0
 17 39  1  0  0  0
 18 19  1  0  0  0
 20 40  1  0  0  0
 20 41  1  0  0  0
 20 42  1  0  0  0
 21 22  1  0  0  0
 21 43  1  0  0  0
 21 44  1  0  0  0
 22 23  1  0  0  0
 22 45  1  0  0  0
 22 46  1  0  0  0
 23 24  1  0  0  0
 24 47  1  0  0  0
 24 48  1  0  0  0
 24 49  1  0  0  0
M  END
> <s_m_entry_id>
26471

> <s_m_entry_name>
dock_pv.295

> <s_m_Source_Path>
/home/csk/Desktop/cluster/DUD-E-result/reni

> <s_m_Source_File>
dock_pv.maegz

> <i_m_Source_File_Index>
295

> <chembl_id>
CHEMBL4083180

> <chembl_pref_name>
None

> <i_lp_mmshare_version>
53161

> <r_lp_tautomer_probability>
0.999999772200052

> <s_lp_Force_Field>
OPLS_2005

> <r_lp_Energy>
9.130032

> <b_lp_Chiralities_Consistent>
1

> <s_lp_Variant>
CHEMBL286_lig2809-1

> <s_i_glide_gridfile>
glide-grid_3g6z

> <i_i_glide_lignum>
6907

> <i_i_glide_rotatable_bonds>
5

> <r_i_docking_score>
-6.83584094491211

> <r_i_glide_ligand_efficiency>
-0.262916959419696

> <r_i_glide_ligand_efficiency_sa>
-0.778890457752571

> <r_i_glide_ligand_efficiency_ln>
-1.60537481568898

> <r_i_glide_gscore>
-6.83584094491211

> <r_i_glide_lipo>
-3.39700796099232

> <r_i_glide_hbond>
0

> <r_i_glide_metal>
0

> <r_i_glide_rewards>
-2.0598880252432

> <r_i_glide_evdw>
-33.2724151611328

> <r_i_glide_ecoul>
-1.06971907615662

> <r_i_glide_erotb>
0.445133660803547

> <r_i_glide_esite>
0

> <r_i_glide_emodel>
-47.0344696950804

> <r_i_glide_energy>
-34.3421342372894

> <r_i_glide_einternal>
3.04428315162659

> <i_i_glide_confnum>
5

> <i_i_glide_posenum>
189

> <r_i_glide_eff_state_penalty>
0

> <s_user_duplicate_titles>
CHEMBL286_lig2809

> <i_f3d_flags>
0

> <s_m_subgroup_title>
dock_pv

> <s_m_subgroupid>
dock_pv

> <b_m_subgroup_collapsed>
1

$$$$
CHEMBL286_lig2104
                    3D
 Schrodinger Suite 2021-1.
 71 75  0  0  1  0            999 V2000
   -7.4220  -20.0950  -11.8989 C   0  0  0  0  0  0
   -6.0862  -20.8077  -12.1610 C   0  0  0  0  0  0
   -5.0491  -19.8712  -12.6022 N   0  0  1  0  0  0
   -4.8942  -18.6627  -11.7782 C   0  0  0  0  0  0
   -6.2345  -17.9542  -11.4023 C   0  0  1  0  0  0
   -7.2470  -18.9927  -10.8314 C   0  0  1  0  0  0
   -5.9347  -16.8699  -10.3234 C   0  0  0  0  0  0
   -6.5303  -15.6451  -10.3874 N   0  0  0  0  0  0
   -5.1809  -17.1719   -9.3919 O   0  0  0  0  0  0
   -7.4465  -15.2229  -11.4633 C   0  0  0  0  0  0
   -6.3688  -14.6804   -9.2806 C   0  0  0  0  0  0
   -7.3454  -13.8423  -12.0900 C   0  0  0  0  0  0
   -6.9177  -15.0476  -12.8761 C   0  0  0  0  0  0
   -5.1805  -13.7478   -9.4604 C   0  0  0  0  0  0
   -8.5823  -18.3911  -10.3639 C   0  0  0  0  0  0
   -9.6228  -18.1521  -11.2106 C   0  0  0  0  0  0
  -10.8937  -17.5516  -10.8156 C   0  0  0  0  0  0
  -10.8943  -16.9744   -9.5596 N   0  0  0  0  0  0
   -9.8695  -17.2424   -8.6776 C   0  0  0  0  0  0
   -8.7562  -17.9386   -8.9837 C   0  0  0  0  0  0
  -11.8704  -17.6273  -11.5592 O   0  0  0  0  0  0
  -12.0988  -16.2469   -9.1456 C   0  0  0  0  0  0
   -4.2497  -13.7378  -10.4798 C   0  0  0  0  0  0
   -3.4000  -12.6640  -10.3728 N   0  0  0  0  0  0
   -4.7971  -12.6574   -8.6003 C   0  0  0  0  0  0
   -3.6541  -12.0230   -9.1817 C   0  0  0  0  0  0
   -3.0087  -10.9331   -8.5835 C   0  0  0  0  0  0
   -3.5644  -10.4355   -7.4106 C   0  0  0  0  0  0
   -4.7054  -11.0004   -6.8606 C   0  0  0  0  0  0
   -5.3205  -12.1187   -7.4137 C   0  0  0  0  0  0
   -2.3292  -12.3072  -11.2959 C   0  0  0  0  0  0
   -2.6700  -12.6220  -12.7587 C   0  0  0  0  0  0
   -3.9991  -12.0622  -13.3209 C   0  0  0  0  0  0
   -3.8752  -11.2627  -14.4952 O   0  0  0  0  0  0
   -3.2090  -11.8213  -15.6231 C   0  0  0  0  0  0
   -6.4265  -12.6401   -6.8359 F   0  0  0  0  0  0
   -8.1590  -20.8294  -11.5699 H   0  0  0  0  0  0
   -7.7750  -19.6920  -12.8502 H   0  0  0  0  0  0
   -5.7353  -21.3064  -11.2569 H   0  0  0  0  0  0
   -6.2152  -21.5773  -12.9245 H   0  0  0  0  0  0
   -4.1613  -20.3534  -12.6482 H   0  0  0  0  0  0
   -4.2183  -17.9687  -12.2836 H   0  0  0  0  0  0
   -4.3874  -19.0193  -10.8763 H   0  0  0  0  0  0
   -6.6396  -17.4996  -12.2994 H   0  0  0  0  0  0
   -6.7982  -19.4725   -9.9594 H   0  0  0  0  0  0
   -8.4505  -15.6329  -11.3483 H   0  0  0  0  0  0
   -6.2708  -15.2100   -8.3317 H   0  0  0  0  0  0
   -7.2933  -14.1143   -9.1665 H   0  0  0  0  0  0
   -8.2673  -13.3432  -12.3712 H   0  0  0  0  0  0
   -6.5931  -13.1410  -11.7433 H   0  0  0  0  0  0
   -5.8573  -15.2132  -13.0646 H   0  0  0  0  0  0
   -7.5389  -15.4008  -13.6974 H   0  0  0  0  0  0
   -9.5343  -18.4105  -12.2543 H   0  0  0  0  0  0
  -10.0901  -16.8970   -7.6756 H   0  0  0  0  0  0
   -8.0094  -18.1555   -8.2313 H   0  0  0  0  0  0
  -11.8269  -15.3938   -8.5170 H   0  0  0  0  0  0
  -12.6670  -15.8563   -9.9923 H   0  0  0  0  0  0
  -12.7547  -16.8989   -8.5676 H   0  0  0  0  0  0
   -4.1743  -14.4001  -11.3309 H   0  0  0  0  0  0
   -2.1308  -10.4814   -9.0203 H   0  0  0  0  0  0
   -3.1163   -9.5797   -6.9296 H   0  0  0  0  0  0
   -5.1545  -10.5342   -6.0087 H   0  0  0  0  0  0
   -2.1156  -11.2464  -11.1956 H   0  0  0  0  0  0
   -1.4461  -12.8567  -10.9733 H   0  0  0  0  0  0
   -1.8676  -12.3027  -13.3985 H   0  0  0  0  0  0
   -2.6452  -13.6970  -12.8211 H   0  0  0  0  0  0
   -4.6965  -12.8728  -13.5265 H   0  0  0  0  0  0
   -4.4890  -11.4333  -12.5758 H   0  0  0  0  0  0
   -3.4895  -11.2661  -16.5190 H   0  0  0  0  0  0
   -2.1268  -11.7443  -15.5224 H   0  0  0  0  0  0
   -3.4627  -12.8631  -15.7908 H   0  0  0  0  0  0
  1  6  1  0  0  0
  1  2  1  0  0  0
  1 37  1  0  0  0
  1 38  1  0  0  0
  2  3  1  0  0  0
  2 39  1  0  0  0
  2 40  1  0  0  0
  3  4  1  0  0  0
  3 41  1  0  0  0
  4  5  1  0  0  0
  4 42  1  0  0  0
  4 43  1  0  0  0
  5  6  1  0  0  0
  5  7  1  0  0  0
  5 44  1  0  0  0
  6 15  1  0  0  0
  6 45  1  0  0  0
  7  9  2  0  0  0
  7  8  1  0  0  0
  8 10  1  0  0  0
  8 11  1  0  0  0
 10 12  1  0  0  0
 10 13  1  0  0  0
 10 46  1  0  0  0
 11 14  1  0  0  0
 11 47  1  0  0  0
 11 48  1  0  0  0
 12 13  1  0  0  0
 12 49  1  0  0  0
 12 50  1  0  0  0
 13 51  1  0  0  0
 13 52  1  0  0  0
 14 23  2  0  0  0
 14 25  1  0  0  0
 15 20  1  0  0  0
 15 16  2  0  0  0
 16 17  1  0  0  0
 16 53  1  0  0  0
 17 18  1  0  0  0
 17 21  2  0  0  0
 18 19  1  0  0  0
 18 22  1  0  0  0
 19 20  2  0  0  0
 19 54  1  0  0  0
 20 55  1  0  0  0
 22 56  1  0  0  0
 22 57  1  0  0  0
 22 58  1  0  0  0
 23 24  1  0  0  0
 23 59  1  0  0  0
 24 26  1  0  0  0
 24 31  1  0  0  0
 25 26  2  0  0  0
 25 30  1  0  0  0
 26 27  1  0  0  0
 27 28  2  0  0  0
 27 60  1  0  0  0
 28 29  1  0  0  0
 28 61  1  0  0  0
 29 30  2  0  0  0
 29 62  1  0  0  0
 30 36  1  0  0  0
 31 32  1  0  0  0
 31 63  1  0  0  0
 31 64  1  0  0  0
 32 33  1  0  0  0
 32 65  1  0  0  0
 32 66  1  0  0  0
 33 34  1  0  0  0
 33 67  1  0  0  0
 33 68  1  0  0  0
 34 35  1  0  0  0
 35 69  1  0  0  0
 35 70  1  0  0  0
 35 71  1  0  0  0
M  END
> <s_m_entry_id>
26472

> <s_m_entry_name>
dock_pv.296

> <s_m_Source_Path>
/home/csk/Desktop/cluster/DUD-E-result/reni

> <s_m_Source_File>
dock_pv.maegz

> <i_m_Source_File_Index>
296

> <chembl_id>
CHEMBL1796069

> <chembl_pref_name>
None

> <i_lp_mmshare_version>
53161

> <r_lp_tautomer_probability>
1

> <s_lp_Force_Field>
OPLS_2005

> <r_lp_Energy>
65.633248

> <b_lp_Chiralities_Consistent>
1

> <s_lp_Variant>
CHEMBL286_lig2104-1

> <s_i_glide_gridfile>
glide-grid_3g6z

> <i_i_glide_lignum>
6090

> <i_i_glide_rotatable_bonds>
10

> <r_i_docking_score>
-6.83354380953832

> <r_i_glide_ligand_efficiency>
-0.189820661376065

> <r_i_glide_ligand_efficiency_sa>
-0.626774013452142

> <r_i_glide_ligand_efficiency_ln>
-1.49089463822312

> <r_i_glide_gscore>
-6.83354380953832

> <r_i_glide_lipo>
-3.50670846425936

> <r_i_glide_hbond>
0

> <r_i_glide_metal>
0

> <r_i_glide_rewards>
-1.04595794148266

> <r_i_glide_evdw>
-47.0644187927246

> <r_i_glide_ecoul>
-4.5161771774292

> <r_i_glide_erotb>
0.74977011245431

> <r_i_glide_esite>
0

> <r_i_glide_emodel>
-64.4261035805591

> <r_i_glide_energy>
-51.5805959701538

> <r_i_glide_einternal>
9.88857936859131

> <i_i_glide_confnum>
112

> <i_i_glide_posenum>
301

> <r_i_glide_eff_state_penalty>
0

> <s_user_duplicate_titles>
CHEMBL286_lig2104

> <i_f3d_flags>
0

> <s_m_subgroup_title>
dock_pv

> <s_m_subgroupid>
dock_pv

> <b_m_subgroup_collapsed>
1

$$$$
CHEMBL286_lig2551
                    3D
 Schrodinger Suite 2021-1.
 72 74  0  0  1  0            999 V2000
  -12.7913  -14.4038   -7.1587 C   0  0  0  0  0  0
  -13.2886  -15.6693   -7.4453 C   0  0  0  0  0  0
  -12.6687  -16.4633   -8.4001 C   0  0  0  0  0  0
  -11.5317  -16.0220   -9.0743 C   0  0  0  0  0  0
  -11.0158  -14.7576   -8.7729 C   0  0  0  0  0  0
  -11.6365  -13.9406   -7.8074 C   0  0  0  0  0  0
  -13.4687  -13.6661   -6.2181 O   0  0  0  0  0  0
  -13.8721  -12.3489   -6.5919 C   0  0  0  0  0  0
  -11.1765  -12.6961   -7.4339 O   0  0  0  0  0  0
  -10.2177  -12.0337   -8.2303 C   0  0  0  0  0  0
   -9.8453  -10.7140   -7.5301 C   0  0  0  0  0  0
  -10.8709   -9.6227   -7.8284 C   0  0  0  0  0  0
  -10.8045   -8.5298   -6.9174 O   0  0  0  0  0  0
  -11.6207   -8.6724   -5.7672 C   0  0  0  0  0  0
  -11.0087  -16.8641  -10.2064 C   0  0  0  0  0  0
   -9.9384  -17.6912  -10.0206 N   0  0  0  0  0  0
  -11.6913  -16.8732  -11.2247 O   0  0  0  0  0  0
   -9.7503  -18.9083  -10.8835 C   0  0  0  0  0  0
  -11.0390  -19.7086  -11.2209 C   0  0  0  0  0  0
   -8.6498  -19.9031  -10.4399 C   0  0  0  0  0  0
   -8.8301  -17.2999   -9.1164 C   0  0  0  0  0  0
   -7.7569  -16.3182   -9.6927 C   0  0  1  0  0  0
   -6.4621  -16.3330   -8.8591 C   0  0  1  0  0  0
   -5.6843  -17.4543   -9.5629 C   0  0  0  0  0  0
   -5.9817  -17.3693  -10.9878 N   0  0  2  0  0  0
   -7.2147  -16.5978  -11.1096 C   0  0  0  0  0  0
   -5.6723  -15.0952   -8.9102 N   0  0  0  0  0  0
   -6.0433  -13.9116   -8.3957 C   0  0  0  0  0  0
   -4.9843  -12.8392   -8.3180 C   0  0  0  0  0  0
   -7.1707  -13.7091   -7.9539 O   0  0  0  0  0  0
   -5.0681  -11.8636   -7.3136 C   0  0  0  0  0  0
   -4.1047  -10.8644   -7.2164 C   0  0  0  0  0  0
   -3.0534  -10.8349   -8.1272 C   0  0  0  0  0  0
   -2.9611  -11.7865   -9.1391 C   0  0  0  0  0  0
   -3.9241  -12.7878   -9.2369 C   0  0  0  0  0  0
  -14.1785  -16.0268   -6.9469 H   0  0  0  0  0  0
  -13.1061  -17.4212   -8.6427 H   0  0  0  0  0  0
  -10.1450  -14.4048   -9.2987 H   0  0  0  0  0  0
  -14.7188  -12.0494   -5.9755 H   0  0  0  0  0  0
  -13.0847  -11.6196   -6.4093 H   0  0  0  0  0  0
  -14.1811  -12.2802   -7.6370 H   0  0  0  0  0  0
  -10.6688  -11.8550   -9.2140 H   0  0  0  0  0  0
   -9.3248  -12.6381   -8.3563 H   0  0  0  0  0  0
   -8.8602  -10.3772   -7.8525 H   0  0  0  0  0  0
   -9.7698  -10.8628   -6.4535 H   0  0  0  0  0  0
  -11.8686  -10.0633   -7.8785 H   0  0  0  0  0  0
  -10.6694   -9.2236   -8.8211 H   0  0  0  0  0  0
  -11.8357   -7.6897   -5.3494 H   0  0  0  0  0  0
  -11.1105   -9.2689   -5.0117 H   0  0  0  0  0  0
  -12.5872   -9.1240   -5.9944 H   0  0  0  0  0  0
   -9.4126  -18.5192  -11.8456 H   0  0  0  0  0  0
  -10.8131  -20.6957  -11.6234 H   0  0  0  0  0  0
  -11.6731  -19.8566  -10.3518 H   0  0  0  0  0  0
  -11.6274  -19.2147  -11.9922 H   0  0  0  0  0  0
   -8.6209  -20.7760  -11.0911 H   0  0  0  0  0  0
   -7.6553  -19.4695  -10.5045 H   0  0  0  0  0  0
   -8.8235  -20.2774   -9.4302 H   0  0  0  0  0  0
   -9.2371  -16.8538   -8.2072 H   0  0  0  0  0  0
   -8.3289  -18.1930   -8.7482 H   0  0  0  0  0  0
   -8.2148  -15.3320   -9.6968 H   0  0  0  0  0  0
   -6.6404  -16.5993   -7.8143 H   0  0  0  0  0  0
   -4.6178  -17.4565   -9.3301 H   0  0  0  0  0  0
   -6.0591  -18.4198   -9.2213 H   0  0  0  0  0  0
   -6.0890  -18.2823  -11.4079 H   0  0  0  0  0  0
   -7.9353  -17.0841  -11.7650 H   0  0  0  0  0  0
   -6.9729  -15.6520  -11.5997 H   0  0  0  0  0  0
   -4.7547  -15.1738   -9.3189 H   0  0  0  0  0  0
   -5.8779  -11.8777   -6.5965 H   0  0  0  0  0  0
   -4.1726  -10.1196   -6.4359 H   0  0  0  0  0  0
   -2.3052  -10.0598   -8.0518 H   0  0  0  0  0  0
   -2.1476  -11.7494   -9.8490 H   0  0  0  0  0  0
   -3.8393  -13.5094  -10.0380 H   0  0  0  0  0  0
  1  2  2  0  0  0
  1  6  1  0  0  0
  1  7  1  0  0  0
  2  3  1  0  0  0
  2 36  1  0  0  0
  3  4  2  0  0  0
  3 37  1  0  0  0
  4  5  1  0  0  0
  4 15  1  0  0  0
  5  6  2  0  0  0
  5 38  1  0  0  0
  6  9  1  0  0  0
  7  8  1  0  0  0
  8 39  1  0  0  0
  8 40  1  0  0  0
  8 41  1  0  0  0
  9 10  1  0  0  0
 10 11  1  0  0  0
 10 42  1  0  0  0
 10 43  1  0  0  0
 11 12  1  0  0  0
 11 44  1  0  0  0
 11 45  1  0  0  0
 12 13  1  0  0  0
 12 46  1  0  0  0
 12 47  1  0  0  0
 13 14  1  0  0  0
 14 48  1  0  0  0
 14 49  1  0  0  0
 14 50  1  0  0  0
 15 16  1  0  0  0
 15 17  2  0  0  0
 16 18  1  0  0  0
 16 21  1  0  0  0
 18 19  1  0  0  0
 18 20  1  0  0  0
 18 51  1  0  0  0
 19 52  1  0  0  0
 19 53  1  0  0  0
 19 54  1  0  0  0
 20 55  1  0  0  0
 20 56  1  0  0  0
 20 57  1  0  0  0
 21 22  1  0  0  0
 21 58  1  0  0  0
 21 59  1  0  0  0
 22 23  1  0  0  0
 22 26  1  0  0  0
 22 60  1  0  0  0
 23 24  1  0  0  0
 23 27  1  0  0  0
 23 61  1  0  0  0
 24 25  1  0  0  0
 24 62  1  0  0  0
 24 63  1  0  0  0
 25 26  1  0  0  0
 25 64  1  0  0  0
 26 65  1  0  0  0
 26 66  1  0  0  0
 27 28  1  0  0  0
 27 67  1  0  0  0
 28 29  1  0  0  0
 28 30  2  0  0  0
 29 31  2  0  0  0
 29 35  1  0  0  0
 31 32  1  0  0  0
 31 68  1  0  0  0
 32 33  2  0  0  0
 32 69  1  0  0  0
 33 34  1  0  0  0
 33 70  1  0  0  0
 34 35  2  0  0  0
 34 71  1  0  0  0
 35 72  1  0  0  0
M  END
> <s_m_entry_id>
26473

> <s_m_entry_name>
dock_pv.297

> <s_m_Source_Path>
/home/csk/Desktop/cluster/DUD-E-result/reni

> <s_m_Source_File>
dock_pv.maegz

> <i_m_Source_File_Index>
297

> <chembl_id>
CHEMBL3400441

> <chembl_pref_name>
None

> <i_lp_mmshare_version>
53161

> <r_lp_tautomer_probability>
1

> <s_lp_Force_Field>
OPLS_2005

> <r_lp_Energy>
65.285885

> <b_lp_Chiralities_Consistent>
1

> <s_lp_Variant>
CHEMBL286_lig2551-1

> <s_i_glide_gridfile>
glide-grid_3g6z

> <i_i_glide_lignum>
6615

> <i_i_glide_rotatable_bonds>
14

> <r_i_docking_score>
-6.82932330587881

> <r_i_glide_ligand_efficiency>
-0.195123523025109

> <r_i_glide_ligand_efficiency_sa>
-0.638261981736327

> <r_i_glide_ligand_efficiency_ln>
-1.49918803430487

> <r_i_glide_gscore>
-6.82932330587881

> <r_i_glide_lipo>
-4.6472813616868

> <r_i_glide_hbond>
0

> <r_i_glide_metal>
0

> <r_i_glide_rewards>
-0.941867876704524

> <r_i_glide_evdw>
-49.2553405761719

> <r_i_glide_ecoul>
1.78462469577789

> <r_i_glide_erotb>
0.954899256954427

> <r_i_glide_esite>
0

> <r_i_glide_emodel>
-54.0325687647603

> <r_i_glide_energy>
-47.470715880394

> <r_i_glide_einternal>
21.2259483337402

> <i_i_glide_confnum>
45

> <i_i_glide_posenum>
385

> <r_i_glide_eff_state_penalty>
0

> <s_user_duplicate_titles>
CHEMBL286_lig2551

> <i_f3d_flags>
0

> <s_m_subgroup_title>
dock_pv

> <s_m_subgroupid>
dock_pv

> <b_m_subgroup_collapsed>
1

$$$$
CHEMBL286_lig2001
                    3D
 Schrodinger Suite 2021-1.
 60 64  0  0  1  0            999 V2000
   -9.9949  -20.1393  -11.1413 C   0  0  0  0  0  0
  -11.2110  -19.5016  -10.9258 C   0  0  0  0  0  0
  -11.3032  -18.2067  -10.4210 C   0  0  0  0  0  0
   -8.8022  -19.4540  -10.8831 C   0  0  0  0  0  0
   -9.8717  -16.3414   -9.4416 N   0  0  0  0  0  0
   -8.5021  -16.0957   -9.4804 C   0  0  0  0  0  0
   -7.8222  -17.1986  -10.0313 C   0  0  0  0  0  0
   -8.8416  -18.1483  -10.3660 C   0  0  0  0  0  0
  -10.1068  -17.5567  -10.0821 C   0  0  0  0  0  0
  -10.8592  -15.5321   -8.7981 C   0  0  0  0  0  0
  -11.9346  -16.1412   -8.1341 C   0  0  0  0  0  0
  -12.9203  -15.3732   -7.5206 C   0  0  0  0  0  0
  -12.8320  -13.9849   -7.5537 C   0  0  0  0  0  0
  -11.7691  -13.3620   -8.1995 C   0  0  0  0  0  0
  -10.7890  -14.1319   -8.8208 C   0  0  0  0  0  0
   -6.3907  -17.3152  -10.1763 C   0  0  0  0  0  0
   -5.8505  -17.4078  -11.4227 N   0  0  0  0  0  0
   -5.7022  -17.2637   -9.1618 O   0  0  0  0  0  0
   -6.6165  -17.5289  -12.6782 C   0  0  0  0  0  0
   -6.1155  -18.7823  -13.4350 C   0  0  0  0  0  0
   -4.6693  -18.7632  -13.6210 N   0  0  0  0  0  0
   -3.9136  -18.6038  -12.3856 C   0  0  0  0  0  0
   -4.3788  -17.3797  -11.5679 C   0  0  0  0  0  0
   -8.0296  -14.8851   -9.0102 O   0  0  0  0  0  0
   -6.7779  -14.4131   -9.3293 C   0  0  0  0  0  0
   -5.8470  -14.2829   -8.2969 C   0  0  0  0  0  0
   -4.5458  -13.8667   -8.5692 C   0  0  0  0  0  0
   -4.1704  -13.5666   -9.8773 C   0  0  0  0  0  0
   -5.1014  -13.6621  -10.9114 C   0  0  0  0  0  0
   -6.4159  -14.0628  -10.6442 C   0  0  0  0  0  0
   -7.4372  -14.0675  -11.7743 C   0  0  0  0  0  0
   -3.6482  -13.7570   -7.5642 F   0  0  0  0  0  0
  -10.0596  -21.4323  -11.6211 O   0  0  0  0  0  0
   -8.8586  -22.0857  -12.0200 C   0  0  0  0  0  0
  -12.1189  -20.0385  -11.1569 H   0  0  0  0  0  0
  -12.2689  -17.7511  -10.2614 H   0  0  0  0  0  0
   -7.8459  -19.9160  -11.0670 H   0  0  0  0  0  0
  -12.0070  -17.2159   -8.0667 H   0  0  0  0  0  0
  -13.7447  -15.8534   -7.0135 H   0  0  0  0  0  0
  -13.5899  -13.3860   -7.0703 H   0  0  0  0  0  0
  -11.7053  -12.2838   -8.2223 H   0  0  0  0  0  0
   -9.9821  -13.6155   -9.3167 H   0  0  0  0  0  0
   -6.4426  -16.6460  -13.2941 H   0  0  0  0  0  0
   -7.6920  -17.5909  -12.5360 H   0  0  0  0  0  0
   -6.3583  -19.6755  -12.8588 H   0  0  0  0  0  0
   -6.6007  -18.8630  -14.4073 H   0  0  0  0  0  0
   -4.4120  -18.0640  -14.3091 H   0  0  0  0  0  0
   -4.0755  -19.5079  -11.7966 H   0  0  0  0  0  0
   -2.8518  -18.5178  -12.6175 H   0  0  0  0  0  0
   -3.8426  -17.3573  -10.6179 H   0  0  0  0  0  0
   -4.1047  -16.4686  -12.1006 H   0  0  0  0  0  0
   -6.1275  -14.5411   -7.2871 H   0  0  0  0  0  0
   -3.1591  -13.2505  -10.0861 H   0  0  0  0  0  0
   -4.8001  -13.4069  -11.9178 H   0  0  0  0  0  0
   -7.0108  -13.7276  -12.7209 H   0  0  0  0  0  0
   -7.8520  -15.0628  -11.9306 H   0  0  0  0  0  0
   -8.2676  -13.4065  -11.5185 H   0  0  0  0  0  0
   -9.1018  -23.0577  -12.4521 H   0  0  0  0  0  0
   -8.3236  -21.5159  -12.7829 H   0  0  0  0  0  0
   -8.1967  -22.2573  -11.1698 H   0  0  0  0  0  0
  1  4  1  0  0  0
  1 33  1  0  0  0
  1  2  2  0  0  0
  2  3  1  0  0  0
  2 35  1  0  0  0
  3  9  2  0  0  0
  3 36  1  0  0  0
  4  8  2  0  0  0
  4 37  1  0  0  0
  5  6  1  0  0  0
  5  9  1  0  0  0
  5 10  1  0  0  0
  6 24  1  0  0  0
  6  7  2  0  0  0
  7 16  1  0  0  0
  7  8  1  0  0  0
  8  9  1  0  0  0
 10 11  2  0  0  0
 10 15  1  0  0  0
 11 12  1  0  0  0
 11 38  1  0  0  0
 12 13  2  0  0  0
 12 39  1  0  0  0
 13 14  1  0  0  0
 13 40  1  0  0  0
 14 15  2  0  0  0
 14 41  1  0  0  0
 15 42  1  0  0  0
 16 17  1  0  0  0
 16 18  2  0  0  0
 17 19  1  0  0  0
 17 23  1  0  0  0
 19 20  1  0  0  0
 19 43  1  0  0  0
 19 44  1  0  0  0
 20 21  1  0  0  0
 20 45  1  0  0  0
 20 46  1  0  0  0
 21 22  1  0  0  0
 21 47  1  0  0  0
 22 23  1  0  0  0
 22 48  1  0  0  0
 22 49  1  0  0  0
 23 50  1  0  0  0
 23 51  1  0  0  0
 24 25  1  0  0  0
 25 26  2  0  0  0
 25 30  1  0  0  0
 26 27  1  0  0  0
 26 52  1  0  0  0
 27 28  2  0  0  0
 27 32  1  0  0  0
 28 29  1  0  0  0
 28 53  1  0  0  0
 29 30  2  0  0  0
 29 54  1  0  0  0
 30 31  1  0  0  0
 31 55  1  0  0  0
 31 56  1  0  0  0
 31 57  1  0  0  0
 33 34  1  0  0  0
 34 58  1  0  0  0
 34 59  1  0  0  0
 34 60  1  0  0  0
M  END
> <s_m_entry_id>
26474

> <s_m_entry_name>
dock_pv.298

> <s_m_Source_Path>
/home/csk/Desktop/cluster/DUD-E-result/reni

> <s_m_Source_File>
dock_pv.maegz

> <i_m_Source_File_Index>
298

> <chembl_id>
CHEMBL1269856

> <chembl_pref_name>
None

> <i_lp_mmshare_version>
53161

> <r_lp_tautomer_probability>
1

> <s_lp_Force_Field>
OPLS_2005

> <r_lp_Energy>
56.067658

> <b_lp_Chiralities_Consistent>
1

> <s_lp_Variant>
CHEMBL286_lig2001-1

> <s_i_glide_gridfile>
glide-grid_3g6z

> <i_i_glide_lignum>
5794

> <i_i_glide_rotatable_bonds>
6

> <r_i_docking_score>
-6.82786167740979

> <r_i_glide_ligand_efficiency>
-0.200819461100288

> <r_i_glide_ligand_efficiency_sa>
-0.650577095341954

> <r_i_glide_ligand_efficiency_ln>
-1.50846615957283

> <r_i_glide_gscore>
-6.82786167740979

> <r_i_glide_lipo>
-2.8342978030647

> <r_i_glide_hbond>
-0.304773893279446

> <r_i_glide_metal>
0

> <r_i_glide_rewards>
-1.234380869748

> <r_i_glide_evdw>
-37.245849609375

> <r_i_glide_ecoul>
-7.10229444503784

> <r_i_glide_erotb>
0.476463626514288

> <r_i_glide_esite>
-0.00323609060751026

> <r_i_glide_emodel>
-60.3485613909925

> <r_i_glide_energy>
-44.3481440544128

> <r_i_glide_einternal>
4.62686204910278

> <i_i_glide_confnum>
116

> <i_i_glide_posenum>
243

> <r_i_glide_eff_state_penalty>
0

> <s_user_duplicate_titles>
CHEMBL286_lig2001

> <i_f3d_flags>
0

> <s_m_subgroup_title>
dock_pv

> <s_m_subgroupid>
dock_pv

> <b_m_subgroup_collapsed>
1

$$$$
CHEMBL286_lig1973
                    3D
 Schrodinger Suite 2021-1.
 56 60  0  0  1  0            999 V2000
   -6.9047  -20.3393  -12.1137 C   0  0  0  0  0  0
   -5.9887  -19.4235  -11.6240 C   0  0  0  0  0  0
   -6.3994  -18.2200  -11.0609 C   0  0  0  0  0  0
   -8.2695  -20.0949  -12.0198 C   0  0  0  0  0  0
   -8.4633  -16.8177  -10.5928 N   0  0  0  0  0  0
   -9.8320  -17.0716  -10.6244 C   0  0  0  0  0  0
  -10.0633  -18.3689  -11.1030 C   0  0  0  0  0  0
   -8.7510  -18.9098  -11.4184 C   0  0  0  0  0  0
   -7.7821  -17.9571  -10.9995 C   0  0  0  0  0  0
   -7.7933  -15.6227  -10.2483 C   0  0  0  0  0  0
   -8.0416  -15.0343   -9.0135 C   0  0  0  0  0  0
   -7.1832  -14.0585   -8.5194 C   0  0  0  0  0  0
   -6.0895  -13.6631   -9.2841 C   0  0  0  0  0  0
   -5.8853  -14.1746  -10.5637 C   0  0  0  0  0  0
   -6.7438  -15.1529  -11.0506 C   0  0  0  0  0  0
  -11.4071  -18.8728  -11.3321 C   0  0  0  0  0  0
  -11.6866  -20.2060  -11.2209 N   0  0  0  0  0  0
  -12.2700  -18.0633  -11.6656 O   0  0  0  0  0  0
  -10.7977  -21.1753  -10.5774 C   0  0  0  0  0  0
  -10.8734  -22.5554  -11.2701 C   0  0  0  0  0  0
  -12.2447  -23.0385  -11.3890 N   0  0  0  0  0  0
  -13.0957  -22.0837  -12.0840 C   0  0  0  0  0  0
  -13.0808  -20.6671  -11.4531 C   0  0  0  0  0  0
  -10.7814  -16.0838  -10.4152 O   0  0  0  0  0  0
  -11.3479  -15.7530   -9.1959 C   0  0  0  0  0  0
  -11.2021  -16.4884   -8.0171 C   0  0  0  0  0  0
  -11.7271  -15.9874   -6.8225 C   0  0  0  0  0  0
  -12.3447  -14.7459   -6.7695 C   0  0  0  0  0  0
  -12.5129  -14.0055   -7.9311 C   0  0  0  0  0  0
  -12.0766  -14.5591   -9.1353 C   0  0  0  0  0  0
  -13.0833  -12.5892   -7.8883 C   0  0  0  0  0  0
  -13.6305  -12.2901   -6.7107 F   0  0  0  0  0  0
  -12.1011  -11.7202   -8.1244 F   0  0  0  0  0  0
  -14.0122  -12.4376   -8.8212 F   0  0  0  0  0  0
   -6.5565  -21.2550  -12.5694 H   0  0  0  0  0  0
   -4.9332  -19.6406  -11.6981 H   0  0  0  0  0  0
   -5.6622  -17.5144  -10.7073 H   0  0  0  0  0  0
   -8.9441  -20.8353  -12.4157 H   0  0  0  0  0  0
   -8.8600  -15.3918   -8.4226 H   0  0  0  0  0  0
   -7.3493  -13.6332   -7.5403 H   0  0  0  0  0  0
   -5.4116  -12.9158   -8.8983 H   0  0  0  0  0  0
   -5.0536  -13.8349  -11.1639 H   0  0  0  0  0  0
   -6.5499  -15.5886  -12.0216 H   0  0  0  0  0  0
  -11.2437  -21.2742   -9.6179 H   0  0  0  0  0  0
   -9.7865  -20.8594  -10.3605 H   0  0  0  0  0  0
  -10.4317  -22.5149  -12.2674 H   0  0  0  0  0  0
  -10.3071  -23.2965  -10.7052 H   0  0  0  0  0  0
  -12.2609  -23.9240  -11.8790 H   0  0  0  0  0  0
  -12.7289  -22.0615  -13.1110 H   0  0  0  0  0  0
  -14.1128  -22.4762  -12.1312 H   0  0  0  0  0  0
  -13.6419  -20.0077  -12.1170 H   0  0  0  0  0  0
  -13.5899  -20.7466  -10.4921 H   0  0  0  0  0  0
  -10.6481  -17.4143   -8.0148 H   0  0  0  0  0  0
  -11.5305  -16.4630   -5.8872 H   0  0  0  0  0  0
  -12.6498  -14.3488   -5.8119 H   0  0  0  0  0  0
  -12.2689  -14.0051  -10.0249 H   0  0  0  0  0  0
  1  4  1  0  0  0
  1  2  2  0  0  0
  1 35  1  0  0  0
  2  3  1  0  0  0
  2 36  1  0  0  0
  3  9  2  0  0  0
  3 37  1  0  0  0
  4  8  2  0  0  0
  4 38  1  0  0  0
  5  6  1  0  0  0
  5  9  1  0  0  0
  5 10  1  0  0  0
  6 24  1  0  0  0
  6  7  2  0  0  0
  7 16  1  0  0  0
  7  8  1  0  0  0
  8  9  1  0  0  0
 10 11  2  0  0  0
 10 15  1  0  0  0
 11 12  1  0  0  0
 11 39  1  0  0  0
 12 13  2  0  0  0
 12 40  1  0  0  0
 13 14  1  0  0  0
 13 41  1  0  0  0
 14 15  2  0  0  0
 14 42  1  0  0  0
 15 43  1  0  0  0
 16 17  1  0  0  0
 16 18  2  0  0  0
 17 19  1  0  0  0
 17 23  1  0  0  0
 19 20  1  0  0  0
 19 44  1  0  0  0
 19 45  1  0  0  0
 20 21  1  0  0  0
 20 46  1  0  0  0
 20 47  1  0  0  0
 21 22  1  0  0  0
 21 48  1  0  0  0
 22 23  1  0  0  0
 22 49  1  0  0  0
 22 50  1  0  0  0
 23 51  1  0  0  0
 23 52  1  0  0  0
 24 25  1  0  0  0
 25 26  2  0  0  0
 25 30  1  0  0  0
 26 27  1  0  0  0
 26 53  1  0  0  0
 27 28  2  0  0  0
 27 54  1  0  0  0
 28 29  1  0  0  0
 28 55  1  0  0  0
 29 30  2  0  0  0
 29 31  1  0  0  0
 30 56  1  0  0  0
 31 32  1  0  0  0
 31 33  1  0  0  0
 31 34  1  0  0  0
M  END
> <s_m_entry_id>
26475

> <s_m_entry_name>
dock_pv.299

> <s_m_Source_Path>
/home/csk/Desktop/cluster/DUD-E-result/reni

> <s_m_Source_File>
dock_pv.maegz

> <i_m_Source_File_Index>
299

> <chembl_id>
CHEMBL1270071

> <chembl_pref_name>
None

> <i_lp_mmshare_version>
53161

> <r_lp_tautomer_probability>
1

> <s_lp_Force_Field>
OPLS_2005

> <r_lp_Energy>
53.08801

> <b_lp_Chiralities_Consistent>
1

> <s_lp_Variant>
CHEMBL286_lig1973-1

> <s_i_glide_gridfile>
glide-grid_3g6z

> <i_i_glide_lignum>
5763

> <i_i_glide_rotatable_bonds>
6

> <r_i_docking_score>
-6.82538001084414

> <r_i_glide_ligand_efficiency>
-0.20074647090718

> <r_i_glide_ligand_efficiency_sa>
-0.650340635451264

> <r_i_glide_ligand_efficiency_ln>
-1.50791788982009

> <r_i_glide_gscore>
-6.82538001084414

> <r_i_glide_lipo>
-3.22632192815277

> <r_i_glide_hbond>
-0.0351666148675859

> <r_i_glide_metal>
0

> <r_i_glide_rewards>
-2.25843675328655

> <r_i_glide_evdw>
-35.4960975646973

> <r_i_glide_ecoul>
0.0872758254408836

> <r_i_glide_erotb>
0.465414538885859

> <r_i_glide_esite>
-0.00915574900436527

> <r_i_glide_emodel>
-40.6173241527741

> <r_i_glide_energy>
-35.4088217392564

> <r_i_glide_einternal>
14.4708290100098

> <i_i_glide_confnum>
115

> <i_i_glide_posenum>
328

> <r_i_glide_eff_state_penalty>
0

> <s_user_duplicate_titles>
CHEMBL286_lig1973

> <i_f3d_flags>
0

> <s_m_subgroup_title>
dock_pv

> <s_m_subgroupid>
dock_pv

> <b_m_subgroup_collapsed>
1

$$$$
CHEMBL286_lig1559
                    3D
 Schrodinger Suite 2021-1.
 70 73  0  0  1  0            999 V2000
   -7.3012  -18.5417  -11.7193 N   0  0  0  0  0  0
   -7.2278  -19.8807  -12.0079 C   0  0  0  0  0  0
   -8.2967  -18.0851  -10.8366 C   0  0  0  0  0  0
   -6.5073  -17.4783  -12.4061 C   0  0  2  0  0  0
   -5.8689  -19.2628  -14.0210 N   0  0  2  0  0  0
  -11.7350  -11.3781   -7.1131 C   0  0  0  0  0  0
   -7.9356  -20.7328  -11.4625 O   0  0  0  0  0  0
  -10.3660  -11.2390   -7.3952 C   0  0  0  0  0  0
   -9.4822  -17.5642  -11.3546 C   0  0  0  0  0  0
   -8.0880  -18.1355   -9.4557 C   0  0  0  0  0  0
   -6.1661  -20.3148  -13.0506 C   0  0  0  0  0  0
   -5.4385  -18.0333  -13.3819 C   0  0  0  0  0  0
   -4.4430  -13.6577   -8.9309 C   0  0  0  0  0  0
  -10.2687  -17.1460   -9.1008 C   0  0  0  0  0  0
   -4.9890  -16.9269  -10.5629 O   0  0  0  0  0  0
   -3.8697  -12.4122   -9.1959 C   0  0  0  0  0  0
  -10.4670  -17.0983  -10.4908 C   0  0  0  0  0  0
   -9.0754  -17.6633   -8.5950 C   0  0  0  0  0  0
   -4.2686  -11.0490   -8.2120 Cl  0  0  0  0  0  0
   -4.1166  -14.7712   -9.7156 C   0  0  0  0  0  0
   -9.7186  -12.2914   -8.0210 O   0  0  0  0  0  0
   -5.9111  -16.3750  -11.5031 C   0  0  0  0  0  0
  -13.2824  -15.6478   -7.4734 C   0  0  0  0  0  0
  -11.2004  -16.7155   -8.1742 O   0  0  0  0  0  0
  -12.4825  -12.6491   -7.4920 C   0  0  0  0  0  0
  -11.7703  -13.7572   -6.9585 O   0  0  0  0  0  0
   -2.6328  -13.3771  -11.0345 C   0  0  0  0  0  0
  -12.4088  -10.3663   -6.4210 C   0  0  0  0  0  0
   -4.7409  -16.1310   -9.4015 C   0  0  0  0  0  0
  -12.4042  -16.1118   -8.6406 C   0  0  0  0  0  0
  -12.5287  -14.8248   -6.4211 C   0  0  0  0  0  0
   -9.7139  -10.0641   -6.9936 C   0  0  0  0  0  0
   -2.9682  -12.2711  -10.2522 C   0  0  0  0  0  0
   -3.1987  -14.6240  -10.7635 C   0  0  0  0  0  0
   -8.2913  -12.3604   -8.0211 C   0  0  0  0  0  0
  -11.7423   -9.2080   -6.0211 C   0  0  0  0  0  0
  -10.3942   -9.0545   -6.3205 C   0  0  0  0  0  0
   -7.2400  -16.9635  -13.0286 H   0  0  0  0  0  0
   -6.6304  -19.0508  -14.6706 H   0  0  0  0  0  0
   -9.6452  -17.5248  -12.4217 H   0  0  0  0  0  0
   -7.1645  -18.5327   -9.0580 H   0  0  0  0  0  0
   -5.2625  -20.6059  -12.5115 H   0  0  0  0  0  0
   -6.5326  -21.1990  -13.5744 H   0  0  0  0  0  0
   -4.5072  -18.2260  -12.8463 H   0  0  0  0  0  0
   -5.2294  -17.2896  -14.1522 H   0  0  0  0  0  0
   -5.1391  -13.7578   -8.1100 H   0  0  0  0  0  0
  -11.3744  -16.7062  -10.9222 H   0  0  0  0  0  0
   -8.9178  -17.6992   -7.5274 H   0  0  0  0  0  0
   -5.4185  -15.6169  -12.1147 H   0  0  0  0  0  0
   -6.7269  -15.8643  -10.9865 H   0  0  0  0  0  0
  -13.7243  -16.5195   -6.9893 H   0  0  0  0  0  0
  -14.1191  -15.0684   -7.8607 H   0  0  0  0  0  0
  -13.5117  -12.6099   -7.1260 H   0  0  0  0  0  0
  -12.5359  -12.7441   -8.5777 H   0  0  0  0  0  0
   -1.9241  -13.2704  -11.8449 H   0  0  0  0  0  0
  -13.4588  -10.4725   -6.1891 H   0  0  0  0  0  0
   -5.6699  -16.0143   -8.8400 H   0  0  0  0  0  0
   -4.0579  -16.6807   -8.7533 H   0  0  0  0  0  0
  -12.9673  -16.8404   -9.2210 H   0  0  0  0  0  0
  -12.1772  -15.2585   -9.2857 H   0  0  0  0  0  0
  -11.8265  -15.4751   -5.8995 H   0  0  0  0  0  0
  -13.2154  -14.4495   -5.6630 H   0  0  0  0  0  0
   -8.6693   -9.9194   -7.1915 H   0  0  0  0  0  0
   -2.5233  -11.3088  -10.4624 H   0  0  0  0  0  0
   -2.9318  -15.4748  -11.3758 H   0  0  0  0  0  0
   -7.9795  -13.1993   -8.6428 H   0  0  0  0  0  0
   -7.8220  -11.4674   -8.4209 H   0  0  0  0  0  0
   -7.8686  -12.5179   -7.0313 H   0  0  0  0  0  0
  -12.2755   -8.4284   -5.4990 H   0  0  0  0  0  0
   -9.8719   -8.1564   -6.0281 H   0  0  0  0  0  0
  1  2  1  0  0  0
  1  3  1  0  0  0
  1  4  1  0  0  0
  2  7  2  0  0  0
  2 11  1  0  0  0
  3  9  1  0  0  0
  3 10  2  0  0  0
  4 12  1  0  0  0
  4 22  1  0  0  0
  4 38  1  0  0  0
  5 12  1  0  0  0
  5 11  1  0  0  0
  5 39  1  0  0  0
  6 25  1  0  0  0
  6  8  2  0  0  0
  6 28  1  0  0  0
  8 21  1  0  0  0
  8 32  1  0  0  0
  9 17  2  0  0  0
  9 40  1  0  0  0
 10 18  1  0  0  0
 10 41  1  0  0  0
 11 42  1  0  0  0
 11 43  1  0  0  0
 12 44  1  0  0  0
 12 45  1  0  0  0
 13 20  2  0  0  0
 13 16  1  0  0  0
 13 46  1  0  0  0
 14 18  2  0  0  0
 14 24  1  0  0  0
 14 17  1  0  0  0
 15 22  1  0  0  0
 15 29  1  0  0  0
 16 19  1  0  0  0
 16 33  2  0  0  0
 17 47  1  0  0  0
 18 48  1  0  0  0
 20 29  1  0  0  0
 20 34  1  0  0  0
 21 35  1  0  0  0
 22 49  1  0  0  0
 22 50  1  0  0  0
 23 30  1  0  0  0
 23 31  1  0  0  0
 23 51  1  0  0  0
 23 52  1  0  0  0
 24 30  1  0  0  0
 25 26  1  0  0  0
 25 53  1  0  0  0
 25 54  1  0  0  0
 26 31  1  0  0  0
 27 34  2  0  0  0
 27 33  1  0  0  0
 27 55  1  0  0  0
 28 36  2  0  0  0
 28 56  1  0  0  0
 29 57  1  0  0  0
 29 58  1  0  0  0
 30 59  1  0  0  0
 30 60  1  0  0  0
 31 61  1  0  0  0
 31 62  1  0  0  0
 32 37  2  0  0  0
 32 63  1  0  0  0
 33 64  1  0  0  0
 34 65  1  0  0  0
 35 66  1  0  0  0
 35 67  1  0  0  0
 35 68  1  0  0  0
 36 37  1  0  0  0
 36 69  1  0  0  0
 37 70  1  0  0  0
M  END
> <s_m_entry_id>
26476

> <s_m_entry_name>
dock_pv.300

> <s_m_Source_Path>
/home/csk/Desktop/cluster/DUD-E-result/reni

> <s_m_Source_File>
dock_pv.maegz

> <i_m_Source_File_Index>
300

> <chembl_id>
CHEMBL196348

> <chembl_pref_name>
None

> <i_lp_mmshare_version>
53161

> <r_lp_tautomer_probability>
1

> <s_lp_Force_Field>
OPLS_2005

> <r_lp_Energy>
56.676071

> <b_lp_Chiralities_Consistent>
1

> <s_lp_Variant>
CHEMBL286_lig1559-1

> <s_i_glide_gridfile>
glide-grid_3g6z

> <i_i_glide_lignum>
5263

> <i_i_glide_rotatable_bonds>
13

> <r_i_docking_score>
-6.82504173516596

> <r_i_glide_ligand_efficiency>
-0.184460587436918

> <r_i_glide_ligand_efficiency_sa>
-0.614663599484913

> <r_i_glide_ligand_efficiency_ln>
-1.48019155067803

> <r_i_glide_gscore>
-6.82504173516596

> <r_i_glide_lipo>
-4.03592898663066

> <r_i_glide_hbond>
-0.404785279656207

> <r_i_glide_metal>
0

> <r_i_glide_rewards>
0.516703103086946

> <r_i_glide_evdw>
-47.6411590576172

> <r_i_glide_ecoul>
-8.49084949493408

> <r_i_glide_erotb>
0.821231383624392

> <r_i_glide_esite>
-0.066576578469462

> <r_i_glide_emodel>
-75.5934083517469

> <r_i_glide_energy>
-56.1320085525513

> <r_i_glide_einternal>
7.93904447555542

> <i_i_glide_confnum>
27

> <i_i_glide_posenum>
327

> <r_i_glide_eff_state_penalty>
0

> <s_user_duplicate_titles>
CHEMBL286_lig1559,326745

> <i_f3d_flags>
0

> <s_m_subgroup_title>
dock_pv

> <s_m_subgroupid>
dock_pv

> <b_m_subgroup_collapsed>
1

$$$$
CHEMBL286_lig538
                    3D
 Schrodinger Suite 2021-1.
106111  0  0  1  0            999 V2000
   -8.9724  -16.6658   -8.8950 N   0  0  0  0  0  0
   -9.2377  -17.9922   -9.2137 C   0  0  0  0  0  0
  -10.1920  -15.9958   -9.0970 C   0  0  0  0  0  0
  -11.1192  -16.8672   -9.5394 N   0  0  0  0  0  0
  -10.4554  -18.0630   -9.7154 N   0  0  0  0  0  0
   -8.2065  -19.1391   -9.2273 C   0  0  2  0  0  0
   -7.8541  -15.9811   -8.4829 C   0  0  0  0  0  0
   -9.1012  -13.9088   -8.5621 N   0  0  0  0  0  0
   -7.9056  -14.5759   -8.4208 C   0  0  0  0  0  0
   -7.4181  -19.1357  -10.5441 C   0  0  0  0  0  0
   -2.6038  -18.4428  -10.0966 C   0  0  0  0  0  0
  -10.2439  -14.6191   -8.8210 C   0  0  0  0  0  0
   -2.7333  -19.9865  -10.2927 C   0  0  2  0  0  0
   -6.2630  -18.4539  -10.5815 N   0  0  0  0  0  0
   -1.7512  -17.7140  -10.8784 N   0  0  0  0  0  0
   -4.0746  -20.4199  -10.9791 C   0  0  0  0  0  0
   -5.4547  -18.2951  -11.7952 C   0  0  1  0  0  0
   -6.7070  -13.7596   -8.0342 C   0  0  0  0  0  0
   -4.6558  -19.5847  -12.1658 C   0  0  1  0  0  0
   -8.7937  -20.5589   -8.8952 C   0  0  0  0  0  0
   -3.4206  -17.8989   -9.3502 O   0  0  0  0  0  0
   -7.8630  -19.7151  -11.5305 O   0  0  0  0  0  0
   -6.2463  -17.6995  -12.9939 C   0  0  0  0  0  0
   -5.7728  -11.6674   -7.1929 N   0  0  0  0  0  0
  -11.3469  -21.9383  -11.4199 N   0  0  0  0  0  0
    0.3406  -16.0631  -11.7318 O   0  0  0  0  0  0
   -2.4386  -20.7978   -8.9821 C   0  0  0  0  0  0
   -9.4389  -21.4060  -10.0185 C   0  0  0  0  0  0
   -6.8244  -12.4382   -7.5718 C   0  0  0  0  0  0
   -3.6138  -19.2631  -13.0704 O   0  0  0  0  0  0
  -11.5555  -13.8384   -8.8238 C   0  0  0  0  0  0
   -1.9666  -16.2479  -11.0048 C   0  0  0  0  0  0
   -0.6095  -18.3194  -11.6125 C   0  0  0  0  0  0
   -6.8054  -16.2604  -12.8382 C   0  0  0  0  0  0
  -10.7504  -21.1948  -10.4536 C   0  0  0  0  0  0
   -5.4027  -14.2804   -8.1078 C   0  0  0  0  0  0
   -4.5349  -12.2094   -7.2691 C   0  0  0  0  0  0
  -10.6203  -22.9278  -11.9971 C   0  0  0  0  0  0
    0.6326  -17.4191  -11.4370 C   0  0  0  0  0  0
   -0.6162  -15.5293  -10.8282 C   0  0  0  0  0  0
   -2.2839  -22.3082   -9.2572 C   0  0  0  0  0  0
   -3.4232  -20.5793   -7.8079 C   0  0  0  0  0  0
   -8.7166  -22.4493  -10.6205 C   0  0  0  0  0  0
   -7.6888  -15.9070  -11.6692 C   0  0  0  0  0  0
   -5.6928  -15.2523  -12.9886 C   0  0  0  0  0  0
  -12.5804  -14.2403   -7.7455 C   0  0  0  0  0  0
   -4.3066  -13.5081   -7.7210 C   0  0  0  0  0  0
   -9.3064  -23.2139  -11.6282 C   0  0  0  0  0  0
  -12.0988  -14.0786   -6.3026 C   0  0  0  0  0  0
   -8.0594  -14.4220  -11.6959 C   0  0  0  0  0  0
   -5.9897  -13.7638  -12.7998 C   0  0  0  0  0  0
   -6.8562  -13.4962  -11.6066 C   0  0  0  0  0  0
   -7.5009  -18.9231   -8.4268 H   0  0  0  0  0  0
   -6.9642  -16.5670   -8.3183 H   0  0  0  0  0  0
   -1.9833  -20.3133  -11.0057 H   0  0  0  0  0  0
   -5.8884  -18.0464   -9.7380 H   0  0  0  0  0  0
   -3.9223  -21.4288  -11.3661 H   0  0  0  0  0  0
   -4.8507  -20.5471  -10.2268 H   0  0  0  0  0  0
   -4.7328  -17.5361  -11.5080 H   0  0  0  0  0  0
   -5.3426  -20.2396  -12.7060 H   0  0  0  0  0  0
   -7.9782  -21.1620   -8.4919 H   0  0  0  0  0  0
   -9.4690  -20.4693   -8.0487 H   0  0  0  0  0  0
   -5.6298  -17.7357  -13.8925 H   0  0  0  0  0  0
   -7.0709  -18.3586  -13.2247 H   0  0  0  0  0  0
   -1.4692  -20.4594   -8.6155 H   0  0  0  0  0  0
   -7.7903  -11.9594   -7.4925 H   0  0  0  0  0  0
   -3.0235  -18.6395  -12.6377 H   0  0  0  0  0  0
  -11.3704  -12.7627   -8.7991 H   0  0  0  0  0  0
  -12.0418  -14.0630   -9.7727 H   0  0  0  0  0  0
   -2.6599  -15.8402  -10.2656 H   0  0  0  0  0  0
   -2.3269  -16.0812  -12.0211 H   0  0  0  0  0  0
   -0.8854  -18.3703  -12.6663 H   0  0  0  0  0  0
   -0.2959  -19.2729  -11.1879 H   0  0  0  0  0  0
   -7.4685  -16.0629  -13.6741 H   0  0  0  0  0  0
  -11.3670  -20.4245  -10.0213 H   0  0  0  0  0  0
   -5.2171  -15.2807   -8.4675 H   0  0  0  0  0  0
   -3.7151  -11.5757   -6.9602 H   0  0  0  0  0  0
  -11.1099  -23.4938  -12.7758 H   0  0  0  0  0  0
    1.4268  -17.7568  -12.1033 H   0  0  0  0  0  0
    1.0330  -17.5080  -10.4244 H   0  0  0  0  0  0
   -0.7325  -14.4632  -11.0274 H   0  0  0  0  0  0
   -0.2635  -15.6108   -9.7970 H   0  0  0  0  0  0
   -3.2341  -22.7741   -9.5174 H   0  0  0  0  0  0
   -1.5897  -22.5019  -10.0758 H   0  0  0  0  0  0
   -1.8991  -22.8311   -8.3800 H   0  0  0  0  0  0
   -4.4409  -20.8738   -8.0604 H   0  0  0  0  0  0
   -3.1277  -21.1676   -6.9394 H   0  0  0  0  0  0
   -3.4475  -19.5437   -7.4755 H   0  0  0  0  0  0
   -7.6972  -22.6507  -10.3247 H   0  0  0  0  0  0
   -8.5687  -16.5514  -11.6470 H   0  0  0  0  0  0
   -7.1039  -16.1079  -10.7835 H   0  0  0  0  0  0
   -4.8414  -15.5099  -12.3609 H   0  0  0  0  0  0
   -5.4690  -15.4301  -14.0210 H   0  0  0  0  0  0
  -13.4737  -13.6286   -7.8828 H   0  0  0  0  0  0
  -12.9072  -15.2683   -7.9013 H   0  0  0  0  0  0
   -3.3043  -13.9067   -7.7747 H   0  0  0  0  0  0
   -8.7561  -24.0039  -12.1197 H   0  0  0  0  0  0
  -12.9488  -14.0631   -5.6211 H   0  0  0  0  0  0
  -11.4691  -14.9150   -6.0052 H   0  0  0  0  0  0
  -11.5412  -13.1525   -6.1589 H   0  0  0  0  0  0
   -8.6251  -14.2063  -12.6025 H   0  0  0  0  0  0
   -8.6690  -14.1817  -10.8630 H   0  0  0  0  0  0
   -6.5883  -13.4248  -13.6210 H   0  0  0  0  0  0
   -5.0754  -13.1703  -12.7863 H   0  0  0  0  0  0
   -7.1978  -12.4629  -11.6447 H   0  0  0  0  0  0
   -6.2964  -13.6471  -10.6859 H   0  0  0  0  0  0
  1  2  1  0  0  0
  1  3  1  0  0  0
  1  7  1  0  0  0
  2  5  2  0  0  0
  2  6  1  0  0  0
  3  4  2  0  0  0
  3 12  1  0  0  0
  4  5  1  0  0  0
  6 10  1  0  0  0
  6 20  1  0  0  0
  6 53  1  0  0  0
  7  9  2  0  0  0
  7 54  1  0  0  0
  8  9  1  0  0  0
  8 12  2  0  0  0
  9 18  1  0  0  0
 10 14  1  0  0  0
 10 22  2  0  0  0
 11 13  1  0  0  0
 11 15  1  0  0  0
 11 21  2  0  0  0
 12 31  1  0  0  0
 13 16  1  0  0  0
 13 27  1  0  0  0
 13 55  1  0  0  0
 14 17  1  0  0  0
 14 56  1  0  0  0
 15 32  1  0  0  0
 15 33  1  0  0  0
 16 19  1  0  0  0
 16 57  1  0  0  0
 16 58  1  0  0  0
 17 19  1  0  0  0
 17 23  1  0  0  0
 17 59  1  0  0  0
 18 29  1  0  0  0
 18 36  2  0  0  0
 19 30  1  0  0  0
 19 60  1  0  0  0
 20 28  1  0  0  0
 20 61  1  0  0  0
 20 62  1  0  0  0
 23 34  1  0  0  0
 23 63  1  0  0  0
 23 64  1  0  0  0
 24 29  2  0  0  0
 24 37  1  0  0  0
 25 35  2  0  0  0
 25 38  1  0  0  0
 26 39  1  0  0  0
 26 40  1  0  0  0
 27 41  1  0  0  0
 27 42  1  0  0  0
 27 65  1  0  0  0
 28 35  1  0  0  0
 28 43  2  0  0  0
 29 66  1  0  0  0
 30 67  1  0  0  0
 31 46  1  0  0  0
 31 68  1  0  0  0
 31 69  1  0  0  0
 32 40  1  0  0  0
 32 70  1  0  0  0
 32 71  1  0  0  0
 33 39  1  0  0  0
 33 72  1  0  0  0
 33 73  1  0  0  0
 34 44  1  0  0  0
 34 45  1  0  0  0
 34 74  1  0  0  0
 35 75  1  0  0  0
 36 47  1  0  0  0
 36 76  1  0  0  0
 37 47  2  0  0  0
 37 77  1  0  0  0
 38 48  2  0  0  0
 38 78  1  0  0  0
 39 79  1  0  0  0
 39 80  1  0  0  0
 40 81  1  0  0  0
 40 82  1  0  0  0
 41 83  1  0  0  0
 41 84  1  0  0  0
 41 85  1  0  0  0
 42 86  1  0  0  0
 42 87  1  0  0  0
 42 88  1  0  0  0
 43 48  1  0  0  0
 43 89  1  0  0  0
 44 50  1  0  0  0
 44 90  1  0  0  0
 44 91  1  0  0  0
 45 51  1  0  0  0
 45 92  1  0  0  0
 45 93  1  0  0  0
 46 49  1  0  0  0
 46 94  1  0  0  0
 46 95  1  0  0  0
 47 96  1  0  0  0
 48 97  1  0  0  0
 49 98  1  0  0  0
 49 99  1  0  0  0
 49100  1  0  0  0
 50 52  1  0  0  0
 50101  1  0  0  0
 50102  1  0  0  0
 51 52  1  0  0  0
 51103  1  0  0  0
 51104  1  0  0  0
 52105  1  0  0  0
 52106  1  0  0  0
M  END
> <s_m_entry_id>
26477

> <s_m_entry_name>
dock_pv.301

> <s_m_Source_Path>
/home/csk/Desktop/cluster/DUD-E-result/reni

> <s_m_Source_File>
dock_pv.maegz

> <i_m_Source_File_Index>
301

> <chembl_id>
CHEMBL306098

> <chembl_pref_name>
None

> <i_lp_mmshare_version>
53161

> <r_lp_tautomer_probability>
1

> <s_lp_Force_Field>
OPLS_2005

> <r_lp_Energy>
46.202007

> <b_lp_Chiralities_Consistent>
1

> <s_lp_Variant>
CHEMBL286_lig538-13

> <s_i_glide_gridfile>
glide-grid_3g6z

> <i_i_glide_lignum>
1463

> <i_i_glide_rotatable_bonds>
18

> <r_i_docking_score>
-6.82344201425018

> <r_i_glide_ligand_efficiency>
-0.13122003873558

> <r_i_glide_ligand_efficiency_sa>
-0.489780257933465

> <r_i_glide_ligand_efficiency_ln>
-1.37812687116221

> <r_i_glide_gscore>
-6.82344201425018

> <r_i_glide_lipo>
-3.30478207154718

> <r_i_glide_hbond>
-0.429778206947922

> <r_i_glide_metal>
0

> <r_i_glide_rewards>
-1.17589633310072

> <r_i_glide_evdw>
-31.5251598358154

> <r_i_glide_ecoul>
-4.70108366012573

> <r_i_glide_erotb>
0.373221542630808

> <r_i_glide_esite>
-0.00478640447553581

> <r_i_glide_emodel>
-37.4858560149495

> <r_i_glide_energy>
-36.2262434959412

> <r_i_glide_einternal>
18.0115604400635

> <i_i_glide_confnum>
25

> <i_i_glide_posenum>
3

> <r_i_glide_eff_state_penalty>
0

> <s_user_duplicate_titles>
CHEMBL286_lig538

> <i_f3d_flags>
0

> <s_m_subgroup_title>
dock_pv

> <s_m_subgroupid>
dock_pv

> <b_m_subgroup_collapsed>
1

$$$$
CHEMBL286_lig984
                    3D
 Schrodinger Suite 2021-1.
 73 74  0  0  1  0            999 V2000
   -4.3553  -13.0893   -8.2856 C   0  0  0  0  0  0
   -5.0395  -15.5058   -7.7117 C   0  0  0  0  0  0
   -5.5218  -14.0824   -8.1289 C   0  0  1  0  0  0
   -4.7816  -16.5162   -8.8677 C   0  0  1  0  0  0
   -6.0068  -16.8244   -9.7941 C   0  0  2  0  0  0
  -11.1676  -12.7264   -7.9122 C   0  0  0  0  0  0
   -7.3322  -17.1530   -9.0333 C   0  0  0  0  0  0
   -3.7421  -12.6861   -7.2968 O   0  0  0  0  0  0
  -11.2185  -14.0597   -8.3747 C   0  0  0  0  0  0
   -8.6760  -17.3079   -9.8409 C   0  0  0  0  0  0
  -12.3116  -12.1528   -7.2882 C   0  0  0  0  0  0
   -4.0816  -12.6966   -9.5374 N   0  0  0  0  0  0
  -13.4688  -12.9450   -7.1345 C   0  0  0  0  0  0
   -5.6811  -17.9288  -10.6900 N   0  0  0  0  0  0
  -12.3357  -14.8582   -8.1201 C   0  0  0  0  0  0
  -13.4580  -14.2873   -7.5160 C   0  0  0  0  0  0
   -3.7033  -16.0117   -9.6396 O   0  0  0  0  0  0
  -11.2917  -16.8962   -9.4287 C   0  0  0  0  0  0
   -9.8633  -17.0778   -8.8400 C   0  0  0  0  0  0
   -9.9888  -11.9627   -8.0210 C   0  0  0  0  0  0
   -6.5867  -13.5187   -7.1702 C   0  0  0  0  0  0
  -12.3505  -16.3575   -8.4311 C   0  0  0  0  0  0
   -8.7190  -16.2835  -11.0027 C   0  0  0  0  0  0
   -8.8053  -18.7294  -10.4405 C   0  0  0  0  0  0
   -3.0659  -11.7268   -9.9301 C   0  0  0  0  0  0
  -12.2468  -10.8152   -6.8262 C   0  0  0  0  0  0
   -2.1624  -12.2506  -11.0591 C   0  0  0  0  0  0
   -2.8956  -12.7965  -12.3050 C   0  0  0  0  0  0
   -3.8124  -11.7770  -12.9974 C   0  0  0  0  0  0
   -9.9494  -10.6519   -7.5485 C   0  0  0  0  0  0
  -11.0705  -10.0804   -6.9623 C   0  0  0  0  0  0
   -5.7588  -15.9578   -7.0270 H   0  0  0  0  0  0
   -4.1414  -15.4354   -7.0969 H   0  0  0  0  0  0
   -6.0283  -14.1551   -9.0901 H   0  0  0  0  0  0
   -4.4388  -17.4478   -8.4168 H   0  0  0  0  0  0
   -6.1803  -15.9417  -10.4061 H   0  0  0  0  0  0
   -7.4821  -16.3537   -8.3099 H   0  0  0  0  0  0
   -7.1788  -18.0444   -8.4229 H   0  0  0  0  0  0
  -10.3452  -14.4487   -8.8754 H   0  0  0  0  0  0
   -4.6142  -13.1065  -10.2894 H   0  0  0  0  0  0
  -14.3324  -12.5015   -6.6675 H   0  0  0  0  0  0
   -4.9473  -17.6746  -11.3361 H   0  0  0  0  0  0
   -5.3657  -18.7370  -10.1731 H   0  0  0  0  0  0
  -14.3282  -14.8964   -7.3265 H   0  0  0  0  0  0
   -3.4429  -16.6786  -10.2772 H   0  0  0  0  0  0
  -11.6303  -17.8610   -9.8067 H   0  0  0  0  0  0
  -11.2947  -16.2366  -10.2936 H   0  0  0  0  0  0
   -9.6357  -16.2368   -8.1909 H   0  0  0  0  0  0
   -9.8945  -17.9180   -8.1435 H   0  0  0  0  0  0
   -9.1052  -12.4200   -8.4412 H   0  0  0  0  0  0
   -6.8916  -12.5068   -7.4426 H   0  0  0  0  0  0
   -7.4689  -14.1436   -7.2209 H   0  0  0  0  0  0
   -6.2626  -13.4901   -6.1294 H   0  0  0  0  0  0
  -12.2711  -16.8773   -7.4771 H   0  0  0  0  0  0
  -13.3377  -16.6006   -8.8205 H   0  0  0  0  0  0
   -7.8930  -16.4227  -11.6996 H   0  0  0  0  0  0
   -9.6118  -16.3860  -11.6157 H   0  0  0  0  0  0
   -8.6688  -15.2582  -10.6336 H   0  0  0  0  0  0
   -8.0399  -18.9325  -11.1876 H   0  0  0  0  0  0
   -8.7312  -19.5002   -9.6733 H   0  0  0  0  0  0
   -9.7636  -18.8620  -10.9445 H   0  0  0  0  0  0
   -3.6216  -10.8619  -10.2809 H   0  0  0  0  0  0
   -2.4553  -11.3926   -9.0881 H   0  0  0  0  0  0
  -13.1168  -10.3662   -6.3702 H   0  0  0  0  0  0
   -1.4832  -11.4544  -11.3623 H   0  0  0  0  0  0
   -1.5229  -13.0400  -10.6595 H   0  0  0  0  0  0
   -2.1547  -13.1484  -13.0241 H   0  0  0  0  0  0
   -3.4766  -13.6799  -12.0307 H   0  0  0  0  0  0
   -4.2087  -12.1831  -13.9294 H   0  0  0  0  0  0
   -4.6633  -11.5101  -12.3727 H   0  0  0  0  0  0
   -3.2712  -10.8632  -13.2362 H   0  0  0  0  0  0
   -9.0418  -10.0730   -7.6367 H   0  0  0  0  0  0
  -11.0310   -9.0578   -6.6110 H   0  0  0  0  0  0
  1  3  1  0  0  0
  1  8  2  0  0  0
  1 12  1  0  0  0
  2  3  1  0  0  0
  2  4  1  0  0  0
  2 32  1  0  0  0
  2 33  1  0  0  0
  3 21  1  0  0  0
  3 34  1  0  0  0
  4  5  1  0  0  0
  4 17  1  0  0  0
  4 35  1  0  0  0
  5  7  1  0  0  0
  5 14  1  0  0  0
  5 36  1  0  0  0
  6  9  2  0  0  0
  6 20  1  0  0  0
  6 11  1  0  0  0
  7 10  1  0  0  0
  7 37  1  0  0  0
  7 38  1  0  0  0
  9 15  1  0  0  0
  9 39  1  0  0  0
 10 19  1  0  0  0
 10 23  1  0  0  0
 10 24  1  0  0  0
 11 13  2  0  0  0
 11 26  1  0  0  0
 12 25  1  0  0  0
 12 40  1  0  0  0
 13 16  1  0  0  0
 13 41  1  0  0  0
 14 42  1  0  0  0
 14 43  1  0  0  0
 15 22  1  0  0  0
 15 16  2  0  0  0
 16 44  1  0  0  0
 17 45  1  0  0  0
 18 19  1  0  0  0
 18 22  1  0  0  0
 18 46  1  0  0  0
 18 47  1  0  0  0
 19 48  1  0  0  0
 19 49  1  0  0  0
 20 30  2  0  0  0
 20 50  1  0  0  0
 21 51  1  0  0  0
 21 52  1  0  0  0
 21 53  1  0  0  0
 22 54  1  0  0  0
 22 55  1  0  0  0
 23 56  1  0  0  0
 23 57  1  0  0  0
 23 58  1  0  0  0
 24 59  1  0  0  0
 24 60  1  0  0  0
 24 61  1  0  0  0
 25 27  1  0  0  0
 25 62  1  0  0  0
 25 63  1  0  0  0
 26 31  2  0  0  0
 26 64  1  0  0  0
 27 28  1  0  0  0
 27 65  1  0  0  0
 27 66  1  0  0  0
 28 29  1  0  0  0
 28 67  1  0  0  0
 28 68  1  0  0  0
 29 69  1  0  0  0
 29 70  1  0  0  0
 29 71  1  0  0  0
 30 31  1  0  0  0
 30 72  1  0  0  0
 31 73  1  0  0  0
M  END
> <s_m_entry_id>
26478

> <s_m_entry_name>
dock_pv.302

> <s_m_Source_Path>
/home/csk/Desktop/cluster/DUD-E-result/reni

> <s_m_Source_File>
dock_pv.maegz

> <i_m_Source_File_Index>
302

> <chembl_id>
CHEMBL41121

> <chembl_pref_name>
None

> <i_lp_mmshare_version>
53161

> <r_lp_tautomer_probability>
1

> <s_lp_Force_Field>
OPLS_2005

> <r_lp_Energy>
33.633048

> <b_lp_Chiralities_Consistent>
1

> <s_lp_Variant>
CHEMBL286_lig984-1

> <s_i_glide_gridfile>
glide-grid_3g6z

> <i_i_glide_lignum>
2613

> <i_i_glide_rotatable_bonds>
15

> <r_i_docking_score>
-6.8209142841597

> <r_i_glide_ligand_efficiency>
-0.22002949303741

> <r_i_glide_ligand_efficiency_sa>
-0.691196391592019

> <r_i_glide_ligand_efficiency_ln>
-1.53832520699656

> <r_i_glide_gscore>
-6.8209142841597

> <r_i_glide_lipo>
-4.60932677787566

> <r_i_glide_hbond>
0

> <r_i_glide_metal>
0

> <r_i_glide_rewards>
-1.40251439372005

> <r_i_glide_evdw>
-40.9638595581055

> <r_i_glide_ecoul>
-0.462698489427567

> <r_i_glide_erotb>
1.30852463875542

> <r_i_glide_esite>
0

> <r_i_glide_emodel>
-53.7093825112534

> <r_i_glide_energy>
-41.426558047533

> <r_i_glide_einternal>
10.6789836883545

> <i_i_glide_confnum>
61

> <i_i_glide_posenum>
215

> <r_i_glide_eff_state_penalty>
0

> <s_user_duplicate_titles>
CHEMBL286_lig984

> <i_f3d_flags>
0

> <s_m_subgroup_title>
dock_pv

> <s_m_subgroupid>
dock_pv

> <b_m_subgroup_collapsed>
1

$$$$
CHEMBL286_lig968
                    3D
 Schrodinger Suite 2021-1.
101103  0  0  1  0            999 V2000
   -8.5694  -20.3763  -10.9483 C   0  0  0  0  0  0
   -5.3488  -20.1870  -12.4207 C   0  0  0  0  0  0
   -3.1042  -21.9315  -10.8123 C   0  0  0  0  0  0
   -6.2202  -20.7323  -11.5512 N   0  0  0  0  0  0
   -8.4561  -19.0397  -11.0007 N   0  0  0  0  0  0
   -7.5903  -21.1810  -11.8222 C   0  0  1  0  0  0
   -6.6687  -23.6250  -13.6290 N   0  0  0  0  0  0
   -3.5043  -20.6022  -10.6859 N   0  0  0  0  0  0
   -3.9534  -19.8017  -11.8477 C   0  0  1  0  0  0
   -6.7014  -23.5643  -12.2517 C   0  0  0  0  0  0
   -8.9201  -18.1291   -9.9423 C   0  0  2  0  0  0
   -7.6798  -22.6945  -11.5098 C   0  0  0  0  0  0
   -5.0717  -24.9936  -12.9225 N   0  0  0  0  0  0
   -5.6963  -24.4690  -13.9687 C   0  0  0  0  0  0
  -11.7057  -14.4975   -8.7683 C   0  0  0  0  0  0
   -2.8389  -22.5448   -9.6147 O   0  0  0  0  0  0
  -10.2770  -17.3957  -10.2161 C   0  0  2  0  0  0
  -11.9076  -15.7973   -9.0564 N   0  0  0  0  0  0
   -5.7021  -24.4091  -11.8203 C   0  0  0  0  0  0
   -2.9710  -22.5372  -11.8727 O   0  0  0  0  0  0
   -9.3500  -20.9605  -10.1952 O   0  0  0  0  0  0
   -5.6002  -19.9813  -13.6107 O   0  0  0  0  0  0
   -2.8313  -19.5911  -12.9089 C   0  0  0  0  0  0
   -7.7544  -17.1601   -9.5890 C   0  0  0  0  0  0
  -10.8888  -16.8414   -8.9010 C   0  0  0  0  0  0
  -10.6098  -14.0628   -8.4212 O   0  0  0  0  0  0
   -3.2690  -22.1690   -8.2895 C   0  0  0  0  0  0
  -12.9163  -13.5573   -8.8976 C   0  0  0  0  0  0
   -1.4775  -19.1072  -12.4072 C   0  0  0  0  0  0
  -11.2284  -18.2600  -10.8198 O   0  0  0  0  0  0
   -7.4973  -15.9602  -10.5421 C   0  0  0  0  0  0
  -12.8675  -12.1965   -8.1430 C   0  0  0  0  0  0
   -2.5420  -20.9011   -7.7781 C   0  0  0  0  0  0
   -2.8566  -23.3803   -7.4289 C   0  0  0  0  0  0
   -4.8079  -22.0079   -8.2133 C   0  0  0  0  0  0
   -0.2941  -19.7600  -12.8161 C   0  0  0  0  0  0
   -1.3763  -17.9388  -11.6206 C   0  0  0  0  0  0
   -6.3489  -15.0787  -10.0100 C   0  0  0  0  0  0
   -7.1736  -16.3608  -12.0055 C   0  0  0  0  0  0
  -11.7027  -11.2628   -8.5413 C   0  0  0  0  0  0
  -12.9240  -12.3774   -6.6204 C   0  0  0  0  0  0
   -0.1279  -17.4605  -11.2417 C   0  0  0  0  0  0
    0.9437  -19.2666  -12.4220 C   0  0  0  0  0  0
   -6.9926  -15.1271  -12.9135 C   0  0  0  0  0  0
   -6.2119  -13.8061  -10.8642 C   0  0  0  0  0  0
    1.0287  -18.1203  -11.6419 C   0  0  0  0  0  0
   -5.9509  -14.1469  -12.3415 C   0  0  0  0  0  0
   -5.9102  -20.8611  -10.6001 H   0  0  0  0  0  0
   -7.8232  -18.6447  -11.6834 H   0  0  0  0  0  0
   -7.8527  -21.0086  -12.8682 H   0  0  0  0  0  0
   -3.2497  -20.1109   -9.8436 H   0  0  0  0  0  0
   -4.1243  -18.8110  -11.4228 H   0  0  0  0  0  0
   -9.0706  -18.7279   -9.0400 H   0  0  0  0  0  0
   -7.5337  -22.8669  -10.4428 H   0  0  0  0  0  0
   -8.6833  -23.0553  -11.7388 H   0  0  0  0  0  0
   -7.2878  -23.1277  -14.2683 H   0  0  0  0  0  0
   -5.4571  -24.7171  -14.9914 H   0  0  0  0  0  0
  -10.1206  -16.5873  -10.9302 H   0  0  0  0  0  0
  -12.8282  -16.1038   -9.3385 H   0  0  0  0  0  0
   -5.3858  -24.6373  -10.8115 H   0  0  0  0  0  0
   -3.1615  -18.8698  -13.6586 H   0  0  0  0  0  0
   -2.6704  -20.5269  -13.4491 H   0  0  0  0  0  0
   -7.9300  -16.7592   -8.5909 H   0  0  0  0  0  0
   -6.8333  -17.7332   -9.4786 H   0  0  0  0  0  0
  -11.3225  -17.6628   -8.3371 H   0  0  0  0  0  0
  -10.0959  -16.4868   -8.2443 H   0  0  0  0  0  0
  -13.0678  -13.3662   -9.9597 H   0  0  0  0  0  0
  -13.7834  -14.1112   -8.5365 H   0  0  0  0  0  0
  -10.8031  -18.6771  -11.5734 H   0  0  0  0  0  0
   -8.3863  -15.3265  -10.5555 H   0  0  0  0  0  0
  -13.7826  -11.6683   -8.4205 H   0  0  0  0  0  0
   -2.8886  -19.9846   -8.2574 H   0  0  0  0  0  0
   -2.6938  -20.7700   -6.7057 H   0  0  0  0  0  0
   -1.4673  -20.9723   -7.9459 H   0  0  0  0  0  0
   -3.3561  -24.2933   -7.7603 H   0  0  0  0  0  0
   -1.7835  -23.5642   -7.4932 H   0  0  0  0  0  0
   -3.1017  -23.2315   -6.3757 H   0  0  0  0  0  0
   -5.3150  -22.8522   -8.6914 H   0  0  0  0  0  0
   -5.1515  -21.9645   -7.1779 H   0  0  0  0  0  0
   -5.1589  -21.0976   -8.7006 H   0  0  0  0  0  0
   -0.3398  -20.6469  -13.4332 H   0  0  0  0  0  0
   -2.2658  -17.4013  -11.3213 H   0  0  0  0  0  0
   -6.5533  -14.7925   -8.9758 H   0  0  0  0  0  0
   -5.4145  -15.6408   -9.9658 H   0  0  0  0  0  0
   -6.2849  -16.9917  -12.0381 H   0  0  0  0  0  0
   -7.9723  -16.9721  -12.4207 H   0  0  0  0  0  0
  -10.7444  -11.5954   -8.1437 H   0  0  0  0  0  0
  -11.5945  -11.1809   -9.6204 H   0  0  0  0  0  0
  -11.8690  -10.2580   -8.1530 H   0  0  0  0  0  0
  -12.0369  -12.8917   -6.2505 H   0  0  0  0  0  0
  -12.9875  -11.4153   -6.1106 H   0  0  0  0  0  0
  -13.7949  -12.9585   -6.3190 H   0  0  0  0  0  0
   -0.0579  -16.5680  -10.6364 H   0  0  0  0  0  0
    1.8456  -19.7787  -12.7268 H   0  0  0  0  0  0
   -7.9514  -14.6187  -13.0320 H   0  0  0  0  0  0
   -6.6864  -15.4462  -13.9109 H   0  0  0  0  0  0
   -7.1380  -13.2349  -10.7930 H   0  0  0  0  0  0
   -5.4115  -13.1780  -10.4767 H   0  0  0  0  0  0
    1.9947  -17.7426  -11.3412 H   0  0  0  0  0  0
   -5.9250  -13.2371  -12.9401 H   0  0  0  0  0  0
   -4.9613  -14.5943  -12.4212 H   0  0  0  0  0  0
  1  5  1  0  0  0
  1  6  1  0  0  0
  1 21  2  0  0  0
  2  4  1  0  0  0
  2  9  1  0  0  0
  2 22  2  0  0  0
  3  8  1  0  0  0
  3 16  1  0  0  0
  3 20  2  0  0  0
  4  6  1  0  0  0
  4 48  1  0  0  0
  5 11  1  0  0  0
  5 49  1  0  0  0
  6 12  1  0  0  0
  6 50  1  0  0  0
  7 10  1  0  0  0
  7 56  1  0  0  0
  7 14  1  0  0  0
  8  9  1  0  0  0
  8 51  1  0  0  0
  9 23  1  0  0  0
  9 52  1  0  0  0
 10 19  2  0  0  0
 10 12  1  0  0  0
 11 17  1  0  0  0
 11 24  1  0  0  0
 11 53  1  0  0  0
 12 54  1  0  0  0
 12 55  1  0  0  0
 13 14  2  0  0  0
 13 19  1  0  0  0
 14 57  1  0  0  0
 15 18  1  0  0  0
 15 26  2  0  0  0
 15 28  1  0  0  0
 16 27  1  0  0  0
 17 25  1  0  0  0
 17 30  1  0  0  0
 17 58  1  0  0  0
 18 25  1  0  0  0
 18 59  1  0  0  0
 19 60  1  0  0  0
 23 29  1  0  0  0
 23 61  1  0  0  0
 23 62  1  0  0  0
 24 31  1  0  0  0
 24 63  1  0  0  0
 24 64  1  0  0  0
 25 65  1  0  0  0
 25 66  1  0  0  0
 27 33  1  0  0  0
 27 34  1  0  0  0
 27 35  1  0  0  0
 28 32  1  0  0  0
 28 67  1  0  0  0
 28 68  1  0  0  0
 29 36  1  0  0  0
 29 37  2  0  0  0
 30 69  1  0  0  0
 31 38  1  0  0  0
 31 39  1  0  0  0
 31 70  1  0  0  0
 32 40  1  0  0  0
 32 41  1  0  0  0
 32 71  1  0  0  0
 33 72  1  0  0  0
 33 73  1  0  0  0
 33 74  1  0  0  0
 34 75  1  0  0  0
 34 76  1  0  0  0
 34 77  1  0  0  0
 35 78  1  0  0  0
 35 79  1  0  0  0
 35 80  1  0  0  0
 36 43  2  0  0  0
 36 81  1  0  0  0
 37 42  1  0  0  0
 37 82  1  0  0  0
 38 45  1  0  0  0
 38 83  1  0  0  0
 38 84  1  0  0  0
 39 44  1  0  0  0
 39 85  1  0  0  0
 39 86  1  0  0  0
 40 87  1  0  0  0
 40 88  1  0  0  0
 40 89  1  0  0  0
 41 90  1  0  0  0
 41 91  1  0  0  0
 41 92  1  0  0  0
 42 46  2  0  0  0
 42 93  1  0  0  0
 43 46  1  0  0  0
 43 94  1  0  0  0
 44 47  1  0  0  0
 44 95  1  0  0  0
 44 96  1  0  0  0
 45 47  1  0  0  0
 45 97  1  0  0  0
 45 98  1  0  0  0
 46 99  1  0  0  0
 47100  1  0  0  0
 47101  1  0  0  0
M  END
> <s_m_entry_id>
26479

> <s_m_entry_name>
dock_pv.303

> <s_m_Source_Path>
/home/csk/Desktop/cluster/DUD-E-result/reni

> <s_m_Source_File>
dock_pv.maegz

> <i_m_Source_File_Index>
303

> <chembl_id>
CHEMBL3143348

> <chembl_pref_name>
None

> <i_lp_mmshare_version>
53161

> <r_lp_tautomer_probability>
0.499999999999999

> <s_lp_Force_Field>
OPLS_2005

> <r_lp_Energy>
19.386168

> <b_lp_Chiralities_Consistent>
1

> <s_lp_Variant>
CHEMBL286_lig968-2

> <s_i_glide_gridfile>
glide-grid_3g6z

> <i_i_glide_lignum>
2584

> <i_i_glide_rotatable_bonds>
23

> <r_i_docking_score>
-6.80037560965928

> <r_i_glide_ligand_efficiency>
-0.144688842758708

> <r_i_glide_ligand_efficiency_sa>
-0.522156868582585

> <r_i_glide_ligand_efficiency_ln>
-1.40209663047401

> <r_i_glide_gscore>
-6.80037560965928

> <r_i_glide_lipo>
-2.79537227307336

> <r_i_glide_hbond>
-0.608

> <r_i_glide_metal>
0

> <r_i_glide_rewards>
0.384689201826158

> <r_i_glide_evdw>
-53.9882392883301

> <r_i_glide_ecoul>
-11.3725214004517

> <r_i_glide_erotb>
0.68911389930654

> <r_i_glide_esite>
-0.0655162632343576

> <r_i_glide_emodel>
-80.0618196812426

> <r_i_glide_energy>
-65.3607606887817

> <r_i_glide_einternal>
16.1672992706299

> <i_i_glide_confnum>
4

> <i_i_glide_posenum>
7

> <r_i_glide_eff_state_penalty>
0

> <s_user_duplicate_titles>
CHEMBL286_lig968

> <i_f3d_flags>
0

> <s_m_subgroup_title>
dock_pv

> <s_m_subgroupid>
dock_pv

> <b_m_subgroup_collapsed>
1

$$$$
294236
                    3D
 Schrodinger Suite 2021-1.
 74 76  0  0  1  0            999 V2000
   -6.7594  -14.7652  -13.4582 C   0  0  0  0  0  0
   -6.4277  -15.2148  -12.0234 C   0  0  0  0  0  0
   -6.3233  -13.9895  -11.0939 C   0  0  0  0  0  0
   -5.1650  -16.1120  -11.9119 C   0  0  0  0  0  0
   -5.0824  -17.2925  -12.9263 C   0  0  1  0  0  0
   -3.7732  -18.0629  -12.8074 C   0  0  0  0  0  0
   -3.6221  -19.2218  -13.2029 O   0  0  0  0  0  0
   -6.2479  -18.1925  -12.8210 N   0  0  0  0  0  0
   -6.5686  -19.0147  -11.8036 C   0  0  0  0  0  0
   -5.8584  -19.2306  -10.8203 O   0  0  0  0  0  0
   -7.9955  -19.5557  -11.8506 C   0  0  1  0  0  0
   -8.1789  -20.8985  -11.0986 C   0  0  0  0  0  0
   -7.2578  -22.0171  -11.5386 C   0  0  0  0  0  0
   -6.2651  -22.6931  -10.8611 C   0  0  0  0  0  0
   -5.6762  -23.6454  -11.6974 N   0  0  0  0  0  0
   -6.3210  -23.5064  -12.8488 C   0  0  0  0  0  0
   -7.2653  -22.5635  -12.8132 N   0  0  0  0  0  0
   -8.7315  -18.4631  -11.2309 N   0  0  0  0  0  0
  -10.0127  -18.3328  -10.8658 C   0  0  0  0  0  0
  -10.8844  -19.1814  -11.0563 O   0  0  0  0  0  0
  -10.3601  -16.9840  -10.1673 C   0  0  1  0  0  0
  -11.4654  -17.0641   -9.0818 C   0  0  0  0  0  0
  -11.8735  -15.7507   -8.4378 C   0  0  0  0  0  0
  -11.8799  -15.6333   -7.0353 C   0  0  0  0  0  0
  -12.2692  -14.4434   -6.4408 C   0  0  0  0  0  0
  -12.6543  -13.3620   -7.2219 C   0  0  0  0  0  0
  -12.6695  -13.4702   -8.6064 C   0  0  0  0  0  0
  -12.2992  -14.6602   -9.2184 C   0  0  0  0  0  0
   -9.2263  -16.1448   -9.7021 N   0  0  0  0  0  0
   -8.3322  -16.5691   -8.7261 C   0  0  0  0  0  0
   -8.3363  -17.6581   -8.1486 O   0  0  0  0  0  0
   -7.4485  -15.5868   -8.4999 O   0  0  0  0  0  0
   -6.3595  -15.7720   -7.6023 C   0  0  0  0  0  0
   -5.5411  -14.4921   -7.5065 C   0  0  0  0  0  0
   -6.1661  -13.2737   -7.2226 C   0  0  0  0  0  0
   -5.4098  -12.1088   -7.1364 C   0  0  0  0  0  0
   -4.0325  -12.1629   -7.3373 C   0  0  0  0  0  0
   -3.4036  -13.3733   -7.6192 C   0  0  0  0  0  0
   -4.1582  -14.5413   -7.6988 C   0  0  0  0  0  0
   -5.0752  -16.8883  -13.9364 H   0  0  0  0  0  0
   -7.8692  -22.3137  -13.5921 H   0  0  0  0  0  0
   -5.8689  -14.4657  -14.0072 H   0  0  0  0  0  0
   -7.4366  -13.9125  -13.4622 H   0  0  0  0  0  0
   -7.2493  -15.5607  -14.0170 H   0  0  0  0  0  0
   -7.2734  -15.8092  -11.6804 H   0  0  0  0  0  0
   -6.1559  -13.0679  -11.6544 H   0  0  0  0  0  0
   -7.2348  -13.8480  -10.5115 H   0  0  0  0  0  0
   -5.4964  -14.0835  -10.3892 H   0  0  0  0  0  0
   -4.2884  -15.4702  -12.0218 H   0  0  0  0  0  0
   -5.1040  -16.5005  -10.8933 H   0  0  0  0  0  0
   -2.9458  -17.4985  -12.3766 H   0  0  0  0  0  0
   -6.9460  -18.0622  -13.5484 H   0  0  0  0  0  0
   -8.2698  -19.6668  -12.8991 H   0  0  0  0  0  0
   -8.0301  -20.7463  -10.0292 H   0  0  0  0  0  0
   -9.2037  -21.2498  -11.2127 H   0  0  0  0  0  0
   -5.9270  -22.5633   -9.8433 H   0  0  0  0  0  0
   -6.1045  -24.0982  -13.7277 H   0  0  0  0  0  0
   -8.1313  -17.6830  -11.0037 H   0  0  0  0  0  0
  -10.7830  -16.4081  -10.9898 H   0  0  0  0  0  0
  -12.3594  -17.5711   -9.4483 H   0  0  0  0  0  0
  -11.0717  -17.6631   -8.2668 H   0  0  0  0  0  0
  -11.5713  -16.4629   -6.4180 H   0  0  0  0  0  0
  -12.2610  -14.3631   -5.3644 H   0  0  0  0  0  0
  -12.9499  -12.4364   -6.7485 H   0  0  0  0  0  0
  -12.9823  -12.6294   -9.2088 H   0  0  0  0  0  0
  -12.3296  -14.7518  -10.2914 H   0  0  0  0  0  0
   -9.1936  -15.1780   -9.9909 H   0  0  0  0  0  0
   -6.7136  -16.0443   -6.6056 H   0  0  0  0  0  0
   -5.7284  -16.5857   -7.9675 H   0  0  0  0  0  0
   -7.2353  -13.2268   -7.0750 H   0  0  0  0  0  0
   -5.8854  -11.1668   -6.9144 H   0  0  0  0  0  0
   -3.4487  -11.2564   -7.2738 H   0  0  0  0  0  0
   -2.3355  -13.4071   -7.7745 H   0  0  0  0  0  0
   -3.6690  -15.4806   -7.9148 H   0  0  0  0  0  0
  1  2  1  0  0  0
  1 42  1  0  0  0
  1 43  1  0  0  0
  1 44  1  0  0  0
  2  3  1  0  0  0
  2  4  1  0  0  0
  2 45  1  0  0  0
  3 46  1  0  0  0
  3 47  1  0  0  0
  3 48  1  0  0  0
  4  5  1  0  0  0
  4 49  1  0  0  0
  4 50  1  0  0  0
  5 40  1  0  0  0
  5  6  1  0  0  0
  5  8  1  0  0  0
  6  7  2  0  0  0
  6 51  1  0  0  0
  8  9  1  0  0  0
  8 52  1  0  0  0
  9 10  2  0  0  0
  9 11  1  0  0  0
 11 12  1  0  0  0
 11 18  1  0  0  0
 11 53  1  0  0  0
 12 54  1  0  0  0
 12 55  1  0  0  0
 12 13  1  0  0  0
 13 14  2  0  0  0
 13 17  1  0  0  0
 14 56  1  0  0  0
 14 15  1  0  0  0
 15 16  2  0  0  0
 16 17  1  0  0  0
 16 57  1  0  0  0
 17 41  1  0  0  0
 18 19  1  0  0  0
 18 58  1  0  0  0
 19 20  2  0  0  0
 19 21  1  0  0  0
 21 22  1  0  0  0
 21 29  1  0  0  0
 21 59  1  0  0  0
 22 23  1  0  0  0
 22 60  1  0  0  0
 22 61  1  0  0  0
 23 28  1  0  0  0
 23 24  2  0  0  0
 24 25  1  0  0  0
 24 62  1  0  0  0
 25 26  2  0  0  0
 25 63  1  0  0  0
 26 27  1  0  0  0
 26 64  1  0  0  0
 27 28  2  0  0  0
 27 65  1  0  0  0
 28 66  1  0  0  0
 29 30  1  0  0  0
 29 67  1  0  0  0
 30 31  2  0  0  0
 30 32  1  0  0  0
 32 33  1  0  0  0
 33 34  1  0  0  0
 33 68  1  0  0  0
 33 69  1  0  0  0
 34 39  1  0  0  0
 34 35  2  0  0  0
 35 36  1  0  0  0
 35 70  1  0  0  0
 36 37  2  0  0  0
 36 71  1  0  0  0
 37 38  1  0  0  0
 37 72  1  0  0  0
 38 39  2  0  0  0
 38 73  1  0  0  0
 39 74  1  0  0  0
M  END
> <s_m_entry_id>
27448

> <s_m_entry_name>
ligand_docking-pose.2

> <s_m_Source_Path>
/home/csk/Desktop/cluster/DUD-E-result/reni

> <s_m_Source_File>
ligand_docking-pose.sdf

> <i_m_Source_File_Index>
2

> <i_lp_mmshare_version>
53161

> <i_f3d_flags>
0

> <r_lp_tautomer_probability>
0.499950002499874

> <s_lp_Force_Field>
OPLS_2005

> <r_lp_Energy>
15.999189

> <b_lp_Chiralities_Consistent>
1

> <s_lp_Variant>
294236-8

> <s_i_glide_gridfile>
glide-grid_3g6z

> <i_i_glide_lignum>
392

> <i_i_glide_rotatable_bonds>
18

> <r_i_docking_score>
-8.99375715981506

> <r_i_glide_ligand_efficiency>
-0.230609157943976

> <r_i_glide_ligand_efficiency_sa>
-0.782044414328449

> <r_i_glide_ligand_efficiency_ln>
-1.92851683804354

> <r_i_glide_gscore>
-8.99375715981506

> <r_i_glide_lipo>
-4.20764989293679

> <r_i_glide_hbond>
-0.556830174584079

> <r_i_glide_metal>
0

> <r_i_glide_rewards>
-0.840909922543113

> <r_i_glide_evdw>
-49.4617881774902

> <r_i_glide_ecoul>
-11.2468700408936

> <r_i_glide_erotb>
0.941998931284355

> <r_i_glide_esite>
-0.170246186026887

> <r_i_glide_emodel>
-92.5230789126048

> <r_i_glide_energy>
-60.7086582183838

> <r_i_glide_einternal>
13.8985891342163

> <i_i_glide_confnum>
15

> <i_i_glide_posenum>
397

> <r_i_glide_eff_state_penalty>
0

> <s_user_duplicate_titles>
294236

> <s_m_subgroup_title>
dock_pv

> <s_m_subgroupid>
dock_pv1

> <b_m_subgroup_collapsed>
0

$$$$
612477
                    3D
 Schrodinger Suite 2021-1.
 76 80  0  0  1  0            999 V2000
   -5.4631  -11.6168   -6.9668 C   0  0  0  0  0  0
   -4.3726  -12.1121   -7.9187 C   0  0  0  0  0  0
   -4.6727  -13.1190   -8.8607 C   0  0  0  0  0  0
   -3.6504  -13.5900   -9.6968 C   0  0  0  0  0  0
   -2.3693  -13.0586   -9.6305 C   0  0  0  0  0  0
   -2.0837  -12.0554   -8.7134 C   0  0  0  0  0  0
   -3.0736  -11.5710   -7.8419 C   0  0  0  0  0  0
   -2.8285  -10.5731   -6.9116 O   0  0  0  0  0  0
   -1.5106  -10.0491   -6.7751 C   0  0  0  0  0  0
   -6.1027  -13.6878   -8.9565 C   0  0  0  0  0  0
   -6.3629  -14.7536   -9.9524 N   0  0  0  0  0  0
   -6.4269  -14.2827  -11.3529 C   0  0  0  0  0  0
   -7.5633  -14.6715  -12.2794 C   0  0  0  0  0  0
   -7.4688  -13.2630  -11.7574 C   0  0  0  0  0  0
   -6.2072  -16.0560   -9.5739 C   0  0  0  0  0  0
   -5.9063  -16.3784   -8.4224 O   0  0  0  0  0  0
   -6.3772  -17.0945  -10.5710 C   0  0  0  0  0  0
   -7.5786  -17.6592  -10.8951 C   0  0  0  0  0  0
   -7.5873  -18.8156  -11.8979 C   0  0  0  0  0  0
   -6.4259  -18.6946  -12.9102 C   0  0  0  0  0  0
   -5.1463  -18.6033  -12.2110 N   0  0  2  0  0  0
   -5.0842  -17.4479  -11.3159 C   0  0  0  0  0  0
   -8.8454  -17.4399  -10.1325 C   0  0  0  0  0  0
  -10.0189  -17.1530  -10.8397 C   0  0  0  0  0  0
  -11.2026  -16.8626  -10.1693 C   0  0  0  0  0  0
  -11.2347  -16.8634   -8.7744 C   0  0  0  0  0  0
  -10.0842  -17.1986   -8.0574 C   0  0  0  0  0  0
   -8.9023  -17.4906   -8.7331 C   0  0  0  0  0  0
  -12.5308  -16.5272   -8.0387 C   0  0  0  0  0  0
  -12.9715  -15.0602   -8.1959 C   0  0  0  0  0  0
  -12.0170  -14.0508   -7.5439 C   0  0  0  0  0  0
  -12.3646  -12.7548   -8.0118 O   0  0  0  0  0  0
  -11.6428  -11.7024   -7.4942 C   0  0  0  0  0  0
  -10.2690  -11.5697   -7.7169 C   0  0  0  0  0  0
   -9.5780  -10.4629   -7.2211 C   0  0  0  0  0  0
  -10.2547   -9.4662   -6.5251 C   0  0  0  0  0  0
  -11.6212   -9.5844   -6.3045 C   0  0  0  0  0  0
  -12.3110  -10.7105   -6.7718 C   0  0  0  0  0  0
  -13.9898  -10.9043   -6.4210 Cl  0  0  0  0  0  0
  -12.2658   -8.5973   -5.6338 F   0  0  0  0  0  0
   -9.5910  -12.5100   -8.4162 F   0  0  0  0  0  0
   -5.1438  -10.7974   -6.3218 H   0  0  0  0  0  0
   -6.3217  -11.2646   -7.5361 H   0  0  0  0  0  0
   -5.8032  -12.4320   -6.3274 H   0  0  0  0  0  0
   -3.8310  -14.3791  -10.4095 H   0  0  0  0  0  0
   -1.5975  -13.4271  -10.2922 H   0  0  0  0  0  0
   -1.0771  -11.6677   -8.6931 H   0  0  0  0  0  0
   -1.4989   -9.2643   -6.0212 H   0  0  0  0  0  0
   -0.8102  -10.8214   -6.4553 H   0  0  0  0  0  0
   -1.1529   -9.6065   -7.7046 H   0  0  0  0  0  0
   -6.7953  -12.8671   -9.1377 H   0  0  0  0  0  0
   -6.3739  -14.0432   -7.9609 H   0  0  0  0  0  0
   -5.4428  -14.1892  -11.8122 H   0  0  0  0  0  0
   -7.3266  -14.8799  -13.3237 H   0  0  0  0  0  0
   -8.3833  -15.2816  -11.9178 H   0  0  0  0  0  0
   -8.2019  -12.9335  -11.0223 H   0  0  0  0  0  0
   -7.1704  -12.4626  -12.4337 H   0  0  0  0  0  0
   -7.4815  -19.7530  -11.3498 H   0  0  0  0  0  0
   -8.5406  -18.8819  -12.4210 H   0  0  0  0  0  0
   -6.4176  -19.5666  -13.5651 H   0  0  0  0  0  0
   -6.5684  -17.8306  -13.5619 H   0  0  0  0  0  0
   -4.3850  -18.5470  -12.8722 H   0  0  0  0  0  0
   -4.8040  -16.5862  -11.9254 H   0  0  0  0  0  0
   -4.2596  -17.5871  -10.6139 H   0  0  0  0  0  0
  -10.0096  -17.1299  -11.9205 H   0  0  0  0  0  0
  -12.0904  -16.6246  -10.7374 H   0  0  0  0  0  0
  -10.1019  -17.2269   -6.9773 H   0  0  0  0  0  0
   -8.0238  -17.7444   -8.1583 H   0  0  0  0  0  0
  -12.4407  -16.7761   -6.9794 H   0  0  0  0  0  0
  -13.3145  -17.1832   -8.4215 H   0  0  0  0  0  0
  -13.9648  -14.9318   -7.7676 H   0  0  0  0  0  0
  -13.0693  -14.8307   -9.2574 H   0  0  0  0  0  0
  -10.9936  -14.2962   -7.8184 H   0  0  0  0  0  0
  -12.0898  -14.1001   -6.4560 H   0  0  0  0  0  0
   -8.5197  -10.3789   -7.4025 H   0  0  0  0  0  0
   -9.7258   -8.6006   -6.1582 H   0  0  0  0  0  0
  1  2  1  0  0  0
  1 42  1  0  0  0
  1 43  1  0  0  0
  1 44  1  0  0  0
  2  7  1  0  0  0
  2  3  2  0  0  0
  3  4  1  0  0  0
  3 10  1  0  0  0
  4  5  2  0  0  0
  4 45  1  0  0  0
  5  6  1  0  0  0
  5 46  1  0  0  0
  6  7  2  0  0  0
  6 47  1  0  0  0
  7  8  1  0  0  0
  8  9  1  0  0  0
  9 48  1  0  0  0
  9 49  1  0  0  0
  9 50  1  0  0  0
 10 11  1  0  0  0
 10 51  1  0  0  0
 10 52  1  0  0  0
 11 12  1  0  0  0
 11 15  1  0  0  0
 12 14  1  0  0  0
 12 13  1  0  0  0
 12 53  1  0  0  0
 13 14  1  0  0  0
 13 54  1  0  0  0
 13 55  1  0  0  0
 14 56  1  0  0  0
 14 57  1  0  0  0
 15 16  2  0  0  0
 15 17  1  0  0  0
 17 22  1  0  0  0
 17 18  2  0  0  0
 18 19  1  0  0  0
 18 23  1  0  0  0
 19 20  1  0  0  0
 19 58  1  0  0  0
 19 59  1  0  0  0
 20 21  1  0  0  0
 20 60  1  0  0  0
 20 61  1  0  0  0
 21 22  1  0  0  0
 21 62  1  0  0  0
 22 63  1  0  0  0
 22 64  1  0  0  0
 23 28  1  0  0  0
 23 24  2  0  0  0
 24 25  1  0  0  0
 24 65  1  0  0  0
 25 26  2  0  0  0
 25 66  1  0  0  0
 26 27  1  0  0  0
 26 29  1  0  0  0
 27 28  2  0  0  0
 27 67  1  0  0  0
 28 68  1  0  0  0
 29 30  1  0  0  0
 29 69  1  0  0  0
 29 70  1  0  0  0
 30 31  1  0  0  0
 30 71  1  0  0  0
 30 72  1  0  0  0
 31 32  1  0  0  0
 31 73  1  0  0  0
 31 74  1  0  0  0
 32 33  1  0  0  0
 33 38  1  0  0  0
 33 34  2  0  0  0
 34 35  1  0  0  0
 34 41  1  0  0  0
 35 36  2  0  0  0
 35 75  1  0  0  0
 36 37  1  0  0  0
 36 76  1  0  0  0
 37 38  2  0  0  0
 37 40  1  0  0  0
 38 39  1  0  0  0
M  END
> <s_m_entry_id>
27449

> <s_m_entry_name>
ligand_docking-pose.3

> <s_m_Source_Path>
/home/csk/Desktop/cluster/DUD-E-result/reni

> <s_m_Source_File>
ligand_docking-pose.sdf

> <i_m_Source_File_Index>
3

> <i_lp_mmshare_version>
53161

> <i_f3d_flags>
0

> <r_lp_tautomer_probability>
1

> <s_lp_Force_Field>
OPLS_2005

> <r_lp_Energy>
76.404943

> <b_lp_Chiralities_Consistent>
1

> <s_lp_Variant>
612477-1

> <s_i_glide_gridfile>
glide-grid_3g6z

> <i_i_glide_lignum>
59

> <i_i_glide_rotatable_bonds>
12

> <r_i_docking_score>
-8.9701786750536

> <r_i_glide_ligand_efficiency>
-0.218784845733015

> <r_i_glide_ligand_efficiency_sa>
-0.754417676057195

> <r_i_glide_ligand_efficiency_ln>
-1.90305325729866

> <r_i_glide_gscore>
-8.9701786750536

> <r_i_glide_lipo>
-5.50726530345754

> <r_i_glide_hbond>
0

> <r_i_glide_metal>
0

> <r_i_glide_rewards>
-1.11468132257934

> <r_i_glide_evdw>
-53.8571662902832

> <r_i_glide_ecoul>
-1.16007399559021

> <r_i_glide_erotb>
0.518637364835978

> <r_i_glide_esite>
0

> <r_i_glide_emodel>
-82.9941762307656

> <r_i_glide_energy>
-55.0172402858734

> <r_i_glide_einternal>
5.01216077804565

> <i_i_glide_confnum>
10

> <i_i_glide_posenum>
379

> <r_i_glide_eff_state_penalty>
0

> <s_user_duplicate_titles>
612477

> <s_m_subgroup_title>
dock_pv

> <s_m_subgroupid>
dock_pv1

> <b_m_subgroup_collapsed>
0

$$$$
116520
                    3D
 Schrodinger Suite 2021-1.
 80 83  0  0  1  0            999 V2000
   -4.2559  -12.9381   -7.7398 C   0  0  0  0  0  0
   -3.5876  -11.6187   -7.3038 C   0  0  0  0  0  0
   -4.6700  -10.6286   -6.8650 C   0  0  0  0  0  0
   -2.6930  -10.9628   -8.3809 C   0  0  0  0  0  0
   -1.3304  -11.6653   -8.6453 C   0  0  2  0  0  0
   -0.4474  -10.8752   -9.6039 C   0  0  0  0  0  0
   -0.2221   -9.6697   -9.4661 O   0  0  0  0  0  0
   -1.4718  -13.0449   -9.1532 N   0  0  0  0  0  0
   -2.1135  -13.4605  -10.2641 C   0  0  0  0  0  0
   -2.6849  -12.7089  -11.0544 O   0  0  0  0  0  0
   -2.0546  -14.9687  -10.5476 C   0  0  2  0  0  0
   -0.8351  -15.2414  -11.4481 C   0  0  0  0  0  0
   -0.3848  -16.6704  -11.6197 C   0  0  0  0  0  0
   -0.9709  -17.8374  -11.1832 C   0  0  0  0  0  0
   -0.1514  -18.8628  -11.6208 N   0  0  0  0  0  0
    0.8718  -18.3083  -12.2661 C   0  0  0  0  0  0
    0.7958  -16.9856  -12.3033 N   0  0  0  0  0  0
   -3.2870  -15.3970  -11.2211 N   0  0  0  0  0  0
   -4.3463  -15.9178  -10.5819 C   0  0  0  0  0  0
   -4.3261  -16.2470   -9.3944 O   0  0  0  0  0  0
   -5.6426  -16.0960  -11.4150 C   0  0  1  0  0  0
   -5.6550  -17.3865  -12.2849 C   0  0  0  0  0  0
   -5.8810  -18.6760  -11.4795 C   0  0  0  0  0  0
   -4.7686  -19.3921  -11.0369 C   0  0  0  0  0  0
   -4.9085  -20.5323  -10.2573 C   0  0  0  0  0  0
   -6.1710  -20.9918   -9.9012 C   0  0  0  0  0  0
   -7.3333  -20.3136  -10.3398 C   0  0  0  0  0  0
   -7.2017  -19.1404  -11.1542 C   0  0  0  0  0  0
   -8.3970  -18.4967  -11.5873 C   0  0  0  0  0  0
   -9.6494  -18.9793  -11.2198 C   0  0  0  0  0  0
   -9.7620  -20.1097  -10.4213 C   0  0  0  0  0  0
   -8.6250  -20.7778   -9.9810 C   0  0  0  0  0  0
   -6.8534  -15.9785  -10.5811 N   0  0  0  0  0  0
   -7.4569  -14.7593  -10.3241 C   0  0  0  0  0  0
   -7.1084  -13.6632  -10.7630 O   0  0  0  0  0  0
   -8.5055  -14.9632   -9.5057 O   0  0  0  0  0  0
   -9.3075  -13.8740   -9.0546 C   0  0  0  0  0  0
  -10.6793  -14.3373   -8.5683 C   0  0  0  0  0  0
  -11.1574  -15.6309   -8.8187 C   0  0  0  0  0  0
  -12.4054  -16.0168   -8.3357 C   0  0  0  0  0  0
  -13.1749  -15.1132   -7.6087 C   0  0  0  0  0  0
  -12.7148  -13.8205   -7.3680 C   0  0  0  0  0  0
  -11.4693  -13.4321   -7.8537 C   0  0  0  0  0  0
   -4.4901  -12.9391   -8.8049 H   0  0  0  0  0  0
   -3.6094  -13.7938   -7.5349 H   0  0  0  0  0  0
   -5.1971  -13.1130   -7.2129 H   0  0  0  0  0  0
   -2.9680  -11.8178   -6.4304 H   0  0  0  0  0  0
   -5.3658  -10.4644   -7.6883 H   0  0  0  0  0  0
   -5.2396  -11.0136   -6.0206 H   0  0  0  0  0  0
   -4.2529   -9.6649   -6.5724 H   0  0  0  0  0  0
   -2.4725   -9.9561   -8.0220 H   0  0  0  0  0  0
   -3.2571  -10.8242   -9.3061 H   0  0  0  0  0  0
   -0.7842  -11.7117   -7.7012 H   0  0  0  0  0  0
   -0.0073  -11.4453  -10.4207 H   0  0  0  0  0  0
   -1.0542  -13.7556   -8.5709 H   0  0  0  0  0  0
   -1.9236  -15.4978   -9.6007 H   0  0  0  0  0  0
   -1.0603  -14.8236  -12.4237 H   0  0  0  0  0  0
    0.0294  -14.6956  -11.0725 H   0  0  0  0  0  0
   -0.2787  -19.8509  -11.4485 H   0  0  0  0  0  0
   -1.8717  -18.0131  -10.6125 H   0  0  0  0  0  0
    1.6806  -18.8745  -12.7078 H   0  0  0  0  0  0
   -3.3811  -15.1180  -12.1928 H   0  0  0  0  0  0
   -5.6543  -15.2770  -12.1401 H   0  0  0  0  0  0
   -4.7132  -17.4668  -12.8316 H   0  0  0  0  0  0
   -6.3965  -17.3143  -13.0812 H   0  0  0  0  0  0
   -3.7755  -19.0492  -11.2866 H   0  0  0  0  0  0
   -4.0285  -21.0603   -9.9198 H   0  0  0  0  0  0
   -6.2688  -21.8780   -9.2893 H   0  0  0  0  0  0
   -8.3502  -17.6215  -12.2179 H   0  0  0  0  0  0
  -10.5371  -18.4723  -11.5677 H   0  0  0  0  0  0
  -10.7402  -20.4758  -10.1472 H   0  0  0  0  0  0
   -8.7210  -21.6603   -9.3645 H   0  0  0  0  0  0
   -7.2075  -16.8047  -10.1240 H   0  0  0  0  0  0
   -8.7871  -13.3714   -8.2382 H   0  0  0  0  0  0
   -9.4617  -13.1409   -9.8472 H   0  0  0  0  0  0
  -10.5700  -16.3445   -9.3791 H   0  0  0  0  0  0
  -12.7774  -17.0132   -8.5283 H   0  0  0  0  0  0
  -14.1411  -15.4180   -7.2318 H   0  0  0  0  0  0
  -13.3186  -13.1224   -6.8050 H   0  0  0  0  0  0
  -11.1138  -12.4284   -7.6601 H   0  0  0  0  0  0
  1  2  1  0  0  0
  1 44  1  0  0  0
  1 45  1  0  0  0
  1 46  1  0  0  0
  2  3  1  0  0  0
  2  4  1  0  0  0
  2 47  1  0  0  0
  3 48  1  0  0  0
  3 49  1  0  0  0
  3 50  1  0  0  0
  4  5  1  0  0  0
  4 51  1  0  0  0
  4 52  1  0  0  0
  5  6  1  0  0  0
  5  8  1  0  0  0
  5 53  1  0  0  0
  6  7  2  0  0  0
  6 54  1  0  0  0
  8  9  1  0  0  0
  8 55  1  0  0  0
  9 10  2  0  0  0
  9 11  1  0  0  0
 11 12  1  0  0  0
 11 18  1  0  0  0
 11 56  1  0  0  0
 12 57  1  0  0  0
 12 58  1  0  0  0
 12 13  1  0  0  0
 13 14  2  0  0  0
 13 17  1  0  0  0
 14 60  1  0  0  0
 14 15  1  0  0  0
 15 59  1  0  0  0
 15 16  1  0  0  0
 16 61  1  0  0  0
 16 17  2  0  0  0
 18 19  1  0  0  0
 18 62  1  0  0  0
 19 20  2  0  0  0
 19 21  1  0  0  0
 21 22  1  0  0  0
 21 33  1  0  0  0
 21 63  1  0  0  0
 22 23  1  0  0  0
 22 64  1  0  0  0
 22 65  1  0  0  0
 23 28  1  0  0  0
 23 24  2  0  0  0
 24 25  1  0  0  0
 24 66  1  0  0  0
 25 26  2  0  0  0
 25 67  1  0  0  0
 26 27  1  0  0  0
 26 68  1  0  0  0
 27 32  2  0  0  0
 27 28  1  0  0  0
 28 29  2  0  0  0
 29 30  1  0  0  0
 29 69  1  0  0  0
 30 31  2  0  0  0
 30 70  1  0  0  0
 31 32  1  0  0  0
 31 71  1  0  0  0
 32 72  1  0  0  0
 33 34  1  0  0  0
 33 73  1  0  0  0
 34 35  2  0  0  0
 34 36  1  0  0  0
 36 37  1  0  0  0
 37 38  1  0  0  0
 37 74  1  0  0  0
 37 75  1  0  0  0
 38 43  1  0  0  0
 38 39  2  0  0  0
 39 40  1  0  0  0
 39 76  1  0  0  0
 40 41  2  0  0  0
 40 77  1  0  0  0
 41 42  1  0  0  0
 41 78  1  0  0  0
 42 43  2  0  0  0
 42 79  1  0  0  0
 43 80  1  0  0  0
M  END
> <s_m_entry_id>
27451

> <s_m_entry_name>
ligand_docking-pose.5

> <s_m_Source_Path>
/home/csk/Desktop/cluster/DUD-E-result/reni

> <s_m_Source_File>
ligand_docking-pose.sdf

> <i_m_Source_File_Index>
5

> <i_lp_mmshare_version>
53161

> <i_f3d_flags>
0

> <r_lp_tautomer_probability>
0.499950002499874

> <s_lp_Force_Field>
OPLS_2005

> <r_lp_Energy>
16.208656

> <b_lp_Chiralities_Consistent>
1

> <s_lp_Variant>
116520-13

> <s_i_glide_gridfile>
glide-grid_3g6z

> <i_i_glide_lignum>
223

> <i_i_glide_rotatable_bonds>
18

> <r_i_docking_score>
-8.8940864223176

> <r_i_glide_ligand_efficiency>
-0.206839219123665

> <r_i_glide_ligand_efficiency_sa>
-0.724640118181248

> <r_i_glide_ligand_efficiency_ln>
-1.8680345724183

> <r_i_glide_gscore>
-8.8940864223176

> <r_i_glide_lipo>
-3.08915908302457

> <r_i_glide_hbond>
-0.759734364458805

> <r_i_glide_metal>
0

> <r_i_glide_rewards>
-1.54596419141261

> <r_i_glide_evdw>
-50.9565277099609

> <r_i_glide_ecoul>
-10.7292718887329

> <r_i_glide_erotb>
0.695401966570958

> <r_i_glide_esite>
-0.0374135811845989

> <r_i_glide_emodel>
-87.3643710778465

> <r_i_glide_energy>
-61.6857995986938

> <r_i_glide_einternal>
14.7642374038696

> <i_i_glide_confnum>
15

> <i_i_glide_posenum>
178

> <r_i_glide_eff_state_penalty>
0

> <s_user_duplicate_titles>
116520

> <s_m_subgroup_title>
dock_pv

> <s_m_subgroupid>
dock_pv1

> <b_m_subgroup_collapsed>
0

$$$$
268815
                    3D
 Schrodinger Suite 2021-1.
 83 85  0  0  1  0            999 V2000
   -7.5835  -23.0404  -11.3172 C   0  0  0  0  0  0
   -7.5446  -22.0346  -10.1490 C   0  0  0  0  0  0
   -7.1522  -22.7350   -8.8352 C   0  0  0  0  0  0
   -8.8762  -21.2611   -9.9856 C   0  0  0  0  0  0
   -9.2911  -20.3344  -11.1719 C   0  0  1  0  0  0
  -10.6852  -19.6560  -10.9223 C   0  0  2  0  0  0
  -11.9367  -20.5489  -11.1638 C   0  0  0  0  0  0
  -13.0690  -20.0631  -11.2394 O   0  0  0  0  0  0
  -11.6676  -21.8693  -11.2964 O   0  0  0  0  0  0
  -12.6781  -22.7821  -11.7034 C   0  0  0  0  0  0
  -10.8819  -18.4245  -11.6210 O   0  0  0  0  0  0
   -8.2392  -19.3839  -11.5730 N   0  0  0  0  0  0
   -7.6500  -18.4636  -10.7906 C   0  0  0  0  0  0
   -7.8379  -18.3842   -9.5778 O   0  0  0  0  0  0
   -6.6912  -17.4886  -11.5154 C   0  0  2  0  0  0
   -5.2209  -17.9852  -11.5410 C   0  0  0  0  0  0
   -5.0026  -19.4029  -12.0227 C   0  0  0  0  0  0
   -4.2921  -20.4102  -11.4041 C   0  0  0  0  0  0
   -4.4497  -21.5393  -12.1888 N   0  0  0  0  0  0
   -5.2178  -21.1931  -13.2210 C   0  0  0  0  0  0
   -5.5495  -19.9077  -13.2124 N   0  0  0  0  0  0
   -6.7797  -16.0935  -11.0407 N   0  0  0  0  0  0
   -6.4550  -15.5862   -9.8313 C   0  0  0  0  0  0
   -5.9650  -16.2561   -8.9236 O   0  0  0  0  0  0
   -6.6926  -14.0702   -9.6181 C   0  0  1  0  0  0
   -7.8449  -13.7196   -8.5959 C   0  0  0  0  0  0
   -9.3268  -14.1383   -8.8210 C   0  0  0  0  0  0
   -9.6400  -15.4450   -9.2192 C   0  0  0  0  0  0
  -10.9398  -15.9283   -9.2215 C   0  0  0  0  0  0
  -11.9924  -15.1228   -8.8242 C   0  0  0  0  0  0
  -11.7592  -13.7921   -8.4210 C   0  0  0  0  0  0
  -10.4205  -13.2688   -8.4210 C   0  0  0  0  0  0
  -10.2690  -11.9063   -8.0174 C   0  0  0  0  0  0
  -11.3588  -11.1313   -7.6330 C   0  0  0  0  0  0
  -12.6380  -11.6631   -7.6309 C   0  0  0  0  0  0
  -12.8467  -12.9783   -8.0205 C   0  0  0  0  0  0
   -5.2856  -13.3711   -9.3426 C   0  0  0  0  0  0
   -5.0390  -12.5835   -8.0217 C   0  0  0  0  0  0
   -5.5551  -12.9869   -6.9786 O   0  0  0  0  0  0
   -4.2478  -11.4772   -8.0248 N   0  0  0  0  0  0
   -4.1071  -10.6263   -6.8379 C   0  0  0  0  0  0
   -3.4200  -11.0217   -9.1453 C   0  0  0  0  0  0
   -4.0713  -22.4572  -12.0024 H   0  0  0  0  0  0
   -8.3856  -23.7682  -11.1929 H   0  0  0  0  0  0
   -7.7372  -22.5418  -12.2742 H   0  0  0  0  0  0
   -6.6450  -23.5930  -11.3952 H   0  0  0  0  0  0
   -6.7596  -21.3088  -10.3634 H   0  0  0  0  0  0
   -7.8942  -23.4780   -8.5405 H   0  0  0  0  0  0
   -6.1907  -23.2413   -8.9269 H   0  0  0  0  0  0
   -7.0591  -22.0185   -8.0181 H   0  0  0  0  0  0
   -8.8235  -20.6645   -9.0729 H   0  0  0  0  0  0
   -9.6607  -21.9899   -9.7929 H   0  0  0  0  0  0
   -9.3930  -20.9950  -12.0252 H   0  0  0  0  0  0
  -10.6979  -19.3579   -9.8793 H   0  0  0  0  0  0
  -12.3770  -23.8010  -11.4582 H   0  0  0  0  0  0
  -13.6355  -22.5846  -11.2207 H   0  0  0  0  0  0
  -12.8278  -22.7239  -12.7831 H   0  0  0  0  0  0
  -10.7797  -18.5522  -12.5718 H   0  0  0  0  0  0
   -7.9938  -19.3757  -12.5551 H   0  0  0  0  0  0
   -7.0267  -17.4484  -12.5534 H   0  0  0  0  0  0
   -4.6282  -17.3296  -12.1806 H   0  0  0  0  0  0
   -4.7844  -17.9129  -10.5440 H   0  0  0  0  0  0
   -3.7260  -20.4192  -10.4840 H   0  0  0  0  0  0
   -5.5211  -21.8804  -13.9988 H   0  0  0  0  0  0
   -7.1739  -15.4624  -11.7218 H   0  0  0  0  0  0
   -7.0427  -13.6636  -10.5685 H   0  0  0  0  0  0
   -7.7941  -12.6428   -8.4855 H   0  0  0  0  0  0
   -7.5891  -14.1352   -7.6217 H   0  0  0  0  0  0
   -8.8812  -16.1588   -9.4635 H   0  0  0  0  0  0
  -11.1272  -16.9515   -9.5098 H   0  0  0  0  0  0
  -12.9997  -15.5167   -8.8227 H   0  0  0  0  0  0
   -9.3040  -11.4304   -7.9928 H   0  0  0  0  0  0
  -11.2122  -10.1024   -7.3358 H   0  0  0  0  0  0
  -13.4729  -11.0462   -7.3307 H   0  0  0  0  0  0
  -13.8447  -13.3885   -8.0218 H   0  0  0  0  0  0
   -4.4672  -14.0937   -9.3637 H   0  0  0  0  0  0
   -5.0698  -12.7354  -10.1984 H   0  0  0  0  0  0
   -4.8208  -10.8722   -6.0494 H   0  0  0  0  0  0
   -3.1029  -10.7149   -6.4214 H   0  0  0  0  0  0
   -4.2723   -9.5828   -7.1029 H   0  0  0  0  0  0
   -3.3186  -11.7429   -9.9536 H   0  0  0  0  0  0
   -3.8245  -10.0955   -9.5561 H   0  0  0  0  0  0
   -2.4066  -10.8146   -8.7958 H   0  0  0  0  0  0
  1  2  1  0  0  0
  1 44  1  0  0  0
  1 45  1  0  0  0
  1 46  1  0  0  0
  2  3  1  0  0  0
  2  4  1  0  0  0
  2 47  1  0  0  0
  3 48  1  0  0  0
  3 49  1  0  0  0
  3 50  1  0  0  0
  4  5  1  0  0  0
  4 51  1  0  0  0
  4 52  1  0  0  0
  5  6  1  0  0  0
  5 12  1  0  0  0
  5 53  1  0  0  0
  6  7  1  0  0  0
  6 11  1  0  0  0
  6 54  1  0  0  0
  7  8  2  0  0  0
  7  9  1  0  0  0
  9 10  1  0  0  0
 10 55  1  0  0  0
 10 56  1  0  0  0
 10 57  1  0  0  0
 11 58  1  0  0  0
 12 13  1  0  0  0
 12 59  1  0  0  0
 13 14  2  0  0  0
 13 15  1  0  0  0
 15 16  1  0  0  0
 15 22  1  0  0  0
 15 60  1  0  0  0
 16 17  1  0  0  0
 16 61  1  0  0  0
 16 62  1  0  0  0
 17 21  1  0  0  0
 17 18  2  0  0  0
 18 19  1  0  0  0
 18 63  1  0  0  0
 19 43  1  0  0  0
 19 20  1  0  0  0
 20 21  2  0  0  0
 20 64  1  0  0  0
 22 23  1  0  0  0
 22 65  1  0  0  0
 23 24  2  0  0  0
 23 25  1  0  0  0
 25 26  1  0  0  0
 25 37  1  0  0  0
 25 66  1  0  0  0
 26 27  1  0  0  0
 26 67  1  0  0  0
 26 68  1  0  0  0
 27 32  1  0  0  0
 27 28  2  0  0  0
 28 29  1  0  0  0
 28 69  1  0  0  0
 29 30  2  0  0  0
 29 70  1  0  0  0
 30 31  1  0  0  0
 30 71  1  0  0  0
 31 36  2  0  0  0
 31 32  1  0  0  0
 32 33  2  0  0  0
 33 34  1  0  0  0
 33 72  1  0  0  0
 34 35  2  0  0  0
 34 73  1  0  0  0
 35 36  1  0  0  0
 35 74  1  0  0  0
 36 75  1  0  0  0
 37 38  1  0  0  0
 37 76  1  0  0  0
 37 77  1  0  0  0
 38 39  2  0  0  0
 38 40  1  0  0  0
 40 41  1  0  0  0
 40 42  1  0  0  0
 41 78  1  0  0  0
 41 79  1  0  0  0
 41 80  1  0  0  0
 42 81  1  0  0  0
 42 82  1  0  0  0
 42 83  1  0  0  0
M  END
> <s_m_entry_id>
27452

> <s_m_entry_name>
ligand_docking-pose.6

> <s_m_Source_Path>
/home/csk/Desktop/cluster/DUD-E-result/reni

> <s_m_Source_File>
ligand_docking-pose.sdf

> <i_m_Source_File_Index>
6

> <i_lp_mmshare_version>
53161

> <i_f3d_flags>
0

> <r_lp_tautomer_probability>
0.499999999999999

> <s_lp_Force_Field>
OPLS_2005

> <r_lp_Energy>
26.499809

> <b_lp_Chiralities_Consistent>
1

> <s_lp_Variant>
268815-10

> <s_i_glide_gridfile>
glide-grid_3g6z

> <i_i_glide_lignum>
164

> <i_i_glide_rotatable_bonds>
19

> <r_i_docking_score>
-8.69353185827676

> <r_i_glide_ligand_efficiency>
-0.206988853768494

> <r_i_glide_ligand_efficiency_sa>
-0.719498769997375

> <r_i_glide_ligand_efficiency_ln>
-1.83498060411961

> <r_i_glide_gscore>
-8.69353185827676

> <r_i_glide_lipo>
-3.66045687468285

> <r_i_glide_hbond>
-0.537178146436208

> <r_i_glide_metal>
0

> <r_i_glide_rewards>
-1.36019991177685

> <r_i_glide_evdw>
-50.0307731628418

> <r_i_glide_ecoul>
-8.50854396820068

> <r_i_glide_erotb>
0.709261727948742

> <r_i_glide_esite>
-0.067138399957391

> <r_i_glide_emodel>
-76.742111513297

> <r_i_glide_energy>
-58.5393171310425

> <r_i_glide_einternal>
22.220329284668

> <i_i_glide_confnum>
14

> <i_i_glide_posenum>
244

> <r_i_glide_eff_state_penalty>
0

> <s_user_duplicate_titles>
268815

> <s_m_subgroup_title>
dock_pv

> <s_m_subgroupid>
dock_pv1

> <b_m_subgroup_collapsed>
0

$$$$
84666
                    3D
 Schrodinger Suite 2021-1.
 81 84  0  0  1  0            999 V2000
   -0.6591  -17.6287  -11.3362 C   0  0  0  0  0  0
    0.0680  -16.2913  -11.0746 C   0  0  0  0  0  0
    1.2694  -16.5549  -10.1393 C   0  0  0  0  0  0
   -0.8993  -15.1875  -10.5476 C   0  0  2  0  0  0
   -1.9696  -14.7432  -11.5870 C   0  0  0  0  0  0
   -2.9171  -13.5395  -11.2901 C   0  0  1  0  0  0
   -3.9064  -13.6489  -10.0872 C   0  0  2  0  0  0
   -3.3126  -13.5812   -8.6492 C   0  0  0  0  0  0
   -2.7872  -12.1990   -8.1690 C   0  0  0  0  0  0
   -3.8254  -11.4631   -7.2902 C   0  0  0  0  0  0
   -3.3235  -10.0755   -6.8420 C   0  0  0  0  0  0
   -1.9161  -10.1266   -6.1995 C   0  0  0  0  0  0
   -0.9010  -10.9540   -7.0096 C   0  0  0  0  0  0
   -1.4791  -12.3368   -7.3594 C   0  0  0  0  0  0
   -4.7702  -14.8218  -10.1978 N   0  0  0  0  0  0
   -5.7921  -14.9400  -11.0615 C   0  0  0  0  0  0
   -5.9917  -14.1895  -12.0169 O   0  0  0  0  0  0
   -6.8014  -16.0633  -10.7360 C   0  0  2  0  0  0
   -7.1628  -16.9306  -11.9724 C   0  0  0  0  0  0
   -6.0700  -17.8434  -12.4833 C   0  0  0  0  0  0
   -6.0610  -19.1987  -12.7353 C   0  0  0  0  0  0
   -4.8057  -19.5892  -13.2089 N   0  0  0  0  0  0
   -4.1043  -18.4627  -13.2214 C   0  0  0  0  0  0
   -4.8037  -17.3985  -12.8215 N   0  0  0  0  0  0
   -8.0420  -15.5273  -10.1542 N   0  0  0  0  0  0
   -8.1787  -14.5579   -9.2209 C   0  0  0  0  0  0
   -7.2425  -13.9504   -8.6973 O   0  0  0  0  0  0
   -9.5927  -14.2264   -8.8221 C   0  0  0  0  0  0
   -9.9224  -12.9326   -8.4210 C   0  0  0  0  0  0
  -11.2414  -12.6554   -8.0069 C   0  0  0  0  0  0
  -11.6214  -11.3604   -7.5814 C   0  0  0  0  0  0
  -12.9226  -11.1205   -7.1577 C   0  0  0  0  0  0
  -13.8691  -12.1348   -7.1675 C   0  0  0  0  0  0
  -13.5206  -13.4193   -7.5764 C   0  0  0  0  0  0
  -12.2001  -13.7154   -8.0040 C   0  0  0  0  0  0
  -11.7642  -15.0122   -8.4219 C   0  0  0  0  0  0
  -10.4972  -15.2380   -8.8233 N   0  0  0  0  0  0
  -12.6691  -16.0391   -8.3892 O   0  0  0  0  0  0
   -2.2690  -12.2881  -11.3243 O   0  0  0  0  0  0
   -0.1535  -14.0628  -10.1288 O   0  0  0  0  0  0
   -1.3916  -15.6077   -9.6739 H   0  0  0  0  0  0
   -3.5449  -13.4896  -12.1797 H   0  0  0  0  0  0
   -4.5590  -12.7714  -10.1490 H   0  0  0  0  0  0
   -6.3780  -16.7230   -9.9762 H   0  0  0  0  0  0
   -4.4901  -16.4346  -12.8271 H   0  0  0  0  0  0
   -1.0609  -18.0521  -10.4137 H   0  0  0  0  0  0
   -1.4942  -17.5175  -12.0215 H   0  0  0  0  0  0
    0.0134  -18.3725  -11.7677 H   0  0  0  0  0  0
    0.4845  -15.9496  -12.0206 H   0  0  0  0  0  0
    0.9417  -16.8558   -9.1430 H   0  0  0  0  0  0
    1.9134  -17.3466  -10.5264 H   0  0  0  0  0  0
    1.8941  -15.6680  -10.0266 H   0  0  0  0  0  0
   -2.6091  -15.5964  -11.8073 H   0  0  0  0  0  0
   -1.4692  -14.5215  -12.5287 H   0  0  0  0  0  0
   -2.5516  -14.3398   -8.5192 H   0  0  0  0  0  0
   -4.0881  -13.8971   -7.9469 H   0  0  0  0  0  0
   -2.5715  -11.5564   -9.0205 H   0  0  0  0  0  0
   -4.0746  -12.0712   -6.4210 H   0  0  0  0  0  0
   -4.7669  -11.3667   -7.8336 H   0  0  0  0  0  0
   -4.0336   -9.6626   -6.1278 H   0  0  0  0  0  0
   -3.3112   -9.3992   -7.6959 H   0  0  0  0  0  0
   -2.0000  -10.5659   -5.2072 H   0  0  0  0  0  0
   -1.5250   -9.1181   -6.0553 H   0  0  0  0  0  0
    0.0264  -11.0661   -6.4438 H   0  0  0  0  0  0
   -0.6360  -10.4216   -7.9250 H   0  0  0  0  0  0
   -0.7379  -12.8911   -7.9312 H   0  0  0  0  0  0
   -1.6402  -12.9421   -6.4663 H   0  0  0  0  0  0
   -4.7145  -15.4818   -9.4353 H   0  0  0  0  0  0
   -8.0141  -17.5726  -11.7412 H   0  0  0  0  0  0
   -7.4933  -16.3061  -12.8050 H   0  0  0  0  0  0
   -6.8600  -19.9160  -12.6181 H   0  0  0  0  0  0
   -3.0821  -18.4083  -13.5662 H   0  0  0  0  0  0
   -8.8938  -15.9437  -10.5008 H   0  0  0  0  0  0
   -9.1787  -12.1488   -8.4045 H   0  0  0  0  0  0
  -10.8953  -10.5589   -7.5833 H   0  0  0  0  0  0
  -13.2022  -10.1304   -6.8214 H   0  0  0  0  0  0
  -14.8772  -11.9245   -6.8418 H   0  0  0  0  0  0
  -14.2690  -14.1953   -7.5604 H   0  0  0  0  0  0
  -13.5528  -15.7756   -8.1349 H   0  0  0  0  0  0
   -1.6073  -12.3120  -12.0202 H   0  0  0  0  0  0
    0.1217  -13.5730  -10.9166 H   0  0  0  0  0  0
  1  2  1  0  0  0
  1 46  1  0  0  0
  1 47  1  0  0  0
  1 48  1  0  0  0
  2  3  1  0  0  0
  2  4  1  0  0  0
  2 49  1  0  0  0
  3 50  1  0  0  0
  3 51  1  0  0  0
  3 52  1  0  0  0
  4 41  1  0  0  0
  4  5  1  0  0  0
  4 40  1  0  0  0
  5  6  1  0  0  0
  5 53  1  0  0  0
  5 54  1  0  0  0
  6 42  1  0  0  0
  6  7  1  0  0  0
  6 39  1  0  0  0
  7 43  1  0  0  0
  7  8  1  0  0  0
  7 15  1  0  0  0
  8  9  1  0  0  0
  8 55  1  0  0  0
  8 56  1  0  0  0
  9 14  1  0  0  0
  9 10  1  0  0  0
  9 57  1  0  0  0
 10 11  1  0  0  0
 10 58  1  0  0  0
 10 59  1  0  0  0
 11 12  1  0  0  0
 11 60  1  0  0  0
 11 61  1  0  0  0
 12 13  1  0  0  0
 12 62  1  0  0  0
 12 63  1  0  0  0
 13 14  1  0  0  0
 13 64  1  0  0  0
 13 65  1  0  0  0
 14 66  1  0  0  0
 14 67  1  0  0  0
 15 16  1  0  0  0
 15 68  1  0  0  0
 16 17  2  0  0  0
 16 18  1  0  0  0
 18 44  1  0  0  0
 18 19  1  0  0  0
 18 25  1  0  0  0
 19 69  1  0  0  0
 19 70  1  0  0  0
 19 20  1  0  0  0
 20 21  2  0  0  0
 20 24  1  0  0  0
 21 71  1  0  0  0
 21 22  1  0  0  0
 22 23  2  0  0  0
 23 24  1  0  0  0
 23 72  1  0  0  0
 24 45  1  0  0  0
 25 26  1  0  0  0
 25 73  1  0  0  0
 26 27  2  0  0  0
 26 28  1  0  0  0
 28 37  1  0  0  0
 28 29  2  0  0  0
 29 30  1  0  0  0
 29 74  1  0  0  0
 30 35  2  0  0  0
 30 31  1  0  0  0
 31 32  2  0  0  0
 31 75  1  0  0  0
 32 33  1  0  0  0
 32 76  1  0  0  0
 33 34  2  0  0  0
 33 77  1  0  0  0
 34 35  1  0  0  0
 34 78  1  0  0  0
 35 36  1  0  0  0
 36 37  2  0  0  0
 36 38  1  0  0  0
 38 79  1  0  0  0
 39 80  1  0  0  0
 40 81  1  0  0  0
M  END
> <s_m_entry_id>
27454

> <s_m_entry_name>
ligand_docking-pose.8

> <s_m_Source_Path>
/home/csk/Desktop/cluster/DUD-E-result/reni

> <s_m_Source_File>
ligand_docking-pose.sdf

> <i_m_Source_File_Index>
8

> <i_lp_mmshare_version>
53161

> <i_f3d_flags>
0

> <r_lp_tautomer_probability>
0.499999999999999

> <s_lp_Force_Field>
OPLS_2005

> <r_lp_Energy>
29.885446

> <b_lp_Chiralities_Consistent>
1

> <s_lp_Variant>
84666-2

> <s_i_glide_gridfile>
glide-grid_3g6z

> <i_i_glide_lignum>
429

> <i_i_glide_rotatable_bonds>
17

> <r_i_docking_score>
-8.56594888132372

> <r_i_glide_ligand_efficiency>
-0.214148722033093

> <r_i_glide_ligand_efficiency_sa>
-0.732378326475734

> <r_i_glide_ligand_efficiency_ln>
-1.82686481176395

> <r_i_glide_gscore>
-8.56594888132372

> <r_i_glide_lipo>
-3.64275801379121

> <r_i_glide_hbond>
-0.40031769268314

> <r_i_glide_metal>
0

> <r_i_glide_rewards>
-0.950514062433691

> <r_i_glide_evdw>
-49.6599731445312

> <r_i_glide_ecoul>
-11.6248750686646

> <r_i_glide_erotb>
0.679187442795688

> <r_i_glide_esite>
-0.0248166376851248

> <r_i_glide_emodel>
-87.2321070913815

> <r_i_glide_energy>
-61.2848482131958

> <r_i_glide_einternal>
11.239296913147

> <i_i_glide_confnum>
43

> <i_i_glide_posenum>
114

> <r_i_glide_eff_state_penalty>
0

> <s_user_duplicate_titles>
84666

> <s_m_subgroup_title>
dock_pv

> <s_m_subgroupid>
dock_pv1

> <b_m_subgroup_collapsed>
0

$$$$
115994
                    3D
 Schrodinger Suite 2021-1.
 88 89  0  0  1  0            999 V2000
  -11.8146  -22.7019  -11.1839 C   0  0  0  0  0  0
  -12.4891  -21.3251  -11.0433 C   0  0  0  0  0  0
  -13.7177  -21.2432  -11.9686 C   0  0  0  0  0  0
  -11.4327  -20.1866  -11.1811 C   0  0  0  0  0  0
  -11.9403  -18.7177  -11.2276 C   0  0  1  0  0  0
  -10.8409  -17.6198  -11.0535 C   0  0  1  0  0  0
  -10.2660  -17.4762   -9.6044 C   0  0  2  0  0  0
  -11.3131  -17.1286   -8.4965 C   0  0  0  0  0  0
  -11.5968  -15.6343   -8.1544 C   0  0  0  0  0  0
  -12.3709  -14.8621   -9.2397 C   0  0  0  0  0  0
  -12.5110  -13.3715   -8.8774 C   0  0  0  0  0  0
  -13.2251  -13.1945   -7.5308 C   0  0  0  0  0  0
  -12.6106  -14.0626   -6.4174 C   0  0  0  0  0  0
  -12.3891  -15.5278   -6.8311 C   0  0  0  0  0  0
   -9.1269  -16.5533   -9.5631 N   0  0  0  0  0  0
   -8.2002  -16.4893   -8.5956 C   0  0  0  0  0  0
   -8.1576  -17.2612   -7.6381 O   0  0  0  0  0  0
   -7.1890  -15.3394   -8.7320 C   0  0  1  0  0  0
   -6.0733  -15.3270   -7.6651 C   0  0  0  0  0  0
   -5.3900  -13.9858   -7.5412 C   0  0  0  0  0  0
   -5.8102  -12.8767   -6.8336 C   0  0  0  0  0  0
   -4.8473  -11.9007   -7.0248 N   0  0  0  0  0  0
   -3.9164  -12.4296   -7.8214 C   0  0  0  0  0  0
   -4.1782  -13.6823   -8.1694 N   0  0  0  0  0  0
   -6.6208  -15.3426  -10.0823 N   0  0  0  0  0  0
   -7.0783  -14.5928  -11.0969 C   0  0  0  0  0  0
   -7.8686  -13.6630  -10.9259 O   0  0  0  0  0  0
   -6.6257  -14.9747  -12.5341 C   0  0  2  0  0  0
   -7.5058  -14.3355  -13.6223 C   0  0  0  0  0  0
   -6.5704  -16.4253  -12.8160 N   0  0  0  0  0  0
   -5.5367  -17.2226  -12.3516 C   0  0  0  0  0  0
   -4.5955  -16.8495  -11.6506 O   0  0  0  0  0  0
   -5.7640  -18.5003  -12.7390 O   0  0  0  0  0  0
   -5.0561  -19.6473  -12.2399 C   0  0  0  0  0  0
   -5.2613  -19.8037  -10.7131 C   0  0  0  0  0  0
   -3.5497  -19.5813  -12.5895 C   0  0  0  0  0  0
   -5.7144  -20.8392  -12.9598 C   0  0  0  0  0  0
   -9.7717  -17.8475  -11.9676 O   0  0  0  0  0  0
  -12.6690  -18.4630  -12.4206 O   0  0  0  0  0  0
  -12.6677  -18.6200  -10.4320 H   0  0  0  0  0  0
  -11.2727  -16.6585  -11.3276 H   0  0  0  0  0  0
  -11.3910  -22.8348  -12.1790 H   0  0  0  0  0  0
  -11.0053  -22.8251  -10.4635 H   0  0  0  0  0  0
  -12.5247  -23.5117  -11.0177 H   0  0  0  0  0  0
  -12.8886  -21.2629  -10.0296 H   0  0  0  0  0  0
  -13.4688  -21.2784  -13.0260 H   0  0  0  0  0  0
  -14.4044  -22.0652  -11.7736 H   0  0  0  0  0  0
  -14.2734  -20.3282  -11.7910 H   0  0  0  0  0  0
  -10.7738  -20.3790  -12.0209 H   0  0  0  0  0  0
  -10.7715  -20.2804  -10.3194 H   0  0  0  0  0  0
   -9.8644  -18.4611   -9.3600 H   0  0  0  0  0  0
  -12.2478  -17.6600   -8.6607 H   0  0  0  0  0  0
  -10.9200  -17.5755   -7.5791 H   0  0  0  0  0  0
  -10.6564  -15.1097   -8.0208 H   0  0  0  0  0  0
  -11.8690  -14.9509  -10.1957 H   0  0  0  0  0  0
  -13.3482  -15.3122   -9.3871 H   0  0  0  0  0  0
  -11.5229  -12.9095   -8.8206 H   0  0  0  0  0  0
  -13.0596  -12.8447   -9.6599 H   0  0  0  0  0  0
  -13.2169  -12.1444   -7.2351 H   0  0  0  0  0  0
  -14.2715  -13.4688   -7.6406 H   0  0  0  0  0  0
  -11.6682  -13.6280   -6.0834 H   0  0  0  0  0  0
  -13.2899  -14.0522   -5.5751 H   0  0  0  0  0  0
  -13.3453  -16.0496   -6.9279 H   0  0  0  0  0  0
  -11.8591  -16.0559   -6.0375 H   0  0  0  0  0  0
   -9.0485  -15.9098  -10.3374 H   0  0  0  0  0  0
   -7.7807  -14.4350   -8.5700 H   0  0  0  0  0  0
   -6.4793  -15.5657   -6.6823 H   0  0  0  0  0  0
   -5.3233  -16.0923   -7.8775 H   0  0  0  0  0  0
   -4.8422  -10.9714   -6.6295 H   0  0  0  0  0  0
   -6.6852  -12.7185   -6.2235 H   0  0  0  0  0  0
   -3.0360  -11.8932   -8.1473 H   0  0  0  0  0  0
   -5.9284  -16.0537  -10.2836 H   0  0  0  0  0  0
   -5.6313  -14.5416  -12.6589 H   0  0  0  0  0  0
   -7.6185  -13.2642  -13.4611 H   0  0  0  0  0  0
   -7.0682  -14.4632  -14.6079 H   0  0  0  0  0  0
   -8.5051  -14.7704  -13.6316 H   0  0  0  0  0  0
   -7.3145  -16.8621  -13.3511 H   0  0  0  0  0  0
   -4.8327  -20.7376  -10.3465 H   0  0  0  0  0  0
   -6.3216  -19.8021  -10.4557 H   0  0  0  0  0  0
   -4.7965  -18.9923  -10.1511 H   0  0  0  0  0  0
   -3.3906  -19.2699  -13.6209 H   0  0  0  0  0  0
   -3.0186  -18.8644  -11.9615 H   0  0  0  0  0  0
   -3.0630  -20.5487  -12.4522 H   0  0  0  0  0  0
   -5.6671  -20.7336  -14.0411 H   0  0  0  0  0  0
   -5.2370  -21.7836  -12.6968 H   0  0  0  0  0  0
   -6.7717  -20.9209  -12.7042 H   0  0  0  0  0  0
  -10.0520  -17.6754  -12.8750 H   0  0  0  0  0  0
  -12.0641  -18.4631  -13.1788 H   0  0  0  0  0  0
  1  2  1  0  0  0
  1 42  1  0  0  0
  1 43  1  0  0  0
  1 44  1  0  0  0
  2  3  1  0  0  0
  2  4  1  0  0  0
  2 45  1  0  0  0
  3 46  1  0  0  0
  3 47  1  0  0  0
  3 48  1  0  0  0
  4  5  1  0  0  0
  4 49  1  0  0  0
  4 50  1  0  0  0
  5 40  1  0  0  0
  5  6  1  0  0  0
  5 39  1  0  0  0
  6 41  1  0  0  0
  6  7  1  0  0  0
  6 38  1  0  0  0
  7  8  1  0  0  0
  7 15  1  0  0  0
  7 51  1  0  0  0
  8  9  1  0  0  0
  8 52  1  0  0  0
  8 53  1  0  0  0
  9 14  1  0  0  0
  9 10  1  0  0  0
  9 54  1  0  0  0
 10 11  1  0  0  0
 10 55  1  0  0  0
 10 56  1  0  0  0
 11 12  1  0  0  0
 11 57  1  0  0  0
 11 58  1  0  0  0
 12 13  1  0  0  0
 12 59  1  0  0  0
 12 60  1  0  0  0
 13 14  1  0  0  0
 13 61  1  0  0  0
 13 62  1  0  0  0
 14 63  1  0  0  0
 14 64  1  0  0  0
 15 16  1  0  0  0
 15 65  1  0  0  0
 16 17  2  0  0  0
 16 18  1  0  0  0
 18 19  1  0  0  0
 18 25  1  0  0  0
 18 66  1  0  0  0
 19 67  1  0  0  0
 19 68  1  0  0  0
 19 20  1  0  0  0
 20 21  2  0  0  0
 20 24  1  0  0  0
 21 70  1  0  0  0
 21 22  1  0  0  0
 22 69  1  0  0  0
 22 23  1  0  0  0
 23 71  1  0  0  0
 23 24  2  0  0  0
 25 26  1  0  0  0
 25 72  1  0  0  0
 26 27  2  0  0  0
 26 28  1  0  0  0
 28 29  1  0  0  0
 28 30  1  0  0  0
 28 73  1  0  0  0
 29 74  1  0  0  0
 29 75  1  0  0  0
 29 76  1  0  0  0
 30 31  1  0  0  0
 30 77  1  0  0  0
 31 32  2  0  0  0
 31 33  1  0  0  0
 33 34  1  0  0  0
 34 35  1  0  0  0
 34 36  1  0  0  0
 34 37  1  0  0  0
 35 78  1  0  0  0
 35 79  1  0  0  0
 35 80  1  0  0  0
 36 81  1  0  0  0
 36 82  1  0  0  0
 36 83  1  0  0  0
 37 84  1  0  0  0
 37 85  1  0  0  0
 37 86  1  0  0  0
 38 87  1  0  0  0
 39 88  1  0  0  0
M  END
> <s_m_entry_id>
27456

> <s_m_entry_name>
ligand_docking-pose.10

> <s_m_Source_Path>
/home/csk/Desktop/cluster/DUD-E-result/reni

> <s_m_Source_File>
ligand_docking-pose.sdf

> <i_m_Source_File_Index>
10

> <i_lp_mmshare_version>
53161

> <i_f3d_flags>
0

> <r_lp_tautomer_probability>
0.499999999999999

> <s_lp_Force_Field>
OPLS_2005

> <r_lp_Energy>
16.18232

> <b_lp_Chiralities_Consistent>
1

> <s_lp_Variant>
115994-11

> <s_i_glide_gridfile>
glide-grid_3g6z

> <i_i_glide_lignum>
285

> <i_i_glide_rotatable_bonds>
20

> <r_i_docking_score>
-8.50069956593094

> <r_i_glide_ligand_efficiency>
-0.217966655536691

> <r_i_glide_ligand_efficiency_sa>
-0.739171015548887

> <r_i_glide_ligand_efficiency_ln>
-1.82279129364266

> <r_i_glide_gscore>
-8.50069956593094

> <r_i_glide_lipo>
-4.25757492285215

> <r_i_glide_hbond>
-0.124409074668136

> <r_i_glide_metal>
0

> <r_i_glide_rewards>
-1.29862865203867

> <r_i_glide_evdw>
-48.9180526733398

> <r_i_glide_ecoul>
-8.16358375549316

> <r_i_glide_erotb>
0.883450019961737

> <r_i_glide_esite>
-0.0330967393427493

> <r_i_glide_emodel>
-77.8743139955469

> <r_i_glide_energy>
-57.081636428833

> <r_i_glide_einternal>
12.6628942489624

> <i_i_glide_confnum>
47

> <i_i_glide_posenum>
256

> <r_i_glide_eff_state_penalty>
0

> <s_user_duplicate_titles>
115994

> <s_m_subgroup_title>
dock_pv

> <s_m_subgroupid>
dock_pv1

> <b_m_subgroup_collapsed>
0

$$$$
43022
                    3D
 Schrodinger Suite 2021-1.
 68 72  0  0  1  0            999 V2000
  -10.5470   -8.9878   -6.4450 C   0  0  0  0  0  0
  -11.8450   -9.2527   -6.0253 C   0  0  0  0  0  0
  -12.4652  -10.4390   -6.4211 C   0  0  0  0  0  0
  -11.7725  -11.3741   -7.2012 C   0  0  0  0  0  0
  -10.4785  -11.0876   -7.6210 C   0  0  0  0  0  0
   -9.8674   -9.8966   -7.2478 C   0  0  0  0  0  0
  -12.2691  -12.5983   -7.5902 O   0  0  0  0  0  0
  -13.4826  -13.1005   -7.0337 C   0  0  0  0  0  0
  -13.3627  -14.6268   -6.9673 C   0  0  0  0  0  0
  -13.0974  -15.1415   -8.2646 O   0  0  0  0  0  0
  -12.5682  -16.4630   -8.2889 C   0  0  0  0  0  0
  -11.2448  -16.4579   -9.0325 C   0  0  0  0  0  0
  -10.9111  -17.4894   -9.9118 C   0  0  0  0  0  0
   -9.6946  -17.4564  -10.5885 C   0  0  0  0  0  0
   -8.8110  -16.3914  -10.3860 C   0  0  0  0  0  0
   -9.1284  -15.3869   -9.4690 C   0  0  0  0  0  0
  -10.3532  -15.4090   -8.8210 C   0  0  0  0  0  0
   -7.5533  -16.2749  -11.2406 C   0  0  1  0  0  0
   -7.8352  -15.2654  -12.3837 C   0  0  0  0  0  0
   -6.5965  -14.9954  -13.2475 C   0  0  0  0  0  0
   -5.4696  -14.5668  -12.4210 N   0  0  1  0  0  0
   -5.1168  -15.6156  -11.4745 C   0  0  0  0  0  0
   -6.2793  -15.8144  -10.4762 C   0  0  2  0  0  0
   -5.9647  -16.6990   -9.3906 O   0  0  0  0  0  0
   -4.7598  -16.4374   -8.6571 C   0  0  0  0  0  0
   -4.6988  -15.0148   -8.1091 C   0  0  0  0  0  0
   -5.7967  -14.4590   -7.4506 C   0  0  0  0  0  0
   -5.7759  -13.1327   -7.0250 C   0  0  0  0  0  0
   -4.6212  -12.3369   -7.2295 C   0  0  0  0  0  0
   -4.5602  -10.9845   -6.8210 C   0  0  0  0  0  0
   -3.4046  -10.2377   -7.0312 C   0  0  0  0  0  0
   -2.2961  -10.8013   -7.6516 C   0  0  0  0  0  0
   -2.3256  -12.1247   -8.0789 C   0  0  0  0  0  0
   -3.4845  -12.9127   -7.8767 C   0  0  0  0  0  0
   -3.5461  -14.2571   -8.3079 C   0  0  0  0  0  0
   -7.3620  -17.2590  -11.6733 H   0  0  0  0  0  0
   -6.4863  -14.8429  -10.0284 H   0  0  0  0  0  0
  -10.0672   -8.0630   -6.1632 H   0  0  0  0  0  0
  -12.3759   -8.5287   -5.4247 H   0  0  0  0  0  0
  -13.4819  -10.6117   -6.1087 H   0  0  0  0  0  0
   -9.9450  -11.8029   -8.2271 H   0  0  0  0  0  0
   -8.8675   -9.6819   -7.5868 H   0  0  0  0  0  0
  -13.6721  -12.7456   -6.0210 H   0  0  0  0  0  0
  -14.3232  -12.7966   -7.6575 H   0  0  0  0  0  0
  -12.5431  -14.8631   -6.2850 H   0  0  0  0  0  0
  -14.2687  -15.0850   -6.5698 H   0  0  0  0  0  0
  -12.3937  -16.8630   -7.2891 H   0  0  0  0  0  0
  -13.2856  -17.1249   -8.7694 H   0  0  0  0  0  0
  -11.5969  -18.3057  -10.0850 H   0  0  0  0  0  0
   -9.4610  -18.2332  -11.3026 H   0  0  0  0  0  0
   -8.4777  -14.5420   -9.3080 H   0  0  0  0  0  0
  -10.6159  -14.6006   -8.1540 H   0  0  0  0  0  0
   -8.6007  -15.6659  -13.0489 H   0  0  0  0  0  0
   -8.2174  -14.3137  -12.0124 H   0  0  0  0  0  0
   -6.8127  -14.2209  -13.9837 H   0  0  0  0  0  0
   -6.3237  -15.8973  -13.7983 H   0  0  0  0  0  0
   -4.6756  -14.4623  -13.0588 H   0  0  0  0  0  0
   -4.2106  -15.2846  -10.9689 H   0  0  0  0  0  0
   -4.8733  -16.5474  -11.9869 H   0  0  0  0  0  0
   -4.6681  -17.1318   -7.8317 H   0  0  0  0  0  0
   -3.8951  -16.6573   -9.2852 H   0  0  0  0  0  0
   -6.6868  -15.0520   -7.2986 H   0  0  0  0  0  0
   -6.6392  -12.7071   -6.5337 H   0  0  0  0  0  0
   -5.4073  -10.5396   -6.3203 H   0  0  0  0  0  0
   -3.3656   -9.2119   -6.7055 H   0  0  0  0  0  0
   -1.4083  -10.2065   -7.8043 H   0  0  0  0  0  0
   -1.4641  -12.5561   -8.5676 H   0  0  0  0  0  0
   -2.6917  -14.6836   -8.8138 H   0  0  0  0  0  0
  1  6  1  0  0  0
  1  2  2  0  0  0
  1 38  1  0  0  0
  2  3  1  0  0  0
  2 39  1  0  0  0
  3  4  2  0  0  0
  3 40  1  0  0  0
  4  5  1  0  0  0
  4  7  1  0  0  0
  5  6  2  0  0  0
  5 41  1  0  0  0
  6 42  1  0  0  0
  7  8  1  0  0  0
  8  9  1  0  0  0
  8 43  1  0  0  0
  8 44  1  0  0  0
  9 10  1  0  0  0
  9 45  1  0  0  0
  9 46  1  0  0  0
 10 11  1  0  0  0
 11 12  1  0  0  0
 11 47  1  0  0  0
 11 48  1  0  0  0
 12 17  1  0  0  0
 12 13  2  0  0  0
 13 14  1  0  0  0
 13 49  1  0  0  0
 14 15  2  0  0  0
 14 50  1  0  0  0
 15 16  1  0  0  0
 15 18  1  0  0  0
 16 17  2  0  0  0
 16 51  1  0  0  0
 17 52  1  0  0  0
 18 36  1  0  0  0
 18 23  1  0  0  0
 18 19  1  0  0  0
 19 20  1  0  0  0
 19 53  1  0  0  0
 19 54  1  0  0  0
 20 21  1  0  0  0
 20 55  1  0  0  0
 20 56  1  0  0  0
 21 22  1  0  0  0
 21 57  1  0  0  0
 22 23  1  0  0  0
 22 58  1  0  0  0
 22 59  1  0  0  0
 23 37  1  0  0  0
 23 24  1  0  0  0
 24 25  1  0  0  0
 25 26  1  0  0  0
 25 60  1  0  0  0
 25 61  1  0  0  0
 26 35  1  0  0  0
 26 27  2  0  0  0
 27 28  1  0  0  0
 27 62  1  0  0  0
 28 29  2  0  0  0
 28 63  1  0  0  0
 29 34  1  0  0  0
 29 30  1  0  0  0
 30 31  2  0  0  0
 30 64  1  0  0  0
 31 32  1  0  0  0
 31 65  1  0  0  0
 32 33  2  0  0  0
 32 66  1  0  0  0
 33 34  1  0  0  0
 33 67  1  0  0  0
 34 35  2  0  0  0
 35 68  1  0  0  0
M  END
> <s_m_entry_id>
27458

> <s_m_entry_name>
ligand_docking-pose.12

> <s_m_Source_Path>
/home/csk/Desktop/cluster/DUD-E-result/reni

> <s_m_Source_File>
ligand_docking-pose.sdf

> <i_m_Source_File_Index>
12

> <i_lp_mmshare_version>
53161

> <i_f3d_flags>
0

> <r_lp_tautomer_probability>
1

> <s_lp_Force_Field>
OPLS_2005

> <r_lp_Energy>
38.218344

> <b_lp_Chiralities_Consistent>
1

> <s_lp_Variant>
43022-1

> <s_i_glide_gridfile>
glide-grid_3g6z

> <i_i_glide_lignum>
29

> <i_i_glide_rotatable_bonds>
10

> <r_i_docking_score>
-8.468844450407

> <r_i_glide_ligand_efficiency>
-0.241966984297343

> <r_i_glide_ligand_efficiency_sa>
-0.791490049574963

> <r_i_glide_ligand_efficiency_ln>
-1.85909931274012

> <r_i_glide_gscore>
-8.468844450407

> <r_i_glide_lipo>
-5.3700759161071

> <r_i_glide_hbond>
-0.32

> <r_i_glide_metal>
0

> <r_i_glide_rewards>
-0.642493252294496

> <r_i_glide_evdw>
-44.6828994750977

> <r_i_glide_ecoul>
-4.88617086410522

> <r_i_glide_erotb>
0.830795321365253

> <r_i_glide_esite>
0

> <r_i_glide_emodel>
-70.7613688195882

> <r_i_glide_energy>
-49.5690703392029

> <r_i_glide_einternal>
6.83011865615845

> <i_i_glide_confnum>
5

> <i_i_glide_posenum>
122

> <r_i_glide_eff_state_penalty>
0

> <s_user_duplicate_titles>
43022

> <s_m_subgroup_title>
dock_pv

> <s_m_subgroupid>
dock_pv1

> <b_m_subgroup_collapsed>
0

$$$$
93155
                    3D
 Schrodinger Suite 2021-1.
 92 94  0  0  1  0            999 V2000
   -8.2731  -21.9035   -8.5706 C   0  0  0  0  0  0
   -8.2062  -23.4210   -8.8195 C   0  0  0  0  0  0
   -7.0539  -24.0210   -7.9962 C   0  0  0  0  0  0
   -8.0899  -23.7821  -10.3265 C   0  0  0  0  0  0
   -9.4220  -24.0214  -11.0733 C   0  0  0  0  0  0
  -10.2727  -22.8332  -11.1504 N   0  0  0  0  0  0
  -11.6200  -22.8225  -11.2307 C   0  0  0  0  0  0
  -12.2688  -23.8719  -11.2210 O   0  0  0  0  0  0
  -12.2559  -21.4999  -11.3155 C   0  0  0  0  0  0
  -13.5902  -21.4124  -11.5134 C   0  0  0  0  0  0
  -11.3311  -20.2755  -11.1686 C   0  0  0  0  0  0
  -11.9161  -18.8402  -11.0636 C   0  0  1  0  0  0
  -10.8117  -17.8292  -10.6358 C   0  0  2  0  0  0
  -11.2936  -16.3719  -10.4264 C   0  0  0  0  0  0
  -12.0470  -16.0675   -9.1122 C   0  0  0  0  0  0
  -11.1445  -16.2848   -7.8782 C   0  0  0  0  0  0
  -11.8689  -15.9397   -6.5638 C   0  0  0  0  0  0
  -12.4440  -14.5074   -6.5753 C   0  0  0  0  0  0
  -13.2920  -14.2395   -7.8329 C   0  0  0  0  0  0
  -12.4940  -14.5863   -9.1020 C   0  0  0  0  0  0
   -9.6014  -17.8976  -11.4701 N   0  0  0  0  0  0
   -8.3714  -17.6623  -10.9761 C   0  0  0  0  0  0
   -8.1706  -17.1104   -9.8953 O   0  0  0  0  0  0
   -7.1978  -18.2622  -11.7673 C   0  0  2  0  0  0
   -7.0297  -19.7384  -11.3152 C   0  0  0  0  0  0
   -6.0973  -20.6120  -12.1089 C   0  0  0  0  0  0
   -4.7845  -20.9738  -11.9003 C   0  0  0  0  0  0
   -4.3868  -21.8924  -12.8732 N   0  0  0  0  0  0
   -5.4682  -22.0636  -13.6211 C   0  0  0  0  0  0
   -6.5071  -21.3276  -13.2213 N   0  0  0  0  0  0
   -5.9717  -17.4486  -11.6607 N   0  0  0  0  0  0
   -5.1186  -17.3114  -10.6201 C   0  0  0  0  0  0
   -5.1448  -18.0608   -9.6379 O   0  0  0  0  0  0
   -4.0648  -16.1464  -10.6539 C   0  0  1  0  0  0
   -4.1446  -15.3819   -9.3055 C   0  0  0  0  0  0
   -2.6022  -16.6086  -10.9085 C   0  0  0  0  0  0
   -2.2241  -17.9616  -10.9864 C   0  0  0  0  0  0
   -0.8959  -18.3242  -11.1904 C   0  0  0  0  0  0
    0.0794  -17.3376  -11.2985 C   0  0  0  0  0  0
   -0.2686  -15.9932  -11.2212 C   0  0  0  0  0  0
   -1.6000  -15.6332  -11.0425 C   0  0  0  0  0  0
   -4.4487  -15.1685  -11.6209 O   0  0  0  0  0  0
  -12.6010  -18.4625  -12.2502 O   0  0  0  0  0  0
  -12.6690  -18.8332  -10.2823 H   0  0  0  0  0  0
  -10.4982  -18.2104   -9.6652 H   0  0  0  0  0  0
   -7.4234  -21.3279  -13.6545 H   0  0  0  0  0  0
   -7.3278  -21.4201   -8.8230 H   0  0  0  0  0  0
   -8.4819  -21.6853   -7.5233 H   0  0  0  0  0  0
   -9.0580  -21.4314   -9.1578 H   0  0  0  0  0  0
   -9.1275  -23.8599   -8.4332 H   0  0  0  0  0  0
   -6.0897  -23.6244   -8.3144 H   0  0  0  0  0  0
   -7.1705  -23.8007   -6.9333 H   0  0  0  0  0  0
   -7.0143  -25.1034   -8.0991 H   0  0  0  0  0  0
   -7.4983  -23.0295  -10.8497 H   0  0  0  0  0  0
   -7.5131  -24.7035  -10.4284 H   0  0  0  0  0  0
   -9.2285  -24.3887  -12.0813 H   0  0  0  0  0  0
   -9.9621  -24.8152  -10.5529 H   0  0  0  0  0  0
   -9.7875  -21.9524  -11.1933 H   0  0  0  0  0  0
  -14.0949  -20.4622  -11.5778 H   0  0  0  0  0  0
  -14.2179  -22.2861  -11.6209 H   0  0  0  0  0  0
  -10.7509  -20.4284  -10.2588 H   0  0  0  0  0  0
  -10.6175  -20.3013  -11.9925 H   0  0  0  0  0  0
  -10.4273  -15.7074  -10.4205 H   0  0  0  0  0  0
  -11.8860  -16.0630  -11.2863 H   0  0  0  0  0  0
  -12.9302  -16.7028   -9.0197 H   0  0  0  0  0  0
  -10.7539  -17.2967   -7.8117 H   0  0  0  0  0  0
  -10.2617  -15.6631   -8.0207 H   0  0  0  0  0  0
  -12.6794  -16.6547   -6.4212 H   0  0  0  0  0  0
  -11.1943  -16.0631   -5.7157 H   0  0  0  0  0  0
  -13.0398  -14.3370   -5.6805 H   0  0  0  0  0  0
  -11.6242  -13.7868   -6.5320 H   0  0  0  0  0  0
  -14.1993  -14.8419   -7.7882 H   0  0  0  0  0  0
  -13.6119  -13.1973   -7.8603 H   0  0  0  0  0  0
  -11.6248  -13.9324   -9.1882 H   0  0  0  0  0  0
  -13.0688  -14.3693   -9.9968 H   0  0  0  0  0  0
   -9.6881  -18.2886  -12.3977 H   0  0  0  0  0  0
   -7.4692  -18.2592  -12.8206 H   0  0  0  0  0  0
   -6.7297  -19.7888  -10.2711 H   0  0  0  0  0  0
   -8.0009  -20.2332  -11.3391 H   0  0  0  0  0  0
   -4.1114  -20.6694  -11.1138 H   0  0  0  0  0  0
   -5.5059  -22.7310  -14.4713 H   0  0  0  0  0  0
   -5.8761  -16.7714  -12.4020 H   0  0  0  0  0  0
   -3.8168  -16.0068   -8.4723 H   0  0  0  0  0  0
   -3.5186  -14.4894   -9.3004 H   0  0  0  0  0  0
   -5.1622  -15.0529   -9.0813 H   0  0  0  0  0  0
   -2.9449  -18.7549  -10.8828 H   0  0  0  0  0  0
   -0.6204  -19.3682  -11.2453 H   0  0  0  0  0  0
    1.1131  -17.6199  -11.4385 H   0  0  0  0  0  0
    0.4904  -15.2304  -11.2934 H   0  0  0  0  0  0
   -1.8521  -14.5836  -10.9909 H   0  0  0  0  0  0
   -4.1835  -15.4442  -12.5092 H   0  0  0  0  0  0
  -11.9905  -18.4634  -13.0042 H   0  0  0  0  0  0
  1  2  1  0  0  0
  1 47  1  0  0  0
  1 48  1  0  0  0
  1 49  1  0  0  0
  2  3  1  0  0  0
  2  4  1  0  0  0
  2 50  1  0  0  0
  3 51  1  0  0  0
  3 52  1  0  0  0
  3 53  1  0  0  0
  4  5  1  0  0  0
  4 54  1  0  0  0
  4 55  1  0  0  0
  5  6  1  0  0  0
  5 56  1  0  0  0
  5 57  1  0  0  0
  6  7  1  0  0  0
  6 58  1  0  0  0
  7  8  2  0  0  0
  7  9  1  0  0  0
  9 10  2  0  0  0
  9 11  1  0  0  0
 10 59  1  0  0  0
 10 60  1  0  0  0
 11 12  1  0  0  0
 11 61  1  0  0  0
 11 62  1  0  0  0
 12 44  1  0  0  0
 12 13  1  0  0  0
 12 43  1  0  0  0
 13 45  1  0  0  0
 13 14  1  0  0  0
 13 21  1  0  0  0
 14 15  1  0  0  0
 14 63  1  0  0  0
 14 64  1  0  0  0
 15 20  1  0  0  0
 15 16  1  0  0  0
 15 65  1  0  0  0
 16 17  1  0  0  0
 16 66  1  0  0  0
 16 67  1  0  0  0
 17 18  1  0  0  0
 17 68  1  0  0  0
 17 69  1  0  0  0
 18 19  1  0  0  0
 18 70  1  0  0  0
 18 71  1  0  0  0
 19 20  1  0  0  0
 19 72  1  0  0  0
 19 73  1  0  0  0
 20 74  1  0  0  0
 20 75  1  0  0  0
 21 22  1  0  0  0
 21 76  1  0  0  0
 22 23  2  0  0  0
 22 24  1  0  0  0
 24 25  1  0  0  0
 24 31  1  0  0  0
 24 77  1  0  0  0
 25 78  1  0  0  0
 25 79  1  0  0  0
 25 26  1  0  0  0
 26 27  2  0  0  0
 26 30  1  0  0  0
 27 80  1  0  0  0
 27 28  1  0  0  0
 28 29  2  0  0  0
 29 30  1  0  0  0
 29 81  1  0  0  0
 30 46  1  0  0  0
 31 32  1  0  0  0
 31 82  1  0  0  0
 32 33  2  0  0  0
 32 34  1  0  0  0
 34 35  1  0  0  0
 34 36  1  0  0  0
 34 42  1  0  0  0
 35 83  1  0  0  0
 35 84  1  0  0  0
 35 85  1  0  0  0
 36 41  1  0  0  0
 36 37  2  0  0  0
 37 38  1  0  0  0
 37 86  1  0  0  0
 38 39  2  0  0  0
 38 87  1  0  0  0
 39 40  1  0  0  0
 39 88  1  0  0  0
 40 41  2  0  0  0
 40 89  1  0  0  0
 41 90  1  0  0  0
 42 91  1  0  0  0
 43 92  1  0  0  0
M  END
> <s_m_entry_id>
27459

> <s_m_entry_name>
ligand_docking-pose.13

> <s_m_Source_Path>
/home/csk/Desktop/cluster/DUD-E-result/reni

> <s_m_Source_File>
ligand_docking-pose.sdf

> <i_m_Source_File_Index>
13

> <i_lp_mmshare_version>
53161

> <i_f3d_flags>
0

> <r_lp_tautomer_probability>
0.499999999999999

> <s_lp_Force_Field>
OPLS_2005

> <r_lp_Energy>
25.783457

> <b_lp_Chiralities_Consistent>
1

> <s_lp_Variant>
93155-5

> <s_i_glide_gridfile>
glide-grid_3g6z

> <i_i_glide_lignum>
397

> <i_i_glide_rotatable_bonds>
21

> <r_i_docking_score>
-8.46489495370166

> <r_i_glide_ligand_efficiency>
-0.196858022179108

> <r_i_glide_ligand_efficiency_sa>
-0.68967201220919

> <r_i_glide_ligand_efficiency_ln>
-1.77789102495403

> <r_i_glide_gscore>
-8.46489495370166

> <r_i_glide_lipo>
-3.28032310544993

> <r_i_glide_hbond>
-0.824609419233739

> <r_i_glide_metal>
0

> <r_i_glide_rewards>
-0.752046258262691

> <r_i_glide_evdw>
-44.3017120361328

> <r_i_glide_ecoul>
-13.694354057312

> <r_i_glide_erotb>
0.773351336307203

> <r_i_glide_esite>
-0.112028796659052

> <r_i_glide_emodel>
-80.7505997757189

> <r_i_glide_energy>
-57.9960660934448

> <r_i_glide_einternal>
15.3006248474121

> <i_i_glide_confnum>
67

> <i_i_glide_posenum>
27

> <r_i_glide_eff_state_penalty>
0

> <s_user_duplicate_titles>
93155

> <s_m_subgroup_title>
dock_pv

> <s_m_subgroupid>
dock_pv1

> <b_m_subgroup_collapsed>
0

$$$$
620699
                    3D
 Schrodinger Suite 2021-1.
 70 73  0  0  1  0            999 V2000
   -2.4339  -11.3072   -9.1753 C   0  0  0  0  0  0
   -2.9047  -12.0587  -10.2482 C   0  0  0  0  0  0
   -4.0535  -12.8492  -10.1165 C   0  0  0  0  0  0
   -4.7458  -12.8611   -8.8883 C   0  0  0  0  0  0
   -4.2679  -12.0947   -7.8168 C   0  0  0  0  0  0
   -3.1174  -11.3210   -7.9634 C   0  0  0  0  0  0
   -5.0974  -12.0599   -6.3030 Cl  0  0  0  0  0  0
   -6.2197  -13.7561   -8.6899 Cl  0  0  0  0  0  0
   -4.5532  -13.6044  -11.3473 C   0  0  0  0  0  0
   -4.6299  -15.0734  -11.2192 N   0  0  0  0  0  0
   -3.3282  -15.7745  -11.1977 C   0  0  0  0  0  0
   -2.2640  -15.4727  -10.1591 C   0  0  0  0  0  0
   -3.0044  -16.7780  -10.1034 C   0  0  0  0  0  0
   -5.8137  -15.7166  -11.4259 C   0  0  0  0  0  0
   -6.8679  -15.1056  -11.6184 O   0  0  0  0  0  0
   -5.8297  -17.2606  -11.4562 C   0  0  0  0  0  0
   -7.1870  -17.9668  -11.7674 C   0  0  1  0  0  0
   -7.0446  -19.5132  -11.8398 C   0  0  0  0  0  0
   -5.8386  -20.0691  -12.6308 C   0  0  0  0  0  0
   -5.8693  -19.6574  -14.0209 N   0  0  0  0  0  0
   -8.3427  -17.5865  -10.8238 C   0  0  0  0  0  0
   -8.1518  -17.5468   -9.4385 C   0  0  0  0  0  0
   -9.2082  -17.2185   -8.5945 C   0  0  0  0  0  0
  -10.4665  -16.9194   -9.1262 C   0  0  0  0  0  0
  -10.6606  -16.9452  -10.5081 C   0  0  0  0  0  0
   -9.6024  -17.2814  -11.3513 C   0  0  0  0  0  0
  -11.6223  -16.6076   -8.1828 C   0  0  0  0  0  0
  -11.6895  -15.1330   -7.7279 C   0  0  0  0  0  0
  -12.4419  -14.1884   -8.6801 C   0  0  0  0  0  0
  -12.7783  -12.9182   -8.1105 O   0  0  0  0  0  0
  -11.8312  -12.0012   -7.6668 C   0  0  0  0  0  0
  -10.4700  -11.9939   -8.0246 C   0  0  0  0  0  0
   -9.6323  -10.9589   -7.6191 C   0  0  0  0  0  0
  -10.1198   -9.9287   -6.8217 C   0  0  0  0  0  0
  -11.4540   -9.9194   -6.4399 C   0  0  0  0  0  0
  -12.3044  -10.9525   -6.8598 C   0  0  0  0  0  0
  -13.9685  -10.9236   -6.4049 Cl  0  0  0  0  0  0
  -11.9096   -8.8827   -5.6977 F   0  0  0  0  0  0
   -9.9313  -12.9421   -8.8206 F   0  0  0  0  0  0
   -1.5440  -10.7060   -9.2883 H   0  0  0  0  0  0
   -2.3647  -12.0344  -11.1840 H   0  0  0  0  0  0
   -2.7559  -10.7290   -7.1345 H   0  0  0  0  0  0
   -5.5263  -13.1723  -11.5881 H   0  0  0  0  0  0
   -3.9246  -13.3688  -12.2090 H   0  0  0  0  0  0
   -2.9814  -16.0136  -12.2058 H   0  0  0  0  0  0
   -1.2233  -15.4618  -10.4855 H   0  0  0  0  0  0
   -2.4427  -14.7613   -9.3528 H   0  0  0  0  0  0
   -3.7023  -16.9288   -9.2790 H   0  0  0  0  0  0
   -2.4918  -17.6993  -10.3801 H   0  0  0  0  0  0
   -5.1093  -17.5380  -12.2229 H   0  0  0  0  0  0
   -5.4589  -17.6447  -10.5105 H   0  0  0  0  0  0
   -7.4679  -17.6220  -12.7662 H   0  0  0  0  0  0
   -6.9773  -19.9082  -10.8263 H   0  0  0  0  0  0
   -7.9611  -19.9357  -12.2495 H   0  0  0  0  0  0
   -4.8959  -19.7577  -12.1783 H   0  0  0  0  0  0
   -5.8417  -21.1599  -12.5931 H   0  0  0  0  0  0
   -6.7119  -20.0231  -14.4447 H   0  0  0  0  0  0
   -5.9877  -18.6514  -14.1007 H   0  0  0  0  0  0
   -7.1908  -17.7799   -9.0088 H   0  0  0  0  0  0
   -9.0511  -17.2092   -7.5253 H   0  0  0  0  0  0
  -11.6269  -16.7152  -10.9331 H   0  0  0  0  0  0
   -9.7616  -17.3046  -12.4205 H   0  0  0  0  0  0
  -12.5696  -16.9237   -8.6227 H   0  0  0  0  0  0
  -11.4956  -17.2535   -7.3097 H   0  0  0  0  0  0
  -12.1579  -15.0763   -6.7439 H   0  0  0  0  0  0
  -10.6759  -14.7658   -7.6208 H   0  0  0  0  0  0
  -11.9101  -14.0649   -9.6206 H   0  0  0  0  0  0
  -13.3940  -14.6512   -8.9419 H   0  0  0  0  0  0
   -8.5903  -10.9612   -7.9114 H   0  0  0  0  0  0
   -9.4696   -9.1273   -6.5081 H   0  0  0  0  0  0
  1  6  1  0  0  0
  1  2  2  0  0  0
  1 40  1  0  0  0
  2  3  1  0  0  0
  2 41  1  0  0  0
  3  4  2  0  0  0
  3  9  1  0  0  0
  4  5  1  0  0  0
  4  8  1  0  0  0
  5  6  2  0  0  0
  5  7  1  0  0  0
  6 42  1  0  0  0
  9 10  1  0  0  0
  9 43  1  0  0  0
  9 44  1  0  0  0
 10 11  1  0  0  0
 10 14  1  0  0  0
 11 13  1  0  0  0
 11 12  1  0  0  0
 11 45  1  0  0  0
 12 13  1  0  0  0
 12 46  1  0  0  0
 12 47  1  0  0  0
 13 48  1  0  0  0
 13 49  1  0  0  0
 14 15  2  0  0  0
 14 16  1  0  0  0
 16 17  1  0  0  0
 16 50  1  0  0  0
 16 51  1  0  0  0
 17 18  1  0  0  0
 17 21  1  0  0  0
 17 52  1  0  0  0
 18 19  1  0  0  0
 18 53  1  0  0  0
 18 54  1  0  0  0
 19 20  1  0  0  0
 19 55  1  0  0  0
 19 56  1  0  0  0
 20 57  1  0  0  0
 20 58  1  0  0  0
 21 26  1  0  0  0
 21 22  2  0  0  0
 22 23  1  0  0  0
 22 59  1  0  0  0
 23 24  2  0  0  0
 23 60  1  0  0  0
 24 25  1  0  0  0
 24 27  1  0  0  0
 25 26  2  0  0  0
 25 61  1  0  0  0
 26 62  1  0  0  0
 27 28  1  0  0  0
 27 63  1  0  0  0
 27 64  1  0  0  0
 28 29  1  0  0  0
 28 65  1  0  0  0
 28 66  1  0  0  0
 29 30  1  0  0  0
 29 67  1  0  0  0
 29 68  1  0  0  0
 30 31  1  0  0  0
 31 36  1  0  0  0
 31 32  2  0  0  0
 32 33  1  0  0  0
 32 39  1  0  0  0
 33 34  2  0  0  0
 33 69  1  0  0  0
 34 35  1  0  0  0
 34 70  1  0  0  0
 35 36  2  0  0  0
 35 38  1  0  0  0
 36 37  1  0  0  0
M  END
> <s_m_entry_id>
27462

> <s_m_entry_name>
ligand_docking-pose.16

> <s_m_Source_Path>
/home/csk/Desktop/cluster/DUD-E-result/reni

> <s_m_Source_File>
ligand_docking-pose.sdf

> <i_m_Source_File_Index>
16

> <i_lp_mmshare_version>
53161

> <i_f3d_flags>
0

> <r_lp_tautomer_probability>
1

> <s_lp_Force_Field>
OPLS_2005

> <r_lp_Energy>
54.149133

> <b_lp_Chiralities_Consistent>
1

> <s_lp_Variant>
620699-2

> <s_i_glide_gridfile>
glide-grid_3g6z

> <i_i_glide_lignum>
10

> <i_i_glide_rotatable_bonds>
14

> <r_i_docking_score>
-8.42115571990273

> <r_i_glide_ligand_efficiency>
-0.215927069741096

> <r_i_glide_ligand_efficiency_sa>
-0.732254348868302

> <r_i_glide_ligand_efficiency_ln>
-1.80573483506786

> <r_i_glide_gscore>
-8.42115571990273

> <r_i_glide_lipo>
-4.84752711702648

> <r_i_glide_hbond>
-0.32

> <r_i_glide_metal>
0

> <r_i_glide_rewards>
-0.18842283905378

> <r_i_glide_evdw>
-47.1762008666992

> <r_i_glide_ecoul>
-8.52242183685303

> <r_i_glide_erotb>
0.595547932491045

> <r_i_glide_esite>
-0.0235803774505915

> <r_i_glide_emodel>
-80.3171192064912

> <r_i_glide_energy>
-55.6986227035522

> <r_i_glide_einternal>
8.86633014678955

> <i_i_glide_confnum>
71

> <i_i_glide_posenum>
265

> <r_i_glide_eff_state_penalty>
0

> <s_user_duplicate_titles>
620699

> <s_m_subgroup_title>
dock_pv

> <s_m_subgroupid>
dock_pv1

> <b_m_subgroup_collapsed>
0

$$$$
36808
                    3D
 Schrodinger Suite 2021-1.
 84 84  0  0  1  0            999 V2000
   -4.8595  -11.8421   -6.8297 C   0  0  0  0  0  0
   -4.6213  -13.1331   -7.6372 C   0  0  0  0  0  0
   -5.7634  -14.1753   -7.5311 C   0  0  1  0  0  0
   -7.1108  -13.6219   -8.0384 C   0  0  0  0  0  0
   -5.3913  -15.5287   -8.1959 C   0  0  0  0  0  0
   -5.1585  -15.4667   -9.6450 N   0  0  0  0  0  0
   -6.1046  -15.6295  -10.5841 C   0  0  0  0  0  0
   -7.2841  -15.8227  -10.3027 O   0  0  0  0  0  0
   -5.6665  -15.5745  -12.0671 C   0  0  1  0  0  0
   -6.0600  -16.8529  -12.8673 C   0  0  0  0  0  0
   -5.3269  -18.1835  -12.5180 C   0  0  1  0  0  0
   -5.7648  -18.9202  -11.2054 C   0  0  2  0  0  0
   -5.2153  -20.3697  -11.0238 C   0  0  0  0  0  0
   -3.6843  -20.5285  -10.8049 C   0  0  0  0  0  0
   -2.8535  -20.4773  -12.1040 C   0  0  0  0  0  0
   -3.3764  -21.8391  -10.0526 C   0  0  0  0  0  0
   -7.2178  -18.8215  -11.0130 N   0  0  0  0  0  0
   -7.9165  -18.9668   -9.8717 C   0  0  0  0  0  0
   -7.3918  -19.3256   -8.8215 O   0  0  0  0  0  0
   -9.4316  -18.6583   -9.9076 C   0  0  2  0  0  0
  -10.0463  -18.6544  -11.3525 C   0  0  1  0  0  0
  -11.5804  -18.8638  -11.3508 C   0  0  0  0  0  0
  -12.1008  -19.8402  -10.8220 O   0  0  0  0  0  0
  -12.2690  -17.8961  -12.0211 O   0  0  0  0  0  0
   -9.6777  -17.4616  -12.0211 O   0  0  0  0  0  0
   -9.8538  -17.4911   -8.9517 C   0  0  0  0  0  0
   -9.6883  -17.6046   -7.7334 O   0  0  0  0  0  0
  -10.4621  -16.1951   -9.5402 C   0  0  0  0  0  0
  -11.3476  -15.3886   -8.5997 C   0  0  0  0  0  0
  -11.0705  -14.0338   -8.4084 C   0  0  0  0  0  0
  -11.9094  -13.2569   -7.6146 C   0  0  0  0  0  0
  -13.0367  -13.8332   -7.0332 C   0  0  0  0  0  0
  -13.3376  -15.1778   -7.2477 C   0  0  0  0  0  0
  -12.4937  -15.9572   -8.0335 C   0  0  0  0  0  0
   -5.4821  -19.0401  -13.6410 O   0  0  0  0  0  0
   -6.1681  -14.2826  -12.7953 C   0  0  0  0  0  0
   -5.4606  -13.0142  -12.2794 C   0  0  0  0  0  0
   -7.7039  -14.0882  -12.8180 C   0  0  0  0  0  0
   -5.9022  -14.3936   -6.4695 H   0  0  0  0  0  0
   -4.5747  -15.5360  -12.0820 H   0  0  0  0  0  0
   -5.3471  -18.3272  -10.3903 H   0  0  0  0  0  0
   -3.9796  -11.1984   -6.8654 H   0  0  0  0  0  0
   -5.6991  -11.2679   -7.2265 H   0  0  0  0  0  0
   -5.0636  -12.0579   -5.7808 H   0  0  0  0  0  0
   -3.6920  -13.5867   -7.2883 H   0  0  0  0  0  0
   -4.4533  -12.8705   -8.6833 H   0  0  0  0  0  0
   -7.0322  -13.2630   -9.0633 H   0  0  0  0  0  0
   -7.8783  -14.3939   -8.0212 H   0  0  0  0  0  0
   -7.4681  -12.7949   -7.4252 H   0  0  0  0  0  0
   -6.1660  -16.2683   -7.9778 H   0  0  0  0  0  0
   -4.4810  -15.9186   -7.7367 H   0  0  0  0  0  0
   -4.2083  -15.3117   -9.9435 H   0  0  0  0  0  0
   -5.8568  -16.6371  -13.9154 H   0  0  0  0  0  0
   -7.1378  -16.9887  -12.8337 H   0  0  0  0  0  0
   -4.2722  -17.9360  -12.4417 H   0  0  0  0  0  0
   -5.7075  -20.7845  -10.1443 H   0  0  0  0  0  0
   -5.5570  -21.0054  -11.8434 H   0  0  0  0  0  0
   -3.3447  -19.7132  -10.1615 H   0  0  0  0  0  0
   -3.2360  -21.1823  -12.8472 H   0  0  0  0  0  0
   -2.8417  -19.4889  -12.5578 H   0  0  0  0  0  0
   -1.8118  -20.7365  -11.9114 H   0  0  0  0  0  0
   -3.6716  -22.7123  -10.6393 H   0  0  0  0  0  0
   -2.3111  -21.9308   -9.8343 H   0  0  0  0  0  0
   -3.9042  -21.8843   -9.0967 H   0  0  0  0  0  0
   -7.7329  -18.4460  -11.7970 H   0  0  0  0  0  0
   -9.8534  -19.5426   -9.4272 H   0  0  0  0  0  0
   -9.6494  -19.4448  -12.0036 H   0  0  0  0  0  0
  -11.6445  -17.2690  -12.3978 H   0  0  0  0  0  0
   -9.4500  -17.6643  -12.9444 H   0  0  0  0  0  0
  -11.0886  -16.4185  -10.3943 H   0  0  0  0  0  0
   -9.6485  -15.5723   -9.9043 H   0  0  0  0  0  0
  -10.2055  -13.5809   -8.8739 H   0  0  0  0  0  0
  -11.6907  -12.2116   -7.4508 H   0  0  0  0  0  0
  -13.6865  -13.2297   -6.4178 H   0  0  0  0  0  0
  -14.2269  -15.6161   -6.8166 H   0  0  0  0  0  0
  -12.7411  -16.9907   -8.2239 H   0  0  0  0  0  0
   -6.2669  -18.7648  -14.1296 H   0  0  0  0  0  0
   -5.8700  -14.3656  -13.8410 H   0  0  0  0  0  0
   -5.6603  -12.8619  -11.2199 H   0  0  0  0  0  0
   -4.3805  -13.0912  -12.4019 H   0  0  0  0  0  0
   -5.7858  -12.1248  -12.8202 H   0  0  0  0  0  0
   -8.0998  -13.8548  -11.8302 H   0  0  0  0  0  0
   -7.9781  -13.2631  -13.4747 H   0  0  0  0  0  0
   -8.2224  -14.9733  -13.1846 H   0  0  0  0  0  0
  1  2  1  0  0  0
  1 42  1  0  0  0
  1 43  1  0  0  0
  1 44  1  0  0  0
  2  3  1  0  0  0
  2 45  1  0  0  0
  2 46  1  0  0  0
  3 39  1  0  0  0
  3  4  1  0  0  0
  3  5  1  0  0  0
  4 47  1  0  0  0
  4 48  1  0  0  0
  4 49  1  0  0  0
  5  6  1  0  0  0
  5 50  1  0  0  0
  5 51  1  0  0  0
  6  7  1  0  0  0
  6 52  1  0  0  0
  7  8  2  0  0  0
  7  9  1  0  0  0
  9 40  1  0  0  0
  9 10  1  0  0  0
  9 36  1  0  0  0
 10 11  1  0  0  0
 10 53  1  0  0  0
 10 54  1  0  0  0
 11 12  1  0  0  0
 11 35  1  0  0  0
 11 55  1  0  0  0
 12 41  1  0  0  0
 12 13  1  0  0  0
 12 17  1  0  0  0
 13 14  1  0  0  0
 13 56  1  0  0  0
 13 57  1  0  0  0
 14 15  1  0  0  0
 14 16  1  0  0  0
 14 58  1  0  0  0
 15 59  1  0  0  0
 15 60  1  0  0  0
 15 61  1  0  0  0
 16 62  1  0  0  0
 16 63  1  0  0  0
 16 64  1  0  0  0
 17 18  1  0  0  0
 17 65  1  0  0  0
 18 19  2  0  0  0
 18 20  1  0  0  0
 20 21  1  0  0  0
 20 26  1  0  0  0
 20 66  1  0  0  0
 21 22  1  0  0  0
 21 25  1  0  0  0
 21 67  1  0  0  0
 22 23  2  0  0  0
 22 24  1  0  0  0
 24 68  1  0  0  0
 25 69  1  0  0  0
 26 27  2  0  0  0
 26 28  1  0  0  0
 28 29  1  0  0  0
 28 70  1  0  0  0
 28 71  1  0  0  0
 29 34  1  0  0  0
 29 30  2  0  0  0
 30 31  1  0  0  0
 30 72  1  0  0  0
 31 32  2  0  0  0
 31 73  1  0  0  0
 32 33  1  0  0  0
 32 74  1  0  0  0
 33 34  2  0  0  0
 33 75  1  0  0  0
 34 76  1  0  0  0
 35 77  1  0  0  0
 36 37  1  0  0  0
 36 38  1  0  0  0
 36 78  1  0  0  0
 37 79  1  0  0  0
 37 80  1  0  0  0
 37 81  1  0  0  0
 38 82  1  0  0  0
 38 83  1  0  0  0
 38 84  1  0  0  0
M  END
> <s_m_entry_id>
27466

> <s_m_entry_name>
ligand_docking-pose.20

> <s_m_Source_Path>
/home/csk/Desktop/cluster/DUD-E-result/reni

> <s_m_Source_File>
ligand_docking-pose.sdf

> <i_m_Source_File_Index>
20

> <i_lp_mmshare_version>
53161

> <i_f3d_flags>
0

> <r_lp_tautomer_probability>
0.999999960000001

> <s_lp_Force_Field>
OPLS_2005

> <r_lp_Energy>
32.479448

> <b_lp_Chiralities_Consistent>
1

> <s_lp_Variant>
36808-6

> <s_i_glide_gridfile>
glide-grid_3g6z

> <i_i_glide_lignum>
608

> <i_i_glide_rotatable_bonds>
22

> <r_i_docking_score>
-8.21485834408979

> <r_i_glide_ligand_efficiency>
-0.216180482739205

> <r_i_glide_ligand_efficiency_sa>
-0.726793465517877

> <r_i_glide_ligand_efficiency_ln>
-1.77136511563474

> <r_i_glide_gscore>
-8.21485834408979

> <r_i_glide_lipo>
-3.7727370909055

> <r_i_glide_hbond>
-0.304

> <r_i_glide_metal>
0

> <r_i_glide_rewards>
-1.09624636885984

> <r_i_glide_evdw>
-46.2458114624023

> <r_i_glide_ecoul>
-11.9976825714111

> <r_i_glide_erotb>
1.08293277406894

> <r_i_glide_esite>
-0.0128646995616038

> <r_i_glide_emodel>
-83.5193752107612

> <r_i_glide_energy>
-58.2434940338135

> <r_i_glide_einternal>
12.5125789642334

> <i_i_glide_confnum>
114

> <i_i_glide_posenum>
377

> <r_i_glide_eff_state_penalty>
0

> <s_user_duplicate_titles>
36808

> <s_m_subgroup_title>
dock_pv

> <s_m_subgroupid>
dock_pv1

> <b_m_subgroup_collapsed>
0

$$$$
619487
                    3D
 Schrodinger Suite 2021-1.
 70 73  0  0  1  0            999 V2000
   -6.1662  -18.8924  -10.6648 C   0  0  0  0  0  0
   -6.0259  -17.5470  -11.4546 C   0  0  2  0  0  0
   -7.4568  -17.2235  -12.0132 C   0  0  0  0  0  0
   -8.6787  -17.0839  -11.0904 C   0  0  0  0  0  0
   -8.6212  -16.5922   -9.7810 C   0  0  0  0  0  0
   -9.7875  -16.4635   -9.0246 C   0  0  0  0  0  0
  -11.0299  -16.8148   -9.5673 C   0  0  0  0  0  0
  -11.0808  -17.3132  -10.8691 C   0  0  0  0  0  0
   -9.9195  -17.4460  -11.6204 C   0  0  0  0  0  0
  -12.3591  -16.6895   -8.8143 C   0  0  0  0  0  0
  -12.3616  -16.1828   -7.3555 C   0  0  0  0  0  0
  -12.8376  -14.7298   -7.2071 C   0  0  0  0  0  0
  -12.1982  -13.8852   -8.1634 O   0  0  0  0  0  0
  -11.9515  -12.5991   -7.7464 C   0  0  0  0  0  0
  -12.9737  -11.7589   -7.2781 C   0  0  0  0  0  0
  -12.6623  -10.4984   -6.7790 C   0  0  0  0  0  0
  -11.3445  -10.0520   -6.7604 C   0  0  0  0  0  0
  -10.3352  -10.8619   -7.2673 C   0  0  0  0  0  0
  -10.6370  -12.1243   -7.7826 C   0  0  0  0  0  0
   -9.3663  -13.1118   -8.4198 Cl  0  0  0  0  0  0
   -9.0585  -10.4323   -7.2238 F   0  0  0  0  0  0
  -14.2670  -12.1541   -7.3029 F   0  0  0  0  0  0
   -5.0946  -17.8249  -12.6891 C   0  0  0  0  0  0
   -3.7523  -18.2939  -12.3649 N   0  0  0  0  0  0
   -5.3491  -16.4450  -10.5468 C   0  0  0  0  0  0
   -4.8659  -16.8087   -9.4721 O   0  0  0  0  0  0
   -5.1599  -15.1557  -10.9607 N   0  0  0  0  0  0
   -4.1170  -14.3216  -10.3137 C   0  0  0  0  0  0
   -4.5424  -13.4085   -9.1500 C   0  0  0  0  0  0
   -5.6105  -13.7644   -8.3142 C   0  0  0  0  0  0
   -5.9528  -12.9761   -7.2179 C   0  0  0  0  0  0
   -5.2350  -11.8154   -6.9435 C   0  0  0  0  0  0
   -4.1870  -11.4289   -7.7746 C   0  0  0  0  0  0
   -3.8341  -12.2197   -8.8805 C   0  0  0  0  0  0
   -2.5190  -11.7227   -9.8995 Cl  0  0  0  0  0  0
   -3.3402   -9.9704   -7.3918 Cl  0  0  0  0  0  0
   -5.8700  -14.5272  -12.0888 C   0  0  0  0  0  0
   -7.1856  -13.8178  -11.8001 C   0  0  0  0  0  0
   -5.9850  -13.0172  -12.2187 C   0  0  0  0  0  0
   -6.5512  -19.6936  -11.2983 H   0  0  0  0  0  0
   -5.2113  -19.2440  -10.2670 H   0  0  0  0  0  0
   -6.8426  -18.8008   -9.8143 H   0  0  0  0  0  0
   -7.4611  -16.3934  -12.7115 H   0  0  0  0  0  0
   -7.6934  -18.0701  -12.6584 H   0  0  0  0  0  0
   -7.6876  -16.2986   -9.3328 H   0  0  0  0  0  0
   -9.7023  -16.0757   -8.0236 H   0  0  0  0  0  0
  -12.0266  -17.5894  -11.3106 H   0  0  0  0  0  0
   -9.9938  -17.8176  -12.6319 H   0  0  0  0  0  0
  -13.0166  -16.0503   -9.4035 H   0  0  0  0  0  0
  -12.8336  -17.6663   -8.8275 H   0  0  0  0  0  0
  -13.0653  -16.7975   -6.7938 H   0  0  0  0  0  0
  -11.4122  -16.3406   -6.8499 H   0  0  0  0  0  0
  -13.9141  -14.6855   -7.3748 H   0  0  0  0  0  0
  -12.6669  -14.4067   -6.1771 H   0  0  0  0  0  0
  -13.4519   -9.8561   -6.4210 H   0  0  0  0  0  0
  -11.1078   -9.0718   -6.3731 H   0  0  0  0  0  0
   -5.5522  -18.5708  -13.3414 H   0  0  0  0  0  0
   -4.9959  -16.9316  -13.3058 H   0  0  0  0  0  0
   -3.1600  -18.2540  -13.1812 H   0  0  0  0  0  0
   -3.3345  -17.6752  -11.6830 H   0  0  0  0  0  0
   -3.6565  -13.7249  -11.1012 H   0  0  0  0  0  0
   -3.3132  -14.9564   -9.9357 H   0  0  0  0  0  0
   -6.1693  -14.6704   -8.4891 H   0  0  0  0  0  0
   -6.7648  -13.2745   -6.5717 H   0  0  0  0  0  0
   -5.4861  -11.2092   -6.0854 H   0  0  0  0  0  0
   -5.7548  -15.0550  -13.0323 H   0  0  0  0  0  0
   -8.0165  -13.9488  -12.4980 H   0  0  0  0  0  0
   -7.5331  -13.7725  -10.7685 H   0  0  0  0  0  0
   -5.4673  -12.3766  -11.5077 H   0  0  0  0  0  0
   -5.9254  -12.6029  -13.2199 H   0  0  0  0  0  0
  1  2  1  0  0  0
  1 40  1  0  0  0
  1 41  1  0  0  0
  1 42  1  0  0  0
  2  3  1  0  0  0
  2 23  1  0  0  0
  2 25  1  0  0  0
  3  4  1  0  0  0
  3 43  1  0  0  0
  3 44  1  0  0  0
  4  9  1  0  0  0
  4  5  2  0  0  0
  5  6  1  0  0  0
  5 45  1  0  0  0
  6  7  2  0  0  0
  6 46  1  0  0  0
  7  8  1  0  0  0
  7 10  1  0  0  0
  8  9  2  0  0  0
  8 47  1  0  0  0
  9 48  1  0  0  0
 10 11  1  0  0  0
 10 49  1  0  0  0
 10 50  1  0  0  0
 11 12  1  0  0  0
 11 51  1  0  0  0
 11 52  1  0  0  0
 12 13  1  0  0  0
 12 53  1  0  0  0
 12 54  1  0  0  0
 13 14  1  0  0  0
 14 19  1  0  0  0
 14 15  2  0  0  0
 15 16  1  0  0  0
 15 22  1  0  0  0
 16 17  2  0  0  0
 16 55  1  0  0  0
 17 18  1  0  0  0
 17 56  1  0  0  0
 18 19  2  0  0  0
 18 21  1  0  0  0
 19 20  1  0  0  0
 23 24  1  0  0  0
 23 57  1  0  0  0
 23 58  1  0  0  0
 24 59  1  0  0  0
 24 60  1  0  0  0
 25 26  2  0  0  0
 25 27  1  0  0  0
 27 28  1  0  0  0
 27 37  1  0  0  0
 28 29  1  0  0  0
 28 61  1  0  0  0
 28 62  1  0  0  0
 29 34  1  0  0  0
 29 30  2  0  0  0
 30 31  1  0  0  0
 30 63  1  0  0  0
 31 32  2  0  0  0
 31 64  1  0  0  0
 32 33  1  0  0  0
 32 65  1  0  0  0
 33 34  2  0  0  0
 33 36  1  0  0  0
 34 35  1  0  0  0
 37 39  1  0  0  0
 37 38  1  0  0  0
 37 66  1  0  0  0
 38 39  1  0  0  0
 38 67  1  0  0  0
 38 68  1  0  0  0
 39 69  1  0  0  0
 39 70  1  0  0  0
M  END
> <s_m_entry_id>
27467

> <s_m_entry_name>
ligand_docking-pose.21

> <s_m_Source_Path>
/home/csk/Desktop/cluster/DUD-E-result/reni

> <s_m_Source_File>
ligand_docking-pose.sdf

> <i_m_Source_File_Index>
21

> <i_lp_mmshare_version>
53161

> <i_f3d_flags>
0

> <r_lp_tautomer_probability>
1

> <s_lp_Force_Field>
OPLS_2005

> <r_lp_Energy>
74.061747

> <b_lp_Chiralities_Consistent>
1

> <s_lp_Variant>
619487-2

> <s_i_glide_gridfile>
glide-grid_3g6z

> <i_i_glide_lignum>
144

> <i_i_glide_rotatable_bonds>
13

> <r_i_docking_score>
-8.16928184615644

> <r_i_glide_ligand_efficiency>
-0.209468765286063

> <r_i_glide_ligand_efficiency_sa>
-0.71035287292467

> <r_i_glide_ligand_efficiency_ln>
-1.75172592667157

> <r_i_glide_gscore>
-8.16928184615644

> <r_i_glide_lipo>
-5.33265700006392

> <r_i_glide_hbond>
0

> <r_i_glide_metal>
0

> <r_i_glide_rewards>
-0.348956423423506

> <r_i_glide_evdw>
-52.641487121582

> <r_i_glide_ecoul>
-2.5614185333252

> <r_i_glide_erotb>
0.53647350343441

> <r_i_glide_esite>
-0.00785479002554573

> <r_i_glide_emodel>
-70.5607148897048

> <r_i_glide_energy>
-55.2029056549072

> <r_i_glide_einternal>
19.179594039917

> <i_i_glide_confnum>
11

> <i_i_glide_posenum>
59

> <r_i_glide_eff_state_penalty>
0

> <s_user_duplicate_titles>
619487

> <s_m_subgroup_title>
dock_pv

> <s_m_subgroupid>
dock_pv1

> <b_m_subgroup_collapsed>
0

$$$$
620698
                    3D
 Schrodinger Suite 2021-1.
 67 70  0  0  1  0            999 V2000
   -2.5314  -12.7249  -11.0554 C   0  0  0  0  0  0
   -3.6973  -13.4779  -10.9728 C   0  0  0  0  0  0
   -4.5912  -13.2906   -9.9114 C   0  0  0  0  0  0
   -4.2709  -12.3614   -8.9010 C   0  0  0  0  0  0
   -3.0820  -11.6180   -8.9823 C   0  0  0  0  0  0
   -2.2204  -11.7999  -10.0624 C   0  0  0  0  0  0
   -2.6561  -10.4614   -7.7681 Cl  0  0  0  0  0  0
   -5.3550  -12.1131   -7.5661 Cl  0  0  0  0  0  0
   -5.9121  -14.0667   -9.8416 C   0  0  0  0  0  0
   -6.3018  -14.8900  -11.0088 N   0  0  0  0  0  0
   -6.6280  -14.1171  -12.2220 C   0  0  0  0  0  0
   -7.9597  -14.2620  -12.9291 C   0  0  0  0  0  0
   -7.6668  -13.0163  -12.1397 C   0  0  0  0  0  0
   -6.1235  -16.2424  -10.9764 C   0  0  0  0  0  0
   -5.5679  -16.7949  -10.0205 O   0  0  0  0  0  0
   -6.6432  -17.1654  -12.1143 C   0  0  2  0  0  0
   -7.5787  -18.2955  -11.5782 C   0  0  0  0  0  0
   -8.7881  -17.8214  -10.7599 C   0  0  0  0  0  0
   -8.6932  -17.6737   -9.3715 C   0  0  0  0  0  0
   -9.8010  -17.2605   -8.6312 C   0  0  0  0  0  0
  -11.0161  -17.0029   -9.2716 C   0  0  0  0  0  0
  -11.1082  -17.1463  -10.6593 C   0  0  0  0  0  0
   -9.9991  -17.5535  -11.3998 C   0  0  0  0  0  0
  -12.2585  -16.6405   -8.4581 C   0  0  0  0  0  0
  -12.7143  -15.1766   -8.5820 C   0  0  0  0  0  0
  -11.8705  -14.2043   -7.7535 C   0  0  0  0  0  0
  -12.3162  -12.8870   -8.0587 O   0  0  0  0  0  0
  -11.6050  -11.8280   -7.5363 C   0  0  0  0  0  0
  -10.2326  -11.6635   -7.7643 C   0  0  0  0  0  0
   -9.5684  -10.5231   -7.3137 C   0  0  0  0  0  0
  -10.2669   -9.5195   -6.6563 C   0  0  0  0  0  0
  -11.6239   -9.6734   -6.4136 C   0  0  0  0  0  0
  -12.2915  -10.8377   -6.8212 C   0  0  0  0  0  0
  -13.9579  -11.0645   -6.4210 Cl  0  0  0  0  0  0
  -12.2692   -8.6842   -5.7523 F   0  0  0  0  0  0
   -9.5108  -12.6006   -8.4209 F   0  0  0  0  0  0
   -5.4838  -17.7036  -12.9934 C   0  0  0  0  0  0
   -4.5967  -18.6195  -12.2923 N   0  0  0  0  0  0
   -1.8691  -12.8668  -11.8964 H   0  0  0  0  0  0
   -3.8940  -14.1988  -11.7524 H   0  0  0  0  0  0
   -1.3062  -11.2276  -10.1361 H   0  0  0  0  0  0
   -5.8825  -14.6714   -8.9337 H   0  0  0  0  0  0
   -6.7157  -13.3523   -9.6606 H   0  0  0  0  0  0
   -5.7599  -13.9438  -12.8593 H   0  0  0  0  0  0
   -7.9784  -14.2140  -14.0187 H   0  0  0  0  0  0
   -8.6750  -14.9778  -12.5335 H   0  0  0  0  0  0
   -8.2313  -12.8638  -11.2188 H   0  0  0  0  0  0
   -7.4671  -12.0788  -12.6596 H   0  0  0  0  0  0
   -7.2540  -16.6098  -12.8142 H   0  0  0  0  0  0
   -7.9543  -18.8793  -12.4213 H   0  0  0  0  0  0
   -7.0131  -19.0103  -10.9776 H   0  0  0  0  0  0
   -7.7624  -17.8814   -8.8627 H   0  0  0  0  0  0
   -9.7171  -17.1609   -7.5596 H   0  0  0  0  0  0
  -12.0416  -16.9557  -11.1668 H   0  0  0  0  0  0
  -10.0839  -17.6663  -12.4710 H   0  0  0  0  0  0
  -13.0674  -17.2905   -8.7851 H   0  0  0  0  0  0
  -12.1052  -16.8710   -7.4041 H   0  0  0  0  0  0
  -12.7155  -14.8732   -9.6294 H   0  0  0  0  0  0
  -13.7499  -15.0993   -8.2467 H   0  0  0  0  0  0
  -11.9889  -14.3972   -6.6849 H   0  0  0  0  0  0
  -10.8273  -14.3726   -8.0072 H   0  0  0  0  0  0
   -8.5094  -10.4190   -7.5010 H   0  0  0  0  0  0
   -9.7617   -8.6237   -6.3256 H   0  0  0  0  0  0
   -5.8825  -18.2064  -13.8763 H   0  0  0  0  0  0
   -4.8933  -16.8647  -13.3677 H   0  0  0  0  0  0
   -3.7074  -18.6709  -12.7697 H   0  0  0  0  0  0
   -4.4030  -18.2298  -11.3766 H   0  0  0  0  0  0
  1  6  1  0  0  0
  1  2  2  0  0  0
  1 39  1  0  0  0
  2  3  1  0  0  0
  2 40  1  0  0  0
  3  4  2  0  0  0
  3  9  1  0  0  0
  4  5  1  0  0  0
  4  8  1  0  0  0
  5  6  2  0  0  0
  5  7  1  0  0  0
  6 41  1  0  0  0
  9 10  1  0  0  0
  9 42  1  0  0  0
  9 43  1  0  0  0
 10 11  1  0  0  0
 10 14  1  0  0  0
 11 13  1  0  0  0
 11 12  1  0  0  0
 11 44  1  0  0  0
 12 13  1  0  0  0
 12 45  1  0  0  0
 12 46  1  0  0  0
 13 47  1  0  0  0
 13 48  1  0  0  0
 14 15  2  0  0  0
 14 16  1  0  0  0
 16 17  1  0  0  0
 16 37  1  0  0  0
 16 49  1  0  0  0
 17 18  1  0  0  0
 17 50  1  0  0  0
 17 51  1  0  0  0
 18 23  1  0  0  0
 18 19  2  0  0  0
 19 20  1  0  0  0
 19 52  1  0  0  0
 20 21  2  0  0  0
 20 53  1  0  0  0
 21 22  1  0  0  0
 21 24  1  0  0  0
 22 23  2  0  0  0
 22 54  1  0  0  0
 23 55  1  0  0  0
 24 25  1  0  0  0
 24 56  1  0  0  0
 24 57  1  0  0  0
 25 26  1  0  0  0
 25 58  1  0  0  0
 25 59  1  0  0  0
 26 27  1  0  0  0
 26 60  1  0  0  0
 26 61  1  0  0  0
 27 28  1  0  0  0
 28 33  1  0  0  0
 28 29  2  0  0  0
 29 30  1  0  0  0
 29 36  1  0  0  0
 30 31  2  0  0  0
 30 62  1  0  0  0
 31 32  1  0  0  0
 31 63  1  0  0  0
 32 33  2  0  0  0
 32 35  1  0  0  0
 33 34  1  0  0  0
 37 38  1  0  0  0
 37 64  1  0  0  0
 37 65  1  0  0  0
 38 66  1  0  0  0
 38 67  1  0  0  0
M  END
> <s_m_entry_id>
27469

> <s_m_entry_name>
ligand_docking-pose.23

> <s_m_Source_Path>
/home/csk/Desktop/cluster/DUD-E-result/reni

> <s_m_Source_File>
ligand_docking-pose.sdf

> <i_m_Source_File_Index>
23

> <i_lp_mmshare_version>
53161

> <i_f3d_flags>
0

> <r_lp_tautomer_probability>
1

> <s_lp_Force_Field>
OPLS_2005

> <r_lp_Energy>
50.915126

> <b_lp_Chiralities_Consistent>
1

> <s_lp_Variant>
620698-1

> <s_i_glide_gridfile>
glide-grid_3g6z

> <i_i_glide_lignum>
7

> <i_i_glide_rotatable_bonds>
13

> <r_i_docking_score>
-8.14356417346415

> <r_i_glide_ligand_efficiency>
-0.21430432035432

> <r_i_glide_ligand_efficiency_sa>
-0.72048585372838

> <r_i_glide_ligand_efficiency_ln>
-1.75599199518584

> <r_i_glide_gscore>
-8.14356417346415

> <r_i_glide_lipo>
-5.39805645604232

> <r_i_glide_hbond>
0

> <r_i_glide_metal>
0

> <r_i_glide_rewards>
-0.153812711974739

> <r_i_glide_evdw>
-52.1599731445312

> <r_i_glide_ecoul>
-3.74482083320618

> <r_i_glide_erotb>
0.578026776760393

> <r_i_glide_esite>
0

> <r_i_glide_emodel>
-80.9136542841567

> <r_i_glide_energy>
-55.9047939777374

> <r_i_glide_einternal>
5.47255182266235

> <i_i_glide_confnum>
51

> <i_i_glide_posenum>
248

> <r_i_glide_eff_state_penalty>
0

> <s_user_duplicate_titles>
620698

> <s_m_subgroup_title>
dock_pv

> <s_m_subgroupid>
dock_pv1

> <b_m_subgroup_collapsed>
0

$$$$
36698
                    3D
 Schrodinger Suite 2021-1.
 92 93  0  0  1  0            999 V2000
   -6.2661  -13.2279   -6.4219 C   0  0  0  0  0  0
   -4.8971  -12.8864   -7.0287 C   0  0  0  0  0  0
   -4.7110  -13.3638   -8.4810 C   0  0  1  0  0  0
   -3.4842  -12.6776   -9.1193 C   0  0  0  0  0  0
   -4.6420  -14.9128   -8.6014 C   0  0  0  0  0  0
   -4.6507  -15.3447   -9.9973 N   0  0  0  0  0  0
   -5.7596  -15.4733  -10.7404 C   0  0  0  0  0  0
   -6.8932  -15.4443  -10.2637 O   0  0  0  0  0  0
   -5.5465  -15.5370  -12.2652 C   0  0  1  0  0  0
   -6.0565  -16.8074  -13.0077 C   0  0  0  0  0  0
   -5.6410  -18.2263  -12.5168 C   0  0  1  0  0  0
   -6.3840  -18.7462  -11.2430 C   0  0  2  0  0  0
   -6.1947  -20.2548  -10.9137 C   0  0  0  0  0  0
   -4.7389  -20.7009  -10.5942 C   0  0  0  0  0  0
   -4.6998  -21.6953   -9.4067 C   0  0  0  0  0  0
   -3.2550  -22.0901   -9.0402 C   0  0  0  0  0  0
   -2.5108  -22.6857  -10.2534 C   0  0  0  0  0  0
   -2.5880  -21.7686  -11.4927 C   0  0  0  0  0  0
   -4.0438  -21.3663  -11.8105 C   0  0  0  0  0  0
   -7.7925  -18.3282  -11.2427 N   0  0  0  0  0  0
   -8.5630  -18.1163  -10.1626 C   0  0  0  0  0  0
   -8.1929  -18.4174   -9.0277 O   0  0  0  0  0  0
   -9.9570  -17.4937  -10.4465 C   0  0  1  0  0  0
  -10.8032  -18.3882  -11.4321 C   0  0  1  0  0  0
  -11.3407  -19.7514  -10.9210 C   0  0  0  0  0  0
  -12.5119  -20.1138  -11.0505 O   0  0  0  0  0  0
  -10.3531  -20.5522  -10.4210 O   0  0  0  0  0  0
  -11.8686  -17.6622  -12.0210 O   0  0  0  0  0  0
  -10.7084  -16.8768   -9.2252 C   0  0  0  0  0  0
  -10.5338  -17.2631   -8.0688 O   0  0  0  0  0  0
  -11.5992  -15.6561   -9.4337 C   0  0  0  0  0  0
  -10.9565  -14.5336   -8.8240 O   0  0  0  0  0  0
  -11.6916  -13.4917   -8.3007 C   0  0  0  0  0  0
  -10.9719  -12.3320   -8.0138 C   0  0  0  0  0  0
  -11.6068  -11.2185   -7.4748 C   0  0  0  0  0  0
  -12.9751  -11.2644   -7.2218 C   0  0  0  0  0  0
  -13.7080  -12.4147   -7.5035 C   0  0  0  0  0  0
  -13.0685  -13.5288   -8.0388 C   0  0  0  0  0  0
   -5.8691  -19.0956  -13.6200 O   0  0  0  0  0  0
   -6.0623  -14.2287  -12.9594 C   0  0  0  0  0  0
   -5.2684  -12.9685  -12.5398 C   0  0  0  0  0  0
   -7.5871  -13.9823  -12.8501 C   0  0  0  0  0  0
   -5.5884  -13.0277   -9.0365 H   0  0  0  0  0  0
   -4.4687  -15.5740  -12.4182 H   0  0  0  0  0  0
   -5.9298  -18.2019  -10.4125 H   0  0  0  0  0  0
   -6.3236  -12.8632   -5.3984 H   0  0  0  0  0  0
   -7.0764  -12.7650   -6.9870 H   0  0  0  0  0  0
   -6.4502  -14.3013   -6.3898 H   0  0  0  0  0  0
   -4.0997  -13.3078   -6.4211 H   0  0  0  0  0  0
   -4.7674  -11.8050   -6.9748 H   0  0  0  0  0  0
   -2.5612  -12.9534   -8.6076 H   0  0  0  0  0  0
   -3.3665  -12.9462  -10.1691 H   0  0  0  0  0  0
   -3.5701  -11.5908   -9.0794 H   0  0  0  0  0  0
   -5.4552  -15.3967   -8.0576 H   0  0  0  0  0  0
   -3.7281  -15.2788   -8.1339 H   0  0  0  0  0  0
   -3.7544  -15.4102  -10.4548 H   0  0  0  0  0  0
   -5.6744  -16.7082  -14.0215 H   0  0  0  0  0  0
   -7.1337  -16.7648  -13.1300 H   0  0  0  0  0  0
   -4.5659  -18.2275  -12.3288 H   0  0  0  0  0  0
   -6.8204  -20.4813  -10.0494 H   0  0  0  0  0  0
   -6.6221  -20.8645  -11.7124 H   0  0  0  0  0  0
   -4.1443  -19.8310  -10.3025 H   0  0  0  0  0  0
   -5.1903  -21.2514   -8.5369 H   0  0  0  0  0  0
   -5.2927  -22.5823   -9.6393 H   0  0  0  0  0  0
   -2.7155  -21.2128   -8.6776 H   0  0  0  0  0  0
   -3.2597  -22.8082   -8.2184 H   0  0  0  0  0  0
   -1.4691  -22.8718   -9.9930 H   0  0  0  0  0  0
   -2.9415  -23.6585  -10.4984 H   0  0  0  0  0  0
   -1.9903  -20.8732  -11.3194 H   0  0  0  0  0  0
   -2.1433  -22.2705  -12.3538 H   0  0  0  0  0  0
   -4.6138  -22.2404  -12.1344 H   0  0  0  0  0  0
   -4.0593  -20.6968  -12.6698 H   0  0  0  0  0  0
   -8.1588  -18.0556  -12.1448 H   0  0  0  0  0  0
   -9.6908  -16.6033  -11.0195 H   0  0  0  0  0  0
  -10.1703  -18.6415  -12.2833 H   0  0  0  0  0  0
   -9.4964  -20.1211  -10.3672 H   0  0  0  0  0  0
  -11.8828  -17.8723  -12.9669 H   0  0  0  0  0  0
  -12.5700  -15.9032   -9.0066 H   0  0  0  0  0  0
  -11.7525  -15.4756  -10.4958 H   0  0  0  0  0  0
   -9.9096  -12.3016   -8.2115 H   0  0  0  0  0  0
  -11.0451  -10.3210   -7.2563 H   0  0  0  0  0  0
  -13.4665  -10.3973   -6.8057 H   0  0  0  0  0  0
  -14.7673  -12.4505   -7.3011 H   0  0  0  0  0  0
  -13.6620  -14.4054   -8.2316 H   0  0  0  0  0  0
   -6.7253  -18.8727  -14.0158 H   0  0  0  0  0  0
   -5.8692  -14.3507  -14.0212 H   0  0  0  0  0  0
   -5.4679  -12.6906  -11.5065 H   0  0  0  0  0  0
   -4.1936  -13.1296  -12.6306 H   0  0  0  0  0  0
   -5.5141  -12.1096  -13.1627 H   0  0  0  0  0  0
   -7.8679  -13.5900  -11.8708 H   0  0  0  0  0  0
   -7.9141  -13.2630  -13.5973 H   0  0  0  0  0  0
   -8.1782  -14.8797  -13.0249 H   0  0  0  0  0  0
  1  2  1  0  0  0
  1 46  1  0  0  0
  1 47  1  0  0  0
  1 48  1  0  0  0
  2  3  1  0  0  0
  2 49  1  0  0  0
  2 50  1  0  0  0
  3 43  1  0  0  0
  3  4  1  0  0  0
  3  5  1  0  0  0
  4 51  1  0  0  0
  4 52  1  0  0  0
  4 53  1  0  0  0
  5  6  1  0  0  0
  5 54  1  0  0  0
  5 55  1  0  0  0
  6  7  1  0  0  0
  6 56  1  0  0  0
  7  8  2  0  0  0
  7  9  1  0  0  0
  9 44  1  0  0  0
  9 10  1  0  0  0
  9 40  1  0  0  0
 10 11  1  0  0  0
 10 57  1  0  0  0
 10 58  1  0  0  0
 11 12  1  0  0  0
 11 39  1  0  0  0
 11 59  1  0  0  0
 12 45  1  0  0  0
 12 13  1  0  0  0
 12 20  1  0  0  0
 13 14  1  0  0  0
 13 60  1  0  0  0
 13 61  1  0  0  0
 14 19  1  0  0  0
 14 15  1  0  0  0
 14 62  1  0  0  0
 15 16  1  0  0  0
 15 63  1  0  0  0
 15 64  1  0  0  0
 16 17  1  0  0  0
 16 65  1  0  0  0
 16 66  1  0  0  0
 17 18  1  0  0  0
 17 67  1  0  0  0
 17 68  1  0  0  0
 18 19  1  0  0  0
 18 69  1  0  0  0
 18 70  1  0  0  0
 19 71  1  0  0  0
 19 72  1  0  0  0
 20 21  1  0  0  0
 20 73  1  0  0  0
 21 22  2  0  0  0
 21 23  1  0  0  0
 23 24  1  0  0  0
 23 29  1  0  0  0
 23 74  1  0  0  0
 24 25  1  0  0  0
 24 28  1  0  0  0
 24 75  1  0  0  0
 25 26  2  0  0  0
 25 27  1  0  0  0
 27 76  1  0  0  0
 28 77  1  0  0  0
 29 30  2  0  0  0
 29 31  1  0  0  0
 31 32  1  0  0  0
 31 78  1  0  0  0
 31 79  1  0  0  0
 32 33  1  0  0  0
 33 38  1  0  0  0
 33 34  2  0  0  0
 34 35  1  0  0  0
 34 80  1  0  0  0
 35 36  2  0  0  0
 35 81  1  0  0  0
 36 37  1  0  0  0
 36 82  1  0  0  0
 37 38  2  0  0  0
 37 83  1  0  0  0
 38 84  1  0  0  0
 39 85  1  0  0  0
 40 41  1  0  0  0
 40 42  1  0  0  0
 40 86  1  0  0  0
 41 87  1  0  0  0
 41 88  1  0  0  0
 41 89  1  0  0  0
 42 90  1  0  0  0
 42 91  1  0  0  0
 42 92  1  0  0  0
M  END
> <s_m_entry_id>
27471

> <s_m_entry_name>
ligand_docking-pose.25

> <s_m_Source_Path>
/home/csk/Desktop/cluster/DUD-E-result/reni

> <s_m_Source_File>
ligand_docking-pose.sdf

> <i_m_Source_File_Index>
25

> <i_lp_mmshare_version>
53161

> <i_f3d_flags>
0

> <r_lp_tautomer_probability>
0.999999960000001

> <s_lp_Force_Field>
OPLS_2005

> <r_lp_Energy>
31.701844

> <b_lp_Chiralities_Consistent>
1

> <s_lp_Variant>
36698-8

> <s_i_glide_gridfile>
glide-grid_3g6z

> <i_i_glide_lignum>
602

> <i_i_glide_rotatable_bonds>
23

> <r_i_docking_score>
-8.11102210817518

> <r_i_glide_ligand_efficiency>
-0.193119574004171

> <r_i_glide_ligand_efficiency_sa>
-0.671288784051267

> <r_i_glide_ligand_efficiency_ln>
-1.71202780305185

> <r_i_glide_gscore>
-8.11102210817518

> <r_i_glide_lipo>
-3.40322354409291

> <r_i_glide_hbond>
-0.333199169190462

> <r_i_glide_metal>
0

> <r_i_glide_rewards>
-0.8014142164272

> <r_i_glide_evdw>
-51.6314964294434

> <r_i_glide_ecoul>
-12.09690284729

> <r_i_glide_erotb>
0.851676674449301

> <r_i_glide_esite>
-0.0287516043482398

> <r_i_glide_emodel>
-82.7997295883605

> <r_i_glide_energy>
-63.7283992767334

> <r_i_glide_einternal>
21.7367286682129

> <i_i_glide_confnum>
54

> <i_i_glide_posenum>
105

> <r_i_glide_eff_state_penalty>
0

> <s_user_duplicate_titles>
36698

> <s_m_subgroup_title>
dock_pv

> <s_m_subgroupid>
dock_pv1

> <b_m_subgroup_collapsed>
0

$$$$
84603
                    3D
 Schrodinger Suite 2021-1.
 84 87  0  0  1  0            999 V2000
   -1.8702  -21.3701  -10.8624 C   0  0  0  0  0  0
   -3.1046  -21.4519  -11.7733 C   0  0  0  0  0  0
   -2.7590  -22.2428  -13.0599 C   0  0  0  0  0  0
   -3.7242  -20.0455  -12.0265 C   0  0  2  0  0  0
   -5.1336  -20.1208  -12.6599 C   0  0  0  0  0  0
   -5.7721  -18.8237  -13.2131 C   0  0  1  0  0  0
   -6.0990  -17.6634  -12.2233 C   0  0  2  0  0  0
   -4.9002  -16.7619  -11.8185 C   0  0  0  0  0  0
   -5.2529  -15.3094  -11.3983 C   0  0  0  0  0  0
   -3.9754  -14.4933  -11.0477 C   0  0  0  0  0  0
   -4.1606  -12.9673  -10.9360 C   0  0  0  0  0  0
   -4.9683  -12.3976  -12.1107 C   0  0  0  0  0  0
   -6.3492  -13.0595  -12.1642 C   0  0  0  0  0  0
   -6.2434  -14.5763  -12.3544 C   0  0  0  0  0  0
   -6.8591  -18.0649  -11.0384 N   0  0  0  0  0  0
   -8.0854  -18.5919  -11.1355 C   0  0  0  0  0  0
   -8.6050  -18.8632  -12.2078 O   0  0  0  0  0  0
   -8.8870  -18.8722   -9.8557 C   0  0  2  0  0  0
   -9.8021  -20.1265  -10.1099 C   0  0  0  0  0  0
  -11.1286  -19.9224  -10.8211 C   0  0  0  0  0  0
  -12.2629  -20.7051  -10.8729 C   0  0  0  0  0  0
  -13.2495  -20.0628  -11.6211 N   0  0  0  0  0  0
  -12.6690  -18.9302  -12.0209 C   0  0  0  0  0  0
  -11.4132  -18.8142  -11.6011 N   0  0  0  0  0  0
   -9.6435  -17.6620   -9.4542 N   0  0  0  0  0  0
   -9.1064  -16.5046   -9.0156 C   0  0  0  0  0  0
   -7.8964  -16.3928   -8.8002 O   0  0  0  0  0  0
   -9.9804  -15.3287   -8.8437 C   0  0  0  0  0  0
   -9.4641  -14.0339   -8.8210 C   0  0  0  0  0  0
  -10.4734  -13.1368   -8.3745 C   0  0  0  0  0  0
  -10.4893  -11.7769   -8.0212 C   0  0  0  0  0  0
  -11.6961  -11.1742   -7.6862 C   0  0  0  0  0  0
  -12.8793  -11.8996   -7.6943 C   0  0  0  0  0  0
  -12.8996  -13.2601   -7.9966 C   0  0  0  0  0  0
  -11.6746  -13.8915   -8.2961 C   0  0  0  0  0  0
  -11.3536  -15.2368   -8.5286 N   0  0  0  0  0  0
  -12.2700  -16.3232   -8.4195 C   0  0  0  0  0  0
  -12.2689  -17.2590   -9.2159 O   0  0  0  0  0  0
  -13.2721  -16.2718   -7.2579 C   0  0  0  0  0  0
   -5.0691  -18.3195  -14.3188 O   0  0  0  0  0  0
   -2.8631  -19.2608  -12.8245 O   0  0  0  0  0  0
   -3.8207  -19.5284  -11.0715 H   0  0  0  0  0  0
   -6.7064  -19.1639  -13.6584 H   0  0  0  0  0  0
   -6.7507  -17.0312  -12.8254 H   0  0  0  0  0  0
   -8.1735  -19.1198   -9.0680 H   0  0  0  0  0  0
  -10.7536  -18.0942  -11.8722 H   0  0  0  0  0  0
   -1.0694  -20.8015  -11.3382 H   0  0  0  0  0  0
   -2.1043  -20.8836   -9.9140 H   0  0  0  0  0  0
   -1.4837  -22.3635  -10.6319 H   0  0  0  0  0  0
   -3.8486  -22.0395  -11.2315 H   0  0  0  0  0  0
   -2.0375  -21.7084  -13.6789 H   0  0  0  0  0  0
   -2.3223  -23.2126  -12.8183 H   0  0  0  0  0  0
   -3.6353  -22.4385  -13.6736 H   0  0  0  0  0  0
   -5.8182  -20.5526  -11.9284 H   0  0  0  0  0  0
   -5.1290  -20.8374  -13.4798 H   0  0  0  0  0  0
   -4.1972  -16.6946  -12.6478 H   0  0  0  0  0  0
   -4.3383  -17.2425  -11.0161 H   0  0  0  0  0  0
   -5.8012  -15.3468  -10.4549 H   0  0  0  0  0  0
   -3.2743  -14.6242  -11.8744 H   0  0  0  0  0  0
   -3.4661  -14.9085  -10.1783 H   0  0  0  0  0  0
   -3.1859  -12.4799  -10.8862 H   0  0  0  0  0  0
   -4.6670  -12.7319   -9.9982 H   0  0  0  0  0  0
   -4.4384  -12.5706  -13.0500 H   0  0  0  0  0  0
   -5.0662  -11.3168  -12.0213 H   0  0  0  0  0  0
   -6.9487  -12.6219  -12.9619 H   0  0  0  0  0  0
   -6.8995  -12.8630  -11.2440 H   0  0  0  0  0  0
   -7.2362  -15.0281  -12.3393 H   0  0  0  0  0  0
   -5.8704  -14.7123  -13.3708 H   0  0  0  0  0  0
   -6.5121  -17.7809  -10.1331 H   0  0  0  0  0  0
   -9.2643  -20.8662  -10.7070 H   0  0  0  0  0  0
   -9.9730  -20.6850   -9.2059 H   0  0  0  0  0  0
  -12.4540  -21.6647  -10.4211 H   0  0  0  0  0  0
  -13.1397  -18.2118  -12.6766 H   0  0  0  0  0  0
  -10.6550  -17.7167   -9.5385 H   0  0  0  0  0  0
   -8.4260  -13.7874   -9.0002 H   0  0  0  0  0  0
   -9.5809  -11.1941   -8.0211 H   0  0  0  0  0  0
  -11.7219  -10.1230   -7.4351 H   0  0  0  0  0  0
  -13.8031  -11.3947   -7.4497 H   0  0  0  0  0  0
  -13.8399  -13.7859   -7.9777 H   0  0  0  0  0  0
  -12.8908  -15.6769   -6.4219 H   0  0  0  0  0  0
  -14.2327  -15.8835   -7.5918 H   0  0  0  0  0  0
  -13.4689  -17.2630   -6.8660 H   0  0  0  0  0  0
   -5.7122  -18.0627  -15.0043 H   0  0  0  0  0  0
   -3.4114  -18.6152  -13.2886 H   0  0  0  0  0  0
  1  2  1  0  0  0
  1 47  1  0  0  0
  1 48  1  0  0  0
  1 49  1  0  0  0
  2  3  1  0  0  0
  2  4  1  0  0  0
  2 50  1  0  0  0
  3 51  1  0  0  0
  3 52  1  0  0  0
  3 53  1  0  0  0
  4 42  1  0  0  0
  4  5  1  0  0  0
  4 41  1  0  0  0
  5  6  1  0  0  0
  5 54  1  0  0  0
  5 55  1  0  0  0
  6 43  1  0  0  0
  6  7  1  0  0  0
  6 40  1  0  0  0
  7 44  1  0  0  0
  7  8  1  0  0  0
  7 15  1  0  0  0
  8  9  1  0  0  0
  8 56  1  0  0  0
  8 57  1  0  0  0
  9 14  1  0  0  0
  9 10  1  0  0  0
  9 58  1  0  0  0
 10 11  1  0  0  0
 10 59  1  0  0  0
 10 60  1  0  0  0
 11 12  1  0  0  0
 11 61  1  0  0  0
 11 62  1  0  0  0
 12 13  1  0  0  0
 12 63  1  0  0  0
 12 64  1  0  0  0
 13 14  1  0  0  0
 13 65  1  0  0  0
 13 66  1  0  0  0
 14 67  1  0  0  0
 14 68  1  0  0  0
 15 16  1  0  0  0
 15 69  1  0  0  0
 16 17  2  0  0  0
 16 18  1  0  0  0
 18 45  1  0  0  0
 18 19  1  0  0  0
 18 25  1  0  0  0
 19 70  1  0  0  0
 19 71  1  0  0  0
 19 20  1  0  0  0
 20 21  2  0  0  0
 20 24  1  0  0  0
 21 72  1  0  0  0
 21 22  1  0  0  0
 22 23  2  0  0  0
 23 24  1  0  0  0
 23 73  1  0  0  0
 24 46  1  0  0  0
 25 26  1  0  0  0
 25 74  1  0  0  0
 26 27  2  0  0  0
 26 28  1  0  0  0
 28 36  1  0  0  0
 28 29  2  0  0  0
 29 30  1  0  0  0
 29 75  1  0  0  0
 30 35  2  0  0  0
 30 31  1  0  0  0
 31 32  2  0  0  0
 31 76  1  0  0  0
 32 33  1  0  0  0
 32 77  1  0  0  0
 33 34  2  0  0  0
 33 78  1  0  0  0
 34 35  1  0  0  0
 34 79  1  0  0  0
 35 36  1  0  0  0
 36 37  1  0  0  0
 37 38  2  0  0  0
 37 39  1  0  0  0
 39 80  1  0  0  0
 39 81  1  0  0  0
 39 82  1  0  0  0
 40 83  1  0  0  0
 41 84  1  0  0  0
M  END
> <s_m_entry_id>
27473

> <s_m_entry_name>
ligand_docking-pose.27

> <s_m_Source_Path>
/home/csk/Desktop/cluster/DUD-E-result/reni

> <s_m_Source_File>
ligand_docking-pose.sdf

> <i_m_Source_File_Index>
27

> <i_lp_mmshare_version>
53161

> <i_f3d_flags>
0

> <r_lp_tautomer_probability>
0.499999999999999

> <s_lp_Force_Field>
OPLS_2005

> <r_lp_Energy>
36.072156

> <b_lp_Chiralities_Consistent>
1

> <s_lp_Variant>
84603-2

> <s_i_glide_gridfile>
glide-grid_3g6z

> <i_i_glide_lignum>
431

> <i_i_glide_rotatable_bonds>
17

> <r_i_docking_score>
-8.07971807933762

> <r_i_glide_ligand_efficiency>
-0.197066294617991

> <r_i_glide_ligand_efficiency_sa>
-0.67952739375894

> <r_i_glide_ligand_efficiency_ln>
-1.71413907860051

> <r_i_glide_gscore>
-8.07971807933762

> <r_i_glide_lipo>
-3.27174723366166

> <r_i_glide_hbond>
-0.291059218940183

> <r_i_glide_metal>
0

> <r_i_glide_rewards>
-1.66547255121731

> <r_i_glide_evdw>
-35.7401924133301

> <r_i_glide_ecoul>
-10.4223508834839

> <r_i_glide_erotb>
0.630140548149738

> <r_i_glide_esite>
-0.13121737047911

> <r_i_glide_emodel>
-54.9832791755526

> <r_i_glide_energy>
-46.162543296814

> <r_i_glide_einternal>
20.8986320495605

> <i_i_glide_confnum>
48

> <i_i_glide_posenum>
31

> <r_i_glide_eff_state_penalty>
0

> <s_user_duplicate_titles>
84603

> <s_m_subgroup_title>
dock_pv

> <s_m_subgroupid>
dock_pv1

> <b_m_subgroup_collapsed>
0

$$$$
405851
                    3D
 Schrodinger Suite 2021-1.
 62 65  0  0  1  0            999 V2000
   -2.2431  -20.5886  -12.8749 C   0  0  0  0  0  0
   -2.0565  -19.8663  -11.5307 C   0  0  0  0  0  0
   -1.1989  -18.6069  -11.6415 C   0  0  0  0  0  0
   -1.6893  -17.2990  -11.4329 C   0  0  0  0  0  0
   -0.7214  -16.2741  -11.5079 C   0  0  0  0  0  0
    0.5831  -16.5079  -11.7977 N   0  0  0  0  0  0
    0.9241  -17.7961  -12.0205 C   0  0  0  0  0  0
    0.0988  -18.8583  -11.9522 N   0  0  0  0  0  0
    2.2340  -18.0625  -12.3791 N   0  0  0  0  0  0
   -1.0690  -14.9330  -11.3654 N   0  0  0  0  0  0
   -3.1389  -17.0134  -11.2087 C   0  0  0  0  0  0
   -4.0900  -17.3974  -12.1626 C   0  0  0  0  0  0
   -5.4456  -17.1524  -11.9618 C   0  0  0  0  0  0
   -5.8501  -16.4956  -10.8047 C   0  0  0  0  0  0
   -4.9349  -16.0625   -9.8433 C   0  0  0  0  0  0
   -3.5730  -16.3449  -10.0557 C   0  0  0  0  0  0
   -5.4459  -15.4215   -8.6887 N   0  0  0  0  0  0
   -6.6893  -14.8565   -8.6058 C   0  0  0  0  0  0
   -7.0681  -14.1868   -7.6409 O   0  0  0  0  0  0
   -7.5916  -15.1256   -9.8769 C   0  0  2  0  0  0
   -7.1976  -16.3113  -10.6089 O   0  0  0  0  0  0
   -7.4452  -13.9185  -10.8447 C   0  0  0  0  0  0
   -9.0703  -15.2606   -9.4242 C   0  0  0  0  0  0
   -9.7956  -16.4378   -9.6747 C   0  0  0  0  0  0
  -11.1440  -16.5376   -9.3315 C   0  0  0  0  0  0
  -11.7899  -15.4765   -8.7033 C   0  0  0  0  0  0
  -11.0936  -14.3009   -8.4409 C   0  0  0  0  0  0
   -9.7562  -14.1865   -8.8210 C   0  0  0  0  0  0
  -11.7190  -13.2628   -7.8435 F   0  0  0  0  0  0
  -11.8308  -17.6630   -9.6218 F   0  0  0  0  0  0
   -4.5227  -15.2145   -7.5464 C   0  0  0  0  0  0
   -3.7031  -13.8997   -7.5634 C   0  0  0  0  0  0
   -4.5185  -12.6289   -7.2526 C   0  0  0  0  0  0
   -3.6728  -11.5696   -6.8219 O   0  0  0  0  0  0
   -3.2340  -10.6580   -7.8195 C   0  0  0  0  0  0
   -2.4920   -9.7281   -7.2210 F   0  0  0  0  0  0
   -4.2688  -10.0631   -8.4130 F   0  0  0  0  0  0
   -2.4907  -11.2710   -8.7411 F   0  0  0  0  0  0
   -2.9021  -21.4506  -12.7696 H   0  0  0  0  0  0
   -2.6738  -19.9231  -13.6210 H   0  0  0  0  0  0
   -1.2920  -20.9491  -13.2690 H   0  0  0  0  0  0
   -1.5778  -20.5438  -10.8224 H   0  0  0  0  0  0
   -3.0279  -19.6438  -11.0914 H   0  0  0  0  0  0
    2.4989  -19.0259  -12.5225 H   0  0  0  0  0  0
    2.9110  -17.3186  -12.3495 H   0  0  0  0  0  0
   -2.0508  -14.7081  -11.3034 H   0  0  0  0  0  0
   -0.3936  -14.2154  -11.6168 H   0  0  0  0  0  0
   -3.7761  -17.8878  -13.0716 H   0  0  0  0  0  0
   -6.1758  -17.4636  -12.6961 H   0  0  0  0  0  0
   -2.8250  -16.0490   -9.3359 H   0  0  0  0  0  0
   -7.8685  -12.9997  -10.4397 H   0  0  0  0  0  0
   -6.4037  -13.7163  -11.0997 H   0  0  0  0  0  0
   -7.9643  -14.1181  -11.7826 H   0  0  0  0  0  0
   -9.3305  -17.2815  -10.1630 H   0  0  0  0  0  0
  -12.8321  -15.5621   -8.4341 H   0  0  0  0  0  0
   -9.2505  -13.2530   -8.6231 H   0  0  0  0  0  0
   -3.8426  -16.0629   -7.4755 H   0  0  0  0  0  0
   -5.0892  -15.2642   -6.6139 H   0  0  0  0  0  0
   -3.1687  -13.7908   -8.5075 H   0  0  0  0  0  0
   -2.9332  -13.9894   -6.7963 H   0  0  0  0  0  0
   -5.1949  -12.8260   -6.4207 H   0  0  0  0  0  0
   -5.1449  -12.3462   -8.1008 H   0  0  0  0  0  0
  1  2  1  0  0  0
  1 39  1  0  0  0
  1 40  1  0  0  0
  1 41  1  0  0  0
  2  3  1  0  0  0
  2 42  1  0  0  0
  2 43  1  0  0  0
  3  8  1  0  0  0
  3  4  2  0  0  0
  4  5  1  0  0  0
  4 11  1  0  0  0
  5  6  2  0  0  0
  5 10  1  0  0  0
  6  7  1  0  0  0
  7  8  2  0  0  0
  7  9  1  0  0  0
  9 44  1  0  0  0
  9 45  1  0  0  0
 10 46  1  0  0  0
 10 47  1  0  0  0
 11 16  1  0  0  0
 11 12  2  0  0  0
 12 13  1  0  0  0
 12 48  1  0  0  0
 13 14  2  0  0  0
 13 49  1  0  0  0
 14 21  1  0  0  0
 14 15  1  0  0  0
 15 16  2  0  0  0
 15 17  1  0  0  0
 16 50  1  0  0  0
 17 18  1  0  0  0
 17 31  1  0  0  0
 18 19  2  0  0  0
 18 20  1  0  0  0
 20 21  1  0  0  0
 20 22  1  0  0  0
 20 23  1  0  0  0
 22 51  1  0  0  0
 22 52  1  0  0  0
 22 53  1  0  0  0
 23 28  1  0  0  0
 23 24  2  0  0  0
 24 25  1  0  0  0
 24 54  1  0  0  0
 25 26  2  0  0  0
 25 30  1  0  0  0
 26 27  1  0  0  0
 26 55  1  0  0  0
 27 28  2  0  0  0
 27 29  1  0  0  0
 28 56  1  0  0  0
 31 32  1  0  0  0
 31 57  1  0  0  0
 31 58  1  0  0  0
 32 33  1  0  0  0
 32 59  1  0  0  0
 32 60  1  0  0  0
 33 34  1  0  0  0
 33 61  1  0  0  0
 33 62  1  0  0  0
 34 35  1  0  0  0
 35 36  1  0  0  0
 35 37  1  0  0  0
 35 38  1  0  0  0
M  END
> <s_m_entry_id>
27475

> <s_m_entry_name>
ligand_docking-pose.29

> <s_m_Source_Path>
/home/csk/Desktop/cluster/DUD-E-result/reni

> <s_m_Source_File>
ligand_docking-pose.sdf

> <i_m_Source_File_Index>
29

> <i_lp_mmshare_version>
53161

> <i_f3d_flags>
0

> <r_lp_tautomer_probability>
0.999999624730965

> <s_lp_Force_Field>
OPLS_2005

> <r_lp_Energy>
30.228602

> <b_lp_Chiralities_Consistent>
1

> <s_lp_Variant>
405851-2

> <s_i_glide_gridfile>
glide-grid_3g6z

> <i_i_glide_lignum>
105

> <i_i_glide_rotatable_bonds>
8

> <r_i_docking_score>
-8.03751446197711

> <r_i_glide_ligand_efficiency>
-0.211513538473082

> <r_i_glide_ligand_efficiency_sa>
-0.711103313689294

> <r_i_glide_ligand_efficiency_ln>
-1.73312455772279

> <r_i_glide_gscore>
-8.03751446197711

> <r_i_glide_lipo>
-2.72336248464156

> <r_i_glide_hbond>
-0.554677059642718

> <r_i_glide_metal>
0

> <r_i_glide_rewards>
-2.45971099430074

> <r_i_glide_evdw>
-40.7123794555664

> <r_i_glide_ecoul>
-4.51897668838501

> <r_i_glide_erotb>
0.429028179780248

> <r_i_glide_esite>
-0.0153266271362653

> <r_i_glide_emodel>
-67.2151390263957

> <r_i_glide_energy>
-45.2313561439514

> <r_i_glide_einternal>
2.3698947429657

> <i_i_glide_confnum>
107

> <i_i_glide_posenum>
271

> <r_i_glide_eff_state_penalty>
0

> <s_user_duplicate_titles>
405851

> <s_m_subgroup_title>
dock_pv

> <s_m_subgroupid>
dock_pv1

> <b_m_subgroup_collapsed>
0

$$$$
72333
                    3D
 Schrodinger Suite 2021-1.
 93 94  0  0  1  0            999 V2000
  -13.5320  -21.0177  -11.0259 C   0  0  0  0  0  0
  -12.4414  -20.1091  -11.5908 C   0  0  0  0  0  0
  -11.8695  -19.2886  -10.5789 O   0  0  0  0  0  0
  -11.3247  -18.1020  -10.8826 C   0  0  0  0  0  0
  -11.2702  -17.6627  -12.0207 O   0  0  0  0  0  0
  -10.8133  -17.3418   -9.6595 C   0  0  2  0  0  0
  -12.0262  -16.6368   -8.9858 C   0  0  0  0  0  0
  -11.7152  -15.9288   -7.6452 C   0  0  0  0  0  0
  -12.0220  -14.4341   -7.6609 C   0  0  0  0  0  0
  -11.0537  -13.5230   -8.0886 C   0  0  0  0  0  0
  -11.3184  -12.1555   -8.0713 C   0  0  0  0  0  0
  -12.5597  -11.7013   -7.6347 C   0  0  0  0  0  0
  -13.5376  -12.6027   -7.2228 C   0  0  0  0  0  0
  -13.2678  -13.9709   -7.2338 C   0  0  0  0  0  0
   -9.7700  -16.3194   -9.9766 N   0  0  1  0  0  0
   -8.6286  -16.5798  -10.9073 C   0  0  1  0  0  0
   -7.6038  -15.4037  -10.8532 C   0  0  0  0  0  0
   -6.7784  -15.1217  -12.1396 C   0  0  0  0  0  0
   -7.6172  -14.4737  -13.2571 C   0  0  0  0  0  0
   -5.9931  -16.3406  -12.6619 C   0  0  0  0  0  0
   -7.9545  -17.9422  -10.5957 C   0  0  0  0  0  0
   -7.5171  -18.1769   -9.4667 O   0  0  0  0  0  0
   -7.8669  -18.8006  -11.6293 N   0  0  0  0  0  0
   -7.1334  -20.0749  -11.6184 C   0  0  1  0  0  0
   -7.8801  -21.1541  -10.7679 C   0  0  0  0  0  0
   -7.0052  -21.9530   -9.7596 C   0  0  0  0  0  0
   -6.5054  -21.0874   -8.5771 C   0  0  0  0  0  0
   -5.6135  -21.8929   -7.6094 C   0  0  0  0  0  0
   -6.3332  -23.1538   -7.0881 C   0  0  0  0  0  0
   -6.9115  -24.0076   -8.2364 C   0  0  0  0  0  0
   -7.7848  -23.1597   -9.1853 C   0  0  0  0  0  0
   -6.8122  -20.5604  -13.0753 C   0  0  2  0  0  0
   -5.8232  -21.7674  -13.1315 C   0  0  2  0  0  0
   -4.3603  -21.3936  -12.7461 C   0  0  0  0  0  0
   -3.2462  -22.3956  -13.1201 C   0  0  0  0  0  0
   -3.4651  -23.7857  -12.5037 C   0  0  0  0  0  0
   -1.8657  -21.8234  -12.7479 C   0  0  0  0  0  0
   -5.8690  -22.3554  -14.4209 O   0  0  0  0  0  0
   -6.2697  -19.5171  -13.8875 O   0  0  0  0  0  0
   -9.0154  -16.6127  -11.9269 H   0  0  0  0  0  0
   -6.1680  -19.8463  -11.1646 H   0  0  0  0  0  0
   -7.7571  -20.8577  -13.5341 H   0  0  0  0  0  0
   -6.1737  -22.5500  -12.4609 H   0  0  0  0  0  0
  -14.0840  -21.5025  -11.8322 H   0  0  0  0  0  0
  -13.0911  -21.8066  -10.4209 H   0  0  0  0  0  0
  -14.2484  -20.4630  -10.4194 H   0  0  0  0  0  0
  -12.8830  -19.4999  -12.3832 H   0  0  0  0  0  0
  -11.6459  -20.7203  -12.0158 H   0  0  0  0  0  0
  -10.3853  -18.0630   -8.9643 H   0  0  0  0  0  0
  -12.4905  -15.9324   -9.6814 H   0  0  0  0  0  0
  -12.8002  -17.3787   -8.7818 H   0  0  0  0  0  0
  -12.2805  -16.3945   -6.8360 H   0  0  0  0  0  0
  -10.6754  -16.0788   -7.3624 H   0  0  0  0  0  0
  -10.0878  -13.8707   -8.4224 H   0  0  0  0  0  0
  -10.5690  -11.4479   -8.3956 H   0  0  0  0  0  0
  -12.7665  -10.6401   -7.6225 H   0  0  0  0  0  0
  -14.4979  -12.2374   -6.8869 H   0  0  0  0  0  0
  -14.0220  -14.6723   -6.9087 H   0  0  0  0  0  0
  -10.2166  -15.4420  -10.2042 H   0  0  0  0  0  0
   -8.1288  -14.4765  -10.6141 H   0  0  0  0  0  0
   -6.9204  -15.5457  -10.0131 H   0  0  0  0  0  0
   -6.0260  -14.3818  -11.8597 H   0  0  0  0  0  0
   -8.5978  -14.9397  -13.3645 H   0  0  0  0  0  0
   -7.7748  -13.4113  -13.0611 H   0  0  0  0  0  0
   -7.1078  -14.5509  -14.2201 H   0  0  0  0  0  0
   -6.5944  -16.9115  -13.3679 H   0  0  0  0  0  0
   -5.0807  -16.0599  -13.1833 H   0  0  0  0  0  0
   -5.6880  -17.0044  -11.8548 H   0  0  0  0  0  0
   -8.2458  -18.5004  -12.5208 H   0  0  0  0  0  0
   -8.3788  -21.8526  -11.4414 H   0  0  0  0  0  0
   -8.7015  -20.7004  -10.2095 H   0  0  0  0  0  0
   -6.1253  -22.3466  -10.2681 H   0  0  0  0  0  0
   -7.3609  -20.6698   -8.0456 H   0  0  0  0  0  0
   -5.9561  -20.2197   -8.9397 H   0  0  0  0  0  0
   -5.3120  -21.2657   -6.7702 H   0  0  0  0  0  0
   -4.6922  -22.1812   -8.1192 H   0  0  0  0  0  0
   -7.1442  -22.8560   -6.4211 H   0  0  0  0  0  0
   -5.6481  -23.7513   -6.4860 H   0  0  0  0  0  0
   -7.4962  -24.8322   -7.8271 H   0  0  0  0  0  0
   -6.0939  -24.4627   -8.8003 H   0  0  0  0  0  0
   -8.1567  -23.7838   -9.9992 H   0  0  0  0  0  0
   -8.6805  -22.8134   -8.6700 H   0  0  0  0  0  0
   -4.0899  -20.4474  -13.2162 H   0  0  0  0  0  0
   -4.3182  -21.2051  -11.6717 H   0  0  0  0  0  0
   -3.2551  -22.5146  -14.2051 H   0  0  0  0  0  0
   -3.4605  -23.7495  -11.4141 H   0  0  0  0  0  0
   -4.4093  -24.2275  -12.8242 H   0  0  0  0  0  0
   -2.6747  -24.4629  -12.8206 H   0  0  0  0  0  0
   -1.7519  -21.7114  -11.6687 H   0  0  0  0  0  0
   -1.0598  -22.4630  -13.1006 H   0  0  0  0  0  0
   -1.7074  -20.8443  -13.1992 H   0  0  0  0  0  0
   -6.7963  -22.4645  -14.6809 H   0  0  0  0  0  0
   -6.9754  -18.9406  -14.2144 H   0  0  0  0  0  0
  1  2  1  0  0  0
  1 44  1  0  0  0
  1 45  1  0  0  0
  1 46  1  0  0  0
  2  3  1  0  0  0
  2 47  1  0  0  0
  2 48  1  0  0  0
  3  4  1  0  0  0
  4  5  2  0  0  0
  4  6  1  0  0  0
  6  7  1  0  0  0
  6 15  1  0  0  0
  6 49  1  0  0  0
  7  8  1  0  0  0
  7 50  1  0  0  0
  7 51  1  0  0  0
  8  9  1  0  0  0
  8 52  1  0  0  0
  8 53  1  0  0  0
  9 14  1  0  0  0
  9 10  2  0  0  0
 10 11  1  0  0  0
 10 54  1  0  0  0
 11 12  2  0  0  0
 11 55  1  0  0  0
 12 13  1  0  0  0
 12 56  1  0  0  0
 13 14  2  0  0  0
 13 57  1  0  0  0
 14 58  1  0  0  0
 15 16  1  0  0  0
 15 59  1  0  0  0
 16 40  1  0  0  0
 16 17  1  0  0  0
 16 21  1  0  0  0
 17 18  1  0  0  0
 17 60  1  0  0  0
 17 61  1  0  0  0
 18 19  1  0  0  0
 18 20  1  0  0  0
 18 62  1  0  0  0
 19 63  1  0  0  0
 19 64  1  0  0  0
 19 65  1  0  0  0
 20 66  1  0  0  0
 20 67  1  0  0  0
 20 68  1  0  0  0
 21 22  2  0  0  0
 21 23  1  0  0  0
 23 24  1  0  0  0
 23 69  1  0  0  0
 24 41  1  0  0  0
 24 25  1  0  0  0
 24 32  1  0  0  0
 25 26  1  0  0  0
 25 70  1  0  0  0
 25 71  1  0  0  0
 26 31  1  0  0  0
 26 27  1  0  0  0
 26 72  1  0  0  0
 27 28  1  0  0  0
 27 73  1  0  0  0
 27 74  1  0  0  0
 28 29  1  0  0  0
 28 75  1  0  0  0
 28 76  1  0  0  0
 29 30  1  0  0  0
 29 77  1  0  0  0
 29 78  1  0  0  0
 30 31  1  0  0  0
 30 79  1  0  0  0
 30 80  1  0  0  0
 31 81  1  0  0  0
 31 82  1  0  0  0
 32 42  1  0  0  0
 32 33  1  0  0  0
 32 39  1  0  0  0
 33 43  1  0  0  0
 33 34  1  0  0  0
 33 38  1  0  0  0
 34 35  1  0  0  0
 34 83  1  0  0  0
 34 84  1  0  0  0
 35 36  1  0  0  0
 35 37  1  0  0  0
 35 85  1  0  0  0
 36 86  1  0  0  0
 36 87  1  0  0  0
 36 88  1  0  0  0
 37 89  1  0  0  0
 37 90  1  0  0  0
 37 91  1  0  0  0
 38 92  1  0  0  0
 39 93  1  0  0  0
M  END
> <s_m_entry_id>
27479

> <s_m_entry_name>
ligand_docking-pose.33

> <s_m_Source_Path>
/home/csk/Desktop/cluster/DUD-E-result/reni

> <s_m_Source_File>
ligand_docking-pose.sdf

> <i_m_Source_File_Index>
33

> <i_lp_mmshare_version>
53161

> <i_f3d_flags>
0

> <r_lp_tautomer_probability>
1

> <s_lp_Force_Field>
OPLS_2005

> <r_lp_Energy>
28.183587

> <b_lp_Chiralities_Consistent>
1

> <s_lp_Variant>
72333-1

> <s_i_glide_gridfile>
glide-grid_3g6z

> <i_i_glide_lignum>
740

> <i_i_glide_rotatable_bonds>
21

> <r_i_docking_score>
-7.90883541117011

> <r_i_glide_ligand_efficiency>
-0.202790651568464

> <r_i_glide_ligand_efficiency_sa>
-0.687705977295458

> <r_i_glide_ligand_efficiency_ln>
-1.69587881779879

> <r_i_glide_gscore>
-7.90883541117011

> <r_i_glide_lipo>
-4.37137386085762

> <r_i_glide_hbond>
-0.0187270166715997

> <r_i_glide_metal>
0

> <r_i_glide_rewards>
-0.883455906416833

> <r_i_glide_evdw>
-45.6661567687988

> <r_i_glide_ecoul>
-8.44718456268311

> <r_i_glide_erotb>
0.969890333268985

> <r_i_glide_esite>
-0.0547834376506442

> <r_i_glide_emodel>
-74.9773285520888

> <r_i_glide_energy>
-54.1133413314819

> <r_i_glide_einternal>
13.6434593200684

> <i_i_glide_confnum>
13

> <i_i_glide_posenum>
128

> <r_i_glide_eff_state_penalty>
0

> <s_user_duplicate_titles>
72333

> <s_m_subgroup_title>
dock_pv

> <s_m_subgroupid>
dock_pv1

> <b_m_subgroup_collapsed>
0

$$$$
553300
                    3D
 Schrodinger Suite 2021-1.
 92 93  0  0  1  0            999 V2000
   -6.3258  -23.0218  -10.8399 C   0  0  0  0  0  0
   -5.8320  -21.5642  -10.9606 C   0  0  2  0  0  0
   -6.1132  -21.0025  -12.3870 C   0  0  0  0  0  0
   -5.8808  -19.4760  -12.5899 C   0  0  2  0  0  0
   -6.8462  -18.5289  -11.7883 C   0  0  1  0  0  0
   -6.6156  -17.0009  -12.0148 C   0  0  0  0  0  0
   -7.6803  -16.0140  -11.4207 C   0  0  1  0  0  0
   -7.8449  -16.1279   -9.8746 C   0  0  0  0  0  0
   -9.2706  -15.8963   -9.3735 C   0  0  0  0  0  0
  -10.1629  -16.9686   -9.3664 C   0  0  0  0  0  0
  -11.4484  -16.8117   -8.8562 C   0  0  0  0  0  0
  -11.8738  -15.5774   -8.3488 C   0  0  0  0  0  0
  -11.0142  -14.4749   -8.4211 C   0  0  0  0  0  0
   -9.7025  -14.6485   -8.9081 C   0  0  0  0  0  0
  -11.5007  -13.2860   -7.9090 O   0  0  0  0  0  0
  -10.8270  -12.0711   -8.1904 C   0  0  0  0  0  0
  -11.8112  -10.9157   -7.9956 C   0  0  0  0  0  0
  -12.0557  -10.5546   -6.5264 C   0  0  0  0  0  0
  -10.8821  -10.0774   -5.8759 O   0  0  0  0  0  0
  -10.4713   -8.7761   -6.2771 C   0  0  0  0  0  0
  -13.1184  -15.3765   -7.7761 O   0  0  0  0  0  0
  -13.8159  -16.4965   -7.2476 C   0  0  0  0  0  0
   -7.4942  -14.5330  -11.8791 C   0  0  0  0  0  0
   -7.7548  -14.3328  -13.3840 C   0  0  0  0  0  0
   -6.1294  -13.9168  -11.4974 C   0  0  0  0  0  0
   -8.2428  -18.8672  -12.0210 N   0  0  0  0  0  0
   -5.8691  -19.2259  -13.9870 O   0  0  0  0  0  0
   -4.3400  -21.4769  -10.5771 C   0  0  0  0  0  0
   -3.4814  -21.9136  -11.3424 O   0  0  0  0  0  0
   -4.0424  -20.9029   -9.3978 N   0  0  0  0  0  0
   -2.6854  -20.6549   -8.8905 C   0  0  0  0  0  0
   -2.4853  -19.2007   -8.3980 C   0  0  0  0  0  0
   -2.0647  -18.2388   -9.4309 N   0  0  1  0  0  0
   -3.0160  -18.1609  -10.5519 C   0  0  0  0  0  0
   -2.6022  -17.1381  -11.6212 C   0  0  0  0  0  0
   -2.3444  -15.7499  -11.0317 C   0  0  0  0  0  0
   -1.3625  -15.8669   -9.8571 C   0  0  0  0  0  0
   -1.8100  -16.9219   -8.8226 C   0  0  0  0  0  0
   -1.8689  -14.8629  -12.0181 O   0  0  0  0  0  0
   -6.4110  -20.9757  -10.2491 H   0  0  0  0  0  0
   -4.8669  -19.2435  -12.2769 H   0  0  0  0  0  0
   -6.6703  -18.7339  -10.7350 H   0  0  0  0  0  0
   -8.6352  -16.3258  -11.8475 H   0  0  0  0  0  0
   -6.1723  -23.4176   -9.8346 H   0  0  0  0  0  0
   -7.3927  -23.0990  -11.0552 H   0  0  0  0  0  0
   -5.8037  -23.6828  -11.5331 H   0  0  0  0  0  0
   -7.1351  -21.2448  -12.6823 H   0  0  0  0  0  0
   -5.4941  -21.5532  -13.0970 H   0  0  0  0  0  0
   -6.5524  -16.8250  -13.0887 H   0  0  0  0  0  0
   -5.6317  -16.7413  -11.6244 H   0  0  0  0  0  0
   -7.1612  -15.4643   -9.3443 H   0  0  0  0  0  0
   -7.5538  -17.1192   -9.5310 H   0  0  0  0  0  0
   -9.8500  -17.9320   -9.7445 H   0  0  0  0  0  0
  -12.1066  -17.6620   -8.8662 H   0  0  0  0  0  0
   -9.0092  -13.8208   -8.9176 H   0  0  0  0  0  0
  -10.5155  -12.0648   -9.2232 H   0  0  0  0  0  0
   -9.9291  -11.9568   -7.5874 H   0  0  0  0  0  0
  -12.7748  -11.1841   -8.4244 H   0  0  0  0  0  0
  -11.4687  -10.0463   -8.5543 H   0  0  0  0  0  0
  -12.3969  -11.4548   -6.0210 H   0  0  0  0  0  0
  -12.8659   -9.8313   -6.4223 H   0  0  0  0  0  0
   -9.6655   -8.4502   -5.6227 H   0  0  0  0  0  0
  -11.2825   -8.0510   -6.1908 H   0  0  0  0  0  0
  -10.0935   -8.7639   -7.2997 H   0  0  0  0  0  0
  -14.7603  -16.1627   -6.8195 H   0  0  0  0  0  0
  -14.0409  -17.2365   -8.0126 H   0  0  0  0  0  0
  -13.2392  -16.9772   -6.4580 H   0  0  0  0  0  0
   -8.2684  -13.9490  -11.3714 H   0  0  0  0  0  0
   -6.9436  -14.7259  -13.9963 H   0  0  0  0  0  0
   -8.6693  -14.8289  -13.7011 H   0  0  0  0  0  0
   -7.8592  -13.2714  -13.6172 H   0  0  0  0  0  0
   -5.3064  -14.4204  -12.0038 H   0  0  0  0  0  0
   -6.0831  -12.8650  -11.7825 H   0  0  0  0  0  0
   -5.9386  -13.9615  -10.4257 H   0  0  0  0  0  0
   -8.5268  -18.4873  -12.9277 H   0  0  0  0  0  0
   -8.3468  -19.8693  -12.0903 H   0  0  0  0  0  0
   -6.7153  -18.8342  -14.2604 H   0  0  0  0  0  0
   -4.8012  -20.6349   -8.7900 H   0  0  0  0  0  0
   -2.4972  -21.3457   -8.0680 H   0  0  0  0  0  0
   -1.9178  -20.8932   -9.6321 H   0  0  0  0  0  0
   -3.3372  -18.8600   -7.8052 H   0  0  0  0  0  0
   -1.6267  -19.2383   -7.7234 H   0  0  0  0  0  0
   -3.0611  -19.1313  -11.0394 H   0  0  0  0  0  0
   -4.0165  -17.9401  -10.1727 H   0  0  0  0  0  0
   -1.7282  -17.5220  -12.1505 H   0  0  0  0  0  0
   -3.3901  -17.0770  -12.3737 H   0  0  0  0  0  0
   -3.2733  -15.3178  -10.6507 H   0  0  0  0  0  0
   -1.2778  -14.9004   -9.3612 H   0  0  0  0  0  0
   -0.3543  -16.0993  -10.2031 H   0  0  0  0  0  0
   -2.7097  -16.5806   -8.3045 H   0  0  0  0  0  0
   -1.0401  -17.0311   -8.0568 H   0  0  0  0  0  0
   -2.4912  -14.8630  -12.7594 H   0  0  0  0  0  0
  1  2  1  0  0  0
  1 44  1  0  0  0
  1 45  1  0  0  0
  1 46  1  0  0  0
  2 40  1  0  0  0
  2  3  1  0  0  0
  2 28  1  0  0  0
  3  4  1  0  0  0
  3 47  1  0  0  0
  3 48  1  0  0  0
  4 41  1  0  0  0
  4  5  1  0  0  0
  4 27  1  0  0  0
  5 42  1  0  0  0
  5  6  1  0  0  0
  5 26  1  0  0  0
  6  7  1  0  0  0
  6 49  1  0  0  0
  6 50  1  0  0  0
  7 43  1  0  0  0
  7  8  1  0  0  0
  7 23  1  0  0  0
  8  9  1  0  0  0
  8 51  1  0  0  0
  8 52  1  0  0  0
  9 14  1  0  0  0
  9 10  2  0  0  0
 10 11  1  0  0  0
 10 53  1  0  0  0
 11 12  2  0  0  0
 11 54  1  0  0  0
 12 13  1  0  0  0
 12 21  1  0  0  0
 13 14  2  0  0  0
 13 15  1  0  0  0
 14 55  1  0  0  0
 15 16  1  0  0  0
 16 17  1  0  0  0
 16 56  1  0  0  0
 16 57  1  0  0  0
 17 18  1  0  0  0
 17 58  1  0  0  0
 17 59  1  0  0  0
 18 19  1  0  0  0
 18 60  1  0  0  0
 18 61  1  0  0  0
 19 20  1  0  0  0
 20 62  1  0  0  0
 20 63  1  0  0  0
 20 64  1  0  0  0
 21 22  1  0  0  0
 22 65  1  0  0  0
 22 66  1  0  0  0
 22 67  1  0  0  0
 23 24  1  0  0  0
 23 25  1  0  0  0
 23 68  1  0  0  0
 24 69  1  0  0  0
 24 70  1  0  0  0
 24 71  1  0  0  0
 25 72  1  0  0  0
 25 73  1  0  0  0
 25 74  1  0  0  0
 26 75  1  0  0  0
 26 76  1  0  0  0
 27 77  1  0  0  0
 28 29  2  0  0  0
 28 30  1  0  0  0
 30 31  1  0  0  0
 30 78  1  0  0  0
 31 32  1  0  0  0
 31 79  1  0  0  0
 31 80  1  0  0  0
 32 33  1  0  0  0
 32 81  1  0  0  0
 32 82  1  0  0  0
 33 38  1  0  0  0
 33 34  1  0  0  0
 34 35  1  0  0  0
 34 83  1  0  0  0
 34 84  1  0  0  0
 35 36  1  0  0  0
 35 85  1  0  0  0
 35 86  1  0  0  0
 36 37  1  0  0  0
 36 39  1  0  0  0
 36 87  1  0  0  0
 37 38  1  0  0  0
 37 88  1  0  0  0
 37 89  1  0  0  0
 38 90  1  0  0  0
 38 91  1  0  0  0
 39 92  1  0  0  0
M  END
> <s_m_entry_id>
27482

> <s_m_entry_name>
ligand_docking-pose.36

> <s_m_Source_Path>
/home/csk/Desktop/cluster/DUD-E-result/reni

> <s_m_Source_File>
ligand_docking-pose.sdf

> <i_m_Source_File_Index>
36

> <i_lp_mmshare_version>
53161

> <i_f3d_flags>
0

> <r_lp_tautomer_probability>
1

> <s_lp_Force_Field>
OPLS_2005

> <r_lp_Energy>
47.762379

> <b_lp_Chiralities_Consistent>
1

> <s_lp_Variant>
553300-1

> <s_i_glide_gridfile>
glide-grid_3g6z

> <i_i_glide_lignum>
698

> <i_i_glide_rotatable_bonds>
21

> <r_i_docking_score>
-7.89705015316248

> <r_i_glide_ligand_efficiency>
-0.202488465465705

> <r_i_glide_ligand_efficiency_sa>
-0.68668120032711

> <r_i_glide_ligand_efficiency_ln>
-1.69335172393751

> <r_i_glide_gscore>
-7.89705015316248

> <r_i_glide_lipo>
-3.54345133361508

> <r_i_glide_hbond>
-0.88215599885926

> <r_i_glide_metal>
0

> <r_i_glide_rewards>
-0.401401998309645

> <r_i_glide_evdw>
-43.6313095092773

> <r_i_glide_ecoul>
-12.7200746536255

> <r_i_glide_erotb>
1.0195358511292

> <r_i_glide_esite>
0

> <r_i_glide_emodel>
-77.6150700724113

> <r_i_glide_energy>
-56.3513841629028

> <r_i_glide_einternal>
11.010009765625

> <i_i_glide_confnum>
176

> <i_i_glide_posenum>
36

> <r_i_glide_eff_state_penalty>
0

> <s_user_duplicate_titles>
553300

> <s_m_subgroup_title>
dock_pv

> <s_m_subgroupid>
dock_pv1

> <b_m_subgroup_collapsed>
0

$$$$
242729
                    3D
 Schrodinger Suite 2021-1.
 85 87  0  0  1  0            999 V2000
   -9.5091  -22.4482  -10.8231 C   0  0  0  0  0  0
   -8.1392  -22.0081  -10.2801 C   0  0  0  0  0  0
   -8.1568  -20.7253   -9.4199 C   0  0  0  0  0  0
   -8.6702  -19.4631  -10.1559 C   0  0  2  0  0  0
   -8.1892  -18.1486   -9.4786 C   0  0  0  0  0  0
   -8.6793  -17.7628   -8.4172 O   0  0  0  0  0  0
   -7.2499  -17.4708  -10.1587 N   0  0  0  0  0  0
   -6.6751  -16.1292   -9.9775 C   0  0  1  0  0  0
   -6.1652  -15.8400   -8.5385 C   0  0  0  0  0  0
   -5.6012  -14.4056   -8.2937 C   0  0  0  0  0  0
   -6.6565  -13.4167   -7.7418 C   0  0  0  0  0  0
   -6.0634  -12.0086   -7.4795 C   0  0  0  0  0  0
   -4.8066  -12.0709   -6.5961 C   0  0  0  0  0  0
   -3.7606  -13.0676   -7.1375 C   0  0  0  0  0  0
   -4.3765  -14.4603   -7.3611 C   0  0  0  0  0  0
   -5.5640  -15.8890  -11.0713 C   0  0  2  0  0  0
   -5.9873  -16.0280  -12.5648 C   0  0  2  0  0  0
   -6.6888  -14.7903  -13.1893 C   0  0  0  0  0  0
   -8.1775  -14.6229  -13.0967 C   0  0  0  0  0  0
   -7.2684  -13.6420  -12.3846 C   0  0  0  0  0  0
   -6.6689  -17.2440  -12.8208 O   0  0  0  0  0  0
   -4.4652  -16.7594  -10.8232 O   0  0  0  0  0  0
  -10.1007  -19.5478  -10.2360 O   0  0  0  0  0  0
  -11.0062  -18.4187  -10.9989 P   0  0  2  0  0  0
  -10.2456  -17.6569  -12.0204 O   0  0  0  0  0  0
  -11.7380  -17.4993   -9.5732 C   0  0  0  0  0  0
  -11.7382  -15.9692   -9.7013 C   0  0  0  0  0  0
  -12.3694  -15.3349   -8.4357 C   0  0  0  0  0  0
  -12.1541  -13.8354   -8.2401 C   0  0  0  0  0  0
  -13.2402  -13.0190   -7.9037 C   0  0  0  0  0  0
  -13.0390  -11.6697   -7.6242 C   0  0  0  0  0  0
  -11.7558  -11.1368   -7.6815 C   0  0  0  0  0  0
  -10.6688  -11.9400   -8.0120 C   0  0  0  0  0  0
  -10.8679  -13.2903   -8.2933 C   0  0  0  0  0  0
  -12.2818  -19.2470  -11.6210 O   0  0  0  0  0  0
  -12.8761  -20.3922  -11.0255 C   0  0  0  0  0  0
  -13.4550  -21.3347  -12.0868 C   0  0  0  0  0  0
   -8.2765  -19.4815  -11.1750 H   0  0  0  0  0  0
   -7.5052  -15.4519  -10.1674 H   0  0  0  0  0  0
   -5.1586  -14.8835  -10.9942 H   0  0  0  0  0  0
   -5.0690  -16.1288  -13.1388 H   0  0  0  0  0  0
   -9.4338  -23.4084  -11.3347 H   0  0  0  0  0  0
  -10.2385  -22.5552  -10.0211 H   0  0  0  0  0  0
   -9.9011  -21.7307  -11.5445 H   0  0  0  0  0  0
   -7.4526  -21.8765  -11.1167 H   0  0  0  0  0  0
   -7.7242  -22.8222   -9.6857 H   0  0  0  0  0  0
   -7.1346  -20.5609   -9.0707 H   0  0  0  0  0  0
   -8.7523  -20.8897   -8.5217 H   0  0  0  0  0  0
   -7.0016  -17.8470  -11.0679 H   0  0  0  0  0  0
   -5.4112  -16.5913   -8.3021 H   0  0  0  0  0  0
   -6.9557  -16.0268   -7.8119 H   0  0  0  0  0  0
   -5.2336  -13.9504   -9.2082 H   0  0  0  0  0  0
   -7.0691  -13.8171   -6.8200 H   0  0  0  0  0  0
   -7.5066  -13.3566   -8.4239 H   0  0  0  0  0  0
   -6.8069  -11.3402   -7.0346 H   0  0  0  0  0  0
   -5.7777  -11.5435   -8.4162 H   0  0  0  0  0  0
   -5.1116  -12.3818   -5.6037 H   0  0  0  0  0  0
   -4.3659  -11.0788   -6.4907 H   0  0  0  0  0  0
   -2.9132  -13.1514   -6.4562 H   0  0  0  0  0  0
   -3.3535  -12.6960   -8.0785 H   0  0  0  0  0  0
   -3.6238  -15.1311   -7.7779 H   0  0  0  0  0  0
   -4.6638  -14.9267   -6.4211 H   0  0  0  0  0  0
   -6.2265  -14.4909  -14.1256 H   0  0  0  0  0  0
   -8.6691  -14.3216  -14.0179 H   0  0  0  0  0  0
   -8.7432  -15.3605  -12.5243 H   0  0  0  0  0  0
   -7.2225  -13.6365  -11.2987 H   0  0  0  0  0  0
   -7.1684  -12.6343  -12.7897 H   0  0  0  0  0  0
   -7.2483  -17.1652  -13.5955 H   0  0  0  0  0  0
   -3.8379  -16.6725  -11.5443 H   0  0  0  0  0  0
  -12.7314  -17.8758   -9.3635 H   0  0  0  0  0  0
  -11.1377  -17.7127   -8.6944 H   0  0  0  0  0  0
  -10.7025  -15.6547   -9.8234 H   0  0  0  0  0  0
  -12.2689  -15.6628  -10.6010 H   0  0  0  0  0  0
  -13.4370  -15.5600   -8.4224 H   0  0  0  0  0  0
  -11.9560  -15.8100   -7.5439 H   0  0  0  0  0  0
  -14.2362  -13.4276   -7.8298 H   0  0  0  0  0  0
  -13.8698  -11.0357   -7.3579 H   0  0  0  0  0  0
  -11.6036  -10.0893   -7.4646 H   0  0  0  0  0  0
   -9.6733  -11.5228   -8.0210 H   0  0  0  0  0  0
  -10.0148  -13.9127   -8.5195 H   0  0  0  0  0  0
  -12.1721  -20.9303  -10.3904 H   0  0  0  0  0  0
  -13.7112  -20.0633  -10.4209 H   0  0  0  0  0  0
  -14.0779  -22.1039  -11.6278 H   0  0  0  0  0  0
  -14.0731  -20.7940  -12.8049 H   0  0  0  0  0  0
  -12.6701  -21.8531  -12.6348 H   0  0  0  0  0  0
  1  2  1  0  0  0
  1 42  1  0  0  0
  1 43  1  0  0  0
  1 44  1  0  0  0
  2  3  1  0  0  0
  2 45  1  0  0  0
  2 46  1  0  0  0
  3  4  1  0  0  0
  3 47  1  0  0  0
  3 48  1  0  0  0
  4 38  1  0  0  0
  4  5  1  0  0  0
  4 23  1  0  0  0
  5  6  2  0  0  0
  5  7  1  0  0  0
  7  8  1  0  0  0
  7 49  1  0  0  0
  8 39  1  0  0  0
  8  9  1  0  0  0
  8 16  1  0  0  0
  9 10  1  0  0  0
  9 50  1  0  0  0
  9 51  1  0  0  0
 10 15  1  0  0  0
 10 11  1  0  0  0
 10 52  1  0  0  0
 11 12  1  0  0  0
 11 53  1  0  0  0
 11 54  1  0  0  0
 12 13  1  0  0  0
 12 55  1  0  0  0
 12 56  1  0  0  0
 13 14  1  0  0  0
 13 57  1  0  0  0
 13 58  1  0  0  0
 14 15  1  0  0  0
 14 59  1  0  0  0
 14 60  1  0  0  0
 15 61  1  0  0  0
 15 62  1  0  0  0
 16 40  1  0  0  0
 16 17  1  0  0  0
 16 22  1  0  0  0
 17 41  1  0  0  0
 17 18  1  0  0  0
 17 21  1  0  0  0
 18 20  1  0  0  0
 18 19  1  0  0  0
 18 63  1  0  0  0
 19 20  1  0  0  0
 19 64  1  0  0  0
 19 65  1  0  0  0
 20 66  1  0  0  0
 20 67  1  0  0  0
 21 68  1  0  0  0
 22 69  1  0  0  0
 23 24  1  0  0  0
 24 25  2  0  0  0
 24 26  1  0  0  0
 24 35  1  0  0  0
 26 27  1  0  0  0
 26 70  1  0  0  0
 26 71  1  0  0  0
 27 28  1  0  0  0
 27 72  1  0  0  0
 27 73  1  0  0  0
 28 29  1  0  0  0
 28 74  1  0  0  0
 28 75  1  0  0  0
 29 34  1  0  0  0
 29 30  2  0  0  0
 30 31  1  0  0  0
 30 76  1  0  0  0
 31 32  2  0  0  0
 31 77  1  0  0  0
 32 33  1  0  0  0
 32 78  1  0  0  0
 33 34  2  0  0  0
 33 79  1  0  0  0
 34 80  1  0  0  0
 35 36  1  0  0  0
 36 37  1  0  0  0
 36 81  1  0  0  0
 36 82  1  0  0  0
 37 83  1  0  0  0
 37 84  1  0  0  0
 37 85  1  0  0  0
M  END
> <s_m_entry_id>
27483

> <s_m_entry_name>
ligand_docking-pose.37

> <s_m_Source_Path>
/home/csk/Desktop/cluster/DUD-E-result/reni

> <s_m_Source_File>
ligand_docking-pose.sdf

> <i_m_Source_File_Index>
37

> <i_lp_mmshare_version>
53161

> <i_f3d_flags>
0

> <r_lp_tautomer_probability>
1

> <s_lp_Force_Field>
OPLS_2005

> <r_lp_Energy>
21.151163

> <b_lp_Chiralities_Consistent>
1

> <s_lp_Variant>
242729-2

> <s_i_glide_gridfile>
glide-grid_3g6z

> <i_i_glide_lignum>
510

> <i_i_glide_rotatable_bonds>
20

> <r_i_docking_score>
-7.8958405089833

> <r_i_glide_ligand_efficiency>
-0.213401094837386

> <r_i_glide_ligand_efficiency_sa>
-0.711099790526402

> <r_i_glide_ligand_efficiency_ln>
-1.7124227016341

> <r_i_glide_gscore>
-7.8958405089833

> <r_i_glide_lipo>
-5.31685497385204

> <r_i_glide_hbond>
-0.144513340499109

> <r_i_glide_metal>
0

> <r_i_glide_rewards>
-0.818459028177174

> <r_i_glide_evdw>
-47.0744361877441

> <r_i_glide_ecoul>
-1.27505457401276

> <r_i_glide_erotb>
0.928966829034149

> <r_i_glide_esite>
0

> <r_i_glide_emodel>
-60.4290192740655

> <r_i_glide_energy>
-48.3494907617569

> <r_i_glide_einternal>
21.8875904083252

> <i_i_glide_confnum>
182

> <i_i_glide_posenum>
196

> <r_i_glide_eff_state_penalty>
0

> <s_user_duplicate_titles>
242729

> <s_m_subgroup_title>
dock_pv

> <s_m_subgroupid>
dock_pv1

> <b_m_subgroup_collapsed>
0

$$$$
62895
                    3D
 Schrodinger Suite 2021-1.
 91 92  0  0  1  0            999 V2000
   -7.5242  -14.9946  -12.3995 C   0  0  0  0  0  0
   -7.1481  -15.8635  -11.1836 C   0  0  0  0  0  0
   -6.0023  -16.8247  -11.5357 C   0  0  0  0  0  0
   -8.3708  -16.5513  -10.5074 C   0  0  0  0  0  0
   -9.2735  -17.4854  -11.3767 C   0  0  2  0  0  0
  -10.6090  -17.9310  -10.6804 C   0  0  1  0  0  0
  -11.4597  -16.8317  -10.0032 C   0  0  0  0  0  0
  -10.9160  -16.4780   -8.7311 O   0  0  0  0  0  0
  -11.8376  -15.8909   -7.8121 C   0  0  0  0  0  0
  -12.3753  -14.5112   -8.2605 C   0  0  0  0  0  0
  -11.2497  -13.4729   -8.4216 C   0  0  0  0  0  0
  -13.4647  -14.0063   -7.3021 C   0  0  0  0  0  0
  -11.4523  -18.5814  -11.6206 O   0  0  0  0  0  0
   -8.5527  -18.6375  -11.9490 N   0  0  0  0  0  0
   -8.0267  -19.6505  -11.2296 C   0  0  0  0  0  0
   -8.0543  -19.7118   -9.9989 O   0  0  0  0  0  0
   -7.3406  -20.7885  -12.0022 C   0  0  2  0  0  0
   -7.8649  -22.1783  -11.5676 C   0  0  0  0  0  0
   -9.3265  -22.4701  -11.8379 C   0  0  0  0  0  0
   -9.8833  -23.2634  -12.8210 C   0  0  0  0  0  0
  -11.2544  -23.2321  -12.6329 N   0  0  0  0  0  0
  -11.4784  -22.4557  -11.5729 C   0  0  0  0  0  0
  -10.3645  -21.9726  -11.0411 N   0  0  0  0  0  0
   -5.9093  -20.7122  -11.7016 N   0  0  0  0  0  0
   -4.9968  -20.0919  -12.4672 C   0  0  0  0  0  0
   -5.2490  -19.6637  -13.5983 O   0  0  0  0  0  0
   -3.5725  -19.8882  -11.8799 C   0  0  2  0  0  0
   -2.4820  -19.5660  -12.9392 C   0  0  0  0  0  0
   -1.1321  -19.0937  -12.4217 C   0  0  0  0  0  0
   -1.0339  -17.9369  -11.6186 C   0  0  0  0  0  0
    0.2145  -17.4624  -11.2309 C   0  0  0  0  0  0
    1.3706  -18.1195  -11.6345 C   0  0  0  0  0  0
    1.2897  -19.2615  -12.4222 C   0  0  0  0  0  0
    0.0529  -19.7508  -12.8198 C   0  0  0  0  0  0
   -3.0857  -20.9620  -10.9935 N   0  0  0  0  0  0
   -3.3638  -20.9724   -9.6361 C   0  0  0  0  0  0
   -4.1052  -20.1853   -9.0474 O   0  0  0  0  0  0
   -2.6977  -22.0089   -9.0729 O   0  0  0  0  0  0
   -2.7002  -22.3287   -7.6722 C   0  0  0  0  0  0
   -4.1191  -22.7076   -7.1842 C   0  0  0  0  0  0
   -2.1178  -21.1749   -6.8211 C   0  0  0  0  0  0
   -1.7750  -23.5576   -7.5630 C   0  0  0  0  0  0
   -9.5667  -16.8693  -12.2307 H   0  0  0  0  0  0
  -10.3827  -18.6651   -9.9078 H   0  0  0  0  0  0
  -11.9519  -23.7050  -13.1894 H   0  0  0  0  0  0
   -7.9206  -15.5929  -13.2200 H   0  0  0  0  0  0
   -8.2682  -14.2423  -12.1399 H   0  0  0  0  0  0
   -6.6538  -14.4611  -12.7823 H   0  0  0  0  0  0
   -6.7442  -15.1818  -10.4337 H   0  0  0  0  0  0
   -6.2583  -17.4551  -12.3861 H   0  0  0  0  0  0
   -5.0984  -16.2788  -11.8145 H   0  0  0  0  0  0
   -5.7487  -17.4721  -10.6951 H   0  0  0  0  0  0
   -8.9870  -15.7457  -10.1127 H   0  0  0  0  0  0
   -8.0303  -17.0986   -9.6282 H   0  0  0  0  0  0
  -11.5592  -15.9604  -10.6485 H   0  0  0  0  0  0
  -12.4665  -17.2216   -9.8499 H   0  0  0  0  0  0
  -12.6594  -16.5880   -7.6379 H   0  0  0  0  0  0
  -11.3334  -15.7940   -6.8490 H   0  0  0  0  0  0
  -12.8577  -14.6342   -9.2303 H   0  0  0  0  0  0
  -10.7610  -13.2644   -7.4688 H   0  0  0  0  0  0
  -10.4855  -13.8225   -9.1153 H   0  0  0  0  0  0
  -11.6374  -12.5293   -8.8051 H   0  0  0  0  0  0
  -13.0726  -13.8234   -6.3007 H   0  0  0  0  0  0
  -13.9064  -13.0730   -7.6575 H   0  0  0  0  0  0
  -14.2715  -14.7387   -7.2194 H   0  0  0  0  0  0
  -11.0855  -18.4673  -12.5078 H   0  0  0  0  0  0
   -8.4294  -18.6210  -12.9575 H   0  0  0  0  0  0
   -7.5188  -20.6672  -13.0737 H   0  0  0  0  0  0
   -7.2815  -22.9517  -12.0721 H   0  0  0  0  0  0
   -7.6963  -22.3291  -10.5027 H   0  0  0  0  0  0
   -9.4235  -23.8243  -13.6218 H   0  0  0  0  0  0
  -12.4644  -22.2413  -11.1839 H   0  0  0  0  0  0
   -5.6471  -20.9754  -10.7613 H   0  0  0  0  0  0
   -3.6695  -18.9689  -11.3010 H   0  0  0  0  0  0
   -2.8382  -18.7915  -13.6217 H   0  0  0  0  0  0
   -2.3201  -20.4502  -13.5591 H   0  0  0  0  0  0
   -1.9228  -17.4035  -11.3144 H   0  0  0  0  0  0
    0.2848  -16.5735  -10.6201 H   0  0  0  0  0  0
    2.3361  -17.7429  -11.3332 H   0  0  0  0  0  0
    2.1867  -19.7714  -12.7334 H   0  0  0  0  0  0
    0.0085  -20.6301  -13.4492 H   0  0  0  0  0  0
   -2.4778  -21.6761  -11.3689 H   0  0  0  0  0  0
   -4.5604  -23.4790   -7.8158 H   0  0  0  0  0  0
   -4.1003  -23.0855   -6.1604 H   0  0  0  0  0  0
   -4.7973  -21.8537   -7.2001 H   0  0  0  0  0  0
   -1.1398  -20.8659   -7.1925 H   0  0  0  0  0  0
   -2.7593  -20.2922   -6.8331 H   0  0  0  0  0  0
   -2.0002  -21.4708   -5.7767 H   0  0  0  0  0  0
   -0.7739  -23.3345   -7.9345 H   0  0  0  0  0  0
   -1.6744  -23.8951   -6.5308 H   0  0  0  0  0  0
   -2.1522  -24.3963   -8.1497 H   0  0  0  0  0  0
  1  2  1  0  0  0
  1 46  1  0  0  0
  1 47  1  0  0  0
  1 48  1  0  0  0
  2  3  1  0  0  0
  2  4  1  0  0  0
  2 49  1  0  0  0
  3 50  1  0  0  0
  3 51  1  0  0  0
  3 52  1  0  0  0
  4  5  1  0  0  0
  4 53  1  0  0  0
  4 54  1  0  0  0
  5 43  1  0  0  0
  5  6  1  0  0  0
  5 14  1  0  0  0
  6 44  1  0  0  0
  6  7  1  0  0  0
  6 13  1  0  0  0
  7  8  1  0  0  0
  7 55  1  0  0  0
  7 56  1  0  0  0
  8  9  1  0  0  0
  9 10  1  0  0  0
  9 57  1  0  0  0
  9 58  1  0  0  0
 10 11  1  0  0  0
 10 12  1  0  0  0
 10 59  1  0  0  0
 11 60  1  0  0  0
 11 61  1  0  0  0
 11 62  1  0  0  0
 12 63  1  0  0  0
 12 64  1  0  0  0
 12 65  1  0  0  0
 13 66  1  0  0  0
 14 15  1  0  0  0
 14 67  1  0  0  0
 15 16  2  0  0  0
 15 17  1  0  0  0
 17 18  1  0  0  0
 17 24  1  0  0  0
 17 68  1  0  0  0
 18 19  1  0  0  0
 18 69  1  0  0  0
 18 70  1  0  0  0
 19 23  1  0  0  0
 19 20  2  0  0  0
 20 21  1  0  0  0
 20 71  1  0  0  0
 21 45  1  0  0  0
 21 22  1  0  0  0
 22 23  2  0  0  0
 22 72  1  0  0  0
 24 25  1  0  0  0
 24 73  1  0  0  0
 25 26  2  0  0  0
 25 27  1  0  0  0
 27 28  1  0  0  0
 27 35  1  0  0  0
 27 74  1  0  0  0
 28 29  1  0  0  0
 28 75  1  0  0  0
 28 76  1  0  0  0
 29 34  1  0  0  0
 29 30  2  0  0  0
 30 31  1  0  0  0
 30 77  1  0  0  0
 31 32  2  0  0  0
 31 78  1  0  0  0
 32 33  1  0  0  0
 32 79  1  0  0  0
 33 34  2  0  0  0
 33 80  1  0  0  0
 34 81  1  0  0  0
 35 36  1  0  0  0
 35 82  1  0  0  0
 36 37  2  0  0  0
 36 38  1  0  0  0
 38 39  1  0  0  0
 39 40  1  0  0  0
 39 41  1  0  0  0
 39 42  1  0  0  0
 40 83  1  0  0  0
 40 84  1  0  0  0
 40 85  1  0  0  0
 41 86  1  0  0  0
 41 87  1  0  0  0
 41 88  1  0  0  0
 42 89  1  0  0  0
 42 90  1  0  0  0
 42 91  1  0  0  0
M  END
> <s_m_entry_id>
27484

> <s_m_entry_name>
ligand_docking-pose.38

> <s_m_Source_Path>
/home/csk/Desktop/cluster/DUD-E-result/reni

> <s_m_Source_File>
ligand_docking-pose.sdf

> <i_m_Source_File_Index>
38

> <i_lp_mmshare_version>
53161

> <i_f3d_flags>
0

> <r_lp_tautomer_probability>
0.499999999999999

> <s_lp_Force_Field>
OPLS_2005

> <r_lp_Energy>
9.492934

> <b_lp_Chiralities_Consistent>
1

> <s_lp_Variant>
62895-1

> <s_i_glide_gridfile>
glide-grid_3g6z

> <i_i_glide_lignum>
339

> <i_i_glide_rotatable_bonds>
22

> <r_i_docking_score>
-7.87843688913028

> <r_i_glide_ligand_efficiency>
-0.187581830693578

> <r_i_glide_ligand_efficiency_sa>
-0.652039440775087

> <r_i_glide_ligand_efficiency_ln>
-1.66293505539648

> <r_i_glide_gscore>
-7.87843688913028

> <r_i_glide_lipo>
-3.14219058856653

> <r_i_glide_hbond>
-0.671047749528646

> <r_i_glide_metal>
0

> <r_i_glide_rewards>
-0.577424987616954

> <r_i_glide_evdw>
-50.562572479248

> <r_i_glide_ecoul>
-11.4449462890625

> <r_i_glide_erotb>
0.86338399608034

> <r_i_glide_esite>
-0.106286992176715

> <r_i_glide_emodel>
-84.530297913443

> <r_i_glide_energy>
-62.0075187683105

> <r_i_glide_einternal>
14.1726694107056

> <i_i_glide_confnum>
98

> <i_i_glide_posenum>
294

> <r_i_glide_eff_state_penalty>
0

> <s_user_duplicate_titles>
62895

> <s_m_subgroup_title>
dock_pv

> <s_m_subgroupid>
dock_pv1

> <b_m_subgroup_collapsed>
0

$$$$
84882
                    3D
 Schrodinger Suite 2021-1.
 84 87  0  0  1  0            999 V2000
   -5.6768  -13.5215  -11.3633 C   0  0  0  0  0  0
   -6.1204  -14.3568  -12.5783 C   0  0  0  0  0  0
   -7.5331  -13.9390  -13.0273 C   0  0  0  0  0  0
   -5.9460  -15.8944  -12.4032 C   0  0  2  0  0  0
   -6.8955  -16.5406  -11.3714 C   0  0  0  0  0  0
   -6.7325  -18.0702  -11.1838 C   0  0  1  0  0  0
   -7.5521  -18.6070   -9.9743 C   0  0  2  0  0  0
   -7.3358  -20.1086   -9.6408 C   0  0  0  0  0  0
   -5.8914  -20.5284   -9.2474 C   0  0  0  0  0  0
   -5.8909  -21.6061   -8.1333 C   0  0  0  0  0  0
   -4.4561  -21.9358   -7.6714 C   0  0  0  0  0  0
   -3.5752  -22.3964   -8.8536 C   0  0  0  0  0  0
   -3.6377  -21.4211  -10.0483 C   0  0  0  0  0  0
   -5.0933  -21.1021  -10.4461 C   0  0  0  0  0  0
   -8.9814  -18.3443  -10.1733 N   0  0  0  0  0  0
   -9.7921  -17.6636   -9.3456 C   0  0  0  0  0  0
   -9.4250  -17.2012   -8.2656 O   0  0  0  0  0  0
  -11.2644  -17.4892   -9.7818 C   0  0  2  0  0  0
  -11.6035  -18.0589  -11.1857 C   0  0  0  0  0  0
  -11.8973  -19.5536  -11.2256 C   0  0  0  0  0  0
  -11.0274  -20.6267  -11.1711 C   0  0  0  0  0  0
  -11.7837  -21.7698  -11.3723 N   0  0  0  0  0  0
  -13.0454  -21.3785  -11.5543 C   0  0  0  0  0  0
  -13.1847  -20.0630  -11.4608 N   0  0  0  0  0  0
  -11.6665  -16.0776   -9.6392 N   0  0  0  0  0  0
  -12.2804  -15.5708   -8.5472 C   0  0  0  0  0  0
  -12.6903  -16.3049   -7.6426 O   0  0  0  0  0  0
  -12.4339  -14.0172   -8.4630 C   0  0  2  0  0  0
  -11.0509  -13.4046   -8.1127 C   0  0  0  0  0  0
  -11.1001  -11.9590   -7.6236 C   0  0  0  0  0  0
   -9.9537  -11.1577   -7.6211 C   0  0  0  0  0  0
   -9.9607   -9.8943   -7.0340 C   0  0  0  0  0  0
  -11.1153   -9.4268   -6.4199 C   0  0  0  0  0  0
  -12.2676  -10.2087   -6.4331 C   0  0  0  0  0  0
  -12.2912  -11.4541   -7.0716 C   0  0  0  0  0  0
  -13.5879  -12.2482   -7.2239 C   0  0  0  0  0  0
  -13.3766  -13.6871   -7.3812 N   0  0  1  0  0  0
   -7.1023  -18.7331  -12.3878 O   0  0  0  0  0  0
   -4.6122  -16.1766  -12.0208 O   0  0  0  0  0  0
   -6.1107  -16.3651  -13.3746 H   0  0  0  0  0  0
   -5.6797  -18.2863  -11.0009 H   0  0  0  0  0  0
   -7.2065  -18.0459   -9.1019 H   0  0  0  0  0  0
  -11.8791  -18.0623   -9.1021 H   0  0  0  0  0  0
  -11.4367  -22.7174  -11.4198 H   0  0  0  0  0  0
  -12.8179  -13.6697   -9.4245 H   0  0  0  0  0  0
   -6.3329  -13.6739  -10.5044 H   0  0  0  0  0  0
   -4.6579  -13.7573  -11.0546 H   0  0  0  0  0  0
   -5.6882  -12.4633  -11.6209 H   0  0  0  0  0  0
   -5.4689  -14.0625  -13.3983 H   0  0  0  0  0  0
   -8.2699  -14.1527  -12.2559 H   0  0  0  0  0  0
   -7.5731  -12.8651  -13.2216 H   0  0  0  0  0  0
   -7.8339  -14.4558  -13.9383 H   0  0  0  0  0  0
   -7.9281  -16.3311  -11.6514 H   0  0  0  0  0  0
   -6.7421  -16.0550  -10.4078 H   0  0  0  0  0  0
   -7.6822  -20.7209  -10.4733 H   0  0  0  0  0  0
   -8.0100  -20.3534   -8.8167 H   0  0  0  0  0  0
   -5.3582  -19.6618   -8.8533 H   0  0  0  0  0  0
   -6.4101  -22.5041   -8.4739 H   0  0  0  0  0  0
   -6.4725  -21.2628   -7.2773 H   0  0  0  0  0  0
   -4.4790  -22.7081   -6.9008 H   0  0  0  0  0  0
   -4.0085  -21.0528   -7.2089 H   0  0  0  0  0  0
   -3.9044  -23.3837   -9.1794 H   0  0  0  0  0  0
   -2.5419  -22.5144   -8.5271 H   0  0  0  0  0  0
   -3.1013  -21.8420  -10.9014 H   0  0  0  0  0  0
   -3.1188  -20.4961   -9.7920 H   0  0  0  0  0  0
   -5.0941  -20.4026  -11.2808 H   0  0  0  0  0  0
   -5.5929  -21.9898  -10.8413 H   0  0  0  0  0  0
   -9.3551  -18.6535  -11.0573 H   0  0  0  0  0  0
  -12.4891  -17.5610  -11.5699 H   0  0  0  0  0  0
  -10.8334  -17.8221  -11.9212 H   0  0  0  0  0  0
   -9.9578  -20.6741  -11.0380 H   0  0  0  0  0  0
  -13.8664  -22.0568  -11.7459 H   0  0  0  0  0  0
  -11.3404  -15.4525  -10.3594 H   0  0  0  0  0  0
  -10.6690  -13.9542   -7.2597 H   0  0  0  0  0  0
  -10.3364  -13.5193   -8.9285 H   0  0  0  0  0  0
   -9.0261  -11.5373   -8.0210 H   0  0  0  0  0  0
   -9.0690   -9.2845   -7.0350 H   0  0  0  0  0  0
  -11.1265   -8.4491   -5.9601 H   0  0  0  0  0  0
  -13.1769   -9.8084   -6.0213 H   0  0  0  0  0  0
  -14.1598  -11.8551   -8.0656 H   0  0  0  0  0  0
  -14.2024  -12.1118   -6.3329 H   0  0  0  0  0  0
  -14.2545  -14.1711   -7.5165 H   0  0  0  0  0  0
   -7.4364  -18.0895  -13.0316 H   0  0  0  0  0  0
   -4.0347  -15.7410  -12.6629 H   0  0  0  0  0  0
  1  2  1  0  0  0
  1 46  1  0  0  0
  1 47  1  0  0  0
  1 48  1  0  0  0
  2  3  1  0  0  0
  2  4  1  0  0  0
  2 49  1  0  0  0
  3 50  1  0  0  0
  3 51  1  0  0  0
  3 52  1  0  0  0
  4 40  1  0  0  0
  4  5  1  0  0  0
  4 39  1  0  0  0
  5  6  1  0  0  0
  5 53  1  0  0  0
  5 54  1  0  0  0
  6 41  1  0  0  0
  6  7  1  0  0  0
  6 38  1  0  0  0
  7 42  1  0  0  0
  7  8  1  0  0  0
  7 15  1  0  0  0
  8  9  1  0  0  0
  8 55  1  0  0  0
  8 56  1  0  0  0
  9 14  1  0  0  0
  9 10  1  0  0  0
  9 57  1  0  0  0
 10 11  1  0  0  0
 10 58  1  0  0  0
 10 59  1  0  0  0
 11 12  1  0  0  0
 11 60  1  0  0  0
 11 61  1  0  0  0
 12 13  1  0  0  0
 12 62  1  0  0  0
 12 63  1  0  0  0
 13 14  1  0  0  0
 13 64  1  0  0  0
 13 65  1  0  0  0
 14 66  1  0  0  0
 14 67  1  0  0  0
 15 16  1  0  0  0
 15 68  1  0  0  0
 16 17  2  0  0  0
 16 18  1  0  0  0
 18 43  1  0  0  0
 18 19  1  0  0  0
 18 25  1  0  0  0
 19 20  1  0  0  0
 19 69  1  0  0  0
 19 70  1  0  0  0
 20 24  1  0  0  0
 20 21  2  0  0  0
 21 22  1  0  0  0
 21 71  1  0  0  0
 22 44  1  0  0  0
 22 23  1  0  0  0
 23 24  2  0  0  0
 23 72  1  0  0  0
 25 26  1  0  0  0
 25 73  1  0  0  0
 26 27  2  0  0  0
 26 28  1  0  0  0
 28 45  1  0  0  0
 28 37  1  0  0  0
 28 29  1  0  0  0
 29 30  1  0  0  0
 29 74  1  0  0  0
 29 75  1  0  0  0
 30 35  2  0  0  0
 30 31  1  0  0  0
 31 32  2  0  0  0
 31 76  1  0  0  0
 32 33  1  0  0  0
 32 77  1  0  0  0
 33 34  2  0  0  0
 33 78  1  0  0  0
 34 35  1  0  0  0
 34 79  1  0  0  0
 35 36  1  0  0  0
 36 37  1  0  0  0
 36 80  1  0  0  0
 36 81  1  0  0  0
 37 82  1  0  0  0
 38 83  1  0  0  0
 39 84  1  0  0  0
M  END
> <s_m_entry_id>
27485

> <s_m_entry_name>
ligand_docking-pose.39

> <s_m_Source_Path>
/home/csk/Desktop/cluster/DUD-E-result/reni

> <s_m_Source_File>
ligand_docking-pose.sdf

> <i_m_Source_File_Index>
39

> <i_lp_mmshare_version>
53161

> <i_f3d_flags>
0

> <r_lp_tautomer_probability>
0.499999999999999

> <s_lp_Force_Field>
OPLS_2005

> <r_lp_Energy>
33.785518

> <b_lp_Chiralities_Consistent>
1

> <s_lp_Variant>
84882-1

> <s_i_glide_gridfile>
glide-grid_3g6z

> <i_i_glide_lignum>
450

> <i_i_glide_rotatable_bonds>
16

> <r_i_docking_score>
-7.86307782865725

> <r_i_glide_ligand_efficiency>
-0.201617380221981

> <r_i_glide_ligand_efficiency_sa>
-0.683727166084361

> <r_i_glide_ligand_efficiency_ln>
-1.68606709320181

> <r_i_glide_gscore>
-7.86307782865725

> <r_i_glide_lipo>
-3.7333997414401

> <r_i_glide_hbond>
-0.690722127083169

> <r_i_glide_metal>
0

> <r_i_glide_rewards>
-0.393506089676809

> <r_i_glide_evdw>
-47.6911773681641

> <r_i_glide_ecoul>
-9.1367130279541

> <r_i_glide_erotb>
0.70961595214414

> <r_i_glide_esite>
0

> <r_i_glide_emodel>
-64.4697971361602

> <r_i_glide_energy>
-56.8278903961182

> <r_i_glide_einternal>
15.4620666503906

> <i_i_glide_confnum>
35

> <i_i_glide_posenum>
26

> <r_i_glide_eff_state_penalty>
0

> <s_user_duplicate_titles>
84882

> <s_m_subgroup_title>
dock_pv

> <s_m_subgroupid>
dock_pv1

> <b_m_subgroup_collapsed>
0

$$$$
549641
                    3D
 Schrodinger Suite 2021-1.
 92 92  0  0  1  0            999 V2000
  -10.7718  -21.7176  -11.6904 C   0  0  0  0  0  0
   -9.2296  -21.7719  -11.7054 C   0  0  0  0  0  0
   -8.7578  -23.0469  -10.9728 C   0  0  0  0  0  0
   -8.5708  -20.4436  -11.2064 C   0  0  1  0  0  0
   -8.9990  -20.0564   -9.7604 C   0  0  0  0  0  0
   -8.8091  -18.5816   -9.4027 C   0  0  0  0  0  0
   -7.5819  -18.1358   -8.9216 C   0  0  0  0  0  0
   -7.3663  -16.7890   -8.6555 C   0  0  0  0  0  0
   -8.3904  -15.8527   -8.8430 C   0  0  0  0  0  0
   -9.6656  -16.3021   -9.2177 C   0  0  0  0  0  0
   -9.8549  -17.6613   -9.5345 C   0  0  0  0  0  0
  -10.6698  -15.3524   -9.2209 O   0  0  0  0  0  0
  -12.0381  -15.7479   -9.2192 C   0  0  0  0  0  0
  -12.8392  -14.7430   -8.3737 C   0  0  0  0  0  0
  -12.8127  -13.2940   -8.9010 C   0  0  0  0  0  0
  -13.7763  -12.4633   -8.2617 O   0  0  0  0  0  0
  -13.4848  -12.1129   -6.9149 C   0  0  0  0  0  0
   -8.2132  -14.4891   -8.6769 O   0  0  0  0  0  0
   -6.9476  -13.9873   -8.2589 C   0  0  0  0  0  0
   -7.0234  -20.4446  -11.4089 C   0  0  0  0  0  0
   -6.5341  -19.9935  -12.8165 C   0  0  1  0  0  0
   -5.6008  -18.7424  -12.7432 C   0  0  2  0  0  0
   -6.3523  -17.4840  -12.2359 C   0  0  0  0  0  0
   -5.5722  -16.1345  -12.2388 C   0  0  1  0  0  0
   -6.5082  -14.8771  -12.1001 C   0  0  0  0  0  0
   -7.5499  -14.7688  -13.2389 C   0  0  0  0  0  0
   -5.7531  -13.5270  -12.0126 C   0  0  0  0  0  0
   -4.4045  -16.1294  -11.2175 C   0  0  0  0  0  0
   -4.5704  -16.5583  -10.0759 O   0  0  0  0  0  0
   -3.2451  -15.5866  -11.6210 N   0  0  0  0  0  0
   -2.1363  -15.2659  -10.7240 C   0  0  0  0  0  0
   -1.2053  -16.4077  -10.2549 C   0  0  0  0  0  0
   -0.5522  -17.2525  -11.3616 C   0  0  0  0  0  0
    0.3324  -16.7043  -12.0212 O   0  0  0  0  0  0
   -0.9254  -18.5408  -11.5689 N   0  0  0  0  0  0
   -0.2818  -19.3892  -12.5776 C   0  0  0  0  0  0
   -1.9370  -19.2333  -10.7691 C   0  0  0  0  0  0
   -5.0697  -18.4456  -14.0209 O   0  0  0  0  0  0
   -5.8690  -21.1262  -13.4537 N   0  0  0  0  0  0
   -8.9692  -19.6501  -11.8418 H   0  0  0  0  0  0
   -7.3903  -19.7425  -13.4476 H   0  0  0  0  0  0
   -4.7585  -18.9566  -12.0842 H   0  0  0  0  0  0
   -5.1247  -16.0618  -13.2210 H   0  0  0  0  0  0
  -11.1775  -21.8936  -10.6932 H   0  0  0  0  0  0
  -11.1322  -20.7466  -12.0193 H   0  0  0  0  0  0
  -11.1977  -22.4766  -12.3471 H   0  0  0  0  0  0
   -8.9407  -21.8871  -12.7533 H   0  0  0  0  0  0
   -8.9305  -22.9809   -9.8982 H   0  0  0  0  0  0
   -9.2920  -23.9271  -11.3336 H   0  0  0  0  0  0
   -7.7000  -23.2528  -11.1265 H   0  0  0  0  0  0
  -10.0521  -20.2844   -9.6211 H   0  0  0  0  0  0
   -8.4759  -20.6760   -9.0313 H   0  0  0  0  0  0
   -6.7595  -18.8255   -8.8211 H   0  0  0  0  0  0
   -6.3819  -16.4905   -8.3273 H   0  0  0  0  0  0
  -10.8109  -18.0176   -9.8864 H   0  0  0  0  0  0
  -12.4018  -15.7819  -10.2454 H   0  0  0  0  0  0
  -12.1906  -16.7338   -8.7803 H   0  0  0  0  0  0
  -13.8694  -15.0882   -8.3151 H   0  0  0  0  0  0
  -12.4629  -14.7707   -7.3506 H   0  0  0  0  0  0
  -11.8139  -12.8597   -8.8205 H   0  0  0  0  0  0
  -13.0688  -13.2912   -9.9606 H   0  0  0  0  0  0
  -14.2494  -11.4305   -6.5460 H   0  0  0  0  0  0
  -13.4774  -12.9873   -6.2642 H   0  0  0  0  0  0
  -12.5231  -11.6043   -6.8348 H   0  0  0  0  0  0
   -6.9988  -12.9002   -8.1970 H   0  0  0  0  0  0
   -6.6785  -14.3647   -7.2707 H   0  0  0  0  0  0
   -6.1580  -14.2418   -8.9678 H   0  0  0  0  0  0
   -6.6025  -21.4072  -11.1202 H   0  0  0  0  0  0
   -6.5534  -19.8055  -10.6728 H   0  0  0  0  0  0
   -6.7212  -17.6586  -11.2354 H   0  0  0  0  0  0
   -7.2571  -17.3960  -12.8245 H   0  0  0  0  0  0
   -7.0673  -14.9837  -11.1706 H   0  0  0  0  0  0
   -7.0724  -14.7742  -14.2185 H   0  0  0  0  0  0
   -8.2811  -15.5746  -13.2206 H   0  0  0  0  0  0
   -8.1308  -13.8481  -13.1672 H   0  0  0  0  0  0
   -5.0744  -13.3962  -12.8549 H   0  0  0  0  0  0
   -6.4417  -12.6810  -12.0200 H   0  0  0  0  0  0
   -5.1611  -13.4432  -11.1010 H   0  0  0  0  0  0
   -3.1886  -15.2624  -12.5842 H   0  0  0  0  0  0
   -2.2314  -14.4185  -10.0440 H   0  0  0  0  0  0
   -1.5166  -14.7500  -11.4624 H   0  0  0  0  0  0
   -1.8103  -17.0212   -9.5931 H   0  0  0  0  0  0
   -0.5028  -16.0514   -9.5047 H   0  0  0  0  0  0
    0.2484  -20.2104  -12.0951 H   0  0  0  0  0  0
    0.4307  -18.8551  -13.2096 H   0  0  0  0  0  0
   -1.0381  -19.8176  -13.2366 H   0  0  0  0  0  0
   -2.8695  -18.6677  -10.7362 H   0  0  0  0  0  0
   -2.1680  -20.2230  -11.1778 H   0  0  0  0  0  0
   -1.5812  -19.3744   -9.7441 H   0  0  0  0  0  0
   -5.8017  -18.2201  -14.6154 H   0  0  0  0  0  0
   -5.1593  -21.4929  -12.8364 H   0  0  0  0  0  0
   -6.5405  -21.8708  -13.5926 H   0  0  0  0  0  0
  1  2  1  0  0  0
  1 44  1  0  0  0
  1 45  1  0  0  0
  1 46  1  0  0  0
  2  3  1  0  0  0
  2  4  1  0  0  0
  2 47  1  0  0  0
  3 48  1  0  0  0
  3 49  1  0  0  0
  3 50  1  0  0  0
  4 40  1  0  0  0
  4  5  1  0  0  0
  4 20  1  0  0  0
  5  6  1  0  0  0
  5 51  1  0  0  0
  5 52  1  0  0  0
  6 11  1  0  0  0
  6  7  2  0  0  0
  7  8  1  0  0  0
  7 53  1  0  0  0
  8  9  2  0  0  0
  8 54  1  0  0  0
  9 10  1  0  0  0
  9 18  1  0  0  0
 10 11  2  0  0  0
 10 12  1  0  0  0
 11 55  1  0  0  0
 12 13  1  0  0  0
 13 14  1  0  0  0
 13 56  1  0  0  0
 13 57  1  0  0  0
 14 15  1  0  0  0
 14 58  1  0  0  0
 14 59  1  0  0  0
 15 16  1  0  0  0
 15 60  1  0  0  0
 15 61  1  0  0  0
 16 17  1  0  0  0
 17 62  1  0  0  0
 17 63  1  0  0  0
 17 64  1  0  0  0
 18 19  1  0  0  0
 19 65  1  0  0  0
 19 66  1  0  0  0
 19 67  1  0  0  0
 20 21  1  0  0  0
 20 68  1  0  0  0
 20 69  1  0  0  0
 21 41  1  0  0  0
 21 22  1  0  0  0
 21 39  1  0  0  0
 22 42  1  0  0  0
 22 23  1  0  0  0
 22 38  1  0  0  0
 23 24  1  0  0  0
 23 70  1  0  0  0
 23 71  1  0  0  0
 24 43  1  0  0  0
 24 25  1  0  0  0
 24 28  1  0  0  0
 25 26  1  0  0  0
 25 27  1  0  0  0
 25 72  1  0  0  0
 26 73  1  0  0  0
 26 74  1  0  0  0
 26 75  1  0  0  0
 27 76  1  0  0  0
 27 77  1  0  0  0
 27 78  1  0  0  0
 28 29  2  0  0  0
 28 30  1  0  0  0
 30 31  1  0  0  0
 30 79  1  0  0  0
 31 32  1  0  0  0
 31 80  1  0  0  0
 31 81  1  0  0  0
 32 33  1  0  0  0
 32 82  1  0  0  0
 32 83  1  0  0  0
 33 34  2  0  0  0
 33 35  1  0  0  0
 35 36  1  0  0  0
 35 37  1  0  0  0
 36 84  1  0  0  0
 36 85  1  0  0  0
 36 86  1  0  0  0
 37 87  1  0  0  0
 37 88  1  0  0  0
 37 89  1  0  0  0
 38 90  1  0  0  0
 39 91  1  0  0  0
 39 92  1  0  0  0
M  END
> <s_m_entry_id>
27486

> <s_m_entry_name>
ligand_docking-pose.40

> <s_m_Source_Path>
/home/csk/Desktop/cluster/DUD-E-result/reni

> <s_m_Source_File>
ligand_docking-pose.sdf

> <i_m_Source_File_Index>
40

> <i_lp_mmshare_version>
53161

> <i_f3d_flags>
0

> <r_lp_tautomer_probability>
1

> <s_lp_Force_Field>
OPLS_2005

> <r_lp_Energy>
41.211965

> <b_lp_Chiralities_Consistent>
1

> <s_lp_Variant>
549641-1

> <s_i_glide_gridfile>
glide-grid_3g6z

> <i_i_glide_lignum>
418

> <i_i_glide_rotatable_bonds>
22

> <r_i_docking_score>
-7.85478165789535

> <r_i_glide_ligand_efficiency>
-0.201404657894753

> <r_i_glide_ligand_efficiency_sa>
-0.683005779694961

> <r_i_glide_ligand_efficiency_ln>
-1.68428815868964

> <r_i_glide_gscore>
-7.85478165789535

> <r_i_glide_lipo>
-2.93335616783699

> <r_i_glide_hbond>
-1.08833364552356

> <r_i_glide_metal>
0

> <r_i_glide_rewards>
-0.162475773739808

> <r_i_glide_evdw>
-44.090705871582

> <r_i_glide_ecoul>
-16.2971572875977

> <r_i_glide_erotb>
1.0195358511292

> <r_i_glide_esite>
-0.0410430352054445

> <r_i_glide_emodel>
-83.86156537402

> <r_i_glide_energy>
-60.3878631591797

> <r_i_glide_einternal>
12.5744485855103

> <i_i_glide_confnum>
130

> <i_i_glide_posenum>
116

> <r_i_glide_eff_state_penalty>
0

> <s_user_duplicate_titles>
549641

> <s_m_subgroup_title>
dock_pv

> <s_m_subgroupid>
dock_pv1

> <b_m_subgroup_collapsed>
0

$$$$
480705
                    3D
 Schrodinger Suite 2021-1.
 87 91  0  0  1  0            999 V2000
   -6.0794  -22.7400   -9.6452 C   0  0  0  0  0  0
   -5.2158  -21.5158   -9.9623 C   0  0  0  0  0  0
   -4.7187  -20.9117   -9.0112 O   0  0  0  0  0  0
   -4.9737  -21.1859  -11.2588 N   0  0  0  0  0  0
   -5.6649  -21.8294  -12.4004 C   0  0  0  0  0  0
   -6.3734  -20.7476  -13.2683 C   0  0  1  0  0  0
   -7.6404  -20.1214  -12.6381 C   0  0  0  0  0  0
   -7.3592  -18.9686  -11.6636 C   0  0  0  0  0  0
   -6.1020  -18.4385  -11.5765 C   0  0  0  0  0  0
   -4.9613  -19.0138  -12.4161 C   0  0  1  0  0  0
   -4.1130  -20.0288  -11.5949 C   0  0  0  0  0  0
   -5.4681  -19.6614  -13.6216 N   0  0  2  0  0  0
   -5.7463  -17.2808  -10.7724 C   0  0  0  0  0  0
   -5.1253  -17.4479   -9.7212 O   0  0  0  0  0  0
   -6.1355  -16.0483  -11.2052 N   0  0  0  0  0  0
   -6.7278  -15.7678  -12.5219 C   0  0  0  0  0  0
   -6.0422  -14.8680  -10.3237 C   0  0  0  0  0  0
   -4.5960  -14.3638  -10.0910 C   0  0  0  0  0  0
   -4.5105  -13.2204   -9.0828 C   0  0  0  0  0  0
   -3.8693  -12.0269   -9.4278 C   0  0  0  0  0  0
   -3.7874  -10.9868   -8.5031 C   0  0  0  0  0  0
   -4.3446  -11.1412   -7.2355 C   0  0  0  0  0  0
   -4.9705  -12.3318   -6.8790 C   0  0  0  0  0  0
   -5.0469  -13.3739   -7.7996 C   0  0  0  0  0  0
   -8.5255  -18.4493  -10.9187 C   0  0  0  0  0  0
   -8.4298  -18.2326   -9.5461 C   0  0  0  0  0  0
   -9.4726  -17.6366   -8.8651 C   0  0  0  0  0  0
  -10.6498  -17.2833   -9.5438 C   0  0  0  0  0  0
  -10.7737  -17.5662  -10.9004 C   0  0  0  0  0  0
   -9.7145  -18.1472  -11.5896 C   0  0  0  0  0  0
  -11.7238  -16.6762   -8.9339 O   0  0  0  0  0  0
  -11.5287  -16.1883   -7.6151 C   0  0  0  0  0  0
  -12.8236  -15.5442   -7.1260 C   0  0  0  0  0  0
  -13.2200  -14.2809   -7.8817 C   0  0  0  0  0  0
  -12.3146  -13.2862   -7.4522 O   0  0  0  0  0  0
  -12.5569  -12.0114   -8.0019 C   0  0  0  0  0  0
  -11.7886  -10.9865   -7.1882 C   0  0  0  0  0  0
  -12.4991  -10.0584   -6.4219 C   0  0  0  0  0  0
  -11.8528   -8.9606   -5.8656 C   0  0  0  0  0  0
  -10.4669   -8.8884   -5.9295 C   0  0  0  0  0  0
   -9.7407   -9.8856   -6.5730 C   0  0  0  0  0  0
  -10.3880  -10.9324   -7.2436 C   0  0  0  0  0  0
   -9.7252  -11.9121   -7.9750 O   0  0  0  0  0  0
   -8.2939  -11.9611   -7.9803 C   0  0  0  0  0  0
   -6.6647  -21.2294  -14.2024 H   0  0  0  0  0  0
   -4.3117  -18.2025  -12.7534 H   0  0  0  0  0  0
   -5.7086  -23.6225  -10.1674 H   0  0  0  0  0  0
   -6.0682  -22.9497   -8.5756 H   0  0  0  0  0  0
   -7.1157  -22.5597   -9.9335 H   0  0  0  0  0  0
   -6.3813  -22.5977  -12.1172 H   0  0  0  0  0  0
   -4.8799  -22.2900  -13.0006 H   0  0  0  0  0  0
   -8.2813  -20.8717  -12.1743 H   0  0  0  0  0  0
   -8.2499  -19.7150  -13.4428 H   0  0  0  0  0  0
   -3.2752  -20.3771  -12.1972 H   0  0  0  0  0  0
   -3.6961  -19.5343  -10.7142 H   0  0  0  0  0  0
   -5.9856  -18.9786  -14.1738 H   0  0  0  0  0  0
   -6.6961  -16.6149  -13.2070 H   0  0  0  0  0  0
   -7.7679  -15.4599  -12.4147 H   0  0  0  0  0  0
   -6.1846  -14.9529  -12.9967 H   0  0  0  0  0  0
   -6.5023  -15.1461   -9.3704 H   0  0  0  0  0  0
   -6.6323  -14.0601  -10.7649 H   0  0  0  0  0  0
   -4.1667  -14.0501  -11.0441 H   0  0  0  0  0  0
   -3.9577  -15.1659   -9.7137 H   0  0  0  0  0  0
   -3.4436  -11.8998  -10.4124 H   0  0  0  0  0  0
   -3.3007  -10.0637   -8.7687 H   0  0  0  0  0  0
   -4.2816  -10.3355   -6.5189 H   0  0  0  0  0  0
   -5.3938  -12.4515   -5.8923 H   0  0  0  0  0  0
   -5.5247  -14.2991   -7.5150 H   0  0  0  0  0  0
   -7.5323  -18.4924   -9.0056 H   0  0  0  0  0  0
   -9.3371  -17.4600   -7.8113 H   0  0  0  0  0  0
  -11.6797  -17.3106  -11.4298 H   0  0  0  0  0  0
   -9.8220  -18.3490  -12.6437 H   0  0  0  0  0  0
  -11.2848  -17.0092   -6.9350 H   0  0  0  0  0  0
  -10.6830  -15.4924   -7.6204 H   0  0  0  0  0  0
  -13.6308  -16.2755   -7.1569 H   0  0  0  0  0  0
  -12.6676  -15.2622   -6.0871 H   0  0  0  0  0  0
  -13.1780  -14.4290   -8.9609 H   0  0  0  0  0  0
  -14.2418  -14.0033   -7.6189 H   0  0  0  0  0  0
  -12.2334  -11.9801   -9.0452 H   0  0  0  0  0  0
  -13.6218  -11.7705   -7.9885 H   0  0  0  0  0  0
  -13.5750  -10.1098   -6.3755 H   0  0  0  0  0  0
  -12.4178   -8.1946   -5.3527 H   0  0  0  0  0  0
   -9.9454   -8.0666   -5.4703 H   0  0  0  0  0  0
   -8.6694   -9.7998   -6.5600 H   0  0  0  0  0  0
   -7.9657  -12.5872   -8.8111 H   0  0  0  0  0  0
   -7.8312  -10.9829   -8.1062 H   0  0  0  0  0  0
   -7.8691  -12.3958   -7.0746 H   0  0  0  0  0  0
  1  2  1  0  0  0
  1 47  1  0  0  0
  1 48  1  0  0  0
  1 49  1  0  0  0
  2  3  2  0  0  0
  2  4  1  0  0  0
  4 11  1  0  0  0
  4  5  1  0  0  0
  5  6  1  0  0  0
  5 50  1  0  0  0
  5 51  1  0  0  0
  6 45  1  0  0  0
  6 12  1  0  0  0
  6  7  1  0  0  0
  7  8  1  0  0  0
  7 52  1  0  0  0
  7 53  1  0  0  0
  8  9  2  0  0  0
  8 25  1  0  0  0
  9 10  1  0  0  0
  9 13  1  0  0  0
 10 46  1  0  0  0
 10 11  1  0  0  0
 10 12  1  0  0  0
 11 54  1  0  0  0
 11 55  1  0  0  0
 12 56  1  0  0  0
 13 14  2  0  0  0
 13 15  1  0  0  0
 15 16  1  0  0  0
 15 17  1  0  0  0
 16 57  1  0  0  0
 16 58  1  0  0  0
 16 59  1  0  0  0
 17 18  1  0  0  0
 17 60  1  0  0  0
 17 61  1  0  0  0
 18 19  1  0  0  0
 18 62  1  0  0  0
 18 63  1  0  0  0
 19 24  1  0  0  0
 19 20  2  0  0  0
 20 21  1  0  0  0
 20 64  1  0  0  0
 21 22  2  0  0  0
 21 65  1  0  0  0
 22 23  1  0  0  0
 22 66  1  0  0  0
 23 24  2  0  0  0
 23 67  1  0  0  0
 24 68  1  0  0  0
 25 30  1  0  0  0
 25 26  2  0  0  0
 26 27  1  0  0  0
 26 69  1  0  0  0
 27 28  2  0  0  0
 27 70  1  0  0  0
 28 29  1  0  0  0
 28 31  1  0  0  0
 29 30  2  0  0  0
 29 71  1  0  0  0
 30 72  1  0  0  0
 31 32  1  0  0  0
 32 33  1  0  0  0
 32 73  1  0  0  0
 32 74  1  0  0  0
 33 34  1  0  0  0
 33 75  1  0  0  0
 33 76  1  0  0  0
 34 35  1  0  0  0
 34 77  1  0  0  0
 34 78  1  0  0  0
 35 36  1  0  0  0
 36 37  1  0  0  0
 36 79  1  0  0  0
 36 80  1  0  0  0
 37 42  1  0  0  0
 37 38  2  0  0  0
 38 39  1  0  0  0
 38 81  1  0  0  0
 39 40  2  0  0  0
 39 82  1  0  0  0
 40 41  1  0  0  0
 40 83  1  0  0  0
 41 42  2  0  0  0
 41 84  1  0  0  0
 42 43  1  0  0  0
 43 44  1  0  0  0
 44 85  1  0  0  0
 44 86  1  0  0  0
 44 87  1  0  0  0
M  END
> <s_m_entry_id>
27487

> <s_m_entry_name>
ligand_docking-pose.41

> <s_m_Source_Path>
/home/csk/Desktop/cluster/DUD-E-result/reni

> <s_m_Source_File>
ligand_docking-pose.sdf

> <i_m_Source_File_Index>
41

> <i_lp_mmshare_version>
53161

> <i_f3d_flags>
0

> <r_lp_tautomer_probability>
1

> <s_lp_Force_Field>
OPLS_2005

> <r_lp_Energy>
85.752989

> <b_lp_Chiralities_Consistent>
1

> <s_lp_Variant>
480705-1

> <s_i_glide_gridfile>
glide-grid_3g6z

> <i_i_glide_lignum>
794

> <i_i_glide_rotatable_bonds>
15

> <r_i_docking_score>
-7.84257680325719

> <r_i_glide_ligand_efficiency>
-0.178240381892209

> <r_i_glide_ligand_efficiency_sa>
-0.629250634707306

> <r_i_glide_ligand_efficiency_ln>
-1.63926963673346

> <r_i_glide_gscore>
-7.84257680325719

> <r_i_glide_lipo>
-4.66760867686097

> <r_i_glide_hbond>
-0.32

> <r_i_glide_metal>
0

> <r_i_glide_rewards>
-0.115263175303884

> <r_i_glide_evdw>
-47.5108032226562

> <r_i_glide_ecoul>
-6.35835790634155

> <r_i_glide_erotb>
0.590079459647611

> <r_i_glide_esite>
-0.000490563655898007

> <r_i_glide_emodel>
-69.636173005019

> <r_i_glide_energy>
-53.8691611289978

> <r_i_glide_einternal>
5.56893682479858

> <i_i_glide_confnum>
41

> <i_i_glide_posenum>
100

> <r_i_glide_eff_state_penalty>
0

> <s_user_duplicate_titles>
480705

> <s_m_subgroup_title>
dock_pv

> <s_m_subgroupid>
dock_pv1

> <b_m_subgroup_collapsed>
0

$$$$
405773
                    3D
 Schrodinger Suite 2021-1.
 59 62  0  0  1  0            999 V2000
   -3.4686  -19.5539   -8.2748 C   0  0  0  0  0  0
   -3.5545  -18.1834   -8.9757 C   0  0  0  0  0  0
   -3.5805  -18.2940  -10.5002 C   0  0  0  0  0  0
   -4.6361  -17.8224  -11.3158 C   0  0  0  0  0  0
   -4.5099  -18.1421  -12.6876 C   0  0  0  0  0  0
   -3.4693  -18.8409  -13.2004 N   0  0  0  0  0  0
   -2.5142  -19.2190  -12.3256 C   0  0  0  0  0  0
   -2.5115  -18.9666  -11.0029 N   0  0  0  0  0  0
   -1.4505  -19.9551  -12.8208 N   0  0  0  0  0  0
   -5.4687  -17.7716  -13.6208 N   0  0  0  0  0  0
   -5.8228  -17.0802  -10.7747 C   0  0  0  0  0  0
   -7.1170  -17.5641  -11.0113 C   0  0  0  0  0  0
   -8.2359  -16.8959  -10.5191 C   0  0  0  0  0  0
   -8.0593  -15.7437   -9.7635 C   0  0  0  0  0  0
   -6.7917  -15.2264   -9.4899 C   0  0  0  0  0  0
   -5.6759  -15.8995  -10.0241 C   0  0  0  0  0  0
   -6.7228  -14.1136   -8.6110 N   0  0  0  0  0  0
   -7.7662  -13.2629   -8.3569 C   0  0  0  0  0  0
   -7.6843  -12.2798   -7.6205 O   0  0  0  0  0  0
   -9.0980  -13.7160   -9.0687 C   0  0  1  0  0  0
   -9.1738  -15.1523   -9.2203 O   0  0  0  0  0  0
  -10.4067  -13.1714   -8.4212 C   0  0  0  0  0  0
  -11.5241  -14.0202   -8.3344 C   0  0  0  0  0  0
  -12.7453  -13.5578   -7.8498 C   0  0  0  0  0  0
  -12.8748  -12.2314   -7.4560 C   0  0  0  0  0  0
  -11.7892  -11.3663   -7.5403 C   0  0  0  0  0  0
  -10.5669  -11.8320   -8.0210 C   0  0  0  0  0  0
  -14.0646  -11.7799   -6.9984 F   0  0  0  0  0  0
   -5.4431  -13.8789   -7.8968 C   0  0  0  0  0  0
   -4.5136  -12.7702   -8.4476 C   0  0  0  0  0  0
   -4.8174  -11.3532   -7.9139 C   0  0  0  0  0  0
   -3.7634  -10.4386   -8.1838 O   0  0  0  0  0  0
   -2.7018  -10.4549   -7.2379 C   0  0  0  0  0  0
   -3.4530  -19.4413   -7.1926 H   0  0  0  0  0  0
   -4.3246  -20.1807   -8.5288 H   0  0  0  0  0  0
   -2.5634  -20.0957   -8.5533 H   0  0  0  0  0  0
   -2.6953  -17.5745   -8.6891 H   0  0  0  0  0  0
   -4.4272  -17.6617   -8.5919 H   0  0  0  0  0  0
   -0.7627  -20.3024  -12.1699 H   0  0  0  0  0  0
   -1.4609  -20.2316  -13.7897 H   0  0  0  0  0  0
   -6.2920  -17.2708  -13.3156 H   0  0  0  0  0  0
   -5.3903  -18.0612  -14.5865 H   0  0  0  0  0  0
   -7.2617  -18.4704  -11.5818 H   0  0  0  0  0  0
   -9.2278  -17.2819  -10.7039 H   0  0  0  0  0  0
   -4.6775  -15.5224   -9.8558 H   0  0  0  0  0  0
   -9.0660  -13.2629  -10.0563 H   0  0  0  0  0  0
  -11.4647  -15.0487   -8.6553 H   0  0  0  0  0  0
  -13.5938  -14.2244   -7.7898 H   0  0  0  0  0  0
  -11.9011  -10.3352   -7.2412 H   0  0  0  0  0  0
   -9.7550  -11.1227   -8.0719 H   0  0  0  0  0  0
   -4.8767  -14.8115   -7.8623 H   0  0  0  0  0  0
   -5.6521  -13.6929   -6.8414 H   0  0  0  0  0  0
   -4.5077  -12.7746   -9.5388 H   0  0  0  0  0  0
   -3.4996  -13.0270   -8.1432 H   0  0  0  0  0  0
   -5.0597  -11.3628   -6.8498 H   0  0  0  0  0  0
   -5.6938  -10.9544   -8.4159 H   0  0  0  0  0  0
   -1.9726   -9.6873   -7.5006 H   0  0  0  0  0  0
   -2.1776  -11.4146   -7.2275 H   0  0  0  0  0  0
   -3.0577  -10.2388   -6.2271 H   0  0  0  0  0  0
  1  2  1  0  0  0
  1 34  1  0  0  0
  1 35  1  0  0  0
  1 36  1  0  0  0
  2  3  1  0  0  0
  2 37  1  0  0  0
  2 38  1  0  0  0
  3  8  1  0  0  0
  3  4  2  0  0  0
  4  5  1  0  0  0
  4 11  1  0  0  0
  5  6  2  0  0  0
  5 10  1  0  0  0
  6  7  1  0  0  0
  7  8  2  0  0  0
  7  9  1  0  0  0
  9 39  1  0  0  0
  9 40  1  0  0  0
 10 41  1  0  0  0
 10 42  1  0  0  0
 11 16  1  0  0  0
 11 12  2  0  0  0
 12 13  1  0  0  0
 12 43  1  0  0  0
 13 14  2  0  0  0
 13 44  1  0  0  0
 14 21  1  0  0  0
 14 15  1  0  0  0
 15 16  2  0  0  0
 15 17  1  0  0  0
 16 45  1  0  0  0
 17 18  1  0  0  0
 17 29  1  0  0  0
 18 19  2  0  0  0
 18 20  1  0  0  0
 20 21  1  0  0  0
 20 22  1  0  0  0
 20 46  1  0  0  0
 22 27  1  0  0  0
 22 23  2  0  0  0
 23 24  1  0  0  0
 23 47  1  0  0  0
 24 25  2  0  0  0
 24 48  1  0  0  0
 25 26  1  0  0  0
 25 28  1  0  0  0
 26 27  2  0  0  0
 26 49  1  0  0  0
 27 50  1  0  0  0
 29 30  1  0  0  0
 29 51  1  0  0  0
 29 52  1  0  0  0
 30 31  1  0  0  0
 30 53  1  0  0  0
 30 54  1  0  0  0
 31 32  1  0  0  0
 31 55  1  0  0  0
 31 56  1  0  0  0
 32 33  1  0  0  0
 33 57  1  0  0  0
 33 58  1  0  0  0
 33 59  1  0  0  0
M  END
> <s_m_entry_id>
27488

> <s_m_entry_name>
ligand_docking-pose.42

> <s_m_Source_Path>
/home/csk/Desktop/cluster/DUD-E-result/reni

> <s_m_Source_File>
ligand_docking-pose.sdf

> <i_m_Source_File_Index>
42

> <i_lp_mmshare_version>
53161

> <i_f3d_flags>
0

> <r_lp_tautomer_probability>
0.999999624730965

> <s_lp_Force_Field>
OPLS_2005

> <r_lp_Energy>
29.581948

> <b_lp_Chiralities_Consistent>
1

> <s_lp_Variant>
405773-1

> <s_i_glide_gridfile>
glide-grid_3g6z

> <i_i_glide_lignum>
75

> <i_i_glide_rotatable_bonds>
7

> <r_i_docking_score>
-7.83924367109363

> <r_i_glide_ligand_efficiency>
-0.237552838517989

> <r_i_glide_ligand_efficiency_sa>
-0.761958883846339

> <r_i_glide_ligand_efficiency_ln>
-1.74340720301979

> <r_i_glide_gscore>
-7.83924367109363

> <r_i_glide_lipo>
-3.08941355094418

> <r_i_glide_hbond>
-0.0581411440839937

> <r_i_glide_metal>
0

> <r_i_glide_rewards>
-2.44350724198974

> <r_i_glide_evdw>
-41.9106063842773

> <r_i_glide_ecoul>
-3.88544082641602

> <r_i_glide_erotb>
0.49197661825068

> <r_i_glide_esite>
-0.0618119091501242

> <r_i_glide_emodel>
-63.5316629766295

> <r_i_glide_energy>
-45.7960472106934

> <r_i_glide_einternal>
7.42679500579834

> <i_i_glide_confnum>
97

> <i_i_glide_posenum>
351

> <r_i_glide_eff_state_penalty>
0

> <s_user_duplicate_titles>
405773

> <s_m_subgroup_title>
dock_pv

> <s_m_subgroupid>
dock_pv1

> <b_m_subgroup_collapsed>
0

$$$$
116763
                    3D
 Schrodinger Suite 2021-1.
 86 88  0  0  1  0            999 V2000
   -2.7420  -12.5046   -7.8195 C   0  0  0  0  0  0
   -3.5592  -12.5730   -9.1230 C   0  0  0  0  0  0
   -2.7453  -12.8895  -10.4029 C   0  0  2  0  0  0
   -1.9482  -14.2373  -10.4049 C   0  0  1  0  0  0
   -2.7637  -15.4873   -9.9459 C   0  0  2  0  0  0
   -1.8887  -16.7513   -9.6747 C   0  0  0  0  0  0
   -1.1691  -17.4002  -10.8939 C   0  0  0  0  0  0
    0.3292  -16.9974  -10.9853 C   0  0  0  0  0  0
    0.9864  -17.5659  -12.2617 C   0  0  0  0  0  0
    0.8374  -19.1006  -12.3473 C   0  0  0  0  0  0
   -0.6106  -19.5755  -12.0896 C   0  0  0  0  0  0
   -1.1966  -18.9393  -10.8085 C   0  0  0  0  0  0
   -3.8973  -15.7302  -10.8489 N   0  0  0  0  0  0
   -5.0027  -16.4404  -10.5649 C   0  0  0  0  0  0
   -5.1625  -17.0840   -9.5272 O   0  0  0  0  0  0
   -6.1108  -16.3942  -11.6387 C   0  0  1  0  0  0
   -5.6424  -17.0254  -12.9683 C   0  0  0  0  0  0
   -5.6165  -18.5334  -12.9984 C   0  0  0  0  0  0
   -4.6566  -19.4431  -12.6231 C   0  0  0  0  0  0
   -5.1242  -20.7426  -12.8418 N   0  0  0  0  0  0
   -6.3431  -20.5687  -13.3427 C   0  0  0  0  0  0
   -6.6690  -19.2820  -13.4877 N   0  0  0  0  0  0
   -7.3574  -17.0418  -11.2212 N   0  0  0  0  0  0
   -8.2690  -16.5521  -10.3570 C   0  0  0  0  0  0
   -8.1515  -15.4500   -9.8260 O   0  0  0  0  0  0
   -9.5180  -17.4276  -10.0306 C   0  0  1  0  0  0
  -10.8808  -16.7078  -10.3290 C   0  0  0  0  0  0
  -11.5057  -15.8982   -9.1888 C   0  0  0  0  0  0
  -11.0209  -14.6232   -8.8201 C   0  0  0  0  0  0
  -11.6131  -13.9200   -7.7798 C   0  0  0  0  0  0
  -12.6626  -14.4775   -7.0633 C   0  0  0  0  0  0
  -13.1228  -15.7485   -7.3803 C   0  0  0  0  0  0
  -12.5449  -16.4629   -8.4210 C   0  0  0  0  0  0
   -9.3449  -18.8311  -10.5044 N   0  0  0  0  0  0
  -10.3178  -19.7696  -10.8212 C   0  0  0  0  0  0
  -11.5437  -19.6479  -10.8210 O   0  0  0  0  0  0
   -9.6814  -20.9087  -11.1519 O   0  0  0  0  0  0
  -10.4069  -22.0739  -11.5224 C   0  0  0  0  0  0
   -9.4190  -23.1595  -11.9572 C   0  0  0  0  0  0
   -1.4701  -14.4631  -11.7275 O   0  0  0  0  0  0
   -1.8690  -11.7964  -10.6308 O   0  0  0  0  0  0
   -1.0742  -14.1374   -9.7579 H   0  0  0  0  0  0
   -3.1942  -15.2382   -8.9741 H   0  0  0  0  0  0
   -3.3846  -12.2563   -6.9729 H   0  0  0  0  0  0
   -2.2564  -13.4542   -7.5942 H   0  0  0  0  0  0
   -1.9670  -11.7388   -7.8753 H   0  0  0  0  0  0
   -4.0699  -11.6187   -9.2596 H   0  0  0  0  0  0
   -4.3641  -13.2989   -9.0073 H   0  0  0  0  0  0
   -3.4470  -12.9001  -11.2398 H   0  0  0  0  0  0
   -2.5336  -17.4912   -9.1961 H   0  0  0  0  0  0
   -1.1596  -16.5151   -8.8990 H   0  0  0  0  0  0
   -1.6833  -17.1110  -11.8126 H   0  0  0  0  0  0
    0.8607  -17.3276  -10.0916 H   0  0  0  0  0  0
    0.4452  -15.9152  -10.9651 H   0  0  0  0  0  0
    2.0429  -17.2952  -12.2888 H   0  0  0  0  0  0
    0.5324  -17.1072  -13.1394 H   0  0  0  0  0  0
    1.5033  -19.5619  -11.6190 H   0  0  0  0  0  0
    1.1782  -19.4574  -13.3202 H   0  0  0  0  0  0
   -0.6366  -20.6634  -12.0194 H   0  0  0  0  0  0
   -1.2370  -19.3164  -12.9452 H   0  0  0  0  0  0
   -2.2150  -19.2938  -10.6504 H   0  0  0  0  0  0
   -0.6690  -19.2632   -9.9107 H   0  0  0  0  0  0
   -3.8405  -15.2661  -11.7459 H   0  0  0  0  0  0
   -6.3219  -15.3371  -11.8186 H   0  0  0  0  0  0
   -6.2819  -16.6791  -13.7807 H   0  0  0  0  0  0
   -4.6445  -16.6818  -13.2207 H   0  0  0  0  0  0
   -7.5063  -18.8952  -13.9317 H   0  0  0  0  0  0
   -3.6746  -19.2635  -12.2162 H   0  0  0  0  0  0
   -6.9927  -21.3853  -13.6222 H   0  0  0  0  0  0
   -7.5247  -17.9392  -11.6497 H   0  0  0  0  0  0
   -9.4723  -17.5904   -8.9515 H   0  0  0  0  0  0
  -10.7570  -16.0630  -11.1986 H   0  0  0  0  0  0
  -11.6663  -17.3660  -10.6721 H   0  0  0  0  0  0
  -10.1955  -14.1703   -9.3434 H   0  0  0  0  0  0
  -11.2445  -12.9382   -7.5181 H   0  0  0  0  0  0
  -13.1139  -13.9272   -6.2516 H   0  0  0  0  0  0
  -13.9380  -16.1816   -6.8216 H   0  0  0  0  0  0
  -12.9276  -17.4423   -8.6691 H   0  0  0  0  0  0
   -8.4057  -19.1933  -10.4370 H   0  0  0  0  0  0
  -11.0030  -22.4241  -10.6770 H   0  0  0  0  0  0
  -11.0970  -21.8527  -12.3386 H   0  0  0  0  0  0
   -9.9422  -24.0748  -12.2337 H   0  0  0  0  0  0
   -8.8372  -22.8369  -12.8210 H   0  0  0  0  0  0
   -8.7206  -23.4030  -11.1549 H   0  0  0  0  0  0
   -0.8081  -13.7902  -11.9587 H   0  0  0  0  0  0
   -1.3663  -11.9617  -11.4341 H   0  0  0  0  0  0
  1  2  1  0  0  0
  1 44  1  0  0  0
  1 45  1  0  0  0
  1 46  1  0  0  0
  2  3  1  0  0  0
  2 47  1  0  0  0
  2 48  1  0  0  0
  3  4  1  0  0  0
  3 41  1  0  0  0
  3 49  1  0  0  0
  4 42  1  0  0  0
  4  5  1  0  0  0
  4 40  1  0  0  0
  5 43  1  0  0  0
  5  6  1  0  0  0
  5 13  1  0  0  0
  6  7  1  0  0  0
  6 50  1  0  0  0
  6 51  1  0  0  0
  7 12  1  0  0  0
  7  8  1  0  0  0
  7 52  1  0  0  0
  8  9  1  0  0  0
  8 53  1  0  0  0
  8 54  1  0  0  0
  9 10  1  0  0  0
  9 55  1  0  0  0
  9 56  1  0  0  0
 10 11  1  0  0  0
 10 57  1  0  0  0
 10 58  1  0  0  0
 11 12  1  0  0  0
 11 59  1  0  0  0
 11 60  1  0  0  0
 12 61  1  0  0  0
 12 62  1  0  0  0
 13 14  1  0  0  0
 13 63  1  0  0  0
 14 15  2  0  0  0
 14 16  1  0  0  0
 16 17  1  0  0  0
 16 23  1  0  0  0
 16 64  1  0  0  0
 17 65  1  0  0  0
 17 66  1  0  0  0
 17 18  1  0  0  0
 18 19  2  0  0  0
 18 22  1  0  0  0
 19 68  1  0  0  0
 19 20  1  0  0  0
 20 21  2  0  0  0
 21 69  1  0  0  0
 21 22  1  0  0  0
 22 67  1  0  0  0
 23 24  1  0  0  0
 23 70  1  0  0  0
 24 25  2  0  0  0
 24 26  1  0  0  0
 26 27  1  0  0  0
 26 34  1  0  0  0
 26 71  1  0  0  0
 27 28  1  0  0  0
 27 72  1  0  0  0
 27 73  1  0  0  0
 28 33  1  0  0  0
 28 29  2  0  0  0
 29 30  1  0  0  0
 29 74  1  0  0  0
 30 31  2  0  0  0
 30 75  1  0  0  0
 31 32  1  0  0  0
 31 76  1  0  0  0
 32 33  2  0  0  0
 32 77  1  0  0  0
 33 78  1  0  0  0
 34 35  1  0  0  0
 34 79  1  0  0  0
 35 36  2  0  0  0
 35 37  1  0  0  0
 37 38  1  0  0  0
 38 39  1  0  0  0
 38 80  1  0  0  0
 38 81  1  0  0  0
 39 82  1  0  0  0
 39 83  1  0  0  0
 39 84  1  0  0  0
 40 85  1  0  0  0
 41 86  1  0  0  0
M  END
> <s_m_entry_id>
27490

> <s_m_entry_name>
ligand_docking-pose.44

> <s_m_Source_Path>
/home/csk/Desktop/cluster/DUD-E-result/reni

> <s_m_Source_File>
ligand_docking-pose.sdf

> <i_m_Source_File_Index>
44

> <i_lp_mmshare_version>
53161

> <i_f3d_flags>
0

> <r_lp_tautomer_probability>
0.499999999999999

> <s_lp_Force_Field>
OPLS_2005

> <r_lp_Energy>
31.171202

> <b_lp_Chiralities_Consistent>
1

> <s_lp_Variant>
116763-7

> <s_i_glide_gridfile>
glide-grid_3g6z

> <i_i_glide_lignum>
475

> <i_i_glide_rotatable_bonds>
21

> <r_i_docking_score>
-7.80699387251075

> <r_i_glide_ligand_efficiency>
-0.190414484695384

> <r_i_glide_ligand_efficiency_sa>
-0.656590508132452

> <r_i_glide_ligand_efficiency_ln>
-1.65627973053764

> <r_i_glide_gscore>
-7.80699387251075

> <r_i_glide_lipo>
-2.84629334899775

> <r_i_glide_hbond>
-0.202625069430371

> <r_i_glide_metal>
0

> <r_i_glide_rewards>
-0.654906079509739

> <r_i_glide_evdw>
-45.3758697509766

> <r_i_glide_ecoul>
-16.3724937438965

> <r_i_glide_erotb>
0.801682494180273

> <r_i_glide_esite>
-0.180184319619862

> <r_i_glide_emodel>
-85.8574879354814

> <r_i_glide_energy>
-61.748363494873

> <r_i_glide_einternal>
15.7353534698486

> <i_i_glide_confnum>
34

> <i_i_glide_posenum>
32

> <r_i_glide_eff_state_penalty>
0

> <s_user_duplicate_titles>
116763

> <s_m_subgroup_title>
dock_pv

> <s_m_subgroupid>
dock_pv1

> <b_m_subgroup_collapsed>
0

$$$$
61763
                    3D
 Schrodinger Suite 2021-1.
 88 89  0  0  1  0            999 V2000
   -1.6570  -17.4621  -10.8918 C   0  0  0  0  0  0
   -1.3612  -16.0959  -10.2426 C   0  0  0  0  0  0
   -0.5296  -16.2878   -8.9612 C   0  0  0  0  0  0
   -2.6311  -15.2511   -9.9521 C   0  0  0  0  0  0
   -3.4625  -14.8236  -11.2003 C   0  0  2  0  0  0
   -4.2066  -13.4423  -11.0792 C   0  0  1  0  0  0
   -3.3209  -12.1633  -11.0348 C   0  0  0  0  0  0
   -2.3833  -11.7545   -9.5240 S   0  0  0  0  0  0
   -3.6903  -11.5386   -8.2751 C   0  0  0  0  0  0
   -3.9300  -10.0620   -7.9466 C   0  0  0  0  0  0
   -3.4330  -12.3545   -7.0006 C   0  0  0  0  0  0
   -5.0594  -13.2603  -12.2023 O   0  0  0  0  0  0
   -4.3485  -15.9288  -11.6209 N   0  0  0  0  0  0
   -5.4503  -16.3566  -10.9785 C   0  0  0  0  0  0
   -5.8951  -15.8316   -9.9592 O   0  0  0  0  0  0
   -6.1272  -17.5969  -11.5925 C   0  0  1  0  0  0
   -5.3335  -18.8780  -11.2371 C   0  0  0  0  0  0
   -5.7777  -20.1111  -11.9789 C   0  0  0  0  0  0
   -6.7184  -21.0566  -11.6208 C   0  0  0  0  0  0
   -6.7622  -21.9677  -12.6629 N   0  0  0  0  0  0
   -5.8687  -21.5701  -13.5690 C   0  0  0  0  0  0
   -5.2397  -20.4563  -13.2211 N   0  0  0  0  0  0
   -7.5572  -17.7431  -11.2727 N   0  0  0  0  0  0
   -8.1150  -17.9955  -10.0689 C   0  0  0  0  0  0
   -7.4808  -18.1683   -9.0272 O   0  0  0  0  0  0
   -9.6481  -18.1368  -10.0297 C   0  0  1  0  0  0
  -10.3961  -16.8000  -10.3907 C   0  0  0  0  0  0
  -11.1391  -16.0852   -9.2566 C   0  0  0  0  0  0
  -12.2619  -16.6716   -8.6345 C   0  0  0  0  0  0
  -12.9636  -15.9957   -7.6450 C   0  0  0  0  0  0
  -12.5752  -14.7195   -7.2611 C   0  0  0  0  0  0
  -11.4689  -14.1246   -7.8502 C   0  0  0  0  0  0
  -10.7360  -14.8016   -8.8210 C   0  0  0  0  0  0
  -10.0191  -19.3140  -10.8523 N   0  0  0  0  0  0
  -11.3275  -19.7134  -11.0733 C   0  0  0  0  0  0
  -12.3347  -19.0695  -10.8223 O   0  0  0  0  0  0
  -11.3400  -20.9435  -11.6208 O   0  0  0  0  0  0
  -12.5318  -21.6636  -12.0210 C   0  0  0  0  0  0
  -13.0683  -22.3932  -10.8212 C   0  0  0  0  0  0
  -12.0388  -22.7416  -13.0215 C   0  0  0  0  0  0
  -13.7327  -20.8475  -12.6213 C   0  0  0  0  0  0
   -2.7528  -14.6957  -12.0211 H   0  0  0  0  0  0
   -4.8587  -13.4659  -10.2072 H   0  0  0  0  0  0
   -7.3714  -22.7705  -12.7400 H   0  0  0  0  0  0
   -2.3212  -18.0625  -10.2669 H   0  0  0  0  0  0
   -2.1216  -17.3549  -11.8723 H   0  0  0  0  0  0
   -0.7416  -18.0346  -11.0433 H   0  0  0  0  0  0
   -0.7411  -15.5319  -10.9416 H   0  0  0  0  0  0
   -1.0864  -16.8473   -8.2075 H   0  0  0  0  0  0
    0.3930  -16.8344   -9.1637 H   0  0  0  0  0  0
   -0.2494  -15.3294   -8.5202 H   0  0  0  0  0  0
   -2.3031  -14.3728   -9.4095 H   0  0  0  0  0  0
   -3.2655  -15.7737   -9.2337 H   0  0  0  0  0  0
   -2.5990  -12.2012  -11.8530 H   0  0  0  0  0  0
   -3.9335  -11.2828  -11.2385 H   0  0  0  0  0  0
   -4.6217  -11.9108   -8.6993 H   0  0  0  0  0  0
   -4.6690   -9.9421   -7.1541 H   0  0  0  0  0  0
   -3.0121   -9.5747   -7.6163 H   0  0  0  0  0  0
   -4.2966   -9.5291   -8.8228 H   0  0  0  0  0  0
   -4.2703  -12.2658   -6.3088 H   0  0  0  0  0  0
   -3.3124  -13.4146   -7.2301 H   0  0  0  0  0  0
   -2.5349  -12.0180   -6.4790 H   0  0  0  0  0  0
   -4.6209  -13.6395  -12.9732 H   0  0  0  0  0  0
   -4.0865  -16.3899  -12.4808 H   0  0  0  0  0  0
   -6.0858  -17.4698  -12.6754 H   0  0  0  0  0  0
   -4.2782  -18.7329  -11.4670 H   0  0  0  0  0  0
   -5.3742  -19.0822  -10.1664 H   0  0  0  0  0  0
   -7.3408  -21.1393  -10.7417 H   0  0  0  0  0  0
   -5.6980  -22.0890  -14.5005 H   0  0  0  0  0  0
   -8.1701  -17.6429  -12.0727 H   0  0  0  0  0  0
   -9.9161  -18.4288   -9.0123 H   0  0  0  0  0  0
  -11.1081  -16.9392  -11.2033 H   0  0  0  0  0  0
   -9.6969  -16.0754  -10.8102 H   0  0  0  0  0  0
  -12.6060  -17.6498   -8.9263 H   0  0  0  0  0  0
  -13.8271  -16.4576   -7.1868 H   0  0  0  0  0  0
  -13.1297  -14.1909   -6.5001 H   0  0  0  0  0  0
  -11.1652  -13.1366   -7.5403 H   0  0  0  0  0  0
   -9.8666  -14.3270   -9.2491 H   0  0  0  0  0  0
   -9.2786  -19.9120  -11.1881 H   0  0  0  0  0  0
  -13.4543  -21.6823  -10.0766 H   0  0  0  0  0  0
  -13.8690  -23.0210  -11.2211 H   0  0  0  0  0  0
  -12.2996  -23.0506  -10.4210 H   0  0  0  0  0  0
  -12.2721  -22.4633  -14.0354 H   0  0  0  0  0  0
  -10.9649  -22.9202  -12.9608 H   0  0  0  0  0  0
  -12.5192  -23.7117  -12.8824 H   0  0  0  0  0  0
  -13.4690  -19.9152  -13.1107 H   0  0  0  0  0  0
  -14.2689  -21.4445  -13.3553 H   0  0  0  0  0  0
  -14.4548  -20.5683  -11.8519 H   0  0  0  0  0  0
  1  2  1  0  0  0
  1 45  1  0  0  0
  1 46  1  0  0  0
  1 47  1  0  0  0
  2  3  1  0  0  0
  2  4  1  0  0  0
  2 48  1  0  0  0
  3 49  1  0  0  0
  3 50  1  0  0  0
  3 51  1  0  0  0
  4  5  1  0  0  0
  4 52  1  0  0  0
  4 53  1  0  0  0
  5 42  1  0  0  0
  5  6  1  0  0  0
  5 13  1  0  0  0
  6 43  1  0  0  0
  6  7  1  0  0  0
  6 12  1  0  0  0
  7  8  1  0  0  0
  7 54  1  0  0  0
  7 55  1  0  0  0
  8  9  1  0  0  0
  9 10  1  0  0  0
  9 11  1  0  0  0
  9 56  1  0  0  0
 10 57  1  0  0  0
 10 58  1  0  0  0
 10 59  1  0  0  0
 11 60  1  0  0  0
 11 61  1  0  0  0
 11 62  1  0  0  0
 12 63  1  0  0  0
 13 14  1  0  0  0
 13 64  1  0  0  0
 14 15  2  0  0  0
 14 16  1  0  0  0
 16 17  1  0  0  0
 16 23  1  0  0  0
 16 65  1  0  0  0
 17 18  1  0  0  0
 17 66  1  0  0  0
 17 67  1  0  0  0
 18 22  1  0  0  0
 18 19  2  0  0  0
 19 20  1  0  0  0
 19 68  1  0  0  0
 20 44  1  0  0  0
 20 21  1  0  0  0
 21 22  2  0  0  0
 21 69  1  0  0  0
 23 24  1  0  0  0
 23 70  1  0  0  0
 24 25  2  0  0  0
 24 26  1  0  0  0
 26 27  1  0  0  0
 26 34  1  0  0  0
 26 71  1  0  0  0
 27 28  1  0  0  0
 27 72  1  0  0  0
 27 73  1  0  0  0
 28 33  1  0  0  0
 28 29  2  0  0  0
 29 30  1  0  0  0
 29 74  1  0  0  0
 30 31  2  0  0  0
 30 75  1  0  0  0
 31 32  1  0  0  0
 31 76  1  0  0  0
 32 33  2  0  0  0
 32 77  1  0  0  0
 33 78  1  0  0  0
 34 35  1  0  0  0
 34 79  1  0  0  0
 35 36  2  0  0  0
 35 37  1  0  0  0
 37 38  1  0  0  0
 38 39  1  0  0  0
 38 40  1  0  0  0
 38 41  1  0  0  0
 39 80  1  0  0  0
 39 81  1  0  0  0
 39 82  1  0  0  0
 40 83  1  0  0  0
 40 84  1  0  0  0
 40 85  1  0  0  0
 41 86  1  0  0  0
 41 87  1  0  0  0
 41 88  1  0  0  0
M  END
> <s_m_entry_id>
27491

> <s_m_entry_name>
ligand_docking-pose.45

> <s_m_Source_Path>
/home/csk/Desktop/cluster/DUD-E-result/reni

> <s_m_Source_File>
ligand_docking-pose.sdf

> <i_m_Source_File_Index>
45

> <i_lp_mmshare_version>
53161

> <i_f3d_flags>
0

> <r_lp_tautomer_probability>
0.499999999999999

> <s_lp_Force_Field>
OPLS_2005

> <r_lp_Energy>
13.600022

> <b_lp_Chiralities_Consistent>
1

> <s_lp_Variant>
61763-4

> <s_i_glide_gridfile>
glide-grid_3g6z

> <i_i_glide_lignum>
354

> <i_i_glide_rotatable_bonds>
21

> <r_i_docking_score>
-7.79444791468855

> <r_i_glide_ligand_efficiency>
-0.190108485724111

> <r_i_glide_ligand_efficiency_sa>
-0.655535357205474

> <r_i_glide_ligand_efficiency_ln>
-1.65361806383462

> <r_i_glide_gscore>
-7.79444791468855

> <r_i_glide_lipo>
-3.40380135547051

> <r_i_glide_hbond>
-0.77962798169236

> <r_i_glide_metal>
0

> <r_i_glide_rewards>
-0.64732919342527

> <r_i_glide_evdw>
-38.7889709472656

> <r_i_glide_ecoul>
-11.5256328582764

> <r_i_glide_erotb>
0.795174607649453

> <r_i_glide_esite>
-0.0905705156451277

> <r_i_glide_emodel>
-57.9026553876648

> <r_i_glide_energy>
-50.314603805542

> <r_i_glide_einternal>
17.3941555023193

> <i_i_glide_confnum>
162

> <i_i_glide_posenum>
46

> <r_i_glide_eff_state_penalty>
0

> <s_user_duplicate_titles>
61763

> <s_m_subgroup_title>
dock_pv

> <s_m_subgroupid>
dock_pv1

> <b_m_subgroup_collapsed>
0

$$$$
36756
                    3D
 Schrodinger Suite 2021-1.
 85 85  0  0  1  0            999 V2000
  -11.7248  -15.0694   -8.7575 C   0  0  0  0  0  0
  -11.6965  -16.3571   -9.5985 C   0  0  0  0  0  0
  -10.2822  -16.8742   -9.9671 C   0  0  1  0  0  0
   -9.4563  -17.2543   -8.7168 C   0  0  0  0  0  0
  -10.3889  -18.0393  -10.9831 C   0  0  0  0  0  0
   -9.1298  -18.4287  -11.6214 N   0  0  0  0  0  0
   -8.2467  -19.3176  -11.1374 C   0  0  0  0  0  0
   -8.3822  -19.8606  -10.0410 O   0  0  0  0  0  0
   -7.0256  -19.6569  -12.0274 C   0  0  1  0  0  0
   -5.6661  -19.3341  -11.3121 C   0  0  0  0  0  0
   -4.6983  -18.3091  -11.9733 C   0  0  2  0  0  0
   -4.9685  -16.7940  -11.6664 C   0  0  2  0  0  0
   -6.0297  -16.1603  -12.6190 C   0  0  0  0  0  0
   -6.6744  -14.8050  -12.2227 C   0  0  0  0  0  0
   -7.8623  -14.4871  -13.1465 C   0  0  0  0  0  0
   -5.7045  -13.6147  -12.2499 C   0  0  0  0  0  0
   -3.7063  -16.0260  -11.6210 N   0  0  0  0  0  0
   -2.8048  -16.0476  -10.6177 C   0  0  0  0  0  0
   -2.9821  -16.7177   -9.6005 O   0  0  0  0  0  0
   -1.5236  -15.1831  -10.7618 C   0  0  2  0  0  0
   -0.1822  -15.9488  -10.4401 C   0  0  2  0  0  0
    0.1764  -17.0673  -11.4391 C   0  0  0  0  0  0
    0.8884  -16.8699  -12.4212 O   0  0  0  0  0  0
   -0.4048  -18.2600  -11.1242 O   0  0  0  0  0  0
   -0.1349  -16.4732   -9.1154 O   0  0  0  0  0  0
   -1.6385  -13.8986   -9.9156 C   0  0  0  0  0  0
   -1.2043  -13.8511   -8.7625 O   0  0  0  0  0  0
   -2.2490  -12.6532  -10.5892 C   0  0  0  0  0  0
   -2.6907  -11.6539   -9.6603 O   0  0  0  0  0  0
   -3.7088  -11.9182   -8.7594 C   0  0  0  0  0  0
   -4.4901  -13.0864   -8.7546 C   0  0  0  0  0  0
   -5.4721  -13.2783   -7.7896 C   0  0  0  0  0  0
   -5.6790  -12.3036   -6.8217 C   0  0  0  0  0  0
   -4.9170  -11.1363   -6.8209 C   0  0  0  0  0  0
   -3.9421  -10.9422   -7.7927 C   0  0  0  0  0  0
   -4.5616  -18.5392  -13.3688 O   0  0  0  0  0  0
   -7.1174  -21.1128  -12.6026 C   0  0  0  0  0  0
   -7.1135  -22.2573  -11.5623 C   0  0  0  0  0  0
   -6.0484  -21.3745  -13.6787 C   0  0  0  0  0  0
   -9.7552  -16.0637  -10.4706 H   0  0  0  0  0  0
   -7.1068  -19.0108  -12.9010 H   0  0  0  0  0  0
   -5.3886  -16.7379  -10.6586 H   0  0  0  0  0  0
  -12.7454  -14.7000   -8.6572 H   0  0  0  0  0  0
  -11.3415  -15.2325   -7.7501 H   0  0  0  0  0  0
  -11.1338  -14.2787   -9.2205 H   0  0  0  0  0  0
  -12.2533  -16.1594  -10.5147 H   0  0  0  0  0  0
  -12.2540  -17.1381   -9.0780 H   0  0  0  0  0  0
   -9.8681  -18.1289   -8.2179 H   0  0  0  0  0  0
   -8.4188  -17.4706   -8.9690 H   0  0  0  0  0  0
   -9.4235  -16.4617   -7.9796 H   0  0  0  0  0  0
  -11.0682  -17.7604  -11.7902 H   0  0  0  0  0  0
  -10.8553  -18.9052  -10.5096 H   0  0  0  0  0  0
   -8.9717  -18.0626  -12.5556 H   0  0  0  0  0  0
   -5.1064  -20.2629  -11.2031 H   0  0  0  0  0  0
   -5.8210  -19.0336  -10.2741 H   0  0  0  0  0  0
   -3.7214  -18.5593  -11.5541 H   0  0  0  0  0  0
   -5.6048  -16.0633  -13.6182 H   0  0  0  0  0  0
   -6.8489  -16.8661  -12.7297 H   0  0  0  0  0  0
   -7.0619  -14.8955  -11.2069 H   0  0  0  0  0  0
   -7.5502  -14.4705  -14.1918 H   0  0  0  0  0  0
   -8.6680  -15.2165  -13.0446 H   0  0  0  0  0  0
   -8.2691  -13.5025  -12.9208 H   0  0  0  0  0  0
   -5.2314  -13.4963  -13.2220 H   0  0  0  0  0  0
   -6.2099  -12.6759  -12.0200 H   0  0  0  0  0  0
   -4.9230  -13.7404  -11.5147 H   0  0  0  0  0  0
   -3.5125  -15.4821  -12.4574 H   0  0  0  0  0  0
   -1.4606  -14.8517  -11.8009 H   0  0  0  0  0  0
    0.6408  -15.2319  -10.5039 H   0  0  0  0  0  0
   -0.8464  -18.1870  -10.2733 H   0  0  0  0  0  0
   -0.5517  -15.8307   -8.5282 H   0  0  0  0  0  0
   -3.0484  -12.9222  -11.2739 H   0  0  0  0  0  0
   -1.4690  -12.1915  -11.1930 H   0  0  0  0  0  0
   -4.3382  -13.8712   -9.4730 H   0  0  0  0  0  0
   -6.0576  -14.1867   -7.7846 H   0  0  0  0  0  0
   -6.4290  -12.4638   -6.0624 H   0  0  0  0  0  0
   -5.0713  -10.3860   -6.0589 H   0  0  0  0  0  0
   -3.3499  -10.0392   -7.7863 H   0  0  0  0  0  0
   -5.2703  -18.0698  -13.8224 H   0  0  0  0  0  0
   -8.0731  -21.1824  -13.1284 H   0  0  0  0  0  0
   -6.2188  -22.2449  -10.9431 H   0  0  0  0  0  0
   -7.9762  -22.2118  -10.8999 H   0  0  0  0  0  0
   -7.1560  -23.2297  -12.0533 H   0  0  0  0  0  0
   -5.0447  -21.4241  -13.2565 H   0  0  0  0  0  0
   -6.2365  -22.3126  -14.2022 H   0  0  0  0  0  0
   -6.0605  -20.5799  -14.4211 H   0  0  0  0  0  0
  1  2  1  0  0  0
  1 43  1  0  0  0
  1 44  1  0  0  0
  1 45  1  0  0  0
  2  3  1  0  0  0
  2 46  1  0  0  0
  2 47  1  0  0  0
  3 40  1  0  0  0
  3  4  1  0  0  0
  3  5  1  0  0  0
  4 48  1  0  0  0
  4 49  1  0  0  0
  4 50  1  0  0  0
  5  6  1  0  0  0
  5 51  1  0  0  0
  5 52  1  0  0  0
  6  7  1  0  0  0
  6 53  1  0  0  0
  7  8  2  0  0  0
  7  9  1  0  0  0
  9 41  1  0  0  0
  9 10  1  0  0  0
  9 37  1  0  0  0
 10 11  1  0  0  0
 10 54  1  0  0  0
 10 55  1  0  0  0
 11 12  1  0  0  0
 11 36  1  0  0  0
 11 56  1  0  0  0
 12 42  1  0  0  0
 12 13  1  0  0  0
 12 17  1  0  0  0
 13 14  1  0  0  0
 13 57  1  0  0  0
 13 58  1  0  0  0
 14 15  1  0  0  0
 14 16  1  0  0  0
 14 59  1  0  0  0
 15 60  1  0  0  0
 15 61  1  0  0  0
 15 62  1  0  0  0
 16 63  1  0  0  0
 16 64  1  0  0  0
 16 65  1  0  0  0
 17 18  1  0  0  0
 17 66  1  0  0  0
 18 19  2  0  0  0
 18 20  1  0  0  0
 20 21  1  0  0  0
 20 26  1  0  0  0
 20 67  1  0  0  0
 21 22  1  0  0  0
 21 25  1  0  0  0
 21 68  1  0  0  0
 22 23  2  0  0  0
 22 24  1  0  0  0
 24 69  1  0  0  0
 25 70  1  0  0  0
 26 27  2  0  0  0
 26 28  1  0  0  0
 28 29  1  0  0  0
 28 71  1  0  0  0
 28 72  1  0  0  0
 29 30  1  0  0  0
 30 35  1  0  0  0
 30 31  2  0  0  0
 31 32  1  0  0  0
 31 73  1  0  0  0
 32 33  2  0  0  0
 32 74  1  0  0  0
 33 34  1  0  0  0
 33 75  1  0  0  0
 34 35  2  0  0  0
 34 76  1  0  0  0
 35 77  1  0  0  0
 36 78  1  0  0  0
 37 38  1  0  0  0
 37 39  1  0  0  0
 37 79  1  0  0  0
 38 80  1  0  0  0
 38 81  1  0  0  0
 38 82  1  0  0  0
 39 83  1  0  0  0
 39 84  1  0  0  0
 39 85  1  0  0  0
M  END
> <s_m_entry_id>
27493

> <s_m_entry_name>
ligand_docking-pose.47

> <s_m_Source_Path>
/home/csk/Desktop/cluster/DUD-E-result/reni

> <s_m_Source_File>
ligand_docking-pose.sdf

> <i_m_Source_File_Index>
47

> <i_lp_mmshare_version>
53161

> <i_f3d_flags>
0

> <r_lp_tautomer_probability>
0.999999960000001

> <s_lp_Force_Field>
OPLS_2005

> <r_lp_Energy>
27.924715

> <b_lp_Chiralities_Consistent>
1

> <s_lp_Variant>
36756-1

> <s_i_glide_gridfile>
glide-grid_3g6z

> <i_i_glide_lignum>
611

> <i_i_glide_rotatable_bonds>
23

> <r_i_docking_score>
-7.76260433984532

> <r_i_glide_ligand_efficiency>
-0.199041136919111

> <r_i_glide_ligand_efficiency_sa>
-0.674990580326348

> <r_i_glide_ligand_efficiency_ln>
-1.66452272509094

> <r_i_glide_gscore>
-7.76260433984532

> <r_i_glide_lipo>
-3.05373374400058

> <r_i_glide_hbond>
-0.750231076470542

> <r_i_glide_metal>
0

> <r_i_glide_rewards>
-0.633776671460567

> <r_i_glide_evdw>
-49.4947204589844

> <r_i_glide_ecoul>
-11.841625213623

> <r_i_glide_erotb>
1.02467989481737

> <r_i_glide_esite>
-0.0985629377383198

> <r_i_glide_emodel>
-84.2275195852013

> <r_i_glide_energy>
-61.3363456726074

> <r_i_glide_einternal>
14.8714160919189

> <i_i_glide_confnum>
288

> <i_i_glide_posenum>
252

> <r_i_glide_eff_state_penalty>
0

> <s_user_duplicate_titles>
36756

> <s_m_subgroup_title>
dock_pv

> <s_m_subgroupid>
dock_pv1

> <b_m_subgroup_collapsed>
0

$$$$
36883
                    3D
 Schrodinger Suite 2021-1.
 93 94  0  0  1  0            999 V2000
   -5.2890  -13.0342   -7.1877 C   0  0  0  0  0  0
   -5.0216  -14.4769   -7.6507 C   0  0  0  0  0  0
   -3.6256  -14.7060   -8.2853 C   0  0  1  0  0  0
   -2.5000  -14.5495   -7.2421 C   0  0  0  0  0  0
   -3.5160  -16.0720   -9.0161 C   0  0  0  0  0  0
   -4.1788  -16.0836  -10.3218 N   0  0  0  0  0  0
   -5.4370  -16.4995  -10.5429 C   0  0  0  0  0  0
   -6.1539  -16.9867   -9.6642 O   0  0  0  0  0  0
   -5.9745  -16.3128  -11.9935 C   0  0  2  0  0  0
   -6.8974  -15.0419  -11.9917 C   0  0  0  0  0  0
   -7.7077  -14.8647  -13.2904 C   0  0  0  0  0  0
   -6.1364  -13.7270  -11.7087 C   0  0  0  0  0  0
   -6.6691  -17.5541  -12.4211 N   0  0  1  0  0  0
   -5.9254  -18.7887  -12.6422 C   0  0  1  0  0  0
   -6.4939  -19.9028  -11.7160 C   0  0  2  0  0  0
   -5.5912  -21.1711  -11.6656 C   0  0  0  0  0  0
   -4.2928  -21.0884  -10.8217 C   0  0  0  0  0  0
   -4.5220  -20.6565   -9.3471 C   0  0  0  0  0  0
   -3.2006  -20.5894   -8.5577 C   0  0  0  0  0  0
   -2.4488  -21.9348   -8.6062 C   0  0  0  0  0  0
   -2.2686  -22.4532  -10.0478 C   0  0  0  0  0  0
   -3.5983  -22.4734  -10.8196 C   0  0  0  0  0  0
   -7.9865  -20.2717  -11.9847 C   0  0  0  0  0  0
   -8.7176  -20.9026  -10.7741 C   0  0  0  0  0  0
   -8.0886  -21.3384   -9.8060 O   0  0  0  0  0  0
  -10.2405  -20.9999  -10.8081 C   0  0  2  0  0  0
  -10.6751  -22.1522  -11.7632 C   0  0  0  0  0  0
  -12.0716  -22.7080  -11.4828 C   0  0  0  0  0  0
  -12.2686  -23.7282  -10.8253 O   0  0  0  0  0  0
  -13.0691  -21.9521  -12.0248 O   0  0  0  0  0  0
  -10.9008  -19.7136  -11.1473 N   0  0  0  0  0  0
  -10.6613  -18.4860  -10.6250 C   0  0  0  0  0  0
   -9.7334  -18.2547   -9.8507 O   0  0  0  0  0  0
  -11.6290  -17.3648  -11.0310 C   0  0  0  0  0  0
  -11.2626  -16.1099  -10.4207 O   0  0  0  0  0  0
  -11.7606  -15.7156   -9.1886 C   0  0  0  0  0  0
  -12.6691  -16.4612   -8.4258 C   0  0  0  0  0  0
  -13.2177  -15.9306   -7.2668 C   0  0  0  0  0  0
  -12.8212  -14.6719   -6.8229 C   0  0  0  0  0  0
  -11.8705  -13.9449   -7.5304 C   0  0  0  0  0  0
  -11.3375  -14.4745   -8.7021 C   0  0  0  0  0  0
   -5.8670  -19.2043  -13.9907 O   0  0  0  0  0  0
   -3.4682  -13.9244   -9.0330 H   0  0  0  0  0  0
   -5.1324  -16.1289  -12.6649 H   0  0  0  0  0  0
   -6.4957  -19.4581  -10.7223 H   0  0  0  0  0  0
  -10.5758  -21.2552   -9.8017 H   0  0  0  0  0  0
   -6.2896  -12.9515   -6.7593 H   0  0  0  0  0  0
   -4.5856  -12.7067   -6.4217 H   0  0  0  0  0  0
   -5.2316  -12.3316   -8.0209 H   0  0  0  0  0  0
   -5.8031  -14.7309   -8.3656 H   0  0  0  0  0  0
   -5.1607  -15.1633   -6.8125 H   0  0  0  0  0  0
   -2.6064  -15.2633   -6.4231 H   0  0  0  0  0  0
   -1.5192  -14.7087   -7.6924 H   0  0  0  0  0  0
   -2.4870  -13.5470   -6.8163 H   0  0  0  0  0  0
   -3.8753  -16.8795   -8.3709 H   0  0  0  0  0  0
   -2.4661  -16.3059   -9.2037 H   0  0  0  0  0  0
   -3.6536  -15.7089  -11.0966 H   0  0  0  0  0  0
   -7.6444  -15.1512  -11.1999 H   0  0  0  0  0  0
   -7.0647  -14.8604  -14.1683 H   0  0  0  0  0  0
   -8.4377  -15.6638  -13.4144 H   0  0  0  0  0  0
   -8.2681  -13.9301  -13.2876 H   0  0  0  0  0  0
   -5.3034  -13.5998  -12.4005 H   0  0  0  0  0  0
   -6.7914  -12.8637  -11.8209 H   0  0  0  0  0  0
   -5.7373  -13.6960  -10.6950 H   0  0  0  0  0  0
   -7.6560  -17.6475  -12.2218 H   0  0  0  0  0  0
   -4.8853  -18.6035  -12.3672 H   0  0  0  0  0  0
   -6.1672  -22.0204  -11.2945 H   0  0  0  0  0  0
   -5.3395  -21.4602  -12.6872 H   0  0  0  0  0  0
   -3.6135  -20.3679  -11.2787 H   0  0  0  0  0  0
   -5.0073  -19.6859   -9.2808 H   0  0  0  0  0  0
   -5.2158  -21.3486   -8.8672 H   0  0  0  0  0  0
   -2.5707  -19.8004   -8.9703 H   0  0  0  0  0  0
   -3.4016  -20.3089   -7.5230 H   0  0  0  0  0  0
   -1.4793  -21.8352   -8.1194 H   0  0  0  0  0  0
   -3.0004  -22.6753   -8.0267 H   0  0  0  0  0  0
   -1.5573  -21.8250  -10.5855 H   0  0  0  0  0  0
   -1.8350  -23.4520  -10.0207 H   0  0  0  0  0  0
   -4.2639  -23.2247  -10.3935 H   0  0  0  0  0  0
   -3.4245  -22.8035  -11.8446 H   0  0  0  0  0  0
   -8.0520  -20.9573  -12.8322 H   0  0  0  0  0  0
   -8.5343  -19.3785  -12.2784 H   0  0  0  0  0  0
  -10.5859  -21.8945  -12.8168 H   0  0  0  0  0  0
  -10.0170  -23.0120  -11.6231 H   0  0  0  0  0  0
  -13.9339  -22.3408  -11.8699 H   0  0  0  0  0  0
  -11.7518  -19.8144  -11.6804 H   0  0  0  0  0  0
  -12.6646  -17.6539  -10.8456 H   0  0  0  0  0  0
  -11.5453  -17.2577  -12.1125 H   0  0  0  0  0  0
  -13.0146  -17.4251   -8.7566 H   0  0  0  0  0  0
  -13.9618  -16.4973   -6.7262 H   0  0  0  0  0  0
  -13.2472  -14.2562   -5.9202 H   0  0  0  0  0  0
  -11.5546  -12.9746   -7.1773 H   0  0  0  0  0  0
  -10.5983  -13.8996   -9.2344 H   0  0  0  0  0  0
   -6.3375  -18.5409  -14.5183 H   0  0  0  0  0  0
  1  2  1  0  0  0
  1 47  1  0  0  0
  1 48  1  0  0  0
  1 49  1  0  0  0
  2  3  1  0  0  0
  2 50  1  0  0  0
  2 51  1  0  0  0
  3 43  1  0  0  0
  3  4  1  0  0  0
  3  5  1  0  0  0
  4 52  1  0  0  0
  4 53  1  0  0  0
  4 54  1  0  0  0
  5  6  1  0  0  0
  5 55  1  0  0  0
  5 56  1  0  0  0
  6  7  1  0  0  0
  6 57  1  0  0  0
  7  8  2  0  0  0
  7  9  1  0  0  0
  9 44  1  0  0  0
  9 10  1  0  0  0
  9 13  1  0  0  0
 10 11  1  0  0  0
 10 12  1  0  0  0
 10 58  1  0  0  0
 11 59  1  0  0  0
 11 60  1  0  0  0
 11 61  1  0  0  0
 12 62  1  0  0  0
 12 63  1  0  0  0
 12 64  1  0  0  0
 13 14  1  0  0  0
 13 65  1  0  0  0
 14 15  1  0  0  0
 14 42  1  0  0  0
 14 66  1  0  0  0
 15 45  1  0  0  0
 15 16  1  0  0  0
 15 23  1  0  0  0
 16 17  1  0  0  0
 16 67  1  0  0  0
 16 68  1  0  0  0
 17 22  1  0  0  0
 17 18  1  0  0  0
 17 69  1  0  0  0
 18 19  1  0  0  0
 18 70  1  0  0  0
 18 71  1  0  0  0
 19 20  1  0  0  0
 19 72  1  0  0  0
 19 73  1  0  0  0
 20 21  1  0  0  0
 20 74  1  0  0  0
 20 75  1  0  0  0
 21 22  1  0  0  0
 21 76  1  0  0  0
 21 77  1  0  0  0
 22 78  1  0  0  0
 22 79  1  0  0  0
 23 24  1  0  0  0
 23 80  1  0  0  0
 23 81  1  0  0  0
 24 25  2  0  0  0
 24 26  1  0  0  0
 26 46  1  0  0  0
 26 27  1  0  0  0
 26 31  1  0  0  0
 27 28  1  0  0  0
 27 82  1  0  0  0
 27 83  1  0  0  0
 28 29  2  0  0  0
 28 30  1  0  0  0
 30 84  1  0  0  0
 31 32  1  0  0  0
 31 85  1  0  0  0
 32 33  2  0  0  0
 32 34  1  0  0  0
 34 35  1  0  0  0
 34 86  1  0  0  0
 34 87  1  0  0  0
 35 36  1  0  0  0
 36 41  1  0  0  0
 36 37  2  0  0  0
 37 38  1  0  0  0
 37 88  1  0  0  0
 38 39  2  0  0  0
 38 89  1  0  0  0
 39 40  1  0  0  0
 39 90  1  0  0  0
 40 41  2  0  0  0
 40 91  1  0  0  0
 41 92  1  0  0  0
 42 93  1  0  0  0
M  END
> <s_m_entry_id>
27494

> <s_m_entry_name>
ligand_docking-pose.48

> <s_m_Source_Path>
/home/csk/Desktop/cluster/DUD-E-result/reni

> <s_m_Source_File>
ligand_docking-pose.sdf

> <i_m_Source_File_Index>
48

> <i_lp_mmshare_version>
53161

> <i_f3d_flags>
0

> <r_lp_tautomer_probability>
0.999999960000001

> <s_lp_Force_Field>
OPLS_2005

> <r_lp_Energy>
27.617059

> <b_lp_Chiralities_Consistent>
1

> <s_lp_Variant>
36883-2

> <s_i_glide_gridfile>
glide-grid_3g6z

> <i_i_glide_lignum>
622

> <i_i_glide_rotatable_bonds>
23

> <r_i_docking_score>
-7.74777645085386

> <r_i_glide_ligand_efficiency>
-0.184470867877473

> <r_i_glide_ligand_efficiency_sa>
-0.641225651148527

> <r_i_glide_ligand_efficiency_ln>
-1.63535600307671

> <r_i_glide_gscore>
-7.74777645085386

> <r_i_glide_lipo>
-3.70726824401097

> <r_i_glide_hbond>
-0.438259525822596

> <r_i_glide_metal>
0

> <r_i_glide_rewards>
-0.995224699111939

> <r_i_glide_evdw>
-46.3519172668457

> <r_i_glide_ecoul>
-7.72956466674805

> <r_i_glide_erotb>
0.915729490185594

> <r_i_glide_esite>
-0.0457229087394477

> <r_i_glide_emodel>
-63.7473945814628

> <r_i_glide_energy>
-54.0814819335938

> <r_i_glide_einternal>
23.5373229980469

> <i_i_glide_confnum>
83

> <i_i_glide_posenum>
178

> <r_i_glide_eff_state_penalty>
0

> <s_user_duplicate_titles>
36883

> <s_m_subgroup_title>
dock_pv

> <s_m_subgroupid>
dock_pv1

> <b_m_subgroup_collapsed>
0

$$$$
72730
                    3D
 Schrodinger Suite 2021-1.
 87 89  0  0  1  0            999 V2000
  -11.7169  -22.6445  -11.2199 C   0  0  0  0  0  0
  -12.4244  -21.2894  -11.0394 C   0  0  0  0  0  0
  -13.6840  -21.2296  -11.9287 C   0  0  0  0  0  0
  -11.3981  -20.1215  -11.1741 C   0  0  0  0  0  0
  -11.9485  -18.6698  -11.2251 C   0  0  1  0  0  0
  -10.8995  -17.5216  -11.1002 C   0  0  1  0  0  0
  -10.2868  -17.2927   -9.6792 C   0  0  2  0  0  0
  -11.2951  -16.9807   -8.5266 C   0  0  0  0  0  0
  -11.6122  -15.5040   -8.1691 C   0  0  0  0  0  0
  -12.4355  -14.7704   -9.2445 C   0  0  0  0  0  0
  -12.6336  -13.2836   -8.8779 C   0  0  0  0  0  0
  -13.3460  -13.1389   -7.5221 C   0  0  0  0  0  0
  -12.6812  -13.9836   -6.4198 C   0  0  0  0  0  0
  -12.4127  -15.4355   -6.8517 C   0  0  0  0  0  0
   -9.2182  -16.2921   -9.7407 N   0  0  0  0  0  0
   -8.1489  -16.2202   -8.9361 C   0  0  0  0  0  0
   -7.9245  -17.0137   -8.0213 O   0  0  0  0  0  0
   -7.1610  -15.0791   -9.2537 C   0  0  1  0  0  0
   -7.0651  -14.0517   -8.1104 C   0  0  0  0  0  0
   -5.8604  -15.7103   -9.5817 N   0  0  2  0  0  0
   -5.4309  -15.4917  -10.9889 C   0  0  1  0  0  0
   -5.0573  -14.0175  -11.3377 C   0  0  0  0  0  0
   -3.8501  -13.3470  -10.6787 C   0  0  0  0  0  0
   -3.0736  -12.4376  -11.4281 C   0  0  0  0  0  0
   -2.0530  -11.7202  -10.8169 C   0  0  0  0  0  0
   -1.7959  -11.8727   -9.4612 C   0  0  0  0  0  0
   -2.5691  -12.7369   -8.7005 C   0  0  0  0  0  0
   -3.5965  -13.4589   -9.2919 C   0  0  0  0  0  0
   -4.2663  -16.4804  -11.3059 C   0  0  0  0  0  0
   -3.3138  -16.5281  -10.5216 O   0  0  0  0  0  0
   -4.3202  -17.2646  -12.4209 N   0  0  0  0  0  0
   -3.2711  -18.2702  -12.6724 C   0  0  0  0  0  0
   -3.9097  -19.6544  -12.4063 C   0  0  0  0  0  0
   -5.0702  -19.8282  -13.2218 O   0  0  0  0  0  0
   -6.0746  -18.8326  -12.9971 C   0  0  0  0  0  0
   -5.4928  -17.4342  -13.3017 C   0  0  0  0  0  0
   -9.8350  -17.7581  -12.0209 O   0  0  0  0  0  0
  -12.6755  -18.4514  -12.4210 O   0  0  0  0  0  0
  -12.6688  -18.5776  -10.4212 H   0  0  0  0  0  0
  -11.3825  -16.5909  -11.3932 H   0  0  0  0  0  0
   -9.8047  -18.2420   -9.4289 H   0  0  0  0  0  0
   -6.2846  -15.7408  -11.6142 H   0  0  0  0  0  0
  -11.3225  -22.7563  -12.2306 H   0  0  0  0  0  0
  -10.8816  -22.7507  -10.5267 H   0  0  0  0  0  0
  -12.3973  -23.4769  -11.0377 H   0  0  0  0  0  0
  -12.8024  -21.2629  -10.0213 H   0  0  0  0  0  0
  -13.4691  -21.2533  -12.9947 H   0  0  0  0  0  0
  -14.3402  -22.0754  -11.7229 H   0  0  0  0  0  0
  -14.2703  -20.3376  -11.7215 H   0  0  0  0  0  0
  -10.7431  -20.2969  -12.0210 H   0  0  0  0  0  0
  -10.7291  -20.1921  -10.3159 H   0  0  0  0  0  0
  -10.8731  -17.4322   -7.6271 H   0  0  0  0  0  0
  -12.2373  -17.4986   -8.6843 H   0  0  0  0  0  0
  -10.6796  -14.9593   -8.0212 H   0  0  0  0  0  0
  -13.3988  -15.2634   -9.3741 H   0  0  0  0  0  0
  -11.9407  -14.8620  -10.2052 H   0  0  0  0  0  0
  -13.1961  -12.7715   -9.6593 H   0  0  0  0  0  0
  -11.6640  -12.7864   -8.8208 H   0  0  0  0  0  0
  -14.3832  -13.4514   -7.6212 H   0  0  0  0  0  0
  -13.3763  -12.0892   -7.2257 H   0  0  0  0  0  0
  -13.3335  -13.9984   -5.5487 H   0  0  0  0  0  0
  -11.7460  -13.5111   -6.1087 H   0  0  0  0  0  0
  -11.8685  -15.9534   -6.0615 H   0  0  0  0  0  0
  -13.3518  -15.9854   -6.9534 H   0  0  0  0  0  0
   -9.2704  -15.6496  -10.5169 H   0  0  0  0  0  0
   -7.5715  -14.5283  -10.1053 H   0  0  0  0  0  0
   -8.0413  -13.6258   -7.8721 H   0  0  0  0  0  0
   -6.6626  -14.4972   -7.1998 H   0  0  0  0  0  0
   -6.4164  -13.2218   -8.3913 H   0  0  0  0  0  0
   -5.9735  -16.7051   -9.4393 H   0  0  0  0  0  0
   -4.9042  -13.9689  -12.4182 H   0  0  0  0  0  0
   -5.9115  -13.3676  -11.1491 H   0  0  0  0  0  0
   -3.2653  -12.2962  -12.4820 H   0  0  0  0  0  0
   -1.4554  -11.0371  -11.4009 H   0  0  0  0  0  0
   -0.9954  -11.3147   -8.9991 H   0  0  0  0  0  0
   -2.3756  -12.8456   -7.6437 H   0  0  0  0  0  0
   -4.1914  -14.1067   -8.6686 H   0  0  0  0  0  0
   -3.0623  -18.1801  -13.7387 H   0  0  0  0  0  0
   -2.3162  -18.0818  -12.1789 H   0  0  0  0  0  0
   -4.1661  -19.7688  -11.3518 H   0  0  0  0  0  0
   -3.1916  -20.4454  -12.6255 H   0  0  0  0  0  0
   -6.4463  -18.8785  -11.9711 H   0  0  0  0  0  0
   -6.9459  -19.0296  -13.6203 H   0  0  0  0  0  0
   -6.1915  -16.6077  -13.4296 H   0  0  0  0  0  0
   -5.0628  -17.4800  -14.3038 H   0  0  0  0  0  0
  -10.1304  -17.6642  -12.9333 H   0  0  0  0  0  0
  -12.0690  -18.4635  -13.1773 H   0  0  0  0  0  0
  1  2  1  0  0  0
  1 43  1  0  0  0
  1 44  1  0  0  0
  1 45  1  0  0  0
  2  3  1  0  0  0
  2  4  1  0  0  0
  2 46  1  0  0  0
  3 47  1  0  0  0
  3 48  1  0  0  0
  3 49  1  0  0  0
  4  5  1  0  0  0
  4 50  1  0  0  0
  4 51  1  0  0  0
  5 39  1  0  0  0
  5  6  1  0  0  0
  5 38  1  0  0  0
  6 40  1  0  0  0
  6  7  1  0  0  0
  6 37  1  0  0  0
  7 41  1  0  0  0
  7  8  1  0  0  0
  7 15  1  0  0  0
  8  9  1  0  0  0
  8 52  1  0  0  0
  8 53  1  0  0  0
  9 14  1  0  0  0
  9 10  1  0  0  0
  9 54  1  0  0  0
 10 11  1  0  0  0
 10 55  1  0  0  0
 10 56  1  0  0  0
 11 12  1  0  0  0
 11 57  1  0  0  0
 11 58  1  0  0  0
 12 13  1  0  0  0
 12 59  1  0  0  0
 12 60  1  0  0  0
 13 14  1  0  0  0
 13 61  1  0  0  0
 13 62  1  0  0  0
 14 63  1  0  0  0
 14 64  1  0  0  0
 15 16  1  0  0  0
 15 65  1  0  0  0
 16 17  2  0  0  0
 16 18  1  0  0  0
 18 19  1  0  0  0
 18 20  1  0  0  0
 18 66  1  0  0  0
 19 67  1  0  0  0
 19 68  1  0  0  0
 19 69  1  0  0  0
 20 21  1  0  0  0
 20 70  1  0  0  0
 21 42  1  0  0  0
 21 22  1  0  0  0
 21 29  1  0  0  0
 22 23  1  0  0  0
 22 71  1  0  0  0
 22 72  1  0  0  0
 23 28  1  0  0  0
 23 24  2  0  0  0
 24 25  1  0  0  0
 24 73  1  0  0  0
 25 26  2  0  0  0
 25 74  1  0  0  0
 26 27  1  0  0  0
 26 75  1  0  0  0
 27 28  2  0  0  0
 27 76  1  0  0  0
 28 77  1  0  0  0
 29 30  2  0  0  0
 29 31  1  0  0  0
 31 36  1  0  0  0
 31 32  1  0  0  0
 32 33  1  0  0  0
 32 78  1  0  0  0
 32 79  1  0  0  0
 33 34  1  0  0  0
 33 80  1  0  0  0
 33 81  1  0  0  0
 34 35  1  0  0  0
 35 36  1  0  0  0
 35 82  1  0  0  0
 35 83  1  0  0  0
 36 84  1  0  0  0
 36 85  1  0  0  0
 37 86  1  0  0  0
 38 87  1  0  0  0
M  END
> <s_m_entry_id>
27495

> <s_m_entry_name>
ligand_docking-pose.49

> <s_m_Source_Path>
/home/csk/Desktop/cluster/DUD-E-result/reni

> <s_m_Source_File>
ligand_docking-pose.sdf

> <i_m_Source_File_Index>
49

> <i_lp_mmshare_version>
53161

> <i_f3d_flags>
0

> <r_lp_tautomer_probability>
1

> <s_lp_Force_Field>
OPLS_2005

> <r_lp_Energy>
45.317884

> <b_lp_Chiralities_Consistent>
1

> <s_lp_Variant>
72730-2

> <s_i_glide_gridfile>
glide-grid_3g6z

> <i_i_glide_lignum>
328

> <i_i_glide_rotatable_bonds>
17

> <r_i_docking_score>
-7.7462111709457

> <r_i_glide_ligand_efficiency>
-0.203847662393308

> <r_i_glide_ligand_efficiency_sa>
-0.685330826868776

> <r_i_glide_ligand_efficiency_ln>
-1.67031099890179

> <r_i_glide_gscore>
-7.7462111709457

> <r_i_glide_lipo>
-3.68005816718434

> <r_i_glide_hbond>
-0.289659880936894

> <r_i_glide_metal>
0

> <r_i_glide_rewards>
-0.816813663797258

> <r_i_glide_evdw>
-43.5632438659668

> <r_i_glide_ecoul>
-10.459846496582

> <r_i_glide_erotb>
0.802306621279359

> <r_i_glide_esite>
-0.0148469125209211

> <r_i_glide_emodel>
-71.7910053141665

> <r_i_glide_energy>
-54.0230903625488

> <r_i_glide_einternal>
16.2500305175781

> <i_i_glide_confnum>
371

> <i_i_glide_posenum>
271

> <r_i_glide_eff_state_penalty>
0

> <s_user_duplicate_titles>
72730

> <s_m_subgroup_title>
dock_pv

> <s_m_subgroupid>
dock_pv1

> <b_m_subgroup_collapsed>
0

$$$$
116360
                    3D
 Schrodinger Suite 2021-1.
 94 95  0  0  1  0            999 V2000
   -8.4980  -22.1475  -12.0209 C   0  0  0  0  0  0
   -9.6631  -21.4591  -11.3051 C   0  0  0  0  0  0
   -9.1824  -20.2883  -10.6586 O   0  0  0  0  0  0
   -9.9862  -19.2377  -10.4210 C   0  0  0  0  0  0
  -11.1468  -19.1535  -10.8237 O   0  0  0  0  0  0
   -9.2796  -18.3517   -9.6153 N   0  0  0  0  0  0
   -9.7743  -17.1017   -8.9801 C   0  0  2  0  0  0
  -11.0799  -16.4668   -9.5632 C   0  0  0  0  0  0
  -11.7820  -15.4194   -8.7031 C   0  0  0  0  0  0
  -11.3449  -14.0776   -8.6322 C   0  0  0  0  0  0
  -11.9929  -13.1639   -7.8144 C   0  0  0  0  0  0
  -13.0599  -13.5705   -7.0292 C   0  0  0  0  0  0
  -13.4692  -14.8952   -7.0496 C   0  0  0  0  0  0
  -12.8331  -15.8239   -7.8564 C   0  0  0  0  0  0
   -8.5764  -16.1346   -8.8243 C   0  0  0  0  0  0
   -8.5523  -15.1038   -9.4925 O   0  0  0  0  0  0
   -7.5622  -16.5191   -8.0203 N   0  0  0  0  0  0
   -6.1976  -15.9488   -7.9951 C   0  0  2  0  0  0
   -6.2149  -14.4296   -7.6083 C   0  0  0  0  0  0
   -4.9041  -13.6005   -7.6451 C   0  0  0  0  0  0
   -3.6838  -14.3206   -7.0367 C   0  0  0  0  0  0
   -5.1279  -12.2062   -7.0193 C   0  0  0  0  0  0
   -5.3961  -16.3815   -9.2496 C   0  0  0  0  0  0
   -4.5090  -15.6720   -9.7130 O   0  0  0  0  0  0
   -5.7598  -17.5518   -9.8100 N   0  0  0  0  0  0
   -5.2990  -18.0645  -11.1069 C   0  0  1  0  0  0
   -5.0092  -19.5822  -10.9317 C   0  0  0  0  0  0
   -4.1674  -20.2539  -12.0390 C   0  0  0  0  0  0
   -2.6732  -19.8616  -11.9426 C   0  0  0  0  0  0
   -1.8622  -20.4969  -13.0844 C   0  0  0  0  0  0
   -2.0063  -22.0348  -13.1071 C   0  0  0  0  0  0
   -3.4819  -22.4875  -13.0808 C   0  0  0  0  0  0
   -4.2689  -21.7955  -11.9489 C   0  0  0  0  0  0
   -6.2607  -17.6923  -12.3057 C   0  0  2  0  0  0
   -6.8530  -16.2393  -12.2230 C   0  0  1  0  0  0
   -5.8723  -15.1495  -12.7050 C   0  0  0  0  0  0
   -6.1002  -13.7215  -12.1471 C   0  0  0  0  0  0
   -7.4564  -13.1332  -12.5693 C   0  0  0  0  0  0
   -4.9392  -12.7900  -12.5376 C   0  0  0  0  0  0
   -8.1231  -16.0585  -12.8209 O   0  0  0  0  0  0
   -7.3069  -18.6489  -12.4210 O   0  0  0  0  0  0
   -4.3431  -17.5859  -11.3241 H   0  0  0  0  0  0
   -5.6898  -17.7804  -13.2324 H   0  0  0  0  0  0
   -8.8312  -23.0572  -12.5218 H   0  0  0  0  0  0
   -8.0602  -21.4968  -12.7793 H   0  0  0  0  0  0
   -7.7114  -22.4225  -11.3186 H   0  0  0  0  0  0
  -10.0967  -22.1249  -10.5585 H   0  0  0  0  0  0
  -10.4526  -21.2316  -12.0212 H   0  0  0  0  0  0
   -8.3560  -18.6532   -9.3548 H   0  0  0  0  0  0
  -10.0278  -17.3961   -7.9603 H   0  0  0  0  0  0
  -10.8812  -16.0626  -10.5560 H   0  0  0  0  0  0
  -11.8451  -17.2211   -9.7231 H   0  0  0  0  0  0
  -10.5124  -13.7312   -9.2210 H   0  0  0  0  0  0
  -11.6629  -12.1361   -7.7868 H   0  0  0  0  0  0
  -13.5591  -12.8591   -6.3874 H   0  0  0  0  0  0
  -14.2809  -15.2212   -6.4210 H   0  0  0  0  0  0
  -13.1710  -16.8499   -7.8517 H   0  0  0  0  0  0
   -7.6884  -17.3394   -7.4480 H   0  0  0  0  0  0
   -5.6911  -16.4586   -7.1792 H   0  0  0  0  0  0
   -6.9228  -13.8834   -8.2277 H   0  0  0  0  0  0
   -6.6215  -14.3714   -6.5975 H   0  0  0  0  0  0
   -4.6741  -13.4144   -8.6951 H   0  0  0  0  0  0
   -3.9794  -15.1681   -6.4211 H   0  0  0  0  0  0
   -3.0238  -14.6958   -7.8175 H   0  0  0  0  0  0
   -3.0758  -13.6629   -6.4210 H   0  0  0  0  0  0
   -4.6687  -12.1085   -6.0357 H   0  0  0  0  0  0
   -4.7144  -11.4263   -7.6572 H   0  0  0  0  0  0
   -6.1877  -11.9827   -6.8916 H   0  0  0  0  0  0
   -6.4848  -18.0856   -9.3623 H   0  0  0  0  0  0
   -5.9567  -20.1107  -10.8172 H   0  0  0  0  0  0
   -4.4909  -19.7466   -9.9847 H   0  0  0  0  0  0
   -4.5493  -19.9507  -13.0165 H   0  0  0  0  0  0
   -2.2655  -20.1586  -10.9729 H   0  0  0  0  0  0
   -2.5562  -18.7784  -11.9682 H   0  0  0  0  0  0
   -0.8119  -20.2152  -13.0072 H   0  0  0  0  0  0
   -2.2305  -20.0860  -14.0212 H   0  0  0  0  0  0
   -1.4892  -22.4523  -12.2415 H   0  0  0  0  0  0
   -1.5053  -22.4439  -13.9854 H   0  0  0  0  0  0
   -3.5360  -23.5703  -12.9647 H   0  0  0  0  0  0
   -3.9542  -22.2619  -14.0373 H   0  0  0  0  0  0
   -5.3156  -22.1028  -11.9856 H   0  0  0  0  0  0
   -3.9163  -22.1384  -10.9738 H   0  0  0  0  0  0
   -7.0833  -16.0108  -11.1972 H   0  0  0  0  0  0
   -4.8648  -15.4548  -12.4210 H   0  0  0  0  0  0
   -5.8778  -15.1206  -13.7916 H   0  0  0  0  0  0
   -6.0990  -13.7788  -11.0564 H   0  0  0  0  0  0
   -7.6693  -13.3248  -13.6207 H   0  0  0  0  0  0
   -8.2582  -13.5788  -11.9836 H   0  0  0  0  0  0
   -7.5072  -12.0580  -12.4200 H   0  0  0  0  0  0
   -4.8432  -12.6973  -13.6194 H   0  0  0  0  0  0
   -5.0724  -11.7881  -12.1272 H   0  0  0  0  0  0
   -3.9885  -13.1681  -12.1598 H   0  0  0  0  0  0
   -8.2667  -16.6921  -13.5472 H   0  0  0  0  0  0
   -7.7813  -18.4817  -13.2516 H   0  0  0  0  0  0
  1  2  1  0  0  0
  1 44  1  0  0  0
  1 45  1  0  0  0
  1 46  1  0  0  0
  2  3  1  0  0  0
  2 47  1  0  0  0
  2 48  1  0  0  0
  3  4  1  0  0  0
  4  5  2  0  0  0
  4  6  1  0  0  0
  6  7  1  0  0  0
  6 49  1  0  0  0
  7  8  1  0  0  0
  7 15  1  0  0  0
  7 50  1  0  0  0
  8  9  1  0  0  0
  8 51  1  0  0  0
  8 52  1  0  0  0
  9 14  1  0  0  0
  9 10  2  0  0  0
 10 11  1  0  0  0
 10 53  1  0  0  0
 11 12  2  0  0  0
 11 54  1  0  0  0
 12 13  1  0  0  0
 12 55  1  0  0  0
 13 14  2  0  0  0
 13 56  1  0  0  0
 14 57  1  0  0  0
 15 16  2  0  0  0
 15 17  1  0  0  0
 17 18  1  0  0  0
 17 58  1  0  0  0
 18 19  1  0  0  0
 18 23  1  0  0  0
 18 59  1  0  0  0
 19 20  1  0  0  0
 19 60  1  0  0  0
 19 61  1  0  0  0
 20 21  1  0  0  0
 20 22  1  0  0  0
 20 62  1  0  0  0
 21 63  1  0  0  0
 21 64  1  0  0  0
 21 65  1  0  0  0
 22 66  1  0  0  0
 22 67  1  0  0  0
 22 68  1  0  0  0
 23 24  2  0  0  0
 23 25  1  0  0  0
 25 26  1  0  0  0
 25 69  1  0  0  0
 26 42  1  0  0  0
 26 27  1  0  0  0
 26 34  1  0  0  0
 27 28  1  0  0  0
 27 70  1  0  0  0
 27 71  1  0  0  0
 28 33  1  0  0  0
 28 29  1  0  0  0
 28 72  1  0  0  0
 29 30  1  0  0  0
 29 73  1  0  0  0
 29 74  1  0  0  0
 30 31  1  0  0  0
 30 75  1  0  0  0
 30 76  1  0  0  0
 31 32  1  0  0  0
 31 77  1  0  0  0
 31 78  1  0  0  0
 32 33  1  0  0  0
 32 79  1  0  0  0
 32 80  1  0  0  0
 33 81  1  0  0  0
 33 82  1  0  0  0
 34 43  1  0  0  0
 34 35  1  0  0  0
 34 41  1  0  0  0
 35 36  1  0  0  0
 35 40  1  0  0  0
 35 83  1  0  0  0
 36 37  1  0  0  0
 36 84  1  0  0  0
 36 85  1  0  0  0
 37 38  1  0  0  0
 37 39  1  0  0  0
 37 86  1  0  0  0
 38 87  1  0  0  0
 38 88  1  0  0  0
 38 89  1  0  0  0
 39 90  1  0  0  0
 39 91  1  0  0  0
 39 92  1  0  0  0
 40 93  1  0  0  0
 41 94  1  0  0  0
M  END
> <s_m_entry_id>
27498

> <s_m_entry_name>
ligand_docking-pose.52

> <s_m_Source_Path>
/home/csk/Desktop/cluster/DUD-E-result/reni

> <s_m_Source_File>
ligand_docking-pose.sdf

> <i_m_Source_File_Index>
52

> <i_lp_mmshare_version>
53161

> <i_f3d_flags>
0

> <r_lp_tautomer_probability>
1

> <s_lp_Force_Field>
OPLS_2005

> <r_lp_Energy>
35.696823

> <b_lp_Chiralities_Consistent>
1

> <s_lp_Variant>
116360-5

> <s_i_glide_gridfile>
glide-grid_3g6z

> <i_i_glide_lignum>
767

> <i_i_glide_rotatable_bonds>
22

> <r_i_docking_score>
-7.73235004500455

> <r_i_glide_ligand_efficiency>
-0.188593903536696

> <r_i_glide_ligand_efficiency_sa>
-0.650312748801319

> <r_i_glide_ligand_efficiency_ln>
-1.64044379412893

> <r_i_glide_gscore>
-7.73235004500455

> <r_i_glide_lipo>
-4.44649028498364

> <r_i_glide_hbond>
0

> <r_i_glide_metal>
0

> <r_i_glide_rewards>
-0.909128074631664

> <r_i_glide_evdw>
-42.9699363708496

> <r_i_glide_ecoul>
-7.18193960189819

> <r_i_glide_erotb>
0.849056073437966

> <r_i_glide_esite>
0

> <r_i_glide_emodel>
-62.1602253244673

> <r_i_glide_energy>
-50.1518759727478

> <r_i_glide_einternal>
26.5620555877686

> <i_i_glide_confnum>
46

> <i_i_glide_posenum>
390

> <r_i_glide_eff_state_penalty>
0

> <s_user_duplicate_titles>
116360

> <s_m_subgroup_title>
dock_pv

> <s_m_subgroupid>
dock_pv1

> <b_m_subgroup_collapsed>
0

$$$$
553315
                    3D
 Schrodinger Suite 2021-1.
 87 88  0  0  1  0            999 V2000
   -4.9238  -11.1496   -6.5786 C   0  0  0  0  0  0
   -3.6757  -11.0550   -7.4241 C   0  0  0  0  0  0
   -3.6448  -11.5208   -8.6514 N   0  0  0  0  0  0
   -2.4177  -11.2556   -9.0128 C   0  0  0  0  0  0
   -1.7028  -10.6108   -8.0551 O   0  0  0  0  0  0
   -2.5821  -10.4767   -6.9805 N   0  0  0  0  0  0
   -1.7381  -11.5388  -10.3429 C   0  0  0  0  0  0
   -2.5946  -12.3931  -11.3098 C   0  0  0  0  0  0
   -2.6451  -13.8752  -10.8988 C   0  0  0  0  0  0
   -3.6668  -14.6345  -11.6186 N   0  0  0  0  0  0
   -4.8408  -15.0361  -11.0994 C   0  0  0  0  0  0
   -5.2035  -14.7547   -9.9579 O   0  0  0  0  0  0
   -5.7170  -15.9316  -12.0020 C   0  0  2  0  0  0
   -7.2268  -15.6431  -11.8173 C   0  0  0  0  0  0
   -5.3779  -17.4350  -11.7638 C   0  0  0  0  0  0
   -5.8179  -18.3928  -12.8979 C   0  0  2  0  0  0
   -5.5735  -19.9306  -12.6984 C   0  0  1  0  0  0
   -6.5046  -20.6596  -11.6968 C   0  0  0  0  0  0
   -6.3827  -20.4140  -10.1634 C   0  0  1  0  0  0
   -7.5358  -21.1455   -9.4259 C   0  0  0  0  0  0
   -8.9289  -20.8527   -9.9802 C   0  0  0  0  0  0
   -9.7097  -21.8951  -10.4721 C   0  0  0  0  0  0
  -10.9918  -21.6388  -10.9464 C   0  0  0  0  0  0
  -11.5217  -20.3361  -10.9258 C   0  0  0  0  0  0
  -10.7218  -19.2720  -10.4729 C   0  0  0  0  0  0
   -9.4182  -19.5451  -10.0212 C   0  0  0  0  0  0
  -11.3063  -18.0146  -10.4340 O   0  0  0  0  0  0
  -10.6044  -16.8979   -9.8886 C   0  0  0  0  0  0
  -11.6145  -15.8416   -9.4137 C   0  0  0  0  0  0
  -12.4575  -16.3101   -8.2100 C   0  0  0  0  0  0
  -13.3198  -15.2924   -7.7114 O   0  0  0  0  0  0
  -12.6886  -14.2833   -6.9329 C   0  0  0  0  0  0
  -12.8248  -20.0483  -11.3014 O   0  0  0  0  0  0
  -13.6867  -21.1178  -11.6759 C   0  0  0  0  0  0
   -5.0088  -20.7614   -9.5034 C   0  0  0  0  0  0
   -3.9410  -19.6605   -9.6477 C   0  0  0  0  0  0
   -4.4460  -22.1422   -9.9002 C   0  0  0  0  0  0
   -5.8691  -20.6079  -13.9590 N   0  0  0  0  0  0
   -5.0691  -17.9703  -14.0217 O   0  0  0  0  0  0
   -5.4690  -15.6678  -13.0304 H   0  0  0  0  0  0
   -6.8745  -18.2295  -13.1098 H   0  0  0  0  0  0
   -4.5262  -20.1240  -12.4587 H   0  0  0  0  0  0
   -6.5783  -19.3674   -9.9657 H   0  0  0  0  0  0
   -5.8355  -11.2639   -7.1714 H   0  0  0  0  0  0
   -4.8665  -11.9418   -5.8341 H   0  0  0  0  0  0
   -5.0640  -10.2233   -6.0217 H   0  0  0  0  0  0
   -0.7856  -12.0397  -10.1738 H   0  0  0  0  0  0
   -1.4685  -10.6000  -10.8236 H   0  0  0  0  0  0
   -2.1854  -12.3218  -12.3182 H   0  0  0  0  0  0
   -3.6021  -11.9814  -11.3736 H   0  0  0  0  0  0
   -2.8036  -13.9525   -9.8220 H   0  0  0  0  0  0
   -1.6691  -14.3344  -11.0550 H   0  0  0  0  0  0
   -3.4697  -14.8616  -12.5919 H   0  0  0  0  0  0
   -7.4522  -14.5868  -11.9750 H   0  0  0  0  0  0
   -7.8344  -16.2037  -12.5306 H   0  0  0  0  0  0
   -7.5646  -15.9049  -10.8130 H   0  0  0  0  0  0
   -5.8203  -17.7110  -10.8168 H   0  0  0  0  0  0
   -4.3018  -17.5589  -11.6309 H   0  0  0  0  0  0
   -6.4077  -21.7384  -11.8355 H   0  0  0  0  0  0
   -7.5210  -20.4294  -12.0208 H   0  0  0  0  0  0
   -7.5456  -20.8671   -8.3721 H   0  0  0  0  0  0
   -7.3599  -22.2218   -9.4437 H   0  0  0  0  0  0
   -9.3361  -22.9091  -10.4767 H   0  0  0  0  0  0
  -11.5721  -22.4777  -11.3006 H   0  0  0  0  0  0
   -8.7765  -18.7562   -9.6658 H   0  0  0  0  0  0
   -9.9519  -16.4840  -10.6577 H   0  0  0  0  0  0
   -9.9824  -17.1598   -9.0314 H   0  0  0  0  0  0
  -12.2707  -15.5729  -10.2407 H   0  0  0  0  0  0
  -11.0709  -14.9359   -9.1533 H   0  0  0  0  0  0
  -11.8266  -16.6939   -7.4056 H   0  0  0  0  0  0
  -13.0879  -17.1443   -8.5216 H   0  0  0  0  0  0
  -13.4459  -13.6042   -6.5392 H   0  0  0  0  0  0
  -11.9926  -13.6855   -7.5226 H   0  0  0  0  0  0
  -12.1523  -14.7095   -6.0854 H   0  0  0  0  0  0
  -14.6692  -20.7192  -11.9051 H   0  0  0  0  0  0
  -13.3278  -21.6390  -12.5668 H   0  0  0  0  0  0
  -13.8061  -21.8344  -10.8631 H   0  0  0  0  0  0
   -5.1897  -20.8141   -8.4269 H   0  0  0  0  0  0
   -3.5606  -19.5840  -10.6656 H   0  0  0  0  0  0
   -4.3272  -18.6873   -9.3463 H   0  0  0  0  0  0
   -3.0854  -19.8653   -9.0052 H   0  0  0  0  0  0
   -4.1930  -22.1920  -10.9607 H   0  0  0  0  0  0
   -3.5371  -22.3692   -9.3398 H   0  0  0  0  0  0
   -5.1577  -22.9417   -9.6884 H   0  0  0  0  0  0
   -5.8980  -21.6082  -13.8120 H   0  0  0  0  0  0
   -6.8010  -20.3440  -14.2551 H   0  0  0  0  0  0
   -5.6342  -18.0621  -14.8019 H   0  0  0  0  0  0
  1  2  1  0  0  0
  1 44  1  0  0  0
  1 45  1  0  0  0
  1 46  1  0  0  0
  2  6  2  0  0  0
  2  3  1  0  0  0
  3  4  2  0  0  0
  4  5  1  0  0  0
  4  7  1  0  0  0
  5  6  1  0  0  0
  7  8  1  0  0  0
  7 47  1  0  0  0
  7 48  1  0  0  0
  8  9  1  0  0  0
  8 49  1  0  0  0
  8 50  1  0  0  0
  9 10  1  0  0  0
  9 51  1  0  0  0
  9 52  1  0  0  0
 10 11  1  0  0  0
 10 53  1  0  0  0
 11 12  2  0  0  0
 11 13  1  0  0  0
 13 40  1  0  0  0
 13 14  1  0  0  0
 13 15  1  0  0  0
 14 54  1  0  0  0
 14 55  1  0  0  0
 14 56  1  0  0  0
 15 16  1  0  0  0
 15 57  1  0  0  0
 15 58  1  0  0  0
 16 41  1  0  0  0
 16 17  1  0  0  0
 16 39  1  0  0  0
 17 42  1  0  0  0
 17 18  1  0  0  0
 17 38  1  0  0  0
 18 19  1  0  0  0
 18 59  1  0  0  0
 18 60  1  0  0  0
 19 43  1  0  0  0
 19 20  1  0  0  0
 19 35  1  0  0  0
 20 21  1  0  0  0
 20 61  1  0  0  0
 20 62  1  0  0  0
 21 26  1  0  0  0
 21 22  2  0  0  0
 22 23  1  0  0  0
 22 63  1  0  0  0
 23 24  2  0  0  0
 23 64  1  0  0  0
 24 25  1  0  0  0
 24 33  1  0  0  0
 25 26  2  0  0  0
 25 27  1  0  0  0
 26 65  1  0  0  0
 27 28  1  0  0  0
 28 29  1  0  0  0
 28 66  1  0  0  0
 28 67  1  0  0  0
 29 30  1  0  0  0
 29 68  1  0  0  0
 29 69  1  0  0  0
 30 31  1  0  0  0
 30 70  1  0  0  0
 30 71  1  0  0  0
 31 32  1  0  0  0
 32 72  1  0  0  0
 32 73  1  0  0  0
 32 74  1  0  0  0
 33 34  1  0  0  0
 34 75  1  0  0  0
 34 76  1  0  0  0
 34 77  1  0  0  0
 35 36  1  0  0  0
 35 37  1  0  0  0
 35 78  1  0  0  0
 36 79  1  0  0  0
 36 80  1  0  0  0
 36 81  1  0  0  0
 37 82  1  0  0  0
 37 83  1  0  0  0
 37 84  1  0  0  0
 38 85  1  0  0  0
 38 86  1  0  0  0
 39 87  1  0  0  0
M  END
> <s_m_entry_id>
27499

> <s_m_entry_name>
ligand_docking-pose.53

> <s_m_Source_Path>
/home/csk/Desktop/cluster/DUD-E-result/reni

> <s_m_Source_File>
ligand_docking-pose.sdf

> <i_m_Source_File_Index>
53

> <i_lp_mmshare_version>
53161

> <i_f3d_flags>
0

> <r_lp_tautomer_probability>
1

> <s_lp_Force_Field>
OPLS_2005

> <r_lp_Energy>
36.008757

> <b_lp_Chiralities_Consistent>
1

> <s_lp_Variant>
553315-1

> <s_i_glide_gridfile>
glide-grid_3g6z

> <i_i_glide_lignum>
60

> <i_i_glide_rotatable_bonds>
21

> <r_i_docking_score>
-7.68366509262796

> <r_i_glide_ligand_efficiency>
-0.197017053657127

> <r_i_glide_ligand_efficiency_sa>
-0.668126486015078

> <r_i_glide_ligand_efficiency_ln>
-1.64759590966375

> <r_i_glide_gscore>
-7.68366509262796

> <r_i_glide_lipo>
-2.65058008624785

> <r_i_glide_hbond>
-1.11753732510393

> <r_i_glide_metal>
0

> <r_i_glide_rewards>
-0.426549628287341

> <r_i_glide_evdw>
-41.7082366943359

> <r_i_glide_ecoul>
-16.7819652557373

> <r_i_glide_erotb>
1.1700779315277

> <r_i_glide_esite>
-0.0563693614391514

> <r_i_glide_emodel>
-81.6839051972197

> <r_i_glide_energy>
-58.4902019500732

> <r_i_glide_einternal>
8.15908145904541

> <i_i_glide_confnum>
74

> <i_i_glide_posenum>
354

> <r_i_glide_eff_state_penalty>
0

> <s_user_duplicate_titles>
553315

> <s_m_subgroup_title>
dock_pv

> <s_m_subgroupid>
dock_pv1

> <b_m_subgroup_collapsed>
0

$$$$
480702
                    3D
 Schrodinger Suite 2021-1.
 79 83  0  0  1  0            999 V2000
   -5.2593  -15.7929  -11.1311 C   0  0  0  0  0  0
   -4.7510  -16.6455  -10.0433 N   0  0  0  0  0  0
   -3.9721  -15.9314   -9.0080 C   0  0  0  0  0  0
   -4.5377  -14.6088   -8.4901 C   0  0  0  0  0  0
   -3.7923  -13.4392   -8.6846 C   0  0  0  0  0  0
   -4.2313  -12.2215   -8.1633 C   0  0  0  0  0  0
   -5.4148  -12.1656   -7.4293 C   0  0  0  0  0  0
   -6.1571  -13.3266   -7.2202 C   0  0  0  0  0  0
   -5.7236  -14.5481   -7.7396 C   0  0  0  0  0  0
   -6.6684  -15.9584   -7.4206 Cl  0  0  0  0  0  0
   -4.6848  -18.0079  -10.1081 C   0  0  0  0  0  0
   -4.0560  -18.6766   -9.2851 O   0  0  0  0  0  0
   -5.3399  -18.6943  -11.2089 C   0  0  0  0  0  0
   -6.6889  -18.8211  -11.3393 C   0  0  0  0  0  0
   -7.2797  -19.5738  -12.5303 C   0  0  0  0  0  0
   -6.2346  -20.1469  -13.5226 C   0  0  2  0  0  0
   -5.7453  -21.5899  -13.2025 C   0  0  0  0  0  0
   -4.9755  -21.6545  -11.9560 N   0  0  2  0  0  0
   -3.8934  -20.6599  -11.9727 C   0  0  0  0  0  0
   -4.4078  -19.2242  -12.3082 C   0  0  1  0  0  0
   -5.0691  -19.2628  -13.6210 N   0  0  2  0  0  0
   -7.6871  -18.2931  -10.3961 C   0  0  0  0  0  0
   -8.5432  -17.2672  -10.8065 C   0  0  0  0  0  0
   -9.5699  -16.8396   -9.9723 C   0  0  0  0  0  0
   -9.7443  -17.4401   -8.7193 C   0  0  0  0  0  0
   -8.8932  -18.4631   -8.3218 C   0  0  0  0  0  0
   -7.8666  -18.8958   -9.1520 C   0  0  0  0  0  0
  -10.7313  -17.1182   -7.8184 O   0  0  0  0  0  0
  -11.6965  -16.1411   -8.1610 C   0  0  0  0  0  0
  -12.5184  -15.8925   -6.8936 C   0  0  0  0  0  0
  -13.4105  -14.6568   -6.9871 C   0  0  0  0  0  0
  -12.5768  -13.5626   -7.2999 O   0  0  0  0  0  0
  -13.2425  -12.3691   -7.6691 C   0  0  0  0  0  0
  -12.3133  -11.2166   -7.3332 C   0  0  0  0  0  0
  -12.7196  -10.2519   -6.4210 C   0  0  0  0  0  0
  -11.8674   -9.2140   -6.0335 C   0  0  0  0  0  0
  -10.6020   -9.1196   -6.6106 C   0  0  0  0  0  0
  -10.1944  -10.0658   -7.5509 C   0  0  0  0  0  0
  -11.0437  -11.1225   -7.9029 C   0  0  0  0  0  0
  -10.6692  -12.0649   -8.8210 O   0  0  0  0  0  0
   -9.5551  -12.8632   -8.4624 C   0  0  0  0  0  0
   -6.7142  -20.1552  -14.4982 H   0  0  0  0  0  0
   -3.5479  -18.5580  -12.4096 H   0  0  0  0  0  0
   -5.7989  -16.3356  -11.9062 H   0  0  0  0  0  0
   -5.9454  -15.0433  -10.7336 H   0  0  0  0  0  0
   -4.4335  -15.2671  -11.6122 H   0  0  0  0  0  0
   -3.8568  -16.5638   -8.1242 H   0  0  0  0  0  0
   -2.9543  -15.7838   -9.3719 H   0  0  0  0  0  0
   -2.8652  -13.4701   -9.2403 H   0  0  0  0  0  0
   -3.6479  -11.3263   -8.3227 H   0  0  0  0  0  0
   -5.7545  -11.2267   -7.0195 H   0  0  0  0  0  0
   -7.0687  -13.2796   -6.6460 H   0  0  0  0  0  0
   -7.9732  -20.3425  -12.1902 H   0  0  0  0  0  0
   -7.9334  -18.8698  -13.0297 H   0  0  0  0  0  0
   -6.5795  -22.2930  -13.1804 H   0  0  0  0  0  0
   -5.1096  -21.9502  -14.0129 H   0  0  0  0  0  0
   -4.6116  -22.5847  -11.8032 H   0  0  0  0  0  0
   -3.3848  -20.6744  -11.0086 H   0  0  0  0  0  0
   -3.1414  -20.9675  -12.7022 H   0  0  0  0  0  0
   -5.3818  -18.3354  -13.8864 H   0  0  0  0  0  0
   -8.4322  -16.8177  -11.7843 H   0  0  0  0  0  0
  -10.2302  -16.0631  -10.3215 H   0  0  0  0  0  0
   -9.0688  -18.9315   -7.3665 H   0  0  0  0  0  0
   -7.2274  -19.7094   -8.8385 H   0  0  0  0  0  0
  -12.3331  -16.4885   -8.9771 H   0  0  0  0  0  0
  -11.2005  -15.2248   -8.4812 H   0  0  0  0  0  0
  -11.8419  -15.7639   -6.0468 H   0  0  0  0  0  0
  -13.1240  -16.7752   -6.6820 H   0  0  0  0  0  0
  -13.8691  -14.4632   -6.0206 H   0  0  0  0  0  0
  -14.1935  -14.8037   -7.7310 H   0  0  0  0  0  0
  -14.1932  -12.2599   -7.1410 H   0  0  0  0  0  0
  -13.4656  -12.3839   -8.7362 H   0  0  0  0  0  0
  -13.7110  -10.3228   -6.0060 H   0  0  0  0  0  0
  -12.1970   -8.4706   -5.3219 H   0  0  0  0  0  0
   -9.9453   -8.3046   -6.3443 H   0  0  0  0  0  0
   -9.2249   -9.9714   -8.0179 H   0  0  0  0  0  0
   -9.2881  -13.5195   -9.2896 H   0  0  0  0  0  0
   -8.6736  -12.2782   -8.1974 H   0  0  0  0  0  0
   -9.8317  -13.4877   -7.6210 H   0  0  0  0  0  0
  1  2  1  0  0  0
  1 44  1  0  0  0
  1 45  1  0  0  0
  1 46  1  0  0  0
  2  3  1  0  0  0
  2 11  1  0  0  0
  3  4  1  0  0  0
  3 47  1  0  0  0
  3 48  1  0  0  0
  4  9  1  0  0  0
  4  5  2  0  0  0
  5  6  1  0  0  0
  5 49  1  0  0  0
  6  7  2  0  0  0
  6 50  1  0  0  0
  7  8  1  0  0  0
  7 51  1  0  0  0
  8  9  2  0  0  0
  8 52  1  0  0  0
  9 10  1  0  0  0
 11 12  2  0  0  0
 11 13  1  0  0  0
 13 20  1  0  0  0
 13 14  2  0  0  0
 14 15  1  0  0  0
 14 22  1  0  0  0
 15 16  1  0  0  0
 15 53  1  0  0  0
 15 54  1  0  0  0
 16 42  1  0  0  0
 16 21  1  0  0  0
 16 17  1  0  0  0
 17 18  1  0  0  0
 17 55  1  0  0  0
 17 56  1  0  0  0
 18 19  1  0  0  0
 18 57  1  0  0  0
 19 20  1  0  0  0
 19 58  1  0  0  0
 19 59  1  0  0  0
 20 43  1  0  0  0
 20 21  1  0  0  0
 21 60  1  0  0  0
 22 27  1  0  0  0
 22 23  2  0  0  0
 23 24  1  0  0  0
 23 61  1  0  0  0
 24 25  2  0  0  0
 24 62  1  0  0  0
 25 26  1  0  0  0
 25 28  1  0  0  0
 26 27  2  0  0  0
 26 63  1  0  0  0
 27 64  1  0  0  0
 28 29  1  0  0  0
 29 30  1  0  0  0
 29 65  1  0  0  0
 29 66  1  0  0  0
 30 31  1  0  0  0
 30 67  1  0  0  0
 30 68  1  0  0  0
 31 32  1  0  0  0
 31 69  1  0  0  0
 31 70  1  0  0  0
 32 33  1  0  0  0
 33 34  1  0  0  0
 33 71  1  0  0  0
 33 72  1  0  0  0
 34 39  1  0  0  0
 34 35  2  0  0  0
 35 36  1  0  0  0
 35 73  1  0  0  0
 36 37  2  0  0  0
 36 74  1  0  0  0
 37 38  1  0  0  0
 37 75  1  0  0  0
 38 39  2  0  0  0
 38 76  1  0  0  0
 39 40  1  0  0  0
 40 41  1  0  0  0
 41 77  1  0  0  0
 41 78  1  0  0  0
 41 79  1  0  0  0
M  END
> <s_m_entry_id>
27500

> <s_m_entry_name>
ligand_docking-pose.54

> <s_m_Source_Path>
/home/csk/Desktop/cluster/DUD-E-result/reni

> <s_m_Source_File>
ligand_docking-pose.sdf

> <i_m_Source_File_Index>
54

> <i_lp_mmshare_version>
53161

> <i_f3d_flags>
0

> <r_lp_tautomer_probability>
1

> <s_lp_Force_Field>
OPLS_2005

> <r_lp_Energy>
75.907391

> <b_lp_Chiralities_Consistent>
1

> <s_lp_Variant>
480702-1

> <s_i_glide_gridfile>
glide-grid_3g6z

> <i_i_glide_lignum>
799

> <i_i_glide_rotatable_bonds>
13

> <r_i_docking_score>
-7.68256512882991

> <r_i_glide_ligand_efficiency>
-0.187379637288534

> <r_i_glide_ligand_efficiency_sa>
-0.646125694995175

> <r_i_glide_ligand_efficiency_ln>
-1.62988175848587

> <r_i_glide_gscore>
-7.68256512882991

> <r_i_glide_lipo>
-4.54627407126828

> <r_i_glide_hbond>
-0.32

> <r_i_glide_metal>
0

> <r_i_glide_rewards>
-0.0773461325137774

> <r_i_glide_evdw>
-44.7739906311035

> <r_i_glide_ecoul>
-7.30893754959106

> <r_i_glide_erotb>
0.596095238945982

> <r_i_glide_esite>
0

> <r_i_glide_emodel>
-62.2106282686189

> <r_i_glide_energy>
-52.0829281806946

> <r_i_glide_einternal>
14.5221967697144

> <i_i_glide_confnum>
29

> <i_i_glide_posenum>
35

> <r_i_glide_eff_state_penalty>
0

> <s_user_duplicate_titles>
480702

> <s_m_subgroup_title>
dock_pv

> <s_m_subgroupid>
dock_pv1

> <b_m_subgroup_collapsed>
0

$$$$
405777
                    3D
 Schrodinger Suite 2021-1.
 59 62  0  0  1  0            999 V2000
   -4.4106  -10.4569   -6.8944 C   0  0  0  0  0  0
   -4.8067  -11.8252   -7.4883 C   0  0  0  0  0  0
   -3.9737  -12.3317   -8.6780 C   0  0  0  0  0  0
   -4.3156  -13.5063   -9.3875 C   0  0  0  0  0  0
   -3.4619  -13.8387  -10.4612 C   0  0  0  0  0  0
   -2.4055  -13.0846  -10.8234 N   0  0  0  0  0  0
   -2.1648  -11.9938  -10.0745 C   0  0  0  0  0  0
   -2.8921  -11.5720   -9.0164 N   0  0  0  0  0  0
   -1.0450  -11.2629  -10.4207 N   0  0  0  0  0  0
   -3.6278  -14.9916  -11.2213 N   0  0  0  0  0  0
   -5.4896  -14.3574   -9.0361 C   0  0  0  0  0  0
   -5.5925  -14.9381   -7.7696 C   0  0  0  0  0  0
   -6.6688  -15.7595   -7.4527 C   0  0  0  0  0  0
   -7.6336  -16.0411   -8.4179 C   0  0  0  0  0  0
   -7.5257  -15.5387   -9.7171 C   0  0  0  0  0  0
   -6.4743  -14.6473   -9.9907 C   0  0  0  0  0  0
   -8.4483  -16.0074  -10.6887 N   0  0  0  0  0  0
   -9.6240  -16.6405  -10.3993 C   0  0  0  0  0  0
  -10.4211  -17.1025  -11.2184 O   0  0  0  0  0  0
   -9.8792  -16.7577   -8.8701 C   0  0  1  0  0  0
   -8.6899  -16.8512   -8.0532 O   0  0  0  0  0  0
  -10.9476  -15.7288   -8.4219 C   0  0  0  0  0  0
  -12.2045  -16.2048   -8.0180 C   0  0  0  0  0  0
  -13.2137  -15.3307   -7.6122 C   0  0  0  0  0  0
  -12.9876  -13.9581   -7.6103 C   0  0  0  0  0  0
  -11.7522  -13.4606   -8.0168 C   0  0  0  0  0  0
  -10.7372  -14.3328   -8.4211 C   0  0  0  0  0  0
   -9.5614  -13.7994   -8.8209 F   0  0  0  0  0  0
  -11.5415  -12.1246   -8.0245 F   0  0  0  0  0  0
   -8.1300  -15.7886  -12.1227 C   0  0  0  0  0  0
   -6.8090  -16.4284  -12.6061 C   0  0  0  0  0  0
   -6.6594  -17.9255  -12.2715 C   0  0  0  0  0  0
   -5.3377  -18.3774  -12.5384 O   0  0  0  0  0  0
   -5.0189  -18.4635  -13.9159 C   0  0  0  0  0  0
   -5.0684  -10.1807   -6.0714 H   0  0  0  0  0  0
   -3.3931  -10.4734   -6.5041 H   0  0  0  0  0  0
   -4.4671   -9.6636   -7.6438 H   0  0  0  0  0  0
   -5.8523  -11.7895   -7.7963 H   0  0  0  0  0  0
   -4.7471  -12.5589   -6.6872 H   0  0  0  0  0  0
   -0.6861  -10.6080   -9.7480 H   0  0  0  0  0  0
   -0.4322  -11.7238  -11.0862 H   0  0  0  0  0  0
   -4.4017  -15.6071  -11.0186 H   0  0  0  0  0  0
   -3.1264  -15.0532  -12.0987 H   0  0  0  0  0  0
   -4.8289  -14.7669   -7.0234 H   0  0  0  0  0  0
   -6.7500  -16.1838   -6.4641 H   0  0  0  0  0  0
   -6.3897  -14.1868  -10.9634 H   0  0  0  0  0  0
  -10.3303  -17.7441   -8.7661 H   0  0  0  0  0  0
  -12.4163  -17.2625   -8.0303 H   0  0  0  0  0  0
  -14.1751  -15.7210   -7.3040 H   0  0  0  0  0  0
  -13.7671  -13.2800   -7.2924 H   0  0  0  0  0  0
   -8.1543  -14.7181  -12.3293 H   0  0  0  0  0  0
   -8.9126  -16.2044  -12.7578 H   0  0  0  0  0  0
   -5.9497  -15.8988  -12.2123 H   0  0  0  0  0  0
   -6.7368  -16.2756  -13.6801 H   0  0  0  0  0  0
   -7.4005  -18.5307  -12.7943 H   0  0  0  0  0  0
   -6.8261  -18.0910  -11.2078 H   0  0  0  0  0  0
   -3.9987  -18.8320  -14.0135 H   0  0  0  0  0  0
   -5.0690  -17.5025  -14.4214 H   0  0  0  0  0  0
   -5.6891  -19.1597  -14.4217 H   0  0  0  0  0  0
  1  2  1  0  0  0
  1 35  1  0  0  0
  1 36  1  0  0  0
  1 37  1  0  0  0
  2  3  1  0  0  0
  2 38  1  0  0  0
  2 39  1  0  0  0
  3  8  1  0  0  0
  3  4  2  0  0  0
  4  5  1  0  0  0
  4 11  1  0  0  0
  5  6  2  0  0  0
  5 10  1  0  0  0
  6  7  1  0  0  0
  7  8  2  0  0  0
  7  9  1  0  0  0
  9 40  1  0  0  0
  9 41  1  0  0  0
 10 42  1  0  0  0
 10 43  1  0  0  0
 11 16  1  0  0  0
 11 12  2  0  0  0
 12 13  1  0  0  0
 12 44  1  0  0  0
 13 14  2  0  0  0
 13 45  1  0  0  0
 14 21  1  0  0  0
 14 15  1  0  0  0
 15 16  2  0  0  0
 15 17  1  0  0  0
 16 46  1  0  0  0
 17 18  1  0  0  0
 17 30  1  0  0  0
 18 19  2  0  0  0
 18 20  1  0  0  0
 20 21  1  0  0  0
 20 22  1  0  0  0
 20 47  1  0  0  0
 22 27  1  0  0  0
 22 23  2  0  0  0
 23 24  1  0  0  0
 23 48  1  0  0  0
 24 25  2  0  0  0
 24 49  1  0  0  0
 25 26  1  0  0  0
 25 50  1  0  0  0
 26 27  2  0  0  0
 26 29  1  0  0  0
 27 28  1  0  0  0
 30 31  1  0  0  0
 30 51  1  0  0  0
 30 52  1  0  0  0
 31 32  1  0  0  0
 31 53  1  0  0  0
 31 54  1  0  0  0
 32 33  1  0  0  0
 32 55  1  0  0  0
 32 56  1  0  0  0
 33 34  1  0  0  0
 34 57  1  0  0  0
 34 58  1  0  0  0
 34 59  1  0  0  0
M  END
> <s_m_entry_id>
27501

> <s_m_entry_name>
ligand_docking-pose.55

> <s_m_Source_Path>
/home/csk/Desktop/cluster/DUD-E-result/reni

> <s_m_Source_File>
ligand_docking-pose.sdf

> <i_m_Source_File_Index>
55

> <i_lp_mmshare_version>
53161

> <i_f3d_flags>
0

> <r_lp_tautomer_probability>
0.999999624730965

> <s_lp_Force_Field>
OPLS_2005

> <r_lp_Energy>
29.540982

> <b_lp_Chiralities_Consistent>
1

> <s_lp_Variant>
405777-1

> <s_i_glide_gridfile>
glide-grid_3g6z

> <i_i_glide_lignum>
81

> <i_i_glide_rotatable_bonds>
7

> <r_i_docking_score>
-7.67844558546443

> <r_i_glide_ligand_efficiency>
-0.225836634866601

> <r_i_glide_ligand_efficiency_sa>
-0.731623026614645

> <r_i_glide_ligand_efficiency_ln>
-1.69638400293259

> <r_i_glide_gscore>
-7.67844558546443

> <r_i_glide_lipo>
-3.42410224829179

> <r_i_glide_hbond>
-0.471155532258376

> <r_i_glide_metal>
0

> <r_i_glide_rewards>
-1.6691263413237

> <r_i_glide_evdw>
-42.8017311096191

> <r_i_glide_ecoul>
-2.35131669044495

> <r_i_glide_erotb>
0.458177853381305

> <r_i_glide_esite>
-0.0794552579241652

> <r_i_glide_emodel>
-62.1273843227875

> <r_i_glide_energy>
-45.1530478000641

> <r_i_glide_einternal>
5.90682506561279

> <i_i_glide_confnum>
83

> <i_i_glide_posenum>
20

> <r_i_glide_eff_state_penalty>
0

> <s_user_duplicate_titles>
405777

> <s_m_subgroup_title>
dock_pv

> <s_m_subgroupid>
dock_pv1

> <b_m_subgroup_collapsed>
0

$$$$
552443
                    3D
 Schrodinger Suite 2021-1.
 90 91  0  0  1  0            999 V2000
   -5.7846  -13.2673  -12.8212 C   0  0  0  0  0  0
   -7.2317  -13.5512  -12.4014 C   0  0  0  0  0  0
   -7.3478  -14.7394  -11.4301 C   0  0  0  0  0  0
   -7.4425  -16.1647  -12.0745 C   0  0  1  0  0  0
   -6.2866  -17.1082  -11.6502 C   0  0  0  0  0  0
   -6.5223  -18.2581  -11.2744 O   0  0  0  0  0  0
   -5.0403  -16.5911  -11.6980 N   0  0  0  0  0  0
   -3.7959  -17.1960  -11.1634 C   0  0  1  0  0  0
   -3.8003  -17.3184   -9.5982 C   0  0  0  0  0  0
   -4.1226  -16.0550   -8.7383 C   0  0  0  0  0  0
   -3.6140  -14.7151   -9.3270 C   0  0  0  0  0  0
   -3.9091  -13.5106   -8.4096 C   0  0  0  0  0  0
   -5.4001  -13.4280   -8.0360 C   0  0  0  0  0  0
   -5.9027  -14.7356   -7.3996 C   0  0  0  0  0  0
   -5.6001  -15.9673   -8.2740 C   0  0  0  0  0  0
   -3.4437  -18.5015  -11.9239 C   0  0  0  0  0  0
   -3.8928  -18.7470  -13.0507 O   0  0  0  0  0  0
   -2.4455  -19.4982  -11.2704 C   0  0  0  0  0  0
   -2.0067  -20.6881  -12.1710 C   0  0  0  0  0  0
   -1.0181  -20.3319  -13.1838 N   0  0  0  0  0  0
   -1.3812  -18.8112  -10.8426 F   0  0  0  0  0  0
   -3.0477  -20.0184  -10.1999 F   0  0  0  0  0  0
   -8.7738  -16.7567  -11.8500 N   0  0  0  0  0  0
   -9.3242  -17.0156  -10.6468 C   0  0  0  0  0  0
   -8.6999  -16.9574   -9.5850 O   0  0  0  0  0  0
  -10.8433  -17.3190  -10.6104 C   0  0  2  0  0  0
  -11.4632  -17.1544   -9.1825 C   0  0  0  0  0  0
  -11.7627  -15.7241   -8.7029 C   0  0  0  0  0  0
  -10.8371  -14.6812   -8.8210 C   0  0  0  0  0  0
  -11.1477  -13.4034   -8.3652 C   0  0  0  0  0  0
  -12.3818  -13.1411   -7.7763 C   0  0  0  0  0  0
  -13.2989  -14.1906   -7.6284 C   0  0  0  0  0  0
  -12.9880  -15.4702   -8.0806 C   0  0  0  0  0  0
  -12.6139  -11.8406   -7.3755 O   0  0  0  0  0  0
  -13.8664  -11.5124   -6.7839 C   0  0  0  0  0  0
  -11.1883  -18.6282  -11.2029 N   0  0  0  0  0  0
  -10.7300  -19.8385  -10.8213 C   0  0  0  0  0  0
   -9.8115  -19.9788  -10.0213 O   0  0  0  0  0  0
  -11.3350  -21.1105  -11.4492 C   0  0  0  0  0  0
  -12.8283  -21.0905  -11.9142 C   0  0  0  0  0  0
  -13.8129  -21.0426  -10.7689 C   0  0  0  0  0  0
  -13.1375  -22.3177  -12.8070 C   0  0  0  0  0  0
   -7.3468  -16.0666  -13.1573 H   0  0  0  0  0  0
   -3.0034  -16.4931  -11.4262 H   0  0  0  0  0  0
  -11.3287  -16.5834  -11.2533 H   0  0  0  0  0  0
   -5.6736  -12.2612  -13.2206 H   0  0  0  0  0  0
   -5.0924  -13.3399  -11.9827 H   0  0  0  0  0  0
   -5.4691  -13.9752  -13.5830 H   0  0  0  0  0  0
   -7.8707  -13.6933  -13.2749 H   0  0  0  0  0  0
   -7.6134  -12.6587  -11.9061 H   0  0  0  0  0  0
   -8.2060  -14.5556  -10.7878 H   0  0  0  0  0  0
   -6.5135  -14.6697  -10.7375 H   0  0  0  0  0  0
   -4.9353  -15.6578  -12.0716 H   0  0  0  0  0  0
   -2.8261  -17.6717   -9.2594 H   0  0  0  0  0  0
   -4.4962  -18.1106   -9.3127 H   0  0  0  0  0  0
   -3.5645  -16.1595   -7.8052 H   0  0  0  0  0  0
   -4.0625  -14.5387  -10.3016 H   0  0  0  0  0  0
   -2.5410  -14.7790   -9.5173 H   0  0  0  0  0  0
   -3.5982  -12.5871   -8.8999 H   0  0  0  0  0  0
   -3.3122  -13.5887   -7.4985 H   0  0  0  0  0  0
   -5.9905  -13.2178   -8.9281 H   0  0  0  0  0  0
   -5.5703  -12.5932   -7.3563 H   0  0  0  0  0  0
   -6.9762  -14.6690   -7.2199 H   0  0  0  0  0  0
   -5.4407  -14.8706   -6.4222 H   0  0  0  0  0  0
   -5.8795  -16.8623   -7.7252 H   0  0  0  0  0  0
   -6.2678  -15.9789   -9.1254 H   0  0  0  0  0  0
   -1.5521  -21.4556  -11.5418 H   0  0  0  0  0  0
   -2.8723  -21.1493  -12.6511 H   0  0  0  0  0  0
   -0.1738  -20.0019  -12.7330 H   0  0  0  0  0  0
   -0.7537  -21.1481  -13.7172 H   0  0  0  0  0  0
   -9.2962  -16.9502  -12.6950 H   0  0  0  0  0  0
  -12.4210  -17.6742   -9.1863 H   0  0  0  0  0  0
  -10.8676  -17.6630   -8.4227 H   0  0  0  0  0  0
   -9.8648  -14.8309   -9.2511 H   0  0  0  0  0  0
  -10.4245  -12.6085   -8.4713 H   0  0  0  0  0  0
  -14.2687  -14.0255   -7.2002 H   0  0  0  0  0  0
  -13.7179  -16.2601   -7.9618 H   0  0  0  0  0  0
  -13.8623  -10.4629   -6.4953 H   0  0  0  0  0  0
  -14.6901  -11.6653   -7.4847 H   0  0  0  0  0  0
  -14.0565  -12.0956   -5.8809 H   0  0  0  0  0  0
  -11.8613  -18.5861  -11.9532 H   0  0  0  0  0  0
  -10.6764  -21.3834  -12.2712 H   0  0  0  0  0  0
  -11.2005  -21.9313  -10.7442 H   0  0  0  0  0  0
  -13.0691  -20.1690  -12.4340 H   0  0  0  0  0  0
  -13.4711  -21.7466  -10.0211 H   0  0  0  0  0  0
  -13.8679  -20.0634  -10.3173 H   0  0  0  0  0  0
  -14.8242  -21.2632  -11.1053 H   0  0  0  0  0  0
  -13.1318  -23.2377  -12.2188 H   0  0  0  0  0  0
  -14.1248  -22.2386  -13.2625 H   0  0  0  0  0  0
  -12.4146  -22.4615  -13.6111 H   0  0  0  0  0  0
  1  2  1  0  0  0
  1 46  1  0  0  0
  1 47  1  0  0  0
  1 48  1  0  0  0
  2  3  1  0  0  0
  2 49  1  0  0  0
  2 50  1  0  0  0
  3  4  1  0  0  0
  3 51  1  0  0  0
  3 52  1  0  0  0
  4 43  1  0  0  0
  4  5  1  0  0  0
  4 23  1  0  0  0
  5  6  2  0  0  0
  5  7  1  0  0  0
  7  8  1  0  0  0
  7 53  1  0  0  0
  8 44  1  0  0  0
  8  9  1  0  0  0
  8 16  1  0  0  0
  9 10  1  0  0  0
  9 54  1  0  0  0
  9 55  1  0  0  0
 10 15  1  0  0  0
 10 11  1  0  0  0
 10 56  1  0  0  0
 11 12  1  0  0  0
 11 57  1  0  0  0
 11 58  1  0  0  0
 12 13  1  0  0  0
 12 59  1  0  0  0
 12 60  1  0  0  0
 13 14  1  0  0  0
 13 61  1  0  0  0
 13 62  1  0  0  0
 14 15  1  0  0  0
 14 63  1  0  0  0
 14 64  1  0  0  0
 15 65  1  0  0  0
 15 66  1  0  0  0
 16 17  2  0  0  0
 16 18  1  0  0  0
 18 19  1  0  0  0
 18 21  1  0  0  0
 18 22  1  0  0  0
 19 20  1  0  0  0
 19 67  1  0  0  0
 19 68  1  0  0  0
 20 69  1  0  0  0
 20 70  1  0  0  0
 23 24  1  0  0  0
 23 71  1  0  0  0
 24 25  2  0  0  0
 24 26  1  0  0  0
 26 45  1  0  0  0
 26 27  1  0  0  0
 26 36  1  0  0  0
 27 28  1  0  0  0
 27 72  1  0  0  0
 27 73  1  0  0  0
 28 33  1  0  0  0
 28 29  2  0  0  0
 29 30  1  0  0  0
 29 74  1  0  0  0
 30 31  2  0  0  0
 30 75  1  0  0  0
 31 32  1  0  0  0
 31 34  1  0  0  0
 32 33  2  0  0  0
 32 76  1  0  0  0
 33 77  1  0  0  0
 34 35  1  0  0  0
 35 78  1  0  0  0
 35 79  1  0  0  0
 35 80  1  0  0  0
 36 37  1  0  0  0
 36 81  1  0  0  0
 37 38  2  0  0  0
 37 39  1  0  0  0
 39 40  1  0  0  0
 39 82  1  0  0  0
 39 83  1  0  0  0
 40 41  1  0  0  0
 40 42  1  0  0  0
 40 84  1  0  0  0
 41 85  1  0  0  0
 41 86  1  0  0  0
 41 87  1  0  0  0
 42 88  1  0  0  0
 42 89  1  0  0  0
 42 90  1  0  0  0
M  END
> <s_m_entry_id>
27503

> <s_m_entry_name>
ligand_docking-pose.57

> <s_m_Source_Path>
/home/csk/Desktop/cluster/DUD-E-result/reni

> <s_m_Source_File>
ligand_docking-pose.sdf

> <i_m_Source_File_Index>
57

> <i_lp_mmshare_version>
53161

> <i_f3d_flags>
0

> <r_lp_tautomer_probability>
0.99990000499975

> <s_lp_Force_Field>
OPLS_2005

> <r_lp_Energy>
27.296142

> <b_lp_Chiralities_Consistent>
1

> <s_lp_Variant>
552443-1

> <s_i_glide_gridfile>
glide-grid_3g6z

> <i_i_glide_lignum>
513

> <i_i_glide_rotatable_bonds>
20

> <r_i_docking_score>
-7.63447303141243

> <r_i_glide_ligand_efficiency>
-0.181773167414582

> <r_i_glide_ligand_efficiency_sa>
-0.631848372471278

> <r_i_glide_ligand_efficiency_ln>
-1.61144057026473

> <r_i_glide_gscore>
-7.63447303141243

> <r_i_glide_lipo>
-4.42121621930614

> <r_i_glide_hbond>
-0.104933065706929

> <r_i_glide_metal>
0

> <r_i_glide_rewards>
-0.907177258310357

> <r_i_glide_evdw>
-47.7015190124512

> <r_i_glide_ecoul>
-3.37875723838806

> <r_i_glide_erotb>
0.777093993055263

> <r_i_glide_esite>
-0.0863509447635043

> <r_i_glide_emodel>
-65.2077727301616

> <r_i_glide_energy>
-51.0802762508392

> <r_i_glide_einternal>
19.6239795684814

> <i_i_glide_confnum>
27

> <i_i_glide_posenum>
9

> <r_i_glide_eff_state_penalty>
0

> <s_user_duplicate_titles>
552443

> <s_m_subgroup_title>
dock_pv

> <s_m_subgroupid>
dock_pv1

> <b_m_subgroup_collapsed>
0

$$$$
106687
                    3D
 Schrodinger Suite 2021-1.
 83 86  0  0  1  0            999 V2000
  -10.5287   -9.4810   -6.6630 C   0  0  0  0  0  0
   -9.7217  -10.4406   -7.2615 C   0  0  0  0  0  0
  -10.2684  -11.6712   -7.6210 C   0  0  0  0  0  0
  -11.6149  -11.9646   -7.3661 C   0  0  0  0  0  0
  -12.4149  -10.9848   -6.7814 C   0  0  0  0  0  0
  -11.8698   -9.7526   -6.4210 C   0  0  0  0  0  0
  -12.1828  -13.2033   -7.6064 O   0  0  0  0  0  0
  -11.8388  -13.8705   -8.8210 C   0  0  0  0  0  0
  -11.7150  -15.3930   -8.6568 C   0  0  0  0  0  0
  -11.8091  -15.9385   -7.5559 O   0  0  0  0  0  0
  -11.4691  -16.0628   -9.8013 N   0  0  0  0  0  0
  -11.1330  -17.4829   -9.9046 C   0  0  1  0  0  0
  -11.6807  -18.0687  -11.2274 C   0  0  0  0  0  0
  -11.8248  -19.5693  -11.2209 C   0  0  0  0  0  0
  -10.8433  -20.5413  -11.1861 C   0  0  0  0  0  0
  -11.4981  -21.7601  -11.2210 N   0  0  0  0  0  0
  -12.8071  -21.4982  -11.2617 C   0  0  0  0  0  0
  -13.0751  -20.1997  -11.2618 N   0  0  0  0  0  0
   -9.6115  -17.6830   -9.8046 C   0  0  0  0  0  0
   -9.1452  -18.4172   -8.9360 O   0  0  0  0  0  0
   -8.8741  -17.0497  -10.7302 N   0  0  0  0  0  0
   -7.4343  -17.2375  -10.9340 C   0  0  1  0  0  0
   -7.1372  -18.5893  -11.6397 C   0  0  0  0  0  0
   -5.6311  -18.9525  -11.7000 C   0  0  0  0  0  0
   -5.3601  -20.4243  -11.3104 C   0  0  0  0  0  0
   -3.8427  -20.7039  -11.2325 C   0  0  0  0  0  0
   -3.1234  -20.3296  -12.5484 C   0  0  0  0  0  0
   -3.5001  -18.9136  -13.0467 C   0  0  0  0  0  0
   -5.0279  -18.7236  -13.1040 C   0  0  0  0  0  0
   -6.7967  -16.0036  -11.6465 C   0  0  2  0  0  0
   -6.6951  -14.7502  -10.7516 C   0  0  0  0  0  0
   -5.6507  -14.9843   -9.2817 S   0  0  0  0  0  0
   -5.5875  -13.3037   -8.6024 C   0  0  0  0  0  0
   -5.4258  -13.3755   -7.0744 C   0  0  0  0  0  0
   -5.2767  -11.9748   -6.4603 C   0  0  0  0  0  0
   -4.1011  -11.1989   -7.0775 C   0  0  0  0  0  0
   -4.2449  -11.0973   -8.6064 C   0  0  0  0  0  0
   -4.4605  -12.4762   -9.2717 C   0  0  0  0  0  0
   -7.5206  -15.6627  -12.8207 O   0  0  0  0  0  0
  -11.0661  -22.6736  -11.2185 H   0  0  0  0  0  0
   -6.9809  -17.3082   -9.9420 H   0  0  0  0  0  0
   -5.7827  -16.2403  -11.9538 H   0  0  0  0  0  0
  -10.1134   -8.5226   -6.3878 H   0  0  0  0  0  0
   -8.6783  -10.2346   -7.4429 H   0  0  0  0  0  0
   -9.6008  -12.4085   -8.0404 H   0  0  0  0  0  0
  -13.4535  -11.1919   -6.5774 H   0  0  0  0  0  0
  -12.4965   -9.0006   -5.9636 H   0  0  0  0  0  0
  -10.8822  -13.5501   -9.2214 H   0  0  0  0  0  0
  -12.6057  -13.6599   -9.5675 H   0  0  0  0  0  0
  -11.4316  -15.5443  -10.6673 H   0  0  0  0  0  0
  -11.6266  -18.0043   -9.0909 H   0  0  0  0  0  0
  -12.6671  -17.6622  -11.4391 H   0  0  0  0  0  0
  -11.0643  -17.7856  -12.0823 H   0  0  0  0  0  0
   -9.7664  -20.4614  -11.1422 H   0  0  0  0  0  0
  -13.5703  -22.2643  -11.3036 H   0  0  0  0  0  0
   -9.3336  -16.4481  -11.3985 H   0  0  0  0  0  0
   -7.6656  -19.3776  -11.1016 H   0  0  0  0  0  0
   -7.5789  -18.5988  -12.6368 H   0  0  0  0  0  0
   -5.0900  -18.3274  -10.9871 H   0  0  0  0  0  0
   -5.8107  -20.6386  -10.3402 H   0  0  0  0  0  0
   -5.8560  -21.1060  -12.0021 H   0  0  0  0  0  0
   -3.4107  -20.1305  -10.4093 H   0  0  0  0  0  0
   -3.6643  -21.7547  -10.9995 H   0  0  0  0  0  0
   -2.0446  -20.4032  -12.4167 H   0  0  0  0  0  0
   -3.3825  -21.0657  -13.3095 H   0  0  0  0  0  0
   -3.0653  -18.1651  -12.3808 H   0  0  0  0  0  0
   -3.0689  -18.7239  -14.0214 H   0  0  0  0  0  0
   -5.5042  -19.3759  -13.8388 H   0  0  0  0  0  0
   -5.2531  -17.7197  -13.4625 H   0  0  0  0  0  0
   -7.6890  -14.4488  -10.4211 H   0  0  0  0  0  0
   -6.2971  -13.9152  -11.3251 H   0  0  0  0  0  0
   -6.5579  -12.8621   -8.8205 H   0  0  0  0  0  0
   -4.5484  -13.9718   -6.8220 H   0  0  0  0  0  0
   -6.2842  -13.8828   -6.6301 H   0  0  0  0  0  0
   -5.1323  -12.0640   -5.3900 H   0  0  0  0  0  0
   -6.2025  -11.4138   -6.5988 H   0  0  0  0  0  0
   -3.1616  -11.6941   -6.8299 H   0  0  0  0  0  0
   -4.0446  -10.2006   -6.6397 H   0  0  0  0  0  0
   -3.3654  -10.6123   -9.0320 H   0  0  0  0  0  0
   -5.0827  -10.4377   -8.8211 H   0  0  0  0  0  0
   -4.6675  -12.3463  -10.3351 H   0  0  0  0  0  0
   -3.5254  -13.0341   -9.2091 H   0  0  0  0  0  0
   -7.6752  -16.4566  -13.3518 H   0  0  0  0  0  0
  1  6  1  0  0  0
  1  2  2  0  0  0
  1 43  1  0  0  0
  2  3  1  0  0  0
  2 44  1  0  0  0
  3  4  2  0  0  0
  3 45  1  0  0  0
  4  5  1  0  0  0
  4  7  1  0  0  0
  5  6  2  0  0  0
  5 46  1  0  0  0
  6 47  1  0  0  0
  7  8  1  0  0  0
  8  9  1  0  0  0
  8 48  1  0  0  0
  8 49  1  0  0  0
  9 10  2  0  0  0
  9 11  1  0  0  0
 11 12  1  0  0  0
 11 50  1  0  0  0
 12 13  1  0  0  0
 12 19  1  0  0  0
 12 51  1  0  0  0
 13 14  1  0  0  0
 13 52  1  0  0  0
 13 53  1  0  0  0
 14 18  1  0  0  0
 14 15  2  0  0  0
 15 16  1  0  0  0
 15 54  1  0  0  0
 16 40  1  0  0  0
 16 17  1  0  0  0
 17 18  2  0  0  0
 17 55  1  0  0  0
 19 20  2  0  0  0
 19 21  1  0  0  0
 21 22  1  0  0  0
 21 56  1  0  0  0
 22 41  1  0  0  0
 22 23  1  0  0  0
 22 30  1  0  0  0
 23 24  1  0  0  0
 23 57  1  0  0  0
 23 58  1  0  0  0
 24 29  1  0  0  0
 24 25  1  0  0  0
 24 59  1  0  0  0
 25 26  1  0  0  0
 25 60  1  0  0  0
 25 61  1  0  0  0
 26 27  1  0  0  0
 26 62  1  0  0  0
 26 63  1  0  0  0
 27 28  1  0  0  0
 27 64  1  0  0  0
 27 65  1  0  0  0
 28 29  1  0  0  0
 28 66  1  0  0  0
 28 67  1  0  0  0
 29 68  1  0  0  0
 29 69  1  0  0  0
 30 42  1  0  0  0
 30 31  1  0  0  0
 30 39  1  0  0  0
 31 32  1  0  0  0
 31 70  1  0  0  0
 31 71  1  0  0  0
 32 33  1  0  0  0
 33 38  1  0  0  0
 33 34  1  0  0  0
 33 72  1  0  0  0
 34 35  1  0  0  0
 34 73  1  0  0  0
 34 74  1  0  0  0
 35 36  1  0  0  0
 35 75  1  0  0  0
 35 76  1  0  0  0
 36 37  1  0  0  0
 36 77  1  0  0  0
 36 78  1  0  0  0
 37 38  1  0  0  0
 37 79  1  0  0  0
 37 80  1  0  0  0
 38 81  1  0  0  0
 38 82  1  0  0  0
 39 83  1  0  0  0
M  END
> <s_m_entry_id>
27504

> <s_m_entry_name>
ligand_docking-pose.58

> <s_m_Source_Path>
/home/csk/Desktop/cluster/DUD-E-result/reni

> <s_m_Source_File>
ligand_docking-pose.sdf

> <i_m_Source_File_Index>
58

> <i_lp_mmshare_version>
53161

> <i_f3d_flags>
0

> <r_lp_tautomer_probability>
0.499999999999999

> <s_lp_Force_Field>
OPLS_2005

> <r_lp_Energy>
30.823043

> <b_lp_Chiralities_Consistent>
1

> <s_lp_Variant>
106687-2

> <s_i_glide_gridfile>
glide-grid_3g6z

> <i_i_glide_lignum>
31

> <i_i_glide_rotatable_bonds>
17

> <r_i_docking_score>
-7.62737836347568

> <r_i_glide_ligand_efficiency>
-0.195573804191684

> <r_i_glide_ligand_efficiency_sa>
-0.663232121918721

> <r_i_glide_ligand_efficiency_ln>
-1.63552643713968

> <r_i_glide_gscore>
-7.62737836347568

> <r_i_glide_lipo>
-3.81496556392273

> <r_i_glide_hbond>
-0.437097723182683

> <r_i_glide_metal>
0

> <r_i_glide_rewards>
-0.658406918273454

> <r_i_glide_evdw>
-51.8984527587891

> <r_i_glide_ecoul>
-5.58486175537109

> <r_i_glide_erotb>
0.727966505180242

> <r_i_glide_esite>
-0.0122227620319436

> <r_i_glide_emodel>
-73.0395146469294

> <r_i_glide_energy>
-57.4833145141602

> <r_i_glide_einternal>
20.2414779663086

> <i_i_glide_confnum>
154

> <i_i_glide_posenum>
290

> <r_i_glide_eff_state_penalty>
0

> <s_user_duplicate_titles>
106687

> <s_m_subgroup_title>
dock_pv

> <s_m_subgroupid>
dock_pv1

> <b_m_subgroup_collapsed>
0

$$$$
42950
                    3D
 Schrodinger Suite 2021-1.
 66 71  0  0  1  0            999 V2000
  -10.3408   -9.1149   -6.5292 C   0  0  0  0  0  0
   -9.6669  -10.0630   -7.2910 C   0  0  0  0  0  0
  -10.2836  -11.2621   -7.6210 C   0  0  0  0  0  0
  -11.5855  -11.5298   -7.1902 C   0  0  0  0  0  0
  -12.2566  -10.5641   -6.4239 C   0  0  0  0  0  0
  -11.6321   -9.3620   -6.0869 C   0  0  0  0  0  0
  -12.2198  -12.8505   -7.5216 C   0  0  0  0  0  0
  -11.5566  -13.8191   -8.1297 N   0  0  0  0  0  0
  -12.4335  -14.7809   -8.1668 C   0  0  0  0  0  0
  -13.6270  -14.4493   -7.6213 O   0  0  0  0  0  0
  -13.4683  -13.1287   -7.2066 N   0  0  0  0  0  0
  -12.2681  -16.1654   -8.7456 C   0  0  0  0  0  0
  -11.0759  -16.7582   -8.2262 O   0  0  0  0  0  0
  -10.0316  -17.1624   -9.0371 C   0  0  0  0  0  0
   -8.9923  -17.8003   -8.3669 C   0  0  0  0  0  0
   -7.8698  -18.2387   -9.0537 C   0  0  0  0  0  0
   -7.7609  -18.0432  -10.4311 C   0  0  0  0  0  0
   -8.8056  -17.4140  -11.1182 C   0  0  0  0  0  0
   -9.9341  -16.9715  -10.4276 C   0  0  0  0  0  0
   -6.4646  -18.4570  -11.1399 C   0  0  1  0  0  0
   -6.6359  -19.5595  -12.1991 C   0  0  0  0  0  0
   -5.2590  -20.0078  -12.7386 C   0  0  0  0  0  0
   -4.4141  -18.9084  -13.2210 N   0  0  1  0  0  0
   -4.3478  -17.7317  -12.3453 C   0  0  0  0  0  0
   -5.7098  -17.2741  -11.7763 C   0  0  2  0  0  0
   -5.5113  -16.2810  -10.7757 O   0  0  0  0  0  0
   -5.4502  -14.9418  -11.2456 C   0  0  0  0  0  0
   -5.2333  -14.0150  -10.0618 C   0  0  0  0  0  0
   -6.1552  -13.9985   -9.0141 C   0  0  0  0  0  0
   -5.9936  -13.1306   -7.9364 C   0  0  0  0  0  0
   -4.8873  -12.2466   -7.8895 C   0  0  0  0  0  0
   -4.7052  -11.3244   -6.8278 C   0  0  0  0  0  0
   -3.6046  -10.4688   -6.8209 C   0  0  0  0  0  0
   -2.6591  -10.5225   -7.8349 C   0  0  0  0  0  0
   -2.8098  -11.4096   -8.8974 C   0  0  0  0  0  0
   -3.9291  -12.2778   -8.9502 C   0  0  0  0  0  0
   -4.1203  -13.1736  -10.0288 C   0  0  0  0  0  0
   -5.8177  -18.8653  -10.3619 H   0  0  0  0  0  0
   -6.3154  -16.8490  -12.5807 H   0  0  0  0  0  0
   -9.8691   -8.1740   -6.2936 H   0  0  0  0  0  0
   -8.6695   -9.8692   -7.6469 H   0  0  0  0  0  0
   -9.7376  -11.9860   -8.2064 H   0  0  0  0  0  0
  -13.2648  -10.7404   -6.0781 H   0  0  0  0  0  0
  -12.1547   -8.6198   -5.5030 H   0  0  0  0  0  0
  -13.0948  -16.8149   -8.4593 H   0  0  0  0  0  0
  -12.3245  -16.1158   -9.8274 H   0  0  0  0  0  0
   -9.0584  -17.9472   -7.2997 H   0  0  0  0  0  0
   -7.0752  -18.7157   -8.5017 H   0  0  0  0  0  0
   -8.7305  -17.2521  -12.1841 H   0  0  0  0  0  0
  -10.6999  -16.4725  -10.9980 H   0  0  0  0  0  0
   -7.1159  -20.4324  -11.7544 H   0  0  0  0  0  0
   -7.2681  -19.2424  -13.0303 H   0  0  0  0  0  0
   -5.4029  -20.7148  -13.5566 H   0  0  0  0  0  0
   -4.7131  -20.5450  -11.9580 H   0  0  0  0  0  0
   -3.4707  -19.2240  -13.4073 H   0  0  0  0  0  0
   -3.9056  -16.9167  -12.9160 H   0  0  0  0  0  0
   -3.6564  -17.9420  -11.5282 H   0  0  0  0  0  0
   -4.6478  -14.8307  -11.9787 H   0  0  0  0  0  0
   -6.3865  -14.6648  -11.7365 H   0  0  0  0  0  0
   -7.0100  -14.6591   -9.0413 H   0  0  0  0  0  0
   -6.7171  -13.1197   -7.1361 H   0  0  0  0  0  0
   -5.4273  -11.2848   -6.0244 H   0  0  0  0  0  0
   -3.4830   -9.7564   -6.0213 H   0  0  0  0  0  0
   -1.8058   -9.8616   -7.7987 H   0  0  0  0  0  0
   -2.0759  -11.4357   -9.6895 H   0  0  0  0  0  0
   -3.4030  -13.1877  -10.8363 H   0  0  0  0  0  0
  1  6  1  0  0  0
  1  2  2  0  0  0
  1 40  1  0  0  0
  2  3  1  0  0  0
  2 41  1  0  0  0
  3  4  2  0  0  0
  3 42  1  0  0  0
  4  5  1  0  0  0
  4  7  1  0  0  0
  5  6  2  0  0  0
  5 43  1  0  0  0
  6 44  1  0  0  0
  7 11  2  0  0  0
  7  8  1  0  0  0
  8  9  2  0  0  0
  9 10  1  0  0  0
  9 12  1  0  0  0
 10 11  1  0  0  0
 12 13  1  0  0  0
 12 45  1  0  0  0
 12 46  1  0  0  0
 13 14  1  0  0  0
 14 19  1  0  0  0
 14 15  2  0  0  0
 15 16  1  0  0  0
 15 47  1  0  0  0
 16 17  2  0  0  0
 16 48  1  0  0  0
 17 18  1  0  0  0
 17 20  1  0  0  0
 18 19  2  0  0  0
 18 49  1  0  0  0
 19 50  1  0  0  0
 20 38  1  0  0  0
 20 25  1  0  0  0
 20 21  1  0  0  0
 21 22  1  0  0  0
 21 51  1  0  0  0
 21 52  1  0  0  0
 22 23  1  0  0  0
 22 53  1  0  0  0
 22 54  1  0  0  0
 23 24  1  0  0  0
 23 55  1  0  0  0
 24 25  1  0  0  0
 24 56  1  0  0  0
 24 57  1  0  0  0
 25 39  1  0  0  0
 25 26  1  0  0  0
 26 27  1  0  0  0
 27 28  1  0  0  0
 27 58  1  0  0  0
 27 59  1  0  0  0
 28 37  1  0  0  0
 28 29  2  0  0  0
 29 30  1  0  0  0
 29 60  1  0  0  0
 30 31  2  0  0  0
 30 61  1  0  0  0
 31 36  1  0  0  0
 31 32  1  0  0  0
 32 33  2  0  0  0
 32 62  1  0  0  0
 33 34  1  0  0  0
 33 63  1  0  0  0
 34 35  2  0  0  0
 34 64  1  0  0  0
 35 36  1  0  0  0
 35 65  1  0  0  0
 36 37  2  0  0  0
 37 66  1  0  0  0
M  END
> <s_m_entry_id>
27505

> <s_m_entry_name>
ligand_docking-pose.59

> <s_m_Source_Path>
/home/csk/Desktop/cluster/DUD-E-result/reni

> <s_m_Source_File>
ligand_docking-pose.sdf

> <i_m_Source_File_Index>
59

> <i_lp_mmshare_version>
53161

> <i_f3d_flags>
0

> <r_lp_tautomer_probability>
1

> <s_lp_Force_Field>
OPLS_2005

> <r_lp_Energy>
37.903141

> <b_lp_Chiralities_Consistent>
1

> <s_lp_Variant>
42950-1

> <s_i_glide_gridfile>
glide-grid_3g6z

> <i_i_glide_lignum>
4

> <i_i_glide_rotatable_bonds>
8

> <r_i_docking_score>
-7.59732450574468

> <r_i_glide_ligand_efficiency>
-0.205333094749856

> <r_i_glide_ligand_efficiency_sa>
-0.684215424368011

> <r_i_glide_ligand_efficiency_ln>
-1.64768157873967

> <r_i_glide_gscore>
-7.59732450574468

> <r_i_glide_lipo>
-4.60622119708232

> <r_i_glide_hbond>
-0.267095983633024

> <r_i_glide_metal>
0

> <r_i_glide_rewards>
-0.096764846800836

> <r_i_glide_evdw>
-55.2662696838379

> <r_i_glide_ecoul>
-3.5860698223114

> <r_i_glide_erotb>
0.673981479310107

> <r_i_glide_esite>
0

> <r_i_glide_emodel>
-78.9997391960387

> <r_i_glide_energy>
-58.8523395061493

> <r_i_glide_einternal>
5.9409327507019

> <i_i_glide_confnum>
31

> <i_i_glide_posenum>
398

> <r_i_glide_eff_state_penalty>
0

> <s_user_duplicate_titles>
42950

> <s_m_subgroup_title>
dock_pv

> <s_m_subgroupid>
dock_pv1

> <b_m_subgroup_collapsed>
0

$$$$
116813
                    3D
 Schrodinger Suite 2021-1.
 92 94  0  0  1  0            999 V2000
  -10.3075  -22.6784  -12.1446 C   0  0  0  0  0  0
  -10.3577  -21.9359  -10.8053 C   0  0  0  0  0  0
   -9.5211  -20.7835  -10.8385 O   0  0  0  0  0  0
  -10.0252  -19.5312  -10.8369 C   0  0  0  0  0  0
  -11.2252  -19.2479  -10.8209 O   0  0  0  0  0  0
   -8.9640  -18.6382  -10.8508 N   0  0  0  0  0  0
   -9.1663  -17.1784  -10.6906 C   0  0  1  0  0  0
   -9.4057  -16.8901   -9.1705 C   0  0  0  0  0  0
  -10.5112  -15.9073   -8.8220 C   0  0  0  0  0  0
  -10.2709  -14.5173   -8.8209 C   0  0  0  0  0  0
  -11.2753  -13.6416   -8.4210 C   0  0  0  0  0  0
  -12.5387  -14.1230   -8.1029 C   0  0  0  0  0  0
  -12.8101  -15.4815   -8.1870 C   0  0  0  0  0  0
  -11.8168  -16.3750   -8.5655 C   0  0  0  0  0  0
   -7.9394  -16.3681  -11.2175 C   0  0  0  0  0  0
   -7.7883  -15.1964  -10.8671 O   0  0  0  0  0  0
   -7.0698  -17.0072  -12.0211 N   0  0  0  0  0  0
   -5.7199  -16.5768  -12.4013 C   0  0  2  0  0  0
   -5.1254  -17.5928  -13.4117 C   0  0  0  0  0  0
   -5.4675  -19.0400  -13.1421 C   0  0  0  0  0  0
   -4.8183  -20.0116  -12.4168 C   0  0  0  0  0  0
   -5.5842  -21.1784  -12.4032 N   0  0  0  0  0  0
   -6.6577  -20.8754  -13.1245 C   0  0  0  0  0  0
   -6.6296  -19.6335  -13.6130 N   0  0  0  0  0  0
   -4.8120  -16.4023  -11.1655 C   0  0  0  0  0  0
   -4.9601  -17.1346  -10.1869 O   0  0  0  0  0  0
   -3.9142  -15.4076  -11.2322 N   0  0  0  0  0  0
   -3.1698  -14.8588  -10.0886 C   0  0  1  0  0  0
   -2.0886  -15.8098   -9.5057 C   0  0  0  0  0  0
   -0.8661  -16.1562  -10.4008 C   0  0  0  0  0  0
    0.3660  -16.4729   -9.5168 C   0  0  0  0  0  0
    1.6225  -16.7812  -10.3521 C   0  0  0  0  0  0
    1.3664  -17.9379  -11.3362 C   0  0  0  0  0  0
    0.1158  -17.6910  -12.2013 C   0  0  0  0  0  0
   -1.1290  -17.3510  -11.3540 C   0  0  0  0  0  0
   -2.6409  -13.3931  -10.3114 C   0  0  2  0  0  0
   -2.9902  -12.4546   -9.1131 C   0  0  2  0  0  0
   -4.4884  -12.0502   -9.0668 C   0  0  0  0  0  0
   -5.1036  -11.7301   -7.6833 C   0  0  0  0  0  0
   -4.3768  -10.6040   -6.9240 C   0  0  0  0  0  0
   -5.2568  -12.9930   -6.8207 C   0  0  0  0  0  0
   -2.1865  -11.2851   -9.1484 O   0  0  0  0  0  0
   -3.0664  -12.8059  -11.5399 O   0  0  0  0  0  0
   -3.9239  -14.7910   -9.2987 H   0  0  0  0  0  0
   -1.5542  -13.4288  -10.3808 H   0  0  0  0  0  0
  -10.9180  -23.5830  -12.1108 H   0  0  0  0  0  0
  -10.6751  -22.0629  -12.9637 H   0  0  0  0  0  0
   -9.2875  -22.9814  -12.3864 H   0  0  0  0  0  0
   -9.9815  -22.5960  -10.0269 H   0  0  0  0  0  0
  -11.3902  -21.7008  -10.5372 H   0  0  0  0  0  0
   -8.0271  -19.0076  -10.7895 H   0  0  0  0  0  0
  -10.0408  -16.8944  -11.2821 H   0  0  0  0  0  0
   -9.6485  -17.8061   -8.6297 H   0  0  0  0  0  0
   -8.4905  -16.5529   -8.6774 H   0  0  0  0  0  0
   -9.2919  -14.1305   -9.0669 H   0  0  0  0  0  0
  -11.0755  -12.5814   -8.3760 H   0  0  0  0  0  0
  -13.3147  -13.4365   -7.8007 H   0  0  0  0  0  0
  -13.8024  -15.8481   -7.9654 H   0  0  0  0  0  0
  -12.0404  -17.4293   -8.6351 H   0  0  0  0  0  0
   -7.3047  -17.9409  -12.3207 H   0  0  0  0  0  0
   -5.8046  -15.6049  -12.8922 H   0  0  0  0  0  0
   -5.4709  -17.3478  -14.4163 H   0  0  0  0  0  0
   -4.0397  -17.5013  -13.4514 H   0  0  0  0  0  0
   -7.3387  -19.1694  -14.1833 H   0  0  0  0  0  0
   -3.8828  -19.9506  -11.8800 H   0  0  0  0  0  0
   -7.4745  -21.5662  -13.2736 H   0  0  0  0  0  0
   -3.8694  -14.8745  -12.0927 H   0  0  0  0  0  0
   -2.5588  -16.7354   -9.1717 H   0  0  0  0  0  0
   -1.7368  -15.3491   -8.5799 H   0  0  0  0  0  0
   -0.6013  -15.3004  -11.0231 H   0  0  0  0  0  0
    0.1337  -17.3044   -8.8516 H   0  0  0  0  0  0
    0.5697  -15.6344   -8.8467 H   0  0  0  0  0  0
    2.4565  -17.0276   -9.6960 H   0  0  0  0  0  0
    1.9161  -15.8880  -10.9033 H   0  0  0  0  0  0
    1.2329  -18.8626  -10.7783 H   0  0  0  0  0  0
    2.2386  -18.0939  -11.9718 H   0  0  0  0  0  0
   -0.0877  -18.5657  -12.8212 H   0  0  0  0  0  0
    0.3219  -16.8672  -12.8793 H   0  0  0  0  0  0
   -1.9762  -17.1497  -12.0129 H   0  0  0  0  0  0
   -1.4270  -18.2258  -10.7724 H   0  0  0  0  0  0
   -2.7328  -12.9803   -8.1935 H   0  0  0  0  0  0
   -4.6611  -11.2130   -9.7401 H   0  0  0  0  0  0
   -5.0799  -12.8600   -9.5028 H   0  0  0  0  0  0
   -6.1136  -11.3656   -7.8796 H   0  0  0  0  0  0
   -3.3740  -10.9064   -6.6224 H   0  0  0  0  0  0
   -4.2796   -9.7116   -7.5432 H   0  0  0  0  0  0
   -4.9194  -10.3194   -6.0211 H   0  0  0  0  0  0
   -4.2908  -13.3631   -6.4822 H   0  0  0  0  0  0
   -5.8699  -12.7995   -5.9415 H   0  0  0  0  0  0
   -5.7465  -13.7960   -7.3726 H   0  0  0  0  0  0
   -1.2829  -11.5475   -9.3394 H   0  0  0  0  0  0
   -2.6095  -13.2363  -12.2665 H   0  0  0  0  0  0
  1  2  1  0  0  0
  1 46  1  0  0  0
  1 47  1  0  0  0
  1 48  1  0  0  0
  2  3  1  0  0  0
  2 49  1  0  0  0
  2 50  1  0  0  0
  3  4  1  0  0  0
  4  5  2  0  0  0
  4  6  1  0  0  0
  6  7  1  0  0  0
  6 51  1  0  0  0
  7  8  1  0  0  0
  7 15  1  0  0  0
  7 52  1  0  0  0
  8  9  1  0  0  0
  8 53  1  0  0  0
  8 54  1  0  0  0
  9 14  1  0  0  0
  9 10  2  0  0  0
 10 11  1  0  0  0
 10 55  1  0  0  0
 11 12  2  0  0  0
 11 56  1  0  0  0
 12 13  1  0  0  0
 12 57  1  0  0  0
 13 14  2  0  0  0
 13 58  1  0  0  0
 14 59  1  0  0  0
 15 16  2  0  0  0
 15 17  1  0  0  0
 17 18  1  0  0  0
 17 60  1  0  0  0
 18 19  1  0  0  0
 18 25  1  0  0  0
 18 61  1  0  0  0
 19 62  1  0  0  0
 19 63  1  0  0  0
 19 20  1  0  0  0
 20 21  2  0  0  0
 20 24  1  0  0  0
 21 65  1  0  0  0
 21 22  1  0  0  0
 22 23  2  0  0  0
 23 66  1  0  0  0
 23 24  1  0  0  0
 24 64  1  0  0  0
 25 26  2  0  0  0
 25 27  1  0  0  0
 27 28  1  0  0  0
 27 67  1  0  0  0
 28 44  1  0  0  0
 28 29  1  0  0  0
 28 36  1  0  0  0
 29 30  1  0  0  0
 29 68  1  0  0  0
 29 69  1  0  0  0
 30 35  1  0  0  0
 30 31  1  0  0  0
 30 70  1  0  0  0
 31 32  1  0  0  0
 31 71  1  0  0  0
 31 72  1  0  0  0
 32 33  1  0  0  0
 32 73  1  0  0  0
 32 74  1  0  0  0
 33 34  1  0  0  0
 33 75  1  0  0  0
 33 76  1  0  0  0
 34 35  1  0  0  0
 34 77  1  0  0  0
 34 78  1  0  0  0
 35 79  1  0  0  0
 35 80  1  0  0  0
 36 45  1  0  0  0
 36 37  1  0  0  0
 36 43  1  0  0  0
 37 38  1  0  0  0
 37 42  1  0  0  0
 37 81  1  0  0  0
 38 39  1  0  0  0
 38 82  1  0  0  0
 38 83  1  0  0  0
 39 40  1  0  0  0
 39 41  1  0  0  0
 39 84  1  0  0  0
 40 85  1  0  0  0
 40 86  1  0  0  0
 40 87  1  0  0  0
 41 88  1  0  0  0
 41 89  1  0  0  0
 41 90  1  0  0  0
 42 91  1  0  0  0
 43 92  1  0  0  0
M  END
> <s_m_entry_id>
27507

> <s_m_entry_name>
ligand_docking-pose.61

> <s_m_Source_Path>
/home/csk/Desktop/cluster/DUD-E-result/reni

> <s_m_Source_File>
ligand_docking-pose.sdf

> <i_m_Source_File_Index>
61

> <i_lp_mmshare_version>
53161

> <i_f3d_flags>
0

> <r_lp_tautomer_probability>
0.499999999999999

> <s_lp_Force_Field>
OPLS_2005

> <r_lp_Energy>
28.521034

> <b_lp_Chiralities_Consistent>
1

> <s_lp_Variant>
116813-2

> <s_i_glide_gridfile>
glide-grid_3g6z

> <i_i_glide_lignum>
748

> <i_i_glide_rotatable_bonds>
22

> <r_i_docking_score>
-7.54961325364646

> <r_i_glide_ligand_efficiency>
-0.175572401247592

> <r_i_glide_ligand_efficiency_sa>
-0.615100009217083

> <r_i_glide_ligand_efficiency_ln>
-1.58565342144765

> <r_i_glide_gscore>
-7.54961325364646

> <r_i_glide_lipo>
-3.08366526520248

> <r_i_glide_hbond>
-0.385104922582204

> <r_i_glide_metal>
0

> <r_i_glide_rewards>
-0.64390396771178

> <r_i_glide_evdw>
-53.270450592041

> <r_i_glide_ecoul>
-8.62729263305664

> <r_i_glide_erotb>
0.759172404617341

> <r_i_glide_esite>
-0.238495078206786

> <r_i_glide_emodel>
-73.4480945613571

> <r_i_glide_energy>
-61.8977432250977

> <r_i_glide_einternal>
28.6831188201904

> <i_i_glide_confnum>
119

> <i_i_glide_posenum>
324

> <r_i_glide_eff_state_penalty>
0

> <s_user_duplicate_titles>
116813

> <s_m_subgroup_title>
dock_pv

> <s_m_subgroupid>
dock_pv1

> <b_m_subgroup_collapsed>
0

$$$$
116468
                    3D
 Schrodinger Suite 2021-1.
 97 98  0  0  1  0            999 V2000
  -13.6043  -22.1825  -12.6716 C   0  0  0  0  0  0
  -12.3408  -22.0628  -11.8095 C   0  0  0  0  0  0
  -11.9096  -23.4373  -11.2691 C   0  0  0  0  0  0
  -12.4893  -20.9961  -10.7023 C   0  0  0  0  0  0
  -12.1495  -19.5162  -11.0402 C   0  0  1  0  0  0
  -10.6365  -19.1898  -11.3408 C   0  0  1  0  0  0
   -9.9541  -18.0888  -10.4521 C   0  0  2  0  0  0
  -10.6863  -16.7162  -10.4948 C   0  0  0  0  0  0
  -10.9552  -16.0349   -9.1124 C   0  0  0  0  0  0
  -11.1166  -14.5013   -9.2219 C   0  0  0  0  0  0
  -11.5068  -13.7913   -7.9096 C   0  0  0  0  0  0
  -12.7372  -14.4482   -7.2542 C   0  0  0  0  0  0
  -12.6115  -15.9741   -7.1536 C   0  0  0  0  0  0
  -12.2491  -16.5927   -8.5061 C   0  0  0  0  0  0
   -8.5489  -17.8662  -10.8571 N   0  0  0  0  0  0
   -7.4847  -18.6534  -10.6228 C   0  0  0  0  0  0
   -7.5168  -19.6302   -9.8774 O   0  0  0  0  0  0
   -6.2036  -18.3423  -11.4145 C   0  0  1  0  0  0
   -6.2393  -18.9839  -12.8266 C   0  0  0  0  0  0
   -5.6406  -20.3625  -12.8937 C   0  0  0  0  0  0
   -6.2743  -21.5744  -13.0671 C   0  0  0  0  0  0
   -5.2832  -22.5391  -13.0831 N   0  0  0  0  0  0
   -4.1232  -21.9016  -12.9189 C   0  0  0  0  0  0
   -4.2625  -20.5861  -12.8209 N   0  0  0  0  0  0
   -6.0182  -16.9028  -11.5719 N   0  0  0  0  0  0
   -4.8324  -16.2705  -11.4651 C   0  0  0  0  0  0
   -3.7559  -16.8458  -11.2672 O   0  0  0  0  0  0
   -4.9050  -14.7230  -11.5609 C   0  0  2  0  0  0
   -3.5378  -14.0030  -11.3452 C   0  0  0  0  0  0
   -3.5995  -12.4606  -11.4467 C   0  0  0  0  0  0
   -4.1144  -11.9669  -12.8112 C   0  0  0  0  0  0
   -2.2502  -11.8380  -11.0626 C   0  0  0  0  0  0
   -5.9648  -14.1324  -10.7130 N   0  0  0  0  0  0
   -5.8655  -14.1578   -9.3284 C   0  0  0  0  0  0
   -5.0429  -14.8021   -8.6757 O   0  0  0  0  0  0
   -6.7308  -13.2626   -8.8164 O   0  0  0  0  0  0
   -6.5019  -12.5027   -7.6094 C   0  0  0  0  0  0
   -7.7902  -11.6747   -7.4197 C   0  0  0  0  0  0
   -5.2892  -11.5427   -7.7279 C   0  0  0  0  0  0
   -6.2685  -13.4259   -6.4106 C   0  0  0  0  0  0
   -9.8396  -20.3646  -11.2259 O   0  0  0  0  0  0
  -13.0598  -19.0726  -12.0382 O   0  0  0  0  0  0
  -12.4193  -18.9064  -10.1771 H   0  0  0  0  0  0
  -10.5464  -18.8582  -12.3761 H   0  0  0  0  0  0
  -14.4590  -22.4625  -12.0612 H   0  0  0  0  0  0
  -13.8600  -21.2434  -13.1667 H   0  0  0  0  0  0
  -13.4828  -22.9332  -13.4551 H   0  0  0  0  0  0
  -11.5066  -21.7636  -12.4354 H   0  0  0  0  0  0
  -12.6643  -23.8796  -10.6309 H   0  0  0  0  0  0
  -11.7188  -24.1355  -12.0851 H   0  0  0  0  0  0
  -10.9910  -23.3647  -10.6815 H   0  0  0  0  0  0
  -11.7933  -21.2614   -9.9132 H   0  0  0  0  0  0
  -13.4777  -21.0672  -10.2530 H   0  0  0  0  0  0
   -9.9629  -18.4447   -9.4157 H   0  0  0  0  0  0
  -10.1135  -16.0639  -11.1385 H   0  0  0  0  0  0
  -11.6311  -16.8048  -11.0223 H   0  0  0  0  0  0
  -10.1279  -16.2309   -8.4269 H   0  0  0  0  0  0
  -10.2041  -14.0576   -9.6182 H   0  0  0  0  0  0
  -11.9106  -14.3094   -9.9420 H   0  0  0  0  0  0
  -10.6683  -13.7796   -7.2245 H   0  0  0  0  0  0
  -11.7249  -12.7429   -8.1156 H   0  0  0  0  0  0
  -12.8989  -14.0261   -6.2581 H   0  0  0  0  0  0
  -13.6301  -14.2034   -7.8370 H   0  0  0  0  0  0
  -11.8511  -16.2454   -6.4234 H   0  0  0  0  0  0
  -13.5515  -16.4094   -6.8156 H   0  0  0  0  0  0
  -13.0683  -16.4408   -9.2059 H   0  0  0  0  0  0
  -12.1641  -17.6627   -8.4261 H   0  0  0  0  0  0
   -8.4262  -17.1016  -11.4986 H   0  0  0  0  0  0
   -5.3585  -18.7511  -10.8575 H   0  0  0  0  0  0
   -7.2577  -19.0173  -13.2161 H   0  0  0  0  0  0
   -5.6902  -18.3721  -13.5472 H   0  0  0  0  0  0
   -5.4133  -23.5358  -13.2065 H   0  0  0  0  0  0
   -7.3231  -21.8103  -13.1843 H   0  0  0  0  0  0
   -3.1625  -22.4033  -12.9073 H   0  0  0  0  0  0
   -6.8381  -16.3591  -11.8190 H   0  0  0  0  0  0
   -5.2038  -14.5426  -12.5893 H   0  0  0  0  0  0
   -3.1386  -14.2773  -10.3684 H   0  0  0  0  0  0
   -2.7980  -14.3788  -12.0509 H   0  0  0  0  0  0
   -4.3015  -12.0924  -10.7018 H   0  0  0  0  0  0
   -4.0706  -12.7421  -13.5679 H   0  0  0  0  0  0
   -5.1483  -11.6515  -12.7401 H   0  0  0  0  0  0
   -3.5457  -11.1340  -13.2097 H   0  0  0  0  0  0
   -1.8497  -11.2546  -11.8817 H   0  0  0  0  0  0
   -2.3473  -11.1921  -10.1915 H   0  0  0  0  0  0
   -1.4971  -12.5842  -10.8115 H   0  0  0  0  0  0
   -6.6133  -13.4708  -11.1326 H   0  0  0  0  0  0
   -7.8667  -11.2344   -6.4218 H   0  0  0  0  0  0
   -8.6817  -12.2743   -7.6137 H   0  0  0  0  0  0
   -7.8467  -10.8377   -8.1006 H   0  0  0  0  0  0
   -4.3869  -12.0683   -8.0617 H   0  0  0  0  0  0
   -5.4657  -10.7257   -8.4223 H   0  0  0  0  0  0
   -5.0666  -11.0795   -6.7657 H   0  0  0  0  0  0
   -5.2611  -13.8403   -6.4217 H   0  0  0  0  0  0
   -6.3830  -12.8925   -5.4637 H   0  0  0  0  0  0
   -6.9351  -14.2816   -6.4192 H   0  0  0  0  0  0
   -9.0145  -20.1256  -10.7793 H   0  0  0  0  0  0
  -12.5769  -18.8801  -12.8557 H   0  0  0  0  0  0
  1  2  1  0  0  0
  1 45  1  0  0  0
  1 46  1  0  0  0
  1 47  1  0  0  0
  2  3  1  0  0  0
  2  4  1  0  0  0
  2 48  1  0  0  0
  3 49  1  0  0  0
  3 50  1  0  0  0
  3 51  1  0  0  0
  4  5  1  0  0  0
  4 52  1  0  0  0
  4 53  1  0  0  0
  5 43  1  0  0  0
  5  6  1  0  0  0
  5 42  1  0  0  0
  6 44  1  0  0  0
  6  7  1  0  0  0
  6 41  1  0  0  0
  7  8  1  0  0  0
  7 15  1  0  0  0
  7 54  1  0  0  0
  8  9  1  0  0  0
  8 55  1  0  0  0
  8 56  1  0  0  0
  9 14  1  0  0  0
  9 10  1  0  0  0
  9 57  1  0  0  0
 10 11  1  0  0  0
 10 58  1  0  0  0
 10 59  1  0  0  0
 11 12  1  0  0  0
 11 60  1  0  0  0
 11 61  1  0  0  0
 12 13  1  0  0  0
 12 62  1  0  0  0
 12 63  1  0  0  0
 13 14  1  0  0  0
 13 64  1  0  0  0
 13 65  1  0  0  0
 14 66  1  0  0  0
 14 67  1  0  0  0
 15 16  1  0  0  0
 15 68  1  0  0  0
 16 17  2  0  0  0
 16 18  1  0  0  0
 18 19  1  0  0  0
 18 25  1  0  0  0
 18 69  1  0  0  0
 19 70  1  0  0  0
 19 71  1  0  0  0
 19 20  1  0  0  0
 20 21  2  0  0  0
 20 24  1  0  0  0
 21 73  1  0  0  0
 21 22  1  0  0  0
 22 72  1  0  0  0
 22 23  1  0  0  0
 23 74  1  0  0  0
 23 24  2  0  0  0
 25 26  1  0  0  0
 25 75  1  0  0  0
 26 27  2  0  0  0
 26 28  1  0  0  0
 28 29  1  0  0  0
 28 33  1  0  0  0
 28 76  1  0  0  0
 29 30  1  0  0  0
 29 77  1  0  0  0
 29 78  1  0  0  0
 30 31  1  0  0  0
 30 32  1  0  0  0
 30 79  1  0  0  0
 31 80  1  0  0  0
 31 81  1  0  0  0
 31 82  1  0  0  0
 32 83  1  0  0  0
 32 84  1  0  0  0
 32 85  1  0  0  0
 33 34  1  0  0  0
 33 86  1  0  0  0
 34 35  2  0  0  0
 34 36  1  0  0  0
 36 37  1  0  0  0
 37 38  1  0  0  0
 37 39  1  0  0  0
 37 40  1  0  0  0
 38 87  1  0  0  0
 38 88  1  0  0  0
 38 89  1  0  0  0
 39 90  1  0  0  0
 39 91  1  0  0  0
 39 92  1  0  0  0
 40 93  1  0  0  0
 40 94  1  0  0  0
 40 95  1  0  0  0
 41 96  1  0  0  0
 42 97  1  0  0  0
M  END
> <s_m_entry_id>
27508

> <s_m_entry_name>
ligand_docking-pose.62

> <s_m_Source_Path>
/home/csk/Desktop/cluster/DUD-E-result/reni

> <s_m_Source_File>
ligand_docking-pose.sdf

> <i_m_Source_File_Index>
62

> <i_lp_mmshare_version>
53161

> <i_f3d_flags>
0

> <r_lp_tautomer_probability>
0.499999999999999

> <s_lp_Force_Field>
OPLS_2005

> <r_lp_Energy>
23.535802

> <b_lp_Chiralities_Consistent>
1

> <s_lp_Variant>
116468-11

> <s_i_glide_gridfile>
glide-grid_3g6z

> <i_i_glide_lignum>
269

> <i_i_glide_rotatable_bonds>
22

> <r_i_docking_score>
-7.52739572247775

> <r_i_glide_ligand_efficiency>
-0.179223707678042

> <r_i_glide_ligand_efficiency_sa>
-0.622986382508041

> <r_i_glide_ligand_efficiency_ln>
-1.58883930897765

> <r_i_glide_gscore>
-7.52739572247775

> <r_i_glide_lipo>
-3.65189875041534

> <r_i_glide_hbond>
-0.540494929929792

> <r_i_glide_metal>
0

> <r_i_glide_rewards>
-0.666923957332867

> <r_i_glide_evdw>
-37.4445571899414

> <r_i_glide_ecoul>
-10.2133445739746

> <r_i_glide_erotb>
0.780479049835586

> <r_i_glide_esite>
-0.0443275890420812

> <r_i_glide_emodel>
-48.658247739798

> <r_i_glide_energy>
-47.657901763916

> <r_i_glide_einternal>
31.1958026885986

> <i_i_glide_confnum>
113

> <i_i_glide_posenum>
32

> <r_i_glide_eff_state_penalty>
0

> <s_user_duplicate_titles>
116468

> <s_m_subgroup_title>
dock_pv

> <s_m_subgroupid>
dock_pv1

> <b_m_subgroup_collapsed>
0

$$$$
243590
                    3D
 Schrodinger Suite 2021-1.
 83 84  0  0  1  0            999 V2000
   -7.6644  -22.2315  -12.4209 C   0  0  0  0  0  0
   -6.7833  -21.0149  -12.7477 C   0  0  0  0  0  0
   -7.4367  -19.6541  -12.4372 C   0  0  0  0  0  0
   -7.9361  -19.5174  -10.9834 C   0  0  0  0  0  0
   -8.4615  -18.1179  -10.5679 C   0  0  1  0  0  0
   -7.3621  -17.0408  -10.5636 C   0  0  0  0  0  0
   -7.3523  -16.1318  -11.3939 O   0  0  0  0  0  0
   -6.4273  -17.1717   -9.6038 N   0  0  0  0  0  0
   -5.2341  -16.3288   -9.4232 C   0  0  1  0  0  0
   -4.2537  -16.4921  -10.6304 C   0  0  0  0  0  0
   -3.8413  -17.9581  -10.9500 C   0  0  0  0  0  0
   -3.1640  -18.0834  -12.3352 C   0  0  0  0  0  0
   -2.8208  -19.5515  -12.6675 C   0  0  0  0  0  0
   -1.9518  -20.1987  -11.5688 C   0  0  0  0  0  0
   -2.5606  -20.0256  -10.1624 C   0  0  0  0  0  0
   -2.9000  -18.5506   -9.8726 C   0  0  0  0  0  0
   -5.5877  -14.8437   -9.0565 C   0  0  2  0  0  0
   -4.4105  -13.9867   -8.5263 C   0  0  0  0  0  0
   -3.2515  -14.4083   -8.4949 O   0  0  0  0  0  0
   -4.8016  -12.7610   -8.0929 O   0  0  0  0  0  0
   -3.8680  -11.8125   -7.5837 C   0  0  0  0  0  0
   -4.5543  -11.0663   -6.4357 C   0  0  0  0  0  0
   -3.4202  -10.8701   -8.7123 C   0  0  0  0  0  0
   -6.6378  -14.7916   -8.0868 O   0  0  0  0  0  0
   -9.5326  -17.6872  -11.4079 O   0  0  0  0  0  0
  -11.0691  -18.1316  -11.0978 P   0  0  1  0  0  0
  -11.2573  -19.5800  -10.8202 O   0  0  0  0  0  0
  -11.6696  -16.8560   -9.8995 C   0  0  0  0  0  0
  -10.8528  -16.6857   -8.6060 C   0  0  0  0  0  0
  -11.6491  -16.0127   -7.4636 C   0  0  0  0  0  0
  -12.0362  -14.5505   -7.6890 C   0  0  0  0  0  0
  -13.3594  -14.1448   -7.4906 C   0  0  0  0  0  0
  -13.7071  -12.8017   -7.6206 C   0  0  0  0  0  0
  -12.7305  -11.8643   -7.9413 C   0  0  0  0  0  0
  -11.4134  -12.2573   -8.1533 C   0  0  0  0  0  0
  -11.0688  -13.6006   -8.0322 C   0  0  0  0  0  0
  -11.8671  -17.6629  -12.4210 O   0  0  0  0  0  0
   -8.8105  -18.1959   -9.5386 H   0  0  0  0  0  0
   -4.7336  -16.7398   -8.5448 H   0  0  0  0  0  0
   -5.9606  -14.3454   -9.9523 H   0  0  0  0  0  0
   -7.2433  -23.1441  -12.8430 H   0  0  0  0  0  0
   -7.7546  -22.3807  -11.3447 H   0  0  0  0  0  0
   -8.6712  -22.1159  -12.8210 H   0  0  0  0  0  0
   -6.5233  -21.0398  -13.8072 H   0  0  0  0  0  0
   -5.8425  -21.1039  -12.2045 H   0  0  0  0  0  0
   -8.2690  -19.4929  -13.1204 H   0  0  0  0  0  0
   -6.7194  -18.8634  -12.6647 H   0  0  0  0  0  0
   -7.1373  -19.8198  -10.3046 H   0  0  0  0  0  0
   -8.7322  -20.2424  -10.8141 H   0  0  0  0  0  0
   -6.5274  -17.9386   -8.9586 H   0  0  0  0  0  0
   -3.3475  -15.9067  -10.4804 H   0  0  0  0  0  0
   -4.7222  -16.0605  -11.5164 H   0  0  0  0  0  0
   -4.7343  -18.5844  -10.9920 H   0  0  0  0  0  0
   -2.2685  -17.4655  -12.3755 H   0  0  0  0  0  0
   -3.8178  -17.6707  -13.1055 H   0  0  0  0  0  0
   -2.2992  -19.6110  -13.6207 H   0  0  0  0  0  0
   -3.7415  -20.1240  -12.7886 H   0  0  0  0  0  0
   -0.9587  -19.7472  -11.5867 H   0  0  0  0  0  0
   -1.8063  -21.2578  -11.7827 H   0  0  0  0  0  0
   -1.8705  -20.4042   -9.4078 H   0  0  0  0  0  0
   -3.4643  -20.6317  -10.0813 H   0  0  0  0  0  0
   -3.3548  -18.4747   -8.8850 H   0  0  0  0  0  0
   -1.9895  -17.9526   -9.8026 H   0  0  0  0  0  0
   -2.9931  -12.3159   -7.1667 H   0  0  0  0  0  0
   -3.8974  -10.3011   -6.0210 H   0  0  0  0  0  0
   -5.4652  -10.5756   -6.7669 H   0  0  0  0  0  0
   -4.8309  -11.7547   -5.6376 H   0  0  0  0  0  0
   -2.7215  -10.1203   -8.3418 H   0  0  0  0  0  0
   -2.9185  -11.4212   -9.5072 H   0  0  0  0  0  0
   -4.2674  -10.3469   -9.1554 H   0  0  0  0  0  0
   -6.3777  -15.2981   -7.3136 H   0  0  0  0  0  0
  -11.7416  -15.8999  -10.4192 H   0  0  0  0  0  0
  -12.6755  -17.1490   -9.6297 H   0  0  0  0  0  0
  -10.5460  -17.6631   -8.2426 H   0  0  0  0  0  0
   -9.9298  -16.1427   -8.8112 H   0  0  0  0  0  0
  -12.5454  -16.6026   -7.2628 H   0  0  0  0  0  0
  -11.0690  -16.0635   -6.5415 H   0  0  0  0  0  0
  -14.1193  -14.8645   -7.2227 H   0  0  0  0  0  0
  -14.7248  -12.4781   -7.4620 H   0  0  0  0  0  0
  -12.9985  -10.8219   -8.0208 H   0  0  0  0  0  0
  -10.6644  -11.5222   -8.4071 H   0  0  0  0  0  0
  -10.0416  -13.8912   -8.1932 H   0  0  0  0  0  0
  -11.5460  -18.0428  -13.2845 H   0  0  0  0  0  0
  1  2  1  0  0  0
  1 41  1  0  0  0
  1 42  1  0  0  0
  1 43  1  0  0  0
  2  3  1  0  0  0
  2 44  1  0  0  0
  2 45  1  0  0  0
  3  4  1  0  0  0
  3 46  1  0  0  0
  3 47  1  0  0  0
  4  5  1  0  0  0
  4 48  1  0  0  0
  4 49  1  0  0  0
  5 38  1  0  0  0
  5  6  1  0  0  0
  5 25  1  0  0  0
  6  7  2  0  0  0
  6  8  1  0  0  0
  8  9  1  0  0  0
  8 50  1  0  0  0
  9 39  1  0  0  0
  9 10  1  0  0  0
  9 17  1  0  0  0
 10 11  1  0  0  0
 10 51  1  0  0  0
 10 52  1  0  0  0
 11 16  1  0  0  0
 11 12  1  0  0  0
 11 53  1  0  0  0
 12 13  1  0  0  0
 12 54  1  0  0  0
 12 55  1  0  0  0
 13 14  1  0  0  0
 13 56  1  0  0  0
 13 57  1  0  0  0
 14 15  1  0  0  0
 14 58  1  0  0  0
 14 59  1  0  0  0
 15 16  1  0  0  0
 15 60  1  0  0  0
 15 61  1  0  0  0
 16 62  1  0  0  0
 16 63  1  0  0  0
 17 40  1  0  0  0
 17 18  1  0  0  0
 17 24  1  0  0  0
 18 19  2  0  0  0
 18 20  1  0  0  0
 20 21  1  0  0  0
 21 22  1  0  0  0
 21 23  1  0  0  0
 21 64  1  0  0  0
 22 65  1  0  0  0
 22 66  1  0  0  0
 22 67  1  0  0  0
 23 68  1  0  0  0
 23 69  1  0  0  0
 23 70  1  0  0  0
 24 71  1  0  0  0
 25 26  1  0  0  0
 26 27  2  0  0  0
 26 28  1  0  0  0
 26 37  1  0  0  0
 28 29  1  0  0  0
 28 72  1  0  0  0
 28 73  1  0  0  0
 29 30  1  0  0  0
 29 74  1  0  0  0
 29 75  1  0  0  0
 30 31  1  0  0  0
 30 76  1  0  0  0
 30 77  1  0  0  0
 31 36  1  0  0  0
 31 32  2  0  0  0
 32 33  1  0  0  0
 32 78  1  0  0  0
 33 34  2  0  0  0
 33 79  1  0  0  0
 34 35  1  0  0  0
 34 80  1  0  0  0
 35 36  2  0  0  0
 35 81  1  0  0  0
 36 82  1  0  0  0
 37 83  1  0  0  0
M  END
> <s_m_entry_id>
27510

> <s_m_entry_name>
ligand_docking-pose.64

> <s_m_Source_Path>
/home/csk/Desktop/cluster/DUD-E-result/reni

> <s_m_Source_File>
ligand_docking-pose.sdf

> <i_m_Source_File_Index>
64

> <i_lp_mmshare_version>
53161

> <i_f3d_flags>
0

> <r_lp_tautomer_probability>
1

> <s_lp_Force_Field>
OPLS_2005

> <r_lp_Energy>
6.145016

> <b_lp_Chiralities_Consistent>
1

> <s_lp_Variant>
243590-1

> <s_i_glide_gridfile>
glide-grid_3g6z

> <i_i_glide_lignum>
382

> <i_i_glide_rotatable_bonds>
20

> <r_i_docking_score>
-7.50168759805615

> <r_i_glide_ligand_efficiency>
-0.202748313460977

> <r_i_glide_ligand_efficiency_sa>
-0.675602359685849

> <r_i_glide_ligand_efficiency_ln>
-1.62694017550925

> <r_i_glide_gscore>
-7.50168759805615

> <r_i_glide_lipo>
-4.11849223260686

> <r_i_glide_hbond>
0

> <r_i_glide_metal>
0

> <r_i_glide_rewards>
-0.851989753881232

> <r_i_glide_evdw>
-44.8939018249512

> <r_i_glide_ecoul>
-8.50427150726318

> <r_i_glide_erotb>
0.993694165131254

> <r_i_glide_esite>
-0.00456395936227724

> <r_i_glide_emodel>
-72.7530711689061

> <r_i_glide_energy>
-53.3981733322144

> <r_i_glide_einternal>
9.86872577667236

> <i_i_glide_confnum>
35

> <i_i_glide_posenum>
76

> <r_i_glide_eff_state_penalty>
0

> <s_user_duplicate_titles>
243590

> <s_m_subgroup_title>
dock_pv

> <s_m_subgroupid>
dock_pv1

> <b_m_subgroup_collapsed>
0

$$$$
84580
                    3D
 Schrodinger Suite 2021-1.
 81 84  0  0  1  0            999 V2000
   -2.6447  -12.6897  -12.5024 C   0  0  0  0  0  0
   -3.9333  -12.2686  -11.7676 C   0  0  0  0  0  0
   -3.5930  -11.7557  -10.3535 C   0  0  0  0  0  0
   -5.0561  -13.3466  -11.7585 C   0  0  2  0  0  0
   -4.7114  -14.6614  -10.9981 C   0  0  0  0  0  0
   -5.7721  -15.8085  -10.9883 C   0  0  1  0  0  0
   -7.2880  -15.4206  -10.7884 C   0  0  2  0  0  0
   -7.7358  -14.8814   -9.3924 C   0  0  0  0  0  0
   -6.8334  -13.8572   -8.6769 C   0  0  0  0  0  0
   -7.6590  -12.7898   -7.9451 C   0  0  0  0  0  0
   -6.7715  -11.7381   -7.2638 C   0  0  0  0  0  0
   -5.7200  -12.4011   -6.3516 C   0  0  0  0  0  0
   -4.9103  -13.4879   -7.0833 C   0  0  0  0  0  0
   -5.8673  -14.5331   -7.6749 C   0  0  0  0  0  0
   -8.1912  -16.5048  -11.2204 N   0  0  0  0  0  0
   -8.3758  -17.6823  -10.5917 C   0  0  0  0  0  0
   -7.9516  -17.9574   -9.4690 O   0  0  0  0  0  0
   -9.0826  -18.7602  -11.4292 C   0  0  2  0  0  0
   -9.7371  -19.8916  -10.5780 C   0  0  0  0  0  0
  -11.1169  -20.3226  -11.0109 C   0  0  0  0  0  0
  -12.2688  -19.5982  -11.2209 C   0  0  0  0  0  0
  -13.3242  -20.4558  -11.5509 N   0  0  0  0  0  0
  -12.7718  -21.6632  -11.5399 C   0  0  0  0  0  0
  -11.4730  -21.6453  -11.2214 N   0  0  0  0  0  0
   -8.1302  -19.2744  -12.4208 N   0  0  0  0  0  0
   -6.9987  -19.9591  -12.1737 C   0  0  0  0  0  0
   -6.6934  -20.3699  -11.0502 O   0  0  0  0  0  0
   -6.0406  -20.1754  -13.3675 C   0  0  2  0  0  0
   -5.4171  -21.5915  -13.3431 C   0  0  0  0  0  0
   -4.0256  -21.3540  -12.8211 C   0  0  0  0  0  0
   -3.0045  -22.2550  -12.5123 C   0  0  0  0  0  0
   -1.7396  -21.7681  -12.1752 C   0  0  0  0  0  0
   -1.4935  -20.3920  -12.1643 C   0  0  0  0  0  0
   -2.5145  -19.4967  -12.4877 C   0  0  0  0  0  0
   -3.7814  -19.9857  -12.8040 C   0  0  0  0  0  0
   -4.9015  -19.2629  -13.2209 N   0  0  0  0  0  0
   -5.6015  -16.4689  -12.2369 O   0  0  0  0  0  0
   -5.4700  -13.6532  -13.0630 O   0  0  0  0  0  0
   -5.9364  -12.8680  -11.3384 H   0  0  0  0  0  0
   -5.4987  -16.5390  -10.2251 H   0  0  0  0  0  0
   -7.4963  -14.6157  -11.4940 H   0  0  0  0  0  0
   -9.8708  -18.2459  -11.9814 H   0  0  0  0  0  0
  -10.8607  -22.4444  -11.1517 H   0  0  0  0  0  0
   -2.2104  -13.5971  -12.0840 H   0  0  0  0  0  0
   -2.8167  -12.8590  -13.5658 H   0  0  0  0  0  0
   -1.8822  -11.9129  -12.4219 H   0  0  0  0  0  0
   -4.3322  -11.4105  -12.3137 H   0  0  0  0  0  0
   -3.0659  -12.5118   -9.7722 H   0  0  0  0  0  0
   -2.9495  -10.8773  -10.3933 H   0  0  0  0  0  0
   -4.4851  -11.4687   -9.7985 H   0  0  0  0  0  0
   -4.4383  -14.4162   -9.9768 H   0  0  0  0  0  0
   -3.7810  -15.0681  -11.3986 H   0  0  0  0  0  0
   -7.9128  -15.6917   -8.6895 H   0  0  0  0  0  0
   -8.7286  -14.4520   -9.5347 H   0  0  0  0  0  0
   -6.2454  -13.2997   -9.3856 H   0  0  0  0  0  0
   -8.3016  -13.2633   -7.2210 H   0  0  0  0  0  0
   -8.3457  -12.3158   -8.6383 H   0  0  0  0  0  0
   -7.4063  -11.0671   -6.6844 H   0  0  0  0  0  0
   -6.2680  -11.1356   -8.0195 H   0  0  0  0  0  0
   -6.2484  -12.8630   -5.5127 H   0  0  0  0  0  0
   -5.0533  -11.6447   -5.9386 H   0  0  0  0  0  0
   -4.1883  -13.9628   -6.4221 H   0  0  0  0  0  0
   -4.3159  -13.0303   -7.8729 H   0  0  0  0  0  0
   -5.2975  -15.3271   -8.1561 H   0  0  0  0  0  0
   -6.4255  -15.0542   -6.8931 H   0  0  0  0  0  0
   -8.5494  -16.4240  -12.1625 H   0  0  0  0  0  0
   -9.1021  -20.7722  -10.5051 H   0  0  0  0  0  0
   -9.8653  -19.5524   -9.5522 H   0  0  0  0  0  0
  -12.4123  -18.5295  -11.1461 H   0  0  0  0  0  0
  -13.3232  -22.5663  -11.7609 H   0  0  0  0  0  0
   -8.2703  -18.9082  -13.3637 H   0  0  0  0  0  0
   -6.5906  -19.9828  -14.2928 H   0  0  0  0  0  0
   -5.9796  -22.3071  -12.7396 H   0  0  0  0  0  0
   -5.3845  -21.9928  -14.3566 H   0  0  0  0  0  0
   -3.1743  -23.3209  -12.5507 H   0  0  0  0  0  0
   -0.9442  -22.4585  -11.9312 H   0  0  0  0  0  0
   -0.5104  -20.0223  -11.9156 H   0  0  0  0  0  0
   -2.3164  -18.4356  -12.4958 H   0  0  0  0  0  0
   -5.2191  -18.3667  -12.8577 H   0  0  0  0  0  0
   -5.7464  -15.8155  -12.9290 H   0  0  0  0  0  0
   -4.7096  -14.0249  -13.5398 H   0  0  0  0  0  0
  1  2  1  0  0  0
  1 44  1  0  0  0
  1 45  1  0  0  0
  1 46  1  0  0  0
  2  3  1  0  0  0
  2  4  1  0  0  0
  2 47  1  0  0  0
  3 48  1  0  0  0
  3 49  1  0  0  0
  3 50  1  0  0  0
  4 39  1  0  0  0
  4  5  1  0  0  0
  4 38  1  0  0  0
  5  6  1  0  0  0
  5 51  1  0  0  0
  5 52  1  0  0  0
  6 40  1  0  0  0
  6  7  1  0  0  0
  6 37  1  0  0  0
  7 41  1  0  0  0
  7  8  1  0  0  0
  7 15  1  0  0  0
  8  9  1  0  0  0
  8 53  1  0  0  0
  8 54  1  0  0  0
  9 14  1  0  0  0
  9 10  1  0  0  0
  9 55  1  0  0  0
 10 11  1  0  0  0
 10 56  1  0  0  0
 10 57  1  0  0  0
 11 12  1  0  0  0
 11 58  1  0  0  0
 11 59  1  0  0  0
 12 13  1  0  0  0
 12 60  1  0  0  0
 12 61  1  0  0  0
 13 14  1  0  0  0
 13 62  1  0  0  0
 13 63  1  0  0  0
 14 64  1  0  0  0
 14 65  1  0  0  0
 15 16  1  0  0  0
 15 66  1  0  0  0
 16 17  2  0  0  0
 16 18  1  0  0  0
 18 42  1  0  0  0
 18 19  1  0  0  0
 18 25  1  0  0  0
 19 67  1  0  0  0
 19 68  1  0  0  0
 19 20  1  0  0  0
 20 21  2  0  0  0
 20 24  1  0  0  0
 21 69  1  0  0  0
 21 22  1  0  0  0
 22 23  2  0  0  0
 23 24  1  0  0  0
 23 70  1  0  0  0
 24 43  1  0  0  0
 25 26  1  0  0  0
 25 71  1  0  0  0
 26 27  2  0  0  0
 26 28  1  0  0  0
 28 36  1  0  0  0
 28 29  1  0  0  0
 28 72  1  0  0  0
 29 30  1  0  0  0
 29 73  1  0  0  0
 29 74  1  0  0  0
 30 35  2  0  0  0
 30 31  1  0  0  0
 31 32  2  0  0  0
 31 75  1  0  0  0
 32 33  1  0  0  0
 32 76  1  0  0  0
 33 34  2  0  0  0
 33 77  1  0  0  0
 34 35  1  0  0  0
 34 78  1  0  0  0
 35 36  1  0  0  0
 36 79  1  0  0  0
 37 80  1  0  0  0
 38 81  1  0  0  0
M  END
> <s_m_entry_id>
27511

> <s_m_entry_name>
ligand_docking-pose.65

> <s_m_Source_Path>
/home/csk/Desktop/cluster/DUD-E-result/reni

> <s_m_Source_File>
ligand_docking-pose.sdf

> <i_m_Source_File_Index>
65

> <i_lp_mmshare_version>
53161

> <i_f3d_flags>
0

> <r_lp_tautomer_probability>
0.499999999999999

> <s_lp_Force_Field>
OPLS_2005

> <r_lp_Energy>
38.492699

> <b_lp_Chiralities_Consistent>
1

> <s_lp_Variant>
84580-3

> <s_i_glide_gridfile>
glide-grid_3g6z

> <i_i_glide_lignum>
434

> <i_i_glide_rotatable_bonds>
16

> <r_i_docking_score>
-7.48860102880855

> <r_i_glide_ligand_efficiency>
-0.197068448126541

> <r_i_glide_ligand_efficiency_sa>
-0.66253927525412

> <r_i_glide_ligand_efficiency_ln>
-1.61476267413442

> <r_i_glide_gscore>
-7.48860102880855

> <r_i_glide_lipo>
-2.73332456161693

> <r_i_glide_hbond>
-0.405141516072192

> <r_i_glide_metal>
0

> <r_i_glide_rewards>
-0.690864579996214

> <r_i_glide_evdw>
-36.1345977783203

> <r_i_glide_ecoul>
-15.8901605606079

> <r_i_glide_erotb>
0.744883012668584

> <r_i_glide_esite>
-0.213899410784601

> <r_i_glide_emodel>
-69.6260404547819

> <r_i_glide_energy>
-52.0247583389282

> <r_i_glide_einternal>
16.1482238769531

> <i_i_glide_confnum>
118

> <i_i_glide_posenum>
360

> <r_i_glide_eff_state_penalty>
0

> <s_user_duplicate_titles>
84580

> <s_m_subgroup_title>
dock_pv

> <s_m_subgroupid>
dock_pv1

> <b_m_subgroup_collapsed>
0

$$$$
619488
                    3D
 Schrodinger Suite 2021-1.
 70 73  0  0  1  0            999 V2000
  -10.8540   -8.4589   -6.3651 C   0  0  0  0  0  0
  -11.0707   -9.8854   -6.8245 C   0  0  0  0  0  0
  -12.3387  -10.4637   -6.7567 C   0  0  0  0  0  0
  -12.5423  -11.7833   -7.1410 C   0  0  0  0  0  0
  -11.4568  -12.5596   -7.5523 C   0  0  0  0  0  0
  -10.2025  -11.9562   -7.7047 C   0  0  0  0  0  0
  -10.0104  -10.6238   -7.3413 C   0  0  0  0  0  0
   -8.8376  -12.8654   -8.2594 Cl  0  0  0  0  0  0
  -11.6210  -13.9079   -7.7511 O   0  0  0  0  0  0
  -11.7692  -14.2686   -9.1056 C   0  0  0  0  0  0
  -12.5023  -15.5934   -9.2333 C   0  0  0  0  0  0
  -11.8014  -16.8252   -8.6438 C   0  0  0  0  0  0
  -10.5037  -17.2364   -9.3295 C   0  0  0  0  0  0
  -10.4314  -17.3072  -10.7236 C   0  0  0  0  0  0
   -9.2734  -17.7600  -11.3407 C   0  0  0  0  0  0
   -8.1876  -18.1749  -10.5676 C   0  0  0  0  0  0
   -8.2569  -18.1036   -9.1728 C   0  0  0  0  0  0
   -9.4047  -17.6192   -8.5528 C   0  0  0  0  0  0
   -6.9558  -18.7533  -11.2589 C   0  0  0  0  0  0
   -5.7643  -17.7696  -11.4569 C   0  0  2  0  0  0
   -4.6403  -18.4430  -12.2867 C   0  0  0  0  0  0
   -5.0603  -18.6495  -13.6627 N   0  0  0  0  0  0
   -5.2221  -17.2973  -10.0799 C   0  0  0  0  0  0
   -4.5389  -18.1094   -9.4498 O   0  0  0  0  0  0
   -5.5452  -16.0759   -9.5600 N   0  0  0  0  0  0
   -6.0075  -14.9369  -10.3883 C   0  0  0  0  0  0
   -4.9044  -14.0087  -10.9327 C   0  0  0  0  0  0
   -3.6321  -13.9856  -10.3351 C   0  0  0  0  0  0
   -2.6594  -13.0855  -10.7520 C   0  0  0  0  0  0
   -2.9333  -12.2281  -11.8062 C   0  0  0  0  0  0
   -4.1456  -12.2812  -12.4715 C   0  0  0  0  0  0
   -5.1574  -13.1491  -12.0229 C   0  0  0  0  0  0
   -6.7053  -13.1532  -12.8047 Cl  0  0  0  0  0  0
   -4.2845  -11.2653  -13.8639 Cl  0  0  0  0  0  0
   -5.2073  -15.8025   -8.1387 C   0  0  0  0  0  0
   -5.2858  -14.4067   -7.5376 C   0  0  0  0  0  0
   -6.3157  -15.4393   -7.1770 C   0  0  0  0  0  0
  -14.1396  -12.4325   -7.0984 Cl  0  0  0  0  0  0
  -11.7679   -7.8661   -6.4450 H   0  0  0  0  0  0
  -10.5091   -8.4497   -5.3299 H   0  0  0  0  0  0
  -10.1012   -7.9690   -6.9824 H   0  0  0  0  0  0
  -13.1767   -9.8788   -6.4091 H   0  0  0  0  0  0
   -9.0298  -10.1783   -7.4327 H   0  0  0  0  0  0
  -10.7964  -14.3337   -9.5874 H   0  0  0  0  0  0
  -12.3696  -13.5185   -9.6207 H   0  0  0  0  0  0
  -12.6691  -15.7509  -10.2937 H   0  0  0  0  0  0
  -13.4797  -15.4914   -8.7670 H   0  0  0  0  0  0
  -12.4895  -17.6609   -8.7576 H   0  0  0  0  0  0
  -11.6492  -16.6849   -7.5716 H   0  0  0  0  0  0
  -11.2742  -17.0437  -11.3465 H   0  0  0  0  0  0
   -9.2384  -17.8151  -12.4199 H   0  0  0  0  0  0
   -7.4258  -18.4287   -8.5662 H   0  0  0  0  0  0
   -9.4481  -17.5793   -7.4717 H   0  0  0  0  0  0
   -7.2807  -19.1487  -12.2221 H   0  0  0  0  0  0
   -6.6306  -19.6311  -10.6972 H   0  0  0  0  0  0
   -6.1086  -16.9375  -12.0620 H   0  0  0  0  0  0
   -3.7359  -17.8316  -12.2916 H   0  0  0  0  0  0
   -4.3614  -19.4039  -11.8497 H   0  0  0  0  0  0
   -6.0252  -18.9617  -13.6834 H   0  0  0  0  0  0
   -5.0748  -17.7604  -14.1537 H   0  0  0  0  0  0
   -6.6983  -14.3317   -9.8033 H   0  0  0  0  0  0
   -6.6271  -15.2768  -11.2118 H   0  0  0  0  0  0
   -3.3806  -14.6469   -9.5218 H   0  0  0  0  0  0
   -1.6947  -13.0556  -10.2666 H   0  0  0  0  0  0
   -2.2162  -11.5086  -12.1448 H   0  0  0  0  0  0
   -4.3904  -16.4207   -7.7533 H   0  0  0  0  0  0
   -4.5063  -14.1413   -6.8248 H   0  0  0  0  0  0
   -5.5803  -13.5468   -8.1361 H   0  0  0  0  0  0
   -7.3257  -15.3563   -7.5737 H   0  0  0  0  0  0
   -6.2933  -15.8770   -6.1780 H   0  0  0  0  0  0
  1  2  1  0  0  0
  1 39  1  0  0  0
  1 40  1  0  0  0
  1 41  1  0  0  0
  2  7  1  0  0  0
  2  3  2  0  0  0
  3  4  1  0  0  0
  3 42  1  0  0  0
  4  5  2  0  0  0
  4 38  1  0  0  0
  5  6  1  0  0  0
  5  9  1  0  0  0
  6  7  2  0  0  0
  6  8  1  0  0  0
  7 43  1  0  0  0
  9 10  1  0  0  0
 10 11  1  0  0  0
 10 44  1  0  0  0
 10 45  1  0  0  0
 11 12  1  0  0  0
 11 46  1  0  0  0
 11 47  1  0  0  0
 12 13  1  0  0  0
 12 48  1  0  0  0
 12 49  1  0  0  0
 13 18  1  0  0  0
 13 14  2  0  0  0
 14 15  1  0  0  0
 14 50  1  0  0  0
 15 16  2  0  0  0
 15 51  1  0  0  0
 16 17  1  0  0  0
 16 19  1  0  0  0
 17 18  2  0  0  0
 17 52  1  0  0  0
 18 53  1  0  0  0
 19 20  1  0  0  0
 19 54  1  0  0  0
 19 55  1  0  0  0
 20 21  1  0  0  0
 20 23  1  0  0  0
 20 56  1  0  0  0
 21 22  1  0  0  0
 21 57  1  0  0  0
 21 58  1  0  0  0
 22 59  1  0  0  0
 22 60  1  0  0  0
 23 24  2  0  0  0
 23 25  1  0  0  0
 25 26  1  0  0  0
 25 35  1  0  0  0
 26 27  1  0  0  0
 26 61  1  0  0  0
 26 62  1  0  0  0
 27 32  1  0  0  0
 27 28  2  0  0  0
 28 29  1  0  0  0
 28 63  1  0  0  0
 29 30  2  0  0  0
 29 64  1  0  0  0
 30 31  1  0  0  0
 30 65  1  0  0  0
 31 32  2  0  0  0
 31 34  1  0  0  0
 32 33  1  0  0  0
 35 37  1  0  0  0
 35 36  1  0  0  0
 35 66  1  0  0  0
 36 37  1  0  0  0
 36 67  1  0  0  0
 36 68  1  0  0  0
 37 69  1  0  0  0
 37 70  1  0  0  0
M  END
> <s_m_entry_id>
27512

> <s_m_entry_name>
ligand_docking-pose.66

> <s_m_Source_Path>
/home/csk/Desktop/cluster/DUD-E-result/reni

> <s_m_Source_File>
ligand_docking-pose.sdf

> <i_m_Source_File_Index>
66

> <i_lp_mmshare_version>
53161

> <i_f3d_flags>
0

> <r_lp_tautomer_probability>
1

> <s_lp_Force_Field>
OPLS_2005

> <r_lp_Energy>
46.90115

> <b_lp_Chiralities_Consistent>
1

> <s_lp_Variant>
619488-1

> <s_i_glide_gridfile>
glide-grid_3g6z

> <i_i_glide_lignum>
38

> <i_i_glide_rotatable_bonds>
13

> <r_i_docking_score>
-7.48729230025501

> <r_i_glide_ligand_efficiency>
-0.197034007901448

> <r_i_glide_ligand_efficiency_sa>
-0.662423488064492

> <r_i_glide_ligand_efficiency_ln>
-1.61448047375938

> <r_i_glide_gscore>
-7.48729230025501

> <r_i_glide_lipo>
-4.53717962680257

> <r_i_glide_hbond>
-0.32

> <r_i_glide_metal>
0

> <r_i_glide_rewards>
0.365789013199349

> <r_i_glide_evdw>
-48.9597473144531

> <r_i_glide_ecoul>
-7.65430641174316

> <r_i_glide_erotb>
0.600231640832345

> <r_i_glide_esite>
0

> <r_i_glide_emodel>
-67.7486723243836

> <r_i_glide_energy>
-56.6140537261963

> <r_i_glide_einternal>
13.827205657959

> <i_i_glide_confnum>
7

> <i_i_glide_posenum>
13

> <r_i_glide_eff_state_penalty>
0

> <s_user_duplicate_titles>
619488

> <s_m_subgroup_title>
dock_pv

> <s_m_subgroupid>
dock_pv1

> <b_m_subgroup_collapsed>
0

$$$$
116471
                    3D
 Schrodinger Suite 2021-1.
 91 92  0  0  1  0            999 V2000
   -3.6463  -17.2627  -10.3948 C   0  0  0  0  0  0
   -3.0380  -18.1141  -11.5267 C   0  0  0  0  0  0
   -1.5170  -17.8858  -11.6032 C   0  0  0  0  0  0
   -3.6999  -17.8779  -12.9136 C   0  0  0  0  0  0
   -5.2335  -18.1085  -13.0543 C   0  0  1  0  0  0
   -5.7172  -19.4857  -12.4822 C   0  0  1  0  0  0
   -7.2491  -19.8229  -12.4635 C   0  0  1  0  0  0
   -7.5184  -21.2262  -11.8145 C   0  0  0  0  0  0
   -8.9553  -21.8133  -11.8536 C   0  0  0  0  0  0
   -9.9669  -21.0735  -10.9578 C   0  0  0  0  0  0
   -8.9324  -23.3082  -11.4784 C   0  0  0  0  0  0
   -8.0673  -18.7555  -11.8825 N   0  0  0  0  0  0
   -8.0001  -18.3193  -10.6121 C   0  0  0  0  0  0
   -7.2680  -18.8104   -9.7515 O   0  0  0  0  0  0
   -8.9531  -17.1741  -10.2451 C   0  0  1  0  0  0
   -9.9682  -17.6682   -9.1916 C   0  0  0  0  0  0
  -11.0163  -16.7007   -8.7227 C   0  0  0  0  0  0
  -11.4302  -16.4555   -7.4306 C   0  0  0  0  0  0
  -12.4920  -15.5790   -7.5228 N   0  0  0  0  0  0
  -12.6546  -15.3087   -8.8196 C   0  0  0  0  0  0
  -11.8082  -15.9605   -9.6020 N   0  0  0  0  0  0
   -8.2464  -15.9437   -9.8650 N   0  0  0  0  0  0
   -7.4867  -15.6863   -8.7829 C   0  0  0  0  0  0
   -7.3159  -16.4632   -7.8455 O   0  0  0  0  0  0
   -6.8210  -14.2825   -8.7512 C   0  0  2  0  0  0
   -5.3937  -14.3372   -8.1304 C   0  0  0  0  0  0
   -4.6584  -13.0087   -8.0287 C   0  0  0  0  0  0
   -4.8464  -12.1697   -6.9067 C   0  0  0  0  0  0
   -4.2659  -10.9092   -6.8778 C   0  0  0  0  0  0
   -3.5133  -10.4635   -7.9531 C   0  0  0  0  0  0
   -3.3439  -11.2621   -9.0760 C   0  0  0  0  0  0
   -3.9223  -12.5220   -9.1300 C   0  0  0  0  0  0
   -7.5927  -13.2615   -8.0192 N   0  0  0  0  0  0
   -8.8700  -12.8629   -8.3824 C   0  0  0  0  0  0
   -9.5836  -13.3936   -9.2205 O   0  0  0  0  0  0
   -9.2173  -11.7594   -7.6243 O   0  0  0  0  0  0
  -10.5590  -11.2628   -7.4447 C   0  0  0  0  0  0
  -10.4280  -10.1654   -6.3695 C   0  0  0  0  0  0
  -11.5077  -12.3647   -6.9260 C   0  0  0  0  0  0
  -11.1478  -10.6332   -8.7228 C   0  0  0  0  0  0
   -5.0395  -20.4933  -13.2181 O   0  0  0  0  0  0
   -5.8751  -16.9725  -12.5021 O   0  0  0  0  0  0
   -5.4809  -18.0871  -14.1177 H   0  0  0  0  0  0
   -5.3723  -19.5537  -11.4512 H   0  0  0  0  0  0
   -3.5910  -16.1978  -10.6261 H   0  0  0  0  0  0
   -4.6933  -17.5099  -10.2172 H   0  0  0  0  0  0
   -3.1255  -17.4262   -9.4512 H   0  0  0  0  0  0
   -3.1745  -19.1623  -11.2596 H   0  0  0  0  0  0
   -1.2808  -16.8419  -11.8159 H   0  0  0  0  0  0
   -1.0332  -18.1460  -10.6605 H   0  0  0  0  0  0
   -1.0589  -18.4979  -12.3819 H   0  0  0  0  0  0
   -3.1974  -18.5114  -13.6453 H   0  0  0  0  0  0
   -3.4703  -16.8629  -13.2217 H   0  0  0  0  0  0
   -7.5689  -19.8739  -13.5067 H   0  0  0  0  0  0
   -6.8789  -21.9551  -12.3107 H   0  0  0  0  0  0
   -7.1758  -21.2149  -10.7787 H   0  0  0  0  0  0
   -9.3098  -21.7576  -12.8809 H   0  0  0  0  0  0
   -9.5843  -20.9524   -9.9426 H   0  0  0  0  0  0
  -10.2041  -20.0868  -11.3511 H   0  0  0  0  0  0
  -10.9152  -21.6068  -10.8920 H   0  0  0  0  0  0
   -8.5701  -23.4570  -10.4600 H   0  0  0  0  0  0
   -9.9267  -23.7503  -11.5443 H   0  0  0  0  0  0
   -8.2863  -23.8767  -12.1472 H   0  0  0  0  0  0
   -8.6562  -18.2617  -12.5449 H   0  0  0  0  0  0
   -9.5231  -16.9055  -11.1368 H   0  0  0  0  0  0
  -10.5321  -18.4936   -9.6238 H   0  0  0  0  0  0
   -9.4559  -18.0803   -8.3208 H   0  0  0  0  0  0
  -13.0338  -15.2049   -6.7584 H   0  0  0  0  0  0
  -11.0705  -16.8368   -6.4876 H   0  0  0  0  0  0
  -13.4067  -14.6313   -9.1896 H   0  0  0  0  0  0
   -8.3640  -15.1883  -10.5234 H   0  0  0  0  0  0
   -6.7170  -13.9297   -9.7815 H   0  0  0  0  0  0
   -4.7689  -15.0264   -8.7009 H   0  0  0  0  0  0
   -5.4396  -14.7552   -7.1222 H   0  0  0  0  0  0
   -5.4388  -12.4985   -6.0639 H   0  0  0  0  0  0
   -4.4061  -10.2666   -6.0210 H   0  0  0  0  0  0
   -3.0742   -9.4798   -7.9165 H   0  0  0  0  0  0
   -2.7748  -10.8938   -9.9163 H   0  0  0  0  0  0
   -3.8037  -13.1285  -10.0161 H   0  0  0  0  0  0
   -7.1704  -12.8392   -7.2075 H   0  0  0  0  0  0
   -9.7148   -9.3971   -6.6711 H   0  0  0  0  0  0
  -11.3839   -9.6734   -6.1846 H   0  0  0  0  0  0
  -10.0760  -10.5650   -5.4212 H   0  0  0  0  0  0
  -11.7252  -13.0738   -7.7190 H   0  0  0  0  0  0
  -11.0784  -12.9226   -6.0961 H   0  0  0  0  0  0
  -12.4583  -11.9537   -6.5863 H   0  0  0  0  0  0
  -11.0694  -11.2651   -9.6057 H   0  0  0  0  0  0
  -12.2140  -10.4629   -8.5830 H   0  0  0  0  0  0
  -10.6777   -9.6771   -8.9493 H   0  0  0  0  0  0
   -5.2080  -21.3402  -12.7953 H   0  0  0  0  0  0
   -5.5411  -16.1908  -12.9488 H   0  0  0  0  0  0
  1  2  1  0  0  0
  1 45  1  0  0  0
  1 46  1  0  0  0
  1 47  1  0  0  0
  2  3  1  0  0  0
  2  4  1  0  0  0
  2 48  1  0  0  0
  3 49  1  0  0  0
  3 50  1  0  0  0
  3 51  1  0  0  0
  4  5  1  0  0  0
  4 52  1  0  0  0
  4 53  1  0  0  0
  5 43  1  0  0  0
  5  6  1  0  0  0
  5 42  1  0  0  0
  6 44  1  0  0  0
  6  7  1  0  0  0
  6 41  1  0  0  0
  7  8  1  0  0  0
  7 12  1  0  0  0
  7 54  1  0  0  0
  8  9  1  0  0  0
  8 55  1  0  0  0
  8 56  1  0  0  0
  9 10  1  0  0  0
  9 11  1  0  0  0
  9 57  1  0  0  0
 10 58  1  0  0  0
 10 59  1  0  0  0
 10 60  1  0  0  0
 11 61  1  0  0  0
 11 62  1  0  0  0
 11 63  1  0  0  0
 12 13  1  0  0  0
 12 64  1  0  0  0
 13 14  2  0  0  0
 13 15  1  0  0  0
 15 16  1  0  0  0
 15 22  1  0  0  0
 15 65  1  0  0  0
 16 66  1  0  0  0
 16 67  1  0  0  0
 16 17  1  0  0  0
 17 18  2  0  0  0
 17 21  1  0  0  0
 18 69  1  0  0  0
 18 19  1  0  0  0
 19 68  1  0  0  0
 19 20  1  0  0  0
 20 70  1  0  0  0
 20 21  2  0  0  0
 22 23  1  0  0  0
 22 71  1  0  0  0
 23 24  2  0  0  0
 23 25  1  0  0  0
 25 26  1  0  0  0
 25 33  1  0  0  0
 25 72  1  0  0  0
 26 27  1  0  0  0
 26 73  1  0  0  0
 26 74  1  0  0  0
 27 32  1  0  0  0
 27 28  2  0  0  0
 28 29  1  0  0  0
 28 75  1  0  0  0
 29 30  2  0  0  0
 29 76  1  0  0  0
 30 31  1  0  0  0
 30 77  1  0  0  0
 31 32  2  0  0  0
 31 78  1  0  0  0
 32 79  1  0  0  0
 33 34  1  0  0  0
 33 80  1  0  0  0
 34 35  2  0  0  0
 34 36  1  0  0  0
 36 37  1  0  0  0
 37 38  1  0  0  0
 37 39  1  0  0  0
 37 40  1  0  0  0
 38 81  1  0  0  0
 38 82  1  0  0  0
 38 83  1  0  0  0
 39 84  1  0  0  0
 39 85  1  0  0  0
 39 86  1  0  0  0
 40 87  1  0  0  0
 40 88  1  0  0  0
 40 89  1  0  0  0
 41 90  1  0  0  0
 42 91  1  0  0  0
M  END
> <s_m_entry_id>
27514

> <s_m_entry_name>
ligand_docking-pose.68

> <s_m_Source_Path>
/home/csk/Desktop/cluster/DUD-E-result/reni

> <s_m_Source_File>
ligand_docking-pose.sdf

> <i_m_Source_File_Index>
68

> <i_lp_mmshare_version>
53161

> <i_f3d_flags>
0

> <r_lp_tautomer_probability>
0.499999999999999

> <s_lp_Force_Field>
OPLS_2005

> <r_lp_Energy>
21.750444

> <b_lp_Chiralities_Consistent>
1

> <s_lp_Variant>
116471-12

> <s_i_glide_gridfile>
glide-grid_3g6z

> <i_i_glide_lignum>
318

> <i_i_glide_rotatable_bonds>
22

> <r_i_docking_score>
-7.46420924351139

> <r_i_glide_ligand_efficiency>
-0.177719267702652

> <r_i_glide_ligand_efficiency_sa>
-0.61775690907447

> <r_i_glide_ligand_efficiency_ln>
-1.57550227113894

> <r_i_glide_gscore>
-7.46420924351139

> <r_i_glide_lipo>
-3.57426851654976

> <r_i_glide_hbond>
-0.336396812328093

> <r_i_glide_metal>
0

> <r_i_glide_rewards>
-1.01626983987779

> <r_i_glide_evdw>
-44.7162780761719

> <r_i_glide_ecoul>
-6.85844802856445

> <r_i_glide_erotb>
0.80277432278248

> <r_i_glide_esite>
-0.07546728944497

> <r_i_glide_emodel>
-65.0865694046091

> <r_i_glide_energy>
-51.5747261047363

> <r_i_glide_einternal>
15.0689086914062

> <i_i_glide_confnum>
108

> <i_i_glide_posenum>
296

> <r_i_glide_eff_state_penalty>
0

> <s_user_duplicate_titles>
116471

> <s_m_subgroup_title>
dock_pv

> <s_m_subgroupid>
dock_pv1

> <b_m_subgroup_collapsed>
0

$$$$
405766
                    3D
 Schrodinger Suite 2021-1.
 52 54  0  0  1  0            999 V2000
   -5.9993  -12.7085   -7.1195 C   0  0  0  0  0  0
   -5.8123  -14.0774   -7.7944 C   0  0  0  0  0  0
   -5.6995  -13.9829   -9.3164 C   0  0  0  0  0  0
   -6.7482  -14.3444  -10.1892 C   0  0  0  0  0  0
   -6.4870  -14.1735  -11.5613 C   0  0  0  0  0  0
   -5.3187  -13.6825  -12.0257 N   0  0  0  0  0  0
   -4.3798  -13.3743  -11.1095 C   0  0  0  0  0  0
   -4.5091  -13.5010   -9.7690 N   0  0  0  0  0  0
   -3.1758  -12.8956  -11.6015 N   0  0  0  0  0  0
   -7.4283  -14.4886  -12.5385 N   0  0  0  0  0  0
   -8.0727  -14.8019   -9.7033 C   0  0  0  0  0  0
   -8.4585  -16.1428   -9.7826 C   0  0  0  0  0  0
   -9.7361  -16.5309   -9.3833 C   0  0  0  0  0  0
  -10.6190  -15.5686   -8.9044 C   0  0  0  0  0  0
  -10.2648  -14.2150   -8.7976 C   0  0  0  0  0  0
   -8.9760  -13.8551   -9.2141 C   0  0  0  0  0  0
  -11.2734  -13.2965   -8.3643 N   0  0  0  0  0  0
  -12.4217  -13.6810   -7.7223 C   0  0  0  0  0  0
  -13.3405  -12.9298   -7.3803 O   0  0  0  0  0  0
  -12.4221  -15.2266   -7.4639 C   0  0  2  0  0  0
  -11.8948  -15.9569   -8.5821 O   0  0  0  0  0  0
  -13.8258  -15.7602   -7.1543 C   0  0  0  0  0  0
  -11.0646  -11.8374   -8.5855 C   0  0  0  0  0  0
  -10.0887  -11.1269   -7.6194 C   0  0  0  0  0  0
  -10.6611  -10.7774   -6.2371 C   0  0  0  0  0  0
  -11.6506   -9.7587   -6.2712 O   0  0  0  0  0  0
  -11.1613   -8.4544   -6.5599 C   0  0  0  0  0  0
  -11.7786  -15.3827   -6.5946 H   0  0  0  0  0  0
   -6.1330  -12.8179   -6.0435 H   0  0  0  0  0  0
   -5.1336  -12.0661   -7.2830 H   0  0  0  0  0  0
   -6.8743  -12.1895   -7.5103 H   0  0  0  0  0  0
   -6.6332  -14.7357   -7.5105 H   0  0  0  0  0  0
   -4.9135  -14.5589   -7.4060 H   0  0  0  0  0  0
   -2.4020  -12.8134  -10.9620 H   0  0  0  0  0  0
   -3.0250  -12.9933  -12.5962 H   0  0  0  0  0  0
   -8.2777  -14.9599  -12.2656 H   0  0  0  0  0  0
   -7.1394  -14.4381  -13.5036 H   0  0  0  0  0  0
   -7.7719  -16.8772  -10.1754 H   0  0  0  0  0  0
  -10.0468  -17.5598   -9.4700 H   0  0  0  0  0  0
   -8.6470  -12.8375   -9.2022 H   0  0  0  0  0  0
  -14.2885  -15.2317   -6.3292 H   0  0  0  0  0  0
  -14.4809  -15.6471   -8.0094 H   0  0  0  0  0  0
  -13.7983  -16.8216   -6.9056 H   0  0  0  0  0  0
  -12.0155  -11.3037   -8.5481 H   0  0  0  0  0  0
  -10.7262  -11.6676   -9.6043 H   0  0  0  0  0  0
   -9.7548  -10.2037   -8.0873 H   0  0  0  0  0  0
   -9.1810  -11.7053   -7.4906 H   0  0  0  0  0  0
   -9.8510  -10.4715   -5.5727 H   0  0  0  0  0  0
  -11.0970  -11.6683   -5.7894 H   0  0  0  0  0  0
  -11.9540   -7.7265   -6.3905 H   0  0  0  0  0  0
  -10.8522   -8.3555   -7.6010 H   0  0  0  0  0  0
  -10.3189   -8.1848   -5.9197 H   0  0  0  0  0  0
  1  2  1  0  0  0
  1 29  1  0  0  0
  1 30  1  0  0  0
  1 31  1  0  0  0
  2  3  1  0  0  0
  2 32  1  0  0  0
  2 33  1  0  0  0
  3  8  1  0  0  0
  3  4  2  0  0  0
  4  5  1  0  0  0
  4 11  1  0  0  0
  5  6  2  0  0  0
  5 10  1  0  0  0
  6  7  1  0  0  0
  7  8  2  0  0  0
  7  9  1  0  0  0
  9 34  1  0  0  0
  9 35  1  0  0  0
 10 36  1  0  0  0
 10 37  1  0  0  0
 11 16  1  0  0  0
 11 12  2  0  0  0
 12 13  1  0  0  0
 12 38  1  0  0  0
 13 14  2  0  0  0
 13 39  1  0  0  0
 14 21  1  0  0  0
 14 15  1  0  0  0
 15 16  2  0  0  0
 15 17  1  0  0  0
 16 40  1  0  0  0
 17 18  1  0  0  0
 17 23  1  0  0  0
 18 19  2  0  0  0
 18 20  1  0  0  0
 20 28  1  0  0  0
 20 21  1  0  0  0
 20 22  1  0  0  0
 22 41  1  0  0  0
 22 42  1  0  0  0
 22 43  1  0  0  0
 23 24  1  0  0  0
 23 44  1  0  0  0
 23 45  1  0  0  0
 24 25  1  0  0  0
 24 46  1  0  0  0
 24 47  1  0  0  0
 25 26  1  0  0  0
 25 48  1  0  0  0
 25 49  1  0  0  0
 26 27  1  0  0  0
 27 50  1  0  0  0
 27 51  1  0  0  0
 27 52  1  0  0  0
M  END
> <s_m_entry_id>
27515

> <s_m_entry_name>
ligand_docking-pose.69

> <s_m_Source_Path>
/home/csk/Desktop/cluster/DUD-E-result/reni

> <s_m_Source_File>
ligand_docking-pose.sdf

> <i_m_Source_File_Index>
69

> <i_lp_mmshare_version>
53161

> <i_f3d_flags>
0

> <r_lp_tautomer_probability>
0.999999624730965

> <s_lp_Force_Field>
OPLS_2005

> <r_lp_Energy>
21.633727

> <b_lp_Chiralities_Consistent>
1

> <s_lp_Variant>
405766-1

> <s_i_glide_gridfile>
glide-grid_3g6z

> <i_i_glide_lignum>
72

> <i_i_glide_rotatable_bonds>
6

> <r_i_docking_score>
-7.42209135651714

> <r_i_glide_ligand_efficiency>
-0.274892272463598

> <r_i_glide_ligand_efficiency_sa>
-0.824676816484794

> <r_i_glide_ligand_efficiency_ln>
-1.72774050505801

> <r_i_glide_gscore>
-7.42209135651714

> <r_i_glide_lipo>
-3.23770011637107

> <r_i_glide_hbond>
0

> <r_i_glide_metal>
0

> <r_i_glide_rewards>
-2.67975924227069

> <r_i_glide_evdw>
-39.3161811828613

> <r_i_glide_ecoul>
-0.656555473804474

> <r_i_glide_erotb>
0.559660382338349

> <r_i_glide_esite>
0

> <r_i_glide_emodel>
-54.7735653214814

> <r_i_glide_energy>
-39.9727366566658

> <r_i_glide_einternal>
3.64155077934265

> <i_i_glide_confnum>
5

> <i_i_glide_posenum>
202

> <r_i_glide_eff_state_penalty>
0

> <s_user_duplicate_titles>
405766,405764

> <s_m_subgroup_title>
dock_pv

> <s_m_subgroupid>
dock_pv1

> <b_m_subgroup_collapsed>
0

$$$$
590961
                    3D
 Schrodinger Suite 2021-1.
 79 81  0  0  1  0            999 V2000
   -5.0850  -18.4489  -13.7689 C   0  0  0  0  0  0
   -5.8688  -19.6599  -14.0018 N   0  0  1  0  0  0
   -5.5750  -20.7685  -13.0885 C   0  0  0  0  0  0
   -5.6453  -20.4428  -11.5684 C   0  0  2  0  0  0
   -5.2693  -21.6826  -10.7113 C   0  0  0  0  0  0
   -4.9232  -21.3849   -9.2295 C   0  0  0  0  0  0
   -4.9774  -22.6715   -8.3709 C   0  0  0  0  0  0
   -4.6873  -22.3762   -6.8838 C   0  0  0  0  0  0
   -3.3230  -21.6790   -6.7049 C   0  0  0  0  0  0
   -3.1905  -20.4312   -7.6000 C   0  0  0  0  0  0
   -3.5201  -20.7441   -9.0732 C   0  0  0  0  0  0
   -6.9069  -19.8072  -11.1434 N   0  0  0  0  0  0
   -8.1438  -20.3447  -11.2024 C   0  0  0  0  0  0
   -8.3450  -21.4475  -11.7151 O   0  0  0  0  0  0
   -9.1509  -19.5636  -10.7230 N   0  0  0  0  0  0
  -10.5543  -19.9618  -10.9601 C   0  0  0  0  0  0
  -11.2669  -18.7048  -11.4899 C   0  0  0  0  0  0
  -11.1970  -17.5517  -10.4911 C   0  0  0  0  0  0
   -9.7355  -17.2482  -10.0523 C   0  0  2  0  0  0
   -8.9596  -18.5411   -9.6646 C   0  0  0  0  0  0
   -9.5235  -16.1116   -8.9909 C   0  0  2  0  0  0
  -10.8074  -15.4264   -8.4786 C   0  0  0  0  0  0
  -11.7516  -16.1789   -7.7671 C   0  0  0  0  0  0
  -12.9618  -15.6198   -7.3724 C   0  0  0  0  0  0
  -13.1986  -14.2629   -7.5662 C   0  0  0  0  0  0
  -12.2428  -13.4789   -8.2084 C   0  0  0  0  0  0
  -11.0727  -14.0646   -8.6850 C   0  0  0  0  0  0
  -12.5147  -11.7863   -8.4208 Cl  0  0  0  0  0  0
  -13.9187  -16.3984   -6.8225 F   0  0  0  0  0  0
   -8.6124  -15.1928   -9.6077 O   0  0  0  0  0  0
   -7.8668  -14.2773   -8.8060 C   0  0  0  0  0  0
   -6.6986  -14.9229   -8.0236 C   0  0  0  0  0  0
   -5.5839  -14.0252   -7.6853 N   0  0  0  0  0  0
   -5.7205  -12.6970   -7.3023 C   0  0  0  0  0  0
   -6.7716  -12.0620   -7.2183 O   0  0  0  0  0  0
   -4.5021  -12.1859   -7.0603 O   0  0  0  0  0  0
   -4.3502  -10.7974   -6.7905 C   0  0  0  0  0  0
   -4.8687  -19.7018  -11.3847 H   0  0  0  0  0  0
   -9.2606  -16.9220  -10.9838 H   0  0  0  0  0  0
   -9.0266  -16.5296   -8.1128 H   0  0  0  0  0  0
   -5.3364  -17.6966  -14.5157 H   0  0  0  0  0  0
   -5.3054  -18.0132  -12.7957 H   0  0  0  0  0  0
   -4.0150  -18.6434  -13.8365 H   0  0  0  0  0  0
   -6.8608  -19.4407  -14.0480 H   0  0  0  0  0  0
   -4.5846  -21.1527  -13.3352 H   0  0  0  0  0  0
   -6.2685  -21.5788  -13.3210 H   0  0  0  0  0  0
   -4.4274  -22.2068  -11.1672 H   0  0  0  0  0  0
   -6.0934  -22.3929  -10.7511 H   0  0  0  0  0  0
   -5.6608  -20.6935   -8.8171 H   0  0  0  0  0  0
   -4.2691  -23.4080   -8.7595 H   0  0  0  0  0  0
   -5.9554  -23.1445   -8.4724 H   0  0  0  0  0  0
   -4.7130  -23.3012   -6.3071 H   0  0  0  0  0  0
   -5.4779  -21.7413   -6.4787 H   0  0  0  0  0  0
   -2.5251  -22.3806   -6.9509 H   0  0  0  0  0  0
   -3.1755  -21.4044   -5.6596 H   0  0  0  0  0  0
   -2.1845  -20.0158   -7.5204 H   0  0  0  0  0  0
   -3.8686  -19.6616   -7.2314 H   0  0  0  0  0  0
   -3.4429  -19.8345   -9.6692 H   0  0  0  0  0  0
   -2.7609  -21.4102   -9.4899 H   0  0  0  0  0  0
   -6.8335  -18.8507  -10.8343 H   0  0  0  0  0  0
  -10.6528  -20.7738  -11.6813 H   0  0  0  0  0  0
  -10.9967  -20.2974  -10.0232 H   0  0  0  0  0  0
  -10.8068  -18.3955  -12.4203 H   0  0  0  0  0  0
  -12.3061  -18.9344  -11.7234 H   0  0  0  0  0  0
  -11.6671  -16.6551  -10.8948 H   0  0  0  0  0  0
  -11.8108  -17.8441   -9.6449 H   0  0  0  0  0  0
   -9.3439  -18.9323   -8.7229 H   0  0  0  0  0  0
   -7.9107  -18.2852   -9.5200 H   0  0  0  0  0  0
  -11.5718  -17.2251   -7.5688 H   0  0  0  0  0  0
  -14.1206  -13.8227   -7.2221 H   0  0  0  0  0  0
  -10.3693  -13.4427   -9.2198 H   0  0  0  0  0  0
   -7.4582  -13.5530   -9.5116 H   0  0  0  0  0  0
   -8.5038  -13.7022   -8.1361 H   0  0  0  0  0  0
   -7.0692  -15.3619   -7.0972 H   0  0  0  0  0  0
   -6.3035  -15.7594   -8.6004 H   0  0  0  0  0  0
   -4.6510  -14.4146   -7.6873 H   0  0  0  0  0  0
   -3.3390  -10.5912   -6.4413 H   0  0  0  0  0  0
   -4.5269  -10.2101   -7.6922 H   0  0  0  0  0  0
   -5.0430  -10.4599   -6.0213 H   0  0  0  0  0  0
  1  2  1  0  0  0
  1 41  1  0  0  0
  1 42  1  0  0  0
  1 43  1  0  0  0
  2  3  1  0  0  0
  2 44  1  0  0  0
  3  4  1  0  0  0
  3 45  1  0  0  0
  3 46  1  0  0  0
  4 38  1  0  0  0
  4  5  1  0  0  0
  4 12  1  0  0  0
  5  6  1  0  0  0
  5 47  1  0  0  0
  5 48  1  0  0  0
  6 11  1  0  0  0
  6  7  1  0  0  0
  6 49  1  0  0  0
  7  8  1  0  0  0
  7 50  1  0  0  0
  7 51  1  0  0  0
  8  9  1  0  0  0
  8 52  1  0  0  0
  8 53  1  0  0  0
  9 10  1  0  0  0
  9 54  1  0  0  0
  9 55  1  0  0  0
 10 11  1  0  0  0
 10 56  1  0  0  0
 10 57  1  0  0  0
 11 58  1  0  0  0
 11 59  1  0  0  0
 12 13  1  0  0  0
 12 60  1  0  0  0
 13 14  2  0  0  0
 13 15  1  0  0  0
 15 20  1  0  0  0
 15 16  1  0  0  0
 16 17  1  0  0  0
 16 61  1  0  0  0
 16 62  1  0  0  0
 17 18  1  0  0  0
 17 63  1  0  0  0
 17 64  1  0  0  0
 18 19  1  0  0  0
 18 65  1  0  0  0
 18 66  1  0  0  0
 19 39  1  0  0  0
 19 20  1  0  0  0
 19 21  1  0  0  0
 20 67  1  0  0  0
 20 68  1  0  0  0
 21 40  1  0  0  0
 21 22  1  0  0  0
 21 30  1  0  0  0
 22 27  1  0  0  0
 22 23  2  0  0  0
 23 24  1  0  0  0
 23 69  1  0  0  0
 24 25  2  0  0  0
 24 29  1  0  0  0
 25 26  1  0  0  0
 25 70  1  0  0  0
 26 27  2  0  0  0
 26 28  1  0  0  0
 27 71  1  0  0  0
 30 31  1  0  0  0
 31 32  1  0  0  0
 31 72  1  0  0  0
 31 73  1  0  0  0
 32 33  1  0  0  0
 32 74  1  0  0  0
 32 75  1  0  0  0
 33 34  1  0  0  0
 33 76  1  0  0  0
 34 35  2  0  0  0
 34 36  1  0  0  0
 36 37  1  0  0  0
 37 77  1  0  0  0
 37 78  1  0  0  0
 37 79  1  0  0  0
M  END
> <s_m_entry_id>
27516

> <s_m_entry_name>
ligand_docking-pose.70

> <s_m_Source_Path>
/home/csk/Desktop/cluster/DUD-E-result/reni

> <s_m_Source_File>
ligand_docking-pose.sdf

> <i_m_Source_File_Index>
70

> <i_lp_mmshare_version>
53161

> <i_f3d_flags>
0

> <r_lp_tautomer_probability>
1

> <s_lp_Force_Field>
OPLS_2005

> <r_lp_Energy>
48.140573

> <b_lp_Chiralities_Consistent>
1

> <s_lp_Variant>
590961-1

> <s_i_glide_gridfile>
glide-grid_3g6z

> <i_i_glide_lignum>
823

> <i_i_glide_rotatable_bonds>
15

> <r_i_docking_score>
-7.41926506759911

> <r_i_glide_ligand_efficiency>
-0.200520677502679

> <r_i_glide_ligand_efficiency_sa>
-0.668179382477029

> <r_i_glide_ligand_efficiency_ln>
-1.60906466091138

> <r_i_glide_gscore>
-7.41926506759911

> <r_i_glide_lipo>
-3.57305053648102

> <r_i_glide_hbond>
-0.32

> <r_i_glide_metal>
0

> <r_i_glide_rewards>
-1.22467559029159

> <r_i_glide_evdw>
-43.9114761352539

> <r_i_glide_ecoul>
-6.31029939651489

> <r_i_glide_erotb>
0.847514530475766

> <r_i_glide_esite>
-0.00693475506233857

> <r_i_glide_emodel>
-61.3995625468574

> <r_i_glide_energy>
-50.2217755317688

> <r_i_glide_einternal>
21.1918029785156

> <i_i_glide_confnum>
4

> <i_i_glide_posenum>
397

> <r_i_glide_eff_state_penalty>
0

> <s_user_duplicate_titles>
590961

> <s_m_subgroup_title>
dock_pv

> <s_m_subgroupid>
dock_pv1

> <b_m_subgroup_collapsed>
0

$$$$
116661
                    3D
 Schrodinger Suite 2021-1.
 92 94  0  0  1  0            999 V2000
  -11.4152  -22.6234  -12.0340 C   0  0  0  0  0  0
  -10.8387  -21.6818  -10.9495 C   0  0  0  0  0  0
  -11.2865  -20.1960  -11.0314 C   0  0  2  0  0  0
  -10.4589  -18.9638  -10.5289 C   0  0  1  0  0  0
   -8.9180  -19.2029  -10.3276 C   0  0  2  0  0  0
   -8.6932  -20.0410   -9.0268 C   0  0  0  0  0  0
   -7.3931  -20.8712   -8.8127 C   0  0  0  0  0  0
   -7.6435  -22.0405   -7.8263 C   0  0  0  0  0  0
   -6.3380  -22.7748   -7.4704 C   0  0  0  0  0  0
   -5.6236  -23.2928   -8.7372 C   0  0  0  0  0  0
   -5.4461  -22.1937   -9.8082 C   0  0  0  0  0  0
   -6.7710  -21.4609  -10.1052 C   0  0  0  0  0  0
   -8.2018  -17.9154  -10.3995 N   0  0  0  0  0  0
   -6.9095  -17.6090  -10.2123 C   0  0  0  0  0  0
   -6.0904  -18.2986   -9.6212 O   0  0  0  0  0  0
   -6.4466  -16.2683  -10.8116 C   0  0  2  0  0  0
   -5.0378  -16.3276  -11.4582 C   0  0  0  0  0  0
   -4.6798  -17.6050  -12.1866 C   0  0  0  0  0  0
   -5.4353  -18.4937  -12.9265 C   0  0  0  0  0  0
   -4.6700  -19.6235  -13.2208 N   0  0  0  0  0  0
   -3.4647  -19.3416  -12.7448 C   0  0  0  0  0  0
   -3.4119  -18.1581  -12.1255 N   0  0  0  0  0  0
   -6.4173  -15.3327   -9.6999 N   0  0  0  0  0  0
   -7.1946  -14.2456   -9.5813 C   0  0  0  0  0  0
   -7.8683  -13.7850  -10.4983 O   0  0  0  0  0  0
   -7.2639  -13.6394   -8.1618 C   0  0  2  0  0  0
   -8.1506  -12.3546   -8.0307 C   0  0  0  0  0  0
   -9.6829  -12.4504   -8.0211 C   0  0  0  0  0  0
  -10.3924  -13.5966   -8.4315 C   0  0  0  0  0  0
  -11.7838  -13.6072   -8.4141 C   0  0  0  0  0  0
  -12.4875  -12.4836   -8.0086 C   0  0  0  0  0  0
  -11.8134  -11.3361   -7.6153 C   0  0  0  0  0  0
  -10.4242  -11.3107   -7.6213 C   0  0  0  0  0  0
   -5.9064  -13.5247   -7.5579 N   0  0  0  0  0  0
   -5.1076  -12.3879   -7.6338 C   0  0  0  0  0  0
   -5.4477  -11.2681   -8.0116 O   0  0  0  0  0  0
   -3.8421  -12.7196   -7.2688 O   0  0  0  0  0  0
   -2.6756  -11.9095   -7.5209 C   0  0  0  0  0  0
   -2.5277  -11.5659   -9.0290 C   0  0  0  0  0  0
   -1.4797  -12.7874   -7.1012 C   0  0  0  0  0  0
   -2.7019  -10.6172   -6.6719 C   0  0  0  0  0  0
  -10.7016  -17.8563  -11.4093 O   0  0  0  0  0  0
  -12.6945  -20.0632  -10.9228 O   0  0  0  0  0  0
  -10.8934  -18.5802   -9.6208 H   0  0  0  0  0  0
   -8.5748  -19.7680  -11.1951 H   0  0  0  0  0  0
  -11.2120  -23.6669  -11.7794 H   0  0  0  0  0  0
  -12.5001  -22.5296  -12.1167 H   0  0  0  0  0  0
  -10.9775  -22.4535  -13.0210 H   0  0  0  0  0  0
   -9.7528  -21.7751  -10.9858 H   0  0  0  0  0  0
  -11.1625  -22.1121  -10.0209 H   0  0  0  0  0  0
  -11.0811  -20.0409  -12.0311 H   0  0  0  0  0  0
   -8.8637  -19.4036   -8.1578 H   0  0  0  0  0  0
   -9.4953  -20.7687   -8.9977 H   0  0  0  0  0  0
   -6.6485  -20.2330   -8.3410 H   0  0  0  0  0  0
   -8.1018  -21.6628   -6.9133 H   0  0  0  0  0  0
   -8.3870  -22.7272   -8.2325 H   0  0  0  0  0  0
   -5.6761  -22.0978   -6.9233 H   0  0  0  0  0  0
   -6.5510  -23.6046   -6.7945 H   0  0  0  0  0  0
   -4.6529  -23.7110   -8.4684 H   0  0  0  0  0  0
   -6.2027  -24.1132   -9.1658 H   0  0  0  0  0  0
   -4.7053  -21.4642   -9.4766 H   0  0  0  0  0  0
   -5.0528  -22.6319  -10.7251 H   0  0  0  0  0  0
   -7.4827  -22.1250  -10.5975 H   0  0  0  0  0  0
   -6.5755  -20.6695  -10.8313 H   0  0  0  0  0  0
   -8.7548  -17.2034  -10.8613 H   0  0  0  0  0  0
   -7.1663  -15.9796  -11.5790 H   0  0  0  0  0  0
   -4.9281  -15.4987  -12.1572 H   0  0  0  0  0  0
   -4.2804  -16.1733  -10.6886 H   0  0  0  0  0  0
   -2.6168  -17.7759  -11.6387 H   0  0  0  0  0  0
   -6.4788  -18.4408  -13.2012 H   0  0  0  0  0  0
   -2.6220  -20.0159  -12.8152 H   0  0  0  0  0  0
   -5.8938  -15.6525   -8.8996 H   0  0  0  0  0  0
   -7.7583  -14.4062   -7.5833 H   0  0  0  0  0  0
   -7.8692  -11.6627   -8.8191 H   0  0  0  0  0  0
   -7.8689  -11.8281   -7.1173 H   0  0  0  0  0  0
   -9.8766  -14.4818   -8.7667 H   0  0  0  0  0  0
  -12.3155  -14.4944   -8.7262 H   0  0  0  0  0  0
  -13.5686  -12.5006   -7.9981 H   0  0  0  0  0  0
  -12.3659  -10.4633   -7.3062 H   0  0  0  0  0  0
   -9.9139  -10.4087   -7.3196 H   0  0  0  0  0  0
   -5.4880  -14.3595   -7.1712 H   0  0  0  0  0  0
   -3.3089  -10.8895   -9.3731 H   0  0  0  0  0  0
   -1.5766  -11.0749   -9.2310 H   0  0  0  0  0  0
   -2.5752  -12.4613   -9.6510 H   0  0  0  0  0  0
   -1.4695  -12.9962   -6.0335 H   0  0  0  0  0  0
   -1.4922  -13.7467   -7.6195 H   0  0  0  0  0  0
   -0.5306  -12.3050   -7.3396 H   0  0  0  0  0  0
   -2.8459  -10.8496   -5.6208 H   0  0  0  0  0  0
   -1.7663  -10.0638   -6.7581 H   0  0  0  0  0  0
   -3.5073   -9.9458   -6.9631 H   0  0  0  0  0  0
  -10.5047  -18.1097  -12.3187 H   0  0  0  0  0  0
  -13.0982  -20.7888  -11.4071 H   0  0  0  0  0  0
  1  2  1  0  0  0
  1 46  1  0  0  0
  1 47  1  0  0  0
  1 48  1  0  0  0
  2  3  1  0  0  0
  2 49  1  0  0  0
  2 50  1  0  0  0
  3  4  1  0  0  0
  3 43  1  0  0  0
  3 51  1  0  0  0
  4 44  1  0  0  0
  4  5  1  0  0  0
  4 42  1  0  0  0
  5 45  1  0  0  0
  5  6  1  0  0  0
  5 13  1  0  0  0
  6  7  1  0  0  0
  6 52  1  0  0  0
  6 53  1  0  0  0
  7 12  1  0  0  0
  7  8  1  0  0  0
  7 54  1  0  0  0
  8  9  1  0  0  0
  8 55  1  0  0  0
  8 56  1  0  0  0
  9 10  1  0  0  0
  9 57  1  0  0  0
  9 58  1  0  0  0
 10 11  1  0  0  0
 10 59  1  0  0  0
 10 60  1  0  0  0
 11 12  1  0  0  0
 11 61  1  0  0  0
 11 62  1  0  0  0
 12 63  1  0  0  0
 12 64  1  0  0  0
 13 14  1  0  0  0
 13 65  1  0  0  0
 14 15  2  0  0  0
 14 16  1  0  0  0
 16 17  1  0  0  0
 16 23  1  0  0  0
 16 66  1  0  0  0
 17 67  1  0  0  0
 17 68  1  0  0  0
 17 18  1  0  0  0
 18 19  2  0  0  0
 18 22  1  0  0  0
 19 70  1  0  0  0
 19 20  1  0  0  0
 20 21  2  0  0  0
 21 71  1  0  0  0
 21 22  1  0  0  0
 22 69  1  0  0  0
 23 24  1  0  0  0
 23 72  1  0  0  0
 24 25  2  0  0  0
 24 26  1  0  0  0
 26 27  1  0  0  0
 26 34  1  0  0  0
 26 73  1  0  0  0
 27 28  1  0  0  0
 27 74  1  0  0  0
 27 75  1  0  0  0
 28 33  1  0  0  0
 28 29  2  0  0  0
 29 30  1  0  0  0
 29 76  1  0  0  0
 30 31  2  0  0  0
 30 77  1  0  0  0
 31 32  1  0  0  0
 31 78  1  0  0  0
 32 33  2  0  0  0
 32 79  1  0  0  0
 33 80  1  0  0  0
 34 35  1  0  0  0
 34 81  1  0  0  0
 35 36  2  0  0  0
 35 37  1  0  0  0
 37 38  1  0  0  0
 38 39  1  0  0  0
 38 40  1  0  0  0
 38 41  1  0  0  0
 39 82  1  0  0  0
 39 83  1  0  0  0
 39 84  1  0  0  0
 40 85  1  0  0  0
 40 86  1  0  0  0
 40 87  1  0  0  0
 41 88  1  0  0  0
 41 89  1  0  0  0
 41 90  1  0  0  0
 42 91  1  0  0  0
 43 92  1  0  0  0
M  END
> <s_m_entry_id>
27517

> <s_m_entry_name>
ligand_docking-pose.71

> <s_m_Source_Path>
/home/csk/Desktop/cluster/DUD-E-result/reni

> <s_m_Source_File>
ligand_docking-pose.sdf

> <i_m_Source_File_Index>
71

> <i_lp_mmshare_version>
53161

> <i_f3d_flags>
0

> <r_lp_tautomer_probability>
0.499999999999999

> <s_lp_Force_Field>
OPLS_2005

> <r_lp_Energy>
28.10828

> <b_lp_Chiralities_Consistent>
1

> <s_lp_Variant>
116661-1

> <s_i_glide_gridfile>
glide-grid_3g6z

> <i_i_glide_lignum>
453

> <i_i_glide_rotatable_bonds>
21

> <r_i_docking_score>
-7.40962675393588

> <r_i_glide_ligand_efficiency>
-0.172316901254323

> <r_i_glide_ligand_efficiency_sa>
-0.603694696869373

> <r_i_glide_ligand_efficiency_ln>
-1.55625190579845

> <r_i_glide_gscore>
-7.40962675393588

> <r_i_glide_lipo>
-3.41968728600947

> <r_i_glide_hbond>
-0.30554666970514

> <r_i_glide_metal>
0

> <r_i_glide_rewards>
-1.05066220068467

> <r_i_glide_evdw>
-38.9818878173828

> <r_i_glide_ecoul>
-9.19908142089844

> <r_i_glide_erotb>
0.700795959577306

> <r_i_glide_esite>
-0.0055699531100123

> <r_i_glide_emodel>
-45.6957848414857

> <r_i_glide_energy>
-48.1809692382812

> <r_i_glide_einternal>
34.7909049987793

> <i_i_glide_confnum>
124

> <i_i_glide_posenum>
396

> <r_i_glide_eff_state_penalty>
0

> <s_user_duplicate_titles>
116661

> <s_m_subgroup_title>
dock_pv

> <s_m_subgroupid>
dock_pv1

> <b_m_subgroup_collapsed>
0

$$$$
480696
                    3D
 Schrodinger Suite 2021-1.
 81 85  0  0  1  0            999 V2000
   -3.7133  -18.3771   -9.3385 C   0  0  0  0  0  0
   -4.3633  -19.4994  -10.1509 C   0  0  0  0  0  0
   -4.8750  -20.4276   -9.5233 O   0  0  0  0  0  0
   -4.2699  -19.4864  -11.5068 N   0  0  0  0  0  0
   -4.8468  -20.5868  -12.3134 C   0  0  0  0  0  0
   -5.9598  -20.0171  -13.2484 C   0  0  1  0  0  0
   -7.2623  -19.6194  -12.5087 C   0  0  0  0  0  0
   -7.2451  -18.2028  -11.9163 C   0  0  0  0  0  0
   -6.2407  -17.3294  -12.2221 C   0  0  0  0  0  0
   -5.0758  -17.7996  -13.1127 C   0  0  1  0  0  0
   -3.8541  -18.2953  -12.2790 C   0  0  0  0  0  0
   -5.4689  -18.8728  -14.0209 N   0  0  2  0  0  0
   -6.2597  -15.9164  -11.8555 C   0  0  0  0  0  0
   -7.2812  -15.2246  -11.8720 O   0  0  0  0  0  0
   -5.0624  -15.4162  -11.5027 N   0  0  0  0  0  0
   -4.7769  -14.0217  -11.1616 C   0  0  0  0  0  0
   -4.9211  -13.6244   -9.6908 C   0  0  0  0  0  0
   -5.6742  -14.3801   -8.7829 C   0  0  0  0  0  0
   -5.7984  -13.9606   -7.4614 C   0  0  0  0  0  0
   -5.1745  -12.7854   -7.0477 C   0  0  0  0  0  0
   -4.4043  -12.0395   -7.9343 C   0  0  0  0  0  0
   -4.2688  -12.4666   -9.2520 C   0  0  0  0  0  0
   -8.4067  -17.8623  -11.0775 C   0  0  0  0  0  0
   -9.6937  -17.8444  -11.6202 C   0  0  0  0  0  0
  -10.7791  -17.5171  -10.8200 C   0  0  0  0  0  0
  -10.5851  -17.2046   -9.4778 C   0  0  0  0  0  0
   -9.2950  -17.2512   -8.9270 C   0  0  0  0  0  0
   -8.2117  -17.5812   -9.7262 C   0  0  0  0  0  0
  -11.7094  -16.8639   -8.7634 O   0  0  0  0  0  0
  -11.5225  -16.2274   -7.5106 C   0  0  0  0  0  0
  -12.8637  -15.7480   -6.9820 C   0  0  0  0  0  0
  -13.6068  -14.7960   -7.9293 C   0  0  0  0  0  0
  -12.9795  -13.5298   -8.0908 O   0  0  0  0  0  0
  -13.0529  -12.6593   -6.9669 C   0  0  0  0  0  0
  -12.0017  -11.5552   -7.0337 C   0  0  0  0  0  0
  -12.3234  -10.3341   -6.4319 C   0  0  0  0  0  0
  -11.4147   -9.2828   -6.4209 C   0  0  0  0  0  0
  -10.1719   -9.4474   -7.0154 C   0  0  0  0  0  0
   -9.8289  -10.6630   -7.5992 C   0  0  0  0  0  0
  -10.7321  -11.7390   -7.6208 C   0  0  0  0  0  0
  -10.4173  -12.9830   -8.1394 O   0  0  0  0  0  0
   -9.1192  -13.2631   -8.6574 C   0  0  0  0  0  0
   -6.2254  -20.7997  -13.9626 H   0  0  0  0  0  0
   -4.7571  -16.9724  -13.7430 H   0  0  0  0  0  0
   -4.2915  -17.4569   -9.4262 H   0  0  0  0  0  0
   -3.6693  -18.6471   -8.2828 H   0  0  0  0  0  0
   -2.6922  -18.1936   -9.6721 H   0  0  0  0  0  0
   -5.2388  -21.4078  -11.7090 H   0  0  0  0  0  0
   -4.0300  -20.9644  -12.9296 H   0  0  0  0  0  0
   -7.5357  -20.3482  -11.7440 H   0  0  0  0  0  0
   -8.0952  -19.6634  -13.2099 H   0  0  0  0  0  0
   -3.0599  -18.5934  -12.9646 H   0  0  0  0  0  0
   -3.4442  -17.4981  -11.6645 H   0  0  0  0  0  0
   -6.1869  -18.5204  -14.6608 H   0  0  0  0  0  0
   -4.2726  -16.0418  -11.4942 H   0  0  0  0  0  0
   -5.3979  -13.3443  -11.7533 H   0  0  0  0  0  0
   -3.7490  -13.8289  -11.4733 H   0  0  0  0  0  0
   -6.1792  -15.2815   -9.0950 H   0  0  0  0  0  0
   -6.3877  -14.5353   -6.7610 H   0  0  0  0  0  0
   -5.2825  -12.4533   -6.0251 H   0  0  0  0  0  0
   -3.9188  -11.1337   -7.6045 H   0  0  0  0  0  0
   -3.6777  -11.8791   -9.9384 H   0  0  0  0  0  0
   -9.8601  -18.0630  -12.6652 H   0  0  0  0  0  0
  -11.7703  -17.4825  -11.2453 H   0  0  0  0  0  0
   -9.1116  -17.0300   -7.8871 H   0  0  0  0  0  0
   -7.2198  -17.6118   -9.2991 H   0  0  0  0  0  0
  -11.0692  -16.9130   -6.7932 H   0  0  0  0  0  0
  -10.8652  -15.3698   -7.6230 H   0  0  0  0  0  0
  -13.4958  -16.6170   -6.7993 H   0  0  0  0  0  0
  -12.6682  -15.2611   -6.0311 H   0  0  0  0  0  0
  -13.6245  -15.2629   -8.9109 H   0  0  0  0  0  0
  -14.6479  -14.6799   -7.6199 H   0  0  0  0  0  0
  -14.0577  -12.2339   -6.9275 H   0  0  0  0  0  0
  -12.8965  -13.1762   -6.0216 H   0  0  0  0  0  0
  -13.3086  -10.1852   -6.0210 H   0  0  0  0  0  0
  -11.6836   -8.3361   -5.9769 H   0  0  0  0  0  0
   -9.4725   -8.6283   -7.0316 H   0  0  0  0  0  0
   -8.8413  -10.7519   -8.0211 H   0  0  0  0  0  0
   -8.9989  -14.3414   -8.7488 H   0  0  0  0  0  0
   -8.9883  -12.8630   -9.6597 H   0  0  0  0  0  0
   -8.3220  -12.9075   -8.0063 H   0  0  0  0  0  0
  1  2  1  0  0  0
  1 45  1  0  0  0
  1 46  1  0  0  0
  1 47  1  0  0  0
  2  3  2  0  0  0
  2  4  1  0  0  0
  4 11  1  0  0  0
  4  5  1  0  0  0
  5  6  1  0  0  0
  5 48  1  0  0  0
  5 49  1  0  0  0
  6 43  1  0  0  0
  6 12  1  0  0  0
  6  7  1  0  0  0
  7  8  1  0  0  0
  7 50  1  0  0  0
  7 51  1  0  0  0
  8  9  2  0  0  0
  8 23  1  0  0  0
  9 10  1  0  0  0
  9 13  1  0  0  0
 10 44  1  0  0  0
 10 11  1  0  0  0
 10 12  1  0  0  0
 11 52  1  0  0  0
 11 53  1  0  0  0
 12 54  1  0  0  0
 13 14  2  0  0  0
 13 15  1  0  0  0
 15 16  1  0  0  0
 15 55  1  0  0  0
 16 17  1  0  0  0
 16 56  1  0  0  0
 16 57  1  0  0  0
 17 22  1  0  0  0
 17 18  2  0  0  0
 18 19  1  0  0  0
 18 58  1  0  0  0
 19 20  2  0  0  0
 19 59  1  0  0  0
 20 21  1  0  0  0
 20 60  1  0  0  0
 21 22  2  0  0  0
 21 61  1  0  0  0
 22 62  1  0  0  0
 23 28  1  0  0  0
 23 24  2  0  0  0
 24 25  1  0  0  0
 24 63  1  0  0  0
 25 26  2  0  0  0
 25 64  1  0  0  0
 26 27  1  0  0  0
 26 29  1  0  0  0
 27 28  2  0  0  0
 27 65  1  0  0  0
 28 66  1  0  0  0
 29 30  1  0  0  0
 30 31  1  0  0  0
 30 67  1  0  0  0
 30 68  1  0  0  0
 31 32  1  0  0  0
 31 69  1  0  0  0
 31 70  1  0  0  0
 32 33  1  0  0  0
 32 71  1  0  0  0
 32 72  1  0  0  0
 33 34  1  0  0  0
 34 35  1  0  0  0
 34 73  1  0  0  0
 34 74  1  0  0  0
 35 40  1  0  0  0
 35 36  2  0  0  0
 36 37  1  0  0  0
 36 75  1  0  0  0
 37 38  2  0  0  0
 37 76  1  0  0  0
 38 39  1  0  0  0
 38 77  1  0  0  0
 39 40  2  0  0  0
 39 78  1  0  0  0
 40 41  1  0  0  0
 41 42  1  0  0  0
 42 79  1  0  0  0
 42 80  1  0  0  0
 42 81  1  0  0  0
M  END
> <s_m_entry_id>
27523

> <s_m_entry_name>
ligand_docking-pose.77

> <s_m_Source_Path>
/home/csk/Desktop/cluster/DUD-E-result/reni

> <s_m_Source_File>
ligand_docking-pose.sdf

> <i_m_Source_File_Index>
77

> <i_lp_mmshare_version>
53161

> <i_f3d_flags>
0

> <r_lp_tautomer_probability>
1

> <s_lp_Force_Field>
OPLS_2005

> <r_lp_Energy>
75.535994

> <b_lp_Chiralities_Consistent>
1

> <s_lp_Variant>
480696-1

> <s_i_glide_gridfile>
glide-grid_3g6z

> <i_i_glide_lignum>
792

> <i_i_glide_rotatable_bonds>
14

> <r_i_docking_score>
-7.36305825541654

> <r_i_glide_ligand_efficiency>
-0.175310910843251

> <r_i_glide_ligand_efficiency_sa>
-0.609385396471226

> <r_i_glide_ligand_efficiency_ln>
-1.55415190350155

> <r_i_glide_gscore>
-7.36305825541654

> <r_i_glide_lipo>
-4.29302090663483

> <r_i_glide_hbond>
-0.456

> <r_i_glide_metal>
0

> <r_i_glide_rewards>
0.354500409657331

> <r_i_glide_evdw>
-48.6364250183105

> <r_i_glide_ecoul>
-7.58629083633423

> <r_i_glide_erotb>
0.616884704496042

> <r_i_glide_esite>
-0.0156575865694197

> <r_i_glide_emodel>
-77.642452871459

> <r_i_glide_energy>
-56.2227158546448

> <r_i_glide_einternal>
6.15860605239868

> <i_i_glide_confnum>
10

> <i_i_glide_posenum>
201

> <r_i_glide_eff_state_penalty>
0

> <s_user_duplicate_titles>
480696

> <s_m_subgroup_title>
dock_pv

> <s_m_subgroupid>
dock_pv1

> <b_m_subgroup_collapsed>
0

$$$$
405838
                    3D
 Schrodinger Suite 2021-1.
 63 66  0  0  1  0            999 V2000
  -12.1917  -16.7129   -9.6249 C   0  0  0  0  0  0
  -11.8493  -17.3602  -10.9818 C   0  0  0  0  0  0
  -11.4694  -18.8337  -10.8744 C   0  0  0  0  0  0
  -10.2086  -19.2578  -10.4211 C   0  0  0  0  0  0
  -10.0060  -20.6510  -10.4065 C   0  0  0  0  0  0
  -10.9412  -21.5377  -10.8214 N   0  0  0  0  0  0
  -12.1262  -21.0200  -11.2085 C   0  0  0  0  0  0
  -12.4517  -19.7078  -11.2233 N   0  0  0  0  0  0
  -13.0927  -21.9192  -11.6294 N   0  0  0  0  0  0
   -8.8367  -21.2128   -9.9079 N   0  0  0  0  0  0
   -9.2141  -18.2859   -9.9006 C   0  0  0  0  0  0
   -8.9383  -18.2462   -8.5317 C   0  0  0  0  0  0
   -8.0689  -17.2939   -8.0165 C   0  0  0  0  0  0
   -7.4494  -16.3977   -8.8722 C   0  0  0  0  0  0
   -7.6802  -16.4195  -10.2480 C   0  0  0  0  0  0
   -8.5927  -17.3626  -10.7485 C   0  0  0  0  0  0
   -6.9351  -15.5238  -11.0514 N   0  0  0  0  0  0
   -6.3380  -14.3873  -10.5759 C   0  0  0  0  0  0
   -5.7181  -13.5833  -11.2789 O   0  0  0  0  0  0
   -6.5101  -14.2102   -9.0101 C   0  0  2  0  0  0
   -6.5855  -15.4800   -8.3252 O   0  0  0  0  0  0
   -7.8473  -13.4471   -8.7571 C   0  0  0  0  0  0
   -5.2604  -13.4738   -8.4620 C   0  0  0  0  0  0
   -4.0018  -14.0927   -8.5529 C   0  0  0  0  0  0
   -2.8528  -13.4588   -8.0826 C   0  0  0  0  0  0
   -2.9416  -12.1942   -7.5080 C   0  0  0  0  0  0
   -4.1811  -11.5730   -7.3861 C   0  0  0  0  0  0
   -5.3312  -12.2104   -7.8487 C   0  0  0  0  0  0
   -4.2677  -10.3493   -6.8209 F   0  0  0  0  0  0
   -1.6513  -14.0707   -8.1846 F   0  0  0  0  0  0
   -6.7775  -15.8416  -12.4955 C   0  0  0  0  0  0
   -5.8203  -17.0225  -12.7891 C   0  0  0  0  0  0
   -6.4013  -18.3122  -12.4222 N   0  0  0  0  0  0
   -6.0412  -19.5117  -12.8908 C   0  0  0  0  0  0
   -5.0690  -19.6624  -13.6209 O   0  0  0  0  0  0
   -6.9138  -20.6982  -12.4471 C   0  0  0  0  0  0
   -6.6624  -21.8644  -13.2206 O   0  0  0  0  0  0
  -12.5393  -15.6881   -9.7577 H   0  0  0  0  0  0
  -12.9699  -17.2629   -9.0967 H   0  0  0  0  0  0
  -11.3233  -16.6740   -8.9695 H   0  0  0  0  0  0
  -11.0429  -16.8075  -11.4572 H   0  0  0  0  0  0
  -12.6689  -17.2636  -11.6892 H   0  0  0  0  0  0
  -13.9783  -21.5751  -11.9700 H   0  0  0  0  0  0
  -12.8376  -22.8914  -11.7070 H   0  0  0  0  0  0
   -8.1082  -20.6082   -9.5603 H   0  0  0  0  0  0
   -8.7358  -22.2162   -9.9269 H   0  0  0  0  0  0
   -9.4216  -18.9372   -7.8571 H   0  0  0  0  0  0
   -7.8685  -17.2589   -6.9570 H   0  0  0  0  0  0
   -8.8325  -17.3982  -11.8019 H   0  0  0  0  0  0
   -7.8691  -12.4631   -9.2191 H   0  0  0  0  0  0
   -8.7142  -13.9875   -9.1397 H   0  0  0  0  0  0
   -8.0151  -13.3083   -7.6890 H   0  0  0  0  0  0
   -3.9110  -15.0736   -8.9973 H   0  0  0  0  0  0
   -2.0525  -11.7003   -7.1475 H   0  0  0  0  0  0
   -6.2694  -11.6915   -7.7333 H   0  0  0  0  0  0
   -6.4033  -14.9836  -13.0575 H   0  0  0  0  0  0
   -7.7493  -16.0121  -12.9587 H   0  0  0  0  0  0
   -4.8873  -16.8865  -12.2391 H   0  0  0  0  0  0
   -5.5418  -17.0034  -13.8454 H   0  0  0  0  0  0
   -7.1747  -18.2707  -11.7753 H   0  0  0  0  0  0
   -7.9699  -20.4350  -12.5229 H   0  0  0  0  0  0
   -6.6675  -20.9167  -11.4092 H   0  0  0  0  0  0
   -7.2927  -21.9082  -13.9533 H   0  0  0  0  0  0
  1  2  1  0  0  0
  1 38  1  0  0  0
  1 39  1  0  0  0
  1 40  1  0  0  0
  2  3  1  0  0  0
  2 41  1  0  0  0
  2 42  1  0  0  0
  3  8  1  0  0  0
  3  4  2  0  0  0
  4  5  1  0  0  0
  4 11  1  0  0  0
  5  6  2  0  0  0
  5 10  1  0  0  0
  6  7  1  0  0  0
  7  8  2  0  0  0
  7  9  1  0  0  0
  9 43  1  0  0  0
  9 44  1  0  0  0
 10 45  1  0  0  0
 10 46  1  0  0  0
 11 16  1  0  0  0
 11 12  2  0  0  0
 12 13  1  0  0  0
 12 47  1  0  0  0
 13 14  2  0  0  0
 13 48  1  0  0  0
 14 21  1  0  0  0
 14 15  1  0  0  0
 15 16  2  0  0  0
 15 17  1  0  0  0
 16 49  1  0  0  0
 17 18  1  0  0  0
 17 31  1  0  0  0
 18 19  2  0  0  0
 18 20  1  0  0  0
 20 21  1  0  0  0
 20 22  1  0  0  0
 20 23  1  0  0  0
 22 50  1  0  0  0
 22 51  1  0  0  0
 22 52  1  0  0  0
 23 28  1  0  0  0
 23 24  2  0  0  0
 24 25  1  0  0  0
 24 53  1  0  0  0
 25 26  2  0  0  0
 25 30  1  0  0  0
 26 27  1  0  0  0
 26 54  1  0  0  0
 27 28  2  0  0  0
 27 29  1  0  0  0
 28 55  1  0  0  0
 31 32  1  0  0  0
 31 56  1  0  0  0
 31 57  1  0  0  0
 32 33  1  0  0  0
 32 58  1  0  0  0
 32 59  1  0  0  0
 33 34  1  0  0  0
 33 60  1  0  0  0
 34 35  2  0  0  0
 34 36  1  0  0  0
 36 37  1  0  0  0
 36 61  1  0  0  0
 36 62  1  0  0  0
 37 63  1  0  0  0
M  END
> <s_m_entry_id>
27525

> <s_m_entry_name>
ligand_docking-pose.79

> <s_m_Source_Path>
/home/csk/Desktop/cluster/DUD-E-result/reni

> <s_m_Source_File>
ligand_docking-pose.sdf

> <i_m_Source_File_Index>
79

> <i_lp_mmshare_version>
53161

> <i_f3d_flags>
0

> <r_lp_tautomer_probability>
0.999999624730965

> <s_lp_Force_Field>
OPLS_2005

> <r_lp_Energy>
25.363482

> <b_lp_Chiralities_Consistent>
1

> <s_lp_Variant>
405838-2

> <s_i_glide_gridfile>
glide-grid_3g6z

> <i_i_glide_lignum>
113

> <i_i_glide_rotatable_bonds>
9

> <r_i_docking_score>
-7.33970619669066

> <r_i_glide_ligand_efficiency>
-0.198370437748396

> <r_i_glide_ligand_efficiency_sa>
-0.661014306590156

> <r_i_glide_ligand_efficiency_ln>
-1.5918102069359

> <r_i_glide_gscore>
-7.33970619669066

> <r_i_glide_lipo>
-2.37841930184381

> <r_i_glide_hbond>
-0.518831801328508

> <r_i_glide_metal>
0

> <r_i_glide_rewards>
-1.03774019186328

> <r_i_glide_evdw>
-39.622444152832

> <r_i_glide_ecoul>
-12.4382619857788

> <r_i_glide_erotb>
0.546324730576593

> <r_i_glide_esite>
-0.104178126723231

> <r_i_glide_emodel>
-71.5049269530759

> <r_i_glide_energy>
-52.0607061386108

> <r_i_glide_einternal>
4.27312469482422

> <i_i_glide_confnum>
180

> <i_i_glide_posenum>
224

> <r_i_glide_eff_state_penalty>
0

> <s_user_duplicate_titles>
405838

> <s_m_subgroup_title>
dock_pv

> <s_m_subgroupid>
dock_pv1

> <b_m_subgroup_collapsed>
0

$$$$
405770
                    3D
 Schrodinger Suite 2021-1.
 59 62  0  0  1  0            999 V2000
   -3.4695  -19.5658   -8.2739 C   0  0  0  0  0  0
   -3.5488  -18.1984   -8.9803 C   0  0  0  0  0  0
   -3.5789  -18.3175  -10.5063 C   0  0  0  0  0  0
   -4.6365  -17.8511  -11.3231 C   0  0  0  0  0  0
   -4.5076  -18.1631  -12.6924 C   0  0  0  0  0  0
   -3.4635  -18.8549  -13.2068 N   0  0  0  0  0  0
   -2.5116  -19.2398  -12.3311 C   0  0  0  0  0  0
   -2.5111  -18.9916  -11.0078 N   0  0  0  0  0  0
   -1.4508  -19.9828  -12.8207 N   0  0  0  0  0  0
   -5.4692  -17.7886  -13.6209 N   0  0  0  0  0  0
   -5.8220  -17.1065  -10.7833 C   0  0  0  0  0  0
   -7.1191  -17.5938  -10.9946 C   0  0  0  0  0  0
   -8.2288  -16.9209  -10.4910 C   0  0  0  0  0  0
   -8.0426  -15.7537   -9.7587 C   0  0  0  0  0  0
   -6.7710  -15.2293   -9.5200 C   0  0  0  0  0  0
   -5.6644  -15.9121  -10.0585 C   0  0  0  0  0  0
   -6.6802  -14.1025   -8.6609 N   0  0  0  0  0  0
   -7.7206  -13.2640   -8.3578 C   0  0  0  0  0  0
   -7.6128  -12.2790   -7.6210 O   0  0  0  0  0  0
   -9.0665  -13.7209   -9.0421 C   0  0  1  0  0  0
   -9.1486  -15.1577   -9.2027 O   0  0  0  0  0  0
  -10.3739  -13.1547   -8.4206 C   0  0  0  0  0  0
  -10.5115  -11.8138   -8.0191 C   0  0  0  0  0  0
  -11.7264  -11.3305   -7.5367 C   0  0  0  0  0  0
  -12.8282  -12.1775   -7.4609 C   0  0  0  0  0  0
  -12.7230  -13.5013   -7.8719 C   0  0  0  0  0  0
  -11.5081  -13.9822   -8.3542 C   0  0  0  0  0  0
   -5.3457  -13.7652   -8.1126 C   0  0  0  0  0  0
   -4.4914  -12.8423   -9.0131 C   0  0  0  0  0  0
   -4.4444  -11.3856   -8.5268 C   0  0  0  0  0  0
   -3.7420  -11.3537   -7.2938 O   0  0  0  0  0  0
   -3.6795  -10.0638   -6.7129 C   0  0  0  0  0  0
   -3.4495  -19.4475   -7.1934 H   0  0  0  0  0  0
   -4.3275  -20.1914   -8.5247 H   0  0  0  0  0  0
   -2.5667  -20.1125   -8.5467 H   0  0  0  0  0  0
   -2.6838  -17.5935   -8.7032 H   0  0  0  0  0  0
   -4.4157  -17.6631   -8.6029 H   0  0  0  0  0  0
   -0.7692  -20.3353  -12.1666 H   0  0  0  0  0  0
   -1.4638  -20.2690  -13.7865 H   0  0  0  0  0  0
   -6.3041  -17.3097  -13.3097 H   0  0  0  0  0  0
   -5.3850  -18.0603  -14.5909 H   0  0  0  0  0  0
   -7.2684  -18.5088  -11.5513 H   0  0  0  0  0  0
   -9.2228  -17.3080  -10.6523 H   0  0  0  0  0  0
   -4.6627  -15.5387   -9.9138 H   0  0  0  0  0  0
   -9.0551  -13.2637  -10.0239 H   0  0  0  0  0  0
   -9.6843  -11.1222   -8.0474 H   0  0  0  0  0  0
  -11.8157  -10.2997   -7.2265 H   0  0  0  0  0  0
  -13.7679  -11.8012   -7.0863 H   0  0  0  0  0  0
  -13.5838  -14.1524   -7.8273 H   0  0  0  0  0  0
  -11.4625  -15.0119   -8.6832 H   0  0  0  0  0  0
   -4.7995  -14.6925   -7.9460 H   0  0  0  0  0  0
   -5.4241  -13.3469   -7.1054 H   0  0  0  0  0  0
   -4.8457  -12.8733  -10.0446 H   0  0  0  0  0  0
   -3.4675  -13.2188   -9.0397 H   0  0  0  0  0  0
   -5.4529  -10.9844   -8.4068 H   0  0  0  0  0  0
   -3.9301  -10.7654   -9.2641 H   0  0  0  0  0  0
   -3.0641  -10.1096   -5.8167 H   0  0  0  0  0  0
   -4.6694   -9.7120   -6.4203 H   0  0  0  0  0  0
   -3.2309   -9.3314   -7.3864 H   0  0  0  0  0  0
  1  2  1  0  0  0
  1 33  1  0  0  0
  1 34  1  0  0  0
  1 35  1  0  0  0
  2  3  1  0  0  0
  2 36  1  0  0  0
  2 37  1  0  0  0
  3  8  1  0  0  0
  3  4  2  0  0  0
  4  5  1  0  0  0
  4 11  1  0  0  0
  5  6  2  0  0  0
  5 10  1  0  0  0
  6  7  1  0  0  0
  7  8  2  0  0  0
  7  9  1  0  0  0
  9 38  1  0  0  0
  9 39  1  0  0  0
 10 40  1  0  0  0
 10 41  1  0  0  0
 11 16  1  0  0  0
 11 12  2  0  0  0
 12 13  1  0  0  0
 12 42  1  0  0  0
 13 14  2  0  0  0
 13 43  1  0  0  0
 14 21  1  0  0  0
 14 15  1  0  0  0
 15 16  2  0  0  0
 15 17  1  0  0  0
 16 44  1  0  0  0
 17 18  1  0  0  0
 17 28  1  0  0  0
 18 19  2  0  0  0
 18 20  1  0  0  0
 20 21  1  0  0  0
 20 22  1  0  0  0
 20 45  1  0  0  0
 22 27  1  0  0  0
 22 23  2  0  0  0
 23 24  1  0  0  0
 23 46  1  0  0  0
 24 25  2  0  0  0
 24 47  1  0  0  0
 25 26  1  0  0  0
 25 48  1  0  0  0
 26 27  2  0  0  0
 26 49  1  0  0  0
 27 50  1  0  0  0
 28 29  1  0  0  0
 28 51  1  0  0  0
 28 52  1  0  0  0
 29 30  1  0  0  0
 29 53  1  0  0  0
 29 54  1  0  0  0
 30 31  1  0  0  0
 30 55  1  0  0  0
 30 56  1  0  0  0
 31 32  1  0  0  0
 32 57  1  0  0  0
 32 58  1  0  0  0
 32 59  1  0  0  0
M  END
> <s_m_entry_id>
27526

> <s_m_entry_name>
ligand_docking-pose.80

> <s_m_Source_Path>
/home/csk/Desktop/cluster/DUD-E-result/reni

> <s_m_Source_File>
ligand_docking-pose.sdf

> <i_m_Source_File_Index>
80

> <i_lp_mmshare_version>
53161

> <i_f3d_flags>
0

> <r_lp_tautomer_probability>
0.999999624730965

> <s_lp_Force_Field>
OPLS_2005

> <r_lp_Energy>
29.509677

> <b_lp_Chiralities_Consistent>
1

> <s_lp_Variant>
405770-1

> <s_i_glide_gridfile>
glide-grid_3g6z

> <i_i_glide_lignum>
73

> <i_i_glide_rotatable_bonds>
7

> <r_i_docking_score>
-7.33192485281157

> <r_i_glide_ligand_efficiency>
-0.229122651650362

> <r_i_glide_ligand_efficiency_sa>
-0.727419075678707

> <r_i_glide_ligand_efficiency_ln>
-1.64181783526763

> <r_i_glide_gscore>
-7.33192485281157

> <r_i_glide_lipo>
-3.03778569582577

> <r_i_glide_hbond>
-0.0607097671981363

> <r_i_glide_metal>
0

> <r_i_glide_rewards>
-2.03861724851483

> <r_i_glide_evdw>
-41.3408813476562

> <r_i_glide_ecoul>
-3.96637368202209

> <r_i_glide_erotb>
0.529672387755961

> <r_i_glide_esite>
-0.0624844093426731

> <r_i_glide_emodel>
-62.6213074355376

> <r_i_glide_energy>
-45.3072550296783

> <r_i_glide_einternal>
5.21496725082397

> <i_i_glide_confnum>
157

> <i_i_glide_posenum>
283

> <r_i_glide_eff_state_penalty>
0

> <s_user_duplicate_titles>
405770

> <s_m_subgroup_title>
dock_pv

> <s_m_subgroupid>
dock_pv1

> <b_m_subgroup_collapsed>
0

$$$$
280130
                    3D
 Schrodinger Suite 2021-1.
 87 90  0  0  1  0            999 V2000
   -4.7336  -12.2765  -12.6275 C   0  0  0  0  0  0
   -5.6134  -13.5294  -12.4945 C   0  0  0  0  0  0
   -7.1052  -13.1506  -12.3805 C   0  0  0  0  0  0
   -5.1056  -14.4320  -11.3476 C   0  0  0  0  0  0
   -5.5638  -15.9104  -11.4136 C   0  0  1  0  0  0
   -4.7688  -16.7499  -10.3987 C   0  0  0  0  0  0
   -4.9252  -16.5426   -9.1940 O   0  0  0  0  0  0
   -3.9424  -17.6846  -10.8988 N   0  0  0  0  0  0
   -3.1397  -18.6197  -10.0876 C   0  0  1  0  0  0
   -4.0567  -19.7074   -9.4321 C   0  0  0  0  0  0
   -3.6178  -20.3219   -8.0747 C   0  0  0  0  0  0
   -4.6708  -21.3502   -7.5899 C   0  0  0  0  0  0
   -4.3234  -21.9356   -6.2058 C   0  0  0  0  0  0
   -2.9205  -22.5772   -6.2129 C   0  0  0  0  0  0
   -1.8474  -21.5921   -6.7105 C   0  0  0  0  0  0
   -2.2235  -20.9856   -8.0782 C   0  0  0  0  0  0
   -1.9024  -19.1494  -10.8988 C   0  0  1  0  0  0
   -2.2401  -20.1426  -12.0354 C   0  0  0  0  0  0
   -2.2802  -19.8056  -13.2204 O   0  0  0  0  0  0
   -2.4333  -21.3972  -11.5802 O   0  0  0  0  0  0
   -2.7385  -22.4536  -12.4775 C   0  0  0  0  0  0
   -1.1668  -18.0543  -11.4384 O   0  0  0  0  0  0
   -6.9975  -16.0074  -11.1206 N   0  0  0  0  0  0
   -7.7258  -17.1332  -11.2160 C   0  0  0  0  0  0
   -7.2985  -18.1625  -11.7376 O   0  0  0  0  0  0
   -9.1597  -17.0705  -10.6167 C   0  0  2  0  0  0
   -9.1508  -16.5831   -9.1427 C   0  0  0  0  0  0
  -10.4087  -15.8605   -8.6932 C   0  0  0  0  0  0
  -10.5193  -14.4591   -8.8210 C   0  0  0  0  0  0
  -11.6827  -13.8112   -8.4211 C   0  0  0  0  0  0
  -12.7531  -14.5417   -7.9241 C   0  0  0  0  0  0
  -12.6734  -15.9246   -7.8308 C   0  0  0  0  0  0
  -11.5179  -16.5844   -8.2206 C   0  0  0  0  0  0
  -10.0251  -18.2721  -10.7430 N   0  0  0  0  0  0
  -11.3966  -18.1665  -11.2555 C   0  0  0  0  0  0
  -11.8687  -19.5850  -11.2211 C   0  0  0  0  0  0
  -10.8329  -20.3942  -10.8207 C   0  0  0  0  0  0
  -10.9998  -21.7802  -10.8209 C   0  0  0  0  0  0
  -12.2311  -22.2997  -11.2411 C   0  0  0  0  0  0
  -13.2443  -21.4117  -11.6209 C   0  0  0  0  0  0
  -13.0779  -20.0621  -11.6204 N   0  0  0  0  0  0
   -9.6659  -19.5513  -10.4243 C   0  0  0  0  0  0
   -8.6215  -19.9356   -9.8977 O   0  0  0  0  0  0
   -2.7146  -18.0314   -9.2704 H   0  0  0  0  0  0
   -9.6360  -16.2891  -11.2095 H   0  0  0  0  0  0
   -4.7654  -11.6639  -11.7253 H   0  0  0  0  0  0
   -3.6914  -12.5386  -12.8188 H   0  0  0  0  0  0
   -5.0669  -11.6637  -13.4636 H   0  0  0  0  0  0
   -5.4779  -14.0713  -13.4296 H   0  0  0  0  0  0
   -7.5070  -13.3443  -11.3863 H   0  0  0  0  0  0
   -7.2743  -12.0931  -12.5865 H   0  0  0  0  0  0
   -7.7043  -13.7157  -13.0936 H   0  0  0  0  0  0
   -5.3438  -13.9918  -10.3790 H   0  0  0  0  0  0
   -4.0151  -14.4346  -11.3988 H   0  0  0  0  0  0
   -5.3840  -16.2951  -12.4192 H   0  0  0  0  0  0
   -3.8425  -17.7622  -11.9026 H   0  0  0  0  0  0
   -4.2956  -20.4925  -10.1465 H   0  0  0  0  0  0
   -5.0295  -19.2540   -9.2307 H   0  0  0  0  0  0
   -3.5741  -19.5251   -7.3294 H   0  0  0  0  0  0
   -4.7686  -22.1517   -8.3251 H   0  0  0  0  0  0
   -5.6576  -20.8838   -7.5579 H   0  0  0  0  0  0
   -5.0715  -22.6742   -5.9163 H   0  0  0  0  0  0
   -4.3617  -21.1469   -5.4523 H   0  0  0  0  0  0
   -2.9295  -23.4588   -6.8566 H   0  0  0  0  0  0
   -2.6615  -22.9330   -5.2211 H   0  0  0  0  0  0
   -0.8833  -22.0985   -6.7801 H   0  0  0  0  0  0
   -1.7238  -20.7928   -5.9762 H   0  0  0  0  0  0
   -1.4683  -20.2516   -8.3438 H   0  0  0  0  0  0
   -2.1809  -21.7558   -8.8487 H   0  0  0  0  0  0
   -1.2135  -19.6636  -10.2411 H   0  0  0  0  0  0
   -2.9586  -23.3612  -11.9160 H   0  0  0  0  0  0
   -3.6119  -22.2121  -13.0869 H   0  0  0  0  0  0
   -1.8964  -22.6580  -13.1423 H   0  0  0  0  0  0
   -0.4234  -18.3996  -11.9427 H   0  0  0  0  0  0
   -7.4127  -15.1861  -10.7100 H   0  0  0  0  0  0
   -8.9922  -17.4352   -8.4794 H   0  0  0  0  0  0
   -8.3116  -15.9183   -8.9387 H   0  0  0  0  0  0
   -9.6930  -13.8827   -9.2123 H   0  0  0  0  0  0
  -11.7542  -12.7369   -8.5024 H   0  0  0  0  0  0
  -13.6579  -14.0345   -7.6219 H   0  0  0  0  0  0
  -13.5161  -16.4914   -7.4609 H   0  0  0  0  0  0
  -11.4576  -17.6605   -8.1595 H   0  0  0  0  0  0
  -12.0092  -17.5100  -10.6387 H   0  0  0  0  0  0
  -11.4002  -17.7645  -12.2715 H   0  0  0  0  0  0
  -10.2036  -22.4443  -10.5168 H   0  0  0  0  0  0
  -12.3989  -23.3662  -11.2680 H   0  0  0  0  0  0
  -14.2080  -21.7750  -11.9479 H   0  0  0  0  0  0
  1  2  1  0  0  0
  1 46  1  0  0  0
  1 47  1  0  0  0
  1 48  1  0  0  0
  2  3  1  0  0  0
  2  4  1  0  0  0
  2 49  1  0  0  0
  3 50  1  0  0  0
  3 51  1  0  0  0
  3 52  1  0  0  0
  4  5  1  0  0  0
  4 53  1  0  0  0
  4 54  1  0  0  0
  5  6  1  0  0  0
  5 23  1  0  0  0
  5 55  1  0  0  0
  6  7  2  0  0  0
  6  8  1  0  0  0
  8  9  1  0  0  0
  8 56  1  0  0  0
  9 44  1  0  0  0
  9 10  1  0  0  0
  9 17  1  0  0  0
 10 11  1  0  0  0
 10 57  1  0  0  0
 10 58  1  0  0  0
 11 16  1  0  0  0
 11 12  1  0  0  0
 11 59  1  0  0  0
 12 13  1  0  0  0
 12 60  1  0  0  0
 12 61  1  0  0  0
 13 14  1  0  0  0
 13 62  1  0  0  0
 13 63  1  0  0  0
 14 15  1  0  0  0
 14 64  1  0  0  0
 14 65  1  0  0  0
 15 16  1  0  0  0
 15 66  1  0  0  0
 15 67  1  0  0  0
 16 68  1  0  0  0
 16 69  1  0  0  0
 17 18  1  0  0  0
 17 22  1  0  0  0
 17 70  1  0  0  0
 18 19  2  0  0  0
 18 20  1  0  0  0
 20 21  1  0  0  0
 21 71  1  0  0  0
 21 72  1  0  0  0
 21 73  1  0  0  0
 22 74  1  0  0  0
 23 24  1  0  0  0
 23 75  1  0  0  0
 24 25  2  0  0  0
 24 26  1  0  0  0
 26 45  1  0  0  0
 26 27  1  0  0  0
 26 34  1  0  0  0
 27 28  1  0  0  0
 27 76  1  0  0  0
 27 77  1  0  0  0
 28 33  1  0  0  0
 28 29  2  0  0  0
 29 30  1  0  0  0
 29 78  1  0  0  0
 30 31  2  0  0  0
 30 79  1  0  0  0
 31 32  1  0  0  0
 31 80  1  0  0  0
 32 33  2  0  0  0
 32 81  1  0  0  0
 33 82  1  0  0  0
 34 42  1  0  0  0
 34 35  1  0  0  0
 35 36  1  0  0  0
 35 83  1  0  0  0
 35 84  1  0  0  0
 36 41  2  0  0  0
 36 37  1  0  0  0
 37 38  2  0  0  0
 37 42  1  0  0  0
 38 39  1  0  0  0
 38 85  1  0  0  0
 39 40  2  0  0  0
 39 86  1  0  0  0
 40 41  1  0  0  0
 40 87  1  0  0  0
 42 43  2  0  0  0
M  END
> <s_m_entry_id>
27529

> <s_m_entry_name>
ligand_docking-pose.83

> <s_m_Source_Path>
/home/csk/Desktop/cluster/DUD-E-result/reni

> <s_m_Source_File>
ligand_docking-pose.sdf

> <i_m_Source_File_Index>
83

> <i_lp_mmshare_version>
53161

> <i_f3d_flags>
0

> <r_lp_tautomer_probability>
1

> <s_lp_Force_Field>
OPLS_2005

> <r_lp_Energy>
42.899836

> <b_lp_Chiralities_Consistent>
1

> <s_lp_Variant>
280130-4

> <s_i_glide_gridfile>
glide-grid_3g6z

> <i_i_glide_lignum>
206

> <i_i_glide_rotatable_bonds>
17

> <r_i_docking_score>
-7.27785078455105

> <r_i_glide_ligand_efficiency>
-0.169252343826769

> <r_i_glide_ligand_efficiency_sa>
-0.592958332335196

> <r_i_glide_ligand_efficiency_ln>
-1.52857485669679

> <r_i_glide_gscore>
-7.27785078455105

> <r_i_glide_lipo>
-3.83554305355106

> <r_i_glide_hbond>
-0.32

> <r_i_glide_metal>
0

> <r_i_glide_rewards>
-0.795561438085917

> <r_i_glide_evdw>
-50.2099761962891

> <r_i_glide_ecoul>
-3.03080368041992

> <r_i_glide_erotb>
0.665043605790442

> <r_i_glide_esite>
-0.026670536827068

> <r_i_glide_emodel>
-69.7860554139592

> <r_i_glide_energy>
-53.240779876709

> <r_i_glide_einternal>
9.23285961151123

> <i_i_glide_confnum>
51

> <i_i_glide_posenum>
398

> <r_i_glide_eff_state_penalty>
0

> <s_user_duplicate_titles>
280130

> <s_m_subgroup_title>
dock_pv

> <s_m_subgroupid>
dock_pv1

> <b_m_subgroup_collapsed>
0

$$$$
150205
                    3D
 Schrodinger Suite 2021-1.
 89 89  0  0  1  0            999 V2000
    1.2704  -16.3472  -10.1670 C   0  0  0  0  0  0
   -0.2586  -16.2201  -10.1238 C   0  0  0  0  0  0
   -0.7668  -14.9135  -10.7658 C   0  0  0  0  0  0
   -2.2973  -14.7301  -10.7440 C   0  0  0  0  0  0
   -2.9853  -15.6769  -11.6210 N   0  0  0  0  0  0
   -3.5750  -16.8208  -11.2367 C   0  0  0  0  0  0
   -3.6735  -17.1574  -10.0557 O   0  0  0  0  0  0
   -4.0798  -17.7624  -12.3551 C   0  0  1  0  0  0
   -3.1593  -19.0100  -12.3776 C   0  0  0  0  0  0
   -5.6172  -18.0525  -12.2266 C   0  0  0  0  0  0
   -6.1063  -19.4760  -12.6199 C   0  0  1  0  0  0
   -7.5972  -19.7925  -12.2646 C   0  0  2  0  0  0
   -8.0416  -19.4425  -10.8075 C   0  0  0  0  0  0
   -9.0282  -18.2384  -10.6694 C   0  0  2  0  0  0
   -9.1034  -17.8303   -9.1668 C   0  0  0  0  0  0
   -9.8947  -16.5659   -8.8211 C   0  0  0  0  0  0
  -11.0468  -16.6916   -8.0480 C   0  0  0  0  0  0
  -11.8102  -15.5865   -7.6958 C   0  0  0  0  0  0
  -11.4149  -14.2955   -8.0742 C   0  0  0  0  0  0
  -10.2313  -14.1692   -8.8209 C   0  0  0  0  0  0
   -9.4701  -15.2900   -9.2202 C   0  0  0  0  0  0
   -8.3131  -15.2081   -9.9783 O   0  0  0  0  0  0
   -7.5576  -13.9952  -10.0031 C   0  0  0  0  0  0
   -6.8161  -13.7839   -8.6783 C   0  0  0  0  0  0
   -7.1122  -12.8611   -7.9189 O   0  0  0  0  0  0
   -5.8405  -14.6991   -8.4873 O   0  0  0  0  0  0
   -5.0509  -14.7242   -7.3042 C   0  0  0  0  0  0
   -4.0555  -13.5526   -7.2248 C   0  0  0  0  0  0
  -12.2337  -13.0389   -7.6809 C   0  0  0  0  0  0
  -12.7347  -12.3145   -8.9482 C   0  0  0  0  0  0
  -11.3700  -12.0579   -6.8578 C   0  0  0  0  0  0
  -13.4692  -13.3774   -6.8150 C   0  0  0  0  0  0
  -10.3978  -18.4967  -11.4020 C   0  0  0  0  0  0
  -11.4686  -17.3954  -11.2759 C   0  0  0  0  0  0
  -11.0307  -19.8829  -11.1549 C   0  0  0  0  0  0
   -7.8415  -21.2177  -12.4536 N   0  0  0  0  0  0
   -5.8941  -19.6462  -14.0201 O   0  0  0  0  0  0
   -5.4904  -20.1956  -12.0802 H   0  0  0  0  0  0
   -8.2397  -19.2636  -12.9653 H   0  0  0  0  0  0
   -8.5609  -17.4017  -11.1918 H   0  0  0  0  0  0
    1.5960  -17.2763   -9.6983 H   0  0  0  0  0  0
    1.6371  -16.3482  -11.1935 H   0  0  0  0  0  0
    1.7526  -15.5234   -9.6395 H   0  0  0  0  0  0
   -0.5997  -16.2793   -9.0895 H   0  0  0  0  0  0
   -0.6962  -17.0804  -10.6322 H   0  0  0  0  0  0
   -0.4161  -14.8635  -11.7954 H   0  0  0  0  0  0
   -0.3095  -14.0665  -10.2532 H   0  0  0  0  0  0
   -2.5596  -13.7141  -11.0417 H   0  0  0  0  0  0
   -2.6562  -14.8454   -9.7206 H   0  0  0  0  0  0
   -3.0691  -15.4021  -12.5951 H   0  0  0  0  0  0
   -3.9347  -17.2632  -13.3130 H   0  0  0  0  0  0
   -2.1078  -18.7300  -12.4750 H   0  0  0  0  0  0
   -3.2507  -19.5990  -11.4637 H   0  0  0  0  0  0
   -3.3761  -19.6643  -13.2209 H   0  0  0  0  0  0
   -6.1687  -17.3135  -12.8104 H   0  0  0  0  0  0
   -5.9251  -17.8633  -11.1994 H   0  0  0  0  0  0
   -7.1598  -19.2886  -10.1870 H   0  0  0  0  0  0
   -8.5098  -20.2987  -10.3181 H   0  0  0  0  0  0
   -8.0916  -17.6553   -8.7944 H   0  0  0  0  0  0
   -9.4684  -18.6751   -8.5832 H   0  0  0  0  0  0
  -11.3647  -17.6630   -7.7238 H   0  0  0  0  0  0
  -12.7024  -15.7624   -7.1166 H   0  0  0  0  0  0
   -9.9224  -13.1801   -9.1162 H   0  0  0  0  0  0
   -8.1898  -13.1422  -10.2387 H   0  0  0  0  0  0
   -6.8224  -14.0542  -10.8074 H   0  0  0  0  0  0
   -4.4935  -15.6603   -7.3067 H   0  0  0  0  0  0
   -5.6941  -14.7534   -6.4243 H   0  0  0  0  0  0
   -3.3346  -13.7105   -6.4258 H   0  0  0  0  0  0
   -4.5639  -12.6081   -7.0294 H   0  0  0  0  0  0
   -3.4947  -13.4432   -8.1516 H   0  0  0  0  0  0
  -13.0701  -13.0148   -9.7132 H   0  0  0  0  0  0
  -13.5790  -11.6633   -8.7225 H   0  0  0  0  0  0
  -11.9627  -11.6756   -9.3839 H   0  0  0  0  0  0
  -11.0690  -12.5137   -5.9168 H   0  0  0  0  0  0
  -10.4653  -11.7493   -7.3820 H   0  0  0  0  0  0
  -11.9195  -11.1490   -6.6091 H   0  0  0  0  0  0
  -13.1956  -13.8968   -5.8948 H   0  0  0  0  0  0
  -14.0131  -12.4774   -6.5192 H   0  0  0  0  0  0
  -14.1732  -14.0105   -7.3560 H   0  0  0  0  0  0
  -10.1479  -18.4634  -12.4564 H   0  0  0  0  0  0
  -12.0420  -17.4890  -10.3554 H   0  0  0  0  0  0
  -11.0295  -16.4010  -11.3045 H   0  0  0  0  0  0
  -12.1855  -17.4541  -12.0961 H   0  0  0  0  0  0
  -11.1412  -20.0929  -10.0922 H   0  0  0  0  0  0
  -12.0154  -19.9558  -11.6191 H   0  0  0  0  0  0
  -10.4327  -20.6802  -11.5985 H   0  0  0  0  0  0
   -7.6985  -21.4596  -13.4302 H   0  0  0  0  0  0
   -7.1653  -21.7557  -11.9340 H   0  0  0  0  0  0
   -6.4692  -19.0247  -14.4926 H   0  0  0  0  0  0
  1  2  1  0  0  0
  1 41  1  0  0  0
  1 42  1  0  0  0
  1 43  1  0  0  0
  2  3  1  0  0  0
  2 44  1  0  0  0
  2 45  1  0  0  0
  3  4  1  0  0  0
  3 46  1  0  0  0
  3 47  1  0  0  0
  4  5  1  0  0  0
  4 48  1  0  0  0
  4 49  1  0  0  0
  5  6  1  0  0  0
  5 50  1  0  0  0
  6  7  2  0  0  0
  6  8  1  0  0  0
  8  9  1  0  0  0
  8 10  1  0  0  0
  8 51  1  0  0  0
  9 52  1  0  0  0
  9 53  1  0  0  0
  9 54  1  0  0  0
 10 11  1  0  0  0
 10 55  1  0  0  0
 10 56  1  0  0  0
 11 38  1  0  0  0
 11 12  1  0  0  0
 11 37  1  0  0  0
 12 39  1  0  0  0
 12 13  1  0  0  0
 12 36  1  0  0  0
 13 14  1  0  0  0
 13 57  1  0  0  0
 13 58  1  0  0  0
 14 40  1  0  0  0
 14 15  1  0  0  0
 14 33  1  0  0  0
 15 16  1  0  0  0
 15 59  1  0  0  0
 15 60  1  0  0  0
 16 21  1  0  0  0
 16 17  2  0  0  0
 17 18  1  0  0  0
 17 61  1  0  0  0
 18 19  2  0  0  0
 18 62  1  0  0  0
 19 20  1  0  0  0
 19 29  1  0  0  0
 20 21  2  0  0  0
 20 63  1  0  0  0
 21 22  1  0  0  0
 22 23  1  0  0  0
 23 24  1  0  0  0
 23 64  1  0  0  0
 23 65  1  0  0  0
 24 25  2  0  0  0
 24 26  1  0  0  0
 26 27  1  0  0  0
 27 28  1  0  0  0
 27 66  1  0  0  0
 27 67  1  0  0  0
 28 68  1  0  0  0
 28 69  1  0  0  0
 28 70  1  0  0  0
 29 30  1  0  0  0
 29 31  1  0  0  0
 29 32  1  0  0  0
 30 71  1  0  0  0
 30 72  1  0  0  0
 30 73  1  0  0  0
 31 74  1  0  0  0
 31 75  1  0  0  0
 31 76  1  0  0  0
 32 77  1  0  0  0
 32 78  1  0  0  0
 32 79  1  0  0  0
 33 34  1  0  0  0
 33 35  1  0  0  0
 33 80  1  0  0  0
 34 81  1  0  0  0
 34 82  1  0  0  0
 34 83  1  0  0  0
 35 84  1  0  0  0
 35 85  1  0  0  0
 35 86  1  0  0  0
 36 87  1  0  0  0
 36 88  1  0  0  0
 37 89  1  0  0  0
M  END
> <s_m_entry_id>
27530

> <s_m_entry_name>
ligand_docking-pose.84

> <s_m_Source_Path>
/home/csk/Desktop/cluster/DUD-E-result/reni

> <s_m_Source_File>
ligand_docking-pose.sdf

> <i_m_Source_File_Index>
84

> <i_lp_mmshare_version>
53161

> <i_f3d_flags>
0

> <r_lp_tautomer_probability>
1

> <s_lp_Force_Field>
OPLS_2005

> <r_lp_Energy>
34.25388

> <b_lp_Chiralities_Consistent>
1

> <s_lp_Variant>
150205-2

> <s_i_glide_gridfile>
glide-grid_3g6z

> <i_i_glide_lignum>
519

> <i_i_glide_rotatable_bonds>
20

> <r_i_docking_score>
-7.25069464729937

> <r_i_glide_ligand_efficiency>
-0.19596472019728

> <r_i_glide_ligand_efficiency_sa>
-0.652997922007089

> <r_i_glide_ligand_efficiency_ln>
-1.57250568859972

> <r_i_glide_gscore>
-7.25069464729937

> <r_i_glide_lipo>
-3.14140111301487

> <r_i_glide_hbond>
-0.830746333492656

> <r_i_glide_metal>
0

> <r_i_glide_rewards>
-0.850449716564205

> <r_i_glide_evdw>
-39.5749206542969

> <r_i_glide_ecoul>
-10.396785736084

> <r_i_glide_erotb>
1.13689435175008

> <r_i_glide_esite>
-0.0267279428502793

> <r_i_glide_emodel>
-62.8300722603224

> <r_i_glide_energy>
-49.9717063903809

> <r_i_glide_einternal>
14.8841848373413

> <i_i_glide_confnum>
39

> <i_i_glide_posenum>
114

> <r_i_glide_eff_state_penalty>
0

> <s_user_duplicate_titles>
150205

> <s_m_subgroup_title>
dock_pv

> <s_m_subgroupid>
dock_pv1

> <b_m_subgroup_collapsed>
0

$$$$
480701
                    3D
 Schrodinger Suite 2021-1.
 82 86  0  0  1  0            999 V2000
   -3.2711  -21.2391  -11.1348 C   0  0  0  0  0  0
   -4.3166  -20.4068  -11.7221 N   0  0  2  0  0  0
   -5.0457  -21.1300  -12.7745 C   0  0  0  0  0  0
   -6.1219  -20.2339  -13.4617 C   0  0  1  0  0  0
   -7.3115  -19.8066  -12.5600 C   0  0  0  0  0  0
   -7.0687  -18.5224  -11.7481 C   0  0  0  0  0  0
   -5.9036  -17.8308  -11.9038 C   0  0  0  0  0  0
   -4.8593  -18.2798  -12.9293 C   0  0  1  0  0  0
   -3.7539  -19.1581  -12.2646 C   0  0  0  0  0  0
   -5.4690  -19.0475  -14.0210 N   0  0  2  0  0  0
   -5.5968  -16.5983  -11.2016 C   0  0  0  0  0  0
   -4.8284  -16.6402  -10.2397 O   0  0  0  0  0  0
   -6.2032  -15.4494  -11.6173 N   0  0  0  0  0  0
   -7.0033  -15.3326  -12.8445 C   0  0  0  0  0  0
   -6.2963  -14.2715  -10.7341 C   0  0  0  0  0  0
   -4.9783  -13.6518  -10.2704 C   0  0  0  0  0  0
   -4.5903  -13.8251   -8.9344 C   0  0  0  0  0  0
   -3.4139  -13.2469   -8.4562 C   0  0  0  0  0  0
   -2.6219  -12.4763   -9.3054 C   0  0  0  0  0  0
   -3.0164  -12.2693  -10.6265 C   0  0  0  0  0  0
   -4.1999  -12.8342  -11.1077 C   0  0  0  0  0  0
   -4.6752  -12.4627  -12.7256 Cl  0  0  0  0  0  0
   -8.1622  -18.1130  -10.8341 C   0  0  0  0  0  0
   -7.9376  -17.8719   -9.4752 C   0  0  0  0  0  0
   -8.9785  -17.4365   -8.6607 C   0  0  0  0  0  0
  -10.2587  -17.2557   -9.1828 C   0  0  0  0  0  0
  -10.4893  -17.5380  -10.5386 C   0  0  0  0  0  0
   -9.4444  -17.9452  -11.3555 C   0  0  0  0  0  0
  -11.2082  -16.7923   -8.2927 O   0  0  0  0  0  0
  -12.5645  -16.6220   -8.6999 C   0  0  0  0  0  0
  -13.2264  -15.3973   -8.0559 C   0  0  0  0  0  0
  -12.3906  -14.6185   -7.0296 C   0  0  0  0  0  0
  -13.0700  -13.4134   -6.7029 O   0  0  0  0  0  0
  -12.9892  -12.3628   -7.6653 C   0  0  0  0  0  0
  -11.9501  -11.3447   -7.2293 C   0  0  0  0  0  0
  -12.3641  -10.2833   -6.4212 C   0  0  0  0  0  0
  -11.4664   -9.3026   -6.0213 C   0  0  0  0  0  0
  -10.1421   -9.3892   -6.4210 C   0  0  0  0  0  0
   -9.7050  -10.4555   -7.2109 C   0  0  0  0  0  0
  -10.6039  -11.4527   -7.6209 C   0  0  0  0  0  0
  -10.2291  -12.5389   -8.3926 O   0  0  0  0  0  0
   -8.8647  -12.9696   -8.4209 C   0  0  0  0  0  0
   -6.5375  -20.8008  -14.2952 H   0  0  0  0  0  0
   -4.3868  -17.4038  -13.3808 H   0  0  0  0  0  0
   -2.7608  -20.7047  -10.3320 H   0  0  0  0  0  0
   -3.6971  -22.1468  -10.7042 H   0  0  0  0  0  0
   -2.5230  -21.5300  -11.8737 H   0  0  0  0  0  0
   -5.5165  -22.0289  -12.3748 H   0  0  0  0  0  0
   -4.3353  -21.4784  -13.5259 H   0  0  0  0  0  0
   -7.6210  -20.6119  -11.8940 H   0  0  0  0  0  0
   -8.1933  -19.6582  -13.1814 H   0  0  0  0  0  0
   -3.2767  -18.5970  -11.4587 H   0  0  0  0  0  0
   -2.9737  -19.3811  -12.9960 H   0  0  0  0  0  0
   -6.1338  -18.4784  -14.5486 H   0  0  0  0  0  0
   -6.8881  -16.1783  -13.5217 H   0  0  0  0  0  0
   -8.0630  -15.2451  -12.6034 H   0  0  0  0  0  0
   -6.7101  -14.4409  -13.3975 H   0  0  0  0  0  0
   -6.8765  -13.4833  -11.2173 H   0  0  0  0  0  0
   -6.8847  -14.5460   -9.8582 H   0  0  0  0  0  0
   -5.1894  -14.4303   -8.2691 H   0  0  0  0  0  0
   -3.1141  -13.4034   -7.4291 H   0  0  0  0  0  0
   -1.7053  -12.0335   -8.9429 H   0  0  0  0  0  0
   -2.4057  -11.6634  -11.2793 H   0  0  0  0  0  0
   -6.9516  -18.0031   -9.0536 H   0  0  0  0  0  0
   -8.7935  -17.2309   -7.6166 H   0  0  0  0  0  0
  -11.4497  -17.4403  -11.0144 H   0  0  0  0  0  0
   -9.6382  -18.1097  -12.4066 H   0  0  0  0  0  0
  -13.1289  -17.5193   -8.4541 H   0  0  0  0  0  0
  -12.6690  -16.4752   -9.7681 H   0  0  0  0  0  0
  -14.1818  -15.6802   -7.6117 H   0  0  0  0  0  0
  -13.4691  -14.7211   -8.8698 H   0  0  0  0  0  0
  -11.3878  -14.4124   -7.3989 H   0  0  0  0  0  0
  -12.2631  -15.2103   -6.1228 H   0  0  0  0  0  0
  -13.9674  -11.8789   -7.6976 H   0  0  0  0  0  0
  -12.7900  -12.6861   -8.6878 H   0  0  0  0  0  0
  -13.3979  -10.2044   -6.1177 H   0  0  0  0  0  0
  -11.8002   -8.4775   -5.4097 H   0  0  0  0  0  0
   -9.4689   -8.6139   -6.1030 H   0  0  0  0  0  0
   -8.6681  -10.4889   -7.5107 H   0  0  0  0  0  0
   -8.8543  -14.0346   -8.6548 H   0  0  0  0  0  0
   -8.2690  -12.4791   -9.1856 H   0  0  0  0  0  0
   -8.3341  -12.8473   -7.4782 H   0  0  0  0  0  0
  1  2  1  0  0  0
  1 45  1  0  0  0
  1 46  1  0  0  0
  1 47  1  0  0  0
  2  9  1  0  0  0
  2  3  1  0  0  0
  3  4  1  0  0  0
  3 48  1  0  0  0
  3 49  1  0  0  0
  4 43  1  0  0  0
  4 10  1  0  0  0
  4  5  1  0  0  0
  5  6  1  0  0  0
  5 50  1  0  0  0
  5 51  1  0  0  0
  6  7  2  0  0  0
  6 23  1  0  0  0
  7  8  1  0  0  0
  7 11  1  0  0  0
  8 44  1  0  0  0
  8  9  1  0  0  0
  8 10  1  0  0  0
  9 52  1  0  0  0
  9 53  1  0  0  0
 10 54  1  0  0  0
 11 12  2  0  0  0
 11 13  1  0  0  0
 13 14  1  0  0  0
 13 15  1  0  0  0
 14 55  1  0  0  0
 14 56  1  0  0  0
 14 57  1  0  0  0
 15 16  1  0  0  0
 15 58  1  0  0  0
 15 59  1  0  0  0
 16 21  1  0  0  0
 16 17  2  0  0  0
 17 18  1  0  0  0
 17 60  1  0  0  0
 18 19  2  0  0  0
 18 61  1  0  0  0
 19 20  1  0  0  0
 19 62  1  0  0  0
 20 21  2  0  0  0
 20 63  1  0  0  0
 21 22  1  0  0  0
 23 28  1  0  0  0
 23 24  2  0  0  0
 24 25  1  0  0  0
 24 64  1  0  0  0
 25 26  2  0  0  0
 25 65  1  0  0  0
 26 27  1  0  0  0
 26 29  1  0  0  0
 27 28  2  0  0  0
 27 66  1  0  0  0
 28 67  1  0  0  0
 29 30  1  0  0  0
 30 31  1  0  0  0
 30 68  1  0  0  0
 30 69  1  0  0  0
 31 32  1  0  0  0
 31 70  1  0  0  0
 31 71  1  0  0  0
 32 33  1  0  0  0
 32 72  1  0  0  0
 32 73  1  0  0  0
 33 34  1  0  0  0
 34 35  1  0  0  0
 34 74  1  0  0  0
 34 75  1  0  0  0
 35 40  1  0  0  0
 35 36  2  0  0  0
 36 37  1  0  0  0
 36 76  1  0  0  0
 37 38  2  0  0  0
 37 77  1  0  0  0
 38 39  1  0  0  0
 38 78  1  0  0  0
 39 40  2  0  0  0
 39 79  1  0  0  0
 40 41  1  0  0  0
 41 42  1  0  0  0
 42 80  1  0  0  0
 42 81  1  0  0  0
 42 82  1  0  0  0
M  END
> <s_m_entry_id>
27532

> <s_m_entry_name>
ligand_docking-pose.86

> <s_m_Source_Path>
/home/csk/Desktop/cluster/DUD-E-result/reni

> <s_m_Source_File>
ligand_docking-pose.sdf

> <i_m_Source_File_Index>
86

> <i_lp_mmshare_version>
53161

> <i_f3d_flags>
0

> <r_lp_tautomer_probability>
1

> <s_lp_Force_Field>
OPLS_2005

> <r_lp_Energy>
78.733589

> <b_lp_Chiralities_Consistent>
1

> <s_lp_Variant>
480701-1

> <s_i_glide_gridfile>
glide-grid_3g6z

> <i_i_glide_lignum>
798

> <i_i_glide_rotatable_bonds>
13

> <r_i_docking_score>
-7.20857507010032

> <r_i_glide_ligand_efficiency>
-0.171632739764293

> <r_i_glide_ligand_efficiency_sa>
-0.596599975812248

> <r_i_glide_ligand_efficiency_ln>
-1.52154448302629

> <r_i_glide_gscore>
-7.20857507010032

> <r_i_glide_lipo>
-4.15772867280172

> <r_i_glide_hbond>
-0.428352633330284

> <r_i_glide_metal>
0

> <r_i_glide_rewards>
0.531788559545474

> <r_i_glide_evdw>
-52.5647659301758

> <r_i_glide_ecoul>
-7.19513034820557

> <r_i_glide_erotb>
0.553225525225837

> <r_i_glide_esite>
0

> <r_i_glide_emodel>
-69.378706763523

> <r_i_glide_energy>
-59.7598962783813

> <r_i_glide_einternal>
22.62282371521

> <i_i_glide_confnum>
46

> <i_i_glide_posenum>
21

> <r_i_glide_eff_state_penalty>
0

> <s_user_duplicate_titles>
480701

> <s_m_subgroup_title>
dock_pv

> <s_m_subgroupid>
dock_pv1

> <b_m_subgroup_collapsed>
0

$$$$
116746
                    3D
 Schrodinger Suite 2021-1.
 89 91  0  0  1  0            999 V2000
   -6.8730  -20.4228  -11.9845 C   0  0  0  0  0  0
   -7.5243  -19.7007  -10.7904 C   0  0  1  0  0  0
   -8.5537  -18.6005  -11.1879 C   0  0  1  0  0  0
   -9.1904  -17.8588   -9.9677 C   0  0  2  0  0  0
  -10.5450  -17.1389  -10.3225 C   0  0  0  0  0  0
  -11.4920  -16.6662   -9.1616 C   0  0  0  0  0  0
  -10.7833  -16.5218   -7.8065 C   0  0  0  0  0  0
  -11.6979  -16.0579   -6.6534 C   0  0  0  0  0  0
  -12.3679  -14.7162   -6.9918 C   0  0  0  0  0  0
  -13.0692  -14.7817   -8.3586 C   0  0  0  0  0  0
  -12.1316  -15.2840   -9.4758 C   0  0  0  0  0  0
   -8.1896  -17.0447   -9.2333 N   0  0  0  0  0  0
   -7.7962  -15.7860   -9.5198 C   0  0  0  0  0  0
   -8.2688  -15.0961  -10.4202 O   0  0  0  0  0  0
   -6.6874  -15.1963   -8.6290 C   0  0  2  0  0  0
   -6.5745  -13.6611   -8.8184 C   0  0  0  0  0  0
   -5.5979  -12.9242   -7.9383 C   0  0  0  0  0  0
   -5.8800  -12.1044   -6.8685 C   0  0  0  0  0  0
   -4.6694  -11.6001   -6.4307 N   0  0  0  0  0  0
   -3.7270  -12.1146   -7.2212 C   0  0  0  0  0  0
   -4.2152  -12.9259   -8.1493 N   0  0  0  0  0  0
   -5.4116  -15.8896   -8.8502 N   0  0  0  0  0  0
   -4.6819  -15.8943   -9.9870 C   0  0  0  0  0  0
   -4.9386  -15.1805  -10.9561 O   0  0  0  0  0  0
   -3.4834  -16.8835  -10.0364 C   0  0  2  0  0  0
   -2.9324  -17.0479  -11.4882 C   0  0  0  0  0  0
   -1.4990  -17.5351  -11.6207 C   0  0  0  0  0  0
   -0.4297  -16.6717  -11.2987 C   0  0  0  0  0  0
    0.8818  -17.1037  -11.4487 C   0  0  0  0  0  0
    1.1442  -18.3915  -11.8996 C   0  0  0  0  0  0
    0.1006  -19.2630  -12.1842 C   0  0  0  0  0  0
   -1.2183  -18.8555  -12.0290 C   0  0  0  0  0  0
   -3.9351  -18.1805   -9.5041 N   0  0  0  0  0  0
   -3.0869  -19.0697   -8.8720 C   0  0  0  0  0  0
   -1.8709  -18.9494   -8.7239 O   0  0  0  0  0  0
   -3.8482  -20.1002   -8.4250 O   0  0  0  0  0  0
   -3.3647  -21.2911   -7.7877 C   0  0  0  0  0  0
   -2.6736  -22.1856   -8.8382 C   0  0  0  0  0  0
   -4.6439  -21.9819   -7.2727 C   0  0  0  0  0  0
   -2.4361  -21.0062   -6.5805 C   0  0  0  0  0  0
   -7.8959  -17.6642  -12.0210 O   0  0  0  0  0  0
   -8.1225  -20.6895   -9.9717 O   0  0  0  0  0  0
   -9.3440  -19.0678  -11.7769 H   0  0  0  0  0  0
   -9.4776  -18.6409   -9.2656 H   0  0  0  0  0  0
   -6.3027  -19.7259  -12.6021 H   0  0  0  0  0  0
   -6.1808  -21.1980  -11.6531 H   0  0  0  0  0  0
   -7.6197  -20.8929  -12.6282 H   0  0  0  0  0  0
   -6.7306  -19.2414  -10.1994 H   0  0  0  0  0  0
  -10.3346  -16.3136  -10.9995 H   0  0  0  0  0  0
  -11.1346  -17.8199  -10.9371 H   0  0  0  0  0  0
  -12.2962  -17.3925   -9.0338 H   0  0  0  0  0  0
  -10.2744  -17.4404   -7.5136 H   0  0  0  0  0  0
  -10.0138  -15.7857   -8.0210 H   0  0  0  0  0  0
  -12.4599  -16.8088   -6.4369 H   0  0  0  0  0  0
  -11.1181  -15.9679   -5.7351 H   0  0  0  0  0  0
  -13.0829  -14.4414   -6.2144 H   0  0  0  0  0  0
  -11.6158  -13.9258   -7.0040 H   0  0  0  0  0  0
  -13.9151  -15.4598   -8.2759 H   0  0  0  0  0  0
  -13.4694  -13.8011   -8.6165 H   0  0  0  0  0  0
  -11.3415  -14.5468   -9.6210 H   0  0  0  0  0  0
  -12.6677  -15.3039  -10.4210 H   0  0  0  0  0  0
   -7.7207  -17.5150   -8.4746 H   0  0  0  0  0  0
   -6.9748  -15.3799   -7.5933 H   0  0  0  0  0  0
   -6.3259  -13.4171   -9.8507 H   0  0  0  0  0  0
   -7.5543  -13.2112   -8.6511 H   0  0  0  0  0  0
   -4.5238  -10.9632   -5.6563 H   0  0  0  0  0  0
   -6.8248  -11.8387   -6.4219 H   0  0  0  0  0  0
   -2.6740  -11.8961   -7.1160 H   0  0  0  0  0  0
   -5.0922  -16.4623   -8.0832 H   0  0  0  0  0  0
   -2.7218  -16.4172   -9.4073 H   0  0  0  0  0  0
   -2.9447  -16.0943  -12.0206 H   0  0  0  0  0  0
   -3.5874  -17.6999  -12.0697 H   0  0  0  0  0  0
   -0.6305  -15.6679  -10.9545 H   0  0  0  0  0  0
    1.6973  -16.4354  -11.2120 H   0  0  0  0  0  0
    2.1659  -18.7261  -12.0133 H   0  0  0  0  0  0
    0.3173  -20.2684  -12.5155 H   0  0  0  0  0  0
   -2.0226  -19.5426  -12.2499 H   0  0  0  0  0  0
   -4.8960  -18.4502   -9.6441 H   0  0  0  0  0  0
   -1.8687  -21.6550   -9.3409 H   0  0  0  0  0  0
   -2.2486  -23.0828   -8.3863 H   0  0  0  0  0  0
   -3.3707  -22.4995   -9.6164 H   0  0  0  0  0  0
   -5.1629  -21.3612   -6.5413 H   0  0  0  0  0  0
   -5.3482  -22.1770   -8.0838 H   0  0  0  0  0  0
   -4.4203  -22.9362   -6.7949 H   0  0  0  0  0  0
   -2.8750  -20.2620   -5.9131 H   0  0  0  0  0  0
   -2.2551  -21.9080   -5.9927 H   0  0  0  0  0  0
   -1.4610  -20.6299   -6.8916 H   0  0  0  0  0  0
   -8.2676  -17.6789  -12.9213 H   0  0  0  0  0  0
   -8.6761  -21.2471  -10.5251 H   0  0  0  0  0  0
  1  2  1  0  0  0
  1 45  1  0  0  0
  1 46  1  0  0  0
  1 47  1  0  0  0
  2  3  1  0  0  0
  2 42  1  0  0  0
  2 48  1  0  0  0
  3 43  1  0  0  0
  3  4  1  0  0  0
  3 41  1  0  0  0
  4 44  1  0  0  0
  4  5  1  0  0  0
  4 12  1  0  0  0
  5  6  1  0  0  0
  5 49  1  0  0  0
  5 50  1  0  0  0
  6 11  1  0  0  0
  6  7  1  0  0  0
  6 51  1  0  0  0
  7  8  1  0  0  0
  7 52  1  0  0  0
  7 53  1  0  0  0
  8  9  1  0  0  0
  8 54  1  0  0  0
  8 55  1  0  0  0
  9 10  1  0  0  0
  9 56  1  0  0  0
  9 57  1  0  0  0
 10 11  1  0  0  0
 10 58  1  0  0  0
 10 59  1  0  0  0
 11 60  1  0  0  0
 11 61  1  0  0  0
 12 13  1  0  0  0
 12 62  1  0  0  0
 13 14  2  0  0  0
 13 15  1  0  0  0
 15 16  1  0  0  0
 15 22  1  0  0  0
 15 63  1  0  0  0
 16 64  1  0  0  0
 16 65  1  0  0  0
 16 17  1  0  0  0
 17 18  2  0  0  0
 17 21  1  0  0  0
 18 67  1  0  0  0
 18 19  1  0  0  0
 19 66  1  0  0  0
 19 20  1  0  0  0
 20 68  1  0  0  0
 20 21  2  0  0  0
 22 23  1  0  0  0
 22 69  1  0  0  0
 23 24  2  0  0  0
 23 25  1  0  0  0
 25 26  1  0  0  0
 25 33  1  0  0  0
 25 70  1  0  0  0
 26 27  1  0  0  0
 26 71  1  0  0  0
 26 72  1  0  0  0
 27 32  1  0  0  0
 27 28  2  0  0  0
 28 29  1  0  0  0
 28 73  1  0  0  0
 29 30  2  0  0  0
 29 74  1  0  0  0
 30 31  1  0  0  0
 30 75  1  0  0  0
 31 32  2  0  0  0
 31 76  1  0  0  0
 32 77  1  0  0  0
 33 34  1  0  0  0
 33 78  1  0  0  0
 34 35  2  0  0  0
 34 36  1  0  0  0
 36 37  1  0  0  0
 37 38  1  0  0  0
 37 39  1  0  0  0
 37 40  1  0  0  0
 38 79  1  0  0  0
 38 80  1  0  0  0
 38 81  1  0  0  0
 39 82  1  0  0  0
 39 83  1  0  0  0
 39 84  1  0  0  0
 40 85  1  0  0  0
 40 86  1  0  0  0
 40 87  1  0  0  0
 41 88  1  0  0  0
 42 89  1  0  0  0
M  END
> <s_m_entry_id>
27534

> <s_m_entry_name>
ligand_docking-pose.88

> <s_m_Source_Path>
/home/csk/Desktop/cluster/DUD-E-result/reni

> <s_m_Source_File>
ligand_docking-pose.sdf

> <i_m_Source_File_Index>
88

> <i_lp_mmshare_version>
53161

> <i_f3d_flags>
0

> <r_lp_tautomer_probability>
0.499999999999999

> <s_lp_Force_Field>
OPLS_2005

> <r_lp_Energy>
25.699063

> <b_lp_Chiralities_Consistent>
1

> <s_lp_Variant>
116746-10

> <s_i_glide_gridfile>
glide-grid_3g6z

> <i_i_glide_lignum>
632

> <i_i_glide_rotatable_bonds>
20

> <r_i_docking_score>
-7.17525683338662

> <r_i_glide_ligand_efficiency>
-0.170839448413967

> <r_i_glide_ligand_efficiency_sa>
-0.593842473944792

> <r_i_glide_ligand_efficiency_ln>
-1.51451186163261

> <r_i_glide_gscore>
-7.17525683338662

> <r_i_glide_lipo>
-3.58220951242738

> <r_i_glide_hbond>
-0.304

> <r_i_glide_metal>
0

> <r_i_glide_rewards>
-1.02065905721474

> <r_i_glide_evdw>
-46.6622695922852

> <r_i_glide_ecoul>
-4.56428146362305

> <r_i_glide_erotb>
0.749367435413218

> <r_i_glide_esite>
0

> <r_i_glide_emodel>
-69.153888925355

> <r_i_glide_energy>
-51.2265510559082

> <r_i_glide_einternal>
10.1275825500488

> <i_i_glide_confnum>
54

> <i_i_glide_posenum>
309

> <r_i_glide_eff_state_penalty>
0

> <s_user_duplicate_titles>
116746

> <s_m_subgroup_title>
dock_pv

> <s_m_subgroupid>
dock_pv1

> <b_m_subgroup_collapsed>
0

$$$$
250680
                    3D
 Schrodinger Suite 2021-1.
 88 89  0  0  1  0            999 V2000
   -8.0173  -23.0517  -10.2219 C   0  0  0  0  0  0
   -8.7358  -22.4783  -11.4602 C   0  0  0  0  0  0
   -9.4049  -23.6054  -12.2681 C   0  0  0  0  0  0
   -7.8046  -21.6380  -12.3695 C   0  0  0  0  0  0
   -7.1291  -20.3548  -11.7986 C   0  0  1  0  0  0
   -5.9024  -19.9363  -12.6692 C   0  0  2  0  0  0
   -5.1167  -18.7373  -12.0977 C   0  0  0  0  0  0
   -3.4696  -18.4640  -12.8206 S   0  0  0  0  0  0
   -2.3371  -19.3564  -11.7048 C   0  0  0  0  0  0
   -2.6464  -20.8534  -11.5312 C   0  0  0  0  0  0
   -2.1448  -18.6555  -10.3491 C   0  0  0  0  0  0
   -6.2545  -19.6627  -14.0189 O   0  0  0  0  0  0
   -8.0792  -19.2434  -11.6045 N   0  0  0  0  0  0
   -8.8850  -19.1046  -10.5398 C   0  0  0  0  0  0
   -8.9883  -19.9267   -9.6316 O   0  0  0  0  0  0
   -9.7400  -17.8285  -10.4564 C   0  0  2  0  0  0
  -10.8104  -17.7136  -11.5690 C   0  0  0  0  0  0
  -11.8763  -18.7918  -11.6209 C   0  0  0  0  0  0
  -13.0689  -18.8630  -12.3205 C   0  0  0  0  0  0
  -13.7067  -20.0725  -12.0214 N   0  0  0  0  0  0
  -12.8708  -20.7095  -11.2166 C   0  0  0  0  0  0
  -11.7841  -19.9912  -10.9318 N   0  0  0  0  0  0
   -8.9366  -16.6037  -10.3889 N   0  0  0  0  0  0
   -8.1261  -16.3060   -9.3560 C   0  0  0  0  0  0
   -7.8365  -17.1156   -8.4734 O   0  0  0  0  0  0
   -7.6159  -14.8347   -9.2486 C   0  0  2  0  0  0
   -6.5244  -14.6979   -8.1400 C   0  0  0  0  0  0
   -5.6619  -13.4447   -8.1421 C   0  0  0  0  0  0
   -4.6669  -13.2630   -9.1279 C   0  0  0  0  0  0
   -3.8820  -12.1164   -9.1194 C   0  0  0  0  0  0
   -4.0810  -11.1385   -8.1512 C   0  0  0  0  0  0
   -5.0685  -11.2958   -7.1854 C   0  0  0  0  0  0
   -5.8737  -12.4287   -7.1852 C   0  0  0  0  0  0
   -8.6022  -13.7245   -9.0989 N   0  0  0  0  0  0
   -9.9663  -13.8585   -8.8205 C   0  0  0  0  0  0
  -10.6327  -14.8929   -8.8210 O   0  0  0  0  0  0
  -10.4655  -12.6457   -8.4520 O   0  0  0  0  0  0
  -11.8255  -12.4068   -8.0285 C   0  0  0  0  0  0
  -12.1937  -13.2414   -6.7828 C   0  0  0  0  0  0
  -12.8571  -12.6808   -9.1475 C   0  0  0  0  0  0
  -11.8389  -10.9109   -7.6650 C   0  0  0  0  0  0
   -6.7041  -20.6017  -10.8245 H   0  0  0  0  0  0
   -5.2293  -20.7912  -12.7135 H   0  0  0  0  0  0
  -10.2817  -17.8705   -9.5095 H   0  0  0  0  0  0
  -11.0164  -20.2695  -10.3285 H   0  0  0  0  0  0
   -7.0950  -14.6600  -10.1907 H   0  0  0  0  0  0
   -7.1934  -23.7101  -10.5049 H   0  0  0  0  0  0
   -7.6094  -22.2649   -9.5850 H   0  0  0  0  0  0
   -8.7058  -23.6290   -9.6022 H   0  0  0  0  0  0
   -9.5470  -21.8422  -11.1148 H   0  0  0  0  0  0
   -8.6711  -24.3167  -12.6514 H   0  0  0  0  0  0
  -10.1202  -24.1609  -11.6598 H   0  0  0  0  0  0
   -9.9497  -23.2056  -13.1251 H   0  0  0  0  0  0
   -8.3930  -21.3189  -13.2216 H   0  0  0  0  0  0
   -7.0383  -22.3048  -12.7701 H   0  0  0  0  0  0
   -5.6895  -17.8151  -12.2166 H   0  0  0  0  0  0
   -5.0020  -18.8661  -11.0226 H   0  0  0  0  0  0
   -1.3705  -19.3051  -12.2107 H   0  0  0  0  0  0
   -1.8798  -21.3487  -10.9333 H   0  0  0  0  0  0
   -3.6013  -21.0122  -11.0298 H   0  0  0  0  0  0
   -2.6826  -21.3614  -12.4961 H   0  0  0  0  0  0
   -1.4319  -19.1923   -9.7199 H   0  0  0  0  0  0
   -1.7636  -17.6419  -10.4823 H   0  0  0  0  0  0
   -3.0792  -18.5839   -9.7912 H   0  0  0  0  0  0
   -6.8526  -18.9077  -14.0815 H   0  0  0  0  0  0
   -8.0848  -18.5134  -12.3037 H   0  0  0  0  0  0
  -11.3419  -16.7685  -11.4478 H   0  0  0  0  0  0
  -10.3262  -17.6634  -12.5440 H   0  0  0  0  0  0
  -13.5088  -18.1398  -12.9949 H   0  0  0  0  0  0
  -13.0609  -21.6956  -10.8180 H   0  0  0  0  0  0
   -9.1421  -15.8933  -11.0743 H   0  0  0  0  0  0
   -5.8275  -15.5382   -8.1885 H   0  0  0  0  0  0
   -6.9958  -14.7861   -7.1588 H   0  0  0  0  0  0
   -4.5015  -14.0205   -9.8817 H   0  0  0  0  0  0
   -3.1158  -11.9830   -9.8695 H   0  0  0  0  0  0
   -3.4658  -10.2508   -8.1482 H   0  0  0  0  0  0
   -5.2074  -10.5352   -6.4302 H   0  0  0  0  0  0
   -6.6404  -12.5402   -6.4313 H   0  0  0  0  0  0
   -8.2658  -12.7970   -9.2993 H   0  0  0  0  0  0
  -11.4360  -13.1386   -6.0123 H   0  0  0  0  0  0
  -13.1460  -12.9200   -6.3581 H   0  0  0  0  0  0
  -12.2852  -14.3046   -7.0008 H   0  0  0  0  0  0
  -12.6691  -12.0633  -10.0197 H   0  0  0  0  0  0
  -12.8446  -13.7208   -9.4732 H   0  0  0  0  0  0
  -13.8719  -12.4611   -8.8129 H   0  0  0  0  0  0
  -11.5385  -10.2955   -8.5150 H   0  0  0  0  0  0
  -12.8298  -10.5813   -7.3502 H   0  0  0  0  0  0
  -11.1449  -10.6922   -6.8519 H   0  0  0  0  0  0
  1  2  1  0  0  0
  1 47  1  0  0  0
  1 48  1  0  0  0
  1 49  1  0  0  0
  2  3  1  0  0  0
  2  4  1  0  0  0
  2 50  1  0  0  0
  3 51  1  0  0  0
  3 52  1  0  0  0
  3 53  1  0  0  0
  4  5  1  0  0  0
  4 54  1  0  0  0
  4 55  1  0  0  0
  5 42  1  0  0  0
  5  6  1  0  0  0
  5 13  1  0  0  0
  6 43  1  0  0  0
  6  7  1  0  0  0
  6 12  1  0  0  0
  7  8  1  0  0  0
  7 56  1  0  0  0
  7 57  1  0  0  0
  8  9  1  0  0  0
  9 10  1  0  0  0
  9 11  1  0  0  0
  9 58  1  0  0  0
 10 59  1  0  0  0
 10 60  1  0  0  0
 10 61  1  0  0  0
 11 62  1  0  0  0
 11 63  1  0  0  0
 11 64  1  0  0  0
 12 65  1  0  0  0
 13 14  1  0  0  0
 13 66  1  0  0  0
 14 15  2  0  0  0
 14 16  1  0  0  0
 16 44  1  0  0  0
 16 17  1  0  0  0
 16 23  1  0  0  0
 17 67  1  0  0  0
 17 68  1  0  0  0
 17 18  1  0  0  0
 18 19  2  0  0  0
 18 22  1  0  0  0
 19 69  1  0  0  0
 19 20  1  0  0  0
 20 21  2  0  0  0
 21 22  1  0  0  0
 21 70  1  0  0  0
 22 45  1  0  0  0
 23 24  1  0  0  0
 23 71  1  0  0  0
 24 25  2  0  0  0
 24 26  1  0  0  0
 26 46  1  0  0  0
 26 27  1  0  0  0
 26 34  1  0  0  0
 27 28  1  0  0  0
 27 72  1  0  0  0
 27 73  1  0  0  0
 28 33  1  0  0  0
 28 29  2  0  0  0
 29 30  1  0  0  0
 29 74  1  0  0  0
 30 31  2  0  0  0
 30 75  1  0  0  0
 31 32  1  0  0  0
 31 76  1  0  0  0
 32 33  2  0  0  0
 32 77  1  0  0  0
 33 78  1  0  0  0
 34 35  1  0  0  0
 34 79  1  0  0  0
 35 36  2  0  0  0
 35 37  1  0  0  0
 37 38  1  0  0  0
 38 39  1  0  0  0
 38 40  1  0  0  0
 38 41  1  0  0  0
 39 80  1  0  0  0
 39 81  1  0  0  0
 39 82  1  0  0  0
 40 83  1  0  0  0
 40 84  1  0  0  0
 40 85  1  0  0  0
 41 86  1  0  0  0
 41 87  1  0  0  0
 41 88  1  0  0  0
M  END
> <s_m_entry_id>
27535

> <s_m_entry_name>
ligand_docking-pose.89

> <s_m_Source_Path>
/home/csk/Desktop/cluster/DUD-E-result/reni

> <s_m_Source_File>
ligand_docking-pose.sdf

> <i_m_Source_File_Index>
89

> <i_lp_mmshare_version>
53161

> <i_f3d_flags>
0

> <r_lp_tautomer_probability>
0.499999999999999

> <s_lp_Force_Field>
OPLS_2005

> <r_lp_Energy>
8.613155

> <b_lp_Chiralities_Consistent>
1

> <s_lp_Variant>
250680-2

> <s_i_glide_gridfile>
glide-grid_3g6z

> <i_i_glide_lignum>
364

> <i_i_glide_rotatable_bonds>
21

> <r_i_docking_score>
-7.17091114669379

> <r_i_glide_ligand_efficiency>
-0.17490027187058

> <r_i_glide_ligand_efficiency_sa>
-0.603094132065217

> <r_i_glide_ligand_efficiency_ln>
-1.52133266346931

> <r_i_glide_gscore>
-7.17091114669379

> <r_i_glide_lipo>
-2.88364957883568

> <r_i_glide_hbond>
-0.604222261086721

> <r_i_glide_metal>
0

> <r_i_glide_rewards>
-0.495979693002737

> <r_i_glide_evdw>
-43.6611022949219

> <r_i_glide_ecoul>
-11.7538433074951

> <r_i_glide_erotb>
0.795174607649453

> <r_i_glide_esite>
-0.0361026105477455

> <r_i_glide_emodel>
-72.280820636417

> <r_i_glide_energy>
-55.414945602417

> <r_i_glide_einternal>
14.4030694961548

> <i_i_glide_confnum>
175

> <i_i_glide_posenum>
205

> <r_i_glide_eff_state_penalty>
0

> <s_user_duplicate_titles>
250680

> <s_m_subgroup_title>
dock_pv

> <s_m_subgroupid>
dock_pv1

> <b_m_subgroup_collapsed>
0

$$$$
501989
                    3D
 Schrodinger Suite 2021-1.
 84 86  0  0  1  0            999 V2000
    0.5324  -16.2538  -11.6217 C   0  0  0  0  0  0
   -0.5355  -15.2630  -11.5718 N   0  0  1  0  0  0
   -0.8272  -14.9052  -10.1911 C   0  0  0  0  0  0
   -1.8702  -13.7664  -10.1335 C   0  0  2  0  0  0
   -1.9614  -13.1973   -8.6907 C   0  0  0  0  0  0
   -3.2553  -12.4242   -8.3313 C   0  0  0  0  0  0
   -4.3344  -13.3736   -7.7484 C   0  0  0  0  0  0
   -5.6546  -12.6314   -7.4838 C   0  0  0  0  0  0
   -5.4120  -11.4121   -6.5805 C   0  0  0  0  0  0
   -4.2899  -10.4797   -7.0843 C   0  0  0  0  0  0
   -2.9955  -11.2727   -7.3404 C   0  0  0  0  0  0
   -3.1589  -14.2049  -10.6949 N   0  0  0  0  0  0
   -3.9830  -13.4628  -11.4641 C   0  0  0  0  0  0
   -3.7197  -12.2815  -11.7140 O   0  0  0  0  0  0
   -5.1376  -14.0683  -11.8713 N   0  0  0  0  0  0
   -5.9924  -13.3209  -12.8217 C   0  0  0  0  0  0
   -7.4682  -13.5873  -12.4912 C   0  0  0  0  0  0
   -7.7533  -15.0855  -12.5041 C   0  0  0  0  0  0
   -6.8925  -15.7758  -11.4235 C   0  0  2  0  0  0
   -5.3838  -15.5365  -11.7484 C   0  0  0  0  0  0
   -7.2991  -17.2804  -11.2110 C   0  0  1  0  0  0
   -6.4367  -17.9587  -10.0988 C   0  0  0  0  0  0
   -6.8278  -19.3919   -9.6456 C   0  0  0  0  0  0
   -6.7104  -20.4843  -10.7260 C   0  0  0  0  0  0
   -6.9434  -21.9119  -10.1881 C   0  0  0  0  0  0
   -6.0807  -22.2713   -9.1125 O   0  0  0  0  0  0
   -4.7035  -22.3919   -9.4498 C   0  0  0  0  0  0
   -8.8047  -17.4065  -10.8530 C   0  0  0  0  0  0
   -9.6460  -18.2869  -11.5455 C   0  0  0  0  0  0
  -11.0028  -18.3716  -11.2426 C   0  0  0  0  0  0
  -11.5487  -17.5537  -10.2612 C   0  0  0  0  0  0
  -10.7459  -16.6505   -9.5625 C   0  0  0  0  0  0
   -9.3726  -16.6058   -9.8437 C   0  0  0  0  0  0
  -11.3790  -15.7034   -8.5420 C   0  0  0  0  0  0
  -10.6696  -14.5791   -8.4209 F   0  0  0  0  0  0
  -12.6174  -15.3575   -8.9004 F   0  0  0  0  0  0
  -11.4436  -16.3070   -7.3548 F   0  0  0  0  0  0
   -6.9598  -17.9488  -12.4209 O   0  0  0  0  0  0
   -1.4764  -12.9564  -10.7540 H   0  0  0  0  0  0
   -7.0685  -15.2521  -10.4833 H   0  0  0  0  0  0
    0.7269  -16.5576  -12.6494 H   0  0  0  0  0  0
    1.4608  -15.8574  -11.2112 H   0  0  0  0  0  0
    0.2638  -17.1498  -11.0597 H   0  0  0  0  0  0
   -0.2664  -14.3803  -12.0208 H   0  0  0  0  0  0
    0.0924  -14.5674   -9.7082 H   0  0  0  0  0  0
   -1.1932  -15.7786   -9.6466 H   0  0  0  0  0  0
   -1.0954  -12.5493   -8.5415 H   0  0  0  0  0  0
   -1.8260  -14.0018   -7.9658 H   0  0  0  0  0  0
   -3.6579  -11.9411   -9.2225 H   0  0  0  0  0  0
   -3.9651  -13.8484   -6.8380 H   0  0  0  0  0  0
   -4.5219  -14.2054   -8.4271 H   0  0  0  0  0  0
   -6.3738  -13.3066   -7.0154 H   0  0  0  0  0  0
   -6.1005  -12.3124   -8.4210 H   0  0  0  0  0  0
   -5.1086  -11.7998   -5.6207 H   0  0  0  0  0  0
   -6.3365  -10.8647   -6.4211 H   0  0  0  0  0  0
   -4.1059   -9.6830   -6.3614 H   0  0  0  0  0  0
   -4.6106   -9.9899   -8.0055 H   0  0  0  0  0  0
   -2.2274  -10.6076   -7.7369 H   0  0  0  0  0  0
   -2.5739  -11.6596   -6.4128 H   0  0  0  0  0  0
   -3.3858  -15.1778  -10.5620 H   0  0  0  0  0  0
   -5.8474  -12.2408  -12.7745 H   0  0  0  0  0  0
   -5.7642  -13.6955  -13.8173 H   0  0  0  0  0  0
   -7.7310  -13.1452  -11.5287 H   0  0  0  0  0  0
   -8.1012  -13.0904  -13.2208 H   0  0  0  0  0  0
   -8.8132  -15.2502  -12.3209 H   0  0  0  0  0  0
   -7.5849  -15.5279  -13.4866 H   0  0  0  0  0  0
   -5.1130  -16.0384  -12.6783 H   0  0  0  0  0  0
   -4.8229  -15.9666  -10.9210 H   0  0  0  0  0  0
   -5.3913  -17.9879  -10.4069 H   0  0  0  0  0  0
   -6.4519  -17.3179   -9.2145 H   0  0  0  0  0  0
   -6.1725  -19.6665   -8.8210 H   0  0  0  0  0  0
   -7.8342  -19.3909   -9.2274 H   0  0  0  0  0  0
   -7.4421  -20.3035  -11.5123 H   0  0  0  0  0  0
   -5.7362  -20.4234  -11.2123 H   0  0  0  0  0  0
   -7.9686  -21.9902   -9.8208 H   0  0  0  0  0  0
   -6.8607  -22.6418  -10.9965 H   0  0  0  0  0  0
   -4.1538  -22.7711   -8.5886 H   0  0  0  0  0  0
   -4.5498  -23.0915  -10.2745 H   0  0  0  0  0  0
   -4.2668  -21.4285   -9.7190 H   0  0  0  0  0  0
   -9.2560  -18.9066  -12.3381 H   0  0  0  0  0  0
  -11.6338  -19.0506  -11.7959 H   0  0  0  0  0  0
  -12.6073  -17.6089  -10.0508 H   0  0  0  0  0  0
   -8.7514  -15.9197   -9.2907 H   0  0  0  0  0  0
   -7.5643  -17.6641  -13.1220 H   0  0  0  0  0  0
  1  2  1  0  0  0
  1 41  1  0  0  0
  1 42  1  0  0  0
  1 43  1  0  0  0
  2  3  1  0  0  0
  2 44  1  0  0  0
  3  4  1  0  0  0
  3 45  1  0  0  0
  3 46  1  0  0  0
  4 39  1  0  0  0
  4  5  1  0  0  0
  4 12  1  0  0  0
  5  6  1  0  0  0
  5 47  1  0  0  0
  5 48  1  0  0  0
  6 11  1  0  0  0
  6  7  1  0  0  0
  6 49  1  0  0  0
  7  8  1  0  0  0
  7 50  1  0  0  0
  7 51  1  0  0  0
  8  9  1  0  0  0
  8 52  1  0  0  0
  8 53  1  0  0  0
  9 10  1  0  0  0
  9 54  1  0  0  0
  9 55  1  0  0  0
 10 11  1  0  0  0
 10 56  1  0  0  0
 10 57  1  0  0  0
 11 58  1  0  0  0
 11 59  1  0  0  0
 12 13  1  0  0  0
 12 60  1  0  0  0
 13 14  2  0  0  0
 13 15  1  0  0  0
 15 20  1  0  0  0
 15 16  1  0  0  0
 16 17  1  0  0  0
 16 61  1  0  0  0
 16 62  1  0  0  0
 17 18  1  0  0  0
 17 63  1  0  0  0
 17 64  1  0  0  0
 18 19  1  0  0  0
 18 65  1  0  0  0
 18 66  1  0  0  0
 19 40  1  0  0  0
 19 20  1  0  0  0
 19 21  1  0  0  0
 20 67  1  0  0  0
 20 68  1  0  0  0
 21 22  1  0  0  0
 21 28  1  0  0  0
 21 38  1  0  0  0
 22 23  1  0  0  0
 22 69  1  0  0  0
 22 70  1  0  0  0
 23 24  1  0  0  0
 23 71  1  0  0  0
 23 72  1  0  0  0
 24 25  1  0  0  0
 24 73  1  0  0  0
 24 74  1  0  0  0
 25 26  1  0  0  0
 25 75  1  0  0  0
 25 76  1  0  0  0
 26 27  1  0  0  0
 27 77  1  0  0  0
 27 78  1  0  0  0
 27 79  1  0  0  0
 28 33  1  0  0  0
 28 29  2  0  0  0
 29 30  1  0  0  0
 29 80  1  0  0  0
 30 31  2  0  0  0
 30 81  1  0  0  0
 31 32  1  0  0  0
 31 82  1  0  0  0
 32 33  2  0  0  0
 32 34  1  0  0  0
 33 83  1  0  0  0
 34 35  1  0  0  0
 34 36  1  0  0  0
 34 37  1  0  0  0
 38 84  1  0  0  0
M  END
> <s_m_entry_id>
27539

> <s_m_entry_name>
ligand_docking-pose.93

> <s_m_Source_Path>
/home/csk/Desktop/cluster/DUD-E-result/reni

> <s_m_Source_File>
ligand_docking-pose.sdf

> <i_m_Source_File_Index>
93

> <i_lp_mmshare_version>
53161

> <i_f3d_flags>
0

> <r_lp_tautomer_probability>
1

> <s_lp_Force_Field>
OPLS_2005

> <r_lp_Energy>
56.410429

> <b_lp_Chiralities_Consistent>
1

> <s_lp_Variant>
501989-1

> <s_i_glide_gridfile>
glide-grid_3g6z

> <i_i_glide_lignum>
804

> <i_i_glide_rotatable_bonds>
16

> <r_i_docking_score>
-7.12591798467167

> <r_i_glide_ligand_efficiency>
-0.18752415749136

> <r_i_glide_ligand_efficiency_sa>
-0.630451604902207

> <r_i_glide_ligand_efficiency_ln>
-1.53655754076429

> <r_i_glide_gscore>
-7.12591798467167

> <r_i_glide_lipo>
-2.81706490888004

> <r_i_glide_hbond>
-0.72

> <r_i_glide_metal>
0

> <r_i_glide_rewards>
-1.45826385415285

> <r_i_glide_evdw>
-37.014045715332

> <r_i_glide_ecoul>
-6.74392509460449

> <r_i_glide_erotb>
0.775325532298994

> <r_i_glide_esite>
-0.0436237039805003

> <r_i_glide_emodel>
-58.409483249429

> <r_i_glide_energy>
-43.7579708099365

> <r_i_glide_einternal>
12.2766771316528

> <i_i_glide_confnum>
53

> <i_i_glide_posenum>
341

> <r_i_glide_eff_state_penalty>
0

> <s_user_duplicate_titles>
501989

> <s_m_subgroup_title>
dock_pv

> <s_m_subgroupid>
dock_pv1

> <b_m_subgroup_collapsed>
0

$$$$
405774
                    3D
 Schrodinger Suite 2021-1.
 59 62  0  0  1  0            999 V2000
   -2.3128  -16.9889   -8.6868 C   0  0  0  0  0  0
   -3.4104  -18.0129   -9.0199 C   0  0  0  0  0  0
   -3.5244  -18.2906  -10.5199 C   0  0  0  0  0  0
   -4.6093  -17.8769  -11.3293 C   0  0  0  0  0  0
   -4.4964  -18.2116  -12.6952 C   0  0  0  0  0  0
   -3.4431  -18.8940  -13.2077 N   0  0  0  0  0  0
   -2.4838  -19.2649  -12.3329 C   0  0  0  0  0  0
   -2.4693  -18.9889  -11.0149 N   0  0  0  0  0  0
   -1.4235  -20.0120  -12.8217 N   0  0  0  0  0  0
   -5.4689  -17.8513  -13.6209 N   0  0  0  0  0  0
   -5.7902  -17.1346  -10.7885 C   0  0  0  0  0  0
   -7.0928  -17.6122  -10.9882 C   0  0  0  0  0  0
   -8.1903  -16.9219  -10.4781 C   0  0  0  0  0  0
   -7.9848  -15.7490   -9.7592 C   0  0  0  0  0  0
   -6.7039  -15.2399   -9.5309 C   0  0  0  0  0  0
   -5.6163  -15.9457  -10.0731 C   0  0  0  0  0  0
   -6.5820  -14.0960   -8.6995 N   0  0  0  0  0  0
   -7.6191  -13.2631   -8.3791 C   0  0  0  0  0  0
   -7.4973  -12.2957   -7.6213 O   0  0  0  0  0  0
   -8.9680  -13.6947   -9.0744 C   0  0  1  0  0  0
   -9.0784  -15.1296   -9.2088 O   0  0  0  0  0  0
  -10.2524  -13.1115   -8.4210 C   0  0  0  0  0  0
  -11.3996  -13.9181   -8.3253 C   0  0  0  0  0  0
  -12.5731  -13.4450   -7.7400 C   0  0  0  0  0  0
  -12.6349  -12.1408   -7.2611 C   0  0  0  0  0  0
  -11.5237  -11.3126   -7.3739 C   0  0  0  0  0  0
  -10.3579  -11.7822   -7.9782 C   0  0  0  0  0  0
  -11.5612  -10.0575   -6.8743 F   0  0  0  0  0  0
  -13.6430  -14.2607   -7.6205 F   0  0  0  0  0  0
   -5.2461  -13.7432   -8.1515 C   0  0  0  0  0  0
   -4.5001  -12.6162   -8.9104 C   0  0  0  0  0  0
   -4.1945  -12.9288  -10.3853 C   0  0  0  0  0  0
   -3.5312  -11.8365  -11.0040 O   0  0  0  0  0  0
   -3.1815  -12.1141  -12.3575 C   0  0  0  0  0  0
   -2.2731  -16.7959   -7.6164 H   0  0  0  0  0  0
   -1.3296  -17.3523   -8.9890 H   0  0  0  0  0  0
   -2.4802  -16.0356   -9.1867 H   0  0  0  0  0  0
   -4.3584  -17.6798   -8.6054 H   0  0  0  0  0  0
   -3.1973  -18.9510   -8.5049 H   0  0  0  0  0  0
   -0.7276  -20.3423  -12.1705 H   0  0  0  0  0  0
   -1.4381  -20.3045  -13.7851 H   0  0  0  0  0  0
   -6.2958  -17.3643  -13.3044 H   0  0  0  0  0  0
   -5.3637  -18.0630  -14.6047 H   0  0  0  0  0  0
   -7.2574  -18.5280  -11.5359 H   0  0  0  0  0  0
   -9.1905  -17.2999  -10.6289 H   0  0  0  0  0  0
   -4.6085  -15.6016   -9.9360 H   0  0  0  0  0  0
   -8.9357  -13.2630  -10.0730 H   0  0  0  0  0  0
  -11.3903  -14.9347   -8.6885 H   0  0  0  0  0  0
  -13.5354  -11.7766   -6.7925 H   0  0  0  0  0  0
   -9.5287  -11.0970   -8.0211 H   0  0  0  0  0  0
   -4.6156  -14.6302   -8.1247 H   0  0  0  0  0  0
   -5.3453  -13.4672   -7.0987 H   0  0  0  0  0  0
   -3.5564  -12.4251   -8.3996 H   0  0  0  0  0  0
   -5.0651  -11.6890   -8.8217 H   0  0  0  0  0  0
   -5.1191  -13.1461  -10.9248 H   0  0  0  0  0  0
   -3.5488  -13.8076  -10.4428 H   0  0  0  0  0  0
   -2.6696  -11.2632  -12.7989 H   0  0  0  0  0  0
   -4.0658  -12.3206  -12.9635 H   0  0  0  0  0  0
   -2.5038  -12.9649  -12.4313 H   0  0  0  0  0  0
  1  2  1  0  0  0
  1 35  1  0  0  0
  1 36  1  0  0  0
  1 37  1  0  0  0
  2  3  1  0  0  0
  2 38  1  0  0  0
  2 39  1  0  0  0
  3  8  1  0  0  0
  3  4  2  0  0  0
  4  5  1  0  0  0
  4 11  1  0  0  0
  5  6  2  0  0  0
  5 10  1  0  0  0
  6  7  1  0  0  0
  7  8  2  0  0  0
  7  9  1  0  0  0
  9 40  1  0  0  0
  9 41  1  0  0  0
 10 42  1  0  0  0
 10 43  1  0  0  0
 11 16  1  0  0  0
 11 12  2  0  0  0
 12 13  1  0  0  0
 12 44  1  0  0  0
 13 14  2  0  0  0
 13 45  1  0  0  0
 14 21  1  0  0  0
 14 15  1  0  0  0
 15 16  2  0  0  0
 15 17  1  0  0  0
 16 46  1  0  0  0
 17 18  1  0  0  0
 17 30  1  0  0  0
 18 19  2  0  0  0
 18 20  1  0  0  0
 20 21  1  0  0  0
 20 22  1  0  0  0
 20 47  1  0  0  0
 22 27  1  0  0  0
 22 23  2  0  0  0
 23 24  1  0  0  0
 23 48  1  0  0  0
 24 25  2  0  0  0
 24 29  1  0  0  0
 25 26  1  0  0  0
 25 49  1  0  0  0
 26 27  2  0  0  0
 26 28  1  0  0  0
 27 50  1  0  0  0
 30 31  1  0  0  0
 30 51  1  0  0  0
 30 52  1  0  0  0
 31 32  1  0  0  0
 31 53  1  0  0  0
 31 54  1  0  0  0
 32 33  1  0  0  0
 32 55  1  0  0  0
 32 56  1  0  0  0
 33 34  1  0  0  0
 34 57  1  0  0  0
 34 58  1  0  0  0
 34 59  1  0  0  0
M  END
> <s_m_entry_id>
27540

> <s_m_entry_name>
ligand_docking-pose.94

> <s_m_Source_Path>
/home/csk/Desktop/cluster/DUD-E-result/reni

> <s_m_Source_File>
ligand_docking-pose.sdf

> <i_m_Source_File_Index>
94

> <i_lp_mmshare_version>
53161

> <i_f3d_flags>
0

> <r_lp_tautomer_probability>
0.999999624730965

> <s_lp_Force_Field>
OPLS_2005

> <r_lp_Energy>
26.940807

> <b_lp_Chiralities_Consistent>
1

> <s_lp_Variant>
405774-1

> <s_i_glide_gridfile>
glide-grid_3g6z

> <i_i_glide_lignum>
77

> <i_i_glide_rotatable_bonds>
7

> <r_i_docking_score>
-7.11193320595309

> <r_i_glide_ligand_efficiency>
-0.209174506057444

> <r_i_glide_ligand_efficiency_sa>
-0.677644197553544

> <r_i_glide_ligand_efficiency_ln>
-1.57122552816453

> <r_i_glide_gscore>
-7.11193320595309

> <r_i_glide_lipo>
-2.55894538142809

> <r_i_glide_hbond>
-0.0620411223739614

> <r_i_glide_metal>
0

> <r_i_glide_rewards>
-2.23282818114852

> <r_i_glide_evdw>
-40.9614715576172

> <r_i_glide_ecoul>
-4.02354860305786

> <r_i_glide_erotb>
0.458177853381305

> <r_i_glide_esite>
-0.064690506044278

> <r_i_glide_emodel>
-62.2477660027922

> <r_i_glide_energy>
-44.985020160675

> <r_i_glide_einternal>
3.28503131866455

> <i_i_glide_confnum>
15

> <i_i_glide_posenum>
199

> <r_i_glide_eff_state_penalty>
0

> <s_user_duplicate_titles>
405774

> <s_m_subgroup_title>
dock_pv

> <s_m_subgroupid>
dock_pv1

> <b_m_subgroup_collapsed>
0

$$$$
117158
                    3D
 Schrodinger Suite 2021-1.
 88 90  0  0  1  0            999 V2000
  -12.8673  -14.4621   -6.3090 C   0  0  0  0  0  0
  -12.6157  -13.3622   -7.3421 C   0  0  0  0  0  0
  -13.5695  -12.1743   -7.1099 C   0  0  0  0  0  0
  -12.7497  -13.9000   -8.7893 C   0  0  0  0  0  0
  -11.7369  -14.9516   -9.3508 C   0  0  1  0  0  0
  -10.2245  -14.7329   -8.9717 C   0  0  1  0  0  0
   -9.0336  -15.4861   -9.6619 C   0  0  1  0  0  0
   -7.7887  -15.5956   -8.7118 C   0  0  0  0  0  0
   -6.3959  -15.3279   -9.3547 C   0  0  0  0  0  0
   -6.1608  -13.8314   -9.6754 C   0  0  0  0  0  0
   -4.8057  -13.6181  -10.3840 C   0  0  0  0  0  0
   -3.6373  -14.1657   -9.5339 C   0  0  0  0  0  0
   -3.8684  -15.6234   -9.0820 C   0  0  0  0  0  0
   -5.2556  -15.8094   -8.4265 C   0  0  0  0  0  0
   -9.4819  -16.7385  -10.2892 N   0  0  0  0  0  0
   -8.7519  -17.7931  -10.7032 C   0  0  0  0  0  0
   -7.5338  -17.8986  -10.5615 O   0  0  0  0  0  0
   -9.5434  -18.9237  -11.3911 C   0  0  2  0  0  0
  -10.6169  -19.5065  -10.4387 C   0  0  0  0  0  0
  -11.6177  -20.4885  -10.9928 C   0  0  0  0  0  0
  -11.4696  -21.8415  -11.2208 C   0  0  0  0  0  0
  -12.6891  -22.2985  -11.6867 N   0  0  0  0  0  0
  -13.5179  -21.2562  -11.6864 C   0  0  0  0  0  0
  -12.9418  -20.1323  -11.2743 N   0  0  0  0  0  0
   -8.6677  -19.9681  -11.9456 N   0  0  0  0  0  0
   -7.9013  -20.8642  -11.2977 C   0  0  0  0  0  0
   -7.8251  -20.9738  -10.0746 O   0  0  0  0  0  0
   -7.1080  -21.8351  -12.1916 C   0  0  2  0  0  0
   -6.3075  -21.1395  -13.3185 C   0  0  0  0  0  0
   -5.3016  -20.0748  -12.9220 C   0  0  0  0  0  0
   -5.6074  -18.7063  -13.0846 C   0  0  0  0  0  0
   -4.6873  -17.7406  -12.7034 C   0  0  0  0  0  0
   -3.4673  -18.1158  -12.1561 C   0  0  0  0  0  0
   -3.1647  -19.4579  -11.9667 C   0  0  0  0  0  0
   -4.0759  -20.4395  -12.3298 C   0  0  0  0  0  0
   -8.0075  -22.8002  -12.8209 N   0  0  0  0  0  0
   -8.5966  -23.8524  -12.2386 C   0  0  0  0  0  0
   -8.3883  -24.2157  -11.0825 O   0  0  0  0  0  0
   -9.6025  -24.5908  -13.1104 C   0  0  0  0  0  0
   -9.8666  -13.3650   -8.8211 O   0  0  0  0  0  0
  -12.1554  -16.2618   -8.9862 O   0  0  0  0  0  0
  -11.8689  -14.9504  -10.4212 H   0  0  0  0  0  0
  -10.2679  -15.1852   -8.0203 H   0  0  0  0  0  0
  -13.8587  -14.9026   -6.4237 H   0  0  0  0  0  0
  -12.1330  -15.2629   -6.3955 H   0  0  0  0  0  0
  -12.7995  -14.0717   -5.2966 H   0  0  0  0  0  0
  -11.6120  -12.9796   -7.1658 H   0  0  0  0  0  0
  -14.6139  -12.4623   -7.2306 H   0  0  0  0  0  0
  -13.4592  -11.7642   -6.1043 H   0  0  0  0  0  0
  -13.3718  -11.3630   -7.8126 H   0  0  0  0  0  0
  -12.7618  -13.0507   -9.4781 H   0  0  0  0  0  0
  -13.7452  -14.3292   -8.8213 H   0  0  0  0  0  0
   -8.6834  -14.8625  -10.4762 H   0  0  0  0  0  0
   -7.8072  -16.5627   -8.2059 H   0  0  0  0  0  0
   -7.8689  -14.8644   -7.9101 H   0  0  0  0  0  0
   -6.3005  -15.8640  -10.2971 H   0  0  0  0  0  0
   -6.2187  -13.2372   -8.7618 H   0  0  0  0  0  0
   -6.9625  -13.4456  -10.3041 H   0  0  0  0  0  0
   -4.6526  -12.5582  -10.5916 H   0  0  0  0  0  0
   -4.8159  -14.1172  -11.3563 H   0  0  0  0  0  0
   -3.5127  -13.5322   -8.6537 H   0  0  0  0  0  0
   -2.7029  -14.0921  -10.0946 H   0  0  0  0  0  0
   -3.0849  -15.9250   -8.3853 H   0  0  0  0  0  0
   -3.7875  -16.2898   -9.9408 H   0  0  0  0  0  0
   -5.3986  -16.8619   -8.1764 H   0  0  0  0  0  0
   -5.3013  -15.2886   -7.4675 H   0  0  0  0  0  0
  -10.4823  -16.7962  -10.4419 H   0  0  0  0  0  0
  -10.0509  -18.4631  -12.2421 H   0  0  0  0  0  0
  -10.1101  -20.0082   -9.6210 H   0  0  0  0  0  0
  -11.1996  -18.6891  -10.0141 H   0  0  0  0  0  0
  -12.9171  -23.2460  -11.9603 H   0  0  0  0  0  0
  -10.6214  -22.4888  -11.0792 H   0  0  0  0  0  0
  -14.5526  -21.3186  -11.9922 H   0  0  0  0  0  0
   -8.5908  -19.9345  -12.9510 H   0  0  0  0  0  0
   -6.4068  -22.3740  -11.5508 H   0  0  0  0  0  0
   -5.7669  -21.9024  -13.8810 H   0  0  0  0  0  0
   -7.0025  -20.6921  -14.0260 H   0  0  0  0  0  0
   -6.5530  -18.4004  -13.5099 H   0  0  0  0  0  0
   -4.9245  -16.6934  -12.8337 H   0  0  0  0  0  0
   -2.7562  -17.3550  -11.8667 H   0  0  0  0  0  0
   -2.2173  -19.7375  -11.5278 H   0  0  0  0  0  0
   -3.8369  -21.4811  -12.1718 H   0  0  0  0  0  0
   -8.2620  -22.6021  -13.7909 H   0  0  0  0  0  0
   -9.0841  -25.2472  -13.8035 H   0  0  0  0  0  0
  -10.2868  -25.1729  -12.4929 H   0  0  0  0  0  0
  -10.1977  -23.8879  -13.6957 H   0  0  0  0  0  0
   -9.8743  -12.9455   -9.6851 H   0  0  0  0  0  0
  -13.0807  -16.3797   -9.2235 H   0  0  0  0  0  0
  1  2  1  0  0  0
  1 44  1  0  0  0
  1 45  1  0  0  0
  1 46  1  0  0  0
  2  3  1  0  0  0
  2  4  1  0  0  0
  2 47  1  0  0  0
  3 48  1  0  0  0
  3 49  1  0  0  0
  3 50  1  0  0  0
  4  5  1  0  0  0
  4 51  1  0  0  0
  4 52  1  0  0  0
  5 42  1  0  0  0
  5  6  1  0  0  0
  5 41  1  0  0  0
  6 43  1  0  0  0
  6  7  1  0  0  0
  6 40  1  0  0  0
  7  8  1  0  0  0
  7 15  1  0  0  0
  7 53  1  0  0  0
  8  9  1  0  0  0
  8 54  1  0  0  0
  8 55  1  0  0  0
  9 14  1  0  0  0
  9 10  1  0  0  0
  9 56  1  0  0  0
 10 11  1  0  0  0
 10 57  1  0  0  0
 10 58  1  0  0  0
 11 12  1  0  0  0
 11 59  1  0  0  0
 11 60  1  0  0  0
 12 13  1  0  0  0
 12 61  1  0  0  0
 12 62  1  0  0  0
 13 14  1  0  0  0
 13 63  1  0  0  0
 13 64  1  0  0  0
 14 65  1  0  0  0
 14 66  1  0  0  0
 15 16  1  0  0  0
 15 67  1  0  0  0
 16 17  2  0  0  0
 16 18  1  0  0  0
 18 19  1  0  0  0
 18 25  1  0  0  0
 18 68  1  0  0  0
 19 69  1  0  0  0
 19 70  1  0  0  0
 19 20  1  0  0  0
 20 21  2  0  0  0
 20 24  1  0  0  0
 21 72  1  0  0  0
 21 22  1  0  0  0
 22 71  1  0  0  0
 22 23  1  0  0  0
 23 73  1  0  0  0
 23 24  2  0  0  0
 25 26  1  0  0  0
 25 74  1  0  0  0
 26 27  2  0  0  0
 26 28  1  0  0  0
 28 29  1  0  0  0
 28 36  1  0  0  0
 28 75  1  0  0  0
 29 30  1  0  0  0
 29 76  1  0  0  0
 29 77  1  0  0  0
 30 35  1  0  0  0
 30 31  2  0  0  0
 31 32  1  0  0  0
 31 78  1  0  0  0
 32 33  2  0  0  0
 32 79  1  0  0  0
 33 34  1  0  0  0
 33 80  1  0  0  0
 34 35  2  0  0  0
 34 81  1  0  0  0
 35 82  1  0  0  0
 36 37  1  0  0  0
 36 83  1  0  0  0
 37 38  2  0  0  0
 37 39  1  0  0  0
 39 84  1  0  0  0
 39 85  1  0  0  0
 39 86  1  0  0  0
 40 87  1  0  0  0
 41 88  1  0  0  0
M  END
> <s_m_entry_id>
27541

> <s_m_entry_name>
ligand_docking-pose.95

> <s_m_Source_Path>
/home/csk/Desktop/cluster/DUD-E-result/reni

> <s_m_Source_File>
ligand_docking-pose.sdf

> <i_m_Source_File_Index>
95

> <i_lp_mmshare_version>
53161

> <i_f3d_flags>
0

> <r_lp_tautomer_probability>
0.499999999999999

> <s_lp_Force_Field>
OPLS_2005

> <r_lp_Energy>
20.622958

> <b_lp_Chiralities_Consistent>
1

> <s_lp_Variant>
117158-10

> <s_i_glide_gridfile>
glide-grid_3g6z

> <i_i_glide_lignum>
252

> <i_i_glide_rotatable_bonds>
20

> <r_i_docking_score>
-7.10941063527957

> <r_i_glide_ligand_efficiency>
-0.173400259397063

> <r_i_glide_ligand_efficiency_sa>
-0.597921763199647

> <r_i_glide_ligand_efficiency_ln>
-1.50828512530846

> <r_i_glide_gscore>
-7.10941063527957

> <r_i_glide_lipo>
-2.68345274751728

> <r_i_glide_hbond>
-0.59682672605755

> <r_i_glide_metal>
0

> <r_i_glide_rewards>
-0.717984160795459

> <r_i_glide_evdw>
-37.8377685546875

> <r_i_glide_ecoul>
-12.4827146530151

> <r_i_glide_erotb>
0.745153490291039

> <r_i_glide_esite>
-0.09200486551367

> <r_i_glide_emodel>
-61.4076209421517

> <r_i_glide_energy>
-50.3204832077026

> <r_i_glide_einternal>
13.9635324478149

> <i_i_glide_confnum>
89

> <i_i_glide_posenum>
358

> <r_i_glide_eff_state_penalty>
0

> <s_user_duplicate_titles>
117158

> <s_m_subgroup_title>
dock_pv

> <s_m_subgroupid>
dock_pv1

> <b_m_subgroup_collapsed>
0

$$$$
42120
                    3D
 Schrodinger Suite 2021-1.
 75 79  0  0  1  0            999 V2000
   -8.7878  -13.2262   -8.6202 C   0  0  0  0  0  0
  -10.1584  -12.8260   -8.5939 O   0  0  0  0  0  0
  -10.5485  -11.7398   -7.8267 C   0  0  0  0  0  0
   -9.6320  -10.8553   -7.2285 C   0  0  0  0  0  0
  -10.0715   -9.7883   -6.4507 C   0  0  0  0  0  0
  -11.4289   -9.5987   -6.2347 C   0  0  0  0  0  0
  -12.3486  -10.4631   -6.8208 C   0  0  0  0  0  0
  -11.9219  -11.5060   -7.6455 C   0  0  0  0  0  0
  -12.9766  -12.3365   -8.3625 C   0  0  0  0  0  0
  -13.6513  -13.2010   -7.4544 O   0  0  0  0  0  0
  -13.4488  -14.5857   -7.6857 C   0  0  0  0  0  0
  -12.1477  -15.0571   -7.0295 C   0  0  0  0  0  0
  -11.7268  -16.4462   -7.5031 C   0  0  0  0  0  0
  -11.3297  -16.3728   -8.8743 O   0  0  0  0  0  0
  -10.1454  -16.9334   -9.3100 C   0  0  0  0  0  0
  -10.0498  -17.1738  -10.6818 C   0  0  0  0  0  0
   -8.9034  -17.7508  -11.2262 C   0  0  0  0  0  0
   -7.8280  -18.0886  -10.3997 C   0  0  0  0  0  0
   -7.9041  -17.8044   -9.0359 C   0  0  0  0  0  0
   -9.0500  -17.2400   -8.4909 C   0  0  0  0  0  0
   -6.5758  -18.7835  -10.9459 C   0  0  1  0  0  0
   -6.8958  -20.0361  -11.7861 C   0  0  0  0  0  0
   -5.6076  -20.7825  -12.1737 C   0  0  0  0  0  0
   -4.6343  -19.9323  -12.8571 N   0  0  1  0  0  0
   -4.3789  -18.6193  -12.2521 C   0  0  0  0  0  0
   -5.6322  -17.8505  -11.7349 C   0  0  2  0  0  0
   -5.2554  -16.7346  -10.9135 O   0  0  0  0  0  0
   -4.6084  -15.6768  -11.6210 C   0  0  0  0  0  0
   -4.3144  -14.4582  -10.7547 C   0  0  0  0  0  0
   -3.4071  -13.5156  -11.2386 C   0  0  0  0  0  0
   -3.1181  -12.3573  -10.5268 C   0  0  0  0  0  0
   -3.7472  -12.1129   -9.2854 C   0  0  0  0  0  0
   -3.4851  -10.9363   -8.5417 C   0  0  0  0  0  0
   -4.1155  -10.7244   -7.3206 C   0  0  0  0  0  0
   -5.0098  -11.6635   -6.8206 C   0  0  0  0  0  0
   -5.2951  -12.8283   -7.5241 C   0  0  0  0  0  0
   -4.6716  -13.0756   -8.7712 C   0  0  0  0  0  0
   -4.9453  -14.2475   -9.5265 C   0  0  0  0  0  0
   -6.0273  -19.1337  -10.0697 H   0  0  0  0  0  0
   -6.1815  -17.4396  -12.5866 H   0  0  0  0  0  0
   -8.6871  -14.1393   -9.2073 H   0  0  0  0  0  0
   -8.1442  -12.4725   -9.0703 H   0  0  0  0  0  0
   -8.4044  -13.4241   -7.6215 H   0  0  0  0  0  0
   -8.5686  -10.9749   -7.3657 H   0  0  0  0  0  0
   -9.3579   -9.1076   -6.0191 H   0  0  0  0  0  0
  -11.7727   -8.7731   -5.6283 H   0  0  0  0  0  0
  -13.4054  -10.2879   -6.6733 H   0  0  0  0  0  0
  -13.7403  -11.6652   -8.7579 H   0  0  0  0  0  0
  -12.5628  -12.8409   -9.2356 H   0  0  0  0  0  0
  -14.2809  -15.1312   -7.2420 H   0  0  0  0  0  0
  -13.4691  -14.8183   -8.7510 H   0  0  0  0  0  0
  -11.3396  -14.3644   -7.2296 H   0  0  0  0  0  0
  -12.2685  -15.0380   -5.9510 H   0  0  0  0  0  0
  -10.9969  -16.8613   -6.8121 H   0  0  0  0  0  0
  -12.5937  -17.1001   -7.4509 H   0  0  0  0  0  0
  -10.8781  -16.9218  -11.3261 H   0  0  0  0  0  0
   -8.8607  -17.9412  -12.2906 H   0  0  0  0  0  0
   -7.0690  -18.0321   -8.3955 H   0  0  0  0  0  0
   -9.0385  -17.0430   -7.4318 H   0  0  0  0  0  0
   -7.5068  -20.7232  -11.1998 H   0  0  0  0  0  0
   -7.4620  -19.8008  -12.6896 H   0  0  0  0  0  0
   -5.8516  -21.6188  -12.8303 H   0  0  0  0  0  0
   -5.1361  -21.2026  -11.2837 H   0  0  0  0  0  0
   -3.7606  -20.4314  -12.9697 H   0  0  0  0  0  0
   -3.8939  -18.0246  -13.0263 H   0  0  0  0  0  0
   -3.6582  -18.7380  -11.4407 H   0  0  0  0  0  0
   -3.6593  -16.0271  -12.0249 H   0  0  0  0  0  0
   -5.2327  -15.3410  -12.4497 H   0  0  0  0  0  0
   -2.9241  -13.6691  -12.1941 H   0  0  0  0  0  0
   -2.4144  -11.6385  -10.9247 H   0  0  0  0  0  0
   -2.7913  -10.2040   -8.9276 H   0  0  0  0  0  0
   -3.9061   -9.8284   -6.7532 H   0  0  0  0  0  0
   -5.4690  -11.4882   -5.8606 H   0  0  0  0  0  0
   -5.9890  -13.5514   -7.1199 H   0  0  0  0  0  0
   -5.6516  -14.9708   -9.1434 H   0  0  0  0  0  0
  1  2  1  0  0  0
  1 41  1  0  0  0
  1 42  1  0  0  0
  1 43  1  0  0  0
  2  3  1  0  0  0
  3  8  1  0  0  0
  3  4  2  0  0  0
  4  5  1  0  0  0
  4 44  1  0  0  0
  5  6  2  0  0  0
  5 45  1  0  0  0
  6  7  1  0  0  0
  6 46  1  0  0  0
  7  8  2  0  0  0
  7 47  1  0  0  0
  8  9  1  0  0  0
  9 10  1  0  0  0
  9 48  1  0  0  0
  9 49  1  0  0  0
 10 11  1  0  0  0
 11 12  1  0  0  0
 11 50  1  0  0  0
 11 51  1  0  0  0
 12 13  1  0  0  0
 12 52  1  0  0  0
 12 53  1  0  0  0
 13 14  1  0  0  0
 13 54  1  0  0  0
 13 55  1  0  0  0
 14 15  1  0  0  0
 15 20  1  0  0  0
 15 16  2  0  0  0
 16 17  1  0  0  0
 16 56  1  0  0  0
 17 18  2  0  0  0
 17 57  1  0  0  0
 18 19  1  0  0  0
 18 21  1  0  0  0
 19 20  2  0  0  0
 19 58  1  0  0  0
 20 59  1  0  0  0
 21 39  1  0  0  0
 21 26  1  0  0  0
 21 22  1  0  0  0
 22 23  1  0  0  0
 22 60  1  0  0  0
 22 61  1  0  0  0
 23 24  1  0  0  0
 23 62  1  0  0  0
 23 63  1  0  0  0
 24 25  1  0  0  0
 24 64  1  0  0  0
 25 26  1  0  0  0
 25 65  1  0  0  0
 25 66  1  0  0  0
 26 40  1  0  0  0
 26 27  1  0  0  0
 27 28  1  0  0  0
 28 29  1  0  0  0
 28 67  1  0  0  0
 28 68  1  0  0  0
 29 38  1  0  0  0
 29 30  2  0  0  0
 30 31  1  0  0  0
 30 69  1  0  0  0
 31 32  2  0  0  0
 31 70  1  0  0  0
 32 37  1  0  0  0
 32 33  1  0  0  0
 33 34  2  0  0  0
 33 71  1  0  0  0
 34 35  1  0  0  0
 34 72  1  0  0  0
 35 36  2  0  0  0
 35 73  1  0  0  0
 36 37  1  0  0  0
 36 74  1  0  0  0
 37 38  2  0  0  0
 38 75  1  0  0  0
M  END
> <s_m_entry_id>
27543

> <s_m_entry_name>
ligand_docking-pose.97

> <s_m_Source_Path>
/home/csk/Desktop/cluster/DUD-E-result/reni

> <s_m_Source_File>
ligand_docking-pose.sdf

> <i_m_Source_File_Index>
97

> <i_lp_mmshare_version>
53161

> <i_f3d_flags>
0

> <r_lp_tautomer_probability>
1

> <s_lp_Force_Field>
OPLS_2005

> <r_lp_Energy>
43.978714

> <b_lp_Chiralities_Consistent>
1

> <s_lp_Variant>
42120-1

> <s_i_glide_gridfile>
glide-grid_3g6z

> <i_i_glide_lignum>
842

> <i_i_glide_rotatable_bonds>
12

> <r_i_docking_score>
-7.09975196098292

> <r_i_glide_ligand_efficiency>
-0.186835577920603

> <r_i_glide_ligand_efficiency_sa>
-0.628136617322505

> <r_i_glide_ligand_efficiency_ln>
-1.53091537633056

> <r_i_glide_gscore>
-7.09975196098292

> <r_i_glide_lipo>
-5.03425750861638

> <r_i_glide_hbond>
-0.24034416590435

> <r_i_glide_metal>
0

> <r_i_glide_rewards>
0.456196940480038

> <r_i_glide_evdw>
-48.7538261413574

> <r_i_glide_ecoul>
-4.69873476028442

> <r_i_glide_erotb>
0.861154294168312

> <r_i_glide_esite>
0

> <r_i_glide_emodel>
-69.4994990595862

> <r_i_glide_energy>
-53.4525609016418

> <r_i_glide_einternal>
11.468542098999

> <i_i_glide_confnum>
41

> <i_i_glide_posenum>
371

> <r_i_glide_eff_state_penalty>
0

> <s_user_duplicate_titles>
42120

> <s_m_subgroup_title>
dock_pv

> <s_m_subgroupid>
dock_pv1

> <b_m_subgroup_collapsed>
0

$$$$
72573
                    3D
 Schrodinger Suite 2021-1.
 98100  0  0  1  0            999 V2000
   -5.1293  -12.8246   -7.9270 C   0  0  0  0  0  0
   -6.3575  -13.6458   -7.5025 C   0  0  0  0  0  0
   -6.4863  -15.0168   -8.1993 C   0  0  0  0  0  0
   -6.8015  -14.9267   -9.7119 C   0  0  0  0  0  0
   -7.2036  -16.2654  -10.3917 C   0  0  1  0  0  0
   -6.0161  -17.2564  -10.4839 C   0  0  0  0  0  0
   -5.8981  -18.1710   -9.6646 O   0  0  0  0  0  0
   -5.1289  -17.0674  -11.4865 N   0  0  0  0  0  0
   -3.8841  -17.8385  -11.7217 C   0  0  1  0  0  0
   -2.8689  -17.6871  -10.5396 C   0  0  0  0  0  0
   -2.6901  -16.2832   -9.9032 C   0  0  0  0  0  0
   -1.6962  -16.3572   -8.7192 C   0  0  0  0  0  0
   -1.5592  -14.9961   -8.0097 C   0  0  0  0  0  0
   -1.1698  -13.8754   -9.0027 C   0  0  0  0  0  0
   -2.0646  -13.8397  -10.2630 C   0  0  0  0  0  0
   -2.1775  -15.2318  -10.9148 C   0  0  0  0  0  0
   -4.1580  -19.3347  -12.1402 C   0  0  2  0  0  0
   -2.9568  -20.1677  -12.7021 C   0  0  2  0  0  0
   -3.2821  -21.6550  -13.0433 C   0  0  0  0  0  0
   -3.9171  -22.5484  -11.9398 C   0  0  0  0  0  0
   -3.1107  -22.5991  -10.6269 C   0  0  0  0  0  0
   -4.1618  -23.9692  -12.4833 C   0  0  0  0  0  0
   -1.8233  -20.1617  -11.8600 O   0  0  0  0  0  0
   -5.1501  -19.3600  -13.1635 O   0  0  0  0  0  0
   -8.2681  -16.8764   -9.6478 O   0  0  0  0  0  0
   -9.6088  -16.4047   -9.8623 C   0  0  1  0  0  0
  -10.1920  -17.1367  -11.1154 C   0  0  0  0  0  0
  -10.4808  -18.6320  -10.9782 C   0  0  0  0  0  0
   -9.4506  -19.5255  -10.6687 C   0  0  0  0  0  0
   -9.7122  -20.8885  -10.5823 C   0  0  0  0  0  0
  -10.9996  -21.3581  -10.8248 C   0  0  0  0  0  0
  -12.0284  -20.4774  -11.1574 C   0  0  0  0  0  0
  -11.7714  -19.1114  -11.2204 C   0  0  0  0  0  0
  -10.4353  -16.5918   -8.5529 C   0  0  0  0  0  0
   -9.9845  -17.3457   -7.6851 O   0  0  0  0  0  0
  -11.5398  -15.8232   -8.3192 N   0  0  0  0  0  0
  -12.2599  -15.0692   -9.3607 C   0  0  0  0  0  0
  -12.4081  -13.6109   -8.8789 C   0  0  0  0  0  0
  -13.1307  -13.5192   -7.5290 C   0  0  0  0  0  0
  -12.4340  -14.4376   -6.5126 C   0  0  0  0  0  0
  -12.2432  -15.8911   -7.0171 C   0  0  0  0  0  0
  -13.1558  -12.1845   -7.0685 O   0  0  0  0  0  0
   -7.5204  -16.0655  -11.4169 H   0  0  0  0  0  0
   -3.4387  -17.3615  -12.5985 H   0  0  0  0  0  0
   -4.5623  -19.8551  -11.2723 H   0  0  0  0  0  0
   -2.6339  -19.6795  -13.6200 H   0  0  0  0  0  0
   -9.5702  -15.3261  -10.0207 H   0  0  0  0  0  0
   -5.1291  -11.8516   -7.4368 H   0  0  0  0  0  0
   -4.2079  -13.3309   -7.6468 H   0  0  0  0  0  0
   -5.0935  -12.6478   -9.0015 H   0  0  0  0  0  0
   -7.2656  -13.0633   -7.6745 H   0  0  0  0  0  0
   -6.3084  -13.8039   -6.4250 H   0  0  0  0  0  0
   -7.2858  -15.5699   -7.7002 H   0  0  0  0  0  0
   -5.5812  -15.6030   -8.0363 H   0  0  0  0  0  0
   -5.9492  -14.4933  -10.2356 H   0  0  0  0  0  0
   -7.6077  -14.2080   -9.8559 H   0  0  0  0  0  0
   -5.2870  -16.2958  -12.1232 H   0  0  0  0  0  0
   -1.8752  -17.9827  -10.8698 H   0  0  0  0  0  0
   -3.1486  -18.3925   -9.7551 H   0  0  0  0  0  0
   -3.6473  -15.9379   -9.5100 H   0  0  0  0  0  0
   -0.7243  -16.7142   -9.0649 H   0  0  0  0  0  0
   -2.0308  -17.1117   -8.0054 H   0  0  0  0  0  0
   -0.8121  -15.0650   -7.2158 H   0  0  0  0  0  0
   -2.5007  -14.7564   -7.5156 H   0  0  0  0  0  0
   -0.1346  -14.0244   -9.3131 H   0  0  0  0  0  0
   -1.1971  -12.9084   -8.5019 H   0  0  0  0  0  0
   -1.6630  -13.1232  -10.9814 H   0  0  0  0  0  0
   -3.0590  -13.4839   -9.9955 H   0  0  0  0  0  0
   -2.8362  -15.1780  -11.7798 H   0  0  0  0  0  0
   -1.2149  -15.5478  -11.3256 H   0  0  0  0  0  0
   -3.9665  -21.6731  -13.8944 H   0  0  0  0  0  0
   -2.3760  -22.1378  -13.4167 H   0  0  0  0  0  0
   -4.8991  -22.1375  -11.7013 H   0  0  0  0  0  0
   -2.0684  -22.8638  -10.8066 H   0  0  0  0  0  0
   -3.1205  -21.6335  -10.1176 H   0  0  0  0  0  0
   -3.5290  -23.3243   -9.9241 H   0  0  0  0  0  0
   -3.2246  -24.4597  -12.7524 H   0  0  0  0  0  0
   -4.6701  -24.5961  -11.7466 H   0  0  0  0  0  0
   -4.7912  -23.9500  -13.3757 H   0  0  0  0  0  0
   -1.1482  -20.7344  -12.2361 H   0  0  0  0  0  0
   -5.8961  -18.8262  -12.8738 H   0  0  0  0  0  0
  -11.1071  -16.6471  -11.4439 H   0  0  0  0  0  0
   -9.5108  -17.0185  -11.9600 H   0  0  0  0  0  0
   -8.4429  -19.1704  -10.4997 H   0  0  0  0  0  0
   -8.9144  -21.5743  -10.3348 H   0  0  0  0  0  0
  -11.1975  -22.4186  -10.7745 H   0  0  0  0  0  0
  -13.0193  -20.8588  -11.3632 H   0  0  0  0  0  0
  -12.5726  -18.4349  -11.4886 H   0  0  0  0  0  0
  -11.8260  -15.1106  -10.3525 H   0  0  0  0  0  0
  -13.2448  -15.5156   -9.4389 H   0  0  0  0  0  0
  -11.4274  -13.1367   -8.8211 H   0  0  0  0  0  0
  -12.9738  -13.0462   -9.6208 H   0  0  0  0  0  0
  -14.1727  -13.8305   -7.6216 H   0  0  0  0  0  0
  -13.0254  -14.4508   -5.6038 H   0  0  0  0  0  0
  -11.4677  -14.0258   -6.2268 H   0  0  0  0  0  0
  -13.2141  -16.3625   -7.1764 H   0  0  0  0  0  0
  -11.6985  -16.4591   -6.2667 H   0  0  0  0  0  0
  -12.6710  -12.1328   -6.2432 H   0  0  0  0  0  0
  1  2  1  0  0  0
  1 48  1  0  0  0
  1 49  1  0  0  0
  1 50  1  0  0  0
  2  3  1  0  0  0
  2 51  1  0  0  0
  2 52  1  0  0  0
  3  4  1  0  0  0
  3 53  1  0  0  0
  3 54  1  0  0  0
  4  5  1  0  0  0
  4 55  1  0  0  0
  4 56  1  0  0  0
  5 43  1  0  0  0
  5  6  1  0  0  0
  5 25  1  0  0  0
  6  7  2  0  0  0
  6  8  1  0  0  0
  8  9  1  0  0  0
  8 57  1  0  0  0
  9 44  1  0  0  0
  9 10  1  0  0  0
  9 17  1  0  0  0
 10 11  1  0  0  0
 10 58  1  0  0  0
 10 59  1  0  0  0
 11 16  1  0  0  0
 11 12  1  0  0  0
 11 60  1  0  0  0
 12 13  1  0  0  0
 12 61  1  0  0  0
 12 62  1  0  0  0
 13 14  1  0  0  0
 13 63  1  0  0  0
 13 64  1  0  0  0
 14 15  1  0  0  0
 14 65  1  0  0  0
 14 66  1  0  0  0
 15 16  1  0  0  0
 15 67  1  0  0  0
 15 68  1  0  0  0
 16 69  1  0  0  0
 16 70  1  0  0  0
 17 45  1  0  0  0
 17 18  1  0  0  0
 17 24  1  0  0  0
 18 46  1  0  0  0
 18 19  1  0  0  0
 18 23  1  0  0  0
 19 20  1  0  0  0
 19 71  1  0  0  0
 19 72  1  0  0  0
 20 21  1  0  0  0
 20 22  1  0  0  0
 20 73  1  0  0  0
 21 74  1  0  0  0
 21 75  1  0  0  0
 21 76  1  0  0  0
 22 77  1  0  0  0
 22 78  1  0  0  0
 22 79  1  0  0  0
 23 80  1  0  0  0
 24 81  1  0  0  0
 25 26  1  0  0  0
 26 47  1  0  0  0
 26 27  1  0  0  0
 26 34  1  0  0  0
 27 28  1  0  0  0
 27 82  1  0  0  0
 27 83  1  0  0  0
 28 33  1  0  0  0
 28 29  2  0  0  0
 29 30  1  0  0  0
 29 84  1  0  0  0
 30 31  2  0  0  0
 30 85  1  0  0  0
 31 32  1  0  0  0
 31 86  1  0  0  0
 32 33  2  0  0  0
 32 87  1  0  0  0
 33 88  1  0  0  0
 34 35  2  0  0  0
 34 36  1  0  0  0
 36 41  1  0  0  0
 36 37  1  0  0  0
 37 38  1  0  0  0
 37 89  1  0  0  0
 37 90  1  0  0  0
 38 39  1  0  0  0
 38 91  1  0  0  0
 38 92  1  0  0  0
 39 40  1  0  0  0
 39 42  1  0  0  0
 39 93  1  0  0  0
 40 41  1  0  0  0
 40 94  1  0  0  0
 40 95  1  0  0  0
 41 96  1  0  0  0
 41 97  1  0  0  0
 42 98  1  0  0  0
M  END
> <s_m_entry_id>
27544

> <s_m_entry_name>
ligand_docking-pose.98

> <s_m_Source_Path>
/home/csk/Desktop/cluster/DUD-E-result/reni

> <s_m_Source_File>
ligand_docking-pose.sdf

> <i_m_Source_File_Index>
98

> <i_lp_mmshare_version>
53161

> <i_f3d_flags>
0

> <r_lp_tautomer_probability>
1

> <s_lp_Force_Field>
OPLS_2005

> <r_lp_Energy>
48.181517

> <b_lp_Chiralities_Consistent>
1

> <s_lp_Variant>
72573-1

> <s_i_glide_gridfile>
glide-grid_3g6z

> <i_i_glide_lignum>
380

> <i_i_glide_rotatable_bonds>
21

> <r_i_docking_score>
-7.09347776350295

> <r_i_glide_ligand_efficiency>
-0.168892327702451

> <r_i_glide_ligand_efficiency_sa>
-0.587074230479184

> <r_i_glide_ligand_efficiency_ln>
-1.49725040685154

> <r_i_glide_gscore>
-7.09347776350295

> <r_i_glide_lipo>
-3.39121442897371

> <r_i_glide_hbond>
-0.299210961396316

> <r_i_glide_metal>
0

> <r_i_glide_rewards>
-1.19395982078663

> <r_i_glide_evdw>
-45.6805305480957

> <r_i_glide_ecoul>
-4.41565322875977

> <r_i_glide_erotb>
0.738381099105775

> <r_i_glide_esite>
-0.00109913973331277

> <r_i_glide_emodel>
-68.4506458978178

> <r_i_glide_energy>
-50.0961837768555

> <r_i_glide_einternal>
7.27214813232422

> <i_i_glide_confnum>
77

> <i_i_glide_posenum>
387

> <r_i_glide_eff_state_penalty>
0

> <s_user_duplicate_titles>
72573

> <s_m_subgroup_title>
dock_pv

> <s_m_subgroupid>
dock_pv1

> <b_m_subgroup_collapsed>
0

$$$$
405794
                    3D
 Schrodinger Suite 2021-1.
 65 68  0  0  1  0            999 V2000
  -12.1878  -16.8628   -9.5102 C   0  0  0  0  0  0
  -11.8283  -17.4477  -10.8895 C   0  0  0  0  0  0
  -11.4210  -18.9170  -10.8413 C   0  0  0  0  0  0
  -10.1439  -19.3393  -10.4233 C   0  0  0  0  0  0
   -9.9241  -20.7286  -10.4558 C   0  0  0  0  0  0
  -10.8667  -21.6155  -10.8613 N   0  0  0  0  0  0
  -12.0640  -21.1004  -11.2211 C   0  0  0  0  0  0
  -12.3940  -19.7898  -11.2208 N   0  0  0  0  0  0
  -13.0420  -21.9962  -11.6270 N   0  0  0  0  0  0
   -8.7098  -21.2806  -10.0634 N   0  0  0  0  0  0
   -9.1325  -18.3677   -9.9278 C   0  0  0  0  0  0
   -8.8912  -18.2537   -8.5552 C   0  0  0  0  0  0
   -8.0315  -17.2768   -8.0650 C   0  0  0  0  0  0
   -7.4001  -16.4192   -8.9550 C   0  0  0  0  0  0
   -7.6019  -16.5101  -10.3348 C   0  0  0  0  0  0
   -8.4672  -17.5107  -10.8123 C   0  0  0  0  0  0
   -6.8910  -15.6041  -11.1624 N   0  0  0  0  0  0
   -6.3498  -14.4255  -10.7232 C   0  0  0  0  0  0
   -5.7915  -13.6042  -11.4573 O   0  0  0  0  0  0
   -6.5532  -14.2052   -9.1645 C   0  0  2  0  0  0
   -6.5650  -15.4550   -8.4403 O   0  0  0  0  0  0
   -7.9498  -13.5268   -9.0256 C   0  0  0  0  0  0
   -5.4326  -13.3130   -8.5474 C   0  0  0  0  0  0
   -5.7127  -12.5171   -7.4234 C   0  0  0  0  0  0
   -4.7452  -11.6853   -6.8655 C   0  0  0  0  0  0
   -3.4604  -11.6599   -7.3957 C   0  0  0  0  0  0
   -3.1268  -12.4801   -8.4769 C   0  0  0  0  0  0
   -4.1100  -13.3115   -9.0305 C   0  0  0  0  0  0
   -1.7033  -12.4491   -9.0315 C   0  0  0  0  0  0
   -1.4338  -11.2272   -9.4994 F   0  0  0  0  0  0
   -0.8366  -12.7386   -8.0578 F   0  0  0  0  0  0
   -1.5236  -13.3265  -10.0213 F   0  0  0  0  0  0
   -6.7579  -15.9304  -12.6062 C   0  0  0  0  0  0
   -5.6315  -16.9350  -12.9383 C   0  0  0  0  0  0
   -5.6364  -18.1165  -12.0762 N   0  0  0  0  0  0
   -5.3752  -19.3680  -12.4692 C   0  0  0  0  0  0
   -5.0691  -19.6638  -13.6209 O   0  0  0  0  0  0
   -5.4601  -20.4510  -11.4023 C   0  0  0  0  0  0
  -12.5543  -15.8400   -9.6064 H   0  0  0  0  0  0
  -12.9618  -17.4444   -9.0086 H   0  0  0  0  0  0
  -11.3220  -16.8348   -8.8497 H   0  0  0  0  0  0
  -11.0318  -16.8589  -11.3424 H   0  0  0  0  0  0
  -12.6664  -17.3441  -11.5774 H   0  0  0  0  0  0
  -13.9337  -21.6482  -11.9478 H   0  0  0  0  0  0
  -12.7879  -22.9663  -11.7270 H   0  0  0  0  0  0
   -7.9619  -20.6656   -9.7839 H   0  0  0  0  0  0
   -8.5835  -22.2771  -10.1502 H   0  0  0  0  0  0
   -9.4020  -18.9016   -7.8580 H   0  0  0  0  0  0
   -7.8644  -17.1789   -7.0033 H   0  0  0  0  0  0
   -8.6642  -17.6268  -11.8680 H   0  0  0  0  0  0
   -7.8766  -12.4631   -9.2211 H   0  0  0  0  0  0
   -8.7096  -13.9334   -9.6946 H   0  0  0  0  0  0
   -8.3438  -13.6412   -8.0185 H   0  0  0  0  0  0
   -6.6927  -12.5168   -6.9719 H   0  0  0  0  0  0
   -4.9913  -11.0595   -6.0210 H   0  0  0  0  0  0
   -2.7191  -11.0093   -6.9545 H   0  0  0  0  0  0
   -3.8403  -13.9504   -9.8581 H   0  0  0  0  0  0
   -6.5360  -15.0274  -13.1767 H   0  0  0  0  0  0
   -7.7052  -16.2488  -13.0376 H   0  0  0  0  0  0
   -4.6562  -16.4607  -12.8196 H   0  0  0  0  0  0
   -5.7275  -17.2188  -13.9902 H   0  0  0  0  0  0
   -5.8499  -17.9509  -11.1037 H   0  0  0  0  0  0
   -6.1288  -21.2452  -11.7323 H   0  0  0  0  0  0
   -5.8334  -20.0572  -10.4571 H   0  0  0  0  0  0
   -4.4745  -20.8807  -11.2290 H   0  0  0  0  0  0
  1  2  1  0  0  0
  1 39  1  0  0  0
  1 40  1  0  0  0
  1 41  1  0  0  0
  2  3  1  0  0  0
  2 42  1  0  0  0
  2 43  1  0  0  0
  3  8  1  0  0  0
  3  4  2  0  0  0
  4  5  1  0  0  0
  4 11  1  0  0  0
  5  6  2  0  0  0
  5 10  1  0  0  0
  6  7  1  0  0  0
  7  8  2  0  0  0
  7  9  1  0  0  0
  9 44  1  0  0  0
  9 45  1  0  0  0
 10 46  1  0  0  0
 10 47  1  0  0  0
 11 16  1  0  0  0
 11 12  2  0  0  0
 12 13  1  0  0  0
 12 48  1  0  0  0
 13 14  2  0  0  0
 13 49  1  0  0  0
 14 21  1  0  0  0
 14 15  1  0  0  0
 15 16  2  0  0  0
 15 17  1  0  0  0
 16 50  1  0  0  0
 17 18  1  0  0  0
 17 33  1  0  0  0
 18 19  2  0  0  0
 18 20  1  0  0  0
 20 21  1  0  0  0
 20 22  1  0  0  0
 20 23  1  0  0  0
 22 51  1  0  0  0
 22 52  1  0  0  0
 22 53  1  0  0  0
 23 28  1  0  0  0
 23 24  2  0  0  0
 24 25  1  0  0  0
 24 54  1  0  0  0
 25 26  2  0  0  0
 25 55  1  0  0  0
 26 27  1  0  0  0
 26 56  1  0  0  0
 27 28  2  0  0  0
 27 29  1  0  0  0
 28 57  1  0  0  0
 29 30  1  0  0  0
 29 31  1  0  0  0
 29 32  1  0  0  0
 33 34  1  0  0  0
 33 58  1  0  0  0
 33 59  1  0  0  0
 34 35  1  0  0  0
 34 60  1  0  0  0
 34 61  1  0  0  0
 35 36  1  0  0  0
 35 62  1  0  0  0
 36 37  2  0  0  0
 36 38  1  0  0  0
 38 63  1  0  0  0
 38 64  1  0  0  0
 38 65  1  0  0  0
M  END
> <s_m_entry_id>
27548

> <s_m_entry_name>
ligand_docking-pose.102

> <s_m_Source_Path>
/home/csk/Desktop/cluster/DUD-E-result/reni

> <s_m_Source_File>
ligand_docking-pose.sdf

> <i_m_Source_File_Index>
102

> <i_lp_mmshare_version>
53161

> <i_f3d_flags>
0

> <r_lp_tautomer_probability>
0.999999624730965

> <s_lp_Force_Field>
OPLS_2005

> <r_lp_Energy>
25.499528

> <b_lp_Chiralities_Consistent>
1

> <s_lp_Variant>
405794-2

> <s_i_glide_gridfile>
glide-grid_3g6z

> <i_i_glide_lignum>
86

> <i_i_glide_rotatable_bonds>
8

> <r_i_docking_score>
-7.07732423339119

> <r_i_glide_ligand_efficiency>
-0.186245374562926

> <r_i_glide_ligand_efficiency_sa>
-0.626152368151391

> <r_i_glide_ligand_efficiency_ln>
-1.52607929850488

> <r_i_glide_gscore>
-7.07732423339119

> <r_i_glide_lipo>
-2.53474166528836

> <r_i_glide_hbond>
-0.485848208822851

> <r_i_glide_metal>
0

> <r_i_glide_rewards>
-0.815270040122744

> <r_i_glide_evdw>
-41.0096778869629

> <r_i_glide_ecoul>
-10.0353708267212

> <r_i_glide_erotb>
0.368762031234303

> <r_i_glide_esite>
-0.0544368320352134

> <r_i_glide_emodel>
-69.4558143338757

> <r_i_glide_energy>
-51.0450487136841

> <r_i_glide_einternal>
3.75049710273743

> <i_i_glide_confnum>
44

> <i_i_glide_posenum>
72

> <r_i_glide_eff_state_penalty>
0

> <s_user_duplicate_titles>
405794

> <s_m_subgroup_title>
dock_pv

> <s_m_subgroupid>
dock_pv1

> <b_m_subgroup_collapsed>
0

$$$$
84662
                    3D
 Schrodinger Suite 2021-1.
 80 83  0  0  1  0            999 V2000
   -0.4182  -18.5610  -10.5533 C   0  0  0  0  0  0
   -1.6152  -18.0967   -9.6888 C   0  0  0  0  0  0
   -1.8526  -18.9916   -8.4533 C   0  0  0  0  0  0
   -2.9190  -17.8899  -10.4988 C   0  0  2  0  0  0
   -3.6926  -19.1958  -10.8864 C   0  0  0  0  0  0
   -4.7281  -19.1762  -12.0556 C   0  0  1  0  0  0
   -5.9878  -18.2462  -11.9611 C   0  0  2  0  0  0
   -5.7745  -16.8854  -11.2733 C   0  0  0  0  0  0
   -6.8702  -15.8302  -11.4440 C   0  0  0  0  0  0
   -6.6531  -14.7249  -10.3868 C   0  0  0  0  0  0
   -7.6798  -13.6050  -10.5353 C   0  0  0  0  0  0
   -7.5945  -13.0027  -11.9559 C   0  0  0  0  0  0
   -7.8619  -14.0826  -13.0225 C   0  0  0  0  0  0
   -6.8648  -15.2387  -12.8765 C   0  0  0  0  0  0
   -7.2273  -18.8872  -11.5177 N   0  0  0  0  0  0
   -7.5420  -19.2812  -10.2687 C   0  0  0  0  0  0
   -6.7285  -19.3801   -9.3523 O   0  0  0  0  0  0
   -9.0386  -19.5766   -9.9950 C   0  0  2  0  0  0
   -9.7054  -20.3662  -11.1447 C   0  0  0  0  0  0
  -11.1979  -20.6109  -11.1346 C   0  0  0  0  0  0
  -12.2682  -19.7441  -11.2210 C   0  0  0  0  0  0
  -13.4607  -20.4631  -11.3325 N   0  0  0  0  0  0
  -13.0690  -21.7307  -11.3322 C   0  0  0  0  0  0
  -11.7464  -21.8785  -11.2212 N   0  0  0  0  0  0
   -9.7899  -18.3352   -9.7473 N   0  0  0  0  0  0
   -9.7872  -17.6629   -8.5862 C   0  0  0  0  0  0
   -9.0827  -17.9657   -7.6212 O   0  0  0  0  0  0
  -10.7638  -16.6100   -8.4858 C   0  0  0  0  0  0
  -11.3233  -15.7583   -9.4352 C   0  0  0  0  0  0
  -12.0801  -14.7502   -8.7375 C   0  0  0  0  0  0
  -12.8249  -13.6129   -9.1019 C   0  0  0  0  0  0
  -13.4628  -12.8632   -8.1136 C   0  0  0  0  0  0
  -13.2965  -13.1732   -6.7813 C   0  0  0  0  0  0
  -12.5425  -14.2637   -6.3705 C   0  0  0  0  0  0
  -11.9764  -15.0618   -7.3582 C   0  0  0  0  0  0
  -11.2321  -16.2100   -7.2605 N   0  0  0  0  0  0
  -14.2843  -11.8197   -8.4210 O   0  0  0  0  0  0
   -3.9975  -18.8522  -13.2207 O   0  0  0  0  0  0
   -2.6008  -17.0879  -11.6218 O   0  0  0  0  0  0
   -3.5626  -17.2891   -9.8589 H   0  0  0  0  0  0
   -5.0769  -20.1974  -12.2182 H   0  0  0  0  0  0
   -6.2663  -18.0487  -12.9992 H   0  0  0  0  0  0
   -9.0938  -20.1909   -9.0934 H   0  0  0  0  0  0
  -11.2369  -22.7505  -11.2406 H   0  0  0  0  0  0
  -10.9453  -16.6757   -6.4112 H   0  0  0  0  0  0
   -0.5459  -19.5904  -10.8880 H   0  0  0  0  0  0
   -0.2898  -17.9540  -11.4494 H   0  0  0  0  0  0
    0.5255  -18.4680  -10.0211 H   0  0  0  0  0  0
   -1.3412  -17.1136   -9.3014 H   0  0  0  0  0  0
   -1.9461  -20.0422   -8.7296 H   0  0  0  0  0  0
   -1.0459  -18.9119   -7.7304 H   0  0  0  0  0  0
   -2.7632  -18.7058   -7.9250 H   0  0  0  0  0  0
   -4.1931  -19.5783   -9.9977 H   0  0  0  0  0  0
   -2.9550  -19.9587  -11.1382 H   0  0  0  0  0  0
   -4.8696  -16.4204  -11.6440 H   0  0  0  0  0  0
   -5.6445  -17.0683  -10.2069 H   0  0  0  0  0  0
   -7.8565  -16.2612  -11.2615 H   0  0  0  0  0  0
   -5.6492  -14.3072  -10.4880 H   0  0  0  0  0  0
   -6.6811  -15.1457   -9.3799 H   0  0  0  0  0  0
   -7.5264  -12.8630   -9.7561 H   0  0  0  0  0  0
   -8.6690  -14.0100  -10.3496 H   0  0  0  0  0  0
   -6.6000  -12.5826  -12.1152 H   0  0  0  0  0  0
   -8.2690  -12.1598  -12.0689 H   0  0  0  0  0  0
   -7.7983  -13.6629  -14.0212 H   0  0  0  0  0  0
   -8.8740  -14.4717  -12.9281 H   0  0  0  0  0  0
   -7.0458  -16.0135  -13.6211 H   0  0  0  0  0  0
   -5.8688  -14.8575  -13.1091 H   0  0  0  0  0  0
   -7.9712  -18.8633  -12.2013 H   0  0  0  0  0  0
   -9.5611  -19.7596  -12.0210 H   0  0  0  0  0  0
   -9.1817  -21.3074  -11.3213 H   0  0  0  0  0  0
  -12.2694  -18.6645  -11.2440 H   0  0  0  0  0  0
  -13.7565  -22.5573  -11.4376 H   0  0  0  0  0  0
  -10.3421  -17.9850  -10.5134 H   0  0  0  0  0  0
  -11.1629  -15.8226  -10.4994 H   0  0  0  0  0  0
  -12.9714  -13.3564  -10.1361 H   0  0  0  0  0  0
  -13.7759  -12.5556   -6.0348 H   0  0  0  0  0  0
  -12.4085  -14.4630   -5.3180 H   0  0  0  0  0  0
  -14.4132  -11.7008   -9.3633 H   0  0  0  0  0  0
   -3.4373  -18.0995  -12.9800 H   0  0  0  0  0  0
   -2.2138  -16.2672  -11.3065 H   0  0  0  0  0  0
  1  2  1  0  0  0
  1 46  1  0  0  0
  1 47  1  0  0  0
  1 48  1  0  0  0
  2  3  1  0  0  0
  2  4  1  0  0  0
  2 49  1  0  0  0
  3 50  1  0  0  0
  3 51  1  0  0  0
  3 52  1  0  0  0
  4 40  1  0  0  0
  4  5  1  0  0  0
  4 39  1  0  0  0
  5  6  1  0  0  0
  5 53  1  0  0  0
  5 54  1  0  0  0
  6 41  1  0  0  0
  6  7  1  0  0  0
  6 38  1  0  0  0
  7 42  1  0  0  0
  7  8  1  0  0  0
  7 15  1  0  0  0
  8  9  1  0  0  0
  8 55  1  0  0  0
  8 56  1  0  0  0
  9 14  1  0  0  0
  9 10  1  0  0  0
  9 57  1  0  0  0
 10 11  1  0  0  0
 10 58  1  0  0  0
 10 59  1  0  0  0
 11 12  1  0  0  0
 11 60  1  0  0  0
 11 61  1  0  0  0
 12 13  1  0  0  0
 12 62  1  0  0  0
 12 63  1  0  0  0
 13 14  1  0  0  0
 13 64  1  0  0  0
 13 65  1  0  0  0
 14 66  1  0  0  0
 14 67  1  0  0  0
 15 16  1  0  0  0
 15 68  1  0  0  0
 16 17  2  0  0  0
 16 18  1  0  0  0
 18 43  1  0  0  0
 18 19  1  0  0  0
 18 25  1  0  0  0
 19 69  1  0  0  0
 19 70  1  0  0  0
 19 20  1  0  0  0
 20 21  2  0  0  0
 20 24  1  0  0  0
 21 71  1  0  0  0
 21 22  1  0  0  0
 22 23  2  0  0  0
 23 24  1  0  0  0
 23 72  1  0  0  0
 24 44  1  0  0  0
 25 26  1  0  0  0
 25 73  1  0  0  0
 26 27  2  0  0  0
 26 28  1  0  0  0
 28 36  1  0  0  0
 28 29  2  0  0  0
 29 30  1  0  0  0
 29 74  1  0  0  0
 30 35  2  0  0  0
 30 31  1  0  0  0
 31 32  2  0  0  0
 31 75  1  0  0  0
 32 33  1  0  0  0
 32 37  1  0  0  0
 33 34  2  0  0  0
 33 76  1  0  0  0
 34 35  1  0  0  0
 34 77  1  0  0  0
 35 36  1  0  0  0
 36 45  1  0  0  0
 37 78  1  0  0  0
 38 79  1  0  0  0
 39 80  1  0  0  0
M  END
> <s_m_entry_id>
27550

> <s_m_entry_name>
ligand_docking-pose.104

> <s_m_Source_Path>
/home/csk/Desktop/cluster/DUD-E-result/reni

> <s_m_Source_File>
ligand_docking-pose.sdf

> <i_m_Source_File_Index>
104

> <i_lp_mmshare_version>
53161

> <i_f3d_flags>
0

> <r_lp_tautomer_probability>
0.499999999999999

> <s_lp_Force_Field>
OPLS_2005

> <r_lp_Energy>
26.869428

> <b_lp_Chiralities_Consistent>
1

> <s_lp_Variant>
84662-2

> <s_i_glide_gridfile>
glide-grid_3g6z

> <i_i_glide_lignum>
443

> <i_i_glide_rotatable_bonds>
17

> <r_i_docking_score>
-7.07584949646056

> <r_i_glide_ligand_efficiency>
-0.181432038370784

> <r_i_glide_ligand_efficiency_sa>
-0.615274403901022

> <r_i_glide_ligand_efficiency_ln>
-1.51726299197372

> <r_i_glide_gscore>
-7.07584949646056

> <r_i_glide_lipo>
-3.58764591091959

> <r_i_glide_hbond>
-0.311503937406035

> <r_i_glide_metal>
0

> <r_i_glide_rewards>
-0.883933268256607

> <r_i_glide_evdw>
-37.1388359069824

> <r_i_glide_ecoul>
-7.93939256668091

> <r_i_glide_erotb>
0.780692379493997

> <r_i_glide_esite>
-0.025608079021071

> <r_i_glide_emodel>
-57.1728926146198

> <r_i_glide_energy>
-45.0782284736633

> <r_i_glide_einternal>
13.6040668487549

> <i_i_glide_confnum>
85

> <i_i_glide_posenum>
190

> <r_i_glide_eff_state_penalty>
0

> <s_user_duplicate_titles>
84662

> <s_m_subgroup_title>
dock_pv

> <s_m_subgroupid>
dock_pv1

> <b_m_subgroup_collapsed>
0

$$$$
549654
                    3D
 Schrodinger Suite 2021-1.
 89 89  0  0  1  0            999 V2000
   -3.5758  -11.8853  -10.1349 C   0  0  0  0  0  0
   -2.4291  -12.9149  -10.2716 C   0  0  2  0  0  0
   -2.9114  -14.3876  -10.2130 C   0  0  0  0  0  0
   -3.9267  -14.7115  -11.2205 N   0  0  0  0  0  0
   -5.1364  -15.2443  -10.9696 C   0  0  0  0  0  0
   -5.5382  -15.5122   -9.8395 O   0  0  0  0  0  0
   -6.0428  -15.5181  -12.1944 C   0  0  1  0  0  0
   -6.4467  -17.0212  -12.2904 C   0  0  0  0  0  0
   -5.3105  -18.0806  -12.2087 C   0  0  1  0  0  0
   -5.7933  -19.5169  -12.5815 C   0  0  2  0  0  0
   -4.8536  -20.6279  -12.0439 C   0  0  0  0  0  0
   -5.4683  -22.0537  -11.8770 C   0  0  2  0  0  0
   -6.3200  -22.2055  -10.5768 C   0  0  0  0  0  0
   -7.6442  -21.4565  -10.5750 C   0  0  0  0  0  0
   -7.7380  -20.1911   -9.9954 C   0  0  0  0  0  0
   -8.9268  -19.4767  -10.0704 C   0  0  0  0  0  0
  -10.0611  -20.0361  -10.6811 C   0  0  0  0  0  0
  -10.0011  -21.3493  -11.1742 C   0  0  0  0  0  0
   -8.7760  -22.0361  -11.1523 C   0  0  0  0  0  0
  -11.1774  -21.8885  -11.6581 O   0  0  0  0  0  0
  -11.2239  -23.2046  -12.2053 C   0  0  0  0  0  0
  -12.6837  -23.6959  -12.2411 C   0  0  0  0  0  0
  -13.6642  -22.8480  -13.0861 C   0  0  0  0  0  0
  -13.7092  -21.4657  -12.7487 O   0  0  0  0  0  0
  -14.1087  -21.1407  -11.4222 C   0  0  0  0  0  0
  -11.2623  -19.3565  -10.8231 O   0  0  0  0  0  0
  -11.3068  -17.9623  -10.5407 C   0  0  0  0  0  0
   -4.3892  -23.1803  -11.9400 C   0  0  0  0  0  0
   -3.2898  -23.0355  -10.8633 C   0  0  0  0  0  0
   -3.7727  -23.3597  -13.3449 C   0  0  0  0  0  0
   -6.0243  -19.6906  -14.0141 N   0  0  0  0  0  0
   -4.1753  -17.7131  -12.9775 O   0  0  0  0  0  0
   -7.2622  -14.5388  -12.2570 C   0  0  0  0  0  0
   -8.0999  -14.7148  -13.5322 C   0  0  0  0  0  0
   -6.8534  -13.0555  -12.1634 C   0  0  0  0  0  0
   -1.3429  -12.6747   -9.2054 C   0  0  0  0  0  0
   -1.6264  -12.5934   -8.0135 O   0  0  0  0  0  0
   -0.0823  -12.5704   -9.6208 N   0  0  0  0  0  0
   -1.9688  -12.7503  -11.2493 H   0  0  0  0  0  0
   -5.4703  -15.3038  -13.0974 H   0  0  0  0  0  0
   -4.9823  -18.0964  -11.1693 H   0  0  0  0  0  0
   -6.7717  -19.6291  -12.1258 H   0  0  0  0  0  0
   -6.1404  -22.2315  -12.7201 H   0  0  0  0  0  0
   -3.1980  -10.8654  -10.0427 H   0  0  0  0  0  0
   -4.2234  -11.9012  -11.0120 H   0  0  0  0  0  0
   -4.1908  -12.0848   -9.2575 H   0  0  0  0  0  0
   -2.0715  -15.0640  -10.3834 H   0  0  0  0  0  0
   -3.2684  -14.6180   -9.2037 H   0  0  0  0  0  0
   -3.6754  -14.5371  -12.1859 H   0  0  0  0  0  0
   -7.1783  -17.2412  -11.5107 H   0  0  0  0  0  0
   -6.9735  -17.1728  -13.2215 H   0  0  0  0  0  0
   -3.9739  -20.6573  -12.6870 H   0  0  0  0  0  0
   -4.4629  -20.3265  -11.0722 H   0  0  0  0  0  0
   -6.5489  -23.2556  -10.3988 H   0  0  0  0  0  0
   -5.7415  -21.9003   -9.7048 H   0  0  0  0  0  0
   -6.8722  -19.7398   -9.5315 H   0  0  0  0  0  0
   -8.9462  -18.4808   -9.6562 H   0  0  0  0  0  0
   -8.6815  -23.0181  -11.5864 H   0  0  0  0  0  0
  -10.7834  -23.2098  -13.2028 H   0  0  0  0  0  0
  -10.6601  -23.9052  -11.5865 H   0  0  0  0  0  0
  -12.7008  -24.7133  -12.6354 H   0  0  0  0  0  0
  -13.0571  -23.7825  -11.2209 H   0  0  0  0  0  0
  -13.3768  -22.9157  -14.1364 H   0  0  0  0  0  0
  -14.6691  -23.2628  -13.0283 H   0  0  0  0  0  0
  -14.0136  -20.0647  -11.2948 H   0  0  0  0  0  0
  -15.1451  -21.4070  -11.2219 H   0  0  0  0  0  0
  -13.4780  -21.5994  -10.6609 H   0  0  0  0  0  0
  -12.2712  -17.5621  -10.8457 H   0  0  0  0  0  0
  -11.1876  -17.7638   -9.4756 H   0  0  0  0  0  0
  -10.5418  -17.4152  -11.0943 H   0  0  0  0  0  0
   -4.8971  -24.1224  -11.7335 H   0  0  0  0  0  0
   -2.6354  -22.1859  -11.0580 H   0  0  0  0  0  0
   -3.7074  -22.9098   -9.8661 H   0  0  0  0  0  0
   -2.6695  -23.9291  -10.8190 H   0  0  0  0  0  0
   -3.1614  -22.5055  -13.6417 H   0  0  0  0  0  0
   -3.1297  -24.2406  -13.3773 H   0  0  0  0  0  0
   -4.5455  -23.4945  -14.1022 H   0  0  0  0  0  0
   -6.6597  -20.4697  -14.1434 H   0  0  0  0  0  0
   -6.5148  -18.8783  -14.3889 H   0  0  0  0  0  0
   -4.0009  -16.7780  -12.8491 H   0  0  0  0  0  0
   -7.9136  -14.7492  -11.4030 H   0  0  0  0  0  0
   -7.4680  -14.6614  -14.4195 H   0  0  0  0  0  0
   -8.6332  -15.6626  -13.5386 H   0  0  0  0  0  0
   -8.8544  -13.9338  -13.6214 H   0  0  0  0  0  0
   -6.1602  -12.7765  -12.9568 H   0  0  0  0  0  0
   -7.7180  -12.3941  -12.2180 H   0  0  0  0  0  0
   -6.3562  -12.8631  -11.2196 H   0  0  0  0  0  0
    0.1361  -12.6286  -10.6116 H   0  0  0  0  0  0
    0.6501  -12.4290   -8.9461 H   0  0  0  0  0  0
  1  2  1  0  0  0
  1 44  1  0  0  0
  1 45  1  0  0  0
  1 46  1  0  0  0
  2 39  1  0  0  0
  2  3  1  0  0  0
  2 36  1  0  0  0
  3  4  1  0  0  0
  3 47  1  0  0  0
  3 48  1  0  0  0
  4  5  1  0  0  0
  4 49  1  0  0  0
  5  6  2  0  0  0
  5  7  1  0  0  0
  7 40  1  0  0  0
  7  8  1  0  0  0
  7 33  1  0  0  0
  8  9  1  0  0  0
  8 50  1  0  0  0
  8 51  1  0  0  0
  9 41  1  0  0  0
  9 10  1  0  0  0
  9 32  1  0  0  0
 10 42  1  0  0  0
 10 11  1  0  0  0
 10 31  1  0  0  0
 11 12  1  0  0  0
 11 52  1  0  0  0
 11 53  1  0  0  0
 12 43  1  0  0  0
 12 13  1  0  0  0
 12 28  1  0  0  0
 13 14  1  0  0  0
 13 54  1  0  0  0
 13 55  1  0  0  0
 14 19  1  0  0  0
 14 15  2  0  0  0
 15 16  1  0  0  0
 15 56  1  0  0  0
 16 17  2  0  0  0
 16 57  1  0  0  0
 17 18  1  0  0  0
 17 26  1  0  0  0
 18 19  2  0  0  0
 18 20  1  0  0  0
 19 58  1  0  0  0
 20 21  1  0  0  0
 21 22  1  0  0  0
 21 59  1  0  0  0
 21 60  1  0  0  0
 22 23  1  0  0  0
 22 61  1  0  0  0
 22 62  1  0  0  0
 23 24  1  0  0  0
 23 63  1  0  0  0
 23 64  1  0  0  0
 24 25  1  0  0  0
 25 65  1  0  0  0
 25 66  1  0  0  0
 25 67  1  0  0  0
 26 27  1  0  0  0
 27 68  1  0  0  0
 27 69  1  0  0  0
 27 70  1  0  0  0
 28 29  1  0  0  0
 28 30  1  0  0  0
 28 71  1  0  0  0
 29 72  1  0  0  0
 29 73  1  0  0  0
 29 74  1  0  0  0
 30 75  1  0  0  0
 30 76  1  0  0  0
 30 77  1  0  0  0
 31 78  1  0  0  0
 31 79  1  0  0  0
 32 80  1  0  0  0
 33 34  1  0  0  0
 33 35  1  0  0  0
 33 81  1  0  0  0
 34 82  1  0  0  0
 34 83  1  0  0  0
 34 84  1  0  0  0
 35 85  1  0  0  0
 35 86  1  0  0  0
 35 87  1  0  0  0
 36 37  2  0  0  0
 36 38  1  0  0  0
 38 88  1  0  0  0
 38 89  1  0  0  0
M  END
> <s_m_entry_id>
27552

> <s_m_entry_name>
ligand_docking-pose.106

> <s_m_Source_Path>
/home/csk/Desktop/cluster/DUD-E-result/reni

> <s_m_Source_File>
ligand_docking-pose.sdf

> <i_m_Source_File_Index>
106

> <i_lp_mmshare_version>
53161

> <i_f3d_flags>
0

> <r_lp_tautomer_probability>
1

> <s_lp_Force_Field>
OPLS_2005

> <r_lp_Energy>
34.60144

> <b_lp_Chiralities_Consistent>
1

> <s_lp_Variant>
549654-1

> <s_i_glide_gridfile>
glide-grid_3g6z

> <i_i_glide_lignum>
710

> <i_i_glide_rotatable_bonds>
21

> <r_i_docking_score>
-7.0197697317884

> <r_i_glide_ligand_efficiency>
-0.184730782415484

> <r_i_glide_ligand_efficiency_sa>
-0.621060346606535

> <r_i_glide_ligand_efficiency_ln>
-1.51366885487742

> <r_i_glide_gscore>
-7.0197697317884

> <r_i_glide_lipo>
-2.50029452598671

> <r_i_glide_hbond>
-0.931146527960705

> <r_i_glide_metal>
0

> <r_i_glide_rewards>
1.5843134691278e-07

> <r_i_glide_evdw>
-41.3247337341309

> <r_i_glide_ecoul>
-16.9155292510986

> <r_i_glide_erotb>
1.07165165554958

> <r_i_glide_esite>
-0.0564144174505757

> <r_i_glide_emodel>
-79.3527039379322

> <r_i_glide_energy>
-58.2402629852295

> <r_i_glide_einternal>
8.89507675170898

> <i_i_glide_confnum>
121

> <i_i_glide_posenum>
321

> <r_i_glide_eff_state_penalty>
0

> <s_user_duplicate_titles>
549654

> <s_m_subgroup_title>
dock_pv

> <s_m_subgroupid>
dock_pv1

> <b_m_subgroup_collapsed>
0

$$$$
549658
                    3D
 Schrodinger Suite 2021-1.
 92 92  0  0  1  0            999 V2000
   -0.3670  -17.0031  -10.6147 C   0  0  0  0  0  0
   -1.3153  -17.2100   -9.4077 C   0  0  1  0  0  0
   -2.1676  -15.9413   -9.1380 C   0  0  0  0  0  0
   -3.2396  -15.7184  -10.1123 N   0  0  0  0  0  0
   -4.4661  -15.2562   -9.8215 C   0  0  0  0  0  0
   -4.8136  -14.9363   -8.6818 O   0  0  0  0  0  0
   -5.4681  -15.1426  -10.9945 C   0  0  1  0  0  0
   -6.6861  -16.0938  -10.7506 C   0  0  0  0  0  0
   -6.3844  -17.6036  -10.5468 C   0  0  1  0  0  0
   -7.6487  -18.5294  -10.5598 C   0  0  2  0  0  0
   -8.7084  -18.2842   -9.4397 C   0  0  0  0  0  0
   -9.7433  -17.1164   -9.5792 C   0  0  2  0  0  0
  -10.2885  -16.7709   -8.1697 C   0  0  0  0  0  0
  -11.3320  -15.6613   -8.0838 C   0  0  0  0  0  0
  -12.6222  -15.9294   -7.6216 C   0  0  0  0  0  0
  -13.5534  -14.9061   -7.4954 C   0  0  0  0  0  0
  -13.2107  -13.5904   -7.8067 C   0  0  0  0  0  0
  -11.9196  -13.3162   -8.2707 C   0  0  0  0  0  0
  -10.9921  -14.3508   -8.4211 C   0  0  0  0  0  0
  -11.5596  -12.0339   -8.5759 O   0  0  0  0  0  0
  -10.6877  -11.4491   -7.6240 C   0  0  0  0  0  0
  -10.8037   -9.9443   -7.8183 C   0  0  0  0  0  0
  -10.0327   -9.1431   -6.7589 C   0  0  0  0  0  0
  -10.6709   -9.1309   -5.4892 O   0  0  0  0  0  0
  -11.9263   -8.4620   -5.4748 C   0  0  0  0  0  0
  -14.1594  -12.6002   -7.7006 O   0  0  0  0  0  0
  -14.1710  -11.9163   -6.4575 C   0  0  0  0  0  0
  -10.8751  -17.3100  -10.6309 C   0  0  0  0  0  0
  -11.9233  -18.3723  -10.2852 C   0  0  0  0  0  0
  -10.3750  -17.5374  -12.0506 C   0  0  0  0  0  0
   -7.2392  -19.9230  -10.4230 N   0  0  0  0  0  0
   -5.5203  -17.9944  -11.6017 O   0  0  0  0  0  0
   -5.8793  -13.6542  -11.2645 C   0  0  0  0  0  0
   -6.9259  -13.4997  -12.3899 C   0  0  0  0  0  0
   -4.6680  -12.7401  -11.5756 C   0  0  0  0  0  0
   -2.1658  -18.4956   -9.5271 C   0  0  0  0  0  0
   -2.2241  -19.1185  -10.5897 O   0  0  0  0  0  0
   -2.8273  -18.8827   -8.4216 N   0  0  0  0  0  0
   -3.6679  -20.0705   -8.3578 C   0  0  0  0  0  0
   -0.6752  -17.3569   -8.5373 H   0  0  0  0  0  0
   -4.9702  -15.4868  -11.9039 H   0  0  0  0  0  0
   -5.8507  -17.7315   -9.6035 H   0  0  0  0  0  0
   -8.1073  -18.4591  -11.5415 H   0  0  0  0  0  0
   -9.2189  -16.2260   -9.9081 H   0  0  0  0  0  0
    0.2787  -17.8682  -10.7685 H   0  0  0  0  0  0
   -0.9204  -16.8424  -11.5402 H   0  0  0  0  0  0
    0.2823  -16.1418  -10.4646 H   0  0  0  0  0  0
   -2.5750  -16.0074   -8.1234 H   0  0  0  0  0  0
   -1.5296  -15.0552   -9.1216 H   0  0  0  0  0  0
   -3.0339  -15.9487  -11.0754 H   0  0  0  0  0  0
   -7.2073  -15.7152   -9.8725 H   0  0  0  0  0  0
   -7.3728  -16.0188  -11.5921 H   0  0  0  0  0  0
   -9.3021  -19.1873   -9.2885 H   0  0  0  0  0  0
   -8.1547  -18.1712   -8.5065 H   0  0  0  0  0  0
  -10.6750  -17.6628   -7.6782 H   0  0  0  0  0  0
   -9.4383  -16.4630   -7.5688 H   0  0  0  0  0  0
  -12.9156  -16.9306   -7.3504 H   0  0  0  0  0  0
  -14.5534  -15.1446   -7.1604 H   0  0  0  0  0  0
   -9.9984  -14.1241   -8.7786 H   0  0  0  0  0  0
  -10.9733  -11.7090   -6.6006 H   0  0  0  0  0  0
   -9.6627  -11.7905   -7.7853 H   0  0  0  0  0  0
  -10.4628   -9.6694   -8.8201 H   0  0  0  0  0  0
  -11.8627   -9.7051   -7.7766 H   0  0  0  0  0  0
   -9.0511   -9.5956   -6.6227 H   0  0  0  0  0  0
   -9.8689   -8.1176   -7.0923 H   0  0  0  0  0  0
  -12.1990   -8.2031   -4.4545 H   0  0  0  0  0  0
  -11.9083   -7.5348   -6.0446 H   0  0  0  0  0  0
  -12.7210   -9.0871   -5.8786 H   0  0  0  0  0  0
  -15.0397  -11.2621   -6.4199 H   0  0  0  0  0  0
  -14.2541  -12.6038   -5.6191 H   0  0  0  0  0  0
  -13.2796  -11.3052   -6.3245 H   0  0  0  0  0  0
  -11.4130  -16.3610  -10.6780 H   0  0  0  0  0  0
  -11.4692  -19.3409  -10.0862 H   0  0  0  0  0  0
  -12.4975  -18.0630   -9.4150 H   0  0  0  0  0  0
  -12.6353  -18.5062  -11.1005 H   0  0  0  0  0  0
  -10.0934  -18.5719  -12.2352 H   0  0  0  0  0  0
  -11.1856  -17.2911  -12.7333 H   0  0  0  0  0  0
   -9.5290  -16.8962  -12.3009 H   0  0  0  0  0  0
   -6.8141  -20.0716   -9.5227 H   0  0  0  0  0  0
   -8.0467  -20.5271  -10.4654 H   0  0  0  0  0  0
   -6.0674  -18.1978  -12.3657 H   0  0  0  0  0  0
   -6.3454  -13.2634  -10.3573 H   0  0  0  0  0  0
   -6.5753  -13.9459  -13.3228 H   0  0  0  0  0  0
   -7.8788  -13.9596  -12.1340 H   0  0  0  0  0  0
   -7.1434  -12.4512  -12.5853 H   0  0  0  0  0  0
   -4.1003  -13.1081  -12.4317 H   0  0  0  0  0  0
   -4.9866  -11.7235  -11.8081 H   0  0  0  0  0  0
   -3.9792  -12.6693  -10.7339 H   0  0  0  0  0  0
   -2.8101  -18.2980   -7.5961 H   0  0  0  0  0  0
   -3.8657  -20.3330   -7.3200 H   0  0  0  0  0  0
   -3.1872  -20.9231   -8.8394 H   0  0  0  0  0  0
   -4.6201  -19.8831   -8.8539 H   0  0  0  0  0  0
  1  2  1  0  0  0
  1 45  1  0  0  0
  1 46  1  0  0  0
  1 47  1  0  0  0
  2 40  1  0  0  0
  2  3  1  0  0  0
  2 36  1  0  0  0
  3  4  1  0  0  0
  3 48  1  0  0  0
  3 49  1  0  0  0
  4  5  1  0  0  0
  4 50  1  0  0  0
  5  6  2  0  0  0
  5  7  1  0  0  0
  7 41  1  0  0  0
  7  8  1  0  0  0
  7 33  1  0  0  0
  8  9  1  0  0  0
  8 51  1  0  0  0
  8 52  1  0  0  0
  9 42  1  0  0  0
  9 10  1  0  0  0
  9 32  1  0  0  0
 10 43  1  0  0  0
 10 11  1  0  0  0
 10 31  1  0  0  0
 11 12  1  0  0  0
 11 53  1  0  0  0
 11 54  1  0  0  0
 12 44  1  0  0  0
 12 13  1  0  0  0
 12 28  1  0  0  0
 13 14  1  0  0  0
 13 55  1  0  0  0
 13 56  1  0  0  0
 14 19  1  0  0  0
 14 15  2  0  0  0
 15 16  1  0  0  0
 15 57  1  0  0  0
 16 17  2  0  0  0
 16 58  1  0  0  0
 17 18  1  0  0  0
 17 26  1  0  0  0
 18 19  2  0  0  0
 18 20  1  0  0  0
 19 59  1  0  0  0
 20 21  1  0  0  0
 21 22  1  0  0  0
 21 60  1  0  0  0
 21 61  1  0  0  0
 22 23  1  0  0  0
 22 62  1  0  0  0
 22 63  1  0  0  0
 23 24  1  0  0  0
 23 64  1  0  0  0
 23 65  1  0  0  0
 24 25  1  0  0  0
 25 66  1  0  0  0
 25 67  1  0  0  0
 25 68  1  0  0  0
 26 27  1  0  0  0
 27 69  1  0  0  0
 27 70  1  0  0  0
 27 71  1  0  0  0
 28 29  1  0  0  0
 28 30  1  0  0  0
 28 72  1  0  0  0
 29 73  1  0  0  0
 29 74  1  0  0  0
 29 75  1  0  0  0
 30 76  1  0  0  0
 30 77  1  0  0  0
 30 78  1  0  0  0
 31 79  1  0  0  0
 31 80  1  0  0  0
 32 81  1  0  0  0
 33 34  1  0  0  0
 33 35  1  0  0  0
 33 82  1  0  0  0
 34 83  1  0  0  0
 34 84  1  0  0  0
 34 85  1  0  0  0
 35 86  1  0  0  0
 35 87  1  0  0  0
 35 88  1  0  0  0
 36 37  2  0  0  0
 36 38  1  0  0  0
 38 39  1  0  0  0
 38 89  1  0  0  0
 39 90  1  0  0  0
 39 91  1  0  0  0
 39 92  1  0  0  0
M  END
> <s_m_entry_id>
27553

> <s_m_entry_name>
ligand_docking-pose.107

> <s_m_Source_Path>
/home/csk/Desktop/cluster/DUD-E-result/reni

> <s_m_Source_File>
ligand_docking-pose.sdf

> <i_m_Source_File_Index>
107

> <i_lp_mmshare_version>
53161

> <i_f3d_flags>
0

> <r_lp_tautomer_probability>
1

> <s_lp_Force_Field>
OPLS_2005

> <r_lp_Energy>
37.569511

> <b_lp_Chiralities_Consistent>
1

> <s_lp_Variant>
549658-1

> <s_i_glide_gridfile>
glide-grid_3g6z

> <i_i_glide_lignum>
711

> <i_i_glide_rotatable_bonds>
22

> <r_i_docking_score>
-7.01780591502648

> <r_i_glide_ligand_efficiency>
-0.179943741410935

> <r_i_glide_ligand_efficiency_sa>
-0.610227274226345

> <r_i_glide_ligand_efficiency_ln>
-1.50481680044921

> <r_i_glide_gscore>
-7.01780591502648

> <r_i_glide_lipo>
-4.53448868060303

> <r_i_glide_hbond>
-0.202238519701884

> <r_i_glide_metal>
0

> <r_i_glide_rewards>
-0.685339194776093

> <r_i_glide_evdw>
-45.9078216552734

> <r_i_glide_ecoul>
-2.13256192207336

> <r_i_glide_erotb>
1.0195358511292

> <r_i_glide_esite>
0

> <r_i_glide_emodel>
-55.2476551655174

> <r_i_glide_energy>
-48.0403835773468

> <r_i_glide_einternal>
22.8163356781006

> <i_i_glide_confnum>
12

> <i_i_glide_posenum>
38

> <r_i_glide_eff_state_penalty>
0

> <s_user_duplicate_titles>
549658

> <s_m_subgroup_title>
dock_pv

> <s_m_subgroupid>
dock_pv1

> <b_m_subgroup_collapsed>
0

$$$$
42627
                    3D
 Schrodinger Suite 2021-1.
 72 76  0  0  1  0            999 V2000
    2.1635   -7.7307   -8.4269 C   0  0  0  0  0  0
    1.1290   -7.1719   -7.6808 C   0  0  0  0  0  0
    0.1314   -7.9942   -7.1635 C   0  0  0  0  0  0
    0.1642   -9.3720   -7.4045 C   0  0  0  0  0  0
    1.2000   -9.9248   -8.1608 C   0  0  0  0  0  0
    2.2053   -9.1026   -8.6645 C   0  0  0  0  0  0
   -0.9285  -10.2674   -6.8399 C   0  0  0  0  0  0
   -1.9381  -10.4527   -7.8217 O   0  0  0  0  0  0
   -3.1014  -11.1040   -7.3298 C   0  0  0  0  0  0
   -4.1795  -11.0842   -8.4213 C   0  0  0  0  0  0
   -3.8690  -11.9503   -9.6557 C   0  0  0  0  0  0
   -3.8927  -13.3292   -9.2741 O   0  0  0  0  0  0
   -4.5320  -14.2919  -10.0371 C   0  0  0  0  0  0
   -5.1920  -14.0678  -11.2563 C   0  0  0  0  0  0
   -5.8680  -15.1069  -11.8929 C   0  0  0  0  0  0
   -5.8865  -16.3869  -11.3336 C   0  0  0  0  0  0
   -5.1795  -16.6246  -10.1500 C   0  0  0  0  0  0
   -4.5187  -15.5821   -9.5076 C   0  0  0  0  0  0
   -6.7319  -17.4998  -11.9722 C   0  0  1  0  0  0
   -5.8768  -18.6755  -12.5366 C   0  0  1  0  0  0
   -6.7212  -19.8949  -12.9905 C   0  0  0  0  0  0
   -7.6978  -20.3221  -11.9879 N   0  0  1  0  0  0
   -8.5848  -19.2189  -11.6211 C   0  0  0  0  0  0
   -7.8076  -18.0483  -10.9876 C   0  0  2  0  0  0
   -8.8006  -17.0787  -10.6456 O   0  0  0  0  0  0
   -8.5504  -16.2844   -9.4894 C   0  0  0  0  0  0
   -9.8432  -15.6304   -9.0361 C   0  0  0  0  0  0
  -10.9741  -16.4126   -8.7956 C   0  0  0  0  0  0
  -12.1564  -15.8372   -8.3386 C   0  0  0  0  0  0
  -12.2287  -14.4417   -8.1045 C   0  0  0  0  0  0
  -13.4098  -13.8287   -7.6213 C   0  0  0  0  0  0
  -13.4591  -12.4517   -7.4131 C   0  0  0  0  0  0
  -12.3445  -11.6614   -7.6663 C   0  0  0  0  0  0
  -11.1608  -12.2336   -8.1269 C   0  0  0  0  0  0
  -11.0828  -13.6306   -8.3575 C   0  0  0  0  0  0
   -9.8939  -14.2485   -8.8212 C   0  0  0  0  0  0
   -5.0686  -18.2613  -13.6213 O   0  0  0  0  0  0
   -7.2836  -17.0613  -12.8045 H   0  0  0  0  0  0
   -5.2001  -19.0074  -11.7478 H   0  0  0  0  0  0
   -7.3456  -18.4261  -10.0715 H   0  0  0  0  0  0
    2.9419   -7.0932   -8.8197 H   0  0  0  0  0  0
    1.1042   -6.1079   -7.4986 H   0  0  0  0  0  0
   -0.6696   -7.5600   -6.5827 H   0  0  0  0  0  0
    1.2308  -10.9890   -8.3497 H   0  0  0  0  0  0
    3.0214   -9.5318   -9.2242 H   0  0  0  0  0  0
   -0.5071  -11.2293   -6.5397 H   0  0  0  0  0  0
   -1.3402   -9.8047   -5.9401 H   0  0  0  0  0  0
   -2.8728  -12.1268   -7.0209 H   0  0  0  0  0  0
   -3.4827  -10.5743   -6.4527 H   0  0  0  0  0  0
   -5.1256  -11.4136   -7.9904 H   0  0  0  0  0  0
   -4.3354  -10.0507   -8.7348 H   0  0  0  0  0  0
   -4.5921  -11.6764  -10.4184 H   0  0  0  0  0  0
   -2.8870  -11.7089  -10.0631 H   0  0  0  0  0  0
   -5.2124  -13.1044  -11.7342 H   0  0  0  0  0  0
   -6.3940  -14.9120  -12.8154 H   0  0  0  0  0  0
   -5.1681  -17.6066   -9.7043 H   0  0  0  0  0  0
   -4.0066  -15.7705   -8.5765 H   0  0  0  0  0  0
   -6.0651  -20.7356  -13.2174 H   0  0  0  0  0  0
   -7.2614  -19.6616  -13.9103 H   0  0  0  0  0  0
   -8.2369  -21.0898  -12.3650 H   0  0  0  0  0  0
   -9.3233  -19.5929  -10.9101 H   0  0  0  0  0  0
   -9.1376  -18.8632  -12.4885 H   0  0  0  0  0  0
   -8.1804  -16.8914   -8.6592 H   0  0  0  0  0  0
   -7.7968  -15.5239   -9.6999 H   0  0  0  0  0  0
  -10.9330  -17.4773   -8.9636 H   0  0  0  0  0  0
  -13.0256  -16.4555   -8.1604 H   0  0  0  0  0  0
  -14.2690  -14.4472   -7.4141 H   0  0  0  0  0  0
  -14.3675  -11.9959   -7.0504 H   0  0  0  0  0  0
  -12.3976  -10.5926   -7.5055 H   0  0  0  0  0  0
  -10.2984  -11.6112   -8.3179 H   0  0  0  0  0  0
   -9.0242  -13.6349   -9.0085 H   0  0  0  0  0  0
   -5.6144  -17.7421  -14.2241 H   0  0  0  0  0  0
  1  6  1  0  0  0
  1  2  2  0  0  0
  1 41  1  0  0  0
  2  3  1  0  0  0
  2 42  1  0  0  0
  3  4  2  0  0  0
  3 43  1  0  0  0
  4  5  1  0  0  0
  4  7  1  0  0  0
  5  6  2  0  0  0
  5 44  1  0  0  0
  6 45  1  0  0  0
  7  8  1  0  0  0
  7 46  1  0  0  0
  7 47  1  0  0  0
  8  9  1  0  0  0
  9 10  1  0  0  0
  9 48  1  0  0  0
  9 49  1  0  0  0
 10 11  1  0  0  0
 10 50  1  0  0  0
 10 51  1  0  0  0
 11 12  1  0  0  0
 11 52  1  0  0  0
 11 53  1  0  0  0
 12 13  1  0  0  0
 13 18  1  0  0  0
 13 14  2  0  0  0
 14 15  1  0  0  0
 14 54  1  0  0  0
 15 16  2  0  0  0
 15 55  1  0  0  0
 16 17  1  0  0  0
 16 19  1  0  0  0
 17 18  2  0  0  0
 17 56  1  0  0  0
 18 57  1  0  0  0
 19 38  1  0  0  0
 19 24  1  0  0  0
 19 20  1  0  0  0
 20 39  1  0  0  0
 20 21  1  0  0  0
 20 37  1  0  0  0
 21 22  1  0  0  0
 21 58  1  0  0  0
 21 59  1  0  0  0
 22 23  1  0  0  0
 22 60  1  0  0  0
 23 24  1  0  0  0
 23 61  1  0  0  0
 23 62  1  0  0  0
 24 40  1  0  0  0
 24 25  1  0  0  0
 25 26  1  0  0  0
 26 27  1  0  0  0
 26 63  1  0  0  0
 26 64  1  0  0  0
 27 36  1  0  0  0
 27 28  2  0  0  0
 28 29  1  0  0  0
 28 65  1  0  0  0
 29 30  2  0  0  0
 29 66  1  0  0  0
 30 35  1  0  0  0
 30 31  1  0  0  0
 31 32  2  0  0  0
 31 67  1  0  0  0
 32 33  1  0  0  0
 32 68  1  0  0  0
 33 34  2  0  0  0
 33 69  1  0  0  0
 34 35  1  0  0  0
 34 70  1  0  0  0
 35 36  2  0  0  0
 36 71  1  0  0  0
 37 72  1  0  0  0
M  END
> <s_m_entry_id>
27554

> <s_m_entry_name>
ligand_docking-pose.108

> <s_m_Source_Path>
/home/csk/Desktop/cluster/DUD-E-result/reni

> <s_m_Source_File>
ligand_docking-pose.sdf

> <i_m_Source_File_Index>
108

> <i_lp_mmshare_version>
53161

> <i_f3d_flags>
0

> <r_lp_tautomer_probability>
1

> <s_lp_Force_Field>
OPLS_2005

> <r_lp_Energy>
38.693907

> <b_lp_Chiralities_Consistent>
1

> <s_lp_Variant>
42627-1

> <s_i_glide_gridfile>
glide-grid_3g6z

> <i_i_glide_lignum>
18

> <i_i_glide_rotatable_bonds>
12

> <r_i_docking_score>
-7.01400333283976

> <r_i_glide_ligand_efficiency>
-0.189567657644318

> <r_i_glide_ligand_efficiency_sa>
-0.631681490407418

> <r_i_glide_ligand_efficiency_ln>
-1.52117289132511

> <r_i_glide_gscore>
-7.01400333283976

> <r_i_glide_lipo>
-3.59298851445759

> <r_i_glide_hbond>
-0.0935675187554258

> <r_i_glide_metal>
0

> <r_i_glide_rewards>
-0.916190589553769

> <r_i_glide_evdw>
-50.6030044555664

> <r_i_glide_ecoul>
-4.69955348968506

> <r_i_glide_erotb>
0.823826536158104

> <r_i_glide_esite>
0

> <r_i_glide_emodel>
-75.9226027659849

> <r_i_glide_energy>
-55.3025579452515

> <r_i_glide_einternal>
6.60832738876343

> <i_i_glide_confnum>
69

> <i_i_glide_posenum>
366

> <r_i_glide_eff_state_penalty>
0

> <s_user_duplicate_titles>
42627

> <s_m_subgroup_title>
dock_pv

> <s_m_subgroupid>
dock_pv1

> <b_m_subgroup_collapsed>
0

$$$$
116549
                    3D
 Schrodinger Suite 2021-1.
 90 91  0  0  1  0            999 V2000
   -3.1197  -10.1259   -7.8054 C   0  0  0  0  0  0
   -4.2826  -11.1337   -7.7918 C   0  0  0  0  0  0
   -4.9921  -11.1043   -6.4221 C   0  0  0  0  0  0
   -3.7719  -12.5473   -8.1805 C   0  0  0  0  0  0
   -4.8103  -13.6873   -8.0526 C   0  0  0  0  0  0
   -4.2484  -15.1294   -8.1475 C   0  0  1  0  0  0
   -3.8588  -15.6295   -9.5794 C   0  0  1  0  0  0
   -3.1437  -17.0213   -9.5536 C   0  0  0  0  0  0
   -2.6928  -17.6278  -10.9164 C   0  0  0  0  0  0
   -1.3436  -18.3818  -10.7699 C   0  0  0  0  0  0
   -0.8526  -18.9783  -12.1061 C   0  0  0  0  0  0
   -1.9142  -19.9072  -12.7258 C   0  0  0  0  0  0
   -3.2844  -19.2103  -12.8519 C   0  0  0  0  0  0
   -3.7338  -18.6179  -11.5017 C   0  0  0  0  0  0
   -4.9927  -15.5745  -10.5191 N   0  0  0  0  0  0
   -6.1514  -16.2407  -10.3739 C   0  0  0  0  0  0
   -6.3563  -17.0341   -9.4539 O   0  0  0  0  0  0
   -7.2299  -16.0218  -11.4592 C   0  0  2  0  0  0
   -7.4728  -14.5286  -11.7752 C   0  0  0  0  0  0
   -8.4905  -16.7042  -11.1379 N   0  0  0  0  0  0
   -9.2998  -16.4640  -10.0874 C   0  0  0  0  0  0
   -9.1634  -15.4932   -9.3406 O   0  0  0  0  0  0
  -10.3982  -17.5142   -9.7631 C   0  0  1  0  0  0
  -11.8468  -16.9746   -9.6018 C   0  0  0  0  0  0
  -12.0686  -15.7839   -8.6781 C   0  0  0  0  0  0
  -12.4076  -14.5270   -9.2191 C   0  0  0  0  0  0
  -12.5801  -13.4243   -8.3966 C   0  0  0  0  0  0
  -12.3964  -13.5517   -7.0284 C   0  0  0  0  0  0
  -12.0399  -14.7782   -6.4777 C   0  0  0  0  0  0
  -11.8714  -15.8944   -7.2869 C   0  0  0  0  0  0
  -10.4150  -18.7250  -10.6140 N   0  0  0  0  0  0
   -9.5345  -19.7790  -10.3792 C   0  0  0  0  0  0
   -8.6311  -19.7916   -9.5467 O   0  0  0  0  0  0
   -9.8358  -20.7979  -11.2212 O   0  0  0  0  0  0
   -9.0364  -21.9840  -11.3922 C   0  0  0  0  0  0
   -9.8362  -22.8538  -12.3827 C   0  0  0  0  0  0
   -8.8597  -22.7837  -10.0768 C   0  0  0  0  0  0
   -7.6699  -21.6193  -12.0143 C   0  0  0  0  0  0
   -3.1749  -15.2630   -7.2352 O   0  0  0  0  0  0
   -5.0227  -15.7877   -7.7501 H   0  0  0  0  0  0
   -2.3545  -10.3855   -7.0723 H   0  0  0  0  0  0
   -2.6406  -10.0912   -8.7850 H   0  0  0  0  0  0
   -3.4713   -9.1218   -7.5746 H   0  0  0  0  0  0
   -5.0042  -10.8118   -8.5434 H   0  0  0  0  0  0
   -4.4241  -11.6633   -5.6804 H   0  0  0  0  0  0
   -5.1147  -10.0895   -6.0397 H   0  0  0  0  0  0
   -5.9824  -11.5525   -6.4802 H   0  0  0  0  0  0
   -2.9099  -12.7741   -7.5501 H   0  0  0  0  0  0
   -3.3885  -12.5261   -9.2029 H   0  0  0  0  0  0
   -5.6110  -13.5424   -8.7774 H   0  0  0  0  0  0
   -5.2956  -13.6136   -7.0787 H   0  0  0  0  0  0
   -3.1318  -14.9180   -9.9678 H   0  0  0  0  0  0
   -2.2613  -16.9175   -8.9242 H   0  0  0  0  0  0
   -3.7714  -17.7422   -9.0267 H   0  0  0  0  0  0
   -2.5411  -16.8227  -11.6398 H   0  0  0  0  0  0
   -0.5844  -17.7144  -10.3593 H   0  0  0  0  0  0
   -1.4463  -19.1731  -10.0256 H   0  0  0  0  0  0
   -0.6142  -18.1793  -12.8088 H   0  0  0  0  0  0
    0.0730  -19.5326  -11.9451 H   0  0  0  0  0  0
   -1.5817  -20.2682  -13.6993 H   0  0  0  0  0  0
   -2.0232  -20.7959  -12.0999 H   0  0  0  0  0  0
   -3.2275  -18.4182  -13.6001 H   0  0  0  0  0  0
   -4.0319  -19.9190  -13.2103 H   0  0  0  0  0  0
   -3.9164  -19.4230  -10.7871 H   0  0  0  0  0  0
   -4.7029  -18.1393  -11.6221 H   0  0  0  0  0  0
   -4.8805  -14.9788  -11.3282 H   0  0  0  0  0  0
   -6.8596  -16.5009  -12.3679 H   0  0  0  0  0  0
   -6.5854  -14.0618  -12.2024 H   0  0  0  0  0  0
   -8.2710  -14.4165  -12.5099 H   0  0  0  0  0  0
   -7.7529  -13.9595  -10.8879 H   0  0  0  0  0  0
   -8.6812  -17.5142  -11.7096 H   0  0  0  0  0  0
  -10.1247  -17.8338   -8.7542 H   0  0  0  0  0  0
  -12.4888  -17.7699   -9.2216 H   0  0  0  0  0  0
  -12.2532  -16.7327  -10.5861 H   0  0  0  0  0  0
  -12.5437  -14.4232  -10.2813 H   0  0  0  0  0  0
  -12.8482  -12.4677   -8.8204 H   0  0  0  0  0  0
  -12.5201  -12.6868   -6.3923 H   0  0  0  0  0  0
  -11.8706  -14.8617   -5.4145 H   0  0  0  0  0  0
  -11.5800  -16.8366   -6.8472 H   0  0  0  0  0  0
  -11.0337  -18.7691  -11.4085 H   0  0  0  0  0  0
   -9.9685  -22.3487  -13.3368 H   0  0  0  0  0  0
   -9.3295  -23.7981  -12.5864 H   0  0  0  0  0  0
  -10.8297  -23.0867  -12.0002 H   0  0  0  0  0  0
   -8.2766  -22.2408   -9.3319 H   0  0  0  0  0  0
   -9.8254  -23.0168   -9.6263 H   0  0  0  0  0  0
   -8.3443  -23.7287  -10.2527 H   0  0  0  0  0  0
   -7.0699  -21.0004  -11.3468 H   0  0  0  0  0  0
   -7.0858  -22.5084  -12.2497 H   0  0  0  0  0  0
   -7.7987  -21.0565  -12.9397 H   0  0  0  0  0  0
   -3.1998  -16.1661   -6.8908 H   0  0  0  0  0  0
  1  2  1  0  0  0
  1 41  1  0  0  0
  1 42  1  0  0  0
  1 43  1  0  0  0
  2  3  1  0  0  0
  2  4  1  0  0  0
  2 44  1  0  0  0
  3 45  1  0  0  0
  3 46  1  0  0  0
  3 47  1  0  0  0
  4  5  1  0  0  0
  4 48  1  0  0  0
  4 49  1  0  0  0
  5  6  1  0  0  0
  5 50  1  0  0  0
  5 51  1  0  0  0
  6 40  1  0  0  0
  6  7  1  0  0  0
  6 39  1  0  0  0
  7  8  1  0  0  0
  7 15  1  0  0  0
  7 52  1  0  0  0
  8  9  1  0  0  0
  8 53  1  0  0  0
  8 54  1  0  0  0
  9 14  1  0  0  0
  9 10  1  0  0  0
  9 55  1  0  0  0
 10 11  1  0  0  0
 10 56  1  0  0  0
 10 57  1  0  0  0
 11 12  1  0  0  0
 11 58  1  0  0  0
 11 59  1  0  0  0
 12 13  1  0  0  0
 12 60  1  0  0  0
 12 61  1  0  0  0
 13 14  1  0  0  0
 13 62  1  0  0  0
 13 63  1  0  0  0
 14 64  1  0  0  0
 14 65  1  0  0  0
 15 16  1  0  0  0
 15 66  1  0  0  0
 16 17  2  0  0  0
 16 18  1  0  0  0
 18 19  1  0  0  0
 18 20  1  0  0  0
 18 67  1  0  0  0
 19 68  1  0  0  0
 19 69  1  0  0  0
 19 70  1  0  0  0
 20 21  1  0  0  0
 20 71  1  0  0  0
 21 22  2  0  0  0
 21 23  1  0  0  0
 23 24  1  0  0  0
 23 31  1  0  0  0
 23 72  1  0  0  0
 24 25  1  0  0  0
 24 73  1  0  0  0
 24 74  1  0  0  0
 25 30  1  0  0  0
 25 26  2  0  0  0
 26 27  1  0  0  0
 26 75  1  0  0  0
 27 28  2  0  0  0
 27 76  1  0  0  0
 28 29  1  0  0  0
 28 77  1  0  0  0
 29 30  2  0  0  0
 29 78  1  0  0  0
 30 79  1  0  0  0
 31 32  1  0  0  0
 31 80  1  0  0  0
 32 33  2  0  0  0
 32 34  1  0  0  0
 34 35  1  0  0  0
 35 36  1  0  0  0
 35 37  1  0  0  0
 35 38  1  0  0  0
 36 81  1  0  0  0
 36 82  1  0  0  0
 36 83  1  0  0  0
 37 84  1  0  0  0
 37 85  1  0  0  0
 37 86  1  0  0  0
 38 87  1  0  0  0
 38 88  1  0  0  0
 38 89  1  0  0  0
 39 90  1  0  0  0
M  END
> <s_m_entry_id>
27555

> <s_m_entry_name>
ligand_docking-pose.109

> <s_m_Source_Path>
/home/csk/Desktop/cluster/DUD-E-result/reni

> <s_m_Source_File>
ligand_docking-pose.sdf

> <i_m_Source_File_Index>
109

> <i_lp_mmshare_version>
53161

> <i_f3d_flags>
0

> <r_lp_tautomer_probability>
1

> <s_lp_Force_Field>
OPLS_2005

> <r_lp_Energy>
18.684806

> <b_lp_Chiralities_Consistent>
1

> <s_lp_Variant>
116549-6

> <s_i_glide_gridfile>
glide-grid_3g6z

> <i_i_glide_lignum>
192

> <i_i_glide_rotatable_bonds>
19

> <r_i_docking_score>
-7.0097578748724

> <r_i_glide_ligand_efficiency>
-0.179737381406985

> <r_i_glide_ligand_efficiency_sa>
-0.609527463820421

> <r_i_glide_ligand_efficiency_ln>
-1.50309107218297

> <r_i_glide_gscore>
-7.0097578748724

> <r_i_glide_lipo>
-4.00996242588447

> <r_i_glide_hbond>
-0.32

> <r_i_glide_metal>
0

> <r_i_glide_rewards>
-0.774426847984875

> <r_i_glide_evdw>
-43.6535110473633

> <r_i_glide_ecoul>
-4.4633150100708

> <r_i_glide_erotb>
0.973263573627181

> <r_i_glide_esite>
-0.0264593707514576

> <r_i_glide_emodel>
-62.7275972930791

> <r_i_glide_energy>
-48.1168260574341

> <r_i_glide_einternal>
11.314227104187

> <i_i_glide_confnum>
91

> <i_i_glide_posenum>
357

> <r_i_glide_eff_state_penalty>
0

> <s_user_duplicate_titles>
116549

> <s_m_subgroup_title>
dock_pv

> <s_m_subgroupid>
dock_pv1

> <b_m_subgroup_collapsed>
0

$$$$
42894
                    3D
 Schrodinger Suite 2021-1.
 71 75  0  0  1  0            999 V2000
   -9.9669  -10.1576   -6.7744 C   0  0  0  0  0  0
   -9.9086  -11.2614   -7.6210 C   0  0  0  0  0  0
  -11.0723  -11.9607   -7.9316 C   0  0  0  0  0  0
  -12.2912  -11.5626   -7.3732 C   0  0  0  0  0  0
  -12.3362  -10.4626   -6.5167 C   0  0  0  0  0  0
  -11.1753   -9.7527   -6.2220 C   0  0  0  0  0  0
  -13.5873  -12.3002   -7.6971 C   0  0  0  0  0  0
  -13.3723  -13.6828   -7.9520 O   0  0  0  0  0  0
  -13.0484  -14.4688   -6.8082 C   0  0  0  0  0  0
  -12.7990  -15.9059   -7.2730 C   0  0  0  0  0  0
  -11.6156  -15.9332   -8.0613 O   0  0  0  0  0  0
  -11.6858  -16.7714   -9.2082 C   0  0  0  0  0  0
  -10.2958  -17.2187   -9.6353 C   0  0  0  0  0  0
  -10.0547  -17.4973  -10.9808 C   0  0  0  0  0  0
   -8.7974  -17.9277  -11.3848 C   0  0  0  0  0  0
   -7.7645  -18.0913  -10.4565 C   0  0  0  0  0  0
   -8.0129  -17.8196   -9.1085 C   0  0  0  0  0  0
   -9.2719  -17.3862   -8.6967 C   0  0  0  0  0  0
   -6.3708  -18.5637  -10.8998 C   0  0  1  0  0  0
   -6.4173  -19.7969  -11.8309 C   0  0  0  0  0  0
   -5.0044  -20.2400  -12.2600 C   0  0  0  0  0  0
   -4.2687  -19.1657  -12.9273 N   0  0  1  0  0  0
   -4.2173  -17.9190  -12.1578 C   0  0  0  0  0  0
   -5.5945  -17.4421  -11.6277 C   0  0  2  0  0  0
   -5.4094  -16.3863  -10.6859 O   0  0  0  0  0  0
   -5.2628  -15.0795  -11.2272 C   0  0  0  0  0  0
   -5.1208  -14.0914  -10.0796 C   0  0  0  0  0  0
   -6.0805  -14.0630   -9.0643 C   0  0  0  0  0  0
   -5.9656  -13.1788   -7.9939 C   0  0  0  0  0  0
   -4.8725  -12.2809   -7.9237 C   0  0  0  0  0  0
   -4.7297  -11.3579   -6.8565 C   0  0  0  0  0  0
   -3.6451  -10.4867   -6.8214 C   0  0  0  0  0  0
   -2.6773  -10.5228   -7.8177 C   0  0  0  0  0  0
   -2.7888  -11.4112   -8.8852 C   0  0  0  0  0  0
   -3.8865  -12.3031   -8.9597 C   0  0  0  0  0  0
   -4.0310  -13.2190  -10.0329 C   0  0  0  0  0  0
   -5.8255  -18.8446   -9.9977 H   0  0  0  0  0  0
   -6.1924  -17.0609  -12.4599 H   0  0  0  0  0  0
   -9.0676   -9.6141   -6.5342 H   0  0  0  0  0  0
   -8.9577  -11.5795   -8.0212 H   0  0  0  0  0  0
  -11.0249  -12.8144   -8.5922 H   0  0  0  0  0  0
  -13.2758  -10.1439   -6.0909 H   0  0  0  0  0  0
  -11.2129   -8.8964   -5.5643 H   0  0  0  0  0  0
  -14.3278  -12.1717   -6.9044 H   0  0  0  0  0  0
  -14.0123  -11.8524   -8.5947 H   0  0  0  0  0  0
  -12.1603  -14.0877   -6.3004 H   0  0  0  0  0  0
  -13.8689  -14.4500   -6.0906 H   0  0  0  0  0  0
  -12.6667  -16.5720   -6.4216 H   0  0  0  0  0  0
  -13.6804  -16.2501   -7.8213 H   0  0  0  0  0  0
  -12.2858  -17.6627   -9.0230 H   0  0  0  0  0  0
  -12.1756  -16.2161  -10.0103 H   0  0  0  0  0  0
  -10.8356  -17.3773  -11.7192 H   0  0  0  0  0  0
   -8.6239  -18.1256  -12.4271 H   0  0  0  0  0  0
   -7.2253  -17.9289   -8.3812 H   0  0  0  0  0  0
   -9.4478  -17.1821   -7.6481 H   0  0  0  0  0  0
   -6.8719  -20.6341  -11.3000 H   0  0  0  0  0  0
   -7.0141  -19.6294  -12.7282 H   0  0  0  0  0  0
   -5.0715  -21.0920  -12.9386 H   0  0  0  0  0  0
   -4.4303  -20.5655  -11.3906 H   0  0  0  0  0  0
   -3.3224  -19.4626  -13.1312 H   0  0  0  0  0  0
   -3.7949  -17.1503  -12.8067 H   0  0  0  0  0  0
   -3.5249  -18.0452  -11.3243 H   0  0  0  0  0  0
   -4.3932  -15.0337  -11.8843 H   0  0  0  0  0  0
   -6.1425  -14.8090  -11.8151 H   0  0  0  0  0  0
   -6.9182  -14.7471   -9.1010 H   0  0  0  0  0  0
   -6.7135  -13.1750   -7.2121 H   0  0  0  0  0  0
   -5.4695  -11.3279   -6.0700 H   0  0  0  0  0  0
   -3.5514   -9.7712   -6.0197 H   0  0  0  0  0  0
   -1.8371   -9.8477   -7.7672 H   0  0  0  0  0  0
   -2.0344  -11.4275   -9.6614 H   0  0  0  0  0  0
   -3.2843  -13.2354  -10.8141 H   0  0  0  0  0  0
  1  6  1  0  0  0
  1  2  2  0  0  0
  1 39  1  0  0  0
  2  3  1  0  0  0
  2 40  1  0  0  0
  3  4  2  0  0  0
  3 41  1  0  0  0
  4  5  1  0  0  0
  4  7  1  0  0  0
  5  6  2  0  0  0
  5 42  1  0  0  0
  6 43  1  0  0  0
  7  8  1  0  0  0
  7 44  1  0  0  0
  7 45  1  0  0  0
  8  9  1  0  0  0
  9 10  1  0  0  0
  9 46  1  0  0  0
  9 47  1  0  0  0
 10 11  1  0  0  0
 10 48  1  0  0  0
 10 49  1  0  0  0
 11 12  1  0  0  0
 12 13  1  0  0  0
 12 50  1  0  0  0
 12 51  1  0  0  0
 13 18  1  0  0  0
 13 14  2  0  0  0
 14 15  1  0  0  0
 14 52  1  0  0  0
 15 16  2  0  0  0
 15 53  1  0  0  0
 16 17  1  0  0  0
 16 19  1  0  0  0
 17 18  2  0  0  0
 17 54  1  0  0  0
 18 55  1  0  0  0
 19 37  1  0  0  0
 19 24  1  0  0  0
 19 20  1  0  0  0
 20 21  1  0  0  0
 20 56  1  0  0  0
 20 57  1  0  0  0
 21 22  1  0  0  0
 21 58  1  0  0  0
 21 59  1  0  0  0
 22 23  1  0  0  0
 22 60  1  0  0  0
 23 24  1  0  0  0
 23 61  1  0  0  0
 23 62  1  0  0  0
 24 38  1  0  0  0
 24 25  1  0  0  0
 25 26  1  0  0  0
 26 27  1  0  0  0
 26 63  1  0  0  0
 26 64  1  0  0  0
 27 36  1  0  0  0
 27 28  2  0  0  0
 28 29  1  0  0  0
 28 65  1  0  0  0
 29 30  2  0  0  0
 29 66  1  0  0  0
 30 35  1  0  0  0
 30 31  1  0  0  0
 31 32  2  0  0  0
 31 67  1  0  0  0
 32 33  1  0  0  0
 32 68  1  0  0  0
 33 34  2  0  0  0
 33 69  1  0  0  0
 34 35  1  0  0  0
 34 70  1  0  0  0
 35 36  2  0  0  0
 36 71  1  0  0  0
M  END
> <s_m_entry_id>
27556

> <s_m_entry_name>
ligand_docking-pose.110

> <s_m_Source_Path>
/home/csk/Desktop/cluster/DUD-E-result/reni

> <s_m_Source_File>
ligand_docking-pose.sdf

> <i_m_Source_File_Index>
110

> <i_lp_mmshare_version>
53161

> <i_f3d_flags>
0

> <r_lp_tautomer_probability>
1

> <s_lp_Force_Field>
OPLS_2005

> <r_lp_Energy>
34.429849

> <b_lp_Chiralities_Consistent>
1

> <s_lp_Variant>
42894-1

> <s_i_glide_gridfile>
glide-grid_3g6z

> <i_i_glide_lignum>
24

> <i_i_glide_rotatable_bonds>
11

> <r_i_docking_score>
-7.00375297372002

> <r_i_glide_ligand_efficiency>
-0.194548693714445

> <r_i_glide_ligand_efficiency_sa>
-0.642385632245247

> <r_i_glide_ligand_efficiency_ln>
-1.52802967932737

> <r_i_glide_gscore>
-7.00375297372002

> <r_i_glide_lipo>
-4.96603210439678

> <r_i_glide_hbond>
-0.158909905850415

> <r_i_glide_metal>
0

> <r_i_glide_rewards>
0.274717272727274

> <r_i_glide_evdw>
-49.5740280151367

> <r_i_glide_ecoul>
-3.66290187835693

> <r_i_glide_erotb>
0.874608446310276

> <r_i_glide_esite>
0

> <r_i_glide_emodel>
-72.703931877324

> <r_i_glide_energy>
-53.2369298934937

> <r_i_glide_einternal>
4.81299781799316

> <i_i_glide_confnum>
22

> <i_i_glide_posenum>
386

> <r_i_glide_eff_state_penalty>
0

> <s_user_duplicate_titles>
42894

> <s_m_subgroup_title>
dock_pv

> <s_m_subgroupid>
dock_pv1

> <b_m_subgroup_collapsed>
0

$$$$
620700
                    3D
 Schrodinger Suite 2021-1.
 70 73  0  0  1  0            999 V2000
   -5.8462  -19.1611  -13.4420 C   0  0  0  0  0  0
   -5.3024  -18.1788  -12.5121 N   0  0  1  0  0  0
   -5.9810  -16.8899  -12.6371 C   0  0  0  0  0  0
   -7.1415  -16.6340  -11.6176 C   0  0  1  0  0  0
   -7.8409  -17.8819  -10.9890 C   0  0  0  0  0  0
   -9.0925  -17.5556  -10.1807 C   0  0  0  0  0  0
  -10.2658  -17.2456  -10.8648 C   0  0  0  0  0  0
  -11.4060  -16.8910  -10.1605 C   0  0  0  0  0  0
  -11.3938  -16.8632   -8.7657 C   0  0  0  0  0  0
  -10.2157  -17.1698   -8.0786 C   0  0  0  0  0  0
   -9.0637  -17.5138   -8.7828 C   0  0  0  0  0  0
  -12.6875  -16.5914   -8.0012 C   0  0  0  0  0  0
  -13.1910  -15.1502   -8.1247 C   0  0  0  0  0  0
  -12.2990  -14.1345   -7.4124 C   0  0  0  0  0  0
  -12.5766  -12.8733   -7.9964 O   0  0  0  0  0  0
  -11.7357  -11.8644   -7.6082 C   0  0  0  0  0  0
  -10.3934  -11.8454   -8.0046 C   0  0  0  0  0  0
   -9.5774  -10.7817   -7.6165 C   0  0  0  0  0  0
  -10.0888   -9.7523   -6.8288 C   0  0  0  0  0  0
  -11.4173   -9.7734   -6.4223 C   0  0  0  0  0  0
  -12.2445  -10.8288   -6.8208 C   0  0  0  0  0  0
  -13.9002  -10.8646   -6.3374 Cl  0  0  0  0  0  0
  -11.8899   -8.7618   -5.6565 F   0  0  0  0  0  0
   -9.8713  -12.8624   -8.7344 F   0  0  0  0  0  0
   -6.9173  -15.4660  -10.6080 C   0  0  0  0  0  0
   -7.8712  -14.6998  -10.4400 O   0  0  0  0  0  0
   -5.7350  -15.2481   -9.9653 N   0  0  0  0  0  0
   -5.4792  -13.9525   -9.2990 C   0  0  0  0  0  0
   -4.3219  -13.1496   -9.8873 C   0  0  0  0  0  0
   -3.2853  -12.7660   -9.0296 C   0  0  0  0  0  0
   -2.1997  -12.0376   -9.5099 C   0  0  0  0  0  0
   -2.1405  -11.6902  -10.8556 C   0  0  0  0  0  0
   -3.1706  -12.0636  -11.7241 C   0  0  0  0  0  0
   -4.2820  -12.7582  -11.2392 C   0  0  0  0  0  0
   -5.6032  -13.0645  -12.3223 Cl  0  0  0  0  0  0
   -3.0691  -11.6630  -13.4034 Cl  0  0  0  0  0  0
   -4.5956  -16.1783   -9.9509 C   0  0  0  0  0  0
   -3.8999  -16.4968   -8.6376 C   0  0  0  0  0  0
   -4.7504  -17.5389   -9.3047 C   0  0  0  0  0  0
   -5.3720  -20.1280  -13.2801 H   0  0  0  0  0  0
   -6.9203  -19.3023  -13.3307 H   0  0  0  0  0  0
   -5.6560  -18.8616  -14.4732 H   0  0  0  0  0  0
   -5.4002  -18.5161  -11.5660 H   0  0  0  0  0  0
   -6.3560  -16.7693  -13.6560 H   0  0  0  0  0  0
   -5.2299  -16.1027  -12.5639 H   0  0  0  0  0  0
   -7.9045  -16.2272  -12.2866 H   0  0  0  0  0  0
   -8.1727  -18.5511  -11.7827 H   0  0  0  0  0  0
   -7.1590  -18.4746  -10.3853 H   0  0  0  0  0  0
  -10.2897  -17.2632  -11.9453 H   0  0  0  0  0  0
  -12.2910  -16.6452  -10.7170 H   0  0  0  0  0  0
  -10.2002  -17.1608   -6.9979 H   0  0  0  0  0  0
   -8.1549  -17.7368   -8.2467 H   0  0  0  0  0  0
  -13.4534  -17.2616   -8.3940 H   0  0  0  0  0  0
  -12.5789  -16.8622   -6.9505 H   0  0  0  0  0  0
  -13.2659  -14.8938   -9.1827 H   0  0  0  0  0  0
  -14.2027  -15.0766   -7.7187 H   0  0  0  0  0  0
  -12.5092  -14.1234   -6.3410 H   0  0  0  0  0  0
  -11.2505  -14.4103   -7.5309 H   0  0  0  0  0  0
   -8.5421  -10.7630   -7.9176 H   0  0  0  0  0  0
   -9.4679   -8.9244   -6.5251 H   0  0  0  0  0  0
   -5.3010  -14.1395   -8.2402 H   0  0  0  0  0  0
   -6.3552  -13.3023   -9.3179 H   0  0  0  0  0  0
   -3.3116  -13.0407   -7.9852 H   0  0  0  0  0  0
   -1.4004  -11.7516   -8.8425 H   0  0  0  0  0  0
   -1.2844  -11.1506  -11.2317 H   0  0  0  0  0  0
   -3.9554  -16.0910  -10.8319 H   0  0  0  0  0  0
   -2.8138  -16.6071   -8.6453 H   0  0  0  0  0  0
   -4.2594  -16.0529   -7.7082 H   0  0  0  0  0  0
   -5.7084  -17.7875   -8.8508 H   0  0  0  0  0  0
   -4.2641  -18.3989   -9.7630 H   0  0  0  0  0  0
  1  2  1  0  0  0
  1 40  1  0  0  0
  1 41  1  0  0  0
  1 42  1  0  0  0
  2  3  1  0  0  0
  2 43  1  0  0  0
  3  4  1  0  0  0
  3 44  1  0  0  0
  3 45  1  0  0  0
  4  5  1  0  0  0
  4 25  1  0  0  0
  4 46  1  0  0  0
  5  6  1  0  0  0
  5 47  1  0  0  0
  5 48  1  0  0  0
  6 11  1  0  0  0
  6  7  2  0  0  0
  7  8  1  0  0  0
  7 49  1  0  0  0
  8  9  2  0  0  0
  8 50  1  0  0  0
  9 10  1  0  0  0
  9 12  1  0  0  0
 10 11  2  0  0  0
 10 51  1  0  0  0
 11 52  1  0  0  0
 12 13  1  0  0  0
 12 53  1  0  0  0
 12 54  1  0  0  0
 13 14  1  0  0  0
 13 55  1  0  0  0
 13 56  1  0  0  0
 14 15  1  0  0  0
 14 57  1  0  0  0
 14 58  1  0  0  0
 15 16  1  0  0  0
 16 21  1  0  0  0
 16 17  2  0  0  0
 17 18  1  0  0  0
 17 24  1  0  0  0
 18 19  2  0  0  0
 18 59  1  0  0  0
 19 20  1  0  0  0
 19 60  1  0  0  0
 20 21  2  0  0  0
 20 23  1  0  0  0
 21 22  1  0  0  0
 25 26  2  0  0  0
 25 27  1  0  0  0
 27 28  1  0  0  0
 27 37  1  0  0  0
 28 29  1  0  0  0
 28 61  1  0  0  0
 28 62  1  0  0  0
 29 34  1  0  0  0
 29 30  2  0  0  0
 30 31  1  0  0  0
 30 63  1  0  0  0
 31 32  2  0  0  0
 31 64  1  0  0  0
 32 33  1  0  0  0
 32 65  1  0  0  0
 33 34  2  0  0  0
 33 36  1  0  0  0
 34 35  1  0  0  0
 37 39  1  0  0  0
 37 38  1  0  0  0
 37 66  1  0  0  0
 38 39  1  0  0  0
 38 67  1  0  0  0
 38 68  1  0  0  0
 39 69  1  0  0  0
 39 70  1  0  0  0
M  END
> <s_m_entry_id>
27558

> <s_m_entry_name>
ligand_docking-pose.112

> <s_m_Source_Path>
/home/csk/Desktop/cluster/DUD-E-result/reni

> <s_m_Source_File>
ligand_docking-pose.sdf

> <i_m_Source_File_Index>
112

> <i_lp_mmshare_version>
53161

> <i_f3d_flags>
0

> <r_lp_tautomer_probability>
1

> <s_lp_Force_Field>
OPLS_2005

> <r_lp_Energy>
52.820823

> <b_lp_Chiralities_Consistent>
1

> <s_lp_Variant>
620700-2

> <s_i_glide_gridfile>
glide-grid_3g6z

> <i_i_glide_lignum>
801

> <i_i_glide_rotatable_bonds>
14

> <r_i_docking_score>
-6.99630304259905

> <r_i_glide_ligand_efficiency>
-0.179392385707668

> <r_i_glide_ligand_efficiency_sa>
-0.608357510458536

> <r_i_glide_ligand_efficiency_ln>
-1.50020597420544

> <r_i_glide_gscore>
-6.99630304259905

> <r_i_glide_lipo>
-4.62453601250891

> <r_i_glide_hbond>
0

> <r_i_glide_metal>
0

> <r_i_glide_rewards>
-0.302987034157305

> <r_i_glide_evdw>
-51.1784057617188

> <r_i_glide_ecoul>
-0.70271760225296

> <r_i_glide_erotb>
0.595547932491045

> <r_i_glide_esite>
0

> <r_i_glide_emodel>
-60.1929836655314

> <r_i_glide_energy>
-51.8811233639717

> <r_i_glide_einternal>
16.3166313171387

> <i_i_glide_confnum>
53

> <i_i_glide_posenum>
222

> <r_i_glide_eff_state_penalty>
0

> <s_user_duplicate_titles>
620700

> <s_m_subgroup_title>
dock_pv

> <s_m_subgroupid>
dock_pv1

> <b_m_subgroup_collapsed>
0

$$$$
405834
                    3D
 Schrodinger Suite 2021-1.
 62 65  0  0  1  0            999 V2000
  -12.2600  -16.7013   -9.6204 C   0  0  0  0  0  0
  -11.8687  -17.3359  -10.9701 C   0  0  0  0  0  0
  -11.4705  -18.8018  -10.8663 C   0  0  0  0  0  0
  -10.2015  -19.2086  -10.4211 C   0  0  0  0  0  0
   -9.9641  -20.5956  -10.4502 C   0  0  0  0  0  0
  -10.8957  -21.4943  -10.8561 N   0  0  0  0  0  0
  -12.0978  -20.9935  -11.2196 C   0  0  0  0  0  0
  -12.4382  -19.6857  -11.2308 N   0  0  0  0  0  0
  -13.0674  -21.9009  -11.6212 N   0  0  0  0  0  0
   -8.7428  -21.1328  -10.0584 N   0  0  0  0  0  0
   -9.2263  -18.2307   -9.8688 C   0  0  0  0  0  0
   -8.9664  -18.2112   -8.4957 C   0  0  0  0  0  0
   -8.0814  -17.2845   -7.9589 C   0  0  0  0  0  0
   -7.4364  -16.3924   -8.7963 C   0  0  0  0  0  0
   -7.6857  -16.3570  -10.1691 C   0  0  0  0  0  0
   -8.5973  -17.2918  -10.6929 C   0  0  0  0  0  0
   -6.9569  -15.4223  -10.9437 N   0  0  0  0  0  0
   -6.2905  -14.3435  -10.4227 C   0  0  0  0  0  0
   -5.6605  -13.5291  -11.1052 O   0  0  0  0  0  0
   -6.4076  -14.2426   -8.8444 C   0  0  2  0  0  0
   -6.5230  -15.5403   -8.2247 O   0  0  0  0  0  0
   -7.7024  -13.4632   -8.4623 C   0  0  0  0  0  0
   -5.1206  -13.5698   -8.3032 C   0  0  0  0  0  0
   -3.9503  -14.3337   -8.1699 C   0  0  0  0  0  0
   -2.7673  -13.7604   -7.7063 C   0  0  0  0  0  0
   -2.7294  -12.4079   -7.3777 C   0  0  0  0  0  0
   -3.8787  -11.6325   -7.4981 C   0  0  0  0  0  0
   -5.0643  -12.2081   -7.9517 C   0  0  0  0  0  0
   -3.8460  -10.3207   -7.1736 F   0  0  0  0  0  0
   -1.6557  -14.5178   -7.5764 F   0  0  0  0  0  0
   -6.9243  -15.6082  -12.4180 C   0  0  0  0  0  0
   -5.8663  -16.6162  -12.9320 C   0  0  0  0  0  0
   -5.8290  -18.0065  -12.2570 C   0  0  0  0  0  0
   -5.0387  -19.0628  -13.0405 C   0  0  0  0  0  0
   -5.8689  -19.6540  -14.0210 O   0  0  0  0  0  0
  -12.6292  -15.6847   -9.7606 H   0  0  0  0  0  0
  -13.0381  -17.2683   -9.1091 H   0  0  0  0  0  0
  -11.4056  -16.6454   -8.9460 H   0  0  0  0  0  0
  -11.0598  -16.7643  -11.4181 H   0  0  0  0  0  0
  -12.6679  -17.2628  -11.7033 H   0  0  0  0  0  0
  -13.9617  -21.5627  -11.9447 H   0  0  0  0  0  0
  -12.8082  -22.8713  -11.7022 H   0  0  0  0  0  0
   -7.9854  -20.5030   -9.8405 H   0  0  0  0  0  0
   -8.5908  -22.1200  -10.1949 H   0  0  0  0  0  0
   -9.4619  -18.9097   -7.8378 H   0  0  0  0  0  0
   -7.8737  -17.2647   -6.8997 H   0  0  0  0  0  0
   -8.8275  -17.3292  -11.7471 H   0  0  0  0  0  0
   -7.7286  -12.4445   -8.8266 H   0  0  0  0  0  0
   -8.6065  -13.9498   -8.8303 H   0  0  0  0  0  0
   -7.7941  -13.4003   -7.3785 H   0  0  0  0  0  0
   -3.9557  -15.3832   -8.4256 H   0  0  0  0  0  0
   -1.8124  -11.9625   -7.0238 H   0  0  0  0  0  0
   -5.9268  -11.5656   -8.0214 H   0  0  0  0  0  0
   -6.7404  -14.6565  -12.9198 H   0  0  0  0  0  0
   -7.9108  -15.8920  -12.7789 H   0  0  0  0  0  0
   -4.8825  -16.1607  -12.8211 H   0  0  0  0  0  0
   -6.0135  -16.7370  -14.0061 H   0  0  0  0  0  0
   -6.8327  -18.3991  -12.1097 H   0  0  0  0  0  0
   -5.3953  -17.8975  -11.2614 H   0  0  0  0  0  0
   -4.6594  -19.8348  -12.3690 H   0  0  0  0  0  0
   -4.1616  -18.6170  -13.5126 H   0  0  0  0  0  0
   -6.3019  -18.9565  -14.5363 H   0  0  0  0  0  0
  1  2  1  0  0  0
  1 36  1  0  0  0
  1 37  1  0  0  0
  1 38  1  0  0  0
  2  3  1  0  0  0
  2 39  1  0  0  0
  2 40  1  0  0  0
  3  8  1  0  0  0
  3  4  2  0  0  0
  4  5  1  0  0  0
  4 11  1  0  0  0
  5  6  2  0  0  0
  5 10  1  0  0  0
  6  7  1  0  0  0
  7  8  2  0  0  0
  7  9  1  0  0  0
  9 41  1  0  0  0
  9 42  1  0  0  0
 10 43  1  0  0  0
 10 44  1  0  0  0
 11 16  1  0  0  0
 11 12  2  0  0  0
 12 13  1  0  0  0
 12 45  1  0  0  0
 13 14  2  0  0  0
 13 46  1  0  0  0
 14 21  1  0  0  0
 14 15  1  0  0  0
 15 16  2  0  0  0
 15 17  1  0  0  0
 16 47  1  0  0  0
 17 18  1  0  0  0
 17 31  1  0  0  0
 18 19  2  0  0  0
 18 20  1  0  0  0
 20 21  1  0  0  0
 20 22  1  0  0  0
 20 23  1  0  0  0
 22 48  1  0  0  0
 22 49  1  0  0  0
 22 50  1  0  0  0
 23 28  1  0  0  0
 23 24  2  0  0  0
 24 25  1  0  0  0
 24 51  1  0  0  0
 25 26  2  0  0  0
 25 30  1  0  0  0
 26 27  1  0  0  0
 26 52  1  0  0  0
 27 28  2  0  0  0
 27 29  1  0  0  0
 28 53  1  0  0  0
 31 32  1  0  0  0
 31 54  1  0  0  0
 31 55  1  0  0  0
 32 33  1  0  0  0
 32 56  1  0  0  0
 32 57  1  0  0  0
 33 34  1  0  0  0
 33 58  1  0  0  0
 33 59  1  0  0  0
 34 35  1  0  0  0
 34 60  1  0  0  0
 34 61  1  0  0  0
 35 62  1  0  0  0
M  END
> <s_m_entry_id>
27559

> <s_m_entry_name>
ligand_docking-pose.113

> <s_m_Source_Path>
/home/csk/Desktop/cluster/DUD-E-result/reni

> <s_m_Source_File>
ligand_docking-pose.sdf

> <i_m_Source_File_Index>
113

> <i_lp_mmshare_version>
53161

> <i_f3d_flags>
0

> <r_lp_tautomer_probability>
0.999999624730965

> <s_lp_Force_Field>
OPLS_2005

> <r_lp_Energy>
30.507731

> <b_lp_Chiralities_Consistent>
1

> <s_lp_Variant>
405834-2

> <s_i_glide_gridfile>
glide-grid_3g6z

> <i_i_glide_lignum>
95

> <i_i_glide_rotatable_bonds>
8

> <r_i_docking_score>
-6.99028867746723

> <r_i_glide_ligand_efficiency>
-0.199722533641921

> <r_i_glide_ligand_efficiency_sa>
-0.653305650407351

> <r_i_glide_ligand_efficiency_ln>
-1.53452350580247

> <r_i_glide_gscore>
-6.99028867746723

> <r_i_glide_lipo>
-2.42612628901524

> <r_i_glide_hbond>
-0.587933029417921

> <r_i_glide_metal>
0

> <r_i_glide_rewards>
-1.38705731867111

> <r_i_glide_evdw>
-38.8445930480957

> <r_i_glide_ecoul>
-7.7864842414856

> <r_i_glide_erotb>
0.521030248264672

> <r_i_glide_esite>
0

> <r_i_glide_emodel>
-64.146629704443

> <r_i_glide_energy>
-46.6310772895813

> <r_i_glide_einternal>
3.47639513015747

> <i_i_glide_confnum>
133

> <i_i_glide_posenum>
149

> <r_i_glide_eff_state_penalty>
0

> <s_user_duplicate_titles>
405834

> <s_m_subgroup_title>
dock_pv

> <s_m_subgroupid>
dock_pv1

> <b_m_subgroup_collapsed>
0

$$$$
405763
                    3D
 Schrodinger Suite 2021-1.
 53 55  0  0  1  0            999 V2000
   -6.0613  -12.6223   -6.6391 C   0  0  0  0  0  0
   -5.6042  -13.8957   -7.3657 C   0  0  0  0  0  0
   -5.1622  -13.6462   -8.8063 C   0  0  0  0  0  0
   -5.9066  -14.0632   -9.9322 C   0  0  0  0  0  0
   -5.2893  -13.8262  -11.1797 C   0  0  0  0  0  0
   -4.0838  -13.2228  -11.3058 N   0  0  0  0  0  0
   -3.4749  -12.8480  -10.1629 C   0  0  0  0  0  0
   -3.9546  -13.0281   -8.9132 N   0  0  0  0  0  0
   -2.2371  -12.2377  -10.2846 N   0  0  0  0  0  0
   -5.8700  -14.2090  -12.3840 N   0  0  0  0  0  0
   -7.2404  -14.7244   -9.8065 C   0  0  0  0  0  0
   -7.4236  -16.0342  -10.2584 C   0  0  0  0  0  0
   -8.6544  -16.6695  -10.1220 C   0  0  0  0  0  0
   -9.7179  -16.0006   -9.5223 C   0  0  0  0  0  0
   -9.5825  -14.6639   -9.0757 C   0  0  0  0  0  0
   -8.3242  -14.0548   -9.2207 C   0  0  0  0  0  0
  -10.6664  -14.0352   -8.4275 N   0  0  0  0  0  0
  -11.9694  -14.6828   -8.6720 C   0  0  0  0  0  0
  -11.8546  -16.2164   -8.5292 C   0  0  1  0  0  0
  -10.9150  -16.6923   -9.4930 O   0  0  0  0  0  0
  -11.4688  -16.6573   -7.1051 C   0  0  0  0  0  0
  -10.7774  -12.5756   -8.2614 C   0  0  0  0  0  0
  -11.8188  -12.1030   -7.2205 C   0  0  0  0  0  0
  -11.7640  -10.5924   -6.9596 C   0  0  0  0  0  0
  -10.5423  -10.2423   -6.3270 O   0  0  0  0  0  0
  -10.4193   -8.8438   -6.1162 C   0  0  0  0  0  0
  -12.8058  -16.6773   -8.7995 H   0  0  0  0  0  0
   -6.3597  -12.8632   -5.6204 H   0  0  0  0  0  0
   -5.2615  -11.8830   -6.5830 H   0  0  0  0  0  0
   -6.9150  -12.1570   -7.1317 H   0  0  0  0  0  0
   -6.3915  -14.6477   -7.3220 H   0  0  0  0  0  0
   -4.7675  -14.3379   -6.8230 H   0  0  0  0  0  0
   -1.7070  -12.0799   -9.4431 H   0  0  0  0  0  0
   -1.7867  -12.2721  -11.1885 H   0  0  0  0  0  0
   -6.7282  -14.7391  -12.3702 H   0  0  0  0  0  0
   -5.2660  -14.2027  -13.1970 H   0  0  0  0  0  0
   -6.6023  -16.5681  -10.7146 H   0  0  0  0  0  0
   -8.7860  -17.6779  -10.4863 H   0  0  0  0  0  0
   -8.1664  -13.0461   -8.8763 H   0  0  0  0  0  0
  -12.8382  -14.2874   -8.1505 H   0  0  0  0  0  0
  -12.2301  -14.4733   -9.7108 H   0  0  0  0  0  0
  -12.3140  -16.5757   -6.4218 H   0  0  0  0  0  0
  -11.0690  -17.6640   -7.0945 H   0  0  0  0  0  0
  -10.6715  -16.0630   -6.6867 H   0  0  0  0  0  0
  -10.9858  -12.1071   -9.2208 H   0  0  0  0  0  0
   -9.8186  -12.1586   -7.9574 H   0  0  0  0  0  0
  -11.7230  -12.6625   -6.2889 H   0  0  0  0  0  0
  -12.8234  -12.2802   -7.6007 H   0  0  0  0  0  0
  -12.6056  -10.2988   -6.3300 H   0  0  0  0  0  0
  -11.8642  -10.0635   -7.9077 H   0  0  0  0  0  0
   -9.4722   -8.6278   -5.6278 H   0  0  0  0  0  0
  -11.2162   -8.4646   -5.4741 H   0  0  0  0  0  0
  -10.4382   -8.2924   -7.0578 H   0  0  0  0  0  0
  1  2  1  0  0  0
  1 28  1  0  0  0
  1 29  1  0  0  0
  1 30  1  0  0  0
  2  3  1  0  0  0
  2 31  1  0  0  0
  2 32  1  0  0  0
  3  8  1  0  0  0
  3  4  2  0  0  0
  4  5  1  0  0  0
  4 11  1  0  0  0
  5  6  2  0  0  0
  5 10  1  0  0  0
  6  7  1  0  0  0
  7  8  2  0  0  0
  7  9  1  0  0  0
  9 33  1  0  0  0
  9 34  1  0  0  0
 10 35  1  0  0  0
 10 36  1  0  0  0
 11 16  1  0  0  0
 11 12  2  0  0  0
 12 13  1  0  0  0
 12 37  1  0  0  0
 13 14  2  0  0  0
 13 38  1  0  0  0
 14 20  1  0  0  0
 14 15  1  0  0  0
 15 16  2  0  0  0
 15 17  1  0  0  0
 16 39  1  0  0  0
 17 18  1  0  0  0
 17 22  1  0  0  0
 18 19  1  0  0  0
 18 40  1  0  0  0
 18 41  1  0  0  0
 19 27  1  0  0  0
 19 20  1  0  0  0
 19 21  1  0  0  0
 21 42  1  0  0  0
 21 43  1  0  0  0
 21 44  1  0  0  0
 22 23  1  0  0  0
 22 45  1  0  0  0
 22 46  1  0  0  0
 23 24  1  0  0  0
 23 47  1  0  0  0
 23 48  1  0  0  0
 24 25  1  0  0  0
 24 49  1  0  0  0
 24 50  1  0  0  0
 25 26  1  0  0  0
 26 51  1  0  0  0
 26 52  1  0  0  0
 26 53  1  0  0  0
M  END
> <s_m_entry_id>
27560

> <s_m_entry_name>
ligand_docking-pose.114

> <s_m_Source_Path>
/home/csk/Desktop/cluster/DUD-E-result/reni

> <s_m_Source_File>
ligand_docking-pose.sdf

> <i_m_Source_File_Index>
114

> <i_lp_mmshare_version>
53161

> <i_f3d_flags>
0

> <r_lp_tautomer_probability>
0.999999624730965

> <s_lp_Force_Field>
OPLS_2005

> <r_lp_Energy>
16.62423

> <b_lp_Chiralities_Consistent>
1

> <s_lp_Variant>
405763-1

> <s_i_glide_gridfile>
glide-grid_3g6z

> <i_i_glide_lignum>
67

> <i_i_glide_rotatable_bonds>
6

> <r_i_docking_score>
-6.97785799796209

> <r_i_glide_ligand_efficiency>
-0.268379153767773

> <r_i_glide_ligand_efficiency_sa>
-0.79507218701605

> <r_i_glide_ligand_efficiency_ln>
-1.63872705460181

> <r_i_glide_gscore>
-6.97785799796209

> <r_i_glide_lipo>
-3.07364274301505

> <r_i_glide_hbond>
-0.32

> <r_i_glide_metal>
0

> <r_i_glide_rewards>
-1.99245351205527

> <r_i_glide_evdw>
-32.5954437255859

> <r_i_glide_ecoul>
-3.65733480453491

> <r_i_glide_erotb>
0.599331612413363

> <r_i_glide_esite>
-0.0127209483456072

> <r_i_glide_emodel>
-49.6324683198501

> <r_i_glide_energy>
-36.2527785301208

> <r_i_glide_einternal>
1.81663227081299

> <i_i_glide_confnum>
185

> <i_i_glide_posenum>
334

> <r_i_glide_eff_state_penalty>
0

> <s_user_duplicate_titles>
405763,405760

> <s_m_subgroup_title>
dock_pv

> <s_m_subgroupid>
dock_pv1

> <b_m_subgroup_collapsed>
0

$$$$
116572
                    3D
 Schrodinger Suite 2021-1.
 91 92  0  0  1  0            999 V2000
   -2.3012  -21.5888  -11.5226 C   0  0  0  0  0  0
   -2.3723  -20.7918  -12.8375 C   0  0  0  0  0  0
   -1.0425  -20.9335  -13.6025 C   0  0  0  0  0  0
   -2.7490  -19.2924  -12.6490 C   0  0  0  0  0  0
   -4.1182  -18.9476  -11.9924 C   0  0  1  0  0  0
   -5.3676  -19.6186  -12.6389 C   0  0  1  0  0  0
   -6.7255  -19.3550  -11.9069 C   0  0  2  0  0  0
   -7.8663  -20.3177  -12.3467 C   0  0  0  0  0  0
   -7.9932  -21.7018  -11.6465 C   0  0  0  0  0  0
   -6.7447  -22.6062  -11.7673 C   0  0  0  0  0  0
   -7.0122  -24.0155  -11.2035 C   0  0  0  0  0  0
   -7.4720  -23.9450   -9.7322 C   0  0  0  0  0  0
   -8.6529  -22.9688   -9.5274 C   0  0  0  0  0  0
   -8.3630  -21.5846  -10.1459 C   0  0  0  0  0  0
   -7.1737  -17.9656  -12.0872 N   0  0  0  0  0  0
   -6.9340  -16.9523  -11.2432 C   0  0  0  0  0  0
   -6.2926  -17.0692  -10.1975 O   0  0  0  0  0  0
   -7.5314  -15.5936  -11.6524 C   0  0  2  0  0  0
   -6.6742  -14.8953  -12.7296 C   0  0  0  0  0  0
   -7.7857  -14.7311  -10.4924 N   0  0  0  0  0  0
   -6.9111  -14.0603   -9.7208 C   0  0  0  0  0  0
   -5.7231  -13.9377  -10.0184 O   0  0  0  0  0  0
   -7.4688  -13.4466   -8.3858 C   0  0  1  0  0  0
   -6.5895  -12.3993   -7.6232 C   0  0  0  0  0  0
   -5.0723  -12.5286   -7.6067 C   0  0  0  0  0  0
   -4.2660  -11.4154   -7.9354 C   0  0  0  0  0  0
   -2.8833  -11.5324   -7.9202 C   0  0  0  0  0  0
   -2.2850  -12.7374   -7.5753 C   0  0  0  0  0  0
   -3.0662  -13.8331   -7.2236 C   0  0  0  0  0  0
   -4.4507  -13.7357   -7.2218 C   0  0  0  0  0  0
   -8.8411  -12.8840   -8.4213 N   0  0  0  0  0  0
   -9.9753  -13.6630   -8.5779 C   0  0  0  0  0  0
   -9.9774  -14.8702   -8.8212 O   0  0  0  0  0  0
  -11.0780  -12.9024   -8.4210 O   0  0  0  0  0  0
  -12.3544  -13.4084   -7.9869 C   0  0  0  0  0  0
  -12.8471  -14.6882   -8.7047 C   0  0  0  0  0  0
  -13.3473  -12.2667   -8.2733 C   0  0  0  0  0  0
  -12.2568  -13.6505   -6.4753 C   0  0  0  0  0  0
   -5.4691  -19.2631  -14.0124 O   0  0  0  0  0  0
   -4.0512  -19.2459  -10.6080 O   0  0  0  0  0  0
   -4.2480  -17.8673  -12.0659 H   0  0  0  0  0  0
   -5.1739  -20.6849  -12.6478 H   0  0  0  0  0  0
   -1.6124  -21.1231  -10.8186 H   0  0  0  0  0  0
   -3.2776  -21.6651  -11.0435 H   0  0  0  0  0  0
   -1.9601  -22.6107  -11.6939 H   0  0  0  0  0  0
   -3.1346  -21.2631  -13.4595 H   0  0  0  0  0  0
   -0.2137  -20.4768  -13.0565 H   0  0  0  0  0  0
   -0.7885  -21.9819  -13.7688 H   0  0  0  0  0  0
   -1.0930  -20.4634  -14.5850 H   0  0  0  0  0  0
   -2.7258  -18.8029  -13.6209 H   0  0  0  0  0  0
   -1.9567  -18.7982  -12.0852 H   0  0  0  0  0  0
   -6.5727  -19.5252  -10.8401 H   0  0  0  0  0  0
   -8.8178  -19.8148  -12.1719 H   0  0  0  0  0  0
   -7.8338  -20.4571  -13.4297 H   0  0  0  0  0  0
   -8.8124  -22.2261  -12.1432 H   0  0  0  0  0  0
   -6.4548  -22.6890  -12.8172 H   0  0  0  0  0  0
   -5.8902  -22.1555  -11.2608 H   0  0  0  0  0  0
   -7.7724  -24.5135  -11.8069 H   0  0  0  0  0  0
   -6.1112  -24.6243  -11.2835 H   0  0  0  0  0  0
   -7.7474  -24.9388   -9.3794 H   0  0  0  0  0  0
   -6.6335  -23.6233   -9.1122 H   0  0  0  0  0  0
   -9.5555  -23.3859   -9.9766 H   0  0  0  0  0  0
   -8.8563  -22.8628   -8.4612 H   0  0  0  0  0  0
   -7.5826  -21.0659   -9.5862 H   0  0  0  0  0  0
   -9.2469  -20.9545  -10.0374 H   0  0  0  0  0  0
   -7.7394  -17.7827  -12.9129 H   0  0  0  0  0  0
   -8.5125  -15.7870  -12.0874 H   0  0  0  0  0  0
   -6.6697  -15.4756  -13.6518 H   0  0  0  0  0  0
   -7.0628  -13.9065  -12.9686 H   0  0  0  0  0  0
   -5.6338  -14.7847  -12.4223 H   0  0  0  0  0  0
   -8.7241  -14.8149  -10.1124 H   0  0  0  0  0  0
   -7.4636  -14.3226   -7.7339 H   0  0  0  0  0  0
   -6.8960  -12.3792   -6.5761 H   0  0  0  0  0  0
   -6.8167  -11.4048   -8.0108 H   0  0  0  0  0  0
   -4.7161  -10.4750   -8.2178 H   0  0  0  0  0  0
   -2.2706  -10.6824   -8.1830 H   0  0  0  0  0  0
   -1.2081  -12.8220   -7.5716 H   0  0  0  0  0  0
   -2.5945  -14.7647   -6.9515 H   0  0  0  0  0  0
   -5.0487  -14.5939   -6.9509 H   0  0  0  0  0  0
   -8.9547  -11.8833   -8.3607 H   0  0  0  0  0  0
  -12.2688  -15.5698   -8.4337 H   0  0  0  0  0  0
  -13.8693  -14.9214   -8.4215 H   0  0  0  0  0  0
  -12.7982  -14.5842   -9.7890 H   0  0  0  0  0  0
  -13.0295  -11.3259   -7.8203 H   0  0  0  0  0  0
  -13.4345  -12.0977   -9.3439 H   0  0  0  0  0  0
  -14.3453  -12.4903   -7.8947 H   0  0  0  0  0  0
  -11.8153  -12.7666   -6.0211 H   0  0  0  0  0  0
  -13.2327  -13.8235   -6.0216 H   0  0  0  0  0  0
  -11.6142  -14.4970   -6.2346 H   0  0  0  0  0  0
   -6.0846  -18.5250  -14.1122 H   0  0  0  0  0  0
   -3.4317  -18.6389  -10.1952 H   0  0  0  0  0  0
  1  2  1  0  0  0
  1 43  1  0  0  0
  1 44  1  0  0  0
  1 45  1  0  0  0
  2  3  1  0  0  0
  2  4  1  0  0  0
  2 46  1  0  0  0
  3 47  1  0  0  0
  3 48  1  0  0  0
  3 49  1  0  0  0
  4  5  1  0  0  0
  4 50  1  0  0  0
  4 51  1  0  0  0
  5 41  1  0  0  0
  5  6  1  0  0  0
  5 40  1  0  0  0
  6 42  1  0  0  0
  6  7  1  0  0  0
  6 39  1  0  0  0
  7  8  1  0  0  0
  7 15  1  0  0  0
  7 52  1  0  0  0
  8  9  1  0  0  0
  8 53  1  0  0  0
  8 54  1  0  0  0
  9 14  1  0  0  0
  9 10  1  0  0  0
  9 55  1  0  0  0
 10 11  1  0  0  0
 10 56  1  0  0  0
 10 57  1  0  0  0
 11 12  1  0  0  0
 11 58  1  0  0  0
 11 59  1  0  0  0
 12 13  1  0  0  0
 12 60  1  0  0  0
 12 61  1  0  0  0
 13 14  1  0  0  0
 13 62  1  0  0  0
 13 63  1  0  0  0
 14 64  1  0  0  0
 14 65  1  0  0  0
 15 16  1  0  0  0
 15 66  1  0  0  0
 16 17  2  0  0  0
 16 18  1  0  0  0
 18 19  1  0  0  0
 18 20  1  0  0  0
 18 67  1  0  0  0
 19 68  1  0  0  0
 19 69  1  0  0  0
 19 70  1  0  0  0
 20 21  1  0  0  0
 20 71  1  0  0  0
 21 22  2  0  0  0
 21 23  1  0  0  0
 23 24  1  0  0  0
 23 31  1  0  0  0
 23 72  1  0  0  0
 24 25  1  0  0  0
 24 73  1  0  0  0
 24 74  1  0  0  0
 25 30  1  0  0  0
 25 26  2  0  0  0
 26 27  1  0  0  0
 26 75  1  0  0  0
 27 28  2  0  0  0
 27 76  1  0  0  0
 28 29  1  0  0  0
 28 77  1  0  0  0
 29 30  2  0  0  0
 29 78  1  0  0  0
 30 79  1  0  0  0
 31 32  1  0  0  0
 31 80  1  0  0  0
 32 33  2  0  0  0
 32 34  1  0  0  0
 34 35  1  0  0  0
 35 36  1  0  0  0
 35 37  1  0  0  0
 35 38  1  0  0  0
 36 81  1  0  0  0
 36 82  1  0  0  0
 36 83  1  0  0  0
 37 84  1  0  0  0
 37 85  1  0  0  0
 37 86  1  0  0  0
 38 87  1  0  0  0
 38 88  1  0  0  0
 38 89  1  0  0  0
 39 90  1  0  0  0
 40 91  1  0  0  0
M  END
> <s_m_entry_id>
27561

> <s_m_entry_name>
ligand_docking-pose.115

> <s_m_Source_Path>
/home/csk/Desktop/cluster/DUD-E-result/reni

> <s_m_Source_File>
ligand_docking-pose.sdf

> <i_m_Source_File_Index>
115

> <i_lp_mmshare_version>
53161

> <i_f3d_flags>
0

> <r_lp_tautomer_probability>
1

> <s_lp_Force_Field>
OPLS_2005

> <r_lp_Energy>
21.427113

> <b_lp_Chiralities_Consistent>
1

> <s_lp_Variant>
116572-5

> <s_i_glide_gridfile>
glide-grid_3g6z

> <i_i_glide_lignum>
303

> <i_i_glide_rotatable_bonds>
20

> <r_i_docking_score>
-6.97299969072948

> <r_i_glide_ligand_efficiency>
-0.174324992268237

> <r_i_glide_ligand_efficiency_sa>
-0.596183086633491

> <r_i_glide_ligand_efficiency_ln>
-1.48713562781221

> <r_i_glide_gscore>
-6.97299969072948

> <r_i_glide_lipo>
-3.71266100477505

> <r_i_glide_hbond>
-0.453164445665119

> <r_i_glide_metal>
0

> <r_i_glide_rewards>
-0.262495730758851

> <r_i_glide_evdw>
-39.3590087890625

> <r_i_glide_ecoul>
-8.89383602142334

> <r_i_glide_erotb>
0.841285197559362

> <r_i_glide_esite>
-0.0839378644232028

> <r_i_glide_emodel>
-59.0585177148841

> <r_i_glide_energy>
-48.2528448104858

> <r_i_glide_einternal>
19.4558734893799

> <i_i_glide_confnum>
50

> <i_i_glide_posenum>
121

> <r_i_glide_eff_state_penalty>
0

> <s_user_duplicate_titles>
116572

> <s_m_subgroup_title>
dock_pv

> <s_m_subgroupid>
dock_pv1

> <b_m_subgroup_collapsed>
0

$$$$
116467
                    3D
 Schrodinger Suite 2021-1.
 99 99  0  0  1  0            999 V2000
   -2.7628  -20.4910  -12.9109 C   0  0  0  0  0  0
   -3.4573  -20.1205  -11.5907 C   0  0  0  0  0  0
   -3.1856  -21.1943  -10.5202 C   0  0  0  0  0  0
   -4.9845  -19.8841  -11.7368 C   0  0  0  0  0  0
   -5.5322  -18.7405  -12.6445 C   0  0  1  0  0  0
   -4.9709  -17.3037  -12.4117 C   0  0  1  0  0  0
   -5.0594  -16.6927  -10.9716 C   0  0  1  0  0  0
   -4.8756  -15.1388  -10.9768 C   0  0  0  0  0  0
   -4.6657  -14.4279   -9.6049 C   0  0  0  0  0  0
   -3.9968  -13.0438   -9.8061 C   0  0  0  0  0  0
   -3.6741  -12.3596   -8.4586 C   0  0  0  0  0  0
   -4.9329  -12.2139   -7.5777 C   0  0  0  0  0  0
   -5.6929  -13.5478   -7.4259 C   0  0  0  0  0  0
   -5.9707  -14.2044   -8.7924 C   0  0  0  0  0  0
   -6.2164  -17.1412  -10.2048 N   0  0  0  0  0  0
   -7.4962  -16.8796  -10.4934 C   0  0  0  0  0  0
   -7.8806  -16.2477  -11.4751 O   0  0  0  0  0  0
   -8.4931  -17.4162   -9.4691 C   0  0  2  0  0  0
   -9.1425  -18.7513   -9.9313 C   0  0  0  0  0  0
   -8.2735  -20.0128  -10.0981 C   0  0  0  0  0  0
   -9.0959  -21.1939  -10.6489 C   0  0  0  0  0  0
   -7.5149  -20.4271   -8.8285 C   0  0  0  0  0  0
   -9.4655  -16.3664   -9.1022 N   0  0  0  0  0  0
  -10.6276  -16.0664   -9.7088 C   0  0  0  0  0  0
  -11.1044  -16.7159  -10.6359 O   0  0  0  0  0  0
  -11.4496  -14.8543   -9.2270 C   0  0  1  0  0  0
  -12.7090  -15.3152   -8.4683 C   0  0  0  0  0  0
  -12.4751  -16.0364   -7.1414 C   0  0  0  0  0  0
  -13.7296  -16.8607   -6.8209 C   0  0  0  0  0  0
  -12.0238  -15.0679   -6.0220 C   0  0  0  0  0  0
  -10.7234  -13.7485   -8.5696 N   0  0  0  0  0  0
  -11.3673  -12.5288   -8.3874 C   0  0  0  0  0  0
  -12.4405  -12.2064   -8.8930 O   0  0  0  0  0  0
  -10.6716  -11.7846   -7.5031 O   0  0  0  0  0  0
  -11.0894  -10.5011   -7.0020 C   0  0  0  0  0  0
  -12.5957  -10.4322   -6.6267 C   0  0  0  0  0  0
  -10.6686   -9.4294   -8.0216 C   0  0  0  0  0  0
  -10.3065  -10.2976   -5.6947 C   0  0  0  0  0  0
   -3.6091  -17.2626  -12.7720 O   0  0  0  0  0  0
   -5.4691  -19.1062  -14.0200 O   0  0  0  0  0  0
   -6.6047  -18.6805  -12.4824 H   0  0  0  0  0  0
   -5.5197  -16.6469  -13.0939 H   0  0  0  0  0  0
   -3.2210  -21.3651  -13.3685 H   0  0  0  0  0  0
   -2.8092  -19.6691  -13.6204 H   0  0  0  0  0  0
   -1.7081  -20.7136  -12.7523 H   0  0  0  0  0  0
   -3.0032  -19.1998  -11.2226 H   0  0  0  0  0  0
   -3.6133  -22.1535  -10.8032 H   0  0  0  0  0  0
   -2.1170  -21.3452  -10.3683 H   0  0  0  0  0  0
   -3.6172  -20.9158   -9.5575 H   0  0  0  0  0  0
   -5.3573  -19.6969  -10.7303 H   0  0  0  0  0  0
   -5.4620  -20.8182  -12.0325 H   0  0  0  0  0  0
   -4.2221  -17.1048  -10.4036 H   0  0  0  0  0  0
   -4.0059  -14.9187  -11.5980 H   0  0  0  0  0  0
   -5.7145  -14.6694  -11.4959 H   0  0  0  0  0  0
   -3.9864  -15.0311   -8.9961 H   0  0  0  0  0  0
   -3.0754  -13.1569  -10.3817 H   0  0  0  0  0  0
   -4.6324  -12.4039  -10.4219 H   0  0  0  0  0  0
   -2.9233  -12.9475   -7.9254 H   0  0  0  0  0  0
   -3.2266  -11.3803   -8.6323 H   0  0  0  0  0  0
   -4.6613  -11.8269   -6.5937 H   0  0  0  0  0  0
   -5.5966  -11.4707   -8.0234 H   0  0  0  0  0  0
   -5.1022  -14.2384   -6.8196 H   0  0  0  0  0  0
   -6.6276  -13.3853   -6.8869 H   0  0  0  0  0  0
   -6.6776  -13.6068   -9.3730 H   0  0  0  0  0  0
   -6.4865  -15.1440   -8.6125 H   0  0  0  0  0  0
   -6.0163  -17.6619   -9.3625 H   0  0  0  0  0  0
   -7.9601  -17.6075   -8.5381 H   0  0  0  0  0  0
   -9.8924  -18.9945   -9.2030 H   0  0  0  0  0  0
   -9.6551  -18.6014  -10.8844 H   0  0  0  0  0  0
   -7.5433  -19.7863  -10.8596 H   0  0  0  0  0  0
   -9.1670  -22.0219   -9.9400 H   0  0  0  0  0  0
  -10.1151  -20.9038  -10.9063 H   0  0  0  0  0  0
   -8.6388  -21.5952  -11.5559 H   0  0  0  0  0  0
   -8.1903  -20.7909   -8.0523 H   0  0  0  0  0  0
   -6.8047  -21.2256   -9.0516 H   0  0  0  0  0  0
   -6.9372  -19.6029   -8.4211 H   0  0  0  0  0  0
   -9.1666  -15.7761   -8.3432 H   0  0  0  0  0  0
  -11.8695  -14.4629  -10.1438 H   0  0  0  0  0  0
  -13.4270  -14.5054   -8.3342 H   0  0  0  0  0  0
  -13.2164  -15.9994   -9.1448 H   0  0  0  0  0  0
  -11.6738  -16.7629   -7.2767 H   0  0  0  0  0  0
  -14.5286  -16.2296   -6.4216 H   0  0  0  0  0  0
  -14.1353  -17.3852   -7.6817 H   0  0  0  0  0  0
  -13.4911  -17.6266   -6.0786 H   0  0  0  0  0  0
  -12.8455  -14.4630   -5.6287 H   0  0  0  0  0  0
  -11.5510  -15.6178   -5.2046 H   0  0  0  0  0  0
  -11.2776  -14.3446   -6.3153 H   0  0  0  0  0  0
   -9.8292  -13.8986   -8.1300 H   0  0  0  0  0  0
  -12.8337   -9.5255   -6.0693 H   0  0  0  0  0  0
  -12.8805  -11.2890   -6.0193 H   0  0  0  0  0  0
  -13.2610  -10.4628   -7.4867 H   0  0  0  0  0  0
   -9.5854   -9.3867   -8.1222 H   0  0  0  0  0  0
  -11.0758   -9.6488   -9.0071 H   0  0  0  0  0  0
  -11.0068   -8.4399   -7.7163 H   0  0  0  0  0  0
   -9.2377  -10.4611   -5.8250 H   0  0  0  0  0  0
  -10.4363   -9.2861   -5.3020 H   0  0  0  0  0  0
  -10.6695  -10.9915   -4.9399 H   0  0  0  0  0  0
   -3.4620  -16.3946  -13.1759 H   0  0  0  0  0  0
   -5.9987  -18.4762  -14.5343 H   0  0  0  0  0  0
  1  2  1  0  0  0
  1 43  1  0  0  0
  1 44  1  0  0  0
  1 45  1  0  0  0
  2  3  1  0  0  0
  2  4  1  0  0  0
  2 46  1  0  0  0
  3 47  1  0  0  0
  3 48  1  0  0  0
  3 49  1  0  0  0
  4  5  1  0  0  0
  4 50  1  0  0  0
  4 51  1  0  0  0
  5 41  1  0  0  0
  5  6  1  0  0  0
  5 40  1  0  0  0
  6 42  1  0  0  0
  6  7  1  0  0  0
  6 39  1  0  0  0
  7  8  1  0  0  0
  7 15  1  0  0  0
  7 52  1  0  0  0
  8  9  1  0  0  0
  8 53  1  0  0  0
  8 54  1  0  0  0
  9 14  1  0  0  0
  9 10  1  0  0  0
  9 55  1  0  0  0
 10 11  1  0  0  0
 10 56  1  0  0  0
 10 57  1  0  0  0
 11 12  1  0  0  0
 11 58  1  0  0  0
 11 59  1  0  0  0
 12 13  1  0  0  0
 12 60  1  0  0  0
 12 61  1  0  0  0
 13 14  1  0  0  0
 13 62  1  0  0  0
 13 63  1  0  0  0
 14 64  1  0  0  0
 14 65  1  0  0  0
 15 16  1  0  0  0
 15 66  1  0  0  0
 16 17  2  0  0  0
 16 18  1  0  0  0
 18 19  1  0  0  0
 18 23  1  0  0  0
 18 67  1  0  0  0
 19 20  1  0  0  0
 19 68  1  0  0  0
 19 69  1  0  0  0
 20 21  1  0  0  0
 20 22  1  0  0  0
 20 70  1  0  0  0
 21 71  1  0  0  0
 21 72  1  0  0  0
 21 73  1  0  0  0
 22 74  1  0  0  0
 22 75  1  0  0  0
 22 76  1  0  0  0
 23 24  1  0  0  0
 23 77  1  0  0  0
 24 25  2  0  0  0
 24 26  1  0  0  0
 26 27  1  0  0  0
 26 31  1  0  0  0
 26 78  1  0  0  0
 27 28  1  0  0  0
 27 79  1  0  0  0
 27 80  1  0  0  0
 28 29  1  0  0  0
 28 30  1  0  0  0
 28 81  1  0  0  0
 29 82  1  0  0  0
 29 83  1  0  0  0
 29 84  1  0  0  0
 30 85  1  0  0  0
 30 86  1  0  0  0
 30 87  1  0  0  0
 31 32  1  0  0  0
 31 88  1  0  0  0
 32 33  2  0  0  0
 32 34  1  0  0  0
 34 35  1  0  0  0
 35 36  1  0  0  0
 35 37  1  0  0  0
 35 38  1  0  0  0
 36 89  1  0  0  0
 36 90  1  0  0  0
 36 91  1  0  0  0
 37 92  1  0  0  0
 37 93  1  0  0  0
 37 94  1  0  0  0
 38 95  1  0  0  0
 38 96  1  0  0  0
 38 97  1  0  0  0
 39 98  1  0  0  0
 40 99  1  0  0  0
M  END
> <s_m_entry_id>
27562

> <s_m_entry_name>
ligand_docking-pose.116

> <s_m_Source_Path>
/home/csk/Desktop/cluster/DUD-E-result/reni

> <s_m_Source_File>
ligand_docking-pose.sdf

> <i_m_Source_File_Index>
116

> <i_lp_mmshare_version>
53161

> <i_f3d_flags>
0

> <r_lp_tautomer_probability>
1

> <s_lp_Force_Field>
OPLS_2005

> <r_lp_Energy>
22.227748

> <b_lp_Chiralities_Consistent>
1

> <s_lp_Variant>
116467-6

> <s_i_glide_gridfile>
glide-grid_3g6z

> <i_i_glide_lignum>
296

> <i_i_glide_rotatable_bonds>
22

> <r_i_docking_score>
-6.97170243808926

> <r_i_glide_ligand_efficiency>
-0.174292560952232

> <r_i_glide_ligand_efficiency_sa>
-0.59607217309305

> <r_i_glide_ligand_efficiency_ln>
-1.48685896200049

> <r_i_glide_gscore>
-6.97170243808926

> <r_i_glide_lipo>
-3.1403099663506

> <r_i_glide_hbond>
0

> <r_i_glide_metal>
0

> <r_i_glide_rewards>
-1.17361072715892

> <r_i_glide_evdw>
-35.7733345031738

> <r_i_glide_ecoul>
-11.5969839096069

> <r_i_glide_erotb>
0.873234694475243

> <r_i_glide_esite>
-0.00280212745525016

> <r_i_glide_emodel>
-42.2734741065472

> <r_i_glide_energy>
-47.3703184127808

> <r_i_glide_einternal>
17.4930629730225

> <i_i_glide_confnum>
55

> <i_i_glide_posenum>
2

> <r_i_glide_eff_state_penalty>
0

> <s_user_duplicate_titles>
116467

> <s_m_subgroup_title>
dock_pv

> <s_m_subgroupid>
dock_pv1

> <b_m_subgroup_collapsed>
0

$$$$
116747
                    3D
 Schrodinger Suite 2021-1.
 86 88  0  0  1  0            999 V2000
   -4.2300  -11.5286  -12.4103 C   0  0  0  0  0  0
   -3.0343  -12.4670  -12.1693 C   0  0  0  0  0  0
   -2.4285  -12.8335  -13.5392 C   0  0  0  0  0  0
   -2.0191  -11.8038  -11.1851 C   0  0  0  0  0  0
   -3.6892  -13.6235  -11.6195 O   0  0  0  0  0  0
   -3.0833  -14.7656  -11.2201 C   0  0  0  0  0  0
   -1.8712  -14.9250  -11.0658 O   0  0  0  0  0  0
   -4.0676  -15.7239  -11.0105 N   0  0  0  0  0  0
   -3.7591  -16.9616  -10.2719 C   0  0  1  0  0  0
   -3.4385  -16.6293   -8.7705 C   0  0  0  0  0  0
   -4.1946  -15.4553   -8.1476 C   0  0  0  0  0  0
   -5.5767  -15.5453   -7.8825 C   0  0  0  0  0  0
   -6.2678  -14.4346   -7.4196 C   0  0  0  0  0  0
   -5.6116  -13.2242   -7.2253 C   0  0  0  0  0  0
   -4.2574  -13.1141   -7.5027 C   0  0  0  0  0  0
   -3.5461  -14.2151   -7.9595 C   0  0  0  0  0  0
   -4.8430  -18.0710  -10.4056 C   0  0  0  0  0  0
   -4.8089  -19.0133   -9.6124 O   0  0  0  0  0  0
   -5.7680  -17.9726  -11.3913 N   0  0  0  0  0  0
   -6.9816  -18.7975  -11.5871 C   0  0  1  0  0  0
   -6.6692  -20.3262  -11.7014 C   0  0  0  0  0  0
   -7.7920  -21.3118  -11.4284 C   0  0  0  0  0  0
   -8.3683  -21.7381  -10.2533 C   0  0  0  0  0  0
   -9.3567  -22.6965  -10.5115 N   0  0  0  0  0  0
   -9.3288  -22.8292  -11.8299 C   0  0  0  0  0  0
   -8.4342  -22.0373  -12.4203 N   0  0  0  0  0  0
   -8.0708  -18.4557  -10.5465 C   0  0  0  0  0  0
   -7.7791  -18.3042   -9.3598 O   0  0  0  0  0  0
   -9.3285  -18.3604  -11.0190 N   0  0  0  0  0  0
  -10.5050  -18.0148  -10.2013 C   0  0  1  0  0  0
  -10.5475  -16.4682  -10.0179 C   0  0  0  0  0  0
  -11.6973  -15.7689   -9.2320 C   0  0  0  0  0  0
  -12.2650  -16.5597   -8.0418 C   0  0  0  0  0  0
  -13.4054  -15.8141   -7.3086 C   0  0  0  0  0  0
  -12.9552  -14.4109   -6.8485 C   0  0  0  0  0  0
  -12.3392  -13.6014   -8.0101 C   0  0  0  0  0  0
  -11.2120  -14.4005   -8.6934 C   0  0  0  0  0  0
  -11.8008  -18.6537  -10.7881 C   0  0  2  0  0  0
  -11.7605  -20.1918  -10.9400 C   0  0  0  0  0  0
  -13.0543  -20.7065  -11.2228 O   0  0  0  0  0  0
  -12.0775  -18.0513  -12.0234 O   0  0  0  0  0  0
  -10.3462  -18.4462   -9.2218 H   0  0  0  0  0  0
  -12.6688  -18.4267  -10.1846 H   0  0  0  0  0  0
   -4.6718  -11.2632  -11.4526 H   0  0  0  0  0  0
   -3.9529  -10.6215  -12.9468 H   0  0  0  0  0  0
   -5.0140  -12.0077  -13.0051 H   0  0  0  0  0  0
   -1.8301  -13.7458  -13.5334 H   0  0  0  0  0  0
   -3.2162  -12.8628  -14.2855 H   0  0  0  0  0  0
   -1.8671  -12.0633  -13.9943 H   0  0  0  0  0  0
   -1.2608  -12.5070  -10.8238 H   0  0  0  0  0  0
   -1.4830  -10.9381  -11.6153 H   0  0  0  0  0  0
   -2.5341  -11.4697  -10.2884 H   0  0  0  0  0  0
   -5.0289  -15.4226  -11.0640 H   0  0  0  0  0  0
   -2.8733  -17.4319  -10.7070 H   0  0  0  0  0  0
   -2.3655  -16.4386   -8.6728 H   0  0  0  0  0  0
   -3.5977  -17.4990   -8.1359 H   0  0  0  0  0  0
   -6.1100  -16.4677   -8.0484 H   0  0  0  0  0  0
   -7.3274  -14.4983   -7.2261 H   0  0  0  0  0  0
   -6.1635  -12.3593   -6.8808 H   0  0  0  0  0  0
   -3.7578  -12.1655   -7.3707 H   0  0  0  0  0  0
   -2.4983  -14.1177   -8.2033 H   0  0  0  0  0  0
   -5.6900  -17.1836  -12.0195 H   0  0  0  0  0  0
   -7.3886  -18.4894  -12.5525 H   0  0  0  0  0  0
   -6.2830  -20.5219  -12.6997 H   0  0  0  0  0  0
   -5.8762  -20.6312  -11.0194 H   0  0  0  0  0  0
   -8.2662  -21.9950  -13.4233 H   0  0  0  0  0  0
   -8.1377  -21.4262   -9.2452 H   0  0  0  0  0  0
   -9.9670  -23.5112  -12.3739 H   0  0  0  0  0  0
   -9.4823  -18.4742  -12.0097 H   0  0  0  0  0  0
   -9.5945  -16.1750   -9.5731 H   0  0  0  0  0  0
  -10.5317  -16.0618  -11.0228 H   0  0  0  0  0  0
  -12.5240  -15.5816   -9.9186 H   0  0  0  0  0  0
  -12.6550  -17.4937   -8.4184 H   0  0  0  0  0  0
  -11.4720  -16.8192   -7.3396 H   0  0  0  0  0  0
  -14.2683  -15.7108   -7.9728 H   0  0  0  0  0  0
  -13.7621  -16.3973   -6.4593 H   0  0  0  0  0  0
  -13.7857  -13.8639   -6.4042 H   0  0  0  0  0  0
  -12.2128  -14.5128   -6.0532 H   0  0  0  0  0  0
  -13.1153  -13.3611   -8.7371 H   0  0  0  0  0  0
  -11.9530  -12.6481   -7.6450 H   0  0  0  0  0  0
  -10.3723  -14.5405   -8.0215 H   0  0  0  0  0  0
  -10.7843  -13.8116   -9.4928 H   0  0  0  0  0  0
  -11.0542  -20.4893  -11.7141 H   0  0  0  0  0  0
  -11.4099  -20.6589  -10.0206 H   0  0  0  0  0  0
  -13.0006  -21.6672  -11.2342 H   0  0  0  0  0  0
  -11.5310  -18.4282  -12.7229 H   0  0  0  0  0  0
  1  2  1  0  0  0
  1 44  1  0  0  0
  1 45  1  0  0  0
  1 46  1  0  0  0
  2  3  1  0  0  0
  2  4  1  0  0  0
  2  5  1  0  0  0
  3 47  1  0  0  0
  3 48  1  0  0  0
  3 49  1  0  0  0
  4 50  1  0  0  0
  4 51  1  0  0  0
  4 52  1  0  0  0
  5  6  1  0  0  0
  6  7  2  0  0  0
  6  8  1  0  0  0
  8  9  1  0  0  0
  8 53  1  0  0  0
  9 10  1  0  0  0
  9 17  1  0  0  0
  9 54  1  0  0  0
 10 11  1  0  0  0
 10 55  1  0  0  0
 10 56  1  0  0  0
 11 16  1  0  0  0
 11 12  2  0  0  0
 12 13  1  0  0  0
 12 57  1  0  0  0
 13 14  2  0  0  0
 13 58  1  0  0  0
 14 15  1  0  0  0
 14 59  1  0  0  0
 15 16  2  0  0  0
 15 60  1  0  0  0
 16 61  1  0  0  0
 17 18  2  0  0  0
 17 19  1  0  0  0
 19 20  1  0  0  0
 19 62  1  0  0  0
 20 21  1  0  0  0
 20 27  1  0  0  0
 20 63  1  0  0  0
 21 64  1  0  0  0
 21 65  1  0  0  0
 21 22  1  0  0  0
 22 23  2  0  0  0
 22 26  1  0  0  0
 23 67  1  0  0  0
 23 24  1  0  0  0
 24 25  2  0  0  0
 25 68  1  0  0  0
 25 26  1  0  0  0
 26 66  1  0  0  0
 27 28  2  0  0  0
 27 29  1  0  0  0
 29 30  1  0  0  0
 29 69  1  0  0  0
 30 42  1  0  0  0
 30 31  1  0  0  0
 30 38  1  0  0  0
 31 32  1  0  0  0
 31 70  1  0  0  0
 31 71  1  0  0  0
 32 37  1  0  0  0
 32 33  1  0  0  0
 32 72  1  0  0  0
 33 34  1  0  0  0
 33 73  1  0  0  0
 33 74  1  0  0  0
 34 35  1  0  0  0
 34 75  1  0  0  0
 34 76  1  0  0  0
 35 36  1  0  0  0
 35 77  1  0  0  0
 35 78  1  0  0  0
 36 37  1  0  0  0
 36 79  1  0  0  0
 36 80  1  0  0  0
 37 81  1  0  0  0
 37 82  1  0  0  0
 38 43  1  0  0  0
 38 39  1  0  0  0
 38 41  1  0  0  0
 39 40  1  0  0  0
 39 83  1  0  0  0
 39 84  1  0  0  0
 40 85  1  0  0  0
 41 86  1  0  0  0
M  END
> <s_m_entry_id>
27564

> <s_m_entry_name>
ligand_docking-pose.118

> <s_m_Source_Path>
/home/csk/Desktop/cluster/DUD-E-result/reni

> <s_m_Source_File>
ligand_docking-pose.sdf

> <i_m_Source_File_Index>
118

> <i_lp_mmshare_version>
53161

> <i_f3d_flags>
0

> <r_lp_tautomer_probability>
0.499999999999999

> <s_lp_Force_Field>
OPLS_2005

> <r_lp_Energy>
22.704261

> <b_lp_Chiralities_Consistent>
1

> <s_lp_Variant>
116747-4

> <s_i_glide_gridfile>
glide-grid_3g6z

> <i_i_glide_lignum>
582

> <i_i_glide_rotatable_bonds>
20

> <r_i_docking_score>
-6.9658210474549

> <r_i_glide_ligand_efficiency>
-0.169898074328168

> <r_i_glide_ligand_efficiency_sa>
-0.585845468281023

> <r_i_glide_ligand_efficiency_ln>
-1.47782211640722

> <r_i_glide_gscore>
-6.9658210474549

> <r_i_glide_lipo>
-3.37644917316346

> <r_i_glide_hbond>
-0.300592760552039

> <r_i_glide_metal>
0

> <r_i_glide_rewards>
-0.55787795839691

> <r_i_glide_evdw>
-35.9705505371094

> <r_i_glide_ecoul>
-10.6418609619141

> <r_i_glide_erotb>
0.801682494180274

> <r_i_glide_esite>
-0.137776978380183

> <r_i_glide_emodel>
-55.7662511882943

> <r_i_glide_energy>
-46.6124114990234

> <r_i_glide_einternal>
17.759334564209

> <i_i_glide_confnum>
146

> <i_i_glide_posenum>
223

> <r_i_glide_eff_state_penalty>
0

> <s_user_duplicate_titles>
116747

> <s_m_subgroup_title>
dock_pv

> <s_m_subgroupid>
dock_pv1

> <b_m_subgroup_collapsed>
0

$$$$
405772
                    3D
 Schrodinger Suite 2021-1.
 59 62  0  0  1  0            999 V2000
   -1.6965  -16.1180  -11.3801 C   0  0  0  0  0  0
   -2.2172  -17.2574  -10.4955 C   0  0  0  0  0  0
   -2.9640  -18.3460  -11.2739 C   0  0  0  0  0  0
   -4.3163  -18.2557  -11.6902 C   0  0  0  0  0  0
   -4.7935  -19.3752  -12.4113 C   0  0  0  0  0  0
   -4.0330  -20.4627  -12.6841 N   0  0  0  0  0  0
   -2.7604  -20.4335  -12.2376 C   0  0  0  0  0  0
   -2.1858  -19.4257  -11.5512 N   0  0  0  0  0  0
   -1.9671  -21.5386  -12.5046 N   0  0  0  0  0  0
   -6.0985  -19.4586  -12.8894 N   0  0  0  0  0  0
   -5.1830  -17.0651  -11.4018 C   0  0  0  0  0  0
   -5.8717  -16.4158  -12.4354 C   0  0  0  0  0  0
   -6.6856  -15.3137  -12.1782 C   0  0  0  0  0  0
   -6.7873  -14.8278  -10.8792 C   0  0  0  0  0  0
   -6.0860  -15.4204   -9.8203 C   0  0  0  0  0  0
   -5.3279  -16.5709  -10.0968 C   0  0  0  0  0  0
   -6.1340  -14.7908   -8.5484 N   0  0  0  0  0  0
   -6.9868  -13.7766   -8.2264 C   0  0  0  0  0  0
   -6.9343  -13.0859   -7.2086 O   0  0  0  0  0  0
   -8.0536  -13.5281   -9.3231 C   0  0  1  0  0  0
   -7.5714  -13.7124  -10.6714 O   0  0  0  0  0  0
   -9.3488  -14.2816   -8.9873 C   0  0  0  0  0  0
   -9.4724  -15.6615   -9.2213 C   0  0  0  0  0  0
  -10.6516  -16.3326   -8.8953 C   0  0  0  0  0  0
  -11.7235  -15.6370   -8.3379 C   0  0  0  0  0  0
  -11.6171  -14.2648   -8.1039 C   0  0  0  0  0  0
  -10.4349  -13.5932   -8.4213 C   0  0  0  0  0  0
  -12.6551  -13.5832   -7.5682 F   0  0  0  0  0  0
  -12.8602  -16.2967   -8.0169 F   0  0  0  0  0  0
   -5.1124  -15.1551   -7.5381 C   0  0  0  0  0  0
   -3.7288  -14.4919   -7.7464 C   0  0  0  0  0  0
   -3.6652  -12.9889   -7.4112 C   0  0  0  0  0  0
   -4.3415  -12.2227   -8.3993 O   0  0  0  0  0  0
   -4.4896  -10.8527   -8.0512 C   0  0  0  0  0  0
   -1.2855  -15.3097  -10.7738 H   0  0  0  0  0  0
   -0.8932  -16.4766  -12.0221 H   0  0  0  0  0  0
   -2.4876  -15.6987  -12.0054 H   0  0  0  0  0  0
   -2.8277  -16.8463   -9.7007 H   0  0  0  0  0  0
   -1.3738  -17.7033   -9.9643 H   0  0  0  0  0  0
   -1.0208  -21.5511  -12.1550 H   0  0  0  0  0  0
   -2.3690  -22.3201  -12.9962 H   0  0  0  0  0  0
   -6.7291  -18.6760  -12.7787 H   0  0  0  0  0  0
   -6.3941  -20.2976  -13.3634 H   0  0  0  0  0  0
   -5.7793  -16.7643  -13.4551 H   0  0  0  0  0  0
   -7.2173  -14.8301  -12.9845 H   0  0  0  0  0  0
   -4.8316  -17.1020   -9.3021 H   0  0  0  0  0  0
   -8.2691  -12.4727   -9.2192 H   0  0  0  0  0  0
   -8.6619  -16.2278   -9.6521 H   0  0  0  0  0  0
  -10.7316  -17.3952   -9.0741 H   0  0  0  0  0  0
  -10.3705  -12.5318   -8.2299 H   0  0  0  0  0  0
   -5.0147  -16.2375   -7.4674 H   0  0  0  0  0  0
   -5.4633  -14.8832   -6.5403 H   0  0  0  0  0  0
   -3.3630  -14.6636   -8.7589 H   0  0  0  0  0  0
   -3.0248  -15.0004   -7.0870 H   0  0  0  0  0  0
   -2.6241  -12.6643   -7.3642 H   0  0  0  0  0  0
   -4.1026  -12.8233   -6.4245 H   0  0  0  0  0  0
   -5.0653  -10.3356   -8.8196 H   0  0  0  0  0  0
   -3.5195  -10.3611   -7.9633 H   0  0  0  0  0  0
   -5.0267  -10.7351   -7.1083 H   0  0  0  0  0  0
  1  2  1  0  0  0
  1 35  1  0  0  0
  1 36  1  0  0  0
  1 37  1  0  0  0
  2  3  1  0  0  0
  2 38  1  0  0  0
  2 39  1  0  0  0
  3  8  1  0  0  0
  3  4  2  0  0  0
  4  5  1  0  0  0
  4 11  1  0  0  0
  5  6  2  0  0  0
  5 10  1  0  0  0
  6  7  1  0  0  0
  7  8  2  0  0  0
  7  9  1  0  0  0
  9 40  1  0  0  0
  9 41  1  0  0  0
 10 42  1  0  0  0
 10 43  1  0  0  0
 11 16  1  0  0  0
 11 12  2  0  0  0
 12 13  1  0  0  0
 12 44  1  0  0  0
 13 14  2  0  0  0
 13 45  1  0  0  0
 14 21  1  0  0  0
 14 15  1  0  0  0
 15 16  2  0  0  0
 15 17  1  0  0  0
 16 46  1  0  0  0
 17 18  1  0  0  0
 17 30  1  0  0  0
 18 19  2  0  0  0
 18 20  1  0  0  0
 20 21  1  0  0  0
 20 22  1  0  0  0
 20 47  1  0  0  0
 22 27  1  0  0  0
 22 23  2  0  0  0
 23 24  1  0  0  0
 23 48  1  0  0  0
 24 25  2  0  0  0
 24 49  1  0  0  0
 25 26  1  0  0  0
 25 29  1  0  0  0
 26 27  2  0  0  0
 26 28  1  0  0  0
 27 50  1  0  0  0
 30 31  1  0  0  0
 30 51  1  0  0  0
 30 52  1  0  0  0
 31 32  1  0  0  0
 31 53  1  0  0  0
 31 54  1  0  0  0
 32 33  1  0  0  0
 32 55  1  0  0  0
 32 56  1  0  0  0
 33 34  1  0  0  0
 34 57  1  0  0  0
 34 58  1  0  0  0
 34 59  1  0  0  0
M  END
> <s_m_entry_id>
27568

> <s_m_entry_name>
ligand_docking-pose.122

> <s_m_Source_Path>
/home/csk/Desktop/cluster/DUD-E-result/reni

> <s_m_Source_File>
ligand_docking-pose.sdf

> <i_m_Source_File_Index>
122

> <i_lp_mmshare_version>
53161

> <i_f3d_flags>
0

> <r_lp_tautomer_probability>
0.999999624730965

> <s_lp_Force_Field>
OPLS_2005

> <r_lp_Energy>
31.603531

> <b_lp_Chiralities_Consistent>
1

> <s_lp_Variant>
405772-1

> <s_i_glide_gridfile>
glide-grid_3g6z

> <i_i_glide_lignum>
79

> <i_i_glide_rotatable_bonds>
7

> <r_i_docking_score>
-6.9198044864737

> <r_i_glide_ligand_efficiency>
-0.203523661366873

> <r_i_glide_ligand_efficiency_sa>
-0.659337654428305

> <r_i_glide_ligand_efficiency_ln>
-1.52877890500349

> <r_i_glide_gscore>
-6.9198044864737

> <r_i_glide_lipo>
-2.69427647849604

> <r_i_glide_hbond>
-0.0519985224224404

> <r_i_glide_metal>
0

> <r_i_glide_rewards>
-2.42040208664817

> <r_i_glide_evdw>
-37.220775604248

> <r_i_glide_ecoul>
-1.9679388999939

> <r_i_glide_erotb>
0.458177853381305

> <r_i_glide_esite>
-0.0550756370768628

> <r_i_glide_emodel>
-56.2891012832782

> <r_i_glide_energy>
-39.1887145042419

> <r_i_glide_einternal>
1.16974329948425

> <i_i_glide_confnum>
76

> <i_i_glide_posenum>
143

> <r_i_glide_eff_state_penalty>
0

> <s_user_duplicate_titles>
405772

> <s_m_subgroup_title>
dock_pv

> <s_m_subgroupid>
dock_pv1

> <b_m_subgroup_collapsed>
0

$$$$
40318
                    3D
 Schrodinger Suite 2021-1.
 89 91  0  0  1  0            999 V2000
  -12.4071  -11.0323   -7.0451 C   0  0  0  0  0  0
  -11.8139  -12.0077   -8.0834 C   0  0  0  0  0  0
  -12.5456  -13.3701   -8.0760 C   0  0  0  0  0  0
  -10.2686  -12.0935   -8.0209 C   0  0  0  0  0  0
   -9.6053  -11.1357   -7.6204 O   0  0  0  0  0  0
   -9.6862  -13.2210   -8.4614 N   0  0  0  0  0  0
   -8.2732  -13.4002   -8.8345 C   0  0  1  0  0  0
   -7.3064  -13.5122   -7.6257 C   0  0  0  0  0  0
   -5.8462  -13.2020   -7.9244 C   0  0  0  0  0  0
   -5.3218  -11.9287   -7.6188 C   0  0  0  0  0  0
   -4.0104  -11.6107   -7.9516 C   0  0  0  0  0  0
   -3.2109  -12.5422   -8.5968 C   0  0  0  0  0  0
   -3.7200  -13.7938   -8.9320 C   0  0  0  0  0  0
   -5.0308  -14.1247   -8.6096 C   0  0  0  0  0  0
   -8.2194  -14.6698   -9.7024 C   0  0  0  0  0  0
   -7.6154  -14.6482  -10.7723 O   0  0  0  0  0  0
   -8.8887  -15.7338   -9.2224 N   0  0  0  0  0  0
   -8.8596  -17.1175   -9.7090 C   0  0  1  0  0  0
   -9.5496  -17.2824  -11.0858 C   0  0  0  0  0  0
  -10.5201  -18.4415  -11.1260 C   0  0  0  0  0  0
  -11.8682  -18.4687  -11.3949 C   0  0  0  0  0  0
  -12.3714  -19.7611  -11.2227 N   0  0  0  0  0  0
  -11.3053  -20.4744  -10.8814 C   0  0  0  0  0  0
  -10.1859  -19.7535  -10.8212 N   0  0  0  0  0  0
   -7.4538  -17.7371   -9.5959 C   0  0  0  0  0  0
   -6.6679  -17.2632   -8.7855 O   0  0  0  0  0  0
   -7.1658  -18.7828  -10.3829 N   0  0  0  0  0  0
   -5.9165  -19.5579  -10.4249 C   0  0  2  0  0  0
   -5.7680  -20.6030   -9.2960 C   0  0  0  0  0  0
   -6.9778  -21.5403   -9.0453 C   0  0  0  0  0  0
   -7.3536  -22.3905  -10.2870 C   0  0  0  0  0  0
   -8.5697  -23.2988  -10.0147 C   0  0  0  0  0  0
   -8.3426  -24.1983   -8.7836 C   0  0  0  0  0  0
   -7.8970  -23.3867   -7.5489 C   0  0  0  0  0  0
   -6.6859  -22.4920   -7.8627 C   0  0  0  0  0  0
   -4.5914  -18.7534  -10.7080 C   0  0  1  0  0  0
   -4.5921  -17.6438  -11.8309 C   0  0  1  0  0  0
   -5.3013  -17.9945  -13.1685 C   0  0  0  0  0  0
   -4.8792  -19.2777  -13.6208 N   0  5  0  0  0  0
   -6.0145  -20.0400  -14.0214 N   0  0  1  0  0  0
   -5.8701  -21.4022  -13.6206 N   0  5  0  0  0  0
   -5.1135  -16.4023  -11.3733 O   0  0  0  0  0  0
   -4.0685  -18.1775   -9.5187 O   0  0  0  0  0  0
   -7.9486  -12.5447   -9.4184 H   0  0  0  0  0  0
   -9.4651  -17.6467   -8.9732 H   0  0  0  0  0  0
   -9.2728  -20.1171  -10.5901 H   0  0  0  0  0  0
   -6.0573  -20.1608  -11.3140 H   0  0  0  0  0  0
   -3.8462  -19.5019  -10.9920 H   0  0  0  0  0  0
   -3.5466  -17.4379  -12.0679 H   0  0  0  0  0  0
  -11.9728  -10.0353   -7.1443 H   0  0  0  0  0  0
  -13.4747  -10.9125   -7.1907 H   0  0  0  0  0  0
  -12.2396  -11.3730   -6.0253 H   0  0  0  0  0  0
  -12.0107  -11.5531   -9.0518 H   0  0  0  0  0  0
  -12.2397  -14.0055   -8.9091 H   0  0  0  0  0  0
  -12.3598  -13.9207   -7.1563 H   0  0  0  0  0  0
  -13.6199  -13.2368   -8.1677 H   0  0  0  0  0  0
  -10.2942  -13.9554   -8.7863 H   0  0  0  0  0  0
   -7.3342  -14.5208   -7.2198 H   0  0  0  0  0  0
   -7.5939  -12.8398   -6.8215 H   0  0  0  0  0  0
   -5.9369  -11.2021   -7.1168 H   0  0  0  0  0  0
   -3.6167  -10.6348   -7.7033 H   0  0  0  0  0  0
   -2.1891  -12.2957   -8.8526 H   0  0  0  0  0  0
   -3.1011  -14.5084   -9.4523 H   0  0  0  0  0  0
   -5.4151  -15.0901   -8.8949 H   0  0  0  0  0  0
   -9.3425  -15.6262   -8.3307 H   0  0  0  0  0  0
  -10.1288  -16.3934  -11.3224 H   0  0  0  0  0  0
   -8.8285  -17.3756  -11.8999 H   0  0  0  0  0  0
  -12.5194  -17.6558  -11.6794 H   0  0  0  0  0  0
  -11.3449  -21.5360  -10.6837 H   0  0  0  0  0  0
   -7.8167  -19.0084  -11.1179 H   0  0  0  0  0  0
   -4.8873  -21.2116   -9.5043 H   0  0  0  0  0  0
   -5.5397  -20.0630   -8.3843 H   0  0  0  0  0  0
   -7.8473  -20.9389   -8.7729 H   0  0  0  0  0  0
   -7.5505  -21.7543  -11.1489 H   0  0  0  0  0  0
   -6.4958  -22.9932  -10.5867 H   0  0  0  0  0  0
   -9.4538  -22.6828   -9.8479 H   0  0  0  0  0  0
   -8.7789  -23.9109  -10.8933 H   0  0  0  0  0  0
   -9.2478  -24.7634   -8.5588 H   0  0  0  0  0  0
   -7.5756  -24.9380   -9.0169 H   0  0  0  0  0  0
   -8.7226  -22.7545   -7.2209 H   0  0  0  0  0  0
   -7.6661  -24.0547   -6.7195 H   0  0  0  0  0  0
   -5.8045  -23.0997   -8.0747 H   0  0  0  0  0  0
   -6.4146  -21.9114   -6.9805 H   0  0  0  0  0  0
   -6.3829  -17.9074  -13.0166 H   0  0  0  0  0  0
   -5.0608  -17.2390  -13.9152 H   0  0  0  0  0  0
   -6.8578  -19.6431  -13.6275 H   0  0  0  0  0  0
   -6.2285  -22.0136  -14.3723 H   0  0  0  0  0  0
   -5.1953  -15.8177  -12.1323 H   0  0  0  0  0  0
   -4.5496  -17.3498   -9.3988 H   0  0  0  0  0  0
  1  2  1  0  0  0
  1 50  1  0  0  0
  1 51  1  0  0  0
  1 52  1  0  0  0
  2  3  1  0  0  0
  2  4  1  0  0  0
  2 53  1  0  0  0
  3 54  1  0  0  0
  3 55  1  0  0  0
  3 56  1  0  0  0
  4  5  2  0  0  0
  4  6  1  0  0  0
  6  7  1  0  0  0
  6 57  1  0  0  0
  7 44  1  0  0  0
  7  8  1  0  0  0
  7 15  1  0  0  0
  8  9  1  0  0  0
  8 58  1  0  0  0
  8 59  1  0  0  0
  9 14  2  0  0  0
  9 10  1  0  0  0
 10 11  2  0  0  0
 10 60  1  0  0  0
 11 12  1  0  0  0
 11 61  1  0  0  0
 12 13  2  0  0  0
 12 62  1  0  0  0
 13 14  1  0  0  0
 13 63  1  0  0  0
 14 64  1  0  0  0
 15 16  2  0  0  0
 15 17  1  0  0  0
 17 18  1  0  0  0
 17 65  1  0  0  0
 18 45  1  0  0  0
 18 19  1  0  0  0
 18 25  1  0  0  0
 19 66  1  0  0  0
 19 67  1  0  0  0
 19 20  1  0  0  0
 20 21  2  0  0  0
 20 24  1  0  0  0
 21 68  1  0  0  0
 21 22  1  0  0  0
 22 23  2  0  0  0
 23 24  1  0  0  0
 23 69  1  0  0  0
 24 46  1  0  0  0
 25 26  2  0  0  0
 25 27  1  0  0  0
 27 28  1  0  0  0
 27 70  1  0  0  0
 28 47  1  0  0  0
 28 29  1  0  0  0
 28 36  1  0  0  0
 29 30  1  0  0  0
 29 71  1  0  0  0
 29 72  1  0  0  0
 30 35  1  0  0  0
 30 31  1  0  0  0
 30 73  1  0  0  0
 31 32  1  0  0  0
 31 74  1  0  0  0
 31 75  1  0  0  0
 32 33  1  0  0  0
 32 76  1  0  0  0
 32 77  1  0  0  0
 33 34  1  0  0  0
 33 78  1  0  0  0
 33 79  1  0  0  0
 34 35  1  0  0  0
 34 80  1  0  0  0
 34 81  1  0  0  0
 35 82  1  0  0  0
 35 83  1  0  0  0
 36 48  1  0  0  0
 36 37  1  0  0  0
 36 43  1  0  0  0
 37 49  1  0  0  0
 37 38  1  0  0  0
 37 42  1  0  0  0
 38 39  1  0  0  0
 38 84  1  0  0  0
 38 85  1  0  0  0
 39 40  1  0  0  0
 40 41  1  0  0  0
 40 86  1  0  0  0
 41 87  1  0  0  0
 42 88  1  0  0  0
 43 89  1  0  0  0
M  CHG  2  39  -1  41  -1
M  END
> <s_m_entry_id>
27569

> <s_m_entry_name>
ligand_docking-pose.123

> <s_m_Source_Path>
/home/csk/Desktop/cluster/DUD-E-result/reni

> <s_m_Source_File>
ligand_docking-pose.sdf

> <i_m_Source_File_Index>
123

> <i_lp_mmshare_version>
53161

> <i_f3d_flags>
0

> <r_lp_tautomer_probability>
0.499999999999999

> <s_lp_Force_Field>
OPLS_2005

> <r_lp_Energy>
18.954167

> <b_lp_Chiralities_Consistent>
1

> <s_lp_Variant>
40318-2

> <s_i_glide_gridfile>
glide-grid_3g6z

> <i_i_glide_lignum>
593

> <i_i_glide_rotatable_bonds>
22

> <r_i_docking_score>
-6.91475198707811

> <r_i_glide_ligand_efficiency>
-0.160808185746003

> <r_i_glide_ligand_efficiency_sa>
-0.563375085330531

> <r_i_glide_ligand_efficiency_ln>
-1.45231282429952

> <r_i_glide_gscore>
-6.91475198707811

> <r_i_glide_lipo>
-2.5468065364625

> <r_i_glide_hbond>
-0.17432244010033

> <r_i_glide_metal>
0

> <r_i_glide_rewards>
-0.706766078814905

> <r_i_glide_evdw>
-41.5008277893066

> <r_i_glide_ecoul>
-12.9840364456177

> <r_i_glide_erotb>
0.762786450120067

> <r_i_glide_esite>
-0.226996525512464

> <r_i_glide_emodel>
-66.2512259614109

> <r_i_glide_energy>
-54.4848642349243

> <r_i_glide_einternal>
15.8576755523682

> <i_i_glide_confnum>
183

> <i_i_glide_posenum>
222

> <r_i_glide_eff_state_penalty>
0

> <s_user_duplicate_titles>
40318

> <s_m_subgroup_title>
dock_pv

> <s_m_subgroupid>
dock_pv1

> <b_m_subgroup_collapsed>
0

$$$$
62530
                    3D
 Schrodinger Suite 2021-1.
 88 89  0  0  1  0            999 V2000
  -10.1493  -22.5431  -12.2051 C   0  0  0  0  0  0
   -9.5364  -21.7205  -11.0555 C   0  0  0  0  0  0
  -10.3250  -20.4306  -10.7622 C   0  0  0  0  0  0
   -8.0055  -21.5170  -11.2118 C   0  0  0  0  0  0
   -7.4681  -20.6871  -12.4305 C   0  0  2  0  0  0
   -5.9158  -20.8050  -12.5886 C   0  0  1  0  0  0
   -5.3494  -22.2129  -12.9043 C   0  0  0  0  0  0
   -3.8025  -22.6408  -12.0364 S   0  0  0  0  0  0
   -2.6400  -21.3936  -12.6784 C   0  0  0  0  0  0
   -2.4829  -20.1803  -11.7335 C   0  0  0  0  0  0
   -1.4936  -19.1483  -12.3101 C   0  0  0  0  0  0
   -0.1273  -19.7819  -12.6364 C   0  0  0  0  0  0
   -0.2597  -21.0342  -13.5256 C   0  0  0  0  0  0
   -1.2802  -22.0483  -12.9700 C   0  0  0  0  0  0
   -5.4690  -19.9296  -13.6209 O   0  0  0  0  0  0
   -7.8690  -19.2630  -12.4209 N   0  0  0  0  0  0
   -7.5504  -18.3760  -11.4613 C   0  0  0  0  0  0
   -7.1108  -18.7037  -10.3600 O   0  0  0  0  0  0
   -7.7067  -16.8870  -11.8370 C   0  0  2  0  0  0
   -6.5700  -16.4301  -12.7778 C   0  0  0  0  0  0
   -7.7935  -15.9947  -10.6743 N   0  0  0  0  0  0
   -6.8499  -15.7623   -9.7399 C   0  0  0  0  0  0
   -5.7013  -16.2023   -9.7940 O   0  0  0  0  0  0
   -7.2819  -14.9220   -8.5167 C   0  0  1  0  0  0
   -6.1493  -14.4950   -7.5347 C   0  0  0  0  0  0
   -5.3616  -13.2286   -7.8496 C   0  0  0  0  0  0
   -4.5799  -13.1292   -9.0215 C   0  0  0  0  0  0
   -3.8529  -11.9733   -9.2762 C   0  0  0  0  0  0
   -3.8878  -10.9124   -8.3801 C   0  0  0  0  0  0
   -4.6476  -10.9961   -7.2208 C   0  0  0  0  0  0
   -5.3849  -12.1409   -6.9504 C   0  0  0  0  0  0
   -8.1779  -13.7810   -8.8121 N   0  0  0  0  0  0
   -9.5700  -13.8552   -8.8210 C   0  0  0  0  0  0
  -10.2842  -12.8624   -8.7875 O   0  0  0  0  0  0
  -10.0296  -15.1466   -8.8210 O   0  0  0  0  0  0
  -11.3789  -15.5674   -8.5365 C   0  0  0  0  0  0
  -11.3785  -17.0541   -8.9420 C   0  0  0  0  0  0
  -12.4626  -14.8430   -9.3611 C   0  0  0  0  0  0
  -11.7026  -15.4256   -7.0338 C   0  0  0  0  0  0
   -7.9055  -21.1167  -13.3284 H   0  0  0  0  0  0
   -5.4824  -20.4561  -11.6516 H   0  0  0  0  0  0
  -10.0294  -22.0631  -13.1739 H   0  0  0  0  0  0
   -9.6767  -23.5239  -12.2774 H   0  0  0  0  0  0
  -11.2158  -22.7098  -12.0493 H   0  0  0  0  0  0
   -9.6556  -22.3337  -10.1603 H   0  0  0  0  0  0
  -10.3745  -19.7662  -11.6220 H   0  0  0  0  0  0
  -11.3508  -20.6550  -10.4688 H   0  0  0  0  0  0
   -9.8697  -19.8725   -9.9431 H   0  0  0  0  0  0
   -7.5772  -22.5168  -11.2448 H   0  0  0  0  0  0
   -7.6142  -21.1087  -10.2804 H   0  0  0  0  0  0
   -6.0668  -22.9955  -12.6684 H   0  0  0  0  0  0
   -5.1738  -22.3338  -13.9749 H   0  0  0  0  0  0
   -3.0524  -21.0456  -13.6210 H   0  0  0  0  0  0
   -3.4378  -19.6876  -11.5598 H   0  0  0  0  0  0
   -2.1266  -20.5160  -10.7583 H   0  0  0  0  0  0
   -1.9194  -18.7131  -13.2159 H   0  0  0  0  0  0
   -1.3637  -18.3235  -11.6079 H   0  0  0  0  0  0
    0.5201  -19.0505  -13.1215 H   0  0  0  0  0  0
    0.3730  -20.0525  -11.7070 H   0  0  0  0  0  0
   -0.5597  -20.7337  -14.5299 H   0  0  0  0  0  0
    0.7147  -21.5139  -13.6210 H   0  0  0  0  0  0
   -0.8788  -22.4875  -12.0553 H   0  0  0  0  0  0
   -1.4240  -22.8589  -13.6853 H   0  0  0  0  0  0
   -5.9714  -19.1111  -13.5371 H   0  0  0  0  0  0
   -8.2518  -18.8911  -13.2910 H   0  0  0  0  0  0
   -8.6519  -16.7862  -12.3730 H   0  0  0  0  0  0
   -6.5258  -17.0485  -13.6706 H   0  0  0  0  0  0
   -6.7203  -15.4008  -13.1047 H   0  0  0  0  0  0
   -5.5870  -16.4929  -12.3104 H   0  0  0  0  0  0
   -8.7090  -15.6018  -10.5116 H   0  0  0  0  0  0
   -7.8164  -15.6689   -7.9257 H   0  0  0  0  0  0
   -5.4196  -15.3001   -7.4216 H   0  0  0  0  0  0
   -6.5822  -14.3879   -6.5386 H   0  0  0  0  0  0
   -4.5318  -13.9485   -9.7232 H   0  0  0  0  0  0
   -3.2559  -11.9016  -10.1739 H   0  0  0  0  0  0
   -3.3175  -10.0193   -8.5822 H   0  0  0  0  0  0
   -4.6632  -10.1703   -6.5241 H   0  0  0  0  0  0
   -5.9598  -12.1997   -6.0388 H   0  0  0  0  0  0
   -7.7554  -12.8673   -8.8779 H   0  0  0  0  0  0
  -10.6703  -17.6367   -8.3500 H   0  0  0  0  0  0
  -12.3657  -17.5007   -8.8208 H   0  0  0  0  0  0
  -11.0949  -17.1818   -9.9879 H   0  0  0  0  0  0
  -12.5327  -13.7789   -9.1404 H   0  0  0  0  0  0
  -12.2690  -14.9507  -10.4210 H   0  0  0  0  0  0
  -13.4473  -15.2629   -9.1610 H   0  0  0  0  0  0
  -11.5663  -14.3999   -6.6898 H   0  0  0  0  0  0
  -12.7358  -15.7052   -6.8223 H   0  0  0  0  0  0
  -11.0690  -16.0636   -6.4197 H   0  0  0  0  0  0
  1  2  1  0  0  0
  1 42  1  0  0  0
  1 43  1  0  0  0
  1 44  1  0  0  0
  2  3  1  0  0  0
  2  4  1  0  0  0
  2 45  1  0  0  0
  3 46  1  0  0  0
  3 47  1  0  0  0
  3 48  1  0  0  0
  4  5  1  0  0  0
  4 49  1  0  0  0
  4 50  1  0  0  0
  5 40  1  0  0  0
  5  6  1  0  0  0
  5 16  1  0  0  0
  6 41  1  0  0  0
  6  7  1  0  0  0
  6 15  1  0  0  0
  7  8  1  0  0  0
  7 51  1  0  0  0
  7 52  1  0  0  0
  8  9  1  0  0  0
  9 14  1  0  0  0
  9 10  1  0  0  0
  9 53  1  0  0  0
 10 11  1  0  0  0
 10 54  1  0  0  0
 10 55  1  0  0  0
 11 12  1  0  0  0
 11 56  1  0  0  0
 11 57  1  0  0  0
 12 13  1  0  0  0
 12 58  1  0  0  0
 12 59  1  0  0  0
 13 14  1  0  0  0
 13 60  1  0  0  0
 13 61  1  0  0  0
 14 62  1  0  0  0
 14 63  1  0  0  0
 15 64  1  0  0  0
 16 17  1  0  0  0
 16 65  1  0  0  0
 17 18  2  0  0  0
 17 19  1  0  0  0
 19 20  1  0  0  0
 19 21  1  0  0  0
 19 66  1  0  0  0
 20 67  1  0  0  0
 20 68  1  0  0  0
 20 69  1  0  0  0
 21 22  1  0  0  0
 21 70  1  0  0  0
 22 23  2  0  0  0
 22 24  1  0  0  0
 24 25  1  0  0  0
 24 32  1  0  0  0
 24 71  1  0  0  0
 25 26  1  0  0  0
 25 72  1  0  0  0
 25 73  1  0  0  0
 26 31  1  0  0  0
 26 27  2  0  0  0
 27 28  1  0  0  0
 27 74  1  0  0  0
 28 29  2  0  0  0
 28 75  1  0  0  0
 29 30  1  0  0  0
 29 76  1  0  0  0
 30 31  2  0  0  0
 30 77  1  0  0  0
 31 78  1  0  0  0
 32 33  1  0  0  0
 32 79  1  0  0  0
 33 34  2  0  0  0
 33 35  1  0  0  0
 35 36  1  0  0  0
 36 37  1  0  0  0
 36 38  1  0  0  0
 36 39  1  0  0  0
 37 80  1  0  0  0
 37 81  1  0  0  0
 37 82  1  0  0  0
 38 83  1  0  0  0
 38 84  1  0  0  0
 38 85  1  0  0  0
 39 86  1  0  0  0
 39 87  1  0  0  0
 39 88  1  0  0  0
M  END
> <s_m_entry_id>
27570

> <s_m_entry_name>
ligand_docking-pose.124

> <s_m_Source_Path>
/home/csk/Desktop/cluster/DUD-E-result/reni

> <s_m_Source_File>
ligand_docking-pose.sdf

> <i_m_Source_File_Index>
124

> <i_lp_mmshare_version>
53161

> <i_f3d_flags>
0

> <r_lp_tautomer_probability>
1

> <s_lp_Force_Field>
OPLS_2005

> <r_lp_Energy>
21.484838

> <b_lp_Chiralities_Consistent>
1

> <s_lp_Variant>
62530-3

> <s_i_glide_gridfile>
glide-grid_3g6z

> <i_i_glide_lignum>
349

> <i_i_glide_rotatable_bonds>
19

> <r_i_docking_score>
-6.91294326444961

> <r_i_glide_ligand_efficiency>
-0.177254955498708

> <r_i_glide_ligand_efficiency_sa>
-0.601109032684119

> <r_i_glide_ligand_efficiency_ln>
-1.48233127146218

> <r_i_glide_gscore>
-6.91294326444961

> <r_i_glide_lipo>
-4.33724978692494

> <r_i_glide_hbond>
-0.456

> <r_i_glide_metal>
0

> <r_i_glide_rewards>
0.76361319601402

> <r_i_glide_evdw>
-44.8316307067871

> <r_i_glide_ecoul>
-9.12272357940674

> <r_i_glide_erotb>
0.832993933236683

> <r_i_glide_esite>
-0.106310534525006

> <r_i_glide_emodel>
-67.0152151713298

> <r_i_glide_energy>
-53.9543542861938

> <r_i_glide_einternal>
12.8985366821289

> <i_i_glide_confnum>
27

> <i_i_glide_posenum>
237

> <r_i_glide_eff_state_penalty>
0

> <s_user_duplicate_titles>
62530

> <s_m_subgroup_title>
dock_pv

> <s_m_subgroupid>
dock_pv1

> <b_m_subgroup_collapsed>
0

$$$$
549643
                    3D
 Schrodinger Suite 2021-1.
 89 89  0  0  1  0            999 V2000
  -11.2217  -23.5274  -12.6531 C   0  0  0  0  0  0
  -11.6539  -22.5075  -11.5545 C   0  0  1  0  0  0
  -10.5865  -21.4095  -11.2238 C   0  0  0  0  0  0
   -9.2431  -21.6813  -11.7485 N   0  0  0  0  0  0
   -8.0746  -21.4862  -11.1151 C   0  0  0  0  0  0
   -8.0044  -21.0592   -9.9615 O   0  0  0  0  0  0
   -6.7903  -21.8158  -11.9198 C   0  0  1  0  0  0
   -5.7705  -20.6320  -11.9116 C   0  0  0  0  0  0
   -6.2485  -19.3431  -12.6382 C   0  0  1  0  0  0
   -5.3319  -18.0991  -12.4344 C   0  0  2  0  0  0
   -5.2880  -17.5829  -10.9745 C   0  0  0  0  0  0
   -3.9935  -16.8596  -10.4877 C   0  0  2  0  0  0
   -4.0367  -16.5524   -8.9491 C   0  0  0  0  0  0
   -5.1135  -15.5639   -8.5042 C   0  0  0  0  0  0
   -4.7761  -14.2851   -8.0634 C   0  0  0  0  0  0
   -5.7746  -13.3361   -7.8551 C   0  0  0  0  0  0
   -7.1218  -13.6398   -8.1230 C   0  0  0  0  0  0
   -7.4693  -14.9411   -8.5181 C   0  0  0  0  0  0
   -6.4586  -15.9070   -8.6111 C   0  0  0  0  0  0
   -8.7989  -15.2083   -8.8210 O   0  0  0  0  0  0
   -9.1726  -16.5215   -9.2468 C   0  0  0  0  0  0
  -10.6866  -16.6371   -9.5010 C   0  0  0  0  0  0
  -11.5613  -16.5298   -8.2359 C   0  0  0  0  0  0
  -11.5098  -15.2576   -7.6011 O   0  0  0  0  0  0
  -12.1707  -14.2083   -8.2909 C   0  0  0  0  0  0
   -8.1438  -12.7143   -8.0200 O   0  0  0  0  0  0
   -7.8713  -11.4518   -7.4284 C   0  0  0  0  0  0
   -3.5310  -15.6751  -11.4015 C   0  0  0  0  0  0
   -2.1019  -15.1895  -11.0814 C   0  0  0  0  0  0
   -4.5053  -14.4780  -11.4754 C   0  0  0  0  0  0
   -5.8632  -16.9908  -13.2216 N   0  0  0  0  0  0
   -6.3011  -19.6636  -14.0211 O   0  0  0  0  0  0
   -6.1686  -23.1932  -11.5059 C   0  0  0  0  0  0
   -5.5323  -23.2185  -10.0999 C   0  0  0  0  0  0
   -5.1710  -23.7275  -12.5547 C   0  0  0  0  0  0
  -13.0614  -21.8963  -11.7909 C   0  0  0  0  0  0
  -13.4413  -20.9176  -11.1546 O   0  0  0  0  0  0
  -13.8687  -22.4585  -12.6923 N   0  0  0  0  0  0
  -11.7651  -23.1029  -10.6479 H   0  0  0  0  0  0
   -7.1034  -21.9411  -12.9596 H   0  0  0  0  0  0
   -7.2569  -19.0921  -12.3067 H   0  0  0  0  0  0
   -4.3254  -18.3428  -12.7739 H   0  0  0  0  0  0
   -3.2101  -17.6153  -10.5924 H   0  0  0  0  0  0
  -11.9572  -24.3243  -12.7882 H   0  0  0  0  0  0
  -11.0834  -23.0401  -13.6166 H   0  0  0  0  0  0
  -10.2849  -24.0235  -12.3921 H   0  0  0  0  0  0
  -10.8720  -20.4334  -11.6232 H   0  0  0  0  0  0
  -10.5609  -21.2600  -10.1426 H   0  0  0  0  0  0
   -9.1993  -21.9787  -12.7157 H   0  0  0  0  0  0
   -5.5126  -20.4209  -10.8766 H   0  0  0  0  0  0
   -4.8322  -20.9452  -12.3683 H   0  0  0  0  0  0
   -6.1551  -16.9382  -10.8469 H   0  0  0  0  0  0
   -5.4702  -18.4006  -10.2831 H   0  0  0  0  0  0
   -4.1954  -17.4836   -8.4051 H   0  0  0  0  0  0
   -3.0621  -16.2075   -8.6056 H   0  0  0  0  0  0
   -3.7409  -14.0053   -7.9332 H   0  0  0  0  0  0
   -5.4736  -12.3486   -7.5391 H   0  0  0  0  0  0
   -6.7093  -16.9289   -8.8506 H   0  0  0  0  0  0
   -8.6422  -16.7646  -10.1728 H   0  0  0  0  0  0
   -8.8849  -17.2620   -8.4985 H   0  0  0  0  0  0
  -11.0016  -15.9134  -10.2525 H   0  0  0  0  0  0
  -10.8747  -17.6118   -9.9513 H   0  0  0  0  0  0
  -12.5972  -16.7951   -8.4598 H   0  0  0  0  0  0
  -11.2193  -17.2615   -7.5040 H   0  0  0  0  0  0
  -12.1044  -13.2926   -7.7028 H   0  0  0  0  0  0
  -11.7071  -14.0182   -9.2557 H   0  0  0  0  0  0
  -13.2274  -14.4294   -8.4441 H   0  0  0  0  0  0
   -8.7919  -10.8699   -7.3599 H   0  0  0  0  0  0
   -7.4689  -11.5632   -6.4227 H   0  0  0  0  0  0
   -7.1627  -10.8793   -8.0208 H   0  0  0  0  0  0
   -3.4574  -16.0769  -12.4159 H   0  0  0  0  0  0
   -2.0484  -14.6973  -10.1098 H   0  0  0  0  0  0
   -1.3903  -16.0153  -11.0782 H   0  0  0  0  0  0
   -1.7554  -14.4689  -11.8276 H   0  0  0  0  0  0
   -4.4546  -13.8536  -10.5872 H   0  0  0  0  0  0
   -4.2653  -13.8186  -12.3100 H   0  0  0  0  0  0
   -5.5412  -14.7913  -11.6015 H   0  0  0  0  0  0
   -5.2158  -16.2115  -13.2193 H   0  0  0  0  0  0
   -6.0003  -17.2636  -14.1886 H   0  0  0  0  0  0
   -6.8760  -19.0167  -14.4591 H   0  0  0  0  0  0
   -6.9833  -23.9205  -11.4902 H   0  0  0  0  0  0
   -4.6706  -22.5547  -10.0337 H   0  0  0  0  0  0
   -6.2394  -22.9237   -9.3258 H   0  0  0  0  0  0
   -5.1869  -24.2211   -9.8445 H   0  0  0  0  0  0
   -4.2652  -23.1240  -12.6055 H   0  0  0  0  0  0
   -4.8612  -24.7475  -12.3215 H   0  0  0  0  0  0
   -5.6115  -23.7474  -13.5511 H   0  0  0  0  0  0
  -13.6075  -23.3060  -13.1765 H   0  0  0  0  0  0
  -14.8032  -22.0803  -12.8205 H   0  0  0  0  0  0
  1  2  1  0  0  0
  1 44  1  0  0  0
  1 45  1  0  0  0
  1 46  1  0  0  0
  2 39  1  0  0  0
  2  3  1  0  0  0
  2 36  1  0  0  0
  3  4  1  0  0  0
  3 47  1  0  0  0
  3 48  1  0  0  0
  4  5  1  0  0  0
  4 49  1  0  0  0
  5  6  2  0  0  0
  5  7  1  0  0  0
  7 40  1  0  0  0
  7  8  1  0  0  0
  7 33  1  0  0  0
  8  9  1  0  0  0
  8 50  1  0  0  0
  8 51  1  0  0  0
  9 41  1  0  0  0
  9 10  1  0  0  0
  9 32  1  0  0  0
 10 42  1  0  0  0
 10 11  1  0  0  0
 10 31  1  0  0  0
 11 12  1  0  0  0
 11 52  1  0  0  0
 11 53  1  0  0  0
 12 43  1  0  0  0
 12 13  1  0  0  0
 12 28  1  0  0  0
 13 14  1  0  0  0
 13 54  1  0  0  0
 13 55  1  0  0  0
 14 19  1  0  0  0
 14 15  2  0  0  0
 15 16  1  0  0  0
 15 56  1  0  0  0
 16 17  2  0  0  0
 16 57  1  0  0  0
 17 18  1  0  0  0
 17 26  1  0  0  0
 18 19  2  0  0  0
 18 20  1  0  0  0
 19 58  1  0  0  0
 20 21  1  0  0  0
 21 22  1  0  0  0
 21 59  1  0  0  0
 21 60  1  0  0  0
 22 23  1  0  0  0
 22 61  1  0  0  0
 22 62  1  0  0  0
 23 24  1  0  0  0
 23 63  1  0  0  0
 23 64  1  0  0  0
 24 25  1  0  0  0
 25 65  1  0  0  0
 25 66  1  0  0  0
 25 67  1  0  0  0
 26 27  1  0  0  0
 27 68  1  0  0  0
 27 69  1  0  0  0
 27 70  1  0  0  0
 28 29  1  0  0  0
 28 30  1  0  0  0
 28 71  1  0  0  0
 29 72  1  0  0  0
 29 73  1  0  0  0
 29 74  1  0  0  0
 30 75  1  0  0  0
 30 76  1  0  0  0
 30 77  1  0  0  0
 31 78  1  0  0  0
 31 79  1  0  0  0
 32 80  1  0  0  0
 33 34  1  0  0  0
 33 35  1  0  0  0
 33 81  1  0  0  0
 34 82  1  0  0  0
 34 83  1  0  0  0
 34 84  1  0  0  0
 35 85  1  0  0  0
 35 86  1  0  0  0
 35 87  1  0  0  0
 36 37  2  0  0  0
 36 38  1  0  0  0
 38 88  1  0  0  0
 38 89  1  0  0  0
M  END
> <s_m_entry_id>
27571

> <s_m_entry_name>
ligand_docking-pose.125

> <s_m_Source_Path>
/home/csk/Desktop/cluster/DUD-E-result/reni

> <s_m_Source_File>
ligand_docking-pose.sdf

> <i_m_Source_File_Index>
125

> <i_lp_mmshare_version>
53161

> <i_f3d_flags>
0

> <r_lp_tautomer_probability>
1

> <s_lp_Force_Field>
OPLS_2005

> <r_lp_Energy>
31.43877

> <b_lp_Chiralities_Consistent>
1

> <s_lp_Variant>
549643-1

> <s_i_glide_gridfile>
glide-grid_3g6z

> <i_i_glide_lignum>
709

> <i_i_glide_rotatable_bonds>
21

> <r_i_docking_score>
-6.9103507645438

> <r_i_glide_ligand_efficiency>
-0.181851335909047

> <r_i_glide_ligand_efficiency_sa>
-0.611379718278439

> <r_i_glide_ligand_efficiency_ln>
-1.49007490675958

> <r_i_glide_gscore>
-6.9103507645438

> <r_i_glide_lipo>
-2.52364465054441

> <r_i_glide_hbond>
-0.941515119440989

> <r_i_glide_metal>
0

> <r_i_glide_rewards>
-0.433569000892285

> <r_i_glide_evdw>
-41.9024696350098

> <r_i_glide_ecoul>
-13.2543344497681

> <r_i_glide_erotb>
1.07165165554958

> <r_i_glide_esite>
0

> <r_i_glide_emodel>
-71.0996844265893

> <r_i_glide_energy>
-55.1568040847778

> <r_i_glide_einternal>
14.7467613220215

> <i_i_glide_confnum>
160

> <i_i_glide_posenum>
341

> <r_i_glide_eff_state_penalty>
0

> <s_user_duplicate_titles>
549643

> <s_m_subgroup_title>
dock_pv

> <s_m_subgroupid>
dock_pv1

> <b_m_subgroup_collapsed>
0

$$$$
72859
                    3D
 Schrodinger Suite 2021-1.
 95 97  0  0  1  0            999 V2000
   -9.6455  -10.6614   -7.6179 C   0  0  0  0  0  0
   -8.2948  -11.3988   -7.6181 C   0  0  0  0  0  0
   -8.3931  -12.9075   -7.9194 C   0  0  0  0  0  0
   -8.1200  -13.3316   -9.3735 C   0  0  0  0  0  0
   -8.1391  -14.8497   -9.6432 C   0  0  1  0  0  0
   -6.9456  -15.5874   -8.9804 C   0  0  0  0  0  0
   -7.0232  -16.0682   -7.8496 O   0  0  0  0  0  0
   -5.8449  -15.6680   -9.7409 N   0  0  0  0  0  0
   -4.5908  -16.3683   -9.4562 C   0  0  1  0  0  0
   -4.4569  -17.5537  -10.4454 C   0  0  0  0  0  0
   -3.3880  -18.6401  -10.1873 C   0  0  0  0  0  0
   -3.5865  -19.3570   -8.8284 C   0  0  0  0  0  0
   -2.5721  -20.4948   -8.6045 C   0  0  0  0  0  0
   -2.6157  -21.5127   -9.7612 C   0  0  0  0  0  0
   -2.4115  -20.8272  -11.1281 C   0  0  0  0  0  0
   -3.4251  -19.6859  -11.3314 C   0  0  0  0  0  0
   -3.4081  -15.3490   -9.4477 C   0  0  2  0  0  0
   -2.9920  -14.7761  -10.8426 C   0  0  2  0  0  0
   -1.9961  -13.5842  -10.8195 C   0  0  0  0  0  0
   -2.3196  -12.3609   -9.9127 C   0  0  0  0  0  0
   -3.7008  -11.7300  -10.1790 C   0  0  0  0  0  0
   -1.2142  -11.2921  -10.0282 C   0  0  0  0  0  0
   -4.1165  -14.4014  -11.6210 O   0  0  0  0  0  0
   -2.2815  -15.8962   -8.7810 O   0  0  0  0  0  0
   -9.4303  -15.3182   -9.2206 O   0  0  0  0  0  0
   -9.7919  -16.7116   -9.1474 C   0  0  1  0  0  0
  -11.3136  -16.8202   -8.8357 C   0  0  0  0  0  0
  -11.9466  -15.5498   -8.2774 C   0  0  0  0  0  0
  -12.1331  -15.3854   -6.9064 C   0  0  0  0  0  0
  -12.6692  -14.1966   -6.4210 C   0  0  0  0  0  0
  -12.9997  -13.1669   -7.2956 C   0  0  0  0  0  0
  -12.8147  -13.3228   -8.6654 C   0  0  0  0  0  0
  -12.3037  -14.5236   -9.1525 C   0  0  0  0  0  0
   -9.4402  -17.4908  -10.4463 C   0  0  0  0  0  0
   -9.4532  -16.8715  -11.5132 O   0  0  0  0  0  0
   -9.2541  -18.8383  -10.4009 N   0  0  0  0  0  0
   -9.0230  -19.5882   -9.1564 C   0  0  0  0  0  0
   -7.5238  -19.9443   -9.1206 C   0  0  0  0  0  0
   -7.1874  -20.7091  -10.2791 O   0  0  0  0  0  0
   -7.4538  -20.0385  -11.5119 C   0  0  0  0  0  0
   -8.9308  -19.5929  -11.6264 C   0  0  0  0  0  0
   -8.0561  -14.9725  -10.7244 H   0  0  0  0  0  0
   -4.6726  -16.7754   -8.4466 H   0  0  0  0  0  0
   -3.7265  -14.5085   -8.8275 H   0  0  0  0  0  0
   -2.5090  -15.5864  -11.3937 H   0  0  0  0  0  0
   -9.2389  -17.1130   -8.3006 H   0  0  0  0  0  0
   -9.5026   -9.5805   -7.6492 H   0  0  0  0  0  0
  -10.2691  -10.9411   -8.4613 H   0  0  0  0  0  0
  -10.2170  -10.8883   -6.7191 H   0  0  0  0  0  0
   -7.8660  -11.2645   -6.6248 H   0  0  0  0  0  0
   -7.5760  -10.9225   -8.2756 H   0  0  0  0  0  0
   -9.3824  -13.2630   -7.6316 H   0  0  0  0  0  0
   -7.6811  -13.4212   -7.2719 H   0  0  0  0  0  0
   -7.1448  -12.9629   -9.6629 H   0  0  0  0  0  0
   -8.8435  -12.8632  -10.0368 H   0  0  0  0  0  0
   -5.8318  -15.1608  -10.6182 H   0  0  0  0  0  0
   -4.3469  -17.1687  -11.4594 H   0  0  0  0  0  0
   -5.4154  -18.0630  -10.4541 H   0  0  0  0  0  0
   -2.3928  -18.1943  -10.1867 H   0  0  0  0  0  0
   -4.5945  -19.7728   -8.7881 H   0  0  0  0  0  0
   -3.5386  -18.6416   -8.0101 H   0  0  0  0  0  0
   -2.7788  -20.9968   -7.6582 H   0  0  0  0  0  0
   -1.5689  -20.0748   -8.5158 H   0  0  0  0  0  0
   -3.5802  -22.0252   -9.7546 H   0  0  0  0  0  0
   -1.8656  -22.2884   -9.6101 H   0  0  0  0  0  0
   -2.5100  -21.5613  -11.9286 H   0  0  0  0  0  0
   -1.3965  -20.4351  -11.1981 H   0  0  0  0  0  0
   -3.2640  -19.1996  -12.2934 H   0  0  0  0  0  0
   -4.4270  -20.1133  -11.4009 H   0  0  0  0  0  0
   -1.0176  -13.9747  -10.5364 H   0  0  0  0  0  0
   -1.8689  -13.2351  -11.8458 H   0  0  0  0  0  0
   -2.3119  -12.7039   -8.8768 H   0  0  0  0  0  0
   -3.8171  -11.4524  -11.2266 H   0  0  0  0  0  0
   -4.5080  -12.4176   -9.9277 H   0  0  0  0  0  0
   -3.8523  -10.8326   -9.5775 H   0  0  0  0  0  0
   -1.1643  -10.8676  -11.0323 H   0  0  0  0  0  0
   -1.3834  -10.4705   -9.3334 H   0  0  0  0  0  0
   -0.2324  -11.7088   -9.7993 H   0  0  0  0  0  0
   -3.8701  -14.4592  -12.5595 H   0  0  0  0  0  0
   -2.5691  -16.2667   -7.9402 H   0  0  0  0  0  0
  -11.8862  -17.0799   -9.7284 H   0  0  0  0  0  0
  -11.4697  -17.6626   -8.1670 H   0  0  0  0  0  0
  -11.8484  -16.1649   -6.2175 H   0  0  0  0  0  0
  -12.8250  -14.0713   -5.3612 H   0  0  0  0  0  0
  -13.4037  -12.2433   -6.9085 H   0  0  0  0  0  0
  -13.0720  -12.5241   -9.3457 H   0  0  0  0  0  0
  -12.1712  -14.6626  -10.2127 H   0  0  0  0  0  0
   -9.4643  -19.1975   -8.2423 H   0  0  0  0  0  0
   -9.5784  -20.5163   -9.3088 H   0  0  0  0  0  0
   -7.2927  -20.5240   -8.2258 H   0  0  0  0  0  0
   -6.9186  -19.0370   -9.0528 H   0  0  0  0  0  0
   -7.2114  -20.7092  -12.3366 H   0  0  0  0  0  0
   -6.7994  -19.1777  -11.6350 H   0  0  0  0  0  0
   -9.5941  -20.4590  -11.6208 H   0  0  0  0  0  0
   -9.1013  -19.0066  -12.5303 H   0  0  0  0  0  0
  1  2  1  0  0  0
  1 47  1  0  0  0
  1 48  1  0  0  0
  1 49  1  0  0  0
  2  3  1  0  0  0
  2 50  1  0  0  0
  2 51  1  0  0  0
  3  4  1  0  0  0
  3 52  1  0  0  0
  3 53  1  0  0  0
  4  5  1  0  0  0
  4 54  1  0  0  0
  4 55  1  0  0  0
  5 42  1  0  0  0
  5  6  1  0  0  0
  5 25  1  0  0  0
  6  7  2  0  0  0
  6  8  1  0  0  0
  8  9  1  0  0  0
  8 56  1  0  0  0
  9 43  1  0  0  0
  9 10  1  0  0  0
  9 17  1  0  0  0
 10 11  1  0  0  0
 10 57  1  0  0  0
 10 58  1  0  0  0
 11 16  1  0  0  0
 11 12  1  0  0  0
 11 59  1  0  0  0
 12 13  1  0  0  0
 12 60  1  0  0  0
 12 61  1  0  0  0
 13 14  1  0  0  0
 13 62  1  0  0  0
 13 63  1  0  0  0
 14 15  1  0  0  0
 14 64  1  0  0  0
 14 65  1  0  0  0
 15 16  1  0  0  0
 15 66  1  0  0  0
 15 67  1  0  0  0
 16 68  1  0  0  0
 16 69  1  0  0  0
 17 44  1  0  0  0
 17 18  1  0  0  0
 17 24  1  0  0  0
 18 45  1  0  0  0
 18 19  1  0  0  0
 18 23  1  0  0  0
 19 20  1  0  0  0
 19 70  1  0  0  0
 19 71  1  0  0  0
 20 21  1  0  0  0
 20 22  1  0  0  0
 20 72  1  0  0  0
 21 73  1  0  0  0
 21 74  1  0  0  0
 21 75  1  0  0  0
 22 76  1  0  0  0
 22 77  1  0  0  0
 22 78  1  0  0  0
 23 79  1  0  0  0
 24 80  1  0  0  0
 25 26  1  0  0  0
 26 46  1  0  0  0
 26 27  1  0  0  0
 26 34  1  0  0  0
 27 28  1  0  0  0
 27 81  1  0  0  0
 27 82  1  0  0  0
 28 33  1  0  0  0
 28 29  2  0  0  0
 29 30  1  0  0  0
 29 83  1  0  0  0
 30 31  2  0  0  0
 30 84  1  0  0  0
 31 32  1  0  0  0
 31 85  1  0  0  0
 32 33  2  0  0  0
 32 86  1  0  0  0
 33 87  1  0  0  0
 34 35  2  0  0  0
 34 36  1  0  0  0
 36 41  1  0  0  0
 36 37  1  0  0  0
 37 38  1  0  0  0
 37 88  1  0  0  0
 37 89  1  0  0  0
 38 39  1  0  0  0
 38 90  1  0  0  0
 38 91  1  0  0  0
 39 40  1  0  0  0
 40 41  1  0  0  0
 40 92  1  0  0  0
 40 93  1  0  0  0
 41 94  1  0  0  0
 41 95  1  0  0  0
M  END
> <s_m_entry_id>
27572

> <s_m_entry_name>
ligand_docking-pose.126

> <s_m_Source_Path>
/home/csk/Desktop/cluster/DUD-E-result/reni

> <s_m_Source_File>
ligand_docking-pose.sdf

> <i_m_Source_File_Index>
126

> <i_lp_mmshare_version>
53161

> <i_f3d_flags>
0

> <r_lp_tautomer_probability>
1

> <s_lp_Force_Field>
OPLS_2005

> <r_lp_Energy>
53.368591

> <b_lp_Chiralities_Consistent>
1

> <s_lp_Variant>
72859-1

> <s_i_glide_gridfile>
glide-grid_3g6z

> <i_i_glide_lignum>
381

> <i_i_glide_rotatable_bonds>
20

> <r_i_docking_score>
-6.91033640423651

> <r_i_glide_ligand_efficiency>
-0.168544790347232

> <r_i_glide_ligand_efficiency_sa>
-0.581179051132601

> <r_i_glide_ligand_efficiency_ln>
-1.46605086470401

> <r_i_glide_gscore>
-6.91033640423651

> <r_i_glide_lipo>
-3.73485224954235

> <r_i_glide_hbond>
-0.32

> <r_i_glide_metal>
0

> <r_i_glide_rewards>
-1.0165624812138

> <r_i_glide_evdw>
-36.3847541809082

> <r_i_glide_ecoul>
-4.97573614120483

> <r_i_glide_erotb>
0.726676456745774

> <r_i_glide_esite>
0

> <r_i_glide_emodel>
-47.4902223438758

> <r_i_glide_energy>
-41.360490322113

> <r_i_glide_einternal>
12.6122150421143

> <i_i_glide_confnum>
144

> <i_i_glide_posenum>
348

> <r_i_glide_eff_state_penalty>
0

> <s_user_duplicate_titles>
72859

> <s_m_subgroup_title>
dock_pv

> <s_m_subgroupid>
dock_pv1

> <b_m_subgroup_collapsed>
0

$$$$
150082
                    3D
 Schrodinger Suite 2021-1.
 83 83  0  0  1  0            999 V2000
   -9.9691  -21.9550  -10.7187 C   0  0  0  0  0  0
   -8.9618  -21.8958  -11.8712 C   0  0  0  0  0  0
   -8.1739  -20.5686  -11.9046 C   0  0  0  0  0  0
   -7.2490  -20.4362  -13.1331 C   0  0  0  0  0  0
   -6.5294  -19.1731  -13.2091 N   0  0  0  0  0  0
   -5.4826  -18.8416  -12.4362 C   0  0  0  0  0  0
   -4.9782  -19.6315  -11.6339 O   0  0  0  0  0  0
   -4.9630  -17.3888  -12.5417 C   0  0  2  0  0  0
   -3.4376  -17.3561  -12.2738 C   0  0  0  0  0  0
   -5.8025  -16.4880  -11.5753 C   0  0  0  0  0  0
   -5.4387  -14.9863  -11.4001 C   0  0  1  0  0  0
   -4.2274  -14.7056  -10.4412 C   0  0  2  0  0  0
   -4.5402  -14.9644   -8.9232 C   0  0  0  0  0  0
   -5.1232  -13.8232   -8.0116 C   0  0  2  0  0  0
   -6.3307  -13.0806   -8.6537 C   0  0  0  0  0  0
   -7.7403  -13.6872   -8.7088 C   0  0  0  0  0  0
   -7.9881  -15.0030   -9.0866 C   0  0  0  0  0  0
   -9.2808  -15.5064   -9.1575 C   0  0  0  0  0  0
  -10.3869  -14.7325   -8.7655 C   0  0  0  0  0  0
  -10.1558  -13.3718   -8.4216 C   0  0  0  0  0  0
   -8.8404  -12.8669   -8.4209 C   0  0  0  0  0  0
  -11.1930  -12.5838   -7.9488 O   0  0  0  0  0  0
  -11.2398  -11.1938   -8.2936 C   0  0  0  0  0  0
  -10.7001  -10.2918   -7.1805 C   0  0  0  0  0  0
  -10.6660  -10.5955   -5.9956 O   0  0  0  0  0  0
  -10.2682   -9.1051   -7.6725 O   0  0  0  0  0  0
  -11.7645  -15.4146   -8.5276 C   0  0  0  0  0  0
  -12.0552  -15.4767   -7.0078 C   0  0  0  0  0  0
  -11.8328  -16.8757   -9.0470 C   0  0  0  0  0  0
  -12.9147  -14.6676   -9.2234 C   0  0  0  0  0  0
   -4.0396  -12.7663   -7.5603 C   0  0  0  0  0  0
   -2.6737  -13.3716   -7.1671 C   0  0  0  0  0  0
   -4.5308  -11.8289   -6.4359 C   0  0  0  0  0  0
   -3.6291  -13.4005  -10.6520 N   0  0  0  0  0  0
   -5.4716  -14.2711  -12.6257 O   0  0  0  0  0  0
   -6.3082  -14.5322  -10.9483 H   0  0  0  0  0  0
   -3.4209  -15.3860  -10.6895 H   0  0  0  0  0  0
   -5.4797  -14.3064   -7.0981 H   0  0  0  0  0  0
  -10.4992  -22.9050  -10.7206 H   0  0  0  0  0  0
   -9.4679  -21.8436   -9.7505 H   0  0  0  0  0  0
  -10.7170  -21.1617  -10.7962 H   0  0  0  0  0  0
   -9.4935  -22.0566  -12.8116 H   0  0  0  0  0  0
   -8.2606  -22.7231  -11.7892 H   0  0  0  0  0  0
   -7.5760  -20.4788  -10.9940 H   0  0  0  0  0  0
   -8.8630  -19.7231  -11.8936 H   0  0  0  0  0  0
   -7.8748  -20.4654  -14.0211 H   0  0  0  0  0  0
   -6.5731  -21.2925  -13.2202 H   0  0  0  0  0  0
   -6.9253  -18.4849  -13.8378 H   0  0  0  0  0  0
   -5.1328  -17.0438  -13.5686 H   0  0  0  0  0  0
   -2.9048  -18.0536  -12.9229 H   0  0  0  0  0  0
   -3.0020  -16.3765  -12.4286 H   0  0  0  0  0  0
   -3.2130  -17.6480  -11.2510 H   0  0  0  0  0  0
   -5.8100  -16.9544  -10.5912 H   0  0  0  0  0  0
   -6.8457  -16.5221  -11.8995 H   0  0  0  0  0  0
   -3.6296  -15.3563   -8.4704 H   0  0  0  0  0  0
   -5.1739  -15.8439   -8.8197 H   0  0  0  0  0  0
   -6.0171  -12.8631   -9.6566 H   0  0  0  0  0  0
   -6.4480  -12.1025   -8.1919 H   0  0  0  0  0  0
   -7.1909  -15.6809   -9.3197 H   0  0  0  0  0  0
   -9.3826  -16.5384   -9.4290 H   0  0  0  0  0  0
   -8.6682  -11.8560   -8.1020 H   0  0  0  0  0  0
  -12.2909  -10.9287   -8.4325 H   0  0  0  0  0  0
  -10.7446  -10.9906   -9.2423 H   0  0  0  0  0  0
   -9.9400   -8.5408   -6.9719 H   0  0  0  0  0  0
  -12.1052  -14.4852   -6.5538 H   0  0  0  0  0  0
  -13.0142  -15.9595   -6.8205 H   0  0  0  0  0  0
  -11.2938  -16.0513   -6.4825 H   0  0  0  0  0  0
  -11.6378  -16.9387  -10.1179 H   0  0  0  0  0  0
  -11.1227  -17.5304   -8.5366 H   0  0  0  0  0  0
  -12.8219  -17.3075   -8.8728 H   0  0  0  0  0  0
  -12.9145  -14.8638  -10.2922 H   0  0  0  0  0  0
  -13.8558  -15.0281   -8.8209 H   0  0  0  0  0  0
  -12.9246  -13.5899   -9.0906 H   0  0  0  0  0  0
   -3.8349  -12.1089   -8.4044 H   0  0  0  0  0  0
   -2.7924  -14.1574   -6.4238 H   0  0  0  0  0  0
   -2.1563  -13.8062   -8.0235 H   0  0  0  0  0  0
   -2.0036  -12.6117   -6.7623 H   0  0  0  0  0  0
   -4.9693  -12.3940   -5.6211 H   0  0  0  0  0  0
   -3.7108  -11.2276   -6.0250 H   0  0  0  0  0  0
   -5.2631  -11.1000   -6.7663 H   0  0  0  0  0  0
   -4.3449  -12.6928  -10.5884 H   0  0  0  0  0  0
   -2.9548  -13.2124   -9.9261 H   0  0  0  0  0  0
   -4.7543  -14.5581  -13.2210 H   0  0  0  0  0  0
  1  2  1  0  0  0
  1 39  1  0  0  0
  1 40  1  0  0  0
  1 41  1  0  0  0
  2  3  1  0  0  0
  2 42  1  0  0  0
  2 43  1  0  0  0
  3  4  1  0  0  0
  3 44  1  0  0  0
  3 45  1  0  0  0
  4  5  1  0  0  0
  4 46  1  0  0  0
  4 47  1  0  0  0
  5  6  1  0  0  0
  5 48  1  0  0  0
  6  7  2  0  0  0
  6  8  1  0  0  0
  8  9  1  0  0  0
  8 10  1  0  0  0
  8 49  1  0  0  0
  9 50  1  0  0  0
  9 51  1  0  0  0
  9 52  1  0  0  0
 10 11  1  0  0  0
 10 53  1  0  0  0
 10 54  1  0  0  0
 11 36  1  0  0  0
 11 12  1  0  0  0
 11 35  1  0  0  0
 12 37  1  0  0  0
 12 13  1  0  0  0
 12 34  1  0  0  0
 13 14  1  0  0  0
 13 55  1  0  0  0
 13 56  1  0  0  0
 14 38  1  0  0  0
 14 15  1  0  0  0
 14 31  1  0  0  0
 15 16  1  0  0  0
 15 57  1  0  0  0
 15 58  1  0  0  0
 16 21  1  0  0  0
 16 17  2  0  0  0
 17 18  1  0  0  0
 17 59  1  0  0  0
 18 19  2  0  0  0
 18 60  1  0  0  0
 19 20  1  0  0  0
 19 27  1  0  0  0
 20 21  2  0  0  0
 20 22  1  0  0  0
 21 61  1  0  0  0
 22 23  1  0  0  0
 23 24  1  0  0  0
 23 62  1  0  0  0
 23 63  1  0  0  0
 24 25  2  0  0  0
 24 26  1  0  0  0
 26 64  1  0  0  0
 27 28  1  0  0  0
 27 29  1  0  0  0
 27 30  1  0  0  0
 28 65  1  0  0  0
 28 66  1  0  0  0
 28 67  1  0  0  0
 29 68  1  0  0  0
 29 69  1  0  0  0
 29 70  1  0  0  0
 30 71  1  0  0  0
 30 72  1  0  0  0
 30 73  1  0  0  0
 31 32  1  0  0  0
 31 33  1  0  0  0
 31 74  1  0  0  0
 32 75  1  0  0  0
 32 76  1  0  0  0
 32 77  1  0  0  0
 33 78  1  0  0  0
 33 79  1  0  0  0
 33 80  1  0  0  0
 34 81  1  0  0  0
 34 82  1  0  0  0
 35 83  1  0  0  0
M  END
> <s_m_entry_id>
27573

> <s_m_entry_name>
ligand_docking-pose.127

> <s_m_Source_Path>
/home/csk/Desktop/cluster/DUD-E-result/reni

> <s_m_Source_File>
ligand_docking-pose.sdf

> <i_m_Source_File_Index>
127

> <i_lp_mmshare_version>
53161

> <i_f3d_flags>
0

> <r_lp_tautomer_probability>
1

> <s_lp_Force_Field>
OPLS_2005

> <r_lp_Energy>
33.456601

> <b_lp_Chiralities_Consistent>
1

> <s_lp_Variant>
150082-1

> <s_i_glide_gridfile>
glide-grid_3g6z

> <i_i_glide_lignum>
522

> <i_i_glide_rotatable_bonds>
19

> <r_i_docking_score>
-6.90581769383455

> <r_i_glide_ligand_efficiency>
-0.197309076966701

> <r_i_glide_ligand_efficiency_sa>
-0.645411073595298

> <r_i_glide_ligand_efficiency_ln>
-1.51598025016263

> <r_i_glide_gscore>
-6.90581769383455

> <r_i_glide_lipo>
-3.39476485904639

> <r_i_glide_hbond>
-0.420536158378428

> <r_i_glide_metal>
0

> <r_i_glide_rewards>
-1.25725168465105

> <r_i_glide_evdw>
-30.9925498962402

> <r_i_glide_ecoul>
-8.95714473724365

> <r_i_glide_erotb>
1.1746026186503

> <r_i_glide_esite>
-0.114668405010419

> <r_i_glide_emodel>
-48.0525430001803

> <r_i_glide_energy>
-39.9496946334839

> <r_i_glide_einternal>
15.7500476837158

> <i_i_glide_confnum>
229

> <i_i_glide_posenum>
1

> <r_i_glide_eff_state_penalty>
0

> <s_user_duplicate_titles>
150082

> <s_m_subgroup_title>
dock_pv

> <s_m_subgroupid>
dock_pv1

> <b_m_subgroup_collapsed>
0

$$$$
43082
                    3D
 Schrodinger Suite 2021-1.
 74 78  0  0  1  0            999 V2000
   -4.8269  -13.2111  -11.8394 C   0  0  0  0  0  0
   -3.9275  -12.7199  -10.8517 O   0  0  0  0  0  0
   -2.7641  -13.4243  -10.5850 C   0  0  0  0  0  0
   -2.4256  -14.6361  -11.2157 C   0  0  0  0  0  0
   -1.2378  -15.2955  -10.9082 C   0  0  0  0  0  0
   -0.3645  -14.7523   -9.9705 C   0  0  0  0  0  0
   -0.6827  -13.5514   -9.3354 C   0  0  0  0  0  0
   -1.8773  -12.8879   -9.6327 C   0  0  0  0  0  0
   -2.2095  -11.5866   -8.9191 C   0  0  0  0  0  0
   -3.1761  -11.8663   -7.9183 O   0  0  0  0  0  0
   -3.8807  -10.7395   -7.4212 C   0  0  0  0  0  0
   -4.9773  -11.2287   -6.4591 C   0  0  0  0  0  0
   -6.0102  -12.1614   -7.1135 C   0  0  0  0  0  0
   -5.3915  -13.4266   -7.3382 O   0  0  0  0  0  0
   -5.8976  -14.3092   -8.2709 C   0  0  0  0  0  0
   -5.2649  -15.5471   -8.3473 C   0  0  0  0  0  0
   -5.7178  -16.5278   -9.2279 C   0  0  0  0  0  0
   -6.8118  -16.2720  -10.0630 C   0  0  0  0  0  0
   -7.4112  -15.0093  -10.0284 C   0  0  0  0  0  0
   -6.9803  -14.0423   -9.1232 C   0  0  0  0  0  0
   -7.4183  -17.3477  -10.9798 C   0  0  1  0  0  0
   -6.4496  -18.4934  -11.3754 C   0  0  0  0  0  0
   -7.1353  -19.5565  -12.2613 C   0  0  0  0  0  0
   -8.3415  -20.0843  -11.6208 N   0  0  1  0  0  0
   -9.3099  -19.0161  -11.3553 C   0  0  0  0  0  0
   -8.7249  -17.9500  -10.3989 C   0  0  2  0  0  0
   -9.6799  -16.9170  -10.1352 O   0  0  0  0  0  0
  -10.6960  -17.2236   -9.1836 C   0  0  0  0  0  0
  -11.4075  -15.9611   -8.6997 C   0  0  0  0  0  0
  -12.6684  -16.0619   -8.1145 C   0  0  0  0  0  0
  -13.3262  -14.9341   -7.6230 C   0  0  0  0  0  0
  -12.7140  -13.6595   -7.7034 C   0  0  0  0  0  0
  -13.3183  -12.4751   -7.2121 C   0  0  0  0  0  0
  -12.6409  -11.2637   -7.3194 C   0  0  0  0  0  0
  -11.3837  -11.2472   -7.9186 C   0  0  0  0  0  0
  -10.7699  -12.3575   -8.4006 N   0  0  0  0  0  0
  -11.4214  -13.5502   -8.2977 C   0  0  0  0  0  0
  -10.7918  -14.7132   -8.7926 C   0  0  0  0  0  0
   -7.6654  -16.8185  -11.9041 H   0  0  0  0  0  0
   -8.4739  -18.4200   -9.4448 H   0  0  0  0  0  0
   -5.6840  -12.5424  -11.9097 H   0  0  0  0  0  0
   -4.3551  -13.2525  -12.8205 H   0  0  0  0  0  0
   -5.1969  -14.2043  -11.5882 H   0  0  0  0  0  0
   -3.0782  -15.0828  -11.9541 H   0  0  0  0  0  0
   -0.9959  -16.2258  -11.3982 H   0  0  0  0  0  0
    0.5600  -15.2586   -9.7334 H   0  0  0  0  0  0
    0.0021  -13.1409   -8.6084 H   0  0  0  0  0  0
   -1.3195  -11.1556   -8.4577 H   0  0  0  0  0  0
   -2.5715  -10.8591   -9.6489 H   0  0  0  0  0  0
   -3.1920  -10.0717   -6.9001 H   0  0  0  0  0  0
   -4.3309  -10.1710   -8.2382 H   0  0  0  0  0  0
   -4.5184  -11.7520   -5.6212 H   0  0  0  0  0  0
   -5.4685  -10.3642   -6.0210 H   0  0  0  0  0  0
   -6.8650  -12.3189   -6.4577 H   0  0  0  0  0  0
   -6.3775  -11.6906   -8.0210 H   0  0  0  0  0  0
   -4.4296  -15.7579   -7.6940 H   0  0  0  0  0  0
   -5.2137  -17.4815   -9.2245 H   0  0  0  0  0  0
   -8.2446  -14.7903  -10.6815 H   0  0  0  0  0  0
   -7.5028  -13.0965   -9.1027 H   0  0  0  0  0  0
   -5.6159  -18.0823  -11.9506 H   0  0  0  0  0  0
   -6.0326  -19.0060  -10.5104 H   0  0  0  0  0  0
   -6.4515  -20.3824  -12.4594 H   0  0  0  0  0  0
   -7.4090  -19.1250  -13.2234 H   0  0  0  0  0  0
   -8.7524  -20.7721  -12.2388 H   0  0  0  0  0  0
  -10.1997  -19.4670  -10.9141 H   0  0  0  0  0  0
   -9.6235  -18.5475  -12.2925 H   0  0  0  0  0  0
  -11.4184  -17.9122   -9.6215 H   0  0  0  0  0  0
  -10.2681  -17.6941   -8.2971 H   0  0  0  0  0  0
  -13.1596  -17.0227   -8.0463 H   0  0  0  0  0  0
  -14.3073  -15.0289   -7.1837 H   0  0  0  0  0  0
  -14.2900  -12.5145   -6.7499 H   0  0  0  0  0  0
  -13.0848  -10.3523   -6.9459 H   0  0  0  0  0  0
  -10.8444  -10.3163   -8.0229 H   0  0  0  0  0  0
   -9.8137  -14.6165   -9.2227 H   0  0  0  0  0  0
  1  2  1  0  0  0
  1 41  1  0  0  0
  1 42  1  0  0  0
  1 43  1  0  0  0
  2  3  1  0  0  0
  3  8  1  0  0  0
  3  4  2  0  0  0
  4  5  1  0  0  0
  4 44  1  0  0  0
  5  6  2  0  0  0
  5 45  1  0  0  0
  6  7  1  0  0  0
  6 46  1  0  0  0
  7  8  2  0  0  0
  7 47  1  0  0  0
  8  9  1  0  0  0
  9 10  1  0  0  0
  9 48  1  0  0  0
  9 49  1  0  0  0
 10 11  1  0  0  0
 11 12  1  0  0  0
 11 50  1  0  0  0
 11 51  1  0  0  0
 12 13  1  0  0  0
 12 52  1  0  0  0
 12 53  1  0  0  0
 13 14  1  0  0  0
 13 54  1  0  0  0
 13 55  1  0  0  0
 14 15  1  0  0  0
 15 20  1  0  0  0
 15 16  2  0  0  0
 16 17  1  0  0  0
 16 56  1  0  0  0
 17 18  2  0  0  0
 17 57  1  0  0  0
 18 19  1  0  0  0
 18 21  1  0  0  0
 19 20  2  0  0  0
 19 58  1  0  0  0
 20 59  1  0  0  0
 21 39  1  0  0  0
 21 26  1  0  0  0
 21 22  1  0  0  0
 22 23  1  0  0  0
 22 60  1  0  0  0
 22 61  1  0  0  0
 23 24  1  0  0  0
 23 62  1  0  0  0
 23 63  1  0  0  0
 24 25  1  0  0  0
 24 64  1  0  0  0
 25 26  1  0  0  0
 25 65  1  0  0  0
 25 66  1  0  0  0
 26 40  1  0  0  0
 26 27  1  0  0  0
 27 28  1  0  0  0
 28 29  1  0  0  0
 28 67  1  0  0  0
 28 68  1  0  0  0
 29 38  1  0  0  0
 29 30  2  0  0  0
 30 31  1  0  0  0
 30 69  1  0  0  0
 31 32  2  0  0  0
 31 70  1  0  0  0
 32 37  1  0  0  0
 32 33  1  0  0  0
 33 34  2  0  0  0
 33 71  1  0  0  0
 34 35  1  0  0  0
 34 72  1  0  0  0
 35 36  2  0  0  0
 35 73  1  0  0  0
 36 37  1  0  0  0
 37 38  2  0  0  0
 38 74  1  0  0  0
M  END
> <s_m_entry_id>
27574

> <s_m_entry_name>
ligand_docking-pose.128

> <s_m_Source_Path>
/home/csk/Desktop/cluster/DUD-E-result/reni

> <s_m_Source_File>
ligand_docking-pose.sdf

> <i_m_Source_File_Index>
128

> <i_lp_mmshare_version>
53161

> <i_f3d_flags>
0

> <r_lp_tautomer_probability>
1

> <s_lp_Force_Field>
OPLS_2005

> <r_lp_Energy>
35.051582

> <b_lp_Chiralities_Consistent>
1

> <s_lp_Variant>
43082-1

> <s_i_glide_gridfile>
glide-grid_3g6z

> <i_i_glide_lignum>
844

> <i_i_glide_rotatable_bonds>
12

> <r_i_docking_score>
-6.90532985720776

> <r_i_glide_ligand_efficiency>
-0.181719206768625

> <r_i_glide_ligand_efficiency_sa>
-0.610935503358357

> <r_i_glide_ligand_efficiency_ln>
-1.4889922514378

> <r_i_glide_gscore>
-6.90532985720776

> <r_i_glide_lipo>
-4.18525619640664

> <r_i_glide_hbond>
0

> <r_i_glide_metal>
0

> <r_i_glide_rewards>
-0.899954896436744

> <r_i_glide_evdw>
-50.3262596130371

> <r_i_glide_ecoul>
-1.07942736148834

> <r_i_glide_erotb>
0.858108320510726

> <r_i_glide_esite>
0

> <r_i_glide_emodel>
-67.8691974336779

> <r_i_glide_energy>
-51.4056869745255

> <r_i_glide_einternal>
9.09977626800537

> <i_i_glide_confnum>
11

> <i_i_glide_posenum>
215

> <r_i_glide_eff_state_penalty>
0

> <s_user_duplicate_titles>
43082

> <s_m_subgroup_title>
dock_pv

> <s_m_subgroupid>
dock_pv1

> <b_m_subgroup_collapsed>
0

$$$$
549855
                    3D
 Schrodinger Suite 2021-1.
 86 86  0  0  1  0            999 V2000
   -1.5001  -18.4219  -11.6070 C   0  0  0  0  0  0
   -2.0899  -17.0884  -11.1040 C   0  0  1  0  0  0
   -1.0840  -15.9129  -11.2210 C   0  0  0  0  0  0
    0.1060  -16.0916  -10.9761 O   0  0  0  0  0  0
   -1.5298  -14.7204  -11.6211 N   0  0  0  0  0  0
   -3.3649  -16.8633  -11.8004 N   0  0  0  0  0  0
   -4.4689  -16.3150  -11.2702 C   0  0  0  0  0  0
   -4.5367  -15.9547  -10.0971 O   0  0  0  0  0  0
   -5.6827  -16.1785  -12.2233 C   0  0  1  0  0  0
   -6.5037  -17.5036  -12.2388 C   0  0  0  0  0  0
   -5.7851  -18.7793  -12.7615 C   0  0  1  0  0  0
   -6.7421  -20.0095  -12.8477 C   0  0  2  0  0  0
   -7.1437  -20.5228  -11.4333 C   0  0  0  0  0  0
   -8.6730  -20.6650  -11.1592 C   0  0  2  0  0  0
   -9.1119  -20.1544   -9.7477 C   0  0  0  0  0  0
   -8.8847  -18.6676   -9.4369 C   0  0  0  0  0  0
   -7.6536  -18.2435   -8.9392 C   0  0  0  0  0  0
   -7.4089  -16.8988   -8.6765 C   0  0  0  0  0  0
   -8.4192  -15.9444   -8.8476 C   0  0  0  0  0  0
   -9.6975  -16.3711   -9.2333 C   0  0  0  0  0  0
   -9.9089  -17.7213   -9.5755 C   0  0  0  0  0  0
  -10.6855  -15.4044   -9.2202 O   0  0  0  0  0  0
  -12.0589  -15.7688   -9.2272 C   0  0  0  0  0  0
  -12.8375  -14.7588   -8.3674 C   0  0  0  0  0  0
  -12.8011  -13.3090   -8.8935 C   0  0  0  0  0  0
  -13.7445  -12.4630   -8.2408 O   0  0  0  0  0  0
  -13.4433  -12.1468   -6.8885 C   0  0  0  0  0  0
   -8.2318  -14.5860   -8.6476 O   0  0  0  0  0  0
   -6.9849  -14.1127   -8.1464 C   0  0  0  0  0  0
   -9.1456  -22.1336  -11.4411 C   0  0  0  0  0  0
  -10.6701  -22.2796  -11.6105 C   0  0  0  0  0  0
   -8.6472  -23.1705  -10.4066 C   0  0  0  0  0  0
   -6.1298  -21.1168  -13.5779 N   0  0  0  0  0  0
   -5.2234  -18.4641  -14.0209 O   0  0  0  0  0  0
   -6.5463  -14.8891  -11.9930 C   0  0  0  0  0  0
   -7.7272  -14.7533  -12.9850 C   0  0  0  0  0  0
   -5.7127  -13.5859  -12.0366 C   0  0  0  0  0  0
   -2.2876  -17.2047  -10.0370 H   0  0  0  0  0  0
   -5.2769  -16.0627  -13.2221 H   0  0  0  0  0  0
   -4.9557  -19.0354  -12.1010 H   0  0  0  0  0  0
   -7.6267  -19.7109  -13.4141 H   0  0  0  0  0  0
   -9.1907  -20.0159  -11.8683 H   0  0  0  0  0  0
   -0.5818  -18.6777  -11.0755 H   0  0  0  0  0  0
   -2.1989  -19.2430  -11.4489 H   0  0  0  0  0  0
   -1.2664  -18.3874  -12.6720 H   0  0  0  0  0  0
   -2.5060  -14.5948  -11.8457 H   0  0  0  0  0  0
   -0.8776  -13.9497  -11.7311 H   0  0  0  0  0  0
   -3.3992  -17.1480  -12.7680 H   0  0  0  0  0  0
   -6.8710  -17.6807  -11.2397 H   0  0  0  0  0  0
   -7.4093  -17.3749  -12.8210 H   0  0  0  0  0  0
   -6.6185  -21.4452  -11.1876 H   0  0  0  0  0  0
   -6.7046  -19.8581  -10.7031 H   0  0  0  0  0  0
  -10.1720  -20.3567   -9.6207 H   0  0  0  0  0  0
   -8.6204  -20.7371   -8.9669 H   0  0  0  0  0  0
   -6.8501  -18.9512   -8.8177 H   0  0  0  0  0  0
   -6.4195  -16.6136   -8.3539 H   0  0  0  0  0  0
  -10.8724  -18.0512   -9.9298 H   0  0  0  0  0  0
  -12.4212  -15.7750  -10.2531 H   0  0  0  0  0  0
  -12.2350  -16.7591   -8.8074 H   0  0  0  0  0  0
  -13.8690  -15.0891   -8.2950 H   0  0  0  0  0  0
  -12.4450  -14.7917   -7.3523 H   0  0  0  0  0  0
  -11.7959  -12.8881   -8.8220 H   0  0  0  0  0  0
  -13.0687  -13.3008   -9.9499 H   0  0  0  0  0  0
  -14.1785  -11.4346   -6.5129 H   0  0  0  0  0  0
  -13.4837  -13.0285   -6.2489 H   0  0  0  0  0  0
  -12.4570  -11.6879   -6.7974 H   0  0  0  0  0  0
   -7.0523  -13.0388   -7.9832 H   0  0  0  0  0  0
   -6.7333  -14.5722   -7.1899 H   0  0  0  0  0  0
   -6.1720  -14.2850   -8.8509 H   0  0  0  0  0  0
   -8.7181  -22.4210  -12.4035 H   0  0  0  0  0  0
  -11.2176  -22.0158  -10.7078 H   0  0  0  0  0  0
  -11.0430  -21.6629  -12.4206 H   0  0  0  0  0  0
  -10.9364  -23.3060  -11.8613 H   0  0  0  0  0  0
   -9.0730  -22.9953   -9.4187 H   0  0  0  0  0  0
   -8.9283  -24.1818  -10.7016 H   0  0  0  0  0  0
   -7.5630  -23.1728  -10.3005 H   0  0  0  0  0  0
   -5.4356  -21.5693  -13.0008 H   0  0  0  0  0  0
   -6.8362  -21.8143  -13.7869 H   0  0  0  0  0  0
   -5.9474  -18.2694  -14.6386 H   0  0  0  0  0  0
   -6.9867  -14.9529  -10.9997 H   0  0  0  0  0  0
   -7.3908  -14.8246  -14.0198 H   0  0  0  0  0  0
   -8.4898  -15.5157  -12.8243 H   0  0  0  0  0  0
   -8.2412  -13.7976  -12.8713 H   0  0  0  0  0  0
   -5.1920  -13.4791  -12.9891 H   0  0  0  0  0  0
   -6.3444  -12.7064  -11.9134 H   0  0  0  0  0  0
   -4.9653  -13.5478  -11.2447 H   0  0  0  0  0  0
  1  2  1  0  0  0
  1 43  1  0  0  0
  1 44  1  0  0  0
  1 45  1  0  0  0
  2 38  1  0  0  0
  2  3  1  0  0  0
  2  6  1  0  0  0
  3  4  2  0  0  0
  3  5  1  0  0  0
  5 46  1  0  0  0
  5 47  1  0  0  0
  6  7  1  0  0  0
  6 48  1  0  0  0
  7  8  2  0  0  0
  7  9  1  0  0  0
  9 39  1  0  0  0
  9 10  1  0  0  0
  9 35  1  0  0  0
 10 11  1  0  0  0
 10 49  1  0  0  0
 10 50  1  0  0  0
 11 40  1  0  0  0
 11 12  1  0  0  0
 11 34  1  0  0  0
 12 41  1  0  0  0
 12 13  1  0  0  0
 12 33  1  0  0  0
 13 14  1  0  0  0
 13 51  1  0  0  0
 13 52  1  0  0  0
 14 42  1  0  0  0
 14 15  1  0  0  0
 14 30  1  0  0  0
 15 16  1  0  0  0
 15 53  1  0  0  0
 15 54  1  0  0  0
 16 21  1  0  0  0
 16 17  2  0  0  0
 17 18  1  0  0  0
 17 55  1  0  0  0
 18 19  2  0  0  0
 18 56  1  0  0  0
 19 20  1  0  0  0
 19 28  1  0  0  0
 20 21  2  0  0  0
 20 22  1  0  0  0
 21 57  1  0  0  0
 22 23  1  0  0  0
 23 24  1  0  0  0
 23 58  1  0  0  0
 23 59  1  0  0  0
 24 25  1  0  0  0
 24 60  1  0  0  0
 24 61  1  0  0  0
 25 26  1  0  0  0
 25 62  1  0  0  0
 25 63  1  0  0  0
 26 27  1  0  0  0
 27 64  1  0  0  0
 27 65  1  0  0  0
 27 66  1  0  0  0
 28 29  1  0  0  0
 29 67  1  0  0  0
 29 68  1  0  0  0
 29 69  1  0  0  0
 30 31  1  0  0  0
 30 32  1  0  0  0
 30 70  1  0  0  0
 31 71  1  0  0  0
 31 72  1  0  0  0
 31 73  1  0  0  0
 32 74  1  0  0  0
 32 75  1  0  0  0
 32 76  1  0  0  0
 33 77  1  0  0  0
 33 78  1  0  0  0
 34 79  1  0  0  0
 35 36  1  0  0  0
 35 37  1  0  0  0
 35 80  1  0  0  0
 36 81  1  0  0  0
 36 82  1  0  0  0
 36 83  1  0  0  0
 37 84  1  0  0  0
 37 85  1  0  0  0
 37 86  1  0  0  0
M  END
> <s_m_entry_id>
27575

> <s_m_entry_name>
ligand_docking-pose.129

> <s_m_Source_Path>
/home/csk/Desktop/cluster/DUD-E-result/reni

> <s_m_Source_File>
ligand_docking-pose.sdf

> <i_m_Source_File_Index>
129

> <i_lp_mmshare_version>
53161

> <i_f3d_flags>
0

> <r_lp_tautomer_probability>
1

> <s_lp_Force_Field>
OPLS_2005

> <r_lp_Energy>
35.8236

> <b_lp_Chiralities_Consistent>
1

> <s_lp_Variant>
549855-1

> <s_i_glide_gridfile>
glide-grid_3g6z

> <i_i_glide_lignum>
726

> <i_i_glide_rotatable_bonds>
20

> <r_i_docking_score>
-6.90241788031735

> <r_i_glide_ligand_efficiency>
-0.186551834603172

> <r_i_glide_ligand_efficiency_sa>
-0.621632098981109

> <r_i_glide_ligand_efficiency_ln>
-1.49697262260716

> <r_i_glide_gscore>
-6.90241788031735

> <r_i_glide_lipo>
-2.74788184009727

> <r_i_glide_hbond>
-0.803114105719232

> <r_i_glide_metal>
0

> <r_i_glide_rewards>
-0.139239916890027

> <r_i_glide_evdw>
-42.2624969482422

> <r_i_glide_ecoul>
-14.23388671875

> <r_i_glide_erotb>
1.05009340277375

> <r_i_glide_esite>
-0.0140675651599689

> <r_i_glide_emodel>
-76.7326522256873

> <r_i_glide_energy>
-56.4963836669922

> <r_i_glide_einternal>
8.92927837371826

> <i_i_glide_confnum>
153

> <i_i_glide_posenum>
301

> <r_i_glide_eff_state_penalty>
0

> <s_user_duplicate_titles>
549855

> <s_m_subgroup_title>
dock_pv

> <s_m_subgroupid>
dock_pv1

> <b_m_subgroup_collapsed>
0

$$$$
243102
                    3D
 Schrodinger Suite 2021-1.
 90 91  0  0  1  0            999 V2000
   -7.7659  -14.2983  -13.4011 C   0  0  0  0  0  0
   -7.1698  -14.4272  -11.9964 C   0  0  0  0  0  0
   -5.7678  -13.7907  -11.8872 C   0  0  0  0  0  0
   -4.9671  -14.1815  -10.6206 C   0  0  2  0  0  0
   -4.7101  -15.7078  -10.4844 C   0  0  0  0  0  0
   -4.9429  -16.2920   -9.4271 O   0  0  0  0  0  0
   -4.2519  -16.3470  -11.5840 N   0  0  0  0  0  0
   -3.9150  -17.7772  -11.7642 C   0  0  1  0  0  0
   -2.6436  -18.1823  -10.9575 C   0  0  0  0  0  0
   -2.1068  -19.6306  -11.1670 C   0  0  0  0  0  0
   -2.6157  -20.6890  -10.1395 C   0  0  0  0  0  0
   -2.4780  -22.1713  -10.5463 C   0  0  0  0  0  0
   -2.7553  -22.4135  -12.0352 C   0  0  0  0  0  0
   -1.7695  -21.5983  -12.8814 C   0  0  0  0  0  0
   -1.9165  -20.0829  -12.6474 C   0  0  0  0  0  0
   -5.1104  -18.7805  -11.6087 C   0  0  2  0  0  0
   -6.2839  -18.6056  -12.6225 C   0  0  2  0  0  0
   -7.4544  -19.6193  -12.4518 C   0  0  0  0  0  0
   -8.4712  -19.3520  -11.3053 C   0  0  0  0  0  0
   -9.3381  -20.5943  -11.0219 C   0  0  0  0  0  0
   -9.3589  -18.1205  -11.5648 C   0  0  0  0  0  0
   -5.7591  -18.7973  -13.9341 O   0  0  0  0  0  0
   -5.5495  -18.7799  -10.2616 O   0  0  0  0  0  0
   -5.6970  -13.6635   -9.5019 O   0  0  0  0  0  0
   -4.9663  -12.9501   -8.2233 P   0  0  2  0  0  0
   -4.2981  -13.8900   -7.2845 O   0  0  0  0  0  0
   -6.2801  -11.8256   -7.5506 C   0  0  0  0  0  0
   -7.7267  -12.2960   -7.7872 C   0  0  0  0  0  0
   -8.8033  -11.2242   -7.4365 C   0  0  0  0  0  0
  -10.2691  -11.6579   -7.6211 C   0  0  0  0  0  0
  -11.2770  -10.8359   -7.1101 C   0  0  0  0  0  0
  -12.6146  -11.2097   -7.2203 C   0  0  0  0  0  0
  -12.9518  -12.4001   -7.8563 C   0  0  0  0  0  0
  -11.9598  -13.2258   -8.3764 C   0  0  0  0  0  0
  -10.6219  -12.8564   -8.2603 C   0  0  0  0  0  0
   -3.9606  -11.8770   -8.9435 O   0  0  0  0  0  0
   -3.3076  -10.8049   -8.2680 C   0  0  0  0  0  0
   -2.7922  -11.1257   -6.8562 C   0  0  0  0  0  0
   -3.9894  -13.7020  -10.6818 H   0  0  0  0  0  0
   -3.6214  -17.8094  -12.8130 H   0  0  0  0  0  0
   -4.7366  -19.7864  -11.7975 H   0  0  0  0  0  0
   -6.6627  -17.5867  -12.5814 H   0  0  0  0  0  0
   -8.6704  -14.8958  -13.4914 H   0  0  0  0  0  0
   -8.0174  -13.2632  -13.6211 H   0  0  0  0  0  0
   -7.0704  -14.6521  -14.1638 H   0  0  0  0  0  0
   -7.1278  -15.4856  -11.7453 H   0  0  0  0  0  0
   -7.8408  -13.9767  -11.2637 H   0  0  0  0  0  0
   -5.8659  -12.7050  -11.9294 H   0  0  0  0  0  0
   -5.1813  -14.0515  -12.7677 H   0  0  0  0  0  0
   -4.1098  -15.7751  -12.4071 H   0  0  0  0  0  0
   -2.8198  -18.0169   -9.8933 H   0  0  0  0  0  0
   -1.8436  -17.4867  -11.2170 H   0  0  0  0  0  0
   -1.0637  -19.5864  -10.8528 H   0  0  0  0  0  0
   -3.6902  -20.5618  -10.0382 H   0  0  0  0  0  0
   -2.2300  -20.4964   -9.1363 H   0  0  0  0  0  0
   -3.1438  -22.7865   -9.9388 H   0  0  0  0  0  0
   -1.4699  -22.5129  -10.3143 H   0  0  0  0  0  0
   -3.7815  -22.1324  -12.2781 H   0  0  0  0  0  0
   -2.6690  -23.4755  -12.2678 H   0  0  0  0  0  0
   -1.9092  -21.8254  -13.9393 H   0  0  0  0  0  0
   -0.7495  -21.9045  -12.6407 H   0  0  0  0  0  0
   -1.1352  -19.5081  -13.1466 H   0  0  0  0  0  0
   -2.8321  -19.8419  -13.1842 H   0  0  0  0  0  0
   -8.0218  -19.6643  -13.3806 H   0  0  0  0  0  0
   -7.0285  -20.6170  -12.3414 H   0  0  0  0  0  0
   -7.9312  -19.1576  -10.3814 H   0  0  0  0  0  0
   -9.9461  -20.8720  -11.8812 H   0  0  0  0  0  0
   -8.7219  -21.4551  -10.7607 H   0  0  0  0  0  0
  -10.0141  -20.4209  -10.1842 H   0  0  0  0  0  0
  -10.0144  -18.2758  -12.4212 H   0  0  0  0  0  0
   -9.9930  -17.9044  -10.7055 H   0  0  0  0  0  0
   -8.7694  -17.2252  -11.7573 H   0  0  0  0  0  0
   -6.4059  -18.4629  -14.5787 H   0  0  0  0  0  0
   -5.4040  -17.8890   -9.9013 H   0  0  0  0  0  0
   -6.0893  -11.6792   -6.4886 H   0  0  0  0  0  0
   -6.1437  -10.8631   -8.0212 H   0  0  0  0  0  0
   -7.8427  -12.5657   -8.8362 H   0  0  0  0  0  0
   -7.8820  -13.2127   -7.2210 H   0  0  0  0  0  0
   -8.6632  -10.8632   -6.4153 H   0  0  0  0  0  0
   -8.6466  -10.3221   -8.0212 H   0  0  0  0  0  0
  -11.0260   -9.9066   -6.6190 H   0  0  0  0  0  0
  -13.3873  -10.5674   -6.8234 H   0  0  0  0  0  0
  -13.9895  -12.6831   -7.9458 H   0  0  0  0  0  0
  -12.2284  -14.1503   -8.8675 H   0  0  0  0  0  0
   -9.8738  -13.5187   -8.6679 H   0  0  0  0  0  0
   -2.4760  -10.4890   -8.8980 H   0  0  0  0  0  0
   -3.9840   -9.9513   -8.2246 H   0  0  0  0  0  0
   -2.1751  -10.3153   -6.4730 H   0  0  0  0  0  0
   -3.6151  -11.2634   -6.1559 H   0  0  0  0  0  0
   -2.1883  -12.0321   -6.8559 H   0  0  0  0  0  0
  1  2  1  0  0  0
  1 43  1  0  0  0
  1 44  1  0  0  0
  1 45  1  0  0  0
  2  3  1  0  0  0
  2 46  1  0  0  0
  2 47  1  0  0  0
  3  4  1  0  0  0
  3 48  1  0  0  0
  3 49  1  0  0  0
  4 39  1  0  0  0
  4  5  1  0  0  0
  4 24  1  0  0  0
  5  6  2  0  0  0
  5  7  1  0  0  0
  7  8  1  0  0  0
  7 50  1  0  0  0
  8 40  1  0  0  0
  8  9  1  0  0  0
  8 16  1  0  0  0
  9 10  1  0  0  0
  9 51  1  0  0  0
  9 52  1  0  0  0
 10 15  1  0  0  0
 10 11  1  0  0  0
 10 53  1  0  0  0
 11 12  1  0  0  0
 11 54  1  0  0  0
 11 55  1  0  0  0
 12 13  1  0  0  0
 12 56  1  0  0  0
 12 57  1  0  0  0
 13 14  1  0  0  0
 13 58  1  0  0  0
 13 59  1  0  0  0
 14 15  1  0  0  0
 14 60  1  0  0  0
 14 61  1  0  0  0
 15 62  1  0  0  0
 15 63  1  0  0  0
 16 41  1  0  0  0
 16 17  1  0  0  0
 16 23  1  0  0  0
 17 42  1  0  0  0
 17 18  1  0  0  0
 17 22  1  0  0  0
 18 19  1  0  0  0
 18 64  1  0  0  0
 18 65  1  0  0  0
 19 20  1  0  0  0
 19 21  1  0  0  0
 19 66  1  0  0  0
 20 67  1  0  0  0
 20 68  1  0  0  0
 20 69  1  0  0  0
 21 70  1  0  0  0
 21 71  1  0  0  0
 21 72  1  0  0  0
 22 73  1  0  0  0
 23 74  1  0  0  0
 24 25  1  0  0  0
 25 26  2  0  0  0
 25 27  1  0  0  0
 25 36  1  0  0  0
 27 28  1  0  0  0
 27 75  1  0  0  0
 27 76  1  0  0  0
 28 29  1  0  0  0
 28 77  1  0  0  0
 28 78  1  0  0  0
 29 30  1  0  0  0
 29 79  1  0  0  0
 29 80  1  0  0  0
 30 35  1  0  0  0
 30 31  2  0  0  0
 31 32  1  0  0  0
 31 81  1  0  0  0
 32 33  2  0  0  0
 32 82  1  0  0  0
 33 34  1  0  0  0
 33 83  1  0  0  0
 34 35  2  0  0  0
 34 84  1  0  0  0
 35 85  1  0  0  0
 36 37  1  0  0  0
 37 38  1  0  0  0
 37 86  1  0  0  0
 37 87  1  0  0  0
 38 88  1  0  0  0
 38 89  1  0  0  0
 38 90  1  0  0  0
M  END
> <s_m_entry_id>
27576

> <s_m_entry_name>
ligand_docking-pose.130

> <s_m_Source_Path>
/home/csk/Desktop/cluster/DUD-E-result/reni

> <s_m_Source_File>
ligand_docking-pose.sdf

> <i_m_Source_File_Index>
130

> <i_lp_mmshare_version>
53161

> <i_f3d_flags>
0

> <r_lp_tautomer_probability>
1

> <s_lp_Force_Field>
OPLS_2005

> <r_lp_Energy>
6.54601

> <b_lp_Chiralities_Consistent>
1

> <s_lp_Variant>
243102-2

> <s_i_glide_gridfile>
glide-grid_3g6z

> <i_i_glide_lignum>
512

> <i_i_glide_rotatable_bonds>
21

> <r_i_docking_score>
-6.90138004059654

> <r_i_glide_ligand_efficiency>
-0.181615264226225

> <r_i_glide_ligand_efficiency_sa>
-0.61058605108751

> <r_i_glide_ligand_efficiency_ln>
-1.48814055478459

> <r_i_glide_gscore>
-6.90138004059654

> <r_i_glide_lipo>
-4.24838084330936

> <r_i_glide_hbond>
-0.677711430057199

> <r_i_glide_metal>
0

> <r_i_glide_rewards>
0.600002357027629

> <r_i_glide_evdw>
-46.7099990844727

> <r_i_glide_ecoul>
-7.32341337203979

> <r_i_glide_erotb>
0.874892012174024

> <r_i_glide_esite>
-0.0161701764020264

> <r_i_glide_emodel>
-68.6098995302378

> <r_i_glide_energy>
-54.0334124565125

> <r_i_glide_einternal>
17.5707874298096

> <i_i_glide_confnum>
98

> <i_i_glide_posenum>
185

> <r_i_glide_eff_state_penalty>
0

> <s_user_duplicate_titles>
243102

> <s_m_subgroup_title>
dock_pv

> <s_m_subgroupid>
dock_pv1

> <b_m_subgroup_collapsed>
0

$$$$
116663
                    3D
 Schrodinger Suite 2021-1.
 79 80  0  0  1  0            999 V2000
   -8.0177  -14.6592  -13.3855 C   0  0  0  0  0  0
   -6.9861  -15.5266  -12.6397 C   0  0  1  0  0  0
   -6.0799  -14.6561  -11.7467 C   0  0  0  0  0  0
   -6.5622  -13.6630  -11.2110 O   0  0  0  0  0  0
   -4.7867  -15.0068  -11.6207 N   0  0  0  0  0  0
   -3.8066  -14.2287  -10.8379 C   0  0  1  0  0  0
   -4.0405  -14.3736   -9.3042 C   0  0  0  0  0  0
   -4.5964  -13.1135   -8.6066 C   0  0  0  0  0  0
   -4.8485  -13.4123   -7.1175 C   0  0  0  0  0  0
   -5.4785  -12.2073   -6.4080 C   0  0  0  0  0  0
   -4.5965  -10.9469   -6.5489 C   0  0  0  0  0  0
   -4.2616  -10.6356   -8.0188 C   0  0  0  0  0  0
   -3.6624  -11.8753   -8.7160 C   0  0  0  0  0  0
   -2.3220  -14.4574  -11.2609 C   0  0  2  0  0  0
   -1.8420  -15.9237  -11.1626 C   0  0  0  0  0  0
   -0.5072  -16.0642  -11.6212 O   0  0  0  0  0  0
   -1.4692  -13.6269  -10.4680 O   0  0  0  0  0  0
   -7.6956  -16.6109  -11.9475 N   0  0  0  0  0  0
   -8.3947  -16.5713  -10.7886 C   0  0  0  0  0  0
   -8.4560  -15.5870  -10.0544 O   0  0  0  0  0  0
   -9.1534  -17.8550  -10.3484 C   0  0  1  0  0  0
  -10.7042  -17.6551  -10.2332 C   0  0  0  0  0  0
  -11.2236  -16.6494   -9.2036 C   0  0  0  0  0  0
  -11.8879  -15.4812   -9.6208 C   0  0  0  0  0  0
  -12.4011  -14.5812   -8.6989 C   0  0  0  0  0  0
  -12.2692  -14.8264   -7.3411 C   0  0  0  0  0  0
  -11.6022  -15.9640   -6.9084 C   0  0  0  0  0  0
  -11.0619  -16.8620   -7.8203 C   0  0  0  0  0  0
   -8.6928  -19.0700  -11.0687 N   0  0  0  0  0  0
   -9.2527  -20.3363  -10.9767 C   0  0  0  0  0  0
  -10.2989  -20.6629  -10.4207 O   0  0  0  0  0  0
   -8.4080  -21.2035  -11.5889 O   0  0  0  0  0  0
   -8.5641  -22.6338  -11.6195 C   0  0  0  0  0  0
   -9.8323  -23.0396  -12.4075 C   0  0  0  0  0  0
   -8.5830  -23.2415  -10.1961 C   0  0  0  0  0  0
   -7.3051  -23.1374  -12.3472 C   0  0  0  0  0  0
   -2.2105  -14.1304  -12.2981 H   0  0  0  0  0  0
   -7.5282  -13.9232  -14.0206 H   0  0  0  0  0  0
   -8.6618  -15.2623  -14.0209 H   0  0  0  0  0  0
   -8.6684  -14.1216  -12.6976 H   0  0  0  0  0  0
   -6.3535  -16.0031  -13.3889 H   0  0  0  0  0  0
   -4.4378  -15.7887  -12.1538 H   0  0  0  0  0  0
   -3.9938  -13.1907  -11.1175 H   0  0  0  0  0  0
   -4.7121  -15.2128   -9.1137 H   0  0  0  0  0  0
   -3.1190  -14.6649   -8.8006 H   0  0  0  0  0  0
   -5.5606  -12.8626   -9.0467 H   0  0  0  0  0  0
   -5.5010  -14.2831   -7.0152 H   0  0  0  0  0  0
   -3.9158  -13.7022   -6.6307 H   0  0  0  0  0  0
   -6.4708  -12.0124   -6.8184 H   0  0  0  0  0  0
   -5.6193  -12.4630   -5.3593 H   0  0  0  0  0  0
   -5.0694  -10.0912   -6.0666 H   0  0  0  0  0  0
   -3.6566  -11.1031   -6.0204 H   0  0  0  0  0  0
   -5.1632  -10.3158   -8.5399 H   0  0  0  0  0  0
   -3.5627   -9.7987   -8.0708 H   0  0  0  0  0  0
   -2.6879  -12.1137   -8.2835 H   0  0  0  0  0  0
   -3.4440  -11.6291   -9.7535 H   0  0  0  0  0  0
   -1.8941  -16.2843  -10.1345 H   0  0  0  0  0  0
   -2.4797  -16.5739  -11.7607 H   0  0  0  0  0  0
    0.0719  -15.6982  -10.9446 H   0  0  0  0  0  0
   -0.7790  -13.2686  -11.0455 H   0  0  0  0  0  0
   -7.8147  -17.4282  -12.5320 H   0  0  0  0  0  0
   -8.7969  -18.0458   -9.3345 H   0  0  0  0  0  0
  -11.2317  -18.5729  -10.0024 H   0  0  0  0  0  0
  -11.0884  -17.3816  -11.2176 H   0  0  0  0  0  0
  -12.0031  -15.2889  -10.6734 H   0  0  0  0  0  0
  -12.9093  -13.6905   -9.0407 H   0  0  0  0  0  0
  -12.6686  -14.1273   -6.6203 H   0  0  0  0  0  0
  -11.4693  -16.1157   -5.8483 H   0  0  0  0  0  0
  -10.5252  -17.7255   -7.4588 H   0  0  0  0  0  0
   -7.7649  -19.0313  -11.4585 H   0  0  0  0  0  0
   -9.8694  -22.5499  -13.3799 H   0  0  0  0  0  0
   -9.8675  -24.1157  -12.5830 H   0  0  0  0  0  0
  -10.7478  -22.7636  -11.8839 H   0  0  0  0  0  0
   -7.7271  -22.9022   -9.6100 H   0  0  0  0  0  0
   -9.4775  -22.9666   -9.6420 H   0  0  0  0  0  0
   -8.5451  -24.3304  -10.2270 H   0  0  0  0  0  0
   -6.3986  -22.9083  -11.7824 H   0  0  0  0  0  0
   -7.3331  -24.2162  -12.5028 H   0  0  0  0  0  0
   -7.1926  -22.6685  -13.3243 H   0  0  0  0  0  0
  1  2  1  0  0  0
  1 38  1  0  0  0
  1 39  1  0  0  0
  1 40  1  0  0  0
  2  3  1  0  0  0
  2 18  1  0  0  0
  2 41  1  0  0  0
  3  4  2  0  0  0
  3  5  1  0  0  0
  5  6  1  0  0  0
  5 42  1  0  0  0
  6  7  1  0  0  0
  6 14  1  0  0  0
  6 43  1  0  0  0
  7  8  1  0  0  0
  7 44  1  0  0  0
  7 45  1  0  0  0
  8 13  1  0  0  0
  8  9  1  0  0  0
  8 46  1  0  0  0
  9 10  1  0  0  0
  9 47  1  0  0  0
  9 48  1  0  0  0
 10 11  1  0  0  0
 10 49  1  0  0  0
 10 50  1  0  0  0
 11 12  1  0  0  0
 11 51  1  0  0  0
 11 52  1  0  0  0
 12 13  1  0  0  0
 12 53  1  0  0  0
 12 54  1  0  0  0
 13 55  1  0  0  0
 13 56  1  0  0  0
 14 37  1  0  0  0
 14 15  1  0  0  0
 14 17  1  0  0  0
 15 16  1  0  0  0
 15 57  1  0  0  0
 15 58  1  0  0  0
 16 59  1  0  0  0
 17 60  1  0  0  0
 18 19  1  0  0  0
 18 61  1  0  0  0
 19 20  2  0  0  0
 19 21  1  0  0  0
 21 22  1  0  0  0
 21 29  1  0  0  0
 21 62  1  0  0  0
 22 23  1  0  0  0
 22 63  1  0  0  0
 22 64  1  0  0  0
 23 28  1  0  0  0
 23 24  2  0  0  0
 24 25  1  0  0  0
 24 65  1  0  0  0
 25 26  2  0  0  0
 25 66  1  0  0  0
 26 27  1  0  0  0
 26 67  1  0  0  0
 27 28  2  0  0  0
 27 68  1  0  0  0
 28 69  1  0  0  0
 29 30  1  0  0  0
 29 70  1  0  0  0
 30 31  2  0  0  0
 30 32  1  0  0  0
 32 33  1  0  0  0
 33 34  1  0  0  0
 33 35  1  0  0  0
 33 36  1  0  0  0
 34 71  1  0  0  0
 34 72  1  0  0  0
 34 73  1  0  0  0
 35 74  1  0  0  0
 35 75  1  0  0  0
 35 76  1  0  0  0
 36 77  1  0  0  0
 36 78  1  0  0  0
 36 79  1  0  0  0
M  END
> <s_m_entry_id>
27577

> <s_m_entry_name>
ligand_docking-pose.131

> <s_m_Source_Path>
/home/csk/Desktop/cluster/DUD-E-result/reni

> <s_m_Source_File>
ligand_docking-pose.sdf

> <i_m_Source_File_Index>
131

> <i_lp_mmshare_version>
53161

> <i_f3d_flags>
0

> <r_lp_tautomer_probability>
1

> <s_lp_Force_Field>
OPLS_2005

> <r_lp_Energy>
21.013744

> <b_lp_Chiralities_Consistent>
1

> <s_lp_Variant>
116663-8

> <s_i_glide_gridfile>
glide-grid_3g6z

> <i_i_glide_lignum>
647

> <i_i_glide_rotatable_bonds>
18

> <r_i_docking_score>
-6.88922958200116

> <r_i_glide_ligand_efficiency>
-0.191367488388921

> <r_i_glide_ligand_efficiency_sa>
-0.631881523709118

> <r_i_glide_ligand_efficiency_ln>
-1.5030437693188

> <r_i_glide_gscore>
-6.88922958200116

> <r_i_glide_lipo>
-3.60325269015967

> <r_i_glide_hbond>
-0.0204688845662117

> <r_i_glide_metal>
0

> <r_i_glide_rewards>
-0.740859864118192

> <r_i_glide_evdw>
-41.3970718383789

> <r_i_glide_ecoul>
-9.17468738555908

> <r_i_glide_erotb>
1.04002245234052

> <r_i_glide_esite>
-0.118613895744799

> <r_i_glide_emodel>
-65.2067298957785

> <r_i_glide_energy>
-50.571759223938

> <r_i_glide_einternal>
12.8153352737427

> <i_i_glide_confnum>
49

> <i_i_glide_posenum>
286

> <r_i_glide_eff_state_penalty>
0

> <s_user_duplicate_titles>
116663

> <s_m_subgroup_title>
dock_pv

> <s_m_subgroupid>
dock_pv1

> <b_m_subgroup_collapsed>
0

$$$$
116574
                    3D
 Schrodinger Suite 2021-1.
 73 74  0  0  1  0            999 V2000
   -7.9091  -14.7988  -13.5961 C   0  0  0  0  0  0
   -7.1515  -15.8017  -12.7060 C   0  0  2  0  0  0
   -8.0277  -16.3301  -11.5536 C   0  0  0  0  0  0
   -7.7729  -15.9954  -10.3983 O   0  0  0  0  0  0
   -9.0151  -17.1747  -11.9196 N   0  0  0  0  0  0
   -9.7836  -18.1351  -11.0969 C   0  0  1  0  0  0
   -9.7593  -17.9985   -9.5475 C   0  0  0  0  0  0
  -10.8482  -17.1107   -8.8563 C   0  0  0  0  0  0
  -10.6011  -17.0160   -7.3454 C   0  0  0  0  0  0
  -11.6949  -16.1836   -6.6297 C   0  0  0  0  0  0
  -11.9155  -14.7922   -7.2591 C   0  0  0  0  0  0
  -12.0888  -14.8708   -8.7850 C   0  0  0  0  0  0
  -10.9336  -15.6674   -9.4176 C   0  0  0  0  0  0
  -11.2040  -18.1769  -11.6220 C   0  0  0  0  0  0
  -12.0450  -18.9839  -11.2204 O   0  0  0  0  0  0
   -5.8609  -15.2654  -12.2474 N   0  0  0  0  0  0
   -5.6378  -14.0931  -11.6235 C   0  0  0  0  0  0
   -6.5280  -13.2640  -11.4554 O   0  0  0  0  0  0
   -4.2227  -13.7967  -11.0482 C   0  0  2  0  0  0
   -3.8042  -12.3036  -11.1791 C   0  0  0  0  0  0
   -3.0185  -11.7468  -10.0009 C   0  0  0  0  0  0
   -1.6095  -11.8100   -9.9750 C   0  0  0  0  0  0
   -0.9111  -11.3631   -8.8606 C   0  0  0  0  0  0
   -1.5963  -10.8885   -7.7485 C   0  0  0  0  0  0
   -2.9848  -10.8616   -7.7381 C   0  0  0  0  0  0
   -3.6985  -11.3006   -8.8453 C   0  0  0  0  0  0
   -3.1613  -14.6627  -11.5984 N   0  0  0  0  0  0
   -2.2696  -15.3082  -10.7558 C   0  0  0  0  0  0
   -2.2459  -15.2313   -9.5279 O   0  0  0  0  0  0
   -1.4374  -16.0792  -11.5050 O   0  0  0  0  0  0
   -0.5280  -17.0553  -10.9662 C   0  0  0  0  0  0
   -1.2906  -18.1297  -10.1532 C   0  0  0  0  0  0
    0.5790  -16.3848  -10.1195 C   0  0  0  0  0  0
    0.1128  -17.7220  -12.1988 C   0  0  0  0  0  0
   -8.7932  -15.2629  -14.0209 H   0  0  0  0  0  0
   -8.2677  -13.9262  -13.0511 H   0  0  0  0  0  0
   -7.2797  -14.4578  -14.4163 H   0  0  0  0  0  0
   -6.8910  -16.6656  -13.3166 H   0  0  0  0  0  0
   -9.0632  -17.3596  -12.9237 H   0  0  0  0  0  0
   -9.3221  -19.0966  -11.3325 H   0  0  0  0  0  0
   -9.8689  -19.0262   -9.2154 H   0  0  0  0  0  0
   -8.7685  -17.7524   -9.1707 H   0  0  0  0  0  0
  -11.8293  -17.5674   -8.9955 H   0  0  0  0  0  0
  -10.5385  -18.0095   -6.9012 H   0  0  0  0  0  0
   -9.6061  -16.6022   -7.2192 H   0  0  0  0  0  0
  -12.6340  -16.7384   -6.6622 H   0  0  0  0  0  0
  -11.4492  -16.0627   -5.5761 H   0  0  0  0  0  0
  -12.7854  -14.3132   -6.8065 H   0  0  0  0  0  0
  -11.0693  -14.1407   -7.0326 H   0  0  0  0  0  0
  -13.0407  -15.3470   -9.0265 H   0  0  0  0  0  0
  -12.1298  -13.8675   -9.2099 H   0  0  0  0  0  0
   -9.9838  -15.1483   -9.2823 H   0  0  0  0  0  0
  -11.0840  -15.6953  -10.4898 H   0  0  0  0  0  0
  -11.4505  -17.4448  -12.3936 H   0  0  0  0  0  0
   -5.0775  -15.8906  -12.3563 H   0  0  0  0  0  0
   -4.4080  -14.0121   -9.9912 H   0  0  0  0  0  0
   -4.6721  -11.6601  -11.2859 H   0  0  0  0  0  0
   -3.2298  -12.1441  -12.0947 H   0  0  0  0  0  0
   -1.0697  -12.2091  -10.8214 H   0  0  0  0  0  0
    0.1687  -11.4052   -8.8532 H   0  0  0  0  0  0
   -1.0479  -10.5512   -6.8821 H   0  0  0  0  0  0
   -3.5120  -10.5077   -6.8624 H   0  0  0  0  0  0
   -4.7782  -11.2943   -8.8194 H   0  0  0  0  0  0
   -3.0950  -14.7933  -12.6035 H   0  0  0  0  0  0
   -2.1486  -18.5112  -10.7098 H   0  0  0  0  0  0
   -0.6610  -18.9844   -9.9171 H   0  0  0  0  0  0
   -1.6686  -17.7382   -9.2081 H   0  0  0  0  0  0
    1.0736  -15.5880  -10.6752 H   0  0  0  0  0  0
    0.1839  -15.9417   -9.2065 H   0  0  0  0  0  0
    1.3426  -17.1055   -9.8222 H   0  0  0  0  0  0
    0.6323  -16.9954  -12.8225 H   0  0  0  0  0  0
    0.8377  -18.4827  -11.9108 H   0  0  0  0  0  0
   -0.6356  -18.2094  -12.8213 H   0  0  0  0  0  0
  1  2  1  0  0  0
  1 35  1  0  0  0
  1 36  1  0  0  0
  1 37  1  0  0  0
  2  3  1  0  0  0
  2 16  1  0  0  0
  2 38  1  0  0  0
  3  4  2  0  0  0
  3  5  1  0  0  0
  5  6  1  0  0  0
  5 39  1  0  0  0
  6  7  1  0  0  0
  6 14  1  0  0  0
  6 40  1  0  0  0
  7  8  1  0  0  0
  7 41  1  0  0  0
  7 42  1  0  0  0
  8 13  1  0  0  0
  8  9  1  0  0  0
  8 43  1  0  0  0
  9 10  1  0  0  0
  9 44  1  0  0  0
  9 45  1  0  0  0
 10 11  1  0  0  0
 10 46  1  0  0  0
 10 47  1  0  0  0
 11 12  1  0  0  0
 11 48  1  0  0  0
 11 49  1  0  0  0
 12 13  1  0  0  0
 12 50  1  0  0  0
 12 51  1  0  0  0
 13 52  1  0  0  0
 13 53  1  0  0  0
 14 15  2  0  0  0
 14 54  1  0  0  0
 16 17  1  0  0  0
 16 55  1  0  0  0
 17 18  2  0  0  0
 17 19  1  0  0  0
 19 20  1  0  0  0
 19 27  1  0  0  0
 19 56  1  0  0  0
 20 21  1  0  0  0
 20 57  1  0  0  0
 20 58  1  0  0  0
 21 26  1  0  0  0
 21 22  2  0  0  0
 22 23  1  0  0  0
 22 59  1  0  0  0
 23 24  2  0  0  0
 23 60  1  0  0  0
 24 25  1  0  0  0
 24 61  1  0  0  0
 25 26  2  0  0  0
 25 62  1  0  0  0
 26 63  1  0  0  0
 27 28  1  0  0  0
 27 64  1  0  0  0
 28 29  2  0  0  0
 28 30  1  0  0  0
 30 31  1  0  0  0
 31 32  1  0  0  0
 31 33  1  0  0  0
 31 34  1  0  0  0
 32 65  1  0  0  0
 32 66  1  0  0  0
 32 67  1  0  0  0
 33 68  1  0  0  0
 33 69  1  0  0  0
 33 70  1  0  0  0
 34 71  1  0  0  0
 34 72  1  0  0  0
 34 73  1  0  0  0
M  END
> <s_m_entry_id>
27579

> <s_m_entry_name>
ligand_docking-pose.133

> <s_m_Source_Path>
/home/csk/Desktop/cluster/DUD-E-result/reni

> <s_m_Source_File>
ligand_docking-pose.sdf

> <i_m_Source_File_Index>
133

> <i_lp_mmshare_version>
53161

> <i_f3d_flags>
0

> <r_lp_tautomer_probability>
0.99990000499975

> <s_lp_Force_Field>
OPLS_2005

> <r_lp_Energy>
13.219675

> <b_lp_Chiralities_Consistent>
1

> <s_lp_Variant>
116574-3

> <s_i_glide_gridfile>
glide-grid_3g6z

> <i_i_glide_lignum>
650

> <i_i_glide_rotatable_bonds>
15

> <r_i_docking_score>
-6.83561414366399

> <r_i_glide_ligand_efficiency>
-0.201047474813647

> <r_i_glide_ligand_efficiency_sa>
-0.651315771257736

> <r_i_glide_ligand_efficiency_ln>
-1.51017889681769

> <r_i_glide_gscore>
-6.83561414366399

> <r_i_glide_lipo>
-2.96190460310988

> <r_i_glide_hbond>
-0.515157866412054

> <r_i_glide_metal>
0

> <r_i_glide_rewards>
-0.859250568715533

> <r_i_glide_evdw>
-37.2503280639648

> <r_i_glide_ecoul>
-9.90578269958496

> <r_i_glide_erotb>
0.99204101821443

> <r_i_glide_esite>
-0.142958315504962

> <r_i_glide_emodel>
-62.0544103766397

> <r_i_glide_energy>
-47.1561107635498

> <r_i_glide_einternal>
12.8778839111328

> <i_i_glide_confnum>
191

> <i_i_glide_posenum>
389

> <r_i_glide_eff_state_penalty>
0

> <s_user_duplicate_titles>
116574

> <s_m_subgroup_title>
dock_pv

> <s_m_subgroupid>
dock_pv1

> <b_m_subgroup_collapsed>
0

$$$$
43113
                    3D
 Schrodinger Suite 2021-1.
 74 78  0  0  1  0            999 V2000
  -10.2114   -9.8634   -6.5944 C   0  0  0  0  0  0
  -11.4606   -9.6513   -6.0211 C   0  0  0  0  0  0
  -12.5368  -10.4334   -6.4243 C   0  0  0  0  0  0
  -12.3753  -11.3930   -7.4243 C   0  0  0  0  0  0
  -11.1193  -11.5953   -8.0033 C   0  0  0  0  0  0
  -10.0342  -10.8330   -7.5790 C   0  0  0  0  0  0
  -13.5987  -12.1608   -7.9144 C   0  0  0  0  0  0
  -13.3023  -13.5110   -8.2489 O   0  0  0  0  0  0
  -12.9613  -14.3613   -7.1601 C   0  0  0  0  0  0
  -13.1539  -15.8074   -7.6310 C   0  0  0  0  0  0
  -12.2075  -16.2196   -8.7689 C   0  0  0  0  0  0
  -10.9312  -16.4453   -8.1888 O   0  0  0  0  0  0
   -9.9197  -16.9569   -8.9694 C   0  0  0  0  0  0
   -8.8982  -17.5972   -8.2803 C   0  0  0  0  0  0
   -7.8303  -18.1498   -8.9702 C   0  0  0  0  0  0
   -7.7291  -18.0266  -10.3556 C   0  0  0  0  0  0
   -8.7567  -17.3811  -11.0568 C   0  0  0  0  0  0
   -9.8572  -16.8659  -10.3684 C   0  0  0  0  0  0
   -6.4890  -18.6183  -11.0460 C   0  0  1  0  0  0
   -6.7117  -19.0574  -12.4998 C   0  0  0  0  0  0
   -5.4877  -19.8213  -13.0163 C   0  0  0  0  0  0
   -4.2792  -19.0008  -13.0077 N   0  0  1  0  0  0
   -4.0374  -18.1183  -11.8593 C   0  0  0  0  0  0
   -5.2274  -17.7198  -10.9203 C   0  0  2  0  0  0
   -4.8153  -17.7236   -9.5473 O   0  0  0  0  0  0
   -3.7353  -16.8693   -9.1577 C   0  0  0  0  0  0
   -4.1841  -15.4965   -8.6629 C   0  0  0  0  0  0
   -5.4679  -15.2751   -8.1550 C   0  0  0  0  0  0
   -5.8042  -14.0345   -7.6110 C   0  0  0  0  0  0
   -4.8721  -12.9910   -7.5528 C   0  0  0  0  0  0
   -3.5976  -13.2020   -8.1177 C   0  0  0  0  0  0
   -3.2586  -14.4490   -8.6437 C   0  0  0  0  0  0
   -2.6114  -12.1933   -8.1191 N   0  0  0  0  0  0
   -2.8015  -10.9847   -7.3138 C   0  0  0  0  0  0
   -4.2769  -10.5492   -7.3350 C   0  0  0  0  0  0
   -5.2039  -11.6780   -6.8554 C   0  0  0  0  0  0
   -6.2926  -19.5408  -10.4955 H   0  0  0  0  0  0
   -5.5031  -16.6849  -11.1318 H   0  0  0  0  0  0
   -9.3743   -9.2639   -6.2738 H   0  0  0  0  0  0
  -11.5908   -8.8826   -5.2730 H   0  0  0  0  0  0
  -13.5174  -10.2549   -6.0205 H   0  0  0  0  0  0
  -10.9894  -12.3340   -8.7806 H   0  0  0  0  0  0
   -9.0588  -10.9867   -8.0158 H   0  0  0  0  0  0
  -14.4135  -12.1245   -7.1882 H   0  0  0  0  0  0
  -13.9677  -11.6693   -8.8161 H   0  0  0  0  0  0
  -11.9356  -14.1835   -6.8345 H   0  0  0  0  0  0
  -13.6113  -14.1798   -6.3024 H   0  0  0  0  0  0
  -13.0308  -16.4954   -6.7965 H   0  0  0  0  0  0
  -14.1849  -15.9294   -7.9605 H   0  0  0  0  0  0
  -12.5652  -17.1452   -9.2251 H   0  0  0  0  0  0
  -12.1706  -15.4539   -9.5461 H   0  0  0  0  0  0
   -8.9440  -17.6809   -7.2051 H   0  0  0  0  0  0
   -7.0686  -18.6734   -8.4210 H   0  0  0  0  0  0
   -8.7178  -17.2762  -12.1323 H   0  0  0  0  0  0
  -10.6402  -16.3792  -10.9302 H   0  0  0  0  0  0
   -7.5685  -19.7280  -12.5617 H   0  0  0  0  0  0
   -6.9046  -18.2126  -13.1620 H   0  0  0  0  0  0
   -5.6853  -20.1799  -14.0275 H   0  0  0  0  0  0
   -5.3016  -20.7003  -12.3965 H   0  0  0  0  0  0
   -3.4368  -19.5121  -13.2417 H   0  0  0  0  0  0
   -3.6115  -17.2018  -12.2738 H   0  0  0  0  0  0
   -3.2453  -18.5833  -11.2711 H   0  0  0  0  0  0
   -3.2421  -17.3514   -8.3127 H   0  0  0  0  0  0
   -2.9766  -16.7600   -9.9342 H   0  0  0  0  0  0
   -6.1969  -16.0718   -8.1483 H   0  0  0  0  0  0
   -6.7918  -13.8987   -7.1912 H   0  0  0  0  0  0
   -2.2646  -14.6081   -9.0359 H   0  0  0  0  0  0
   -1.6470  -12.4549   -8.2630 H   0  0  0  0  0  0
   -2.5145  -11.2628   -6.2995 H   0  0  0  0  0  0
   -2.1271  -10.1914   -7.6418 H   0  0  0  0  0  0
   -4.4058   -9.6631   -6.7122 H   0  0  0  0  0  0
   -4.5515  -10.2474   -8.3471 H   0  0  0  0  0  0
   -6.2497  -11.4075   -7.0052 H   0  0  0  0  0  0
   -5.0690  -11.8176   -5.7833 H   0  0  0  0  0  0
  1  6  1  0  0  0
  1  2  2  0  0  0
  1 39  1  0  0  0
  2  3  1  0  0  0
  2 40  1  0  0  0
  3  4  2  0  0  0
  3 41  1  0  0  0
  4  5  1  0  0  0
  4  7  1  0  0  0
  5  6  2  0  0  0
  5 42  1  0  0  0
  6 43  1  0  0  0
  7  8  1  0  0  0
  7 44  1  0  0  0
  7 45  1  0  0  0
  8  9  1  0  0  0
  9 10  1  0  0  0
  9 46  1  0  0  0
  9 47  1  0  0  0
 10 11  1  0  0  0
 10 48  1  0  0  0
 10 49  1  0  0  0
 11 12  1  0  0  0
 11 50  1  0  0  0
 11 51  1  0  0  0
 12 13  1  0  0  0
 13 18  1  0  0  0
 13 14  2  0  0  0
 14 15  1  0  0  0
 14 52  1  0  0  0
 15 16  2  0  0  0
 15 53  1  0  0  0
 16 17  1  0  0  0
 16 19  1  0  0  0
 17 18  2  0  0  0
 17 54  1  0  0  0
 18 55  1  0  0  0
 19 37  1  0  0  0
 19 24  1  0  0  0
 19 20  1  0  0  0
 20 21  1  0  0  0
 20 56  1  0  0  0
 20 57  1  0  0  0
 21 22  1  0  0  0
 21 58  1  0  0  0
 21 59  1  0  0  0
 22 23  1  0  0  0
 22 60  1  0  0  0
 23 24  1  0  0  0
 23 61  1  0  0  0
 23 62  1  0  0  0
 24 38  1  0  0  0
 24 25  1  0  0  0
 25 26  1  0  0  0
 26 27  1  0  0  0
 26 63  1  0  0  0
 26 64  1  0  0  0
 27 32  1  0  0  0
 27 28  2  0  0  0
 28 29  1  0  0  0
 28 65  1  0  0  0
 29 30  2  0  0  0
 29 66  1  0  0  0
 30 36  1  0  0  0
 30 31  1  0  0  0
 31 32  2  0  0  0
 31 33  1  0  0  0
 32 67  1  0  0  0
 33 34  1  0  0  0
 33 68  1  0  0  0
 34 35  1  0  0  0
 34 69  1  0  0  0
 34 70  1  0  0  0
 35 36  1  0  0  0
 35 71  1  0  0  0
 35 72  1  0  0  0
 36 73  1  0  0  0
 36 74  1  0  0  0
M  END
> <s_m_entry_id>
27581

> <s_m_entry_name>
ligand_docking-pose.135

> <s_m_Source_Path>
/home/csk/Desktop/cluster/DUD-E-result/reni

> <s_m_Source_File>
ligand_docking-pose.sdf

> <i_m_Source_File_Index>
135

> <i_lp_mmshare_version>
53161

> <i_f3d_flags>
0

> <r_lp_tautomer_probability>
1

> <s_lp_Force_Field>
OPLS_2005

> <r_lp_Energy>
38.882239

> <b_lp_Chiralities_Consistent>
1

> <s_lp_Variant>
43113-1

> <s_i_glide_gridfile>
glide-grid_3g6z

> <i_i_glide_lignum>
12

> <i_i_glide_rotatable_bonds>
11

> <r_i_docking_score>
-6.8212301129446

> <r_i_glide_ligand_efficiency>
-0.189478614248461

> <r_i_glide_ligand_efficiency_sa>
-0.625644598722451

> <r_i_glide_ligand_efficiency_ln>
-1.488208122304

> <r_i_glide_gscore>
-6.8212301129446

> <r_i_glide_lipo>
-4.97642967817676

> <r_i_glide_hbond>
-0.160258774876874

> <r_i_glide_metal>
0

> <r_i_glide_rewards>
0.436524611880126

> <r_i_glide_evdw>
-54.5015029907227

> <r_i_glide_ecoul>
-1.69447445869446

> <r_i_glide_erotb>
0.858180046569209

> <r_i_glide_esite>
0

> <r_i_glide_emodel>
-72.4075355030424

> <r_i_glide_energy>
-56.1959774494171

> <r_i_glide_einternal>
11.1922483444214

> <i_i_glide_confnum>
16

> <i_i_glide_posenum>
268

> <r_i_glide_eff_state_penalty>
0

> <s_user_duplicate_titles>
43113

> <s_m_subgroup_title>
dock_pv

> <s_m_subgroupid>
dock_pv1

> <b_m_subgroup_collapsed>
0

$$$$
555812
                    3D
 Schrodinger Suite 2021-1.
 80 80  0  0  1  0            999 V2000
  -11.0307  -16.6953   -8.0404 C   0  0  0  0  0  0
  -11.7559  -16.7142   -9.4000 C   0  0  0  0  0  0
  -11.1571  -17.6871  -10.4354 C   0  0  0  0  0  0
   -9.7651  -17.2678  -10.9480 C   0  0  0  0  0  0
   -9.0287  -18.3327  -11.6211 N   0  0  0  0  0  0
   -8.4365  -19.3585  -10.9840 C   0  0  0  0  0  0
   -8.5426  -19.5442   -9.7708 O   0  0  0  0  0  0
   -7.5266  -20.2743  -11.8290 C   0  0  2  0  0  0
   -7.6187  -21.7526  -11.3872 C   0  0  0  0  0  0
   -6.0619  -19.7551  -11.7858 C   0  0  0  0  0  0
   -5.8016  -18.5333  -12.7037 C   0  0  1  0  0  0
   -4.6395  -17.5881  -12.2528 C   0  0  2  0  0  0
   -3.3199  -18.2956  -11.8344 C   0  0  0  0  0  0
   -2.8361  -19.2586  -12.8206 N   0  0  2  0  0  0
   -1.6722  -20.0305  -12.3962 C   0  0  0  0  0  0
   -0.4155  -19.1497  -12.2747 C   0  0  0  0  0  0
   -1.4709  -21.1559  -13.4216 C   0  0  0  0  0  0
   -5.0285  -16.6286  -11.2054 N   0  0  0  0  0  0
   -5.9968  -15.6910  -11.2501 C   0  0  0  0  0  0
   -6.7894  -15.5674  -12.1839 O   0  0  0  0  0  0
   -6.0651  -14.7690  -10.0562 C   0  0  0  0  0  0
   -4.8970  -14.3492   -9.4073 C   0  0  0  0  0  0
   -4.9606  -13.4465   -8.3500 C   0  0  0  0  0  0
   -6.1941  -12.9488   -7.9036 C   0  0  0  0  0  0
   -7.3782  -13.3896   -8.5146 C   0  0  0  0  0  0
   -7.2988  -14.2823   -9.6004 C   0  0  0  0  0  0
   -8.5640  -12.8650   -8.0251 O   0  0  0  0  0  0
   -9.8067  -13.2496   -8.6072 C   0  0  0  0  0  0
  -10.9526  -12.7003   -7.7376 C   0  0  0  0  0  0
  -12.3390  -12.7781   -8.4056 C   0  0  0  0  0  0
  -13.4091  -12.5882   -7.4855 O   0  0  0  0  0  0
  -13.4717  -11.3049   -6.8729 C   0  0  0  0  0  0
   -6.3061  -12.0079   -6.8973 O   0  0  0  0  0  0
   -5.1569  -11.2561   -6.5283 C   0  0  0  0  0  0
   -5.6040  -19.0017  -14.0208 O   0  0  0  0  0  0
   -7.8703  -20.2443  -12.8656 H   0  0  0  0  0  0
   -6.7117  -17.9435  -12.7698 H   0  0  0  0  0  0
   -4.4016  -16.9502  -13.1084 H   0  0  0  0  0  0
  -11.4891  -15.9682   -7.3679 H   0  0  0  0  0  0
   -9.9764  -16.4406   -8.1308 H   0  0  0  0  0  0
  -11.0687  -17.6625   -7.5445 H   0  0  0  0  0  0
  -12.7964  -16.9805   -9.2209 H   0  0  0  0  0  0
  -11.7711  -15.7095   -9.8235 H   0  0  0  0  0  0
  -11.1240  -18.6942  -10.0208 H   0  0  0  0  0  0
  -11.8305  -17.7538  -11.2907 H   0  0  0  0  0  0
   -9.8569  -16.4117  -11.6146 H   0  0  0  0  0  0
   -9.1447  -16.9067  -10.1275 H   0  0  0  0  0  0
   -8.8910  -18.2185  -12.6198 H   0  0  0  0  0  0
   -8.6467  -22.1162  -11.4245 H   0  0  0  0  0  0
   -7.0277  -22.3948  -12.0402 H   0  0  0  0  0  0
   -7.2583  -21.8942  -10.3674 H   0  0  0  0  0  0
   -5.7965  -19.5091  -10.7541 H   0  0  0  0  0  0
   -5.3679  -20.5520  -12.0600 H   0  0  0  0  0  0
   -2.5587  -17.5318  -11.6637 H   0  0  0  0  0  0
   -3.4783  -18.8096  -10.8841 H   0  0  0  0  0  0
   -2.6608  -18.8059  -13.7072 H   0  0  0  0  0  0
   -1.8896  -20.4906  -11.4295 H   0  0  0  0  0  0
    0.4560  -19.7554  -12.0232 H   0  0  0  0  0  0
   -0.1941  -18.6347  -13.2097 H   0  0  0  0  0  0
   -0.5124  -18.4003  -11.4895 H   0  0  0  0  0  0
   -0.6496  -21.8089  -13.1251 H   0  0  0  0  0  0
   -2.3615  -21.7791  -13.5087 H   0  0  0  0  0  0
   -1.2399  -20.7712  -14.4142 H   0  0  0  0  0  0
   -4.4767  -16.6608  -10.3619 H   0  0  0  0  0  0
   -3.9247  -14.6872   -9.7358 H   0  0  0  0  0  0
   -4.0323  -13.1354   -7.8935 H   0  0  0  0  0  0
   -8.1963  -14.5984  -10.1102 H   0  0  0  0  0  0
   -9.8660  -12.8631   -9.6209 H   0  0  0  0  0  0
   -9.8929  -14.3297   -8.6728 H   0  0  0  0  0  0
  -10.9896  -13.2591   -6.8033 H   0  0  0  0  0  0
  -10.7376  -11.6647   -7.4770 H   0  0  0  0  0  0
  -12.4168  -12.0619   -9.2219 H   0  0  0  0  0  0
  -12.4815  -13.7624   -8.8487 H   0  0  0  0  0  0
  -14.3930  -11.2267   -6.2954 H   0  0  0  0  0  0
  -12.6415  -11.1431   -6.1852 H   0  0  0  0  0  0
  -13.4694  -10.5069   -7.6138 H   0  0  0  0  0  0
   -5.4653  -10.4603   -5.8516 H   0  0  0  0  0  0
   -4.4159  -11.8718   -6.0211 H   0  0  0  0  0  0
   -4.6919  -10.7777   -7.3929 H   0  0  0  0  0  0
   -6.1355  -18.4624  -14.6295 H   0  0  0  0  0  0
  1  2  1  0  0  0
  1 39  1  0  0  0
  1 40  1  0  0  0
  1 41  1  0  0  0
  2  3  1  0  0  0
  2 42  1  0  0  0
  2 43  1  0  0  0
  3  4  1  0  0  0
  3 44  1  0  0  0
  3 45  1  0  0  0
  4  5  1  0  0  0
  4 46  1  0  0  0
  4 47  1  0  0  0
  5  6  1  0  0  0
  5 48  1  0  0  0
  6  7  2  0  0  0
  6  8  1  0  0  0
  8 36  1  0  0  0
  8  9  1  0  0  0
  8 10  1  0  0  0
  9 49  1  0  0  0
  9 50  1  0  0  0
  9 51  1  0  0  0
 10 11  1  0  0  0
 10 52  1  0  0  0
 10 53  1  0  0  0
 11 37  1  0  0  0
 11 12  1  0  0  0
 11 35  1  0  0  0
 12 38  1  0  0  0
 12 13  1  0  0  0
 12 18  1  0  0  0
 13 14  1  0  0  0
 13 54  1  0  0  0
 13 55  1  0  0  0
 14 15  1  0  0  0
 14 56  1  0  0  0
 15 16  1  0  0  0
 15 17  1  0  0  0
 15 57  1  0  0  0
 16 58  1  0  0  0
 16 59  1  0  0  0
 16 60  1  0  0  0
 17 61  1  0  0  0
 17 62  1  0  0  0
 17 63  1  0  0  0
 18 19  1  0  0  0
 18 64  1  0  0  0
 19 20  2  0  0  0
 19 21  1  0  0  0
 21 26  1  0  0  0
 21 22  2  0  0  0
 22 23  1  0  0  0
 22 65  1  0  0  0
 23 24  2  0  0  0
 23 66  1  0  0  0
 24 25  1  0  0  0
 24 33  1  0  0  0
 25 26  2  0  0  0
 25 27  1  0  0  0
 26 67  1  0  0  0
 27 28  1  0  0  0
 28 29  1  0  0  0
 28 68  1  0  0  0
 28 69  1  0  0  0
 29 30  1  0  0  0
 29 70  1  0  0  0
 29 71  1  0  0  0
 30 31  1  0  0  0
 30 72  1  0  0  0
 30 73  1  0  0  0
 31 32  1  0  0  0
 32 74  1  0  0  0
 32 75  1  0  0  0
 32 76  1  0  0  0
 33 34  1  0  0  0
 34 77  1  0  0  0
 34 78  1  0  0  0
 34 79  1  0  0  0
 35 80  1  0  0  0
M  END
> <s_m_entry_id>
27582

> <s_m_entry_name>
ligand_docking-pose.136

> <s_m_Source_Path>
/home/csk/Desktop/cluster/DUD-E-result/reni

> <s_m_Source_File>
ligand_docking-pose.sdf

> <i_m_Source_File_Index>
136

> <i_lp_mmshare_version>
53161

> <i_f3d_flags>
0

> <r_lp_tautomer_probability>
1

> <s_lp_Force_Field>
OPLS_2005

> <r_lp_Energy>
29.58339

> <b_lp_Chiralities_Consistent>
1

> <s_lp_Variant>
555812-1

> <s_i_glide_gridfile>
glide-grid_3g6z

> <i_i_glide_lignum>
575

> <i_i_glide_rotatable_bonds>
21

> <r_i_docking_score>
-6.82012744885477

> <r_i_glide_ligand_efficiency>
-0.194860784252993

> <r_i_glide_ligand_efficiency_sa>
-0.637402545791498

> <r_i_glide_ligand_efficiency_ln>
-1.49716933959704

> <r_i_glide_gscore>
-6.82012744885477

> <r_i_glide_lipo>
-3.50146928128759

> <r_i_glide_hbond>
-0.530923647026494

> <r_i_glide_metal>
0

> <r_i_glide_rewards>
-0.333214229079647

> <r_i_glide_evdw>
-44.3534469604492

> <r_i_glide_ecoul>
-9.95456218719482

> <r_i_glide_erotb>
1.3277508855562

> <r_i_glide_esite>
-0.0714145009155552

> <r_i_glide_emodel>
-71.6907588051168

> <r_i_glide_energy>
-54.308009147644

> <r_i_glide_einternal>
11.8866243362427

> <i_i_glide_confnum>
138

> <i_i_glide_posenum>
140

> <r_i_glide_eff_state_penalty>
0

> <s_user_duplicate_titles>
555812

> <s_m_subgroup_title>
dock_pv

> <s_m_subgroupid>
dock_pv1

> <b_m_subgroup_collapsed>
0

$$$$
116359
                    3D
 Schrodinger Suite 2021-1.
 85 86  0  0  1  0            999 V2000
  -12.0902  -22.7316  -11.7377 C   0  0  0  0  0  0
  -12.4101  -21.2830  -11.3292 C   0  0  0  0  0  0
  -11.1616  -20.3837  -11.1201 C   0  0  1  0  0  0
  -11.5264  -18.8910  -10.8794 C   0  0  1  0  0  0
  -10.3990  -17.9341  -10.3734 C   0  0  2  0  0  0
  -10.8772  -16.4636  -10.2836 C   0  0  0  0  0  0
  -11.8339  -16.1528   -9.1065 C   0  0  0  0  0  0
  -11.0273  -16.0748   -7.8066 C   0  0  0  0  0  0
  -11.8980  -15.7165   -6.5888 C   0  0  0  0  0  0
  -12.6443  -14.3876   -6.7996 C   0  0  0  0  0  0
  -13.4365  -14.3985   -8.1175 C   0  0  0  0  0  0
  -12.5301  -14.7913   -9.3078 C   0  0  0  0  0  0
   -9.0976  -17.9879  -11.0685 N   0  0  0  0  0  0
   -8.0454  -18.6827  -10.5885 C   0  0  0  0  0  0
   -8.1482  -19.5986   -9.7763 O   0  0  0  0  0  0
   -6.6236  -18.2518  -10.9817 C   0  0  1  0  0  0
   -6.2896  -18.4486  -12.4709 C   0  0  0  0  0  0
   -6.0473  -19.8927  -12.8048 C   0  0  0  0  0  0
   -6.9757  -20.8719  -13.0709 C   0  0  0  0  0  0
   -6.2684  -22.0481  -13.2211 N   0  0  0  0  0  0
   -4.9785  -21.7512  -13.0661 C   0  0  0  0  0  0
   -4.7709  -20.4638  -12.8208 N   0  0  0  0  0  0
   -6.2291  -16.9126  -10.5508 N   0  0  0  0  0  0
   -6.3443  -16.3725   -9.3202 C   0  0  0  0  0  0
   -7.0652  -16.8131   -8.4256 O   0  0  0  0  0  0
   -5.4253  -15.1592   -9.0172 C   0  0  2  0  0  0
   -6.0499  -14.0784   -8.0821 C   0  0  0  0  0  0
   -5.1456  -12.8499   -7.8044 C   0  0  0  0  0  0
   -3.7091  -13.2164   -7.3842 C   0  0  0  0  0  0
   -5.7901  -11.8909   -6.7957 C   0  0  0  0  0  0
   -4.7379  -14.5622  -10.1813 N   0  0  0  0  0  0
   -5.4126  -13.8556  -11.1616 C   0  0  0  0  0  0
   -6.6281  -13.6656  -11.2317 O   0  0  0  0  0  0
   -4.5044  -13.3990  -12.0210 O   0  0  0  0  0  0
   -4.8339  -12.4518  -13.0224 C   0  0  0  0  0  0
   -3.9086  -11.2626  -12.8345 C   0  0  0  0  0  0
  -12.1979  -18.3852  -12.0209 O   0  0  0  0  0  0
  -10.4195  -20.9094  -10.0396 O   0  0  0  0  0  0
  -12.2856  -18.8630  -10.1020 H   0  0  0  0  0  0
  -10.2113  -18.2475   -9.3457 H   0  0  0  0  0  0
  -13.0053  -23.3057  -11.8907 H   0  0  0  0  0  0
  -11.5201  -22.7641  -12.6668 H   0  0  0  0  0  0
  -11.5056  -23.2388  -10.9708 H   0  0  0  0  0  0
  -13.0080  -21.2939  -10.4194 H   0  0  0  0  0  0
  -13.0657  -20.8518  -12.0873 H   0  0  0  0  0  0
  -10.5280  -20.4481  -12.0030 H   0  0  0  0  0  0
  -10.0033  -15.8148  -10.1889 H   0  0  0  0  0  0
  -11.3370  -16.1601  -11.2218 H   0  0  0  0  0  0
  -12.6112  -16.9130   -9.0085 H   0  0  0  0  0  0
  -10.4666  -16.9873   -7.6090 H   0  0  0  0  0  0
  -10.2689  -15.3191   -8.0210 H   0  0  0  0  0  0
  -12.6200  -16.5174   -6.4360 H   0  0  0  0  0  0
  -11.3083  -15.6702   -5.6762 H   0  0  0  0  0  0
  -13.3139  -14.1885   -5.9624 H   0  0  0  0  0  0
  -11.9255  -13.5659   -6.8101 H   0  0  0  0  0  0
  -14.2689  -15.1003   -8.0210 H   0  0  0  0  0  0
  -13.8691  -13.4136   -8.2915 H   0  0  0  0  0  0
  -11.7716  -14.0234   -9.4393 H   0  0  0  0  0  0
  -13.0687  -14.8032  -10.2496 H   0  0  0  0  0  0
   -8.9223  -17.2683  -11.7556 H   0  0  0  0  0  0
   -5.9448  -18.9009  -10.4246 H   0  0  0  0  0  0
   -7.0690  -18.0489  -13.1167 H   0  0  0  0  0  0
   -5.3795  -17.9056  -12.7303 H   0  0  0  0  0  0
   -6.6571  -22.9533  -13.4436 H   0  0  0  0  0  0
   -8.0519  -20.8279  -13.1473 H   0  0  0  0  0  0
   -4.1837  -22.4780  -13.1431 H   0  0  0  0  0  0
   -5.6614  -16.4092  -11.2163 H   0  0  0  0  0  0
   -4.6083  -15.6078   -8.4513 H   0  0  0  0  0  0
   -6.9955  -13.7307   -8.5019 H   0  0  0  0  0  0
   -6.3057  -14.5428   -7.1266 H   0  0  0  0  0  0
   -5.0681  -12.2883   -8.7364 H   0  0  0  0  0  0
   -3.6742  -14.1484   -6.8200 H   0  0  0  0  0  0
   -3.0655  -13.3317   -8.2573 H   0  0  0  0  0  0
   -3.2583  -12.4335   -6.7775 H   0  0  0  0  0  0
   -5.4664  -12.1105   -5.7777 H   0  0  0  0  0  0
   -5.5016  -10.8631   -7.0114 H   0  0  0  0  0  0
   -6.8790  -11.9492   -6.8208 H   0  0  0  0  0  0
   -3.7635  -14.7777  -10.3357 H   0  0  0  0  0  0
   -5.8733  -12.1232  -12.9630 H   0  0  0  0  0  0
   -4.6690  -12.8631  -14.0174 H   0  0  0  0  0  0
   -4.2669  -10.4084  -13.4074 H   0  0  0  0  0  0
   -2.8942  -11.4978  -13.1568 H   0  0  0  0  0  0
   -3.8692  -10.9811  -11.7849 H   0  0  0  0  0  0
  -11.5998  -18.3951  -12.7790 H   0  0  0  0  0  0
   -9.5786  -20.4275   -9.9616 H   0  0  0  0  0  0
  1  2  1  0  0  0
  1 41  1  0  0  0
  1 42  1  0  0  0
  1 43  1  0  0  0
  2  3  1  0  0  0
  2 44  1  0  0  0
  2 45  1  0  0  0
  3  4  1  0  0  0
  3 38  1  0  0  0
  3 46  1  0  0  0
  4 39  1  0  0  0
  4  5  1  0  0  0
  4 37  1  0  0  0
  5 40  1  0  0  0
  5  6  1  0  0  0
  5 13  1  0  0  0
  6  7  1  0  0  0
  6 47  1  0  0  0
  6 48  1  0  0  0
  7 12  1  0  0  0
  7  8  1  0  0  0
  7 49  1  0  0  0
  8  9  1  0  0  0
  8 50  1  0  0  0
  8 51  1  0  0  0
  9 10  1  0  0  0
  9 52  1  0  0  0
  9 53  1  0  0  0
 10 11  1  0  0  0
 10 54  1  0  0  0
 10 55  1  0  0  0
 11 12  1  0  0  0
 11 56  1  0  0  0
 11 57  1  0  0  0
 12 58  1  0  0  0
 12 59  1  0  0  0
 13 14  1  0  0  0
 13 60  1  0  0  0
 14 15  2  0  0  0
 14 16  1  0  0  0
 16 17  1  0  0  0
 16 23  1  0  0  0
 16 61  1  0  0  0
 17 62  1  0  0  0
 17 63  1  0  0  0
 17 18  1  0  0  0
 18 19  2  0  0  0
 18 22  1  0  0  0
 19 65  1  0  0  0
 19 20  1  0  0  0
 20 64  1  0  0  0
 20 21  1  0  0  0
 21 66  1  0  0  0
 21 22  2  0  0  0
 23 24  1  0  0  0
 23 67  1  0  0  0
 24 25  2  0  0  0
 24 26  1  0  0  0
 26 27  1  0  0  0
 26 31  1  0  0  0
 26 68  1  0  0  0
 27 28  1  0  0  0
 27 69  1  0  0  0
 27 70  1  0  0  0
 28 29  1  0  0  0
 28 30  1  0  0  0
 28 71  1  0  0  0
 29 72  1  0  0  0
 29 73  1  0  0  0
 29 74  1  0  0  0
 30 75  1  0  0  0
 30 76  1  0  0  0
 30 77  1  0  0  0
 31 32  1  0  0  0
 31 78  1  0  0  0
 32 33  2  0  0  0
 32 34  1  0  0  0
 34 35  1  0  0  0
 35 36  1  0  0  0
 35 79  1  0  0  0
 35 80  1  0  0  0
 36 81  1  0  0  0
 36 82  1  0  0  0
 36 83  1  0  0  0
 37 84  1  0  0  0
 38 85  1  0  0  0
M  END
> <s_m_entry_id>
27583

> <s_m_entry_name>
ligand_docking-pose.137

> <s_m_Source_Path>
/home/csk/Desktop/cluster/DUD-E-result/reni

> <s_m_Source_File>
ligand_docking-pose.sdf

> <i_m_Source_File_Index>
137

> <i_lp_mmshare_version>
53161

> <i_f3d_flags>
0

> <r_lp_tautomer_probability>
0.499999999999999

> <s_lp_Force_Field>
OPLS_2005

> <r_lp_Energy>
22.329446

> <b_lp_Chiralities_Consistent>
1

> <s_lp_Variant>
116359-12

> <s_i_glide_gridfile>
glide-grid_3g6z

> <i_i_glide_lignum>
496

> <i_i_glide_rotatable_bonds>
21

> <r_i_docking_score>
-6.81519809461762

> <r_i_glide_ligand_efficiency>
-0.179347318279411

> <r_i_glide_ligand_efficiency_sa>
-0.602961272599618

> <r_i_glide_ligand_efficiency_ln>
-1.46955719201554

> <r_i_glide_gscore>
-6.81519809461762

> <r_i_glide_lipo>
-3.44116772712223

> <r_i_glide_hbond>
-0.471935949952906

> <r_i_glide_metal>
0

> <r_i_glide_rewards>
-0.700360948335413

> <r_i_glide_evdw>
-39.6899261474609

> <r_i_glide_ecoul>
-7.73551559448242

> <r_i_glide_erotb>
1.00034454036887

> <r_i_glide_esite>
-0.0572543630305339

> <r_i_glide_emodel>
-44.72925762626

> <r_i_glide_energy>
-47.4254417419434

> <r_i_glide_einternal>
22.5723896026611

> <i_i_glide_confnum>
3

> <i_i_glide_posenum>
247

> <r_i_glide_eff_state_penalty>
0

> <s_user_duplicate_titles>
116359

> <s_m_subgroup_title>
dock_pv

> <s_m_subgroupid>
dock_pv1

> <b_m_subgroup_collapsed>
0

$$$$
555811
                    3D
 Schrodinger Suite 2021-1.
 91 91  0  0  1  0            999 V2000
   -4.9752  -12.6085  -12.5622 C   0  0  0  0  0  0
   -5.9198  -13.8332  -12.6507 C   0  0  0  0  0  0
   -7.3980  -13.4433  -12.4026 C   0  0  0  0  0  0
   -5.4395  -15.0212  -11.7579 C   0  0  2  0  0  0
   -6.0138  -16.3713  -12.3230 C   0  0  0  0  0  0
   -5.7920  -17.6450  -11.4760 C   0  0  1  0  0  0
   -6.5670  -18.9353  -11.9122 C   0  0  1  0  0  0
   -8.1276  -18.9768  -11.7463 C   0  0  0  0  0  0
   -8.7773  -18.4095  -10.5428 N   0  0  2  0  0  0
   -9.1935  -17.0089  -10.7853 C   0  0  0  0  0  0
  -10.2805  -16.4633   -9.8561 C   0  0  0  0  0  0
  -11.4400  -17.1995   -9.6261 C   0  0  0  0  0  0
  -12.3985  -16.7234   -8.7378 C   0  0  0  0  0  0
  -12.2555  -15.4746   -8.1181 C   0  0  0  0  0  0
  -11.1342  -14.6962   -8.4210 C   0  0  0  0  0  0
  -10.1216  -15.2235   -9.2210 C   0  0  0  0  0  0
  -11.0172  -13.4140   -7.9355 O   0  0  0  0  0  0
  -11.9475  -12.4799   -8.4893 C   0  0  0  0  0  0
  -12.5431  -11.5693   -7.4047 C   0  0  0  0  0  0
  -11.6517  -10.3692   -7.0730 C   0  0  0  0  0  0
  -10.4214  -10.8262   -6.5472 O   0  0  0  0  0  0
   -9.4694   -9.7861   -6.4183 C   0  0  0  0  0  0
  -13.1549  -14.9468   -7.2173 O   0  0  0  0  0  0
  -14.2738  -15.7143   -6.8210 C   0  0  0  0  0  0
   -8.1310  -18.7850   -9.2599 C   0  0  0  0  0  0
   -8.4231  -20.2642   -8.9451 C   0  0  0  0  0  0
   -8.4841  -17.8712   -8.0725 C   0  0  0  0  0  0
   -6.2690  -19.2948  -13.2992 N   0  0  0  0  0  0
   -4.4028  -17.9171  -11.3898 O   0  0  0  0  0  0
   -5.7133  -14.7309  -10.2547 C   0  0  0  0  0  0
   -6.7285  -15.1447   -9.7034 O   0  0  0  0  0  0
   -4.8514  -13.9333   -9.6075 N   0  0  0  0  0  0
   -5.1243  -13.3919   -8.2711 C   0  0  0  0  0  0
   -4.0528  -12.4252   -7.6861 C   0  0  0  0  0  0
   -4.6637  -11.7576   -6.4211 C   0  0  0  0  0  0
   -2.7992  -13.2399   -7.2726 C   0  0  0  0  0  0
   -3.6143  -11.3447   -8.7247 C   0  0  0  0  0  0
   -3.0362  -11.6556   -9.7632 O   0  0  0  0  0  0
   -3.8690  -10.0630   -8.4682 N   0  0  0  0  0  0
   -4.3557  -15.0983  -11.8625 H   0  0  0  0  0  0
   -6.0813  -17.4123  -10.4602 H   0  0  0  0  0  0
   -6.1785  -19.7449  -11.2920 H   0  0  0  0  0  0
   -5.0852  -12.0695  -11.6208 H   0  0  0  0  0  0
   -3.9294  -12.9062  -12.6432 H   0  0  0  0  0  0
   -5.1419  -11.8950  -13.3652 H   0  0  0  0  0  0
   -5.8690  -14.1732  -13.6853 H   0  0  0  0  0  0
   -7.5230  -12.8630  -11.4884 H   0  0  0  0  0  0
   -7.7932  -12.8603  -13.2212 H   0  0  0  0  0  0
   -8.0486  -14.3127  -12.3196 H   0  0  0  0  0  0
   -7.0804  -16.2751  -12.5105 H   0  0  0  0  0  0
   -5.5831  -16.5409  -13.3114 H   0  0  0  0  0  0
   -8.5878  -18.5346  -12.6285 H   0  0  0  0  0  0
   -8.4407  -20.0195  -11.8094 H   0  0  0  0  0  0
   -8.3332  -16.3574  -10.7763 H   0  0  0  0  0  0
   -9.6202  -16.9219  -11.7859 H   0  0  0  0  0  0
  -11.5770  -18.1581  -10.1045 H   0  0  0  0  0  0
  -13.2690  -17.3327   -8.5589 H   0  0  0  0  0  0
   -9.2405  -14.6290   -9.4108 H   0  0  0  0  0  0
  -11.4206  -11.8706   -9.2210 H   0  0  0  0  0  0
  -12.7658  -12.9612   -9.0303 H   0  0  0  0  0  0
  -13.5036  -11.1868   -7.7514 H   0  0  0  0  0  0
  -12.7575  -12.1487   -6.5064 H   0  0  0  0  0  0
  -11.4690   -9.7863   -7.9784 H   0  0  0  0  0  0
  -12.1496   -9.7154   -6.3545 H   0  0  0  0  0  0
   -8.5413  -10.1943   -6.0216 H   0  0  0  0  0  0
   -9.2496   -9.3359   -7.3874 H   0  0  0  0  0  0
   -9.8221   -9.0075   -5.7395 H   0  0  0  0  0  0
  -14.6690  -15.2631   -5.9247 H   0  0  0  0  0  0
  -15.0496  -15.6629   -7.5804 H   0  0  0  0  0  0
  -14.0429  -16.7556   -6.5925 H   0  0  0  0  0  0
   -7.0511  -18.7405   -9.3476 H   0  0  0  0  0  0
   -7.9293  -20.5785   -8.0252 H   0  0  0  0  0  0
   -9.4861  -20.4501   -8.8212 H   0  0  0  0  0  0
   -8.0656  -20.9241   -9.7353 H   0  0  0  0  0  0
   -7.8687  -18.0630   -7.2205 H   0  0  0  0  0  0
   -8.2612  -16.8291   -8.2839 H   0  0  0  0  0  0
   -9.5212  -17.9704   -7.7529 H   0  0  0  0  0  0
   -6.7266  -20.1667  -13.5236 H   0  0  0  0  0  0
   -6.7019  -18.6084  -13.9155 H   0  0  0  0  0  0
   -3.9484  -17.1093  -11.1417 H   0  0  0  0  0  0
   -4.0556  -13.5477  -10.1003 H   0  0  0  0  0  0
   -5.2874  -14.2233   -7.5795 H   0  0  0  0  0  0
   -6.0814  -12.8664   -8.3299 H   0  0  0  0  0  0
   -4.8751  -12.4630   -5.6218 H   0  0  0  0  0  0
   -3.9837  -11.0067   -6.0203 H   0  0  0  0  0  0
   -5.6060  -11.2517   -6.6385 H   0  0  0  0  0  0
   -3.0467  -14.0156   -6.5482 H   0  0  0  0  0  0
   -2.3405  -13.7460   -8.1243 H   0  0  0  0  0  0
   -2.0323  -12.6083   -6.8217 H   0  0  0  0  0  0
   -4.3320   -9.7916   -7.6161 H   0  0  0  0  0  0
   -3.5641   -9.3602   -9.1267 H   0  0  0  0  0  0
  1  2  1  0  0  0
  1 43  1  0  0  0
  1 44  1  0  0  0
  1 45  1  0  0  0
  2  3  1  0  0  0
  2  4  1  0  0  0
  2 46  1  0  0  0
  3 47  1  0  0  0
  3 48  1  0  0  0
  3 49  1  0  0  0
  4 40  1  0  0  0
  4  5  1  0  0  0
  4 30  1  0  0  0
  5  6  1  0  0  0
  5 50  1  0  0  0
  5 51  1  0  0  0
  6 41  1  0  0  0
  6  7  1  0  0  0
  6 29  1  0  0  0
  7 42  1  0  0  0
  7  8  1  0  0  0
  7 28  1  0  0  0
  8  9  1  0  0  0
  8 52  1  0  0  0
  8 53  1  0  0  0
  9 10  1  0  0  0
  9 25  1  0  0  0
 10 11  1  0  0  0
 10 54  1  0  0  0
 10 55  1  0  0  0
 11 16  1  0  0  0
 11 12  2  0  0  0
 12 13  1  0  0  0
 12 56  1  0  0  0
 13 14  2  0  0  0
 13 57  1  0  0  0
 14 15  1  0  0  0
 14 23  1  0  0  0
 15 16  2  0  0  0
 15 17  1  0  0  0
 16 58  1  0  0  0
 17 18  1  0  0  0
 18 19  1  0  0  0
 18 59  1  0  0  0
 18 60  1  0  0  0
 19 20  1  0  0  0
 19 61  1  0  0  0
 19 62  1  0  0  0
 20 21  1  0  0  0
 20 63  1  0  0  0
 20 64  1  0  0  0
 21 22  1  0  0  0
 22 65  1  0  0  0
 22 66  1  0  0  0
 22 67  1  0  0  0
 23 24  1  0  0  0
 24 68  1  0  0  0
 24 69  1  0  0  0
 24 70  1  0  0  0
 25 26  1  0  0  0
 25 27  1  0  0  0
 25 71  1  0  0  0
 26 72  1  0  0  0
 26 73  1  0  0  0
 26 74  1  0  0  0
 27 75  1  0  0  0
 27 76  1  0  0  0
 27 77  1  0  0  0
 28 78  1  0  0  0
 28 79  1  0  0  0
 29 80  1  0  0  0
 30 31  2  0  0  0
 30 32  1  0  0  0
 32 33  1  0  0  0
 32 81  1  0  0  0
 33 34  1  0  0  0
 33 82  1  0  0  0
 33 83  1  0  0  0
 34 35  1  0  0  0
 34 36  1  0  0  0
 34 37  1  0  0  0
 35 84  1  0  0  0
 35 85  1  0  0  0
 35 86  1  0  0  0
 36 87  1  0  0  0
 36 88  1  0  0  0
 36 89  1  0  0  0
 37 38  2  0  0  0
 37 39  1  0  0  0
 39 90  1  0  0  0
 39 91  1  0  0  0
M  END
> <s_m_entry_id>
27584

> <s_m_entry_name>
ligand_docking-pose.138

> <s_m_Source_Path>
/home/csk/Desktop/cluster/DUD-E-result/reni

> <s_m_Source_File>
ligand_docking-pose.sdf

> <i_m_Source_File_Index>
138

> <i_lp_mmshare_version>
53161

> <i_f3d_flags>
0

> <r_lp_tautomer_probability>
1

> <s_lp_Force_Field>
OPLS_2005

> <r_lp_Energy>
45.198425

> <b_lp_Chiralities_Consistent>
1

> <s_lp_Variant>
555811-1

> <s_i_glide_gridfile>
glide-grid_3g6z

> <i_i_glide_lignum>
452

> <i_i_glide_rotatable_bonds>
21

> <r_i_docking_score>
-6.80826020700837

> <r_i_glide_ligand_efficiency>
-0.174570774538676

> <r_i_glide_ligand_efficiency_sa>
-0.592006407508454

> <r_i_glide_ligand_efficiency_ln>
-1.45988425234148

> <r_i_glide_gscore>
-6.80826020700837

> <r_i_glide_lipo>
-3.82146268104855

> <r_i_glide_hbond>
-0.0551698718224235

> <r_i_glide_metal>
0

> <r_i_glide_rewards>
-0.704900266310287

> <r_i_glide_evdw>
-45.1312103271484

> <r_i_glide_ecoul>
-6.11395883560181

> <r_i_glide_erotb>
0.946926953870583

> <r_i_glide_esite>
0

> <r_i_glide_emodel>
-59.3417203604996

> <r_i_glide_energy>
-51.2451691627502

> <r_i_glide_einternal>
19.7147235870361

> <i_i_glide_confnum>
56

> <i_i_glide_posenum>
23

> <r_i_glide_eff_state_penalty>
0

> <s_user_duplicate_titles>
555811

> <s_m_subgroup_title>
dock_pv

> <s_m_subgroupid>
dock_pv1

> <b_m_subgroup_collapsed>
0

$$$$
